0
                    3D
 Structure written by MMmdl.
173182  0  0  1  0            999 V2000
  -30.7278  -14.4753   20.6432 C   0  0  0  0  0  0
  -30.4232  -12.3387   19.4187 C   0  0  0  0  0  0
  -29.4893  -12.5164   18.2042 C   0  0  0  0  0  0
  -28.0153  -12.3419   18.6175 C   0  0  0  0  0  0
  -27.6591  -13.1812   19.8687 C   0  0  2  0  0  0
  -28.7038  -12.9500   20.9911 C   0  0  0  0  0  0
  -25.2603  -13.8101   20.5647 C   0  0  0  0  0  0
  -24.1838  -13.0415   20.9176 C   0  0  0  0  0  0
  -24.6362  -11.6874   20.8745 C   0  0  0  0  0  0
  -23.9025  -10.4277   21.0420 C   0  0  0  0  0  0
  -24.3591   -9.4195   21.9192 C   0  0  0  0  0  0
  -23.6275   -8.2229   22.0756 C   0  0  0  0  0  0
  -22.4258   -8.0269   21.3545 C   0  0  0  0  0  0
  -21.9887   -9.0241   20.4649 C   0  0  0  0  0  0
  -22.7206  -10.2123   20.3062 C   0  0  0  0  0  0
  -21.6845   -6.0729   22.5280 C   0  0  0  0  0  0
  -21.4007   -6.5636   23.8213 C   0  0  0  0  0  0
  -21.3658   -5.6790   24.9176 C   0  0  0  0  0  0
  -21.6044   -4.3053   24.7227 C   0  0  0  0  0  0
  -21.8820   -3.8143   23.4349 C   0  0  0  0  0  0
  -21.9190   -4.6958   22.3404 C   0  0  0  0  0  0
  -22.7870  -13.5242   21.1845 C   0  0  0  0  0  0
  -22.1658   -4.2145   21.0981 F   0  0  0  0  0  0
  -21.5632   -3.4537   25.7740 F   0  0  0  0  0  0
  -30.0271  -13.3117   20.4585 N   0  0  0  0  0  0
  -26.3001  -12.9212   20.3323 N   0  0  0  0  0  0
  -25.9272  -11.6405   20.5759 N   0  0  0  0  0  0
  -22.0500  -12.8247   22.0403 N   0  0  0  0  0  0
  -25.4338  -15.1813   20.4019 N   0  0  0  0  0  0
  -31.8051  -14.6571   20.0628 O   0  0  0  0  0  0
  -21.6627   -6.8866   21.4239 O   0  0  0  0  0  0
  -22.3566  -14.5553   20.6694 O   0  0  0  0  0  0
  -24.6121  -31.8692   23.2115 C   0  0  0  0  0  0
  -25.9022  -32.4830   23.8407 C   0  0  1  0  0  0
  -27.2436  -27.4495   20.1058 C   0  0  0  0  0  0
  -25.5888  -33.8629   24.2341 N   0  0  0  0  0  0
  -23.4010  -30.4905   21.5504 C   0  0  2  0  0  0
  -24.8524  -28.9541   20.1203 C   0  0  0  0  0  0
  -22.7402  -29.4660   22.4999 C   0  0  0  0  0  0
  -18.0270  -28.1375   22.8494 C   0  0  0  0  0  0
  -24.1485  -36.7320   23.2638 C   0  0  0  0  0  0
  -25.9269  -30.8381   21.3645 C   0  0  0  0  0  0
  -26.0076  -29.4693   20.7226 C   0  0  0  0  0  0
  -27.2064  -28.7222   20.7208 C   0  0  0  0  0  0
  -26.0792  -26.9491   19.4912 C   0  0  0  0  0  0
  -24.8809  -27.6898   19.5043 C   0  0  0  0  0  0
  -23.6118  -29.8182   20.1664 C   0  0  0  0  0  0
  -25.4104  -36.3119   24.0342 C   0  0  1  0  0  0
  -20.5859  -28.3659   23.1325 C   0  0  2  0  0  0
  -20.6762  -26.9398   22.5421 C   0  0  0  0  0  0
  -19.5744  -26.6385   21.5215 C   0  0  0  0  0  0
  -18.1920  -26.7924   22.1621 C   0  0  0  0  0  0
  -19.1518  -28.8834   23.2908 C   0  0  0  0  0  0
  -18.9447  -30.1441   23.8916 C   0  0  0  0  0  0
  -17.6450  -30.6583   24.0565 C   0  0  0  0  0  0
  -25.9028  -34.9482   23.5139 C   0  0  0  0  0  0
  -16.5341  -29.9086   23.6324 C   0  0  0  0  0  0
  -16.7259  -28.6502   23.0346 C   0  0  0  0  0  0
  -26.4465  -31.6599   25.0722 C   0  0  0  0  0  0
  -25.3742  -31.3699   26.1480 C   0  0  0  0  0  0
  -27.0288  -30.3044   24.6076 C   0  0  0  0  0  0
  -27.6052  -32.4310   25.7474 C   0  0  0  0  0  0
  -27.5584  -37.1811   24.8463 C   0  0  0  0  0  0
  -21.4132  -29.3029   22.3734 N   0  0  0  0  0  0
  -26.4294  -37.3799   23.9410 N   0  0  0  0  0  0
  -24.6644  -31.0803   22.1010 N   0  0  0  0  0  0
  -23.4178  -28.8208   23.3043 O   0  0  0  0  0  0
  -28.3911  -26.6940   20.0320 O   0  0  0  0  0  0
  -26.5589  -34.8929   22.4699 O   0  0  0  0  0  0
  -23.5316  -32.1438   23.7515 O   0  0  0  0  0  0
  -30.6211  -20.4079   20.8328 C   0  0  0  0  0  0
  -28.7410  -22.0026   22.1492 C   0  0  0  0  0  0
  -29.7781  -19.8012   21.7933 C   0  0  0  0  0  0
  -30.5338  -21.7863   20.5362 C   0  0  0  0  0  0
  -28.8019  -20.6170   22.4417 C   0  0  0  0  0  0
  -29.5984  -22.6079   21.2011 C   0  0  0  0  0  0
  -28.9213  -17.4498   21.2878 C   0  0  0  0  0  0
  -31.3141  -17.6645   21.9221 C   0  0  0  0  0  0
  -28.9655  -15.9676   21.7112 C   0  0  0  0  0  0
  -31.3014  -16.1732   22.3520 C   0  0  0  0  0  0
  -29.9144  -18.2935   22.0987 C   0  0  0  0  0  0
  -31.4619  -22.3896   19.4983 C   0  0  0  0  0  0
  -26.3519  -20.4623   23.1648 C   0  0  0  0  0  0
  -28.2135  -20.4593   24.8951 C   0  0  0  0  0  0
  -28.9913  -26.3122   21.2729 C   0  0  0  0  0  0
  -28.7059  -24.8311   21.6112 C   0  0  0  0  0  0
  -27.8062  -20.0610   23.4696 C   0  0  0  0  0  0
  -30.3153  -15.3732   21.5911 N   0  0  0  0  0  0
  -29.5750  -23.9571   20.8827 O   0  0  0  0  0  0
  -31.4637  -12.4479   19.1082 H   0  0  0  0  0  0
  -30.3482  -11.3228   19.8097 H   0  0  0  0  0  0
  -29.7454  -11.7986   17.4238 H   0  0  0  0  0  0
  -29.6349  -13.5066   17.7694 H   0  0  0  0  0  0
  -27.8456  -11.2837   18.8201 H   0  0  0  0  0  0
  -27.3568  -12.6016   17.7877 H   0  0  0  0  0  0
  -27.6967  -14.2147   19.5314 H   0  0  0  0  0  0
  -28.7059  -11.8972   21.2771 H   0  0  0  0  0  0
  -28.4515  -13.4678   21.9143 H   0  0  0  0  0  0
  -25.2739   -9.5674   22.4761 H   0  0  0  0  0  0
  -23.9988   -7.4618   22.7472 H   0  0  0  0  0  0
  -21.0819   -8.8754   19.8954 H   0  0  0  0  0  0
  -22.3667  -10.9662   19.6170 H   0  0  0  0  0  0
  -21.1995   -7.6144   23.9714 H   0  0  0  0  0  0
  -21.1481   -6.0521   25.9079 H   0  0  0  0  0  0
  -22.0601   -2.7606   23.2848 H   0  0  0  0  0  0
  -22.4100  -11.9901   22.4792 H   0  0  0  0  0  0
  -21.1124  -13.1290   22.2612 H   0  0  0  0  0  0
  -24.6676  -15.8364   20.5120 H   0  0  0  0  0  0
  -26.2841  -15.6193   20.0728 H   0  0  0  0  0  0
  -26.7096  -32.5561   23.1180 H   0  0  0  0  0  0
  -25.0054  -33.9796   25.0495 H   0  0  0  0  0  0
  -22.6889  -31.3062   21.4088 H   0  0  0  0  0  0
  -23.3745  -35.9656   23.3309 H   0  0  0  0  0  0
  -24.3582  -36.8923   22.2051 H   0  0  0  0  0  0
  -23.7238  -37.6531   23.6641 H   0  0  0  0  0  0
  -26.0332  -31.5990   20.5901 H   0  0  0  0  0  0
  -26.8171  -30.8993   21.9786 H   0  0  0  0  0  0
  -28.1005  -29.1265   21.1749 H   0  0  0  0  0  0
  -26.1022  -25.9831   19.0065 H   0  0  0  0  0  0
  -23.9948  -27.2876   19.0328 H   0  0  0  0  0  0
  -23.7180  -30.5905   19.4038 H   0  0  0  0  0  0
  -22.7379  -29.2338   19.8727 H   0  0  0  0  0  0
  -25.1280  -36.1989   25.0836 H   0  0  0  0  0  0
  -20.9950  -28.3221   24.1445 H   0  0  0  0  0  0
  -20.5666  -26.2265   23.3605 H   0  0  0  0  0  0
  -21.6633  -26.7444   22.1211 H   0  0  0  0  0  0
  -19.6906  -25.6300   21.1232 H   0  0  0  0  0  0
  -19.6688  -27.3206   20.6754 H   0  0  0  0  0  0
  -17.4195  -26.6680   21.4017 H   0  0  0  0  0  0
  -18.0315  -26.0058   22.9008 H   0  0  0  0  0  0
  -19.7924  -30.7250   24.2295 H   0  0  0  0  0  0
  -17.5006  -31.6266   24.5161 H   0  0  0  0  0  0
  -15.5343  -30.2995   23.7639 H   0  0  0  0  0  0
  -15.8659  -28.0829   22.7050 H   0  0  0  0  0  0
  -24.5905  -30.7056   25.7820 H   0  0  0  0  0  0
  -24.8944  -32.2853   26.4954 H   0  0  0  0  0  0
  -25.8103  -30.8850   27.0222 H   0  0  0  0  0  0
  -26.2821  -29.6810   24.1141 H   0  0  0  0  0  0
  -27.4081  -29.7272   25.4518 H   0  0  0  0  0  0
  -27.8648  -30.4370   23.9203 H   0  0  0  0  0  0
  -27.2682  -33.3599   26.2089 H   0  0  0  0  0  0
  -28.3840  -32.6886   25.0284 H   0  0  0  0  0  0
  -28.0745  -31.8410   26.5358 H   0  0  0  0  0  0
  -28.2606  -38.0103   24.7511 H   0  0  0  0  0  0
  -28.1074  -36.2637   24.6284 H   0  0  0  0  0  0
  -27.2305  -37.1456   25.8867 H   0  0  0  0  0  0
  -20.9291  -29.8745   21.6953 H   0  0  0  0  0  0
  -26.0189  -38.2881   24.1410 H   0  0  0  0  0  0
  -31.3528  -19.8147   20.3053 H   0  0  0  0  0  0
  -28.0126  -22.6010   22.6730 H   0  0  0  0  0  0
  -27.9072  -17.8283   21.4196 H   0  0  0  0  0  0
  -29.1401  -17.5418   20.2229 H   0  0  0  0  0  0
  -31.6446  -17.7274   20.8852 H   0  0  0  0  0  0
  -32.0447  -18.2122   22.5190 H   0  0  0  0  0  0
  -28.2237  -15.4702   21.1064 H   0  0  0  0  0  0
  -28.6289  -15.8639   22.7436 H   0  0  0  0  0  0
  -31.0543  -16.0988   23.4120 H   0  0  0  0  0  0
  -32.3080  -15.7593   22.2661 H   0  0  0  0  0  0
  -29.7016  -18.1663   23.1594 H   0  0  0  0  0  0
  -32.0877  -21.6324   19.0255 H   0  0  0  0  0  0
  -32.1157  -23.1295   19.9606 H   0  0  0  0  0  0
  -30.8853  -22.8852   18.7167 H   0  0  0  0  0  0
  -26.0687  -20.1637   22.1549 H   0  0  0  0  0  0
  -26.1811  -21.5341   23.2578 H   0  0  0  0  0  0
  -25.6637  -19.9701   23.8528 H   0  0  0  0  0  0
  -29.2160  -20.0996   25.1291 H   0  0  0  0  0  0
  -27.5324  -20.0344   25.6329 H   0  0  0  0  0  0
  -28.2105  -21.5417   25.0265 H   0  0  0  0  0  0
  -30.0670  -26.4814   21.2174 H   0  0  0  0  0  0
  -28.6325  -26.9343   22.0944 H   0  0  0  0  0  0
  -27.6588  -24.5908   21.4211 H   0  0  0  0  0  0
  -28.8865  -24.6951   22.6787 H   0  0  0  0  0  0
  -27.7926  -18.9752   23.4350 H   0  0  0  0  0  0
  1 25  1  0  0  0
  1 30  2  0  0  0
  1 88  1  0  0  0
  2  3  1  0  0  0
  2 25  1  0  0  0
  2 90  1  0  0  0
  2 91  1  0  0  0
  3  4  1  0  0  0
  3 92  1  0  0  0
  3 93  1  0  0  0
  4  5  1  0  0  0
  4 94  1  0  0  0
  4 95  1  0  0  0
  5  6  1  0  0  0
  5 26  1  0  0  0
  5 96  1  0  0  0
  6 25  1  0  0  0
  6 97  1  0  0  0
  6 98  1  0  0  0
  7  8  2  0  0  0
  7 26  1  0  0  0
  7 29  1  0  0  0
  8  9  1  0  0  0
  8 22  1  0  0  0
  9 10  1  0  0  0
  9 27  2  0  0  0
 10 11  2  0  0  0
 10 15  1  0  0  0
 11 12  1  0  0  0
 11 99  1  0  0  0
 12 13  2  0  0  0
 12100  1  0  0  0
 13 14  1  0  0  0
 13 31  1  0  0  0
 14 15  2  0  0  0
 14101  1  0  0  0
 15102  1  0  0  0
 16 17  2  0  0  0
 16 21  1  0  0  0
 16 31  1  0  0  0
 17 18  1  0  0  0
 17103  1  0  0  0
 18 19  2  0  0  0
 18104  1  0  0  0
 19 20  1  0  0  0
 19 24  1  0  0  0
 20 21  2  0  0  0
 20105  1  0  0  0
 21 23  1  0  0  0
 22 28  1  0  0  0
 22 32  2  0  0  0
 26 27  1  0  0  0
 28106  1  0  0  0
 28107  1  0  0  0
 29108  1  0  0  0
 29109  1  0  0  0
 33 34  1  0  0  0
 33 66  1  0  0  0
 33 70  2  0  0  0
 34 36  1  0  0  0
 34 59  1  0  0  0
 34110  1  0  0  0
 35 44  2  0  0  0
 35 45  1  0  0  0
 35 68  1  0  0  0
 36 56  1  0  0  0
 36111  1  0  0  0
 37 39  1  0  0  0
 37 47  1  0  0  0
 37 66  1  0  0  0
 37112  1  0  0  0
 38 43  2  0  0  0
 38 46  1  0  0  0
 38 47  1  0  0  0
 39 64  1  0  0  0
 39 67  2  0  0  0
 40 52  1  0  0  0
 40 53  2  0  0  0
 40 58  1  0  0  0
 41113  1  0  0  0
 41114  1  0  0  0
 41115  1  0  0  0
 41 48  1  0  0  0
 42 43  1  0  0  0
 42 66  1  0  0  0
 42116  1  0  0  0
 42117  1  0  0  0
 43 44  1  0  0  0
 44118  1  0  0  0
 45 46  2  0  0  0
 45119  1  0  0  0
 46120  1  0  0  0
 47121  1  0  0  0
 47122  1  0  0  0
 48 56  1  0  0  0
 48 65  1  0  0  0
 48123  1  0  0  0
 49 50  1  0  0  0
 49 53  1  0  0  0
 49 64  1  0  0  0
 49124  1  0  0  0
 50 51  1  0  0  0
 50125  1  0  0  0
 50126  1  0  0  0
 51 52  1  0  0  0
 51127  1  0  0  0
 51128  1  0  0  0
 52129  1  0  0  0
 52130  1  0  0  0
 53 54  1  0  0  0
 54 55  2  0  0  0
 54131  1  0  0  0
 55 57  1  0  0  0
 55132  1  0  0  0
 56 69  2  0  0  0
 57 58  2  0  0  0
 57133  1  0  0  0
 58134  1  0  0  0
 59 60  1  0  0  0
 59 61  1  0  0  0
 59 62  1  0  0  0
 60135  1  0  0  0
 60136  1  0  0  0
 60137  1  0  0  0
 61138  1  0  0  0
 61139  1  0  0  0
 61140  1  0  0  0
 62141  1  0  0  0
 62142  1  0  0  0
 62143  1  0  0  0
 63 65  1  0  0  0
 63144  1  0  0  0
 63145  1  0  0  0
 63146  1  0  0  0
 64147  1  0  0  0
 65148  1  0  0  0
 68 85  1  0  0  0
 71 73  2  0  0  0
 71 74  1  0  0  0
 71149  1  0  0  0
 72 75  2  0  0  0
 72 76  1  0  0  0
 72150  1  0  0  0
 73 75  1  0  0  0
 73 81  1  0  0  0
 74 76  2  0  0  0
 74 82  1  0  0  0
 75 87  1  0  0  0
 76 89  1  0  0  0
 77 79  1  0  0  0
 77 81  1  0  0  0
 77151  1  0  0  0
 77152  1  0  0  0
 78 80  1  0  0  0
 78 81  1  0  0  0
 78153  1  0  0  0
 78154  1  0  0  0
 79 88  1  0  0  0
 79155  1  0  0  0
 79156  1  0  0  0
 80 88  1  0  0  0
 80157  1  0  0  0
 80158  1  0  0  0
 81159  1  0  0  0
 82160  1  0  0  0
 82161  1  0  0  0
 82162  1  0  0  0
 83163  1  0  0  0
 83164  1  0  0  0
 83165  1  0  0  0
 83 87  1  0  0  0
 84 87  1  0  0  0
 84166  1  0  0  0
 84167  1  0  0  0
 84168  1  0  0  0
 85 86  1  0  0  0
 85169  1  0  0  0
 85170  1  0  0  0
 86 89  1  0  0  0
 86171  1  0  0  0
 86172  1  0  0  0
 87173  1  0  0  0
M  ISO  4   1 100  68 101  85 101  88 100
M  END
> <chiral flag>
0

> <version>
0

> <s_m_source_file>
/data/baiqing/PycharmProjects/Reinvent-master-3.2/result/LINK_invent/BTK/process_docking_weight1_custom_sum_contain_oxygen_bond_distance_aromatic_linkinvent_7_9_3/rearranged_h_0153.sdf

> <i_m_source_file_index>
1

> <r_mmod_Potential_Energy-OPLS-2005>
152.080032348633

> <r_mmod_Stretch_Energy-OPLS-2005>
45.7057495117188

> <r_mmod_Bend_Energy-OPLS-2005>
124.945281982422

> <r_mmod_Torsional_Energy-OPLS-2005>
307.732574462891

> <r_mmod_Improper_Torsional_Energy-OPLS-2005>
4.20676898956299

> <r_mmod_Van_der_Waal_Energy-OPLS-2005>
170.491317749023

> <r_mmod_Electrostatic_Energy-OPLS-2005>
-315.55078125

> <r_mmod_Solvation_Energy-OPLS-2005>
-196.026382446289

> <b_mmod_Minimization_Converged-OPLS-2005>
0

> <r_mmod_RMS_Derivative-OPLS-2005>
0.226588234305382

$$$$
1
                    3D
 Structure written by MMmdl.
168177  0  0  1  0            999 V2000
  -30.6662  -14.6023   20.4783 C   0  0  0  0  0  0
  -30.4204  -12.3664   19.4497 C   0  0  0  0  0  0
  -29.4991  -12.4875   18.2187 C   0  0  0  0  0  0
  -28.0217  -12.3405   18.6326 C   0  0  0  0  0  0
  -27.6464  -13.2222   19.8548 C   0  0  2  0  0  0
  -28.6917  -13.1083   20.9854 C   0  0  0  0  0  0
  -25.2539  -13.8181   20.5701 C   0  0  0  0  0  0
  -24.1814  -13.0436   20.9191 C   0  0  0  0  0  0
  -24.6394  -11.6911   20.8738 C   0  0  0  0  0  0
  -23.9066  -10.4291   21.0400 C   0  0  0  0  0  0
  -24.3623   -9.4204   21.9179 C   0  0  0  0  0  0
  -23.6303   -8.2237   22.0748 C   0  0  0  0  0  0
  -22.4280   -8.0278   21.3539 C   0  0  0  0  0  0
  -21.9911   -9.0248   20.4641 C   0  0  0  0  0  0
  -22.7237  -10.2132   20.3051 C   0  0  0  0  0  0
  -21.6852   -6.0737   22.5280 C   0  0  0  0  0  0
  -21.4012   -6.5641   23.8215 C   0  0  0  0  0  0
  -21.3661   -5.6792   24.9176 C   0  0  0  0  0  0
  -21.6047   -4.3054   24.7224 C   0  0  0  0  0  0
  -21.8819   -3.8148   23.4345 C   0  0  0  0  0  0
  -21.9193   -4.6966   22.3402 C   0  0  0  0  0  0
  -22.7839  -13.5228   21.1858 C   0  0  0  0  0  0
  -22.1661   -4.2153   21.0980 F   0  0  0  0  0  0
  -21.5633   -3.4538   25.7736 F   0  0  0  0  0  0
  -30.0046  -13.4092   20.4043 N   0  0  0  0  0  0
  -26.2964  -12.9376   20.3308 N   0  0  0  0  0  0
  -25.9324  -11.6525   20.5761 N   0  0  0  0  0  0
  -22.0488  -12.8221   22.0421 N   0  0  0  0  0  0
  -25.4264  -15.1898   20.4144 N   0  0  0  0  0  0
  -31.8608  -14.6918   20.1766 O   0  0  0  0  0  0
  -21.6641   -6.8877   21.4241 O   0  0  0  0  0  0
  -22.3518  -14.5531   20.6704 O   0  0  0  0  0  0
  -24.6216  -31.8621   23.2046 C   0  0  0  0  0  0
  -25.9076  -32.4796   23.8366 C   0  0  1  0  0  0
  -27.2257  -27.3638   20.1160 C   0  0  0  0  0  0
  -25.5905  -33.8595   24.2298 N   0  0  0  0  0  0
  -23.4149  -30.4840   21.5458 C   0  0  2  0  0  0
  -24.8638  -28.9415   20.1121 C   0  0  0  0  0  0
  -22.7453  -29.4631   22.4954 C   0  0  0  0  0  0
  -18.0283  -28.1383   22.8489 C   0  0  0  0  0  0
  -24.1487  -36.7305   23.2641 C   0  0  0  0  0  0
  -25.9503  -30.8071   21.3681 C   0  0  0  0  0  0
  -26.0287  -29.4362   20.7143 C   0  0  0  0  0  0
  -27.2180  -28.6564   20.7100 C   0  0  0  0  0  0
  -26.0468  -26.9020   19.4999 C   0  0  0  0  0  0
  -24.8712  -27.6774   19.4973 C   0  0  0  0  0  0
  -23.6282  -29.8158   20.1612 C   0  0  0  0  0  0
  -25.4111  -36.3098   24.0335 C   0  0  1  0  0  0
  -20.5878  -28.3679   23.1299 C   0  0  2  0  0  0
  -20.6772  -26.9405   22.5423 C   0  0  0  0  0  0
  -19.5754  -26.6384   21.5218 C   0  0  0  0  0  0
  -18.1928  -26.7932   22.1617 C   0  0  0  0  0  0
  -19.1534  -28.8848   23.2891 C   0  0  0  0  0  0
  -18.9456  -30.1450   23.8908 C   0  0  0  0  0  0
  -17.6457  -30.6586   24.0566 C   0  0  0  0  0  0
  -25.9043  -34.9464   23.5120 C   0  0  0  0  0  0
  -16.5348  -29.9088   23.6327 C   0  0  0  0  0  0
  -16.7270  -28.6504   23.0348 C   0  0  0  0  0  0
  -26.4485  -31.6592   25.0715 C   0  0  0  0  0  0
  -25.3740  -31.3719   26.1459 C   0  0  0  0  0  0
  -27.0315  -30.3022   24.6133 C   0  0  0  0  0  0
  -27.6061  -32.4319   25.7469 C   0  0  0  0  0  0
  -27.5587  -37.1801   24.8462 C   0  0  0  0  0  0
  -21.4173  -29.3034   22.3695 N   0  0  0  0  0  0
  -26.4296  -37.3787   23.9411 N   0  0  0  0  0  0
  -24.6809  -31.0666   22.0976 N   0  0  0  0  0  0
  -23.4192  -28.8182   23.3032 O   0  0  0  0  0  0
  -28.3228  -26.5118   20.1354 O   0  0  0  0  0  0
  -26.5615  -34.8924   22.4687 O   0  0  0  0  0  0
  -23.5389  -32.1402   23.7397 O   0  0  0  0  0  0
  -28.0831  -21.5256   21.2561 C   0  0  0  0  0  0
  -27.7653  -22.9014   21.4448 C   0  0  0  0  0  0
  -28.4789  -23.9402   20.7684 C   0  0  0  0  0  0
  -29.8360  -22.1320   19.7193 C   0  0  0  0  0  0
  -29.1273  -21.1005   20.3981 C   0  0  0  0  0  0
  -29.5115  -23.5188   19.8866 C   0  0  0  0  0  0
  -28.5610  -17.5821   19.4485 C   0  0  0  0  0  0
  -29.2070  -17.8588   21.8564 C   0  0  0  0  0  0
  -29.6848  -16.5091   19.3466 C   0  0  0  0  0  0
  -30.2853  -16.7508   21.6190 C   0  0  0  0  0  0
  -28.7115  -18.6173   20.5937 C   0  0  0  0  0  0
  -26.6538  -23.2299   22.4311 C   0  0  0  0  0  0
  -30.9844  -21.7276   18.8062 C   0  0  0  0  0  0
  -29.7667  -24.7411   17.9166 C   0  0  0  0  0  0
  -28.2459  -25.4529   21.1411 C   0  0  0  0  0  0
  -29.9076  -15.7456   20.5974 N   0  0  0  0  0  0
  -29.5256  -19.7615   20.2040 O   0  0  0  0  0  0
  -30.2431  -24.4730   19.2288 O   0  0  0  0  0  0
  -31.4650  -12.4652   19.1494 H   0  0  0  0  0  0
  -30.3319  -11.3794   19.9065 H   0  0  0  0  0  0
  -29.7567  -11.7275   17.4795 H   0  0  0  0  0  0
  -29.6530  -13.4512   17.7306 H   0  0  0  0  0  0
  -27.8528  -11.2898   18.8702 H   0  0  0  0  0  0
  -27.3681  -12.5681   17.7897 H   0  0  0  0  0  0
  -27.6550  -14.2529   19.5016 H   0  0  0  0  0  0
  -28.6924  -12.1070   21.4180 H   0  0  0  0  0  0
  -28.4551  -13.7976   21.7981 H   0  0  0  0  0  0
  -25.2766   -9.5686   22.4754 H   0  0  0  0  0  0
  -24.0015   -7.4626   22.7460 H   0  0  0  0  0  0
  -21.0841   -8.8763   19.8949 H   0  0  0  0  0  0
  -22.3687  -10.9671   19.6164 H   0  0  0  0  0  0
  -21.1998   -7.6147   23.9723 H   0  0  0  0  0  0
  -21.1487   -6.0517   25.9080 H   0  0  0  0  0  0
  -22.0599   -2.7611   23.2841 H   0  0  0  0  0  0
  -22.4101  -11.9889   22.4821 H   0  0  0  0  0  0
  -21.1100  -13.1236   22.2619 H   0  0  0  0  0  0
  -24.6680  -15.8514   20.5371 H   0  0  0  0  0  0
  -26.2952  -15.6248   20.1340 H   0  0  0  0  0  0
  -26.7144  -32.5489   23.1122 H   0  0  0  0  0  0
  -25.0045  -33.9745   25.0437 H   0  0  0  0  0  0
  -22.7072  -31.3031   21.4028 H   0  0  0  0  0  0
  -23.3749  -35.9638   23.3305 H   0  0  0  0  0  0
  -24.3580  -36.8922   22.2054 H   0  0  0  0  0  0
  -23.7238  -37.6509   23.6658 H   0  0  0  0  0  0
  -26.0711  -31.5702   20.5981 H   0  0  0  0  0  0
  -26.8343  -30.8610   21.9916 H   0  0  0  0  0  0
  -28.1149  -29.0277   21.1858 H   0  0  0  0  0  0
  -26.0345  -25.9245   19.0382 H   0  0  0  0  0  0
  -23.9773  -27.2906   19.0280 H   0  0  0  0  0  0
  -23.7422  -30.5908   19.4023 H   0  0  0  0  0  0
  -22.7503  -29.2399   19.8630 H   0  0  0  0  0  0
  -25.1291  -36.1960   25.0829 H   0  0  0  0  0  0
  -20.9968  -28.3252   24.1419 H   0  0  0  0  0  0
  -20.5663  -26.2290   23.3620 H   0  0  0  0  0  0
  -21.6643  -26.7439   22.1219 H   0  0  0  0  0  0
  -19.6914  -25.6296   21.1245 H   0  0  0  0  0  0
  -19.6701  -27.3198   20.6752 H   0  0  0  0  0  0
  -17.4206  -26.6693   21.4007 H   0  0  0  0  0  0
  -18.0312  -26.0068   22.9002 H   0  0  0  0  0  0
  -19.7932  -30.7264   24.2283 H   0  0  0  0  0  0
  -17.5012  -31.6265   24.5166 H   0  0  0  0  0  0
  -15.5349  -30.2992   23.7648 H   0  0  0  0  0  0
  -15.8667  -28.0828   22.7055 H   0  0  0  0  0  0
  -24.5911  -30.7067   25.7796 H   0  0  0  0  0  0
  -24.8933  -32.2880   26.4902 H   0  0  0  0  0  0
  -25.8082  -30.8891   27.0222 H   0  0  0  0  0  0
  -26.2862  -29.6774   24.1191 H   0  0  0  0  0  0
  -27.4065  -29.7276   25.4613 H   0  0  0  0  0  0
  -27.8714  -30.4321   23.9302 H   0  0  0  0  0  0
  -27.2679  -33.3601   26.2089 H   0  0  0  0  0  0
  -28.3837  -32.6913   25.0270 H   0  0  0  0  0  0
  -28.0772  -31.8423   26.5344 H   0  0  0  0  0  0
  -28.2608  -38.0094   24.7509 H   0  0  0  0  0  0
  -28.1078  -36.2628   24.6283 H   0  0  0  0  0  0
  -27.2310  -37.1447   25.8866 H   0  0  0  0  0  0
  -20.9344  -29.8753   21.6905 H   0  0  0  0  0  0
  -26.0186  -38.2864   24.1416 H   0  0  0  0  0  0
  -27.5277  -20.7958   21.8258 H   0  0  0  0  0  0
  -27.6179  -17.0548   19.5933 H   0  0  0  0  0  0
  -28.4553  -18.1041   18.4965 H   0  0  0  0  0  0
  -29.5582  -18.5756   22.5991 H   0  0  0  0  0  0
  -28.3418  -17.3727   22.3094 H   0  0  0  0  0  0
  -30.6166  -16.9886   19.0394 H   0  0  0  0  0  0
  -29.4284  -15.8191   18.5401 H   0  0  0  0  0  0
  -30.4811  -16.2421   22.5646 H   0  0  0  0  0  0
  -31.2289  -17.2209   21.3341 H   0  0  0  0  0  0
  -27.7004  -18.9702   20.7879 H   0  0  0  0  0  0
  -26.2234  -22.3312   22.8735 H   0  0  0  0  0  0
  -25.8441  -23.7647   21.9332 H   0  0  0  0  0  0
  -27.0305  -23.8449   23.2492 H   0  0  0  0  0  0
  -31.5770  -20.9315   19.2576 H   0  0  0  0  0  0
  -31.6653  -22.5539   18.6056 H   0  0  0  0  0  0
  -30.5970  -21.3640   17.8544 H   0  0  0  0  0  0
  -30.2866  -25.6078   17.5092 H   0  0  0  0  0  0
  -28.6982  -24.9621   17.9118 H   0  0  0  0  0  0
  -29.9464  -23.8996   17.2469 H   0  0  0  0  0  0
  -29.0107  -25.6936   21.8796 H   0  0  0  0  0  0
  -27.3084  -25.5571   21.6852 H   0  0  0  0  0  0
  1 25  1  0  0  0
  1 30  2  0  0  0
  1 86  1  0  0  0
  2  3  1  0  0  0
  2 25  1  0  0  0
  2 89  1  0  0  0
  2 90  1  0  0  0
  3  4  1  0  0  0
  3 91  1  0  0  0
  3 92  1  0  0  0
  4  5  1  0  0  0
  4 93  1  0  0  0
  4 94  1  0  0  0
  5  6  1  0  0  0
  5 26  1  0  0  0
  5 95  1  0  0  0
  6 25  1  0  0  0
  6 96  1  0  0  0
  6 97  1  0  0  0
  7  8  2  0  0  0
  7 26  1  0  0  0
  7 29  1  0  0  0
  8  9  1  0  0  0
  8 22  1  0  0  0
  9 10  1  0  0  0
  9 27  2  0  0  0
 10 11  2  0  0  0
 10 15  1  0  0  0
 11 12  1  0  0  0
 11 98  1  0  0  0
 12 13  2  0  0  0
 12 99  1  0  0  0
 13 14  1  0  0  0
 13 31  1  0  0  0
 14 15  2  0  0  0
 14100  1  0  0  0
 15101  1  0  0  0
 16 17  2  0  0  0
 16 21  1  0  0  0
 16 31  1  0  0  0
 17 18  1  0  0  0
 17102  1  0  0  0
 18 19  2  0  0  0
 18103  1  0  0  0
 19 20  1  0  0  0
 19 24  1  0  0  0
 20 21  2  0  0  0
 20104  1  0  0  0
 21 23  1  0  0  0
 22 28  1  0  0  0
 22 32  2  0  0  0
 26 27  1  0  0  0
 28105  1  0  0  0
 28106  1  0  0  0
 29107  1  0  0  0
 29108  1  0  0  0
 33 34  1  0  0  0
 33 66  1  0  0  0
 33 70  2  0  0  0
 34 36  1  0  0  0
 34 59  1  0  0  0
 34109  1  0  0  0
 35 44  2  0  0  0
 35 45  1  0  0  0
 35 68  1  0  0  0
 36 56  1  0  0  0
 36110  1  0  0  0
 37 39  1  0  0  0
 37 47  1  0  0  0
 37 66  1  0  0  0
 37111  1  0  0  0
 38 43  2  0  0  0
 38 46  1  0  0  0
 38 47  1  0  0  0
 39 64  1  0  0  0
 39 67  2  0  0  0
 40 52  1  0  0  0
 40 53  2  0  0  0
 40 58  1  0  0  0
 41112  1  0  0  0
 41113  1  0  0  0
 41114  1  0  0  0
 41 48  1  0  0  0
 42 43  1  0  0  0
 42 66  1  0  0  0
 42115  1  0  0  0
 42116  1  0  0  0
 43 44  1  0  0  0
 44117  1  0  0  0
 45 46  2  0  0  0
 45118  1  0  0  0
 46119  1  0  0  0
 47120  1  0  0  0
 47121  1  0  0  0
 48 56  1  0  0  0
 48 65  1  0  0  0
 48122  1  0  0  0
 49 50  1  0  0  0
 49 53  1  0  0  0
 49 64  1  0  0  0
 49123  1  0  0  0
 50 51  1  0  0  0
 50124  1  0  0  0
 50125  1  0  0  0
 51 52  1  0  0  0
 51126  1  0  0  0
 51127  1  0  0  0
 52128  1  0  0  0
 52129  1  0  0  0
 53 54  1  0  0  0
 54 55  2  0  0  0
 54130  1  0  0  0
 55 57  1  0  0  0
 55131  1  0  0  0
 56 69  2  0  0  0
 57 58  2  0  0  0
 57132  1  0  0  0
 58133  1  0  0  0
 59 60  1  0  0  0
 59 61  1  0  0  0
 59 62  1  0  0  0
 60134  1  0  0  0
 60135  1  0  0  0
 60136  1  0  0  0
 61137  1  0  0  0
 61138  1  0  0  0
 61139  1  0  0  0
 62140  1  0  0  0
 62141  1  0  0  0
 62142  1  0  0  0
 63 65  1  0  0  0
 63143  1  0  0  0
 63144  1  0  0  0
 63145  1  0  0  0
 64146  1  0  0  0
 65147  1  0  0  0
 68 85  1  0  0  0
 71 72  2  0  0  0
 71 75  1  0  0  0
 71148  1  0  0  0
 72 73  1  0  0  0
 72 82  1  0  0  0
 73 76  2  0  0  0
 73 85  1  0  0  0
 74 75  2  0  0  0
 74 76  1  0  0  0
 74 83  1  0  0  0
 75 87  1  0  0  0
 76 88  1  0  0  0
 77 79  1  0  0  0
 77 81  1  0  0  0
 77149  1  0  0  0
 77150  1  0  0  0
 78 80  1  0  0  0
 78 81  1  0  0  0
 78151  1  0  0  0
 78152  1  0  0  0
 79 86  1  0  0  0
 79153  1  0  0  0
 79154  1  0  0  0
 80 86  1  0  0  0
 80155  1  0  0  0
 80156  1  0  0  0
 81 87  1  0  0  0
 81157  1  0  0  0
 82158  1  0  0  0
 82159  1  0  0  0
 82160  1  0  0  0
 83161  1  0  0  0
 83162  1  0  0  0
 83163  1  0  0  0
 84 88  1  0  0  0
 84164  1  0  0  0
 84165  1  0  0  0
 84166  1  0  0  0
 85167  1  0  0  0
 85168  1  0  0  0
M  ISO  4   1 100  68 101  85 101  86 100
M  END
> <chiral flag>
0

> <version>
0

> <s_m_source_file>
/data/baiqing/PycharmProjects/Reinvent-master-3.2/result/LINK_invent/BTK/process_docking_weight1_custom_sum_contain_oxygen_bond_distance_aromatic_linkinvent_7_9_3/rearranged_h_0153.sdf

> <i_m_source_file_index>
2

> <r_mmod_Potential_Energy-OPLS-2005>
333.37548828125

> <r_mmod_Stretch_Energy-OPLS-2005>
67.788688659668

> <r_mmod_Bend_Energy-OPLS-2005>
146.300140380859

> <r_mmod_Torsional_Energy-OPLS-2005>
399.600158691406

> <r_mmod_Improper_Torsional_Energy-OPLS-2005>
13.1518650054932

> <r_mmod_Van_der_Waal_Energy-OPLS-2005>
144.567657470703

> <r_mmod_Electrostatic_Energy-OPLS-2005>
-279.752777099609

> <r_mmod_Solvation_Energy-OPLS-2005>
-198.595153808594

> <b_mmod_Minimization_Converged-OPLS-2005>
0

> <r_mmod_RMS_Derivative-OPLS-2005>
0.756899356842041

$$$$
2
                    3D
 Structure written by MMmdl.
159168  0  0  1  0            999 V2000
  -30.6956  -14.4447   20.5893 C   0  0  0  0  0  0
  -30.4311  -12.2898   19.4191 C   0  0  0  0  0  0
  -29.5014  -12.5069   18.2047 C   0  0  0  0  0  0
  -28.0198  -12.3721   18.6124 C   0  0  0  0  0  0
  -27.6675  -13.1985   19.8789 C   0  0  2  0  0  0
  -28.7089  -12.9484   20.9950 C   0  0  0  0  0  0
  -25.2601  -13.8112   20.5627 C   0  0  0  0  0  0
  -24.1862  -13.0394   20.9166 C   0  0  0  0  0  0
  -24.6411  -11.6869   20.8739 C   0  0  0  0  0  0
  -23.9057  -10.4281   21.0406 C   0  0  0  0  0  0
  -24.3611   -9.4196   21.9175 C   0  0  0  0  0  0
  -23.6297   -8.2232   22.0759 C   0  0  0  0  0  0
  -22.4279   -8.0271   21.3553 C   0  0  0  0  0  0
  -21.9907   -9.0242   20.4645 C   0  0  0  0  0  0
  -22.7234  -10.2124   20.3051 C   0  0  0  0  0  0
  -21.6845   -6.0728   22.5285 C   0  0  0  0  0  0
  -21.4010   -6.5636   23.8211 C   0  0  0  0  0  0
  -21.3669   -5.6792   24.9174 C   0  0  0  0  0  0
  -21.6040   -4.3054   24.7226 C   0  0  0  0  0  0
  -21.8828   -3.8148   23.4350 C   0  0  0  0  0  0
  -21.9202   -4.6958   22.3402 C   0  0  0  0  0  0
  -22.7893  -13.5208   21.1837 C   0  0  0  0  0  0
  -22.1673   -4.2132   21.0982 F   0  0  0  0  0  0
  -21.5626   -3.4544   25.7742 F   0  0  0  0  0  0
  -30.0442  -13.2581   20.4531 N   0  0  0  0  0  0
  -26.3047  -12.9276   20.3343 N   0  0  0  0  0  0
  -25.9325  -11.6441   20.5759 N   0  0  0  0  0  0
  -22.0568  -12.8185   22.0399 N   0  0  0  0  0  0
  -25.4280  -15.1828   20.4000 N   0  0  0  0  0  0
  -31.8183  -14.6504   20.1106 O   0  0  0  0  0  0
  -21.6644   -6.8868   21.4249 O   0  0  0  0  0  0
  -22.3575  -14.5523   20.6700 O   0  0  0  0  0  0
  -24.6067  -31.8700   23.2125 C   0  0  0  0  0  0
  -25.8991  -32.4829   23.8400 C   0  0  1  0  0  0
  -27.2479  -27.4863   20.0874 C   0  0  0  0  0  0
  -25.5862  -33.8623   24.2336 N   0  0  0  0  0  0
  -23.3922  -30.4941   21.5517 C   0  0  2  0  0  0
  -24.8449  -28.9559   20.1241 C   0  0  0  0  0  0
  -22.7343  -29.4699   22.5020 C   0  0  0  0  0  0
  -18.0259  -28.1381   22.8497 C   0  0  0  0  0  0
  -24.1491  -36.7357   23.2644 C   0  0  0  0  0  0
  -25.9164  -30.8508   21.3603 C   0  0  0  0  0  0
  -25.9997  -29.4856   20.7147 C   0  0  0  0  0  0
  -27.2050  -28.7567   20.6956 C   0  0  0  0  0  0
  -26.0791  -26.9489   19.5095 C   0  0  0  0  0  0
  -24.8749  -27.6831   19.5246 C   0  0  0  0  0  0
  -23.6010  -29.8148   20.1694 C   0  0  0  0  0  0
  -25.4101  -36.3119   24.0352 C   0  0  1  0  0  0
  -20.5837  -28.3674   23.1335 C   0  0  2  0  0  0
  -20.6758  -26.9412   22.5426 C   0  0  0  0  0  0
  -19.5753  -26.6397   21.5205 C   0  0  0  0  0  0
  -18.1923  -26.7937   22.1606 C   0  0  0  0  0  0
  -19.1500  -28.8839   23.2923 C   0  0  0  0  0  0
  -18.9445  -30.1440   23.8923 C   0  0  0  0  0  0
  -17.6455  -30.6600   24.0563 C   0  0  0  0  0  0
  -25.9013  -34.9469   23.5143 C   0  0  0  0  0  0
  -16.5343  -29.9111   23.6332 C   0  0  0  0  0  0
  -16.7250  -28.6524   23.0347 C   0  0  0  0  0  0
  -26.4459  -31.6614   25.0709 C   0  0  0  0  0  0
  -25.3763  -31.3726   26.1499 C   0  0  0  0  0  0
  -27.0316  -30.3046   24.6096 C   0  0  0  0  0  0
  -27.6003  -32.4389   25.7461 C   0  0  0  0  0  0
  -27.5592  -37.1826   24.8453 C   0  0  0  0  0  0
  -21.4082  -29.3051   22.3738 N   0  0  0  0  0  0
  -26.4293  -37.3797   23.9421 N   0  0  0  0  0  0
  -24.6562  -31.0833   22.1012 N   0  0  0  0  0  0
  -23.4132  -28.8252   23.3068 O   0  0  0  0  0  0
  -28.4349  -26.8078   20.0201 O   0  0  0  0  0  0
  -26.5568  -34.8882   22.4696 O   0  0  0  0  0  0
  -23.5288  -32.1455   23.7565 O   0  0  0  0  0  0
  -28.9992  -18.8181   20.1684 C   0  0  0  0  0  0
  -28.9791  -17.4295   20.3764 C   0  0  0  0  0  0
  -30.1170  -19.5708   20.5873 C   0  0  0  0  0  0
  -31.1692  -18.8565   21.2119 C   0  0  0  0  0  0
  -30.0815  -16.7955   20.9755 C   0  0  0  0  0  0
  -29.7070  -21.6832   19.0663 C   0  0  0  0  0  0
  -30.1662  -21.0711   20.3762 C   0  0  1  0  0  0
  -28.9204  -21.9345   20.3374 C   0  0  1  0  0  0
  -32.4079  -19.5546   21.7495 C   0  0  0  0  0  0
  -28.6370  -24.4054   20.0982 C   0  0  0  0  0  0
  -28.5594  -25.7063   20.9079 C   0  0  0  0  0  0
  -31.1496  -17.5145   21.3900 N   0  0  0  0  0  0
  -29.9673  -15.4028   21.1831 N   0  0  0  0  0  0
  -29.1118  -23.2767   20.9313 N   0  3  0  0  0  0
  -31.4755  -12.3961   19.1197 H   0  0  0  0  0  0
  -30.3298  -11.2732   19.8068 H   0  0  0  0  0  0
  -29.7366  -11.7918   17.4145 H   0  0  0  0  0  0
  -29.6744  -13.5013   17.7888 H   0  0  0  0  0  0
  -27.8254  -11.3160   18.7950 H   0  0  0  0  0  0
  -27.3733  -12.6620   17.7836 H   0  0  0  0  0  0
  -27.7212  -14.2496   19.6000 H   0  0  0  0  0  0
  -28.6802  -11.9041   21.3095 H   0  0  0  0  0  0
  -28.4688  -13.5172   21.8927 H   0  0  0  0  0  0
  -25.2774   -9.5643   22.4714 H   0  0  0  0  0  0
  -24.0008   -7.4611   22.7469 H   0  0  0  0  0  0
  -21.0842   -8.8762   19.8942 H   0  0  0  0  0  0
  -22.3722  -10.9649   19.6144 H   0  0  0  0  0  0
  -21.2009   -7.6147   23.9697 H   0  0  0  0  0  0
  -21.1474   -6.0533   25.9064 H   0  0  0  0  0  0
  -22.0603   -2.7609   23.2858 H   0  0  0  0  0  0
  -22.4245  -11.9850   22.4735 H   0  0  0  0  0  0
  -21.1179  -13.1163   22.2623 H   0  0  0  0  0  0
  -24.6437  -15.8205   20.4779 H   0  0  0  0  0  0
  -26.2539  -15.6190   20.0117 H   0  0  0  0  0  0
  -26.7055  -32.5566   23.1168 H   0  0  0  0  0  0
  -24.9945  -33.9801   25.0437 H   0  0  0  0  0  0
  -22.6795  -31.3092   21.4093 H   0  0  0  0  0  0
  -23.3720  -35.9728   23.3296 H   0  0  0  0  0  0
  -24.3564  -36.8978   22.2048 H   0  0  0  0  0  0
  -23.7268  -37.6571   23.6671 H   0  0  0  0  0  0
  -26.0109  -31.6132   20.5878 H   0  0  0  0  0  0
  -26.8100  -30.9115   21.9720 H   0  0  0  0  0  0
  -28.1015  -29.1701   21.1388 H   0  0  0  0  0  0
  -26.1013  -25.9757   19.0404 H   0  0  0  0  0  0
  -23.9843  -27.2645   19.0766 H   0  0  0  0  0  0
  -23.7038  -30.5840   19.4026 H   0  0  0  0  0  0
  -22.7258  -29.2266   19.8851 H   0  0  0  0  0  0
  -25.1275  -36.1983   25.0854 H   0  0  0  0  0  0
  -20.9913  -28.3248   24.1462 H   0  0  0  0  0  0
  -20.5656  -26.2261   23.3612 H   0  0  0  0  0  0
  -21.6628  -26.7492   22.1205 H   0  0  0  0  0  0
  -19.6890  -25.6302   21.1240 H   0  0  0  0  0  0
  -19.6692  -27.3188   20.6718 H   0  0  0  0  0  0
  -17.4185  -26.6683   21.4010 H   0  0  0  0  0  0
  -18.0331  -26.0083   22.9004 H   0  0  0  0  0  0
  -19.7911  -30.7249   24.2295 H   0  0  0  0  0  0
  -17.5022  -31.6280   24.5162 H   0  0  0  0  0  0
  -15.5332  -30.3024   23.7675 H   0  0  0  0  0  0
  -15.8644  -28.0864   22.7050 H   0  0  0  0  0  0
  -24.5829  -30.7210   25.7842 H   0  0  0  0  0  0
  -24.9094  -32.2907   26.5066 H   0  0  0  0  0  0
  -25.8131  -30.8756   27.0167 H   0  0  0  0  0  0
  -26.2870  -29.6734   24.1226 H   0  0  0  0  0  0
  -27.4161  -29.7345   25.4566 H   0  0  0  0  0  0
  -27.8659  -30.4355   23.9206 H   0  0  0  0  0  0
  -27.2540  -33.3607   26.2150 H   0  0  0  0  0  0
  -28.3724  -32.7108   25.0261 H   0  0  0  0  0  0
  -28.0790  -31.8482   26.5294 H   0  0  0  0  0  0
  -28.2600  -38.0129   24.7484 H   0  0  0  0  0  0
  -28.1097  -36.2653   24.6294 H   0  0  0  0  0  0
  -27.2299  -37.1469   25.8849 H   0  0  0  0  0  0
  -20.9223  -29.8763   21.6958 H   0  0  0  0  0  0
  -26.0184  -38.2887   24.1391 H   0  0  0  0  0  0
  -28.1561  -19.2894   19.6838 H   0  0  0  0  0  0
  -28.1150  -16.8656   20.0573 H   0  0  0  0  0  0
  -29.2645  -21.0200   18.3258 H   0  0  0  0  0  0
  -30.2968  -22.4993   18.6506 H   0  0  0  0  0  0
  -31.0628  -21.5164   20.7993 H   0  0  0  0  0  0
  -27.9251  -21.5072   20.4493 H   0  0  0  0  0  0
  -32.1341  -20.3666   22.4260 H   0  0  0  0  0  0
  -32.9950  -19.9681   20.9305 H   0  0  0  0  0  0
  -33.0429  -18.8656   22.3078 H   0  0  0  0  0  0
  -29.3220  -24.5452   19.2597 H   0  0  0  0  0  0
  -27.6569  -24.1734   19.6788 H   0  0  0  0  0  0
  -29.4833  -25.8591   21.4692 H   0  0  0  0  0  0
  -27.7486  -25.6660   21.6400 H   0  0  0  0  0  0
  -29.0647  -15.0854   21.5001 H   0  0  0  0  0  0
  -30.0828  -23.4166   21.1650 H   0  0  0  0  0  0
  -28.6046  -23.2859   21.8035 H   0  0  0  0  0  0
  1 25  1  0  0  0
  1 30  2  0  0  0
  1 83  1  0  0  0
  2  3  1  0  0  0
  2 25  1  0  0  0
  2 85  1  0  0  0
  2 86  1  0  0  0
  3  4  1  0  0  0
  3 87  1  0  0  0
  3 88  1  0  0  0
  4  5  1  0  0  0
  4 89  1  0  0  0
  4 90  1  0  0  0
  5  6  1  0  0  0
  5 26  1  0  0  0
  5 91  1  0  0  0
  6 25  1  0  0  0
  6 92  1  0  0  0
  6 93  1  0  0  0
  7  8  2  0  0  0
  7 26  1  0  0  0
  7 29  1  0  0  0
  8  9  1  0  0  0
  8 22  1  0  0  0
  9 10  1  0  0  0
  9 27  2  0  0  0
 10 11  2  0  0  0
 10 15  1  0  0  0
 11 12  1  0  0  0
 11 94  1  0  0  0
 12 13  2  0  0  0
 12 95  1  0  0  0
 13 14  1  0  0  0
 13 31  1  0  0  0
 14 15  2  0  0  0
 14 96  1  0  0  0
 15 97  1  0  0  0
 16 17  2  0  0  0
 16 21  1  0  0  0
 16 31  1  0  0  0
 17 18  1  0  0  0
 17 98  1  0  0  0
 18 19  2  0  0  0
 18 99  1  0  0  0
 19 20  1  0  0  0
 19 24  1  0  0  0
 20 21  2  0  0  0
 20100  1  0  0  0
 21 23  1  0  0  0
 22 28  1  0  0  0
 22 32  2  0  0  0
 26 27  1  0  0  0
 28101  1  0  0  0
 28102  1  0  0  0
 29103  1  0  0  0
 29104  1  0  0  0
 33 34  1  0  0  0
 33 66  1  0  0  0
 33 70  2  0  0  0
 34 36  1  0  0  0
 34 59  1  0  0  0
 34105  1  0  0  0
 35 44  2  0  0  0
 35 45  1  0  0  0
 35 68  1  0  0  0
 36 56  1  0  0  0
 36106  1  0  0  0
 37 39  1  0  0  0
 37 47  1  0  0  0
 37 66  1  0  0  0
 37107  1  0  0  0
 38 43  2  0  0  0
 38 46  1  0  0  0
 38 47  1  0  0  0
 39 64  1  0  0  0
 39 67  2  0  0  0
 40 52  1  0  0  0
 40 53  2  0  0  0
 40 58  1  0  0  0
 41108  1  0  0  0
 41109  1  0  0  0
 41110  1  0  0  0
 41 48  1  0  0  0
 42 43  1  0  0  0
 42 66  1  0  0  0
 42111  1  0  0  0
 42112  1  0  0  0
 43 44  1  0  0  0
 44113  1  0  0  0
 45 46  2  0  0  0
 45114  1  0  0  0
 46115  1  0  0  0
 47116  1  0  0  0
 47117  1  0  0  0
 48 56  1  0  0  0
 48 65  1  0  0  0
 48118  1  0  0  0
 49 50  1  0  0  0
 49 53  1  0  0  0
 49 64  1  0  0  0
 49119  1  0  0  0
 50 51  1  0  0  0
 50120  1  0  0  0
 50121  1  0  0  0
 51 52  1  0  0  0
 51122  1  0  0  0
 51123  1  0  0  0
 52124  1  0  0  0
 52125  1  0  0  0
 53 54  1  0  0  0
 54 55  2  0  0  0
 54126  1  0  0  0
 55 57  1  0  0  0
 55127  1  0  0  0
 56 69  2  0  0  0
 57 58  2  0  0  0
 57128  1  0  0  0
 58129  1  0  0  0
 59 60  1  0  0  0
 59 61  1  0  0  0
 59 62  1  0  0  0
 60130  1  0  0  0
 60131  1  0  0  0
 60132  1  0  0  0
 61133  1  0  0  0
 61134  1  0  0  0
 61135  1  0  0  0
 62136  1  0  0  0
 62137  1  0  0  0
 62138  1  0  0  0
 63 65  1  0  0  0
 63139  1  0  0  0
 63140  1  0  0  0
 63141  1  0  0  0
 64142  1  0  0  0
 65143  1  0  0  0
 68 81  1  0  0  0
 71 72  2  0  0  0
 71 73  1  0  0  0
 71144  1  0  0  0
 72 75  1  0  0  0
 72145  1  0  0  0
 73 74  2  0  0  0
 73 77  1  0  0  0
 74 79  1  0  0  0
 74 82  1  0  0  0
 75 82  2  0  0  0
 75 83  1  0  0  0
 76 77  1  0  0  0
 76 78  1  0  0  0
 76146  1  0  0  0
 76147  1  0  0  0
 77 78  1  0  0  0
 77148  1  0  0  0
 78 84  1  0  0  0
 78149  1  0  0  0
 79150  1  0  0  0
 79151  1  0  0  0
 79152  1  0  0  0
 80 81  1  0  0  0
 80 84  1  0  0  0
 80153  1  0  0  0
 80154  1  0  0  0
 81155  1  0  0  0
 81156  1  0  0  0
 83157  1  0  0  0
 84158  1  0  0  0
 84159  1  0  0  0
M  CHG  1  84   1
M  ISO  4   1 100  68 101  81 101  83 100
M  END
> <chiral flag>
0

> <version>
0

> <s_m_source_file>
/data/baiqing/PycharmProjects/Reinvent-master-3.2/result/LINK_invent/BTK/process_docking_weight1_custom_sum_contain_oxygen_bond_distance_aromatic_linkinvent_7_9_3/rearranged_h_0153.sdf

> <i_m_source_file_index>
3

> <r_mmod_Potential_Energy-OPLS-2005>
-315.826263427734

> <r_mmod_Stretch_Energy-OPLS-2005>
32.0215835571289

> <r_mmod_Bend_Energy-OPLS-2005>
92.8115768432617

> <r_mmod_Torsional_Energy-OPLS-2005>
297.3330078125

> <r_mmod_Improper_Torsional_Energy-OPLS-2005>
4.94728660583496

> <r_mmod_Van_der_Waal_Energy-OPLS-2005>
153.466461181641

> <r_mmod_Electrostatic_Energy-OPLS-2005>
-407.962646484375

> <r_mmod_Solvation_Energy-OPLS-2005>
-497.635467529297

> <b_mmod_Minimization_Converged-OPLS-2005>
0

> <r_mmod_RMS_Derivative-OPLS-2005>
3.65647912025452

$$$$
3
                    3D
 Structure written by MMmdl.
169178  0  0  1  0            999 V2000
  -30.7156  -14.4987   20.4695 C   0  0  0  0  0  0
  -30.4079  -12.2784   19.4895 C   0  0  0  0  0  0
  -29.5029  -12.3953   18.2480 C   0  0  0  0  0  0
  -28.0158  -12.3128   18.6392 C   0  0  0  0  0  0
  -27.6470  -13.2113   19.8531 C   0  0  2  0  0  0
  -28.6816  -13.1038   20.9966 C   0  0  0  0  0  0
  -25.2553  -13.8211   20.5659 C   0  0  0  0  0  0
  -24.1801  -13.0506   20.9199 C   0  0  0  0  0  0
  -24.6344  -11.6983   20.8728 C   0  0  0  0  0  0
  -23.9014  -10.4376   21.0387 C   0  0  0  0  0  0
  -24.3598   -9.4292   21.9153 C   0  0  0  0  0  0
  -23.6319   -8.2300   22.0716 C   0  0  0  0  0  0
  -22.4284   -8.0302   21.3533 C   0  0  0  0  0  0
  -21.9904   -9.0256   20.4641 C   0  0  0  0  0  0
  -22.7188  -10.2178   20.3055 C   0  0  0  0  0  0
  -21.6882   -6.0737   22.5257 C   0  0  0  0  0  0
  -21.4027   -6.5634   23.8190 C   0  0  0  0  0  0
  -21.3683   -5.6786   24.9150 C   0  0  0  0  0  0
  -21.6071   -4.3045   24.7188 C   0  0  0  0  0  0
  -21.8832   -3.8154   23.4308 C   0  0  0  0  0  0
  -21.9212   -4.6977   22.3377 C   0  0  0  0  0  0
  -22.7837  -13.5286   21.1926 C   0  0  0  0  0  0
  -22.1664   -4.2160   21.0949 F   0  0  0  0  0  0
  -21.5665   -3.4526   25.7698 F   0  0  0  0  0  0
  -30.0103  -13.3397   20.4216 N   0  0  0  0  0  0
  -26.2937  -12.9369   20.3255 N   0  0  0  0  0  0
  -25.9248  -11.6548   20.5721 N   0  0  0  0  0  0
  -22.0485  -12.8236   22.0472 N   0  0  0  0  0  0
  -25.4417  -15.1910   20.4148 N   0  0  0  0  0  0
  -31.9358  -14.5424   20.3142 O   0  0  0  0  0  0
  -21.6686   -6.8869   21.4217 O   0  0  0  0  0  0
  -22.3539  -14.5607   20.6813 O   0  0  0  0  0  0
  -24.6100  -31.8710   23.2145 C   0  0  0  0  0  0
  -25.9014  -32.4837   23.8413 C   0  0  1  0  0  0
  -27.2358  -27.4495   20.0990 C   0  0  0  0  0  0
  -25.5900  -33.8633   24.2339 N   0  0  0  0  0  0
  -23.3962  -30.4969   21.5549 C   0  0  2  0  0  0
  -24.8418  -28.9645   20.1200 C   0  0  0  0  0  0
  -22.7377  -29.4682   22.5015 C   0  0  0  0  0  0
  -18.0270  -28.1364   22.8500 C   0  0  0  0  0  0
  -24.1480  -36.7314   23.2641 C   0  0  0  0  0  0
  -25.9241  -30.8406   21.3675 C   0  0  0  0  0  0
  -25.9998  -29.4757   20.7152 C   0  0  0  0  0  0
  -27.1935  -28.7235   20.7104 C   0  0  0  0  0  0
  -26.0537  -26.9484   19.5037 C   0  0  0  0  0  0
  -24.8614  -27.6957   19.5180 C   0  0  0  0  0  0
  -23.6037  -29.8309   20.1678 C   0  0  0  0  0  0
  -25.4106  -36.3126   24.0345 C   0  0  1  0  0  0
  -20.5855  -28.3653   23.1337 C   0  0  2  0  0  0
  -20.6761  -26.9397   22.5428 C   0  0  0  0  0  0
  -19.5741  -26.6386   21.5218 C   0  0  0  0  0  0
  -18.1918  -26.7920   22.1623 C   0  0  0  0  0  0
  -19.1513  -28.8830   23.2911 C   0  0  0  0  0  0
  -18.9446  -30.1440   23.8916 C   0  0  0  0  0  0
  -17.6447  -30.6582   24.0572 C   0  0  0  0  0  0
  -25.9034  -34.9481   23.5145 C   0  0  0  0  0  0
  -16.5340  -29.9088   23.6320 C   0  0  0  0  0  0
  -16.7256  -28.6504   23.0352 C   0  0  0  0  0  0
  -26.4469  -31.6606   25.0727 C   0  0  0  0  0  0
  -25.3747  -31.3702   26.1489 C   0  0  0  0  0  0
  -27.0299  -30.3049   24.6102 C   0  0  0  0  0  0
  -27.6063  -32.4320   25.7469 C   0  0  0  0  0  0
  -27.5575  -37.1819   24.8467 C   0  0  0  0  0  0
  -21.4124  -29.3027   22.3740 N   0  0  0  0  0  0
  -26.4300  -37.3799   23.9410 N   0  0  0  0  0  0
  -24.6611  -31.0831   22.1035 N   0  0  0  0  0  0
  -23.4176  -28.8218   23.3035 O   0  0  0  0  0  0
  -28.4319  -26.7567   20.1370 O   0  0  0  0  0  0
  -26.5593  -34.8928   22.4696 O   0  0  0  0  0  0
  -23.5313  -32.1466   23.7576 O   0  0  0  0  0  0
  -30.1633  -18.0998   20.3344 C   0  0  0  0  0  0
  -31.5232  -18.0226   17.8861 C   0  0  0  0  0  0
  -30.4777  -19.3208   19.6709 C   0  0  0  0  0  0
  -31.2004  -19.2608   18.4478 C   0  0  0  0  0  0
  -31.0634  -16.8254   18.4411 C   0  0  0  0  0  0
  -30.4421  -16.8375   19.7270 C   0  0  0  0  0  0
  -28.7949  -20.7380   21.1613 C   0  0  0  0  0  0
  -30.8513  -21.7978   20.4952 C   0  0  0  0  0  0
  -28.0357  -22.0944   21.0473 C   0  0  0  0  0  0
  -30.1716  -23.1113   20.0762 C   0  0  0  0  0  0
  -29.8842  -20.6752   20.0929 C   0  0  1  0  0  0
  -31.5393  -20.4592   17.5700 C   0  0  0  0  0  0
  -31.1213  -15.6110   17.5202 C   0  0  0  0  0  0
  -27.9561  -24.3000   19.9612 C   0  0  0  0  0  0
  -28.5947  -25.5799   19.3442 C   0  0  0  0  0  0
  -29.9874  -15.6322   20.3588 N   0  0  0  0  0  0
  -28.8343  -23.3343   20.7119 N   0  3  1  0  0  0
  -31.4610  -12.3499   19.2071 H   0  0  0  0  0  0
  -30.2860  -11.3083   19.9696 H   0  0  0  0  0  0
  -29.7601  -11.6096   17.5354 H   0  0  0  0  0  0
  -29.6813  -13.3282   17.7321 H   0  0  0  0  0  0
  -27.8204  -11.2712   18.8888 H   0  0  0  0  0  0
  -27.3870  -12.5488   17.7786 H   0  0  0  0  0  0
  -27.6681  -14.2376   19.4871 H   0  0  0  0  0  0
  -28.6394  -12.1233   21.4740 H   0  0  0  0  0  0
  -28.4617  -13.8295   21.7841 H   0  0  0  0  0  0
  -25.2719   -9.5813   22.4726 H   0  0  0  0  0  0
  -24.0084   -7.4700   22.7386 H   0  0  0  0  0  0
  -21.0863   -8.8735   19.8931 H   0  0  0  0  0  0
  -22.3575  -10.9711   19.6193 H   0  0  0  0  0  0
  -21.1982   -7.6135   23.9685 H   0  0  0  0  0  0
  -21.1509   -6.0508   25.9052 H   0  0  0  0  0  0
  -22.0596   -2.7615   23.2778 H   0  0  0  0  0  0
  -22.4129  -11.9869   22.4792 H   0  0  0  0  0  0
  -21.1143  -13.1290   22.2795 H   0  0  0  0  0  0
  -24.7003  -15.8690   20.5534 H   0  0  0  0  0  0
  -26.3102  -15.6121   20.1129 H   0  0  0  0  0  0
  -26.7081  -32.5561   23.1166 H   0  0  0  0  0  0
  -25.0033  -33.9789   25.0490 H   0  0  0  0  0  0
  -22.6813  -31.3125   21.4197 H   0  0  0  0  0  0
  -23.3740  -35.9649   23.3337 H   0  0  0  0  0  0
  -24.3571  -36.8894   22.2045 H   0  0  0  0  0  0
  -23.7231  -37.6535   23.6627 H   0  0  0  0  0  0
  -26.0377  -31.6091   20.6016 H   0  0  0  0  0  0
  -26.8100  -30.8894   21.9885 H   0  0  0  0  0  0
  -28.0841  -29.1237   21.1736 H   0  0  0  0  0  0
  -26.0175  -25.9780   19.0339 H   0  0  0  0  0  0
  -23.9666  -27.2872   19.0703 H   0  0  0  0  0  0
  -23.7130  -30.6102   19.4113 H   0  0  0  0  0  0
  -22.7260  -29.2537   19.8703 H   0  0  0  0  0  0
  -25.1279  -36.1996   25.0843 H   0  0  0  0  0  0
  -20.9941  -28.3222   24.1457 H   0  0  0  0  0  0
  -20.5678  -26.2255   23.3606 H   0  0  0  0  0  0
  -21.6628  -26.7454   22.1203 H   0  0  0  0  0  0
  -19.6902  -25.6304   21.1227 H   0  0  0  0  0  0
  -19.6689  -27.3211   20.6763 H   0  0  0  0  0  0
  -17.4194  -26.6690   21.4017 H   0  0  0  0  0  0
  -18.0311  -26.0050   22.9000 H   0  0  0  0  0  0
  -19.7930  -30.7247   24.2295 H   0  0  0  0  0  0
  -17.5014  -31.6266   24.5152 H   0  0  0  0  0  0
  -15.5341  -30.2998   23.7640 H   0  0  0  0  0  0
  -15.8660  -28.0825   22.7065 H   0  0  0  0  0  0
  -24.5911  -30.7054   25.7823 H   0  0  0  0  0  0
  -24.8943  -32.2854   26.4959 H   0  0  0  0  0  0
  -25.8116  -30.8850   27.0225 H   0  0  0  0  0  0
  -26.2837  -29.6799   24.1176 H   0  0  0  0  0  0
  -27.4090  -29.7294   25.4556 H   0  0  0  0  0  0
  -27.8665  -30.4358   23.9233 H   0  0  0  0  0  0
  -27.2700  -33.3614   26.2071 H   0  0  0  0  0  0
  -28.3850  -32.6887   25.0272 H   0  0  0  0  0  0
  -28.0754  -31.8423   26.5355 H   0  0  0  0  0  0
  -28.2621  -38.0088   24.7497 H   0  0  0  0  0  0
  -28.1048  -36.2625   24.6321 H   0  0  0  0  0  0
  -27.2299  -37.1503   25.8874 H   0  0  0  0  0  0
  -20.9268  -29.8738   21.6959 H   0  0  0  0  0  0
  -26.0193  -38.2888   24.1408 H   0  0  0  0  0  0
  -29.6312  -18.1189   21.2756 H   0  0  0  0  0  0
  -32.0255  -18.0052   16.9311 H   0  0  0  0  0  0
  -28.0828  -19.9220   21.0333 H   0  0  0  0  0  0
  -29.2219  -20.6102   22.1574 H   0  0  0  0  0  0
  -31.0660  -21.7750   21.5642 H   0  0  0  0  0  0
  -31.8331  -21.7249   20.0328 H   0  0  0  0  0  0
  -27.4977  -22.2885   21.9755 H   0  0  0  0  0  0
  -27.2606  -21.9501   20.2949 H   0  0  0  0  0  0
  -30.0535  -23.1083   18.9911 H   0  0  0  0  0  0
  -30.8333  -23.9471   20.3076 H   0  0  0  0  0  0
  -29.3832  -20.9501   19.1624 H   0  0  0  0  0  0
  -32.5357  -20.3385   17.1434 H   0  0  0  0  0  0
  -31.5199  -21.4312   18.0390 H   0  0  0  0  0  0
  -30.8213  -20.5098   16.7521 H   0  0  0  0  0  0
  -30.0981  -15.3487   17.2506 H   0  0  0  0  0  0
  -31.6354  -14.7541   17.9404 H   0  0  0  0  0  0
  -31.6416  -15.8162   16.5844 H   0  0  0  0  0  0
  -27.5328  -23.7571   19.1153 H   0  0  0  0  0  0
  -27.1075  -24.5663   20.5935 H   0  0  0  0  0  0
  -28.1606  -25.7599   18.3589 H   0  0  0  0  0  0
  -29.6561  -25.4647   19.1321 H   0  0  0  0  0  0
  -29.0030  -15.5781   20.5658 H   0  0  0  0  0  0
  -29.0529  -23.7620   21.6030 H   0  0  0  0  0  0
  1 25  1  0  0  0
  1 30  2  0  0  0
  1 86  1  0  0  0
  2  3  1  0  0  0
  2 25  1  0  0  0
  2 88  1  0  0  0
  2 89  1  0  0  0
  3  4  1  0  0  0
  3 90  1  0  0  0
  3 91  1  0  0  0
  4  5  1  0  0  0
  4 92  1  0  0  0
  4 93  1  0  0  0
  5  6  1  0  0  0
  5 26  1  0  0  0
  5 94  1  0  0  0
  6 25  1  0  0  0
  6 95  1  0  0  0
  6 96  1  0  0  0
  7  8  2  0  0  0
  7 26  1  0  0  0
  7 29  1  0  0  0
  8  9  1  0  0  0
  8 22  1  0  0  0
  9 10  1  0  0  0
  9 27  2  0  0  0
 10 11  2  0  0  0
 10 15  1  0  0  0
 11 12  1  0  0  0
 11 97  1  0  0  0
 12 13  2  0  0  0
 12 98  1  0  0  0
 13 14  1  0  0  0
 13 31  1  0  0  0
 14 15  2  0  0  0
 14 99  1  0  0  0
 15100  1  0  0  0
 16 17  2  0  0  0
 16 21  1  0  0  0
 16 31  1  0  0  0
 17 18  1  0  0  0
 17101  1  0  0  0
 18 19  2  0  0  0
 18102  1  0  0  0
 19 20  1  0  0  0
 19 24  1  0  0  0
 20 21  2  0  0  0
 20103  1  0  0  0
 21 23  1  0  0  0
 22 28  1  0  0  0
 22 32  2  0  0  0
 26 27  1  0  0  0
 28104  1  0  0  0
 28105  1  0  0  0
 29106  1  0  0  0
 29107  1  0  0  0
 33 34  1  0  0  0
 33 66  1  0  0  0
 33 70  2  0  0  0
 34 36  1  0  0  0
 34 59  1  0  0  0
 34108  1  0  0  0
 35 44  2  0  0  0
 35 45  1  0  0  0
 35 68  1  0  0  0
 36 56  1  0  0  0
 36109  1  0  0  0
 37 39  1  0  0  0
 37 47  1  0  0  0
 37 66  1  0  0  0
 37110  1  0  0  0
 38 43  2  0  0  0
 38 46  1  0  0  0
 38 47  1  0  0  0
 39 64  1  0  0  0
 39 67  2  0  0  0
 40 52  1  0  0  0
 40 53  2  0  0  0
 40 58  1  0  0  0
 41111  1  0  0  0
 41112  1  0  0  0
 41113  1  0  0  0
 41 48  1  0  0  0
 42 43  1  0  0  0
 42 66  1  0  0  0
 42114  1  0  0  0
 42115  1  0  0  0
 43 44  1  0  0  0
 44116  1  0  0  0
 45 46  2  0  0  0
 45117  1  0  0  0
 46118  1  0  0  0
 47119  1  0  0  0
 47120  1  0  0  0
 48 56  1  0  0  0
 48 65  1  0  0  0
 48121  1  0  0  0
 49 50  1  0  0  0
 49 53  1  0  0  0
 49 64  1  0  0  0
 49122  1  0  0  0
 50 51  1  0  0  0
 50123  1  0  0  0
 50124  1  0  0  0
 51 52  1  0  0  0
 51125  1  0  0  0
 51126  1  0  0  0
 52127  1  0  0  0
 52128  1  0  0  0
 53 54  1  0  0  0
 54 55  2  0  0  0
 54129  1  0  0  0
 55 57  1  0  0  0
 55130  1  0  0  0
 56 69  2  0  0  0
 57 58  2  0  0  0
 57131  1  0  0  0
 58132  1  0  0  0
 59 60  1  0  0  0
 59 61  1  0  0  0
 59 62  1  0  0  0
 60133  1  0  0  0
 60134  1  0  0  0
 60135  1  0  0  0
 61136  1  0  0  0
 61137  1  0  0  0
 61138  1  0  0  0
 62139  1  0  0  0
 62140  1  0  0  0
 62141  1  0  0  0
 63 65  1  0  0  0
 63142  1  0  0  0
 63143  1  0  0  0
 63144  1  0  0  0
 64145  1  0  0  0
 65146  1  0  0  0
 68 85  1  0  0  0
 71 73  2  0  0  0
 71 76  1  0  0  0
 71147  1  0  0  0
 72 74  2  0  0  0
 72 75  1  0  0  0
 72148  1  0  0  0
 73 74  1  0  0  0
 73 81  1  0  0  0
 74 82  1  0  0  0
 75 76  2  0  0  0
 75 83  1  0  0  0
 76 86  1  0  0  0
 77 79  1  0  0  0
 77 81  1  0  0  0
 77149  1  0  0  0
 77150  1  0  0  0
 78 80  1  0  0  0
 78 81  1  0  0  0
 78151  1  0  0  0
 78152  1  0  0  0
 79 87  1  0  0  0
 79153  1  0  0  0
 79154  1  0  0  0
 80 87  1  0  0  0
 80155  1  0  0  0
 80156  1  0  0  0
 81157  1  0  0  0
 82158  1  0  0  0
 82159  1  0  0  0
 82160  1  0  0  0
 83161  1  0  0  0
 83162  1  0  0  0
 83163  1  0  0  0
 84 85  1  0  0  0
 84164  1  0  0  0
 84165  1  0  0  0
 84 87  1  0  0  0
 85166  1  0  0  0
 85167  1  0  0  0
 86168  1  0  0  0
 87169  1  0  0  0
M  CHG  1  87   1
M  ISO  4   1 100  68 101  85 101  86 100
M  END
> <chiral flag>
0

> <version>
0

> <s_m_source_file>
/data/baiqing/PycharmProjects/Reinvent-master-3.2/result/LINK_invent/BTK/process_docking_weight1_custom_sum_contain_oxygen_bond_distance_aromatic_linkinvent_7_9_3/rearranged_h_0153.sdf

> <i_m_source_file_index>
4

> <r_mmod_Potential_Energy-OPLS-2005>
34.0807876586914

> <r_mmod_Stretch_Energy-OPLS-2005>
45.5590972900391

> <r_mmod_Bend_Energy-OPLS-2005>
155.127700805664

> <r_mmod_Torsional_Energy-OPLS-2005>
311.891357421875

> <r_mmod_Improper_Torsional_Energy-OPLS-2005>
11.1394271850586

> <r_mmod_Van_der_Waal_Energy-OPLS-2005>
188.210433959961

> <r_mmod_Electrostatic_Energy-OPLS-2005>
-276.902923583984

> <r_mmod_Solvation_Energy-OPLS-2005>
-434.518005371094

> <b_mmod_Minimization_Converged-OPLS-2005>
0

> <r_mmod_RMS_Derivative-OPLS-2005>
4.82091999053955

$$$$
4
                    3D
 Structure written by MMmdl.
164173  0  0  1  0            999 V2000
  -30.6228  -14.7865   20.5073 C   0  0  0  0  0  0
  -30.4340  -12.5004   19.4734 C   0  0  0  0  0  0
  -29.5191  -12.5553   18.2324 C   0  0  0  0  0  0
  -28.0371  -12.3819   18.6262 C   0  0  0  0  0  0
  -27.6391  -13.2445   19.8507 C   0  0  2  0  0  0
  -28.6824  -13.1187   20.9729 C   0  0  0  0  0  0
  -25.2500  -13.8237   20.5684 C   0  0  0  0  0  0
  -24.1817  -13.0432   20.9159 C   0  0  0  0  0  0
  -24.6424  -11.6917   20.8670 C   0  0  0  0  0  0
  -23.9092  -10.4296   21.0368 C   0  0  0  0  0  0
  -24.3639   -9.4231   21.9139 C   0  0  0  0  0  0
  -23.6325   -8.2255   22.0741 C   0  0  0  0  0  0
  -22.4304   -8.0285   21.3546 C   0  0  0  0  0  0
  -21.9937   -9.0243   20.4638 C   0  0  0  0  0  0
  -22.7258  -10.2130   20.3035 C   0  0  0  0  0  0
  -21.6864   -6.0741   22.5253 C   0  0  0  0  0  0
  -21.4013   -6.5629   23.8195 C   0  0  0  0  0  0
  -21.3688   -5.6790   24.9151 C   0  0  0  0  0  0
  -21.6053   -4.3043   24.7203 C   0  0  0  0  0  0
  -21.8813   -3.8145   23.4307 C   0  0  0  0  0  0
  -21.9211   -4.6968   22.3385 C   0  0  0  0  0  0
  -22.7862  -13.5212   21.1873 C   0  0  0  0  0  0
  -22.1678   -4.2163   21.0973 F   0  0  0  0  0  0
  -21.5652   -3.4532   25.7716 F   0  0  0  0  0  0
  -29.9758  -13.5585   20.4141 N   0  0  0  0  0  0
  -26.2915  -12.9444   20.3217 N   0  0  0  0  0  0
  -25.9344  -11.6551   20.5629 N   0  0  0  0  0  0
  -22.0537  -12.8150   22.0421 N   0  0  0  0  0  0
  -25.4173  -15.1973   20.4171 N   0  0  0  0  0  0
  -31.7891  -14.8476   20.0987 O   0  0  0  0  0  0
  -21.6655   -6.8889   21.4234 O   0  0  0  0  0  0
  -22.3518  -14.5511   20.6752 O   0  0  0  0  0  0
  -24.6285  -31.8572   23.1948 C   0  0  0  0  0  0
  -25.9117  -32.4757   23.8299 C   0  0  1  0  0  0
  -27.2289  -27.2603   20.0870 C   0  0  0  0  0  0
  -25.5941  -33.8568   24.2203 N   0  0  0  0  0  0
  -23.4245  -30.4769   21.5415 C   0  0  2  0  0  0
  -24.8696  -28.9180   20.1083 C   0  0  0  0  0  0
  -22.7460  -29.4614   22.4917 C   0  0  0  0  0  0
  -18.0291  -28.1424   22.8497 C   0  0  0  0  0  0
  -24.1505  -36.7249   23.2642 C   0  0  0  0  0  0
  -25.9731  -30.7602   21.3803 C   0  0  0  0  0  0
  -26.0428  -29.3849   20.7131 C   0  0  0  0  0  0
  -27.2170  -28.5635   20.6985 C   0  0  0  0  0  0
  -26.0261  -26.8523   19.4728 C   0  0  0  0  0  0
  -24.8646  -27.6577   19.4895 C   0  0  0  0  0  0
  -23.6402  -29.8094   20.1595 C   0  0  0  0  0  0
  -25.4145  -36.3063   24.0301 C   0  0  1  0  0  0
  -20.5900  -28.3708   23.1293 C   0  0  2  0  0  0
  -20.6805  -26.9432   22.5415 C   0  0  0  0  0  0
  -19.5782  -26.6405   21.5225 C   0  0  0  0  0  0
  -18.1949  -26.7978   22.1622 C   0  0  0  0  0  0
  -19.1552  -28.8869   23.2900 C   0  0  0  0  0  0
  -18.9467  -30.1476   23.8902 C   0  0  0  0  0  0
  -17.6469  -30.6614   24.0573 C   0  0  0  0  0  0
  -25.9079  -34.9443   23.5053 C   0  0  0  0  0  0
  -16.5354  -29.9089   23.6389 C   0  0  0  0  0  0
  -16.7272  -28.6533   23.0359 C   0  0  0  0  0  0
  -26.4497  -31.6605   25.0686 C   0  0  0  0  0  0
  -25.3679  -31.3741   26.1358 C   0  0  0  0  0  0
  -27.0351  -30.3030   24.6190 C   0  0  0  0  0  0
  -27.6050  -32.4360   25.7448 C   0  0  0  0  0  0
  -27.5601  -37.1786   24.8475 C   0  0  0  0  0  0
  -21.4168  -29.3041   22.3647 N   0  0  0  0  0  0
  -26.4324  -37.3761   23.9394 N   0  0  0  0  0  0
  -24.6941  -31.0513   22.0942 N   0  0  0  0  0  0
  -23.4155  -28.8185   23.3047 O   0  0  0  0  0  0
  -28.3540  -26.3995   20.1347 O   0  0  0  0  0  0
  -26.5669  -34.8925   22.4631 O   0  0  0  0  0  0
  -23.5433  -32.1426   23.7212 O   0  0  0  0  0  0
  -29.6608  -20.0271   20.3498 C   0  0  0  0  0  0
  -28.6711  -19.4723   17.8451 C   0  0  0  0  0  0
  -29.7225  -18.6282   19.9054 C   0  0  0  0  0  0
  -29.1990  -18.3990   18.6096 C   0  0  0  0  0  0
  -28.6620  -20.8213   18.2928 C   0  0  0  0  0  0
  -29.1338  -21.1520   19.5905 C   0  0  0  0  0  0
  -29.3885  -17.3467   22.7768 C   0  0  0  0  0  0
  -30.6977  -17.7878   22.1657 C   0  0  0  0  0  0
  -29.0920  -16.0402   22.0315 C   0  0  0  0  0  0
  -30.4845  -17.4279   20.6905 C   0  0  1  0  0  0
  -29.2830  -17.0192   17.9676 C   0  0  0  0  0  0
  -28.2428  -21.8994   17.3014 C   0  0  0  0  0  0
  -28.4881  -25.0799   19.4092 C   0  0  0  0  0  0
  -28.2221  -23.5919   20.0264 C   0  0  0  0  0  0
  -29.9327  -15.9816   20.8171 N   0  0  0  0  0  0
  -29.2734  -22.5094   20.0422 O   0  0  0  0  0  0
  -31.4770  -12.6251   19.1790 H   0  0  0  0  0  0
  -30.3838  -11.5156   19.9390 H   0  0  0  0  0  0
  -29.8083  -11.7815   17.5216 H   0  0  0  0  0  0
  -29.6616  -13.5122   17.7272 H   0  0  0  0  0  0
  -27.8679  -11.3281   18.8430 H   0  0  0  0  0  0
  -27.3968  -12.6171   17.7765 H   0  0  0  0  0  0
  -27.6418  -14.2800   19.5104 H   0  0  0  0  0  0
  -28.7417  -12.0835   21.3056 H   0  0  0  0  0  0
  -28.3692  -13.6563   21.8573 H   0  0  0  0  0  0
  -25.2784   -9.5731   22.4682 H   0  0  0  0  0  0
  -24.0060   -7.4662   22.7438 H   0  0  0  0  0  0
  -21.0874   -8.8734   19.8927 H   0  0  0  0  0  0
  -22.3693  -10.9653   19.6127 H   0  0  0  0  0  0
  -21.1976   -7.6128   23.9704 H   0  0  0  0  0  0
  -21.1544   -6.0508   25.9070 H   0  0  0  0  0  0
  -22.0582   -2.7600   23.2801 H   0  0  0  0  0  0
  -22.4165  -11.9823   22.4818 H   0  0  0  0  0  0
  -21.1121  -13.1111   22.2595 H   0  0  0  0  0  0
  -24.6507  -15.8500   20.5457 H   0  0  0  0  0  0
  -26.2751  -15.6472   20.1206 H   0  0  0  0  0  0
  -26.7126  -32.5397   23.0995 H   0  0  0  0  0  0
  -25.0129  -33.9750   25.0364 H   0  0  0  0  0  0
  -22.7217  -31.3005   21.3964 H   0  0  0  0  0  0
  -23.3805  -35.9552   23.3318 H   0  0  0  0  0  0
  -24.3588  -36.8862   22.2057 H   0  0  0  0  0  0
  -23.7210  -37.6422   23.6672 H   0  0  0  0  0  0
  -26.1242  -31.5317   20.6233 H   0  0  0  0  0  0
  -26.8440  -30.7979   22.0239 H   0  0  0  0  0  0
  -28.1156  -28.9297   21.1734 H   0  0  0  0  0  0
  -25.9561  -25.8894   18.9940 H   0  0  0  0  0  0
  -23.9601  -27.2911   19.0236 H   0  0  0  0  0  0
  -23.7529  -30.5893   19.4044 H   0  0  0  0  0  0
  -22.7564  -29.2422   19.8577 H   0  0  0  0  0  0
  -25.1335  -36.1939   25.0792 H   0  0  0  0  0  0
  -21.0004  -28.3316   24.1417 H   0  0  0  0  0  0
  -20.5797  -26.2281   23.3601 H   0  0  0  0  0  0
  -21.6663  -26.7519   22.1172 H   0  0  0  0  0  0
  -19.6974  -25.6306   21.1285 H   0  0  0  0  0  0
  -19.6792  -27.3186   20.6740 H   0  0  0  0  0  0
  -17.4240  -26.6713   21.4007 H   0  0  0  0  0  0
  -18.0361  -26.0109   22.9008 H   0  0  0  0  0  0
  -19.7917  -30.7320   24.2259 H   0  0  0  0  0  0
  -17.5001  -31.6320   24.5126 H   0  0  0  0  0  0
  -15.5348  -30.2980   23.7739 H   0  0  0  0  0  0
  -15.8677  -28.0865   22.7053 H   0  0  0  0  0  0
  -24.5876  -30.7096   25.7645 H   0  0  0  0  0  0
  -24.8824  -32.2875   26.4796 H   0  0  0  0  0  0
  -25.7953  -30.8894   27.0130 H   0  0  0  0  0  0
  -26.2915  -29.6767   24.1237 H   0  0  0  0  0  0
  -27.4047  -29.7354   25.4742 H   0  0  0  0  0  0
  -27.8809  -30.4320   23.9421 H   0  0  0  0  0  0
  -27.2681  -33.3686   26.1995 H   0  0  0  0  0  0
  -28.3872  -32.6874   25.0265 H   0  0  0  0  0  0
  -28.0695  -31.8479   26.5373 H   0  0  0  0  0  0
  -28.2615  -38.0096   24.7556 H   0  0  0  0  0  0
  -28.1108  -36.2619   24.6293 H   0  0  0  0  0  0
  -27.2312  -37.1413   25.8881 H   0  0  0  0  0  0
  -20.9329  -29.8628   21.6766 H   0  0  0  0  0  0
  -26.0218  -38.2843   24.1405 H   0  0  0  0  0  0
  -30.0769  -20.3059   21.3028 H   0  0  0  0  0  0
  -28.3229  -19.2600   16.8419 H   0  0  0  0  0  0
  -28.6111  -18.0903   22.5923 H   0  0  0  0  0  0
  -29.4724  -17.2184   23.8556 H   0  0  0  0  0  0
  -31.5004  -17.1740   22.5811 H   0  0  0  0  0  0
  -30.9645  -18.8136   22.3947 H   0  0  0  0  0  0
  -28.0336  -15.9628   21.7825 H   0  0  0  0  0  0
  -29.3536  -15.2429   22.7264 H   0  0  0  0  0  0
  -31.4698  -17.3805   20.2239 H   0  0  0  0  0  0
  -29.0078  -17.0472   16.9135 H   0  0  0  0  0  0
  -28.6312  -16.3000   18.4561 H   0  0  0  0  0  0
  -30.3031  -16.6326   18.0282 H   0  0  0  0  0  0
  -28.8358  -22.8040   17.4250 H   0  0  0  0  0  0
  -27.1868  -22.1471   17.4064 H   0  0  0  0  0  0
  -28.4092  -21.5770   16.2738 H   0  0  0  0  0  0
  -27.9693  -25.1486   18.4514 H   0  0  0  0  0  0
  -29.5372  -25.0736   19.1105 H   0  0  0  0  0  0
  -27.9451  -23.7373   21.0702 H   0  0  0  0  0  0
  -27.3187  -23.1994   19.5619 H   0  0  0  0  0  0
  1 25  1  0  0  0
  1 30  2  0  0  0
  1 85  1  0  0  0
  2  3  1  0  0  0
  2 25  1  0  0  0
  2 87  1  0  0  0
  2 88  1  0  0  0
  3  4  1  0  0  0
  3 89  1  0  0  0
  3 90  1  0  0  0
  4  5  1  0  0  0
  4 91  1  0  0  0
  4 92  1  0  0  0
  5  6  1  0  0  0
  5 26  1  0  0  0
  5 93  1  0  0  0
  6 25  1  0  0  0
  6 94  1  0  0  0
  6 95  1  0  0  0
  7  8  2  0  0  0
  7 26  1  0  0  0
  7 29  1  0  0  0
  8  9  1  0  0  0
  8 22  1  0  0  0
  9 10  1  0  0  0
  9 27  2  0  0  0
 10 11  2  0  0  0
 10 15  1  0  0  0
 11 12  1  0  0  0
 11 96  1  0  0  0
 12 13  2  0  0  0
 12 97  1  0  0  0
 13 14  1  0  0  0
 13 31  1  0  0  0
 14 15  2  0  0  0
 14 98  1  0  0  0
 15 99  1  0  0  0
 16 17  2  0  0  0
 16 21  1  0  0  0
 16 31  1  0  0  0
 17 18  1  0  0  0
 17100  1  0  0  0
 18 19  2  0  0  0
 18101  1  0  0  0
 19 20  1  0  0  0
 19 24  1  0  0  0
 20 21  2  0  0  0
 20102  1  0  0  0
 21 23  1  0  0  0
 22 28  1  0  0  0
 22 32  2  0  0  0
 26 27  1  0  0  0
 28103  1  0  0  0
 28104  1  0  0  0
 29105  1  0  0  0
 29106  1  0  0  0
 33 34  1  0  0  0
 33 66  1  0  0  0
 33 70  2  0  0  0
 34 36  1  0  0  0
 34 59  1  0  0  0
 34107  1  0  0  0
 35 44  2  0  0  0
 35 45  1  0  0  0
 35 68  1  0  0  0
 36 56  1  0  0  0
 36108  1  0  0  0
 37 39  1  0  0  0
 37 47  1  0  0  0
 37 66  1  0  0  0
 37109  1  0  0  0
 38 43  2  0  0  0
 38 46  1  0  0  0
 38 47  1  0  0  0
 39 64  1  0  0  0
 39 67  2  0  0  0
 40 52  1  0  0  0
 40 53  2  0  0  0
 40 58  1  0  0  0
 41110  1  0  0  0
 41111  1  0  0  0
 41112  1  0  0  0
 41 48  1  0  0  0
 42 43  1  0  0  0
 42 66  1  0  0  0
 42113  1  0  0  0
 42114  1  0  0  0
 43 44  1  0  0  0
 44115  1  0  0  0
 45 46  2  0  0  0
 45116  1  0  0  0
 46117  1  0  0  0
 47118  1  0  0  0
 47119  1  0  0  0
 48 56  1  0  0  0
 48 65  1  0  0  0
 48120  1  0  0  0
 49 50  1  0  0  0
 49 53  1  0  0  0
 49 64  1  0  0  0
 49121  1  0  0  0
 50 51  1  0  0  0
 50122  1  0  0  0
 50123  1  0  0  0
 51 52  1  0  0  0
 51124  1  0  0  0
 51125  1  0  0  0
 52126  1  0  0  0
 52127  1  0  0  0
 53 54  1  0  0  0
 54 55  2  0  0  0
 54128  1  0  0  0
 55 57  1  0  0  0
 55129  1  0  0  0
 56 69  2  0  0  0
 57 58  2  0  0  0
 57130  1  0  0  0
 58131  1  0  0  0
 59 60  1  0  0  0
 59 61  1  0  0  0
 59 62  1  0  0  0
 60132  1  0  0  0
 60133  1  0  0  0
 60134  1  0  0  0
 61135  1  0  0  0
 61136  1  0  0  0
 61137  1  0  0  0
 62138  1  0  0  0
 62139  1  0  0  0
 62140  1  0  0  0
 63 65  1  0  0  0
 63141  1  0  0  0
 63142  1  0  0  0
 63143  1  0  0  0
 64144  1  0  0  0
 65145  1  0  0  0
 68 83  1  0  0  0
 71 73  2  0  0  0
 71 76  1  0  0  0
 71146  1  0  0  0
 72 74  2  0  0  0
 72 75  1  0  0  0
 72147  1  0  0  0
 73 74  1  0  0  0
 73 80  1  0  0  0
 74 81  1  0  0  0
 75 76  2  0  0  0
 75 82  1  0  0  0
 76 86  1  0  0  0
 77 78  1  0  0  0
 77 79  1  0  0  0
 77148  1  0  0  0
 77149  1  0  0  0
 78 80  1  0  0  0
 78150  1  0  0  0
 78151  1  0  0  0
 79 85  1  0  0  0
 79152  1  0  0  0
 79153  1  0  0  0
 80 85  1  0  0  0
 80154  1  0  0  0
 81155  1  0  0  0
 81156  1  0  0  0
 81157  1  0  0  0
 82158  1  0  0  0
 82159  1  0  0  0
 82160  1  0  0  0
 83 84  1  0  0  0
 83161  1  0  0  0
 83162  1  0  0  0
 84 86  1  0  0  0
 84163  1  0  0  0
 84164  1  0  0  0
M  ISO  4   1 100  68 101  83 101  85 100
M  END
> <chiral flag>
0

> <version>
0

> <s_m_source_file>
/data/baiqing/PycharmProjects/Reinvent-master-3.2/result/LINK_invent/BTK/process_docking_weight1_custom_sum_contain_oxygen_bond_distance_aromatic_linkinvent_7_9_3/rearranged_h_0153.sdf

> <i_m_source_file_index>
5

> <r_mmod_Potential_Energy-OPLS-2005>
487.652648925781

> <r_mmod_Stretch_Energy-OPLS-2005>
163.073608398438

> <r_mmod_Bend_Energy-OPLS-2005>
267.602722167969

> <r_mmod_Torsional_Energy-OPLS-2005>
322.712524414062

> <r_mmod_Improper_Torsional_Energy-OPLS-2005>
10.9048690795898

> <r_mmod_Van_der_Waal_Energy-OPLS-2005>
142.41845703125

> <r_mmod_Electrostatic_Energy-OPLS-2005>
-308.186065673828

> <r_mmod_Solvation_Energy-OPLS-2005>
-197.079345703125

> <b_mmod_Minimization_Converged-OPLS-2005>
0

> <r_mmod_RMS_Derivative-OPLS-2005>
5.88790655136108

$$$$
5
                    3D
 Structure written by MMmdl.
153161  0  0  1  0            999 V2000
  -30.7394  -14.5025   20.5526 C   0  0  0  0  0  0
  -30.4127  -12.3230   19.4281 C   0  0  0  0  0  0
  -29.4899  -12.4973   18.2072 C   0  0  0  0  0  0
  -28.0112  -12.3692   18.6195 C   0  0  0  0  0  0
  -27.6585  -13.2261   19.8644 C   0  0  2  0  0  0
  -28.7071  -13.0578   20.9874 C   0  0  0  0  0  0
  -25.2550  -13.8255   20.5660 C   0  0  0  0  0  0
  -24.1835  -13.0486   20.9173 C   0  0  0  0  0  0
  -24.6388  -11.6956   20.8675 C   0  0  0  0  0  0
  -23.9054  -10.4333   21.0334 C   0  0  0  0  0  0
  -24.3614   -9.4276   21.9111 C   0  0  0  0  0  0
  -23.6325   -8.2279   22.0679 C   0  0  0  0  0  0
  -22.4292   -8.0281   21.3493 C   0  0  0  0  0  0
  -21.9906   -9.0239   20.4592 C   0  0  0  0  0  0
  -22.7208  -10.2154   20.3004 C   0  0  0  0  0  0
  -21.6856   -6.0746   22.5310 C   0  0  0  0  0  0
  -21.3998   -6.5643   23.8254 C   0  0  0  0  0  0
  -21.3662   -5.6781   24.9213 C   0  0  0  0  0  0
  -21.6052   -4.3045   24.7226 C   0  0  0  0  0  0
  -21.8805   -3.8146   23.4339 C   0  0  0  0  0  0
  -21.9196   -4.6973   22.3410 C   0  0  0  0  0  0
  -22.7857  -13.5243   21.1853 C   0  0  0  0  0  0
  -22.1644   -4.2171   21.0971 F   0  0  0  0  0  0
  -21.5651   -3.4513   25.7725 F   0  0  0  0  0  0
  -30.0320  -13.3452   20.4164 N   0  0  0  0  0  0
  -26.3033  -12.9468   20.3356 N   0  0  0  0  0  0
  -25.9344  -11.6607   20.5712 N   0  0  0  0  0  0
  -22.0511  -12.8236   22.0398 N   0  0  0  0  0  0
  -25.4157  -15.2003   20.4047 N   0  0  0  0  0  0
  -31.8857  -14.6248   20.1143 O   0  0  0  0  0  0
  -21.6656   -6.8878   21.4250 O   0  0  0  0  0  0
  -22.3536  -14.5561   20.6710 O   0  0  0  0  0  0
  -24.6174  -31.8689   23.2102 C   0  0  0  0  0  0
  -25.9086  -32.4814   23.8373 C   0  0  1  0  0  0
  -27.2022  -27.4088   20.0855 C   0  0  0  0  0  0
  -25.5973  -33.8617   24.2299 N   0  0  0  0  0  0
  -23.4002  -30.4941   21.5543 C   0  0  2  0  0  0
  -24.8339  -28.9607   20.1082 C   0  0  0  0  0  0
  -22.7408  -29.4672   22.5016 C   0  0  0  0  0  0
  -18.0264  -28.1409   22.8434 C   0  0  0  0  0  0
  -24.1501  -36.7319   23.2630 C   0  0  0  0  0  0
  -25.9316  -30.8173   21.3715 C   0  0  0  0  0  0
  -25.9968  -29.4551   20.7122 C   0  0  0  0  0  0
  -27.1821  -28.6851   20.6979 C   0  0  0  0  0  0
  -26.0202  -26.9359   19.4708 C   0  0  0  0  0  0
  -24.8441  -27.7047   19.4816 C   0  0  0  0  0  0
  -23.6010  -29.8334   20.1647 C   0  0  0  0  0  0
  -25.4132  -36.3110   24.0313 C   0  0  1  0  0  0
  -20.5849  -28.3678   23.1312 C   0  0  2  0  0  0
  -20.6768  -26.9438   22.5387 C   0  0  0  0  0  0
  -19.5759  -26.6394   21.5181 C   0  0  0  0  0  0
  -18.1926  -26.7941   22.1584 C   0  0  0  0  0  0
  -19.1511  -28.8858   23.2857 C   0  0  0  0  0  0
  -18.9453  -30.1466   23.8868 C   0  0  0  0  0  0
  -17.6457  -30.6592   24.0566 C   0  0  0  0  0  0
  -25.9073  -34.9479   23.5085 C   0  0  0  0  0  0
  -16.5340  -29.9098   23.6346 C   0  0  0  0  0  0
  -16.7252  -28.6538   23.0311 C   0  0  0  0  0  0
  -26.4499  -31.6624   25.0732 C   0  0  0  0  0  0
  -25.3755  -31.3751   26.1473 C   0  0  0  0  0  0
  -27.0339  -30.3050   24.6182 C   0  0  0  0  0  0
  -27.6042  -32.4385   25.7509 C   0  0  0  0  0  0
  -27.5588  -37.1831   24.8460 C   0  0  0  0  0  0
  -21.4149  -29.3038   22.3730 N   0  0  0  0  0  0
  -26.4307  -37.3808   23.9397 N   0  0  0  0  0  0
  -24.6668  -31.0790   22.1011 N   0  0  0  0  0  0
  -23.4179  -28.8221   23.3071 O   0  0  0  0  0  0
  -28.3709  -26.6742   20.1176 O   0  0  0  0  0  0
  -26.5609  -34.8942   22.4639 O   0  0  0  0  0  0
  -23.5366  -32.1467   23.7502 O   0  0  0  0  0  0
  -27.8574  -19.4632   21.5267 C   0  0  0  0  0  0
  -29.6595  -20.2468   20.1414 C   0  0  0  0  0  0
  -28.4183  -20.5199   20.7715 C   0  0  0  0  0  0
  -28.5657  -18.2503   21.6850 C   0  0  0  0  0  0
  -29.8220  -18.1087   21.0624 C   0  0  0  0  0  0
  -30.7095  -16.8846   21.3269 C   0  0  0  0  0  0
  -27.7170  -24.2152   20.3206 C   0  0  0  0  0  0
  -28.4290  -25.3594   19.5359 C   0  0  0  0  0  0
  -28.4548  -22.8631   20.1561 C   0  0  0  0  0  0
  -30.3432  -19.0821   20.2750 N   0  0  0  0  0  0
  -30.0933  -15.5660   21.0705 N   0  0  0  0  0  0
  -27.7500  -21.7391   20.7070 O   0  0  0  0  0  0
  -28.0660  -17.2578   22.4614 F   0  0  0  0  0  0
  -31.4563  -12.3937   19.1223 H   0  0  0  0  0  0
  -30.2896  -11.3244   19.8541 H   0  0  0  0  0  0
  -29.7281  -11.7546   17.4436 H   0  0  0  0  0  0
  -29.6597  -13.4705   17.7455 H   0  0  0  0  0  0
  -27.8192  -11.3165   18.8332 H   0  0  0  0  0  0
  -27.3666  -12.6261   17.7785 H   0  0  0  0  0  0
  -27.6862  -14.2702   19.5462 H   0  0  0  0  0  0
  -28.6891  -12.0426   21.3817 H   0  0  0  0  0  0
  -28.4770  -13.7092   21.8332 H   0  0  0  0  0  0
  -25.2712   -9.5828   22.4740 H   0  0  0  0  0  0
  -24.0051   -7.4685   22.7378 H   0  0  0  0  0  0
  -21.0845   -8.8733   19.8901 H   0  0  0  0  0  0
  -22.3580  -10.9685   19.6153 H   0  0  0  0  0  0
  -21.1935   -7.6136   23.9774 H   0  0  0  0  0  0
  -21.1503   -6.0481   25.9137 H   0  0  0  0  0  0
  -22.0574   -2.7600   23.2838 H   0  0  0  0  0  0
  -22.4111  -11.9953   22.4928 H   0  0  0  0  0  0
  -21.1094  -13.1278   22.2455 H   0  0  0  0  0  0
  -24.6467  -15.8442   20.5486 H   0  0  0  0  0  0
  -26.2648  -15.6709   20.1225 H   0  0  0  0  0  0
  -26.7134  -32.5463   23.1098 H   0  0  0  0  0  0
  -25.0190  -33.9778   25.0485 H   0  0  0  0  0  0
  -22.6862  -31.3099   21.4219 H   0  0  0  0  0  0
  -23.3769  -35.9652   23.3309 H   0  0  0  0  0  0
  -24.3584  -36.8925   22.2043 H   0  0  0  0  0  0
  -23.7246  -37.6521   23.6647 H   0  0  0  0  0  0
  -26.0627  -31.5846   20.6047 H   0  0  0  0  0  0
  -26.8128  -30.8534   21.9986 H   0  0  0  0  0  0
  -28.0812  -29.0603   21.1657 H   0  0  0  0  0  0
  -25.9786  -25.9769   18.9779 H   0  0  0  0  0  0
  -23.9524  -27.3285   18.9978 H   0  0  0  0  0  0
  -23.7079  -30.6100   19.4056 H   0  0  0  0  0  0
  -22.7206  -29.2599   19.8716 H   0  0  0  0  0  0
  -25.1319  -36.1957   25.0802 H   0  0  0  0  0  0
  -20.9901  -28.3232   24.1459 H   0  0  0  0  0  0
  -20.5687  -26.2301   23.3576 H   0  0  0  0  0  0
  -21.6640  -26.7510   22.1187 H   0  0  0  0  0  0
  -19.6948  -25.6298   21.1237 H   0  0  0  0  0  0
  -19.6711  -27.3174   20.6694 H   0  0  0  0  0  0
  -17.4212  -26.6638   21.3987 H   0  0  0  0  0  0
  -18.0364  -26.0104   22.9001 H   0  0  0  0  0  0
  -19.7931  -30.7276   24.2224 H   0  0  0  0  0  0
  -17.5027  -31.6275   24.5175 H   0  0  0  0  0  0
  -15.5346  -30.2996   23.7725 H   0  0  0  0  0  0
  -15.8642  -28.0880   22.7021 H   0  0  0  0  0  0
  -24.5888  -30.7156   25.7796 H   0  0  0  0  0  0
  -24.9011  -32.2926   26.4976 H   0  0  0  0  0  0
  -25.8090  -30.8854   27.0198 H   0  0  0  0  0  0
  -26.2891  -29.6800   24.1236 H   0  0  0  0  0  0
  -27.4056  -29.7315   25.4681 H   0  0  0  0  0  0
  -27.8760  -30.4330   23.9372 H   0  0  0  0  0  0
  -27.2617  -33.3654   26.2126 H   0  0  0  0  0  0
  -28.3842  -32.7017   25.0352 H   0  0  0  0  0  0
  -28.0754  -31.8520   26.5406 H   0  0  0  0  0  0
  -28.2615  -38.0123   24.7538 H   0  0  0  0  0  0
  -28.1075  -36.2662   24.6261 H   0  0  0  0  0  0
  -27.2313  -37.1453   25.8863 H   0  0  0  0  0  0
  -20.9337  -29.8756   21.6919 H   0  0  0  0  0  0
  -26.0190  -38.2878   24.1402 H   0  0  0  0  0  0
  -26.9070  -19.5897   22.0214 H   0  0  0  0  0  0
  -30.1438  -20.9855   19.5195 H   0  0  0  0  0  0
  -30.9986  -16.9136   22.3797 H   0  0  0  0  0  0
  -31.6438  -17.0134   20.7744 H   0  0  0  0  0  0
  -26.6869  -24.1101   19.9753 H   0  0  0  0  0  0
  -27.6524  -24.4578   21.3811 H   0  0  0  0  0  0
  -28.1080  -25.3769   18.4925 H   0  0  0  0  0  0
  -29.4937  -25.1267   19.4922 H   0  0  0  0  0  0
  -29.4262  -22.9549   20.6477 H   0  0  0  0  0  0
  -28.6379  -22.6875   19.0972 H   0  0  0  0  0  0
  -29.1198  -15.4700   21.3154 H   0  0  0  0  0  0
  1 25  1  0  0  0
  1 30  2  0  0  0
  1 81  1  0  0  0
  2  3  1  0  0  0
  2 25  1  0  0  0
  2 84  1  0  0  0
  2 85  1  0  0  0
  3  4  1  0  0  0
  3 86  1  0  0  0
  3 87  1  0  0  0
  4  5  1  0  0  0
  4 88  1  0  0  0
  4 89  1  0  0  0
  5  6  1  0  0  0
  5 26  1  0  0  0
  5 90  1  0  0  0
  6 25  1  0  0  0
  6 91  1  0  0  0
  6 92  1  0  0  0
  7  8  2  0  0  0
  7 26  1  0  0  0
  7 29  1  0  0  0
  8  9  1  0  0  0
  8 22  1  0  0  0
  9 10  1  0  0  0
  9 27  2  0  0  0
 10 11  2  0  0  0
 10 15  1  0  0  0
 11 12  1  0  0  0
 11 93  1  0  0  0
 12 13  2  0  0  0
 12 94  1  0  0  0
 13 14  1  0  0  0
 13 31  1  0  0  0
 14 15  2  0  0  0
 14 95  1  0  0  0
 15 96  1  0  0  0
 16 17  2  0  0  0
 16 21  1  0  0  0
 16 31  1  0  0  0
 17 18  1  0  0  0
 17 97  1  0  0  0
 18 19  2  0  0  0
 18 98  1  0  0  0
 19 20  1  0  0  0
 19 24  1  0  0  0
 20 21  2  0  0  0
 20 99  1  0  0  0
 21 23  1  0  0  0
 22 28  1  0  0  0
 22 32  2  0  0  0
 26 27  1  0  0  0
 28100  1  0  0  0
 28101  1  0  0  0
 29102  1  0  0  0
 29103  1  0  0  0
 33 34  1  0  0  0
 33 66  1  0  0  0
 33 70  2  0  0  0
 34 36  1  0  0  0
 34 59  1  0  0  0
 34104  1  0  0  0
 35 44  2  0  0  0
 35 45  1  0  0  0
 35 68  1  0  0  0
 36 56  1  0  0  0
 36105  1  0  0  0
 37 39  1  0  0  0
 37 47  1  0  0  0
 37 66  1  0  0  0
 37106  1  0  0  0
 38 43  2  0  0  0
 38 46  1  0  0  0
 38 47  1  0  0  0
 39 64  1  0  0  0
 39 67  2  0  0  0
 40 52  1  0  0  0
 40 53  2  0  0  0
 40 58  1  0  0  0
 41107  1  0  0  0
 41108  1  0  0  0
 41109  1  0  0  0
 41 48  1  0  0  0
 42 43  1  0  0  0
 42 66  1  0  0  0
 42110  1  0  0  0
 42111  1  0  0  0
 43 44  1  0  0  0
 44112  1  0  0  0
 45 46  2  0  0  0
 45113  1  0  0  0
 46114  1  0  0  0
 47115  1  0  0  0
 47116  1  0  0  0
 48 56  1  0  0  0
 48 65  1  0  0  0
 48117  1  0  0  0
 49 50  1  0  0  0
 49 53  1  0  0  0
 49 64  1  0  0  0
 49118  1  0  0  0
 50 51  1  0  0  0
 50119  1  0  0  0
 50120  1  0  0  0
 51 52  1  0  0  0
 51121  1  0  0  0
 51122  1  0  0  0
 52123  1  0  0  0
 52124  1  0  0  0
 53 54  1  0  0  0
 54 55  2  0  0  0
 54125  1  0  0  0
 55 57  1  0  0  0
 55126  1  0  0  0
 56 69  2  0  0  0
 57 58  2  0  0  0
 57127  1  0  0  0
 58128  1  0  0  0
 59 60  1  0  0  0
 59 61  1  0  0  0
 59 62  1  0  0  0
 60129  1  0  0  0
 60130  1  0  0  0
 60131  1  0  0  0
 61132  1  0  0  0
 61133  1  0  0  0
 61134  1  0  0  0
 62135  1  0  0  0
 62136  1  0  0  0
 62137  1  0  0  0
 63 65  1  0  0  0
 63138  1  0  0  0
 63139  1  0  0  0
 63140  1  0  0  0
 64141  1  0  0  0
 65142  1  0  0  0
 68 78  1  0  0  0
 71 73  2  0  0  0
 71 74  1  0  0  0
 71143  1  0  0  0
 72 73  1  0  0  0
 72 80  2  0  0  0
 72144  1  0  0  0
 73 82  1  0  0  0
 74 75  2  0  0  0
 74 83  1  0  0  0
 75 76  1  0  0  0
 75 80  1  0  0  0
 76 81  1  0  0  0
 76145  1  0  0  0
 76146  1  0  0  0
 77 78  1  0  0  0
 77 79  1  0  0  0
 77147  1  0  0  0
 77148  1  0  0  0
 78149  1  0  0  0
 78150  1  0  0  0
 79 82  1  0  0  0
 79151  1  0  0  0
 79152  1  0  0  0
 81153  1  0  0  0
M  ISO  4   1 100  68 101  78 101  81 100
M  END
> <chiral flag>
0

> <version>
0

> <s_m_source_file>
/data/baiqing/PycharmProjects/Reinvent-master-3.2/result/LINK_invent/BTK/process_docking_weight1_custom_sum_contain_oxygen_bond_distance_aromatic_linkinvent_7_9_3/rearranged_h_0153.sdf

> <i_m_source_file_index>
6

> <r_mmod_Potential_Energy-OPLS-2005>
-209.73957824707

> <r_mmod_Stretch_Energy-OPLS-2005>
40.2679443359375

> <r_mmod_Bend_Energy-OPLS-2005>
110.280448913574

> <r_mmod_Torsional_Energy-OPLS-2005>
192.185516357422

> <r_mmod_Improper_Torsional_Energy-OPLS-2005>
2.8693208694458

> <r_mmod_Van_der_Waal_Energy-OPLS-2005>
158.742126464844

> <r_mmod_Electrostatic_Energy-OPLS-2005>
-517.533386230469

> <r_mmod_Solvation_Energy-OPLS-2005>
-217.09944152832

> <b_mmod_Minimization_Converged-OPLS-2005>
0

> <r_mmod_RMS_Derivative-OPLS-2005>
4.95991134643555

$$$$
6
                    3D
 Structure written by MMmdl.
166175  0  0  1  0            999 V2000
  -30.7308  -14.5008   20.5364 C   0  0  0  0  0  0
  -30.4009  -12.3291   19.3942 C   0  0  0  0  0  0
  -29.4673  -12.4920   18.1791 C   0  0  0  0  0  0
  -27.9979  -12.2976   18.6028 C   0  0  0  0  0  0
  -27.6303  -13.1606   19.8333 C   0  0  2  0  0  0
  -28.6900  -13.0420   20.9601 C   0  0  0  0  0  0
  -25.2556  -13.8010   20.5647 C   0  0  0  0  0  0
  -24.1782  -13.0335   20.9195 C   0  0  0  0  0  0
  -24.6297  -11.6801   20.8773 C   0  0  0  0  0  0
  -23.8968  -10.4218   21.0441 C   0  0  0  0  0  0
  -24.3533   -9.4154   21.9208 C   0  0  0  0  0  0
  -23.6207   -8.2190   22.0760 C   0  0  0  0  0  0
  -22.4200   -8.0256   21.3556 C   0  0  0  0  0  0
  -21.9821   -9.0236   20.4665 C   0  0  0  0  0  0
  -22.7163  -10.2101   20.3061 C   0  0  0  0  0  0
  -21.6850   -6.0673   22.5271 C   0  0  0  0  0  0
  -21.4023   -6.5575   23.8205 C   0  0  0  0  0  0
  -21.3653   -5.6752   24.9171 C   0  0  0  0  0  0
  -21.6043   -4.3016   24.7259 C   0  0  0  0  0  0
  -21.8822   -3.8087   23.4383 C   0  0  0  0  0  0
  -21.9202   -4.6886   22.3432 C   0  0  0  0  0  0
  -22.7849  -13.5240   21.1860 C   0  0  0  0  0  0
  -22.1676   -4.2064   21.1006 F   0  0  0  0  0  0
  -21.5628   -3.4524   25.7783 F   0  0  0  0  0  0
  -30.0124  -13.3458   20.3886 N   0  0  0  0  0  0
  -26.2862  -12.9056   20.3212 N   0  0  0  0  0  0
  -25.9181  -11.6288   20.5758 N   0  0  0  0  0  0
  -22.0420  -12.8285   22.0431 N   0  0  0  0  0  0
  -25.4270  -15.1726   20.4110 N   0  0  0  0  0  0
  -31.8833  -14.6035   20.1075 O   0  0  0  0  0  0
  -21.6615   -6.8822   21.4242 O   0  0  0  0  0  0
  -22.3617  -14.5597   20.6754 O   0  0  0  0  0  0
  -24.6163  -31.8596   23.2037 C   0  0  0  0  0  0
  -25.9034  -32.4784   23.8303 C   0  0  1  0  0  0
  -27.2223  -27.3670   20.1170 C   0  0  0  0  0  0
  -25.5885  -33.8598   24.2186 N   0  0  0  0  0  0
  -23.3975  -30.4722   21.5609 C   0  0  2  0  0  0
  -24.8357  -28.9247   20.1215 C   0  0  0  0  0  0
  -22.7350  -29.4611   22.5181 C   0  0  0  0  0  0
  -18.0229  -28.1383   22.8439 C   0  0  0  0  0  0
  -24.1517  -36.7303   23.2628 C   0  0  0  0  0  0
  -25.9280  -30.7989   21.3639 C   0  0  0  0  0  0
  -25.9997  -29.4298   20.7113 C   0  0  0  0  0  0
  -27.1939  -28.6653   20.6921 C   0  0  0  0  0  0
  -26.0341  -26.8885   19.5146 C   0  0  0  0  0  0
  -24.8564  -27.6625   19.5056 C   0  0  0  0  0  0
  -23.5921  -29.7878   20.1804 C   0  0  0  0  0  0
  -25.4142  -36.3065   24.0303 C   0  0  1  0  0  0
  -20.5783  -28.3693   23.1350 C   0  0  2  0  0  0
  -20.6763  -26.9466   22.5383 C   0  0  0  0  0  0
  -19.5756  -26.6385   21.5203 C   0  0  0  0  0  0
  -18.1924  -26.7904   22.1612 C   0  0  0  0  0  0
  -19.1440  -28.8869   23.2864 C   0  0  0  0  0  0
  -18.9366  -30.1495   23.8853 C   0  0  0  0  0  0
  -17.6363  -30.6584   24.0557 C   0  0  0  0  0  0
  -25.9082  -34.9459   23.5041 C   0  0  0  0  0  0
  -16.5272  -29.9024   23.6363 C   0  0  0  0  0  0
  -16.7214  -28.6468   23.0326 C   0  0  0  0  0  0
  -26.4421  -31.6596   25.0677 C   0  0  0  0  0  0
  -25.3702  -31.3792   26.1438 C   0  0  0  0  0  0
  -27.0167  -30.3000   24.6111 C   0  0  0  0  0  0
  -27.6033  -32.4264   25.7407 C   0  0  0  0  0  0
  -27.5599  -37.1816   24.8486 C   0  0  0  0  0  0
  -21.4096  -29.3053   22.3816 N   0  0  0  0  0  0
  -26.4313  -37.3769   23.9419 N   0  0  0  0  0  0
  -24.6661  -31.0608   22.0984 N   0  0  0  0  0  0
  -23.4059  -28.8190   23.3281 O   0  0  0  0  0  0
  -28.4044  -26.6332   20.1468 O   0  0  0  0  0  0
  -26.5704  -34.8943   22.4644 O   0  0  0  0  0  0
  -23.5382  -32.1366   23.7478 O   0  0  0  0  0  0
  -26.6268  -22.5325   21.9069 C   0  0  0  0  0  0
  -27.4288  -20.2595   21.8963 C   0  0  0  0  0  0
  -26.4037  -21.1767   22.1693 C   0  0  0  0  0  0
  -27.8713  -22.9464   21.3915 C   0  0  0  0  0  0
  -28.6498  -20.7253   21.3586 C   0  0  0  0  0  0
  -28.9519  -17.6968   20.3723 C   0  0  0  0  0  0
  -31.0598  -17.8819   21.6254 C   0  0  0  0  0  0
  -28.8998  -16.1818   20.6762 C   0  0  0  0  0  0
  -30.9343  -16.4080   22.0905 C   0  0  0  0  0  0
  -29.6710  -18.5073   21.4564 C   0  0  0  0  0  0
  -25.0967  -20.7241   22.7795 C   0  0  0  0  0  0
  -29.3693  -24.6528   22.3981 C   0  0  0  0  0  0
  -28.4061  -25.1750   20.0537 C   0  0  0  0  0  0
  -28.2016  -24.4534   21.4216 C   0  0  1  0  0  0
  -28.8541  -22.0456   21.0935 N   0  0  0  0  0  0
  -30.1497  -15.5575   21.1702 N   0  0  0  0  0  0
  -29.7401  -19.9041   21.1009 O   0  0  0  0  0  0
  -31.4432  -12.4117   19.0791 H   0  0  0  0  0  0
  -30.2968  -11.3294   19.8203 H   0  0  0  0  0  0
  -29.7267  -11.7777   17.3961 H   0  0  0  0  0  0
  -29.6001  -13.4848   17.7415 H   0  0  0  0  0  0
  -27.8384  -11.2422   18.8270 H   0  0  0  0  0  0
  -27.3348  -12.5328   17.7676 H   0  0  0  0  0  0
  -27.5904  -14.1537   19.4203 H   0  0  0  0  0  0
  -28.6911  -12.0307   21.3665 H   0  0  0  0  0  0
  -28.4427  -13.6895   21.8008 H   0  0  0  0  0  0
  -25.2687   -9.5634   22.4766 H   0  0  0  0  0  0
  -23.9920   -7.4585   22.7469 H   0  0  0  0  0  0
  -21.0736   -8.8810   19.8969 H   0  0  0  0  0  0
  -22.3687  -10.9655   19.6144 H   0  0  0  0  0  0
  -21.2014   -7.6081   23.9712 H   0  0  0  0  0  0
  -21.1462   -6.0457   25.9081 H   0  0  0  0  0  0
  -22.0599   -2.7535   23.2947 H   0  0  0  0  0  0
  -22.3998  -11.9967   22.4897 H   0  0  0  0  0  0
  -21.1051  -13.1405   22.2601 H   0  0  0  0  0  0
  -24.6611  -15.8216   20.5463 H   0  0  0  0  0  0
  -26.2806  -15.6276   20.1133 H   0  0  0  0  0  0
  -26.7097  -32.5383   23.1062 H   0  0  0  0  0  0
  -24.9931  -33.9797   25.0249 H   0  0  0  0  0  0
  -22.6852  -31.2900   21.4287 H   0  0  0  0  0  0
  -23.3759  -35.9658   23.3314 H   0  0  0  0  0  0
  -24.3595  -36.8931   22.2036 H   0  0  0  0  0  0
  -23.7350  -37.6535   23.6681 H   0  0  0  0  0  0
  -26.0512  -31.5600   20.5923 H   0  0  0  0  0  0
  -26.8060  -30.8362   21.9951 H   0  0  0  0  0  0
  -28.0904  -29.0591   21.1481 H   0  0  0  0  0  0
  -25.9825  -25.9210   19.0424 H   0  0  0  0  0  0
  -23.9692  -27.2728   19.0241 H   0  0  0  0  0  0
  -23.6805  -30.5535   19.4129 H   0  0  0  0  0  0
  -22.7118  -29.2038   19.8987 H   0  0  0  0  0  0
  -25.1371  -36.1869   25.0800 H   0  0  0  0  0  0
  -20.9804  -28.3287   24.1518 H   0  0  0  0  0  0
  -20.5758  -26.2288   23.3534 H   0  0  0  0  0  0
  -21.6642  -26.7645   22.1146 H   0  0  0  0  0  0
  -19.6952  -25.6275   21.1284 H   0  0  0  0  0  0
  -19.6641  -27.3156   20.6705 H   0  0  0  0  0  0
  -17.4217  -26.6508   21.3995 H   0  0  0  0  0  0
  -18.0394  -26.0102   22.9083 H   0  0  0  0  0  0
  -19.7838  -30.7352   24.2146 H   0  0  0  0  0  0
  -17.4904  -31.6252   24.5172 H   0  0  0  0  0  0
  -15.5243  -30.2844   23.7770 H   0  0  0  0  0  0
  -15.8636  -28.0761   22.7056 H   0  0  0  0  0  0
  -24.5756  -30.7291   25.7798 H   0  0  0  0  0  0
  -24.9046  -32.2991   26.4962 H   0  0  0  0  0  0
  -25.8009  -30.8776   27.0102 H   0  0  0  0  0  0
  -26.2709  -29.6932   24.0953 H   0  0  0  0  0  0
  -27.3683  -29.7145   25.4621 H   0  0  0  0  0  0
  -27.8699  -30.4255   23.9422 H   0  0  0  0  0  0
  -27.2834  -33.3796   26.1627 H   0  0  0  0  0  0
  -28.3992  -32.6394   25.0262 H   0  0  0  0  0  0
  -28.0448  -31.8511   26.5547 H   0  0  0  0  0  0
  -28.2612  -38.0109   24.7533 H   0  0  0  0  0  0
  -28.1108  -36.2664   24.6320 H   0  0  0  0  0  0
  -27.2330  -37.1459   25.8885 H   0  0  0  0  0  0
  -20.9406  -29.8562   21.6781 H   0  0  0  0  0  0
  -26.0184  -38.2858   24.1356 H   0  0  0  0  0  0
  -25.8610  -23.2484   22.1736 H   0  0  0  0  0  0
  -27.2513  -19.2201   22.1245 H   0  0  0  0  0  0
  -27.9326  -18.0592   20.2373 H   0  0  0  0  0  0
  -29.4450  -17.8552   19.4116 H   0  0  0  0  0  0
  -31.6179  -17.9294   20.6865 H   0  0  0  0  0  0
  -31.6311  -18.4555   22.3582 H   0  0  0  0  0  0
  -28.6491  -15.7647   19.7101 H   0  0  0  0  0  0
  -28.0973  -15.9609   21.3817 H   0  0  0  0  0  0
  -30.4460  -16.3744   23.0655 H   0  0  0  0  0  0
  -31.9291  -15.9865   22.2550 H   0  0  0  0  0  0
  -29.1689  -18.3876   22.4161 H   0  0  0  0  0  0
  -25.2187  -20.4646   23.8328 H   0  0  0  0  0  0
  -24.7056  -19.8532   22.2557 H   0  0  0  0  0  0
  -24.3598  -21.5225   22.7010 H   0  0  0  0  0  0
  -29.4824  -25.6907   22.7052 H   0  0  0  0  0  0
  -30.3056  -24.3120   21.9548 H   0  0  0  0  0  0
  -29.1925  -24.0551   23.2937 H   0  0  0  0  0  0
  -27.6868  -24.7911   19.3351 H   0  0  0  0  0  0
  -29.3747  -24.8761   19.6510 H   0  0  0  0  0  0
  -27.3398  -24.9420   21.8756 H   0  0  0  0  0  0
  1 25  1  0  0  0
  1 30  2  0  0  0
  1 86  1  0  0  0
  2  3  1  0  0  0
  2 25  1  0  0  0
  2 88  1  0  0  0
  2 89  1  0  0  0
  3  4  1  0  0  0
  3 90  1  0  0  0
  3 91  1  0  0  0
  4  5  1  0  0  0
  4 92  1  0  0  0
  4 93  1  0  0  0
  5  6  1  0  0  0
  5 26  1  0  0  0
  5 94  1  0  0  0
  6 25  1  0  0  0
  6 95  1  0  0  0
  6 96  1  0  0  0
  7  8  2  0  0  0
  7 26  1  0  0  0
  7 29  1  0  0  0
  8  9  1  0  0  0
  8 22  1  0  0  0
  9 10  1  0  0  0
  9 27  2  0  0  0
 10 11  2  0  0  0
 10 15  1  0  0  0
 11 12  1  0  0  0
 11 97  1  0  0  0
 12 13  2  0  0  0
 12 98  1  0  0  0
 13 14  1  0  0  0
 13 31  1  0  0  0
 14 15  2  0  0  0
 14 99  1  0  0  0
 15100  1  0  0  0
 16 17  2  0  0  0
 16 21  1  0  0  0
 16 31  1  0  0  0
 17 18  1  0  0  0
 17101  1  0  0  0
 18 19  2  0  0  0
 18102  1  0  0  0
 19 20  1  0  0  0
 19 24  1  0  0  0
 20 21  2  0  0  0
 20103  1  0  0  0
 21 23  1  0  0  0
 22 28  1  0  0  0
 22 32  2  0  0  0
 26 27  1  0  0  0
 28104  1  0  0  0
 28105  1  0  0  0
 29106  1  0  0  0
 29107  1  0  0  0
 33 34  1  0  0  0
 33 66  1  0  0  0
 33 70  2  0  0  0
 34 36  1  0  0  0
 34 59  1  0  0  0
 34108  1  0  0  0
 35 44  2  0  0  0
 35 45  1  0  0  0
 35 68  1  0  0  0
 36 56  1  0  0  0
 36109  1  0  0  0
 37 39  1  0  0  0
 37 47  1  0  0  0
 37 66  1  0  0  0
 37110  1  0  0  0
 38 43  2  0  0  0
 38 46  1  0  0  0
 38 47  1  0  0  0
 39 64  1  0  0  0
 39 67  2  0  0  0
 40 52  1  0  0  0
 40 53  2  0  0  0
 40 58  1  0  0  0
 41111  1  0  0  0
 41112  1  0  0  0
 41113  1  0  0  0
 41 48  1  0  0  0
 42 43  1  0  0  0
 42 66  1  0  0  0
 42114  1  0  0  0
 42115  1  0  0  0
 43 44  1  0  0  0
 44116  1  0  0  0
 45 46  2  0  0  0
 45117  1  0  0  0
 46118  1  0  0  0
 47119  1  0  0  0
 47120  1  0  0  0
 48 56  1  0  0  0
 48 65  1  0  0  0
 48121  1  0  0  0
 49 50  1  0  0  0
 49 53  1  0  0  0
 49 64  1  0  0  0
 49122  1  0  0  0
 50 51  1  0  0  0
 50123  1  0  0  0
 50124  1  0  0  0
 51 52  1  0  0  0
 51125  1  0  0  0
 51126  1  0  0  0
 52127  1  0  0  0
 52128  1  0  0  0
 53 54  1  0  0  0
 54 55  2  0  0  0
 54129  1  0  0  0
 55 57  1  0  0  0
 55130  1  0  0  0
 56 69  2  0  0  0
 57 58  2  0  0  0
 57131  1  0  0  0
 58132  1  0  0  0
 59 60  1  0  0  0
 59 61  1  0  0  0
 59 62  1  0  0  0
 60133  1  0  0  0
 60134  1  0  0  0
 60135  1  0  0  0
 61136  1  0  0  0
 61137  1  0  0  0
 61138  1  0  0  0
 62139  1  0  0  0
 62140  1  0  0  0
 62141  1  0  0  0
 63 65  1  0  0  0
 63142  1  0  0  0
 63143  1  0  0  0
 63144  1  0  0  0
 64145  1  0  0  0
 65146  1  0  0  0
 68 83  1  0  0  0
 71 73  2  0  0  0
 71 74  1  0  0  0
 71147  1  0  0  0
 72 73  1  0  0  0
 72 75  2  0  0  0
 72148  1  0  0  0
 73 81  1  0  0  0
 74 84  1  0  0  0
 74 85  2  0  0  0
 75 85  1  0  0  0
 75 87  1  0  0  0
 76 78  1  0  0  0
 76 80  1  0  0  0
 76149  1  0  0  0
 76150  1  0  0  0
 77 79  1  0  0  0
 77 80  1  0  0  0
 77151  1  0  0  0
 77152  1  0  0  0
 78 86  1  0  0  0
 78153  1  0  0  0
 78154  1  0  0  0
 79 86  1  0  0  0
 79155  1  0  0  0
 79156  1  0  0  0
 80 87  1  0  0  0
 80157  1  0  0  0
 81158  1  0  0  0
 81159  1  0  0  0
 81160  1  0  0  0
 82161  1  0  0  0
 82162  1  0  0  0
 82163  1  0  0  0
 82 84  1  0  0  0
 83 84  1  0  0  0
 83164  1  0  0  0
 83165  1  0  0  0
 84166  1  0  0  0
M  ISO  4   1 100  68 101  83 101  86 100
M  END
> <chiral flag>
0

> <version>
0

> <s_m_source_file>
/data/baiqing/PycharmProjects/Reinvent-master-3.2/result/LINK_invent/BTK/process_docking_weight1_custom_sum_contain_oxygen_bond_distance_aromatic_linkinvent_7_9_3/rearranged_h_0153.sdf

> <i_m_source_file_index>
7

> <r_mmod_Potential_Energy-OPLS-2005>
55.3879127502441

> <r_mmod_Stretch_Energy-OPLS-2005>
48.5850715637207

> <r_mmod_Bend_Energy-OPLS-2005>
136.631622314453

> <r_mmod_Torsional_Energy-OPLS-2005>
302.789184570312

> <r_mmod_Improper_Torsional_Energy-OPLS-2005>
4.09846639633179

> <r_mmod_Van_der_Waal_Energy-OPLS-2005>
170.475738525391

> <r_mmod_Electrostatic_Energy-OPLS-2005>
-423.148651123047

> <r_mmod_Solvation_Energy-OPLS-2005>
-210.394927978516

> <b_mmod_Minimization_Converged-OPLS-2005>
0

> <r_mmod_RMS_Derivative-OPLS-2005>
6.64218521118164

$$$$
7
                    3D
 Structure written by MMmdl.
173182  0  0  1  0            999 V2000
  -30.7118  -14.2928   20.7775 C   0  0  0  0  0  0
  -30.4271  -12.3298   19.2869 C   0  0  0  0  0  0
  -29.4223  -12.5702   18.1379 C   0  0  0  0  0  0
  -27.9228  -12.4570   18.5517 C   0  0  0  0  0  0
  -27.6006  -13.2278   19.8723 C   0  0  2  0  0  0
  -28.7179  -12.7624   20.8940 C   0  0  0  0  0  0
  -24.6476  -14.5634   21.1231 C   0  0  0  0  0  0
  -24.0706  -14.0407   21.1476 C   0  0  0  0  0  0
  -25.2228  -12.2552   20.5510 C   0  0  0  0  0  0
  -24.5931  -10.5237   20.5302 C   0  0  0  0  0  0
  -24.7794   -9.5394   21.6136 C   0  0  0  0  0  0
  -23.9279   -8.3976   21.9612 C   0  0  0  0  0  0
  -22.6970   -8.1304   21.2972 C   0  0  0  0  0  0
  -22.4371   -9.0319   20.2564 C   0  0  0  0  0  0
  -23.3759  -10.0478   19.8682 C   0  0  0  0  0  0
  -21.7966   -6.1645   22.5337 C   0  0  0  0  0  0
  -21.4838   -6.6171   23.8333 C   0  0  0  0  0  0
  -21.3925   -5.7093   24.9135 C   0  0  0  0  0  0
  -21.6035   -4.3324   24.7020 C   0  0  0  0  0  0
  -21.8791   -3.8641   23.4056 C   0  0  0  0  0  0
  -21.9585   -4.7701   22.3260 C   0  0  0  0  0  0
  -22.4753  -14.4254   21.3719 C   0  0  0  0  0  0
  -22.1830   -4.2812   21.0815 F   0  0  0  0  0  0
  -21.5428   -3.4657   25.7403 F   0  0  0  0  0  0
  -30.0473  -13.1622   20.4283 N   0  0  0  0  0  0
  -26.0359  -13.1886   20.4150 N   0  0  0  0  0  0
  -26.3063  -11.9745   20.6822 N   0  0  0  0  0  0
  -21.6235  -13.7112   22.1167 N   0  0  0  0  0  0
  -24.5121  -15.9885   21.4973 N   0  0  0  0  0  0
  -31.6964  -14.7082   20.1535 O   0  0  0  0  0  0
  -21.8276   -7.0402   21.4535 O   0  0  0  0  0  0
  -21.9699  -15.2267   20.6198 O   0  0  0  0  0  0
  -24.7102  -31.7737   23.1425 C   0  0  0  0  0  0
  -25.9617  -32.4330   23.7991 C   0  0  1  0  0  0
  -26.8224  -26.3410   20.1716 C   0  0  0  0  0  0
  -25.6102  -33.8207   24.1794 N   0  0  0  0  0  0
  -23.5131  -30.4022   21.5151 C   0  0  2  0  0  0
  -24.8813  -28.7081   20.0844 C   0  0  0  0  0  0
  -22.7700  -29.4251   22.4687 C   0  0  0  0  0  0
  -18.0314  -28.1420   22.8438 C   0  0  0  0  0  0
  -24.1471  -36.7077   23.2646 C   0  0  0  0  0  0
  -26.1027  -30.3611   21.4486 C   0  0  0  0  0  0
  -26.0792  -28.9114   20.7732 C   0  0  0  0  0  0
  -27.0549  -27.7500   20.7861 C   0  0  0  0  0  0
  -25.6774  -26.4547   19.3775 C   0  0  0  0  0  0
  -24.7435  -27.5214   19.3527 C   0  0  0  0  0  0
  -23.7509  -29.7463   20.1291 C   0  0  0  0  0  0
  -25.4148  -36.2847   24.0259 C   0  0  1  0  0  0
  -20.5922  -28.3775   23.1095 C   0  0  2  0  0  0
  -20.6790  -26.9443   22.5366 C   0  0  0  0  0  0
  -19.5776  -26.6363   21.5182 C   0  0  0  0  0  0
  -18.1954  -26.7946   22.1592 C   0  0  0  0  0  0
  -19.1576  -28.8919   23.2753 C   0  0  0  0  0  0
  -18.9504  -30.1500   23.8801 C   0  0  0  0  0  0
  -17.6507  -30.6614   24.0537 C   0  0  0  0  0  0
  -25.9193  -34.9231   23.4878 C   0  0  0  0  0  0
  -16.5390  -29.9101   23.6365 C   0  0  0  0  0  0
  -16.7297  -28.6519   23.0381 C   0  0  0  0  0  0
  -26.4677  -31.6525   25.0743 C   0  0  0  0  0  0
  -25.3659  -31.3956   26.1310 C   0  0  0  0  0  0
  -27.0679  -30.2849   24.6868 C   0  0  0  0  0  0
  -27.6036  -32.4485   25.7589 C   0  0  0  0  0  0
  -27.5569  -37.1665   24.8441 C   0  0  0  0  0  0
  -21.4351  -29.3025   22.3388 N   0  0  0  0  0  0
  -26.4218  -37.3667   23.9473 N   0  0  0  0  0  0
  -24.8093  -30.8863   22.0892 N   0  0  0  0  0  0
  -23.4094  -28.7809   23.3039 O   0  0  0  0  0  0
  -27.4374  -24.8506   20.1701 O   0  0  0  0  0  0
  -26.5832  -34.8889   22.4513 O   0  0  0  0  0  0
  -23.6078  -32.1090   23.6177 O   0  0  0  0  0  0
  -25.3925  -13.1548   22.8314 C   0  0  0  0  0  0
  -26.6753  -14.7024   21.9567 C   0  0  0  0  0  0
  -23.6011  -12.1298   22.0258 C   0  0  0  0  0  0
  -23.2594  -12.7201   19.6494 C   0  0  0  0  0  0
  -24.6598  -14.2616   18.8613 C   0  0  0  0  0  0
  -26.2468  -15.4670   19.9064 C   0  0  0  0  0  0
  -28.6003  -14.6638   23.7299 C   0  0  0  0  0  0
  -28.3690  -16.7012   22.2281 C   0  0  0  0  0  0
  -30.0514  -14.6019   23.1692 C   0  0  0  0  0  0
  -29.7302  -16.4061   21.5598 C   0  0  0  0  0  0
  -27.6175  -15.5020   22.8756 C   0  0  0  0  0  0
  -22.7042  -11.2853   22.9397 C   0  0  0  0  0  0
  -21.9386  -12.5111   18.8677 C   0  0  0  0  0  0
  -24.3440  -14.7816   17.4764 C   0  0  0  0  0  0
  -27.0072  -20.9811   19.7667 C   0  0  0  0  0  0
  -26.7764  -23.0539   20.1611 C   0  0  0  0  0  0
  -26.4065  -18.9650   20.0628 C   0  0  0  0  0  0
  -30.1056  -15.0108   21.7575 N   0  0  0  0  0  0
  -26.5544  -17.1279   19.5596 O   0  0  0  0  0  0
  -31.4414  -12.5457   18.9431 H   0  0  0  0  0  0
  -30.4232  -11.2795   19.5813 H   0  0  0  0  0  0
  -29.6357  -11.8629   17.3369 H   0  0  0  0  0  0
  -29.6031  -13.5645   17.7212 H   0  0  0  0  0  0
  -27.6497  -11.4072   18.6495 H   0  0  0  0  0  0
  -27.3037  -12.8585   17.7522 H   0  0  0  0  0  0
  -28.0082  -14.1960   19.6023 H   0  0  0  0  0  0
  -28.7285  -11.6760   20.9804 H   0  0  0  0  0  0
  -28.5079  -13.0380   21.9034 H   0  0  0  0  0  0
  -25.6255   -9.7189   22.2620 H   0  0  0  0  0  0
  -24.2532   -7.7430   22.7604 H   0  0  0  0  0  0
  -21.5728   -8.8746   19.6311 H   0  0  0  0  0  0
  -23.1814  -10.4496   18.8934 H   0  0  0  0  0  0
  -21.3137   -7.6701   24.0095 H   0  0  0  0  0  0
  -21.1638   -6.0694   25.9069 H   0  0  0  0  0  0
  -22.0172   -2.8065   23.2365 H   0  0  0  0  0  0
  -21.9906  -12.9084   22.6063 H   0  0  0  0  0  0
  -20.6336  -13.8935   22.0953 H   0  0  0  0  0  0
  -23.6629  -16.4271   21.8282 H   0  0  0  0  0  0
  -25.2697  -16.6476   21.4020 H   0  0  0  0  0  0
  -26.7686  -32.4598   23.0657 H   0  0  0  0  0  0
  -25.0202  -33.9229   24.9897 H   0  0  0  0  0  0
  -22.8558  -31.2596   21.3473 H   0  0  0  0  0  0
  -23.3846  -35.9279   23.3131 H   0  0  0  0  0  0
  -24.3538  -36.8951   22.2094 H   0  0  0  0  0  0
  -23.7056  -37.6122   23.6862 H   0  0  0  0  0  0
  -26.3840  -31.0710   20.6685 H   0  0  0  0  0  0
  -26.9377  -30.3565   22.1353 H   0  0  0  0  0  0
  -27.9387  -27.8875   21.3902 H   0  0  0  0  0  0
  -25.4033  -25.5763   18.8072 H   0  0  0  0  0  0
  -23.8483  -27.3871   18.7589 H   0  0  0  0  0  0
  -24.0029  -30.5384   19.4202 H   0  0  0  0  0  0
  -22.8221  -29.3063   19.7576 H   0  0  0  0  0  0
  -25.1332  -36.1572   25.0731 H   0  0  0  0  0  0
  -21.0005  -28.3444   24.1207 H   0  0  0  0  0  0
  -20.5635  -26.2445   23.3646 H   0  0  0  0  0  0
  -21.6670  -26.7384   22.1193 H   0  0  0  0  0  0
  -19.6984  -25.6243   21.1303 H   0  0  0  0  0  0
  -19.6756  -27.3088   20.6649 H   0  0  0  0  0  0
  -17.4222  -26.6631   21.4009 H   0  0  0  0  0  0
  -18.0394  -26.0088   22.8999 H   0  0  0  0  0  0
  -19.7991  -30.7316   24.2139 H   0  0  0  0  0  0
  -17.5086  -31.6298   24.5151 H   0  0  0  0  0  0
  -15.5400  -30.3002   23.7772 H   0  0  0  0  0  0
  -15.8672  -28.0829   22.7185 H   0  0  0  0  0  0
  -24.5818  -30.7340   25.7628 H   0  0  0  0  0  0
  -24.8913  -32.3239   26.4505 H   0  0  0  0  0  0
  -25.7787  -30.9268   27.0250 H   0  0  0  0  0  0
  -26.3466  -29.6282   24.2008 H   0  0  0  0  0  0
  -27.4127  -29.7545   25.5750 H   0  0  0  0  0  0
  -27.9427  -30.3953   24.0459 H   0  0  0  0  0  0
  -27.2504  -33.3858   26.1911 H   0  0  0  0  0  0
  -28.4013  -32.6941   25.0564 H   0  0  0  0  0  0
  -28.0549  -31.8834   26.5750 H   0  0  0  0  0  0
  -28.2418  -38.0130   24.7749 H   0  0  0  0  0  0
  -28.1240  -36.2676   24.5944 H   0  0  0  0  0  0
  -27.2344  -37.0913   25.8846 H   0  0  0  0  0  0
  -20.9635  -29.8723   21.6483 H   0  0  0  0  0  0
  -26.0024  -38.2674   24.1655 H   0  0  0  0  0  0
  -25.5719  -12.9809   23.8813 H   0  0  0  0  0  0
  -28.6622  -15.1251   24.7138 H   0  0  0  0  0  0
  -28.1931  -13.6771   23.9357 H   0  0  0  0  0  0
  -27.7441  -17.2318   21.5325 H   0  0  0  0  0  0
  -28.5566  -17.4309   23.0184 H   0  0  0  0  0  0
  -30.4913  -13.6105   23.3104 H   0  0  0  0  0  0
  -30.6771  -15.2945   23.7428 H   0  0  0  0  0  0
  -30.4887  -17.0910   21.9507 H   0  0  0  0  0  0
  -29.6500  -16.6076   20.4891 H   0  0  0  0  0  0
  -26.9006  -15.9542   23.5597 H   0  0  0  0  0  0
  -22.3101  -11.8880   23.7559 H   0  0  0  0  0  0
  -23.2464  -10.4891   23.4401 H   0  0  0  0  0  0
  -21.8725  -10.8579   22.3837 H   0  0  0  0  0  0
  -21.1682  -13.1464   19.2965 H   0  0  0  0  0  0
  -21.4798  -11.5240   18.9072 H   0  0  0  0  0  0
  -22.0690  -12.8233   17.8252 H   0  0  0  0  0  0
  -23.2839  -15.0109   17.3975 H   0  0  0  0  0  0
  -24.6134  -14.0670   16.6983 H   0  0  0  0  0  0
  -24.9053  -15.6957   17.2770 H   0  0  0  0  0  0
  -28.0781  -20.8785   19.8980 H   0  0  0  0  0  0
  -26.8968  -21.0267   18.6818 H   0  0  0  0  0  0
  -26.5345  -22.9995   21.2201 H   0  0  0  0  0  0
  -25.8225  -23.2229   19.6537 H   0  0  0  0  0  0
  -25.3375  -19.0695   19.8675 H   0  0  0  0  0  0
  -26.4291  -18.8934   21.1479 H   0  0  0  0  0  0
  1 25  1  0  0  0
  1 30  2  0  0  0
  1 88  1  0  0  0
  2  3  1  0  0  0
  2 25  1  0  0  0
  2 90  1  0  0  0
  2 91  1  0  0  0
  3  4  1  0  0  0
  3 92  1  0  0  0
  3 93  1  0  0  0
  4  5  1  0  0  0
  4 94  1  0  0  0
  4 95  1  0  0  0
  5  6  1  0  0  0
  5 26  1  0  0  0
  5 96  1  0  0  0
  6 25  1  0  0  0
  6 97  1  0  0  0
  6 98  1  0  0  0
  7  8  2  0  0  0
  7 26  1  0  0  0
  7 29  1  0  0  0
  8  9  1  0  0  0
  8 22  1  0  0  0
  9 10  1  0  0  0
  9 27  2  0  0  0
 10 11  2  0  0  0
 10 15  1  0  0  0
 11 12  1  0  0  0
 11 99  1  0  0  0
 12 13  2  0  0  0
 12100  1  0  0  0
 13 14  1  0  0  0
 13 31  1  0  0  0
 14 15  2  0  0  0
 14101  1  0  0  0
 15102  1  0  0  0
 16 17  2  0  0  0
 16 21  1  0  0  0
 16 31  1  0  0  0
 17 18  1  0  0  0
 17103  1  0  0  0
 18 19  2  0  0  0
 18104  1  0  0  0
 19 20  1  0  0  0
 19 24  1  0  0  0
 20 21  2  0  0  0
 20105  1  0  0  0
 21 23  1  0  0  0
 22 28  1  0  0  0
 22 32  2  0  0  0
 26 27  1  0  0  0
 28106  1  0  0  0
 28107  1  0  0  0
 29108  1  0  0  0
 29109  1  0  0  0
 33 34  1  0  0  0
 33 66  1  0  0  0
 33 70  2  0  0  0
 34 36  1  0  0  0
 34 59  1  0  0  0
 34110  1  0  0  0
 35 44  2  0  0  0
 35 45  1  0  0  0
 35 68  1  0  0  0
 36 56  1  0  0  0
 36111  1  0  0  0
 37 39  1  0  0  0
 37 47  1  0  0  0
 37 66  1  0  0  0
 37112  1  0  0  0
 38 43  2  0  0  0
 38 46  1  0  0  0
 38 47  1  0  0  0
 39 64  1  0  0  0
 39 67  2  0  0  0
 40 52  1  0  0  0
 40 53  2  0  0  0
 40 58  1  0  0  0
 41113  1  0  0  0
 41114  1  0  0  0
 41115  1  0  0  0
 41 48  1  0  0  0
 42 43  1  0  0  0
 42 66  1  0  0  0
 42116  1  0  0  0
 42117  1  0  0  0
 43 44  1  0  0  0
 44118  1  0  0  0
 45 46  2  0  0  0
 45119  1  0  0  0
 46120  1  0  0  0
 47121  1  0  0  0
 47122  1  0  0  0
 48 56  1  0  0  0
 48 65  1  0  0  0
 48123  1  0  0  0
 49 50  1  0  0  0
 49 53  1  0  0  0
 49 64  1  0  0  0
 49124  1  0  0  0
 50 51  1  0  0  0
 50125  1  0  0  0
 50126  1  0  0  0
 51 52  1  0  0  0
 51127  1  0  0  0
 51128  1  0  0  0
 52129  1  0  0  0
 52130  1  0  0  0
 53 54  1  0  0  0
 54 55  2  0  0  0
 54131  1  0  0  0
 55 57  1  0  0  0
 55132  1  0  0  0
 56 69  2  0  0  0
 57 58  2  0  0  0
 57133  1  0  0  0
 58134  1  0  0  0
 59 60  1  0  0  0
 59 61  1  0  0  0
 59 62  1  0  0  0
 60135  1  0  0  0
 60136  1  0  0  0
 60137  1  0  0  0
 61138  1  0  0  0
 61139  1  0  0  0
 61140  1  0  0  0
 62141  1  0  0  0
 62142  1  0  0  0
 62143  1  0  0  0
 63 65  1  0  0  0
 63144  1  0  0  0
 63145  1  0  0  0
 63146  1  0  0  0
 64147  1  0  0  0
 65148  1  0  0  0
 68 86  1  0  0  0
 71 72  2  0  0  0
 71 73  1  0  0  0
 71149  1  0  0  0
 72 76  1  0  0  0
 72 81  1  0  0  0
 73 74  2  0  0  0
 73 82  1  0  0  0
 74 75  1  0  0  0
 74 83  1  0  0  0
 75 76  2  0  0  0
 75 84  1  0  0  0
 76 89  1  0  0  0
 77 79  1  0  0  0
 77 81  1  0  0  0
 77150  1  0  0  0
 77151  1  0  0  0
 78 80  1  0  0  0
 78 81  1  0  0  0
 78152  1  0  0  0
 78153  1  0  0  0
 79 88  1  0  0  0
 79154  1  0  0  0
 79155  1  0  0  0
 80 88  1  0  0  0
 80156  1  0  0  0
 80157  1  0  0  0
 81158  1  0  0  0
 82159  1  0  0  0
 82160  1  0  0  0
 82161  1  0  0  0
 83162  1  0  0  0
 83163  1  0  0  0
 83164  1  0  0  0
 84165  1  0  0  0
 84166  1  0  0  0
 84167  1  0  0  0
 85 86  1  0  0  0
 85 87  1  0  0  0
 85168  1  0  0  0
 85169  1  0  0  0
 86170  1  0  0  0
 86171  1  0  0  0
 87 89  1  0  0  0
 87172  1  0  0  0
 87173  1  0  0  0
M  ISO  4   1 100  68 101  86 101  88 100
M  END
> <chiral flag>
0

> <version>
0

> <s_m_source_file>
/data/baiqing/PycharmProjects/Reinvent-master-3.2/result/LINK_invent/BTK/process_docking_weight1_custom_sum_contain_oxygen_bond_distance_aromatic_linkinvent_7_9_3/rearranged_h_0153.sdf

> <i_m_source_file_index>
8

> <r_mmod_Potential_Energy-OPLS-2005>
22354.07421875

> <r_mmod_Stretch_Energy-OPLS-2005>
14186.0048828125

> <r_mmod_Bend_Energy-OPLS-2005>
1465.06127929688

> <r_mmod_Torsional_Energy-OPLS-2005>
571.534851074219

> <r_mmod_Improper_Torsional_Energy-OPLS-2005>
48.358699798584

> <r_mmod_Van_der_Waal_Energy-OPLS-2005>
4622.5361328125

> <r_mmod_Electrostatic_Energy-OPLS-2005>
-318.431793212891

> <r_mmod_Solvation_Energy-OPLS-2005>
-189.342849731445

> <b_mmod_Minimization_Converged-OPLS-2005>
0

> <r_mmod_RMS_Derivative-OPLS-2005>
15.8888988494873

$$$$
8
                    3D
 Structure written by MMmdl.
170179  0  0  1  0            999 V2000
  -30.6982  -14.4596   20.5918 C   0  0  0  0  0  0
  -30.4284  -12.3099   19.4101 C   0  0  0  0  0  0
  -29.4973  -12.5225   18.1972 C   0  0  0  0  0  0
  -28.0127  -12.3893   18.6001 C   0  0  0  0  0  0
  -27.6643  -13.1985   19.8781 C   0  0  2  0  0  0
  -28.7061  -12.9059   20.9777 C   0  0  0  0  0  0
  -25.2617  -13.8147   20.5645 C   0  0  0  0  0  0
  -24.1853  -13.0442   20.9158 C   0  0  0  0  0  0
  -24.6388  -11.6896   20.8714 C   0  0  0  0  0  0
  -23.9047  -10.4292   21.0397 C   0  0  0  0  0  0
  -24.3603   -9.4216   21.9185 C   0  0  0  0  0  0
  -23.6287   -8.2242   22.0759 C   0  0  0  0  0  0
  -22.4271   -8.0277   21.3545 C   0  0  0  0  0  0
  -21.9901   -9.0241   20.4641 C   0  0  0  0  0  0
  -22.7223  -10.2123   20.3047 C   0  0  0  0  0  0
  -21.6849   -6.0731   22.5277 C   0  0  0  0  0  0
  -21.4001   -6.5635   23.8209 C   0  0  0  0  0  0
  -21.3655   -5.6785   24.9168 C   0  0  0  0  0  0
  -21.6051   -4.3050   24.7217 C   0  0  0  0  0  0
  -21.8823   -3.8143   23.4338 C   0  0  0  0  0  0
  -21.9197   -4.6959   22.3398 C   0  0  0  0  0  0
  -22.7884  -13.5255   21.1833 C   0  0  0  0  0  0
  -22.1672   -4.2146   21.0976 F   0  0  0  0  0  0
  -21.5632   -3.4527   25.7726 F   0  0  0  0  0  0
  -30.0261  -13.2784   20.4454 N   0  0  0  0  0  0
  -26.3035  -12.9294   20.3346 N   0  0  0  0  0  0
  -25.9303  -11.6457   20.5715 N   0  0  0  0  0  0
  -22.0505  -12.8244   22.0377 N   0  0  0  0  0  0
  -25.4381  -15.1850   20.4025 N   0  0  0  0  0  0
  -31.8381  -14.6033   20.1350 O   0  0  0  0  0  0
  -21.6644   -6.8868   21.4235 O   0  0  0  0  0  0
  -22.3573  -14.5565   20.6692 O   0  0  0  0  0  0
  -24.6129  -31.8664   23.2101 C   0  0  0  0  0  0
  -25.9021  -32.4812   23.8392 C   0  0  1  0  0  0
  -27.2417  -27.4440   20.0778 C   0  0  0  0  0  0
  -25.5874  -33.8609   24.2308 N   0  0  0  0  0  0
  -23.4002  -30.4897   21.5505 C   0  0  2  0  0  0
  -24.8459  -28.9560   20.1163 C   0  0  0  0  0  0
  -22.7398  -29.4644   22.4997 C   0  0  0  0  0  0
  -18.0257  -28.1367   22.8497 C   0  0  0  0  0  0
  -24.1467  -36.7303   23.2648 C   0  0  0  0  0  0
  -25.9290  -30.8319   21.3634 C   0  0  0  0  0  0
  -26.0046  -29.4661   20.7130 C   0  0  0  0  0  0
  -27.2009  -28.7140   20.6974 C   0  0  0  0  0  0
  -26.0550  -26.9426   19.4883 C   0  0  0  0  0  0
  -24.8649  -27.6911   19.5053 C   0  0  0  0  0  0
  -23.6068  -29.8197   20.1659 C   0  0  0  0  0  0
  -25.4091  -36.3100   24.0340 C   0  0  1  0  0  0
  -20.5852  -28.3637   23.1330 C   0  0  2  0  0  0
  -20.6745  -26.9377   22.5427 C   0  0  0  0  0  0
  -19.5727  -26.6368   21.5221 C   0  0  0  0  0  0
  -18.1899  -26.7916   22.1621 C   0  0  0  0  0  0
  -19.1511  -28.8821   23.2909 C   0  0  0  0  0  0
  -18.9447  -30.1432   23.8908 C   0  0  0  0  0  0
  -17.6452  -30.6581   24.0568 C   0  0  0  0  0  0
  -25.9028  -34.9469   23.5123 C   0  0  0  0  0  0
  -16.5340  -29.9087   23.6335 C   0  0  0  0  0  0
  -16.7251  -28.6502   23.0347 C   0  0  0  0  0  0
  -26.4447  -31.6594   25.0722 C   0  0  0  0  0  0
  -25.3722  -31.3689   26.1472 C   0  0  0  0  0  0
  -27.0302  -30.3051   24.6092 C   0  0  0  0  0  0
  -27.6001  -32.4325   25.7502 C   0  0  0  0  0  0
  -27.5559  -37.1801   24.8462 C   0  0  0  0  0  0
  -21.4129  -29.3006   22.3743 N   0  0  0  0  0  0
  -26.4267  -37.3793   23.9424 N   0  0  0  0  0  0
  -24.6655  -31.0770   22.0995 N   0  0  0  0  0  0
  -23.4181  -28.8191   23.3031 O   0  0  0  0  0  0
  -28.4375  -26.7493   20.0705 O   0  0  0  0  0  0
  -26.5603  -34.8926   22.4693 O   0  0  0  0  0  0
  -23.5322  -32.1408   23.7503 O   0  0  0  0  0  0
  -31.3587  -21.7573   21.7653 C   0  0  0  0  0  0
  -29.6380  -20.4627   20.6838 C   0  0  0  0  0  0
  -31.8255  -20.5613   22.3339 C   0  0  0  0  0  0
  -30.2476  -21.7157   20.8957 C   0  0  0  0  0  0
  -30.1555  -19.3123   21.3165 C   0  0  0  0  0  0
  -29.1120  -15.7480   22.0799 C   0  0  0  0  0  0
  -29.4881  -17.9392   21.1508 C   0  0  2  0  0  0
  -29.1684  -17.2276   22.4692 C   0  0  1  0  0  0
  -30.3250  -16.9035   20.3734 C   0  0  2  0  0  0
  -27.8944  -17.7168   23.1742 C   0  0  0  0  0  0
  -28.5706  -16.5255   17.1177 C   0  0  0  0  0  0
  -30.1171  -16.9813   18.8465 C   0  0  0  0  0  0
  -29.9659  -25.0231   19.2310 C   0  0  0  0  0  0
  -28.5211  -25.5489   19.2961 C   0  0  0  0  0  0
  -30.3863  -24.0764   20.3705 C   0  0  0  0  0  0
  -31.2514  -19.3632   22.1055 N   0  0  0  0  0  0
  -29.9691  -15.5678   20.9035 N   0  0  0  0  0  0
  -29.7210  -22.8157   20.2426 O   0  0  0  0  0  0
  -28.8158  -16.5112   18.5161 O   0  0  0  0  0  0
  -31.4716  -12.4169   19.1077 H   0  0  0  0  0  0
  -30.3439  -11.2889   19.7846 H   0  0  0  0  0  0
  -29.7366  -11.8080   17.4082 H   0  0  0  0  0  0
  -29.6714  -13.5131   17.7731 H   0  0  0  0  0  0
  -27.8049  -11.3309   18.7636 H   0  0  0  0  0  0
  -27.3714  -12.6986   17.7746 H   0  0  0  0  0  0
  -27.7233  -14.2553   19.6184 H   0  0  0  0  0  0
  -28.6970  -11.8391   21.2048 H   0  0  0  0  0  0
  -28.4568  -13.3595   21.9303 H   0  0  0  0  0  0
  -25.2739   -9.5701   22.4767 H   0  0  0  0  0  0
  -24.0000   -7.4634   22.7472 H   0  0  0  0  0  0
  -21.0839   -8.8738   19.8937 H   0  0  0  0  0  0
  -22.3680  -10.9651   19.6149 H   0  0  0  0  0  0
  -21.1978   -7.6143   23.9711 H   0  0  0  0  0  0
  -21.1476   -6.0511   25.9073 H   0  0  0  0  0  0
  -22.0608   -2.7604   23.2826 H   0  0  0  0  0  0
  -22.4094  -11.9889   22.4760 H   0  0  0  0  0  0
  -21.1123  -13.1280   22.2561 H   0  0  0  0  0  0
  -24.6735  -15.8431   20.4994 H   0  0  0  0  0  0
  -26.2924  -15.6121   20.0665 H   0  0  0  0  0  0
  -26.7093  -32.5519   23.1157 H   0  0  0  0  0  0
  -24.9988  -33.9770   25.0432 H   0  0  0  0  0  0
  -22.6889  -31.3059   21.4106 H   0  0  0  0  0  0
  -23.3728  -35.9636   23.3312 H   0  0  0  0  0  0
  -24.3559  -36.8921   22.2063 H   0  0  0  0  0  0
  -23.7214  -37.6501   23.6672 H   0  0  0  0  0  0
  -26.0385  -31.5952   20.5919 H   0  0  0  0  0  0
  -26.8186  -30.8860   21.9793 H   0  0  0  0  0  0
  -28.0978  -29.1095   21.1535 H   0  0  0  0  0  0
  -26.0244  -25.9767   19.0066 H   0  0  0  0  0  0
  -23.9734  -27.2904   19.0422 H   0  0  0  0  0  0
  -23.7103  -30.5909   19.4015 H   0  0  0  0  0  0
  -22.7334  -29.2326   19.8757 H   0  0  0  0  0  0
  -25.1271  -36.1946   25.0831 H   0  0  0  0  0  0
  -20.9933  -28.3183   24.1454 H   0  0  0  0  0  0
  -20.5633  -26.2244   23.3608 H   0  0  0  0  0  0
  -21.6613  -26.7412   22.1219 H   0  0  0  0  0  0
  -19.6882  -25.6282   21.1234 H   0  0  0  0  0  0
  -19.6681  -27.3195   20.6769 H   0  0  0  0  0  0
  -17.4183  -26.6687   21.4005 H   0  0  0  0  0  0
  -18.0278  -26.0047   22.8996 H   0  0  0  0  0  0
  -19.7930  -30.7241   24.2267 H   0  0  0  0  0  0
  -17.5017  -31.6266   24.5162 H   0  0  0  0  0  0
  -15.5341  -30.3000   23.7657 H   0  0  0  0  0  0
  -15.8643  -28.0847   22.7038 H   0  0  0  0  0  0
  -24.5881  -30.7052   25.7813 H   0  0  0  0  0  0
  -24.8924  -32.2843   26.4951 H   0  0  0  0  0  0
  -25.8075  -30.8836   27.0220 H   0  0  0  0  0  0
  -26.2860  -29.6799   24.1146 H   0  0  0  0  0  0
  -27.4088  -29.7289   25.4544 H   0  0  0  0  0  0
  -27.8674  -30.4390   23.9240 H   0  0  0  0  0  0
  -27.2589  -33.3609   26.2105 H   0  0  0  0  0  0
  -28.3812  -32.6922   25.0344 H   0  0  0  0  0  0
  -28.0672  -31.8439   26.5410 H   0  0  0  0  0  0
  -28.2571  -38.0105   24.7524 H   0  0  0  0  0  0
  -28.1054  -36.2634   24.6264 H   0  0  0  0  0  0
  -27.2290  -37.1407   25.8868 H   0  0  0  0  0  0
  -20.9280  -29.8733   21.6981 H   0  0  0  0  0  0
  -26.0138  -38.2859   24.1455 H   0  0  0  0  0  0
  -31.8742  -22.6729   22.0126 H   0  0  0  0  0  0
  -28.7724  -20.3891   20.0395 H   0  0  0  0  0  0
  -32.6813  -20.5645   22.9927 H   0  0  0  0  0  0
  -28.0891  -15.4929   21.8016 H   0  0  0  0  0  0
  -29.4167  -15.1159   22.9165 H   0  0  0  0  0  0
  -28.5447  -18.0820   20.6203 H   0  0  0  0  0  0
  -30.0119  -17.3401   23.1521 H   0  0  0  0  0  0
  -31.3777  -17.0832   20.5989 H   0  0  0  0  0  0
  -27.0125  -17.5878   22.5452 H   0  0  0  0  0  0
  -27.9700  -18.7744   23.4271 H   0  0  0  0  0  0
  -27.7261  -17.1666   24.1008 H   0  0  0  0  0  0
  -27.5683  -16.1480   16.9139 H   0  0  0  0  0  0
  -29.2800  -15.8918   16.5829 H   0  0  0  0  0  0
  -28.6354  -17.5366   16.7130 H   0  0  0  0  0  0
  -30.8673  -16.3800   18.3303 H   0  0  0  0  0  0
  -30.2458  -18.0087   18.5021 H   0  0  0  0  0  0
  -30.6506  -25.8710   19.1874 H   0  0  0  0  0  0
  -30.1044  -24.4897   18.2901 H   0  0  0  0  0  0
  -27.8589  -24.7788   19.6934 H   0  0  0  0  0  0
  -28.1991  -25.7640   18.2756 H   0  0  0  0  0  0
  -30.1809  -24.5213   21.3453 H   0  0  0  0  0  0
  -31.4661  -23.9456   20.2870 H   0  0  0  0  0  0
  1 25  1  0  0  0
  1 30  2  0  0  0
  1 87  1  0  0  0
  2  3  1  0  0  0
  2 25  1  0  0  0
  2 90  1  0  0  0
  2 91  1  0  0  0
  3  4  1  0  0  0
  3 92  1  0  0  0
  3 93  1  0  0  0
  4  5  1  0  0  0
  4 94  1  0  0  0
  4 95  1  0  0  0
  5  6  1  0  0  0
  5 26  1  0  0  0
  5 96  1  0  0  0
  6 25  1  0  0  0
  6 97  1  0  0  0
  6 98  1  0  0  0
  7  8  2  0  0  0
  7 26  1  0  0  0
  7 29  1  0  0  0
  8  9  1  0  0  0
  8 22  1  0  0  0
  9 10  1  0  0  0
  9 27  2  0  0  0
 10 11  2  0  0  0
 10 15  1  0  0  0
 11 12  1  0  0  0
 11 99  1  0  0  0
 12 13  2  0  0  0
 12100  1  0  0  0
 13 14  1  0  0  0
 13 31  1  0  0  0
 14 15  2  0  0  0
 14101  1  0  0  0
 15102  1  0  0  0
 16 17  2  0  0  0
 16 21  1  0  0  0
 16 31  1  0  0  0
 17 18  1  0  0  0
 17103  1  0  0  0
 18 19  2  0  0  0
 18104  1  0  0  0
 19 20  1  0  0  0
 19 24  1  0  0  0
 20 21  2  0  0  0
 20105  1  0  0  0
 21 23  1  0  0  0
 22 28  1  0  0  0
 22 32  2  0  0  0
 26 27  1  0  0  0
 28106  1  0  0  0
 28107  1  0  0  0
 29108  1  0  0  0
 29109  1  0  0  0
 33 34  1  0  0  0
 33 66  1  0  0  0
 33 70  2  0  0  0
 34 36  1  0  0  0
 34 59  1  0  0  0
 34110  1  0  0  0
 35 44  2  0  0  0
 35 45  1  0  0  0
 35 68  1  0  0  0
 36 56  1  0  0  0
 36111  1  0  0  0
 37 39  1  0  0  0
 37 47  1  0  0  0
 37 66  1  0  0  0
 37112  1  0  0  0
 38 43  2  0  0  0
 38 46  1  0  0  0
 38 47  1  0  0  0
 39 64  1  0  0  0
 39 67  2  0  0  0
 40 52  1  0  0  0
 40 53  2  0  0  0
 40 58  1  0  0  0
 41113  1  0  0  0
 41114  1  0  0  0
 41115  1  0  0  0
 41 48  1  0  0  0
 42 43  1  0  0  0
 42 66  1  0  0  0
 42116  1  0  0  0
 42117  1  0  0  0
 43 44  1  0  0  0
 44118  1  0  0  0
 45 46  2  0  0  0
 45119  1  0  0  0
 46120  1  0  0  0
 47121  1  0  0  0
 47122  1  0  0  0
 48 56  1  0  0  0
 48 65  1  0  0  0
 48123  1  0  0  0
 49 50  1  0  0  0
 49 53  1  0  0  0
 49 64  1  0  0  0
 49124  1  0  0  0
 50 51  1  0  0  0
 50125  1  0  0  0
 50126  1  0  0  0
 51 52  1  0  0  0
 51127  1  0  0  0
 51128  1  0  0  0
 52129  1  0  0  0
 52130  1  0  0  0
 53 54  1  0  0  0
 54 55  2  0  0  0
 54131  1  0  0  0
 55 57  1  0  0  0
 55132  1  0  0  0
 56 69  2  0  0  0
 57 58  2  0  0  0
 57133  1  0  0  0
 58134  1  0  0  0
 59 60  1  0  0  0
 59 61  1  0  0  0
 59 62  1  0  0  0
 60135  1  0  0  0
 60136  1  0  0  0
 60137  1  0  0  0
 61138  1  0  0  0
 61139  1  0  0  0
 61140  1  0  0  0
 62141  1  0  0  0
 62142  1  0  0  0
 62143  1  0  0  0
 63 65  1  0  0  0
 63144  1  0  0  0
 63145  1  0  0  0
 63146  1  0  0  0
 64147  1  0  0  0
 65148  1  0  0  0
 68 84  1  0  0  0
 71 73  2  0  0  0
 71 74  1  0  0  0
 71149  1  0  0  0
 72 74  2  0  0  0
 72 75  1  0  0  0
 72150  1  0  0  0
 73 86  1  0  0  0
 73151  1  0  0  0
 74 88  1  0  0  0
 75 86  2  0  0  0
 75 77  1  0  0  0
 76 78  1  0  0  0
 76 87  1  0  0  0
 76152  1  0  0  0
 76153  1  0  0  0
 77 78  1  0  0  0
 77 79  1  0  0  0
 77154  1  0  0  0
 78 80  1  0  0  0
 78155  1  0  0  0
 79 82  1  0  0  0
 79 87  1  0  0  0
 79156  1  0  0  0
 80157  1  0  0  0
 80158  1  0  0  0
 80159  1  0  0  0
 81 89  1  0  0  0
 81160  1  0  0  0
 81161  1  0  0  0
 81162  1  0  0  0
 82 89  1  0  0  0
 82163  1  0  0  0
 82164  1  0  0  0
 83 84  1  0  0  0
 83 85  1  0  0  0
 83165  1  0  0  0
 83166  1  0  0  0
 84167  1  0  0  0
 84168  1  0  0  0
 85 88  1  0  0  0
 85169  1  0  0  0
 85170  1  0  0  0
M  ISO  4   1 100  68 101  84 101  87 100
M  END
> <chiral flag>
0

> <version>
0

> <s_m_source_file>
/data/baiqing/PycharmProjects/Reinvent-master-3.2/result/LINK_invent/BTK/process_docking_weight1_custom_sum_contain_oxygen_bond_distance_aromatic_linkinvent_7_9_3/rearranged_h_0153.sdf

> <i_m_source_file_index>
9

> <r_mmod_Potential_Energy-OPLS-2005>
-32.7765045166016

> <r_mmod_Stretch_Energy-OPLS-2005>
39.1305084228516

> <r_mmod_Bend_Energy-OPLS-2005>
133.555679321289

> <r_mmod_Torsional_Energy-OPLS-2005>
314.209991455078

> <r_mmod_Improper_Torsional_Energy-OPLS-2005>
11.3334283828735

> <r_mmod_Van_der_Waal_Energy-OPLS-2005>
155.789733886719

> <r_mmod_Electrostatic_Energy-OPLS-2005>
-493.883758544922

> <r_mmod_Solvation_Energy-OPLS-2005>
-205.146484375

> <b_mmod_Minimization_Converged-OPLS-2005>
0

> <r_mmod_RMS_Derivative-OPLS-2005>
1.48549699783325

$$$$
9
                    3D
 Structure written by MMmdl.
158167  0  0  1  0            999 V2000
  -30.7020  -14.5389   20.3558 C   0  0  0  0  0  0
  -30.4222  -12.2838   19.4556 C   0  0  0  0  0  0
  -29.4889  -12.3350   18.2241 C   0  0  0  0  0  0
  -28.0092  -12.2777   18.6465 C   0  0  0  0  0  0
  -27.6493  -13.2056   19.8394 C   0  0  2  0  0  0
  -28.7034  -13.1226   20.9669 C   0  0  0  0  0  0
  -25.2602  -13.8171   20.5708 C   0  0  0  0  0  0
  -24.1843  -13.0462   20.9215 C   0  0  0  0  0  0
  -24.6384  -11.6925   20.8787 C   0  0  0  0  0  0
  -23.9049  -10.4308   21.0444 C   0  0  0  0  0  0
  -24.3605   -9.4214   21.9204 C   0  0  0  0  0  0
  -23.6295   -8.2239   22.0753 C   0  0  0  0  0  0
  -22.4283   -8.0268   21.3532 C   0  0  0  0  0  0
  -21.9915   -9.0258   20.4646 C   0  0  0  0  0  0
  -22.7233  -10.2152   20.3073 C   0  0  0  0  0  0
  -21.6863   -6.0736   22.5275 C   0  0  0  0  0  0
  -21.4010   -6.5637   23.8207 C   0  0  0  0  0  0
  -21.3671   -5.6786   24.9167 C   0  0  0  0  0  0
  -21.6050   -4.3051   24.7224 C   0  0  0  0  0  0
  -21.8813   -3.8143   23.4349 C   0  0  0  0  0  0
  -21.9193   -4.6960   22.3404 C   0  0  0  0  0  0
  -22.7860  -13.5265   21.1857 C   0  0  0  0  0  0
  -22.1657   -4.2139   21.0984 F   0  0  0  0  0  0
  -21.5648   -3.4530   25.7740 F   0  0  0  0  0  0
  -30.0255  -13.3588   20.3746 N   0  0  0  0  0  0
  -26.2995  -12.9329   20.3301 N   0  0  0  0  0  0
  -25.9304  -11.6512   20.5830 N   0  0  0  0  0  0
  -22.0480  -12.8262   22.0399 N   0  0  0  0  0  0
  -25.4376  -15.1882   20.4126 N   0  0  0  0  0  0
  -31.9320  -14.6000   20.3158 O   0  0  0  0  0  0
  -21.6642   -6.8871   21.4236 O   0  0  0  0  0  0
  -22.3549  -14.5571   20.6698 O   0  0  0  0  0  0
  -24.6193  -31.8677   23.2137 C   0  0  0  0  0  0
  -25.9076  -32.4822   23.8412 C   0  0  1  0  0  0
  -27.2127  -27.3969   20.0978 C   0  0  0  0  0  0
  -25.5934  -33.8622   24.2331 N   0  0  0  0  0  0
  -23.4070  -30.4970   21.5560 C   0  0  2  0  0  0
  -24.8471  -28.9728   20.1097 C   0  0  0  0  0  0
  -22.7440  -29.4655   22.4987 C   0  0  0  0  0  0
  -18.0281  -28.1382   22.8492 C   0  0  0  0  0  0
  -24.1500  -36.7311   23.2627 C   0  0  0  0  0  0
  -25.9432  -30.8165   21.3801 C   0  0  0  0  0  0
  -26.0120  -29.4538   20.7192 C   0  0  0  0  0  0
  -27.1951  -28.6723   20.7159 C   0  0  0  0  0  0
  -26.0264  -26.9636   19.4478 C   0  0  0  0  0  0
  -24.8504  -27.7263   19.4704 C   0  0  0  0  0  0
  -23.6156  -29.8458   20.1659 C   0  0  0  0  0  0
  -25.4118  -36.3109   24.0336 C   0  0  1  0  0  0
  -20.5877  -28.3667   23.1321 C   0  0  2  0  0  0
  -20.6785  -26.9402   22.5416 C   0  0  0  0  0  0
  -19.5759  -26.6383   21.5221 C   0  0  0  0  0  0
  -18.1933  -26.7935   22.1624 C   0  0  0  0  0  0
  -19.1531  -28.8845   23.2900 C   0  0  0  0  0  0
  -18.9453  -30.1453   23.8899 C   0  0  0  0  0  0
  -17.6453  -30.6583   24.0574 C   0  0  0  0  0  0
  -25.9042  -34.9477   23.5123 C   0  0  0  0  0  0
  -16.5343  -29.9079   23.6337 C   0  0  0  0  0  0
  -16.7269  -28.6503   23.0343 C   0  0  0  0  0  0
  -26.4491  -31.6611   25.0748 C   0  0  0  0  0  0
  -25.3755  -31.3746   26.1499 C   0  0  0  0  0  0
  -27.0300  -30.3038   24.6151 C   0  0  0  0  0  0
  -27.6066  -32.4333   25.7499 C   0  0  0  0  0  0
  -27.5589  -37.1813   24.8460 C   0  0  0  0  0  0
  -21.4162  -29.3034   22.3728 N   0  0  0  0  0  0
  -26.4303  -37.3797   23.9400 N   0  0  0  0  0  0
  -24.6747  -31.0745   22.1071 N   0  0  0  0  0  0
  -23.4201  -28.8173   23.3025 O   0  0  0  0  0  0
  -28.3477  -26.5943   20.1648 O   0  0  0  0  0  0
  -26.5574  -34.8926   22.4662 O   0  0  0  0  0  0
  -23.5380  -32.1455   23.7505 O   0  0  0  0  0  0
  -29.7973  -19.1703   19.7623 C   0  0  0  0  0  0
  -28.4328  -20.4267   18.2318 C   0  0  0  0  0  0
  -29.7301  -18.0571   18.8744 C   0  0  0  0  0  0
  -29.1974  -20.4152   19.4222 C   0  0  0  0  0  0
  -29.0614  -18.2862   17.6367 C   0  0  0  0  0  0
  -30.1690  -15.5790   18.3197 C   0  0  0  0  0  0
  -30.5336  -16.7686   19.1424 C   0  0  2  0  0  0
  -28.4606  -17.6261   15.3743 C   0  0  0  0  0  0
  -29.1224  -24.1268   20.3891 C   0  0  0  0  0  0
  -28.1526  -25.1999   19.8276 C   0  0  0  0  0  0
  -28.8159  -22.7792   19.6814 C   0  0  0  0  0  0
  -28.3761  -19.4094   17.3657 N   0  0  0  0  0  0
  -30.0073  -15.5265   19.7319 N   0  0  0  0  0  0
  -29.3895  -21.5596   20.1997 O   0  0  0  0  0  0
  -29.1647  -17.3894   16.5929 O   0  0  0  0  0  0
  -31.4646  -12.3685   19.1424 H   0  0  0  0  0  0
  -30.3317  -11.3201   19.9597 H   0  0  0  0  0  0
  -29.7068  -11.4848   17.5762 H   0  0  0  0  0  0
  -29.6690  -13.2050   17.6031 H   0  0  0  0  0  0
  -27.8141  -11.2416   18.9259 H   0  0  0  0  0  0
  -27.3604  -12.4804   17.7936 H   0  0  0  0  0  0
  -27.6521  -14.2235   19.4505 H   0  0  0  0  0  0
  -28.6807  -12.1451   21.4515 H   0  0  0  0  0  0
  -28.4943  -13.8651   21.7387 H   0  0  0  0  0  0
  -25.2742   -9.5705   22.4783 H   0  0  0  0  0  0
  -24.0013   -7.4636   22.7474 H   0  0  0  0  0  0
  -21.0844   -8.8780   19.8961 H   0  0  0  0  0  0
  -22.3679  -10.9697   19.6192 H   0  0  0  0  0  0
  -21.1979   -7.6138   23.9707 H   0  0  0  0  0  0
  -21.1510   -6.0519   25.9078 H   0  0  0  0  0  0
  -22.0586   -2.7601   23.2849 H   0  0  0  0  0  0
  -22.4074  -11.9936   22.4828 H   0  0  0  0  0  0
  -21.1099  -13.1312   22.2587 H   0  0  0  0  0  0
  -24.6821  -15.8541   20.5306 H   0  0  0  0  0  0
  -26.3086  -15.6213   20.1304 H   0  0  0  0  0  0
  -26.7133  -32.5503   23.1156 H   0  0  0  0  0  0
  -25.0181  -33.9796   25.0542 H   0  0  0  0  0  0
  -22.6968  -31.3158   21.4251 H   0  0  0  0  0  0
  -23.3766  -35.9641   23.3302 H   0  0  0  0  0  0
  -24.3604  -36.8898   22.2037 H   0  0  0  0  0  0
  -23.7247  -37.6524   23.6624 H   0  0  0  0  0  0
  -26.0711  -31.5836   20.6160 H   0  0  0  0  0  0
  -26.8265  -30.8566   22.0055 H   0  0  0  0  0  0
  -28.0851  -29.0296   21.2146 H   0  0  0  0  0  0
  -25.9638  -26.0280   18.9128 H   0  0  0  0  0  0
  -23.9594  -27.3559   18.9806 H   0  0  0  0  0  0
  -23.7345  -30.6293   19.4162 H   0  0  0  0  0  0
  -22.7360  -29.2774   19.8601 H   0  0  0  0  0  0
  -25.1300  -36.1987   25.0834 H   0  0  0  0  0  0
  -20.9971  -28.3228   24.1442 H   0  0  0  0  0  0
  -20.5724  -26.2263   23.3595 H   0  0  0  0  0  0
  -21.6652  -26.7464   22.1182 H   0  0  0  0  0  0
  -19.6917  -25.6295   21.1237 H   0  0  0  0  0  0
  -19.6711  -27.3213   20.6767 H   0  0  0  0  0  0
  -17.4215  -26.6697   21.4008 H   0  0  0  0  0  0
  -18.0310  -26.0072   22.9010 H   0  0  0  0  0  0
  -19.7922  -30.7277   24.2266 H   0  0  0  0  0  0
  -17.4998  -31.6269   24.5160 H   0  0  0  0  0  0
  -15.5340  -30.2966   23.7675 H   0  0  0  0  0  0
  -15.8673  -28.0829   22.7033 H   0  0  0  0  0  0
  -24.5928  -30.7082   25.7855 H   0  0  0  0  0  0
  -24.8952  -32.2914   26.4931 H   0  0  0  0  0  0
  -25.8114  -30.8938   27.0263 H   0  0  0  0  0  0
  -26.2840  -29.6826   24.1177 H   0  0  0  0  0  0
  -27.4011  -29.7262   25.4624 H   0  0  0  0  0  0
  -27.8721  -30.4329   23.9348 H   0  0  0  0  0  0
  -27.2679  -33.3613   26.2120 H   0  0  0  0  0  0
  -28.3848  -32.6923   25.0306 H   0  0  0  0  0  0
  -28.0771  -31.8435   26.5377 H   0  0  0  0  0  0
  -28.2620  -38.0103   24.7511 H   0  0  0  0  0  0
  -28.1079  -36.2633   24.6296 H   0  0  0  0  0  0
  -27.2304  -37.1469   25.8865 H   0  0  0  0  0  0
  -20.9323  -29.8772   21.6960 H   0  0  0  0  0  0
  -26.0201  -38.2880   24.1404 H   0  0  0  0  0  0
  -30.3765  -19.0920   20.6711 H   0  0  0  0  0  0
  -27.8857  -21.2917   17.8930 H   0  0  0  0  0  0
  -30.9914  -15.0353   17.8541 H   0  0  0  0  0  0
  -29.2092  -15.4576   17.8238 H   0  0  0  0  0  0
  -31.5918  -16.9895   19.2843 H   0  0  0  0  0  0
  -28.6975  -16.8388   14.6592 H   0  0  0  0  0  0
  -28.7401  -18.5760   14.9154 H   0  0  0  0  0  0
  -27.3822  -17.6091   15.5333 H   0  0  0  0  0  0
  -28.9802  -24.0324   21.4658 H   0  0  0  0  0  0
  -30.1595  -24.4150   20.2242 H   0  0  0  0  0  0
  -27.1804  -24.8679   20.1955 H   0  0  0  0  0  0
  -28.1274  -25.1294   18.7389 H   0  0  0  0  0  0
  -29.1375  -22.9127   18.6472 H   0  0  0  0  0  0
  -27.7317  -22.6442   19.6715 H   0  0  0  0  0  0
  1 25  1  0  0  0
  1 30  2  0  0  0
  1 83  1  0  0  0
  2  3  1  0  0  0
  2 25  1  0  0  0
  2 86  1  0  0  0
  2 87  1  0  0  0
  3  4  1  0  0  0
  3 88  1  0  0  0
  3 89  1  0  0  0
  4  5  1  0  0  0
  4 90  1  0  0  0
  4 91  1  0  0  0
  5  6  1  0  0  0
  5 26  1  0  0  0
  5 92  1  0  0  0
  6 25  1  0  0  0
  6 93  1  0  0  0
  6 94  1  0  0  0
  7  8  2  0  0  0
  7 26  1  0  0  0
  7 29  1  0  0  0
  8  9  1  0  0  0
  8 22  1  0  0  0
  9 10  1  0  0  0
  9 27  2  0  0  0
 10 11  2  0  0  0
 10 15  1  0  0  0
 11 12  1  0  0  0
 11 95  1  0  0  0
 12 13  2  0  0  0
 12 96  1  0  0  0
 13 14  1  0  0  0
 13 31  1  0  0  0
 14 15  2  0  0  0
 14 97  1  0  0  0
 15 98  1  0  0  0
 16 17  2  0  0  0
 16 21  1  0  0  0
 16 31  1  0  0  0
 17 18  1  0  0  0
 17 99  1  0  0  0
 18 19  2  0  0  0
 18100  1  0  0  0
 19 20  1  0  0  0
 19 24  1  0  0  0
 20 21  2  0  0  0
 20101  1  0  0  0
 21 23  1  0  0  0
 22 28  1  0  0  0
 22 32  2  0  0  0
 26 27  1  0  0  0
 28102  1  0  0  0
 28103  1  0  0  0
 29104  1  0  0  0
 29105  1  0  0  0
 33 34  1  0  0  0
 33 66  1  0  0  0
 33 70  2  0  0  0
 34 36  1  0  0  0
 34 59  1  0  0  0
 34106  1  0  0  0
 35 44  2  0  0  0
 35 45  1  0  0  0
 35 68  1  0  0  0
 36 56  1  0  0  0
 36107  1  0  0  0
 37 39  1  0  0  0
 37 47  1  0  0  0
 37 66  1  0  0  0
 37108  1  0  0  0
 38 43  2  0  0  0
 38 46  1  0  0  0
 38 47  1  0  0  0
 39 64  1  0  0  0
 39 67  2  0  0  0
 40 52  1  0  0  0
 40 53  2  0  0  0
 40 58  1  0  0  0
 41109  1  0  0  0
 41110  1  0  0  0
 41111  1  0  0  0
 41 48  1  0  0  0
 42 43  1  0  0  0
 42 66  1  0  0  0
 42112  1  0  0  0
 42113  1  0  0  0
 43 44  1  0  0  0
 44114  1  0  0  0
 45 46  2  0  0  0
 45115  1  0  0  0
 46116  1  0  0  0
 47117  1  0  0  0
 47118  1  0  0  0
 48 56  1  0  0  0
 48 65  1  0  0  0
 48119  1  0  0  0
 49 50  1  0  0  0
 49 53  1  0  0  0
 49 64  1  0  0  0
 49120  1  0  0  0
 50 51  1  0  0  0
 50121  1  0  0  0
 50122  1  0  0  0
 51 52  1  0  0  0
 51123  1  0  0  0
 51124  1  0  0  0
 52125  1  0  0  0
 52126  1  0  0  0
 53 54  1  0  0  0
 54 55  2  0  0  0
 54127  1  0  0  0
 55 57  1  0  0  0
 55128  1  0  0  0
 56 69  2  0  0  0
 57 58  2  0  0  0
 57129  1  0  0  0
 58130  1  0  0  0
 59 60  1  0  0  0
 59 61  1  0  0  0
 59 62  1  0  0  0
 60131  1  0  0  0
 60132  1  0  0  0
 60133  1  0  0  0
 61134  1  0  0  0
 61135  1  0  0  0
 61136  1  0  0  0
 62137  1  0  0  0
 62138  1  0  0  0
 62139  1  0  0  0
 63 65  1  0  0  0
 63140  1  0  0  0
 63141  1  0  0  0
 63142  1  0  0  0
 64143  1  0  0  0
 65144  1  0  0  0
 68 80  1  0  0  0
 71 73  2  0  0  0
 71 74  1  0  0  0
 71145  1  0  0  0
 72 74  2  0  0  0
 72 82  1  0  0  0
 72146  1  0  0  0
 73 75  1  0  0  0
 73 77  1  0  0  0
 74 84  1  0  0  0
 75 82  2  0  0  0
 75 85  1  0  0  0
 76 77  1  0  0  0
 76 83  1  0  0  0
 76147  1  0  0  0
 76148  1  0  0  0
 77 83  1  0  0  0
 77149  1  0  0  0
 78 85  1  0  0  0
 78150  1  0  0  0
 78151  1  0  0  0
 78152  1  0  0  0
 79 80  1  0  0  0
 79 81  1  0  0  0
 79153  1  0  0  0
 79154  1  0  0  0
 80155  1  0  0  0
 80156  1  0  0  0
 81 84  1  0  0  0
 81157  1  0  0  0
 81158  1  0  0  0
M  ISO  4   1 100  68 101  80 101  83 100
M  END
> <chiral flag>
0

> <version>
0

> <s_m_source_file>
/data/baiqing/PycharmProjects/Reinvent-master-3.2/result/LINK_invent/BTK/process_docking_weight1_custom_sum_contain_oxygen_bond_distance_aromatic_linkinvent_7_9_3/rearranged_h_0153.sdf

> <i_m_source_file_index>
10

> <r_mmod_Potential_Energy-OPLS-2005>
132.787948608398

> <r_mmod_Stretch_Energy-OPLS-2005>
51.0249786376953

> <r_mmod_Bend_Energy-OPLS-2005>
150.015060424805

> <r_mmod_Torsional_Energy-OPLS-2005>
324.652618408203

> <r_mmod_Improper_Torsional_Energy-OPLS-2005>
32.0378303527832

> <r_mmod_Van_der_Waal_Energy-OPLS-2005>
198.363235473633

> <r_mmod_Electrostatic_Energy-OPLS-2005>
-461.301605224609

> <r_mmod_Solvation_Energy-OPLS-2005>
-212.028564453125

> <b_mmod_Minimization_Converged-OPLS-2005>
0

> <r_mmod_RMS_Derivative-OPLS-2005>
2.27948832511902

$$$$
10
                    3D
 Structure written by MMmdl.
170180  0  0  1  0            999 V2000
  -30.6715  -14.7294   20.4636 C   0  0  0  0  0  0
  -30.4160  -12.4570   19.4611 C   0  0  0  0  0  0
  -29.4967  -12.5034   18.2250 C   0  0  0  0  0  0
  -28.0241  -12.3378   18.6453 C   0  0  0  0  0  0
  -27.6374  -13.2374   19.8517 C   0  0  2  0  0  0
  -28.6904  -13.1730   20.9779 C   0  0  0  0  0  0
  -25.2497  -13.8214   20.5731 C   0  0  0  0  0  0
  -24.1788  -13.0448   20.9218 C   0  0  0  0  0  0
  -24.6382  -11.6923   20.8757 C   0  0  0  0  0  0
  -23.9059  -10.4296   21.0406 C   0  0  0  0  0  0
  -24.3610   -9.4206   21.9181 C   0  0  0  0  0  0
  -23.6287   -8.2237   22.0749 C   0  0  0  0  0  0
  -22.4268   -8.0276   21.3539 C   0  0  0  0  0  0
  -21.9898   -9.0251   20.4646 C   0  0  0  0  0  0
  -22.7228  -10.2131   20.3057 C   0  0  0  0  0  0
  -21.6852   -6.0728   22.5277 C   0  0  0  0  0  0
  -21.4014   -6.5634   23.8212 C   0  0  0  0  0  0
  -21.3663   -5.6789   24.9176 C   0  0  0  0  0  0
  -21.6044   -4.3050   24.7226 C   0  0  0  0  0  0
  -21.8819   -3.8139   23.4349 C   0  0  0  0  0  0
  -21.9190   -4.6956   22.3403 C   0  0  0  0  0  0
  -22.7810  -13.5227   21.1865 C   0  0  0  0  0  0
  -22.1662   -4.2139   21.0981 F   0  0  0  0  0  0
  -21.5627   -3.4536   25.7740 F   0  0  0  0  0  0
  -29.9721  -13.5437   20.3699 N   0  0  0  0  0  0
  -26.2926  -12.9426   20.3334 N   0  0  0  0  0  0
  -25.9319  -11.6560   20.5779 N   0  0  0  0  0  0
  -22.0457  -12.8225   22.0427 N   0  0  0  0  0  0
  -25.4192  -15.1940   20.4167 N   0  0  0  0  0  0
  -31.8798  -14.6918   20.2073 O   0  0  0  0  0  0
  -21.6638   -6.8868   21.4237 O   0  0  0  0  0  0
  -22.3491  -14.5523   20.6703 O   0  0  0  0  0  0
  -24.6304  -31.8565   23.2007 C   0  0  0  0  0  0
  -25.9136  -32.4760   23.8345 C   0  0  1  0  0  0
  -27.2068  -27.2695   20.1308 C   0  0  0  0  0  0
  -25.5941  -33.8561   24.2270 N   0  0  0  0  0  0
  -23.4273  -30.4811   21.5433 C   0  0  2  0  0  0
  -24.8750  -28.9356   20.1054 C   0  0  0  0  0  0
  -22.7505  -29.4611   22.4906 C   0  0  0  0  0  0
  -18.0294  -28.1390   22.8481 C   0  0  0  0  0  0
  -24.1489  -36.7283   23.2639 C   0  0  0  0  0  0
  -25.9736  -30.7714   21.3819 C   0  0  0  0  0  0
  -26.0468  -29.3962   20.7216 C   0  0  0  0  0  0
  -27.2203  -28.5744   20.7268 C   0  0  0  0  0  0
  -26.0248  -26.8904   19.4598 C   0  0  0  0  0  0
  -24.8684  -27.6903   19.4612 C   0  0  0  0  0  0
  -23.6454  -29.8207   20.1572 C   0  0  0  0  0  0
  -25.4114  -36.3073   24.0331 C   0  0  1  0  0  0
  -20.5898  -28.3703   23.1267 C   0  0  2  0  0  0
  -20.6782  -26.9419   22.5410 C   0  0  0  0  0  0
  -19.5761  -26.6384   21.5211 C   0  0  0  0  0  0
  -18.1940  -26.7934   22.1617 C   0  0  0  0  0  0
  -19.1546  -28.8863   23.2868 C   0  0  0  0  0  0
  -18.9466  -30.1461   23.8887 C   0  0  0  0  0  0
  -17.6466  -30.6589   24.0562 C   0  0  0  0  0  0
  -25.9057  -34.9444   23.5102 C   0  0  0  0  0  0
  -16.5356  -29.9086   23.6331 C   0  0  0  0  0  0
  -16.7281  -28.6505   23.0351 C   0  0  0  0  0  0
  -26.4501  -31.6578   25.0730 C   0  0  0  0  0  0
  -25.3724  -31.3747   26.1455 C   0  0  0  0  0  0
  -27.0330  -30.2984   24.6228 C   0  0  0  0  0  0
  -27.6073  -32.4303   25.7489 C   0  0  0  0  0  0
  -27.5587  -37.1791   24.8459 C   0  0  0  0  0  0
  -21.4211  -29.3045   22.3650 N   0  0  0  0  0  0
  -26.4286  -37.3776   23.9418 N   0  0  0  0  0  0
  -24.6959  -31.0539   22.0981 N   0  0  0  0  0  0
  -23.4207  -28.8151   23.3005 O   0  0  0  0  0  0
  -28.2444  -26.3142   20.1965 O   0  0  0  0  0  0
  -26.5626  -34.8917   22.4668 O   0  0  0  0  0  0
  -23.5455  -32.1384   23.7305 O   0  0  0  0  0  0
  -28.6067  -21.3189   19.5932 C   0  0  0  0  0  0
  -29.1613  -22.9604   21.7573 C   0  0  0  0  0  0
  -29.2231  -20.6790   20.7117 C   0  0  0  0  0  0
  -29.5026  -21.5657   21.8057 C   0  0  0  0  0  0
  -28.2501  -22.7165   19.5638 C   0  0  0  0  0  0
  -28.5066  -23.5907   20.6645 C   0  0  0  0  0  0
  -30.2564  -20.5567   25.1511 C   0  0  0  0  0  0
  -30.2569  -21.8731   24.3721 C   0  0  0  0  0  0
  -29.5579  -19.9398   23.9379 C   0  0  0  0  0  0
  -28.5906  -18.0642   21.2096 C   0  0  0  0  0  0
  -30.1219  -18.4806   19.4191 C   0  0  0  0  0  0
  -29.1281  -16.5752   21.4085 C   0  0  0  0  0  0
  -30.7631  -17.0523   19.6090 C   0  0  0  0  0  0
  -30.1882  -21.0460   23.0717 C   0  0  0  0  0  0
  -29.6322  -19.1226   20.7335 C   0  0  0  0  0  0
  -27.5295  -23.2570   18.3429 C   0  0  0  0  0  0
  -27.8424  -25.0326   20.8668 C   0  0  0  0  0  0
  -30.0297  -15.9809   20.3703 N   0  0  0  0  0  0
  -31.4568  -12.5571   19.1495 H   0  0  0  0  0  0
  -30.3515  -11.4866   19.9568 H   0  0  0  0  0  0
  -29.7744  -11.7217   17.5168 H   0  0  0  0  0  0
  -29.6262  -13.4527   17.7022 H   0  0  0  0  0  0
  -27.8775  -11.2892   18.9062 H   0  0  0  0  0  0
  -27.3635  -12.5340   17.8002 H   0  0  0  0  0  0
  -27.6298  -14.2608   19.4750 H   0  0  0  0  0  0
  -28.7413  -12.1680   21.3996 H   0  0  0  0  0  0
  -28.4362  -13.8249   21.8108 H   0  0  0  0  0  0
  -25.2751   -9.5687   22.4761 H   0  0  0  0  0  0
  -24.0000   -7.4625   22.7463 H   0  0  0  0  0  0
  -21.0826   -8.8767   19.8957 H   0  0  0  0  0  0
  -22.3677  -10.9668   19.6172 H   0  0  0  0  0  0
  -21.2009   -7.6143   23.9716 H   0  0  0  0  0  0
  -21.1489   -6.0517   25.9079 H   0  0  0  0  0  0
  -22.0595   -2.7601   23.2849 H   0  0  0  0  0  0
  -22.4073  -11.9899   22.4840 H   0  0  0  0  0  0
  -21.1080  -13.1253   22.2639 H   0  0  0  0  0  0
  -24.6542  -15.8487   20.5341 H   0  0  0  0  0  0
  -26.2764  -15.6349   20.1082 H   0  0  0  0  0  0
  -26.7203  -32.5411   23.1087 H   0  0  0  0  0  0
  -25.0085  -33.9699   25.0413 H   0  0  0  0  0  0
  -22.7238  -31.3036   21.4006 H   0  0  0  0  0  0
  -23.3764  -35.9601   23.3273 H   0  0  0  0  0  0
  -24.3587  -36.8931   22.2060 H   0  0  0  0  0  0
  -23.7223  -37.6470   23.6673 H   0  0  0  0  0  0
  -26.1144  -31.5338   20.6144 H   0  0  0  0  0  0
  -26.8500  -30.8171   22.0163 H   0  0  0  0  0  0
  -28.1123  -28.9130   21.2349 H   0  0  0  0  0  0
  -25.9775  -25.9363   18.9545 H   0  0  0  0  0  0
  -23.9752  -27.3374   18.9640 H   0  0  0  0  0  0
  -23.7684  -30.5993   19.4035 H   0  0  0  0  0  0
  -22.7635  -29.2547   19.8520 H   0  0  0  0  0  0
  -25.1291  -36.1921   25.0824 H   0  0  0  0  0  0
  -20.9995  -28.3280   24.1386 H   0  0  0  0  0  0
  -20.5672  -26.2316   23.3616 H   0  0  0  0  0  0
  -21.6652  -26.7434   22.1215 H   0  0  0  0  0  0
  -19.6925  -25.6291   21.1249 H   0  0  0  0  0  0
  -19.6708  -27.3182   20.6732 H   0  0  0  0  0  0
  -17.4218  -26.6680   21.4014 H   0  0  0  0  0  0
  -18.0335  -26.0074   22.9011 H   0  0  0  0  0  0
  -19.7944  -30.7276   24.2255 H   0  0  0  0  0  0
  -17.5022  -31.6269   24.5164 H   0  0  0  0  0  0
  -15.5355  -30.2982   23.7667 H   0  0  0  0  0  0
  -15.8683  -28.0821   22.7066 H   0  0  0  0  0  0
  -24.5902  -30.7088   25.7791 H   0  0  0  0  0  0
  -24.8908  -32.2921   26.4850 H   0  0  0  0  0  0
  -25.8035  -30.8949   27.0251 H   0  0  0  0  0  0
  -26.2909  -29.6739   24.1241 H   0  0  0  0  0  0
  -27.3979  -29.7246   25.4759 H   0  0  0  0  0  0
  -27.8808  -30.4234   23.9489 H   0  0  0  0  0  0
  -27.2714  -33.3625   26.2040 H   0  0  0  0  0  0
  -28.3893  -32.6819   25.0312 H   0  0  0  0  0  0
  -28.0728  -31.8435   26.5420 H   0  0  0  0  0  0
  -28.2587  -38.0106   24.7533 H   0  0  0  0  0  0
  -28.1100  -36.2641   24.6236 H   0  0  0  0  0  0
  -27.2318  -37.1388   25.8864 H   0  0  0  0  0  0
  -20.9397  -29.8763   21.6850 H   0  0  0  0  0  0
  -26.0166  -38.2846   24.1436 H   0  0  0  0  0  0
  -28.3774  -20.7114   18.7289 H   0  0  0  0  0  0
  -29.3581  -23.5747   22.6232 H   0  0  0  0  0  0
  -29.6654  -20.5615   26.0680 H   0  0  0  0  0  0
  -31.2586  -20.1558   25.3145 H   0  0  0  0  0  0
  -31.1530  -22.4848   24.4832 H   0  0  0  0  0  0
  -29.3510  -22.4476   24.5758 H   0  0  0  0  0  0
  -28.4708  -20.0197   24.0018 H   0  0  0  0  0  0
  -29.8732  -18.9231   23.7031 H   0  0  0  0  0  0
  -28.1374  -18.3923   22.1439 H   0  0  0  0  0  0
  -27.7652  -18.0476   20.4964 H   0  0  0  0  0  0
  -29.3028  -18.4234   18.7008 H   0  0  0  0  0  0
  -30.8682  -19.1320   18.9634 H   0  0  0  0  0  0
  -28.2552  -15.9388   21.5322 H   0  0  0  0  0  0
  -29.6657  -16.5307   22.3564 H   0  0  0  0  0  0
  -31.7244  -17.2053   20.1038 H   0  0  0  0  0  0
  -31.0023  -16.6611   18.6183 H   0  0  0  0  0  0
  -31.2056  -20.7601   22.7943 H   0  0  0  0  0  0
  -30.4833  -19.0539   21.4082 H   0  0  0  0  0  0
  -27.6880  -22.6183   17.4733 H   0  0  0  0  0  0
  -27.8903  -24.2548   18.0901 H   0  0  0  0  0  0
  -26.4567  -23.3175   18.5280 H   0  0  0  0  0  0
  -27.9228  -25.2546   21.9318 H   0  0  0  0  0  0
  -26.7776  -24.8440   20.7357 H   0  0  0  0  0  0
  1 25  1  0  0  0
  1 30  2  0  0  0
  1 88  1  0  0  0
  2  3  1  0  0  0
  2 25  1  0  0  0
  2 89  1  0  0  0
  2 90  1  0  0  0
  3  4  1  0  0  0
  3 91  1  0  0  0
  3 92  1  0  0  0
  4  5  1  0  0  0
  4 93  1  0  0  0
  4 94  1  0  0  0
  5  6  1  0  0  0
  5 26  1  0  0  0
  5 95  1  0  0  0
  6 25  1  0  0  0
  6 96  1  0  0  0
  6 97  1  0  0  0
  7  8  2  0  0  0
  7 26  1  0  0  0
  7 29  1  0  0  0
  8  9  1  0  0  0
  8 22  1  0  0  0
  9 10  1  0  0  0
  9 27  2  0  0  0
 10 11  2  0  0  0
 10 15  1  0  0  0
 11 12  1  0  0  0
 11 98  1  0  0  0
 12 13  2  0  0  0
 12 99  1  0  0  0
 13 14  1  0  0  0
 13 31  1  0  0  0
 14 15  2  0  0  0
 14100  1  0  0  0
 15101  1  0  0  0
 16 17  2  0  0  0
 16 21  1  0  0  0
 16 31  1  0  0  0
 17 18  1  0  0  0
 17102  1  0  0  0
 18 19  2  0  0  0
 18103  1  0  0  0
 19 20  1  0  0  0
 19 24  1  0  0  0
 20 21  2  0  0  0
 20104  1  0  0  0
 21 23  1  0  0  0
 22 28  1  0  0  0
 22 32  2  0  0  0
 26 27  1  0  0  0
 28105  1  0  0  0
 28106  1  0  0  0
 29107  1  0  0  0
 29108  1  0  0  0
 33 34  1  0  0  0
 33 66  1  0  0  0
 33 70  2  0  0  0
 34 36  1  0  0  0
 34 59  1  0  0  0
 34109  1  0  0  0
 35 44  2  0  0  0
 35 45  1  0  0  0
 35 68  1  0  0  0
 36 56  1  0  0  0
 36110  1  0  0  0
 37 39  1  0  0  0
 37 47  1  0  0  0
 37 66  1  0  0  0
 37111  1  0  0  0
 38 43  2  0  0  0
 38 46  1  0  0  0
 38 47  1  0  0  0
 39 64  1  0  0  0
 39 67  2  0  0  0
 40 52  1  0  0  0
 40 53  2  0  0  0
 40 58  1  0  0  0
 41112  1  0  0  0
 41113  1  0  0  0
 41114  1  0  0  0
 41 48  1  0  0  0
 42 43  1  0  0  0
 42 66  1  0  0  0
 42115  1  0  0  0
 42116  1  0  0  0
 43 44  1  0  0  0
 44117  1  0  0  0
 45 46  2  0  0  0
 45118  1  0  0  0
 46119  1  0  0  0
 47120  1  0  0  0
 47121  1  0  0  0
 48 56  1  0  0  0
 48 65  1  0  0  0
 48122  1  0  0  0
 49 50  1  0  0  0
 49 53  1  0  0  0
 49 64  1  0  0  0
 49123  1  0  0  0
 50 51  1  0  0  0
 50124  1  0  0  0
 50125  1  0  0  0
 51 52  1  0  0  0
 51126  1  0  0  0
 51127  1  0  0  0
 52128  1  0  0  0
 52129  1  0  0  0
 53 54  1  0  0  0
 54 55  2  0  0  0
 54130  1  0  0  0
 55 57  1  0  0  0
 55131  1  0  0  0
 56 69  2  0  0  0
 57 58  2  0  0  0
 57132  1  0  0  0
 58133  1  0  0  0
 59 60  1  0  0  0
 59 61  1  0  0  0
 59 62  1  0  0  0
 60134  1  0  0  0
 60135  1  0  0  0
 60136  1  0  0  0
 61137  1  0  0  0
 61138  1  0  0  0
 61139  1  0  0  0
 62140  1  0  0  0
 62141  1  0  0  0
 62142  1  0  0  0
 63 65  1  0  0  0
 63143  1  0  0  0
 63144  1  0  0  0
 63145  1  0  0  0
 64146  1  0  0  0
 65147  1  0  0  0
 68 87  1  0  0  0
 71 73  2  0  0  0
 71 75  1  0  0  0
 71148  1  0  0  0
 72 74  2  0  0  0
 72 76  1  0  0  0
 72149  1  0  0  0
 73 74  1  0  0  0
 73 85  1  0  0  0
 74 84  1  0  0  0
 75 76  2  0  0  0
 75 86  1  0  0  0
 76 87  1  0  0  0
 77 78  1  0  0  0
 77 79  1  0  0  0
 77150  1  0  0  0
 77151  1  0  0  0
 78 84  1  0  0  0
 78152  1  0  0  0
 78153  1  0  0  0
 79 84  1  0  0  0
 79154  1  0  0  0
 79155  1  0  0  0
 80 82  1  0  0  0
 80 85  1  0  0  0
 80156  1  0  0  0
 80157  1  0  0  0
 81 83  1  0  0  0
 81 85  1  0  0  0
 81158  1  0  0  0
 81159  1  0  0  0
 82 88  1  0  0  0
 82160  1  0  0  0
 82161  1  0  0  0
 83 88  1  0  0  0
 83162  1  0  0  0
 83163  1  0  0  0
 84164  1  0  0  0
 85165  1  0  0  0
 86166  1  0  0  0
 86167  1  0  0  0
 86168  1  0  0  0
 87169  1  0  0  0
 87170  1  0  0  0
M  ISO  4   1 100  68 101  87 101  88 100
M  END
> <chiral flag>
0

> <version>
0

> <s_m_source_file>
/data/baiqing/PycharmProjects/Reinvent-master-3.2/result/LINK_invent/BTK/process_docking_weight1_custom_sum_contain_oxygen_bond_distance_aromatic_linkinvent_7_9_3/rearranged_h_0153.sdf

> <i_m_source_file_index>
11

> <r_mmod_Potential_Energy-OPLS-2005>
487.256591796875

> <r_mmod_Stretch_Energy-OPLS-2005>
119.072898864746

> <r_mmod_Bend_Energy-OPLS-2005>
216.171966552734

> <r_mmod_Torsional_Energy-OPLS-2005>
366.207397460938

> <r_mmod_Improper_Torsional_Energy-OPLS-2005>
19.0911178588867

> <r_mmod_Van_der_Waal_Energy-OPLS-2005>
149.355621337891

> <r_mmod_Electrostatic_Energy-OPLS-2005>
-283.188934326172

> <r_mmod_Solvation_Energy-OPLS-2005>
-189.581802368164

> <b_mmod_Minimization_Converged-OPLS-2005>
0

> <r_mmod_RMS_Derivative-OPLS-2005>
0.924424588680267

$$$$
11
                    3D
 Structure written by MMmdl.
174184  0  0  1  0            999 V2000
  -30.7837  -14.5791   20.6265 C   0  0  0  0  0  0
  -30.3807  -12.4106   19.4601 C   0  0  0  0  0  0
  -29.4894  -12.5029   18.1948 C   0  0  0  0  0  0
  -27.9994  -12.7910   18.4933 C   0  0  0  0  0  0
  -27.6931  -12.7323   19.9852 C   0  0  2  0  0  0
  -28.6583  -13.3204   21.0012 C   0  0  0  0  0  0
  -25.3037  -13.7466   20.5422 C   0  0  0  0  0  0
  -24.1827  -13.0357   20.9066 C   0  0  0  0  0  0
  -24.5696  -11.6651   20.8864 C   0  0  0  0  0  0
  -23.8398  -10.4205   21.0591 C   0  0  0  0  0  0
  -24.3190   -9.4204   21.9304 C   0  0  0  0  0  0
  -23.5999   -8.2176   22.0866 C   0  0  0  0  0  0
  -22.4079   -8.0133   21.3539 C   0  0  0  0  0  0
  -21.9584   -9.0034   20.4660 C   0  0  0  0  0  0
  -22.6702  -10.2006   20.3119 C   0  0  0  0  0  0
  -21.6784   -6.0655   22.5291 C   0  0  0  0  0  0
  -21.4009   -6.5626   23.8219 C   0  0  0  0  0  0
  -21.3557   -5.6792   24.9204 C   0  0  0  0  0  0
  -21.5937   -4.3052   24.7299 C   0  0  0  0  0  0
  -21.8785   -3.8121   23.4459 C   0  0  0  0  0  0
  -21.9152   -4.6895   22.3483 C   0  0  0  0  0  0
  -22.8019  -13.5528   21.1646 C   0  0  0  0  0  0
  -22.1650   -4.2058   21.1080 F   0  0  0  0  0  0
  -21.5467   -3.4603   25.7840 F   0  0  0  0  0  0
  -30.0131  -13.4619   20.4428 N   0  0  0  0  0  0
  -26.2917  -12.7732   20.3556 N   0  0  0  0  0  0
  -25.8266  -11.5417   20.5879 N   0  0  0  0  0  0
  -22.0526  -12.8715   22.0276 N   0  0  0  0  0  0
  -25.5402  -15.1058   20.3643 N   0  0  0  0  0  0
  -31.8577  -14.7093   20.0335 O   0  0  0  0  0  0
  -21.6558   -6.8688   21.4178 O   0  0  0  0  0  0
  -22.3781  -14.5769   20.6316 O   0  0  0  0  0  0
  -24.6133  -31.8640   23.2115 C   0  0  0  0  0  0
  -25.9034  -32.4804   23.8400 C   0  0  1  0  0  0
  -27.2301  -27.4029   20.1241 C   0  0  0  0  0  0
  -25.5877  -33.8605   24.2305 N   0  0  0  0  0  0
  -23.4012  -30.4897   21.5491 C   0  0  2  0  0  0
  -24.8526  -28.9580   20.1127 C   0  0  0  0  0  0
  -22.7377  -29.4634   22.4957 C   0  0  0  0  0  0
  -18.0260  -28.1352   22.8493 C   0  0  0  0  0  0
  -24.1476  -36.7304   23.2645 C   0  0  0  0  0  0
  -25.9305  -30.8254   21.3688 C   0  0  0  0  0  0
  -26.0124  -29.4608   20.7142 C   0  0  0  0  0  0
  -27.2044  -28.6928   20.7151 C   0  0  0  0  0  0
  -26.0493  -26.9317   19.4982 C   0  0  0  0  0  0
  -24.8697  -27.6987   19.4912 C   0  0  0  0  0  0
  -23.6137  -29.8243   20.1638 C   0  0  0  0  0  0
  -25.4103  -36.3096   24.0336 C   0  0  1  0  0  0
  -20.5848  -28.3624   23.1301 C   0  0  2  0  0  0
  -20.6744  -26.9366   22.5394 C   0  0  0  0  0  0
  -19.5722  -26.6358   21.5193 C   0  0  0  0  0  0
  -18.1910  -26.7891   22.1628 C   0  0  0  0  0  0
  -19.1518  -28.8806   23.2895 C   0  0  0  0  0  0
  -18.9447  -30.1423   23.8886 C   0  0  0  0  0  0
  -17.6460  -30.6578   24.0522 C   0  0  0  0  0  0
  -25.9024  -34.9463   23.5112 C   0  0  0  0  0  0
  -16.5342  -29.9063   23.6354 C   0  0  0  0  0  0
  -16.7249  -28.6475   23.0370 C   0  0  0  0  0  0
  -26.4484  -31.6603   25.0722 C   0  0  0  0  0  0
  -25.3802  -31.3673   26.1493 C   0  0  0  0  0  0
  -27.0345  -30.3055   24.6137 C   0  0  0  0  0  0
  -27.6017  -32.4360   25.7510 C   0  0  0  0  0  0
  -27.5573  -37.1805   24.8475 C   0  0  0  0  0  0
  -21.4099  -29.3001   22.3704 N   0  0  0  0  0  0
  -26.4282  -37.3786   23.9429 N   0  0  0  0  0  0
  -24.6662  -31.0755   22.1014 N   0  0  0  0  0  0
  -23.4148  -28.8154   23.2992 O   0  0  0  0  0  0
  -28.3851  -26.6339   20.1947 O   0  0  0  0  0  0
  -26.5573  -34.8900   22.4662 O   0  0  0  0  0  0
  -23.5337  -32.1367   23.7520 O   0  0  0  0  0  0
  -29.0949  -19.3768   19.2926 C   0  0  0  0  0  0
  -28.8040  -20.4722   18.4779 C   0  0  0  0  0  0
  -29.2272  -19.4852   20.6964 C   0  0  0  0  0  0
  -28.8452  -21.9627   20.4221 C   0  0  0  0  0  0
  -29.0468  -20.8029   21.2794 C   0  0  0  0  0  0
  -28.6821  -21.7575   19.0237 C   0  0  0  0  0  0
  -28.8009  -16.4126   23.1748 C   0  0  0  0  0  0
  -28.3479  -17.5357   22.2142 C   0  0  0  0  0  0
  -27.4714  -24.3095   20.7408 C   0  0  0  0  0  0
  -30.0929  -15.6766   22.7443 C   0  0  0  0  0  0
  -30.2015  -16.9919   20.6516 C   0  0  0  0  0  0
  -29.5494  -18.1648   21.4881 C   0  0  1  0  0  0
  -28.7217  -23.4408   20.9564 C   0  0  2  0  0  0
  -28.2932  -25.2344   19.8240 C   0  0  2  0  0  0
  -30.2990  -20.9630   23.5684 C   0  0  0  0  0  0
  -27.4448  -22.6612   17.1887 C   0  0  0  0  0  0
  -28.9567  -20.9698   22.8160 C   0  0  0  0  0  0
  -30.2355  -15.6429   21.2848 N   0  0  0  0  0  0
  -29.4919  -24.5079   20.2721 N   0  3  0  0  0  0
  -28.4306  -22.8327   18.2029 O   0  0  0  0  0  0
  -31.4333  -12.4643   19.1683 H   0  0  0  0  0  0
  -30.2631  -11.4425   19.9495 H   0  0  0  0  0  0
  -29.5696  -11.5726   17.6286 H   0  0  0  0  0  0
  -29.8710  -13.2739   17.5251 H   0  0  0  0  0  0
  -27.3559  -12.0865   17.9483 H   0  0  0  0  0  0
  -27.7506  -13.7944   18.1346 H   0  0  0  0  0  0
  -27.9678  -11.6843   20.1317 H   0  0  0  0  0  0
  -28.6919  -12.7218   21.9169 H   0  0  0  0  0  0
  -28.2181  -14.2756   21.2783 H   0  0  0  0  0  0
  -25.2345   -9.5745   22.4811 H   0  0  0  0  0  0
  -23.9689   -7.4675   22.7700 H   0  0  0  0  0  0
  -21.0395   -8.8506   19.9178 H   0  0  0  0  0  0
  -22.3099  -10.9511   19.6208 H   0  0  0  0  0  0
  -21.2157   -7.6182   23.9694 H   0  0  0  0  0  0
  -21.1258   -6.0570   25.9044 H   0  0  0  0  0  0
  -22.0646   -2.7576   23.3034 H   0  0  0  0  0  0
  -22.3954  -12.0443   22.4935 H   0  0  0  0  0  0
  -21.1295  -13.2135   22.2501 H   0  0  0  0  0  0
  -24.7908  -15.7809   20.4739 H   0  0  0  0  0  0
  -26.3556  -15.4818   19.8979 H   0  0  0  0  0  0
  -26.7037  -32.5512   23.1100 H   0  0  0  0  0  0
  -25.0058  -33.9767   25.0471 H   0  0  0  0  0  0
  -22.6929  -31.3076   21.4099 H   0  0  0  0  0  0
  -23.3737  -35.9641   23.3314 H   0  0  0  0  0  0
  -24.3533  -36.8925   22.2054 H   0  0  0  0  0  0
  -23.7235  -37.6513   23.6646 H   0  0  0  0  0  0
  -26.0548  -31.6008   20.6123 H   0  0  0  0  0  0
  -26.8132  -30.8673   21.9934 H   0  0  0  0  0  0
  -28.0933  -29.0805   21.1955 H   0  0  0  0  0  0
  -26.0037  -25.9677   19.0096 H   0  0  0  0  0  0
  -23.9806  -27.3140   19.0097 H   0  0  0  0  0  0
  -23.7060  -30.5969   19.4011 H   0  0  0  0  0  0
  -22.7413  -29.2392   19.8717 H   0  0  0  0  0  0
  -25.1291  -36.1947   25.0833 H   0  0  0  0  0  0
  -20.9939  -28.3183   24.1415 H   0  0  0  0  0  0
  -20.5618  -26.2238   23.3574 H   0  0  0  0  0  0
  -21.6613  -26.7377   22.1199 H   0  0  0  0  0  0
  -19.6873  -25.6272   21.1217 H   0  0  0  0  0  0
  -19.6669  -27.3150   20.6710 H   0  0  0  0  0  0
  -17.4164  -26.6596   21.4053 H   0  0  0  0  0  0
  -18.0333  -26.0034   22.9034 H   0  0  0  0  0  0
  -19.7938  -30.7223   24.2235 H   0  0  0  0  0  0
  -17.5037  -31.6262   24.5097 H   0  0  0  0  0  0
  -15.5351  -30.2944   23.7732 H   0  0  0  0  0  0
  -15.8631  -28.0782   22.7117 H   0  0  0  0  0  0
  -24.5851  -30.7170   25.7814 H   0  0  0  0  0  0
  -24.9146  -32.2820   26.5167 H   0  0  0  0  0  0
  -25.8198  -30.8630   27.0103 H   0  0  0  0  0  0
  -26.2865  -29.6777   24.1260 H   0  0  0  0  0  0
  -27.4153  -29.7354   25.4626 H   0  0  0  0  0  0
  -27.8694  -30.4362   23.9247 H   0  0  0  0  0  0
  -27.2545  -33.3572   26.2189 H   0  0  0  0  0  0
  -28.3790  -32.7087   25.0366 H   0  0  0  0  0  0
  -28.0713  -31.8447   26.5369 H   0  0  0  0  0  0
  -28.2604  -38.0095   24.7529 H   0  0  0  0  0  0
  -28.1060  -36.2630   24.6301 H   0  0  0  0  0  0
  -27.2267  -37.1444   25.8870 H   0  0  0  0  0  0
  -20.9225  -29.8762   21.6981 H   0  0  0  0  0  0
  -26.0175  -38.2862   24.1457 H   0  0  0  0  0  0
  -29.1989  -18.4428   18.7738 H   0  0  0  0  0  0
  -28.7178  -20.3092   17.4147 H   0  0  0  0  0  0
  -27.9883  -15.7021   23.2983 H   0  0  0  0  0  0
  -28.9717  -16.8403   24.1656 H   0  0  0  0  0  0
  -27.7585  -18.2605   22.7700 H   0  0  0  0  0  0
  -27.6645  -17.1229   21.4759 H   0  0  0  0  0  0
  -27.1319  -24.8183   21.6441 H   0  0  0  0  0  0
  -26.6571  -23.7920   20.2321 H   0  0  0  0  0  0
  -30.1227  -14.6746   23.1829 H   0  0  0  0  0  0
  -30.9644  -16.1856   23.1613 H   0  0  0  0  0  0
  -31.1764  -17.2855   20.2610 H   0  0  0  0  0  0
  -29.5689  -16.7844   19.7977 H   0  0  0  0  0  0
  -30.2897  -18.4329   22.2353 H   0  0  0  0  0  0
  -29.0438  -23.4991   21.9906 H   0  0  0  0  0  0
  -28.1257  -25.1019   18.7552 H   0  0  0  0  0  0
  -30.2053  -21.3802   24.5754 H   0  0  0  0  0  0
  -31.0533  -21.5456   23.0427 H   0  0  0  0  0  0
  -30.6817  -19.9542   23.6985 H   0  0  0  0  0  0
  -27.1838  -23.6437   16.7946 H   0  0  0  0  0  0
  -26.5260  -22.2179   17.5824 H   0  0  0  0  0  0
  -27.8058  -22.0604   16.3538 H   0  0  0  0  0  0
  -28.3007  -20.2185   23.2501 H   0  0  0  0  0  0
  -28.4075  -21.8677   23.0797 H   0  0  0  0  0  0
  -30.0674  -24.2001   19.5077 H   0  0  0  0  0  0
  -30.0198  -25.0719   20.9171 H   0  0  0  0  0  0
  1 25  1  0  0  0
  1 30  2  0  0  0
  1 88  1  0  0  0
  2  3  1  0  0  0
  2 25  1  0  0  0
  2 91  1  0  0  0
  2 92  1  0  0  0
  3  4  1  0  0  0
  3 93  1  0  0  0
  3 94  1  0  0  0
  4  5  1  0  0  0
  4 95  1  0  0  0
  4 96  1  0  0  0
  5  6  1  0  0  0
  5 26  1  0  0  0
  5 97  1  0  0  0
  6 25  1  0  0  0
  6 98  1  0  0  0
  6 99  1  0  0  0
  7  8  2  0  0  0
  7 26  1  0  0  0
  7 29  1  0  0  0
  8  9  1  0  0  0
  8 22  1  0  0  0
  9 10  1  0  0  0
  9 27  2  0  0  0
 10 11  2  0  0  0
 10 15  1  0  0  0
 11 12  1  0  0  0
 11100  1  0  0  0
 12 13  2  0  0  0
 12101  1  0  0  0
 13 14  1  0  0  0
 13 31  1  0  0  0
 14 15  2  0  0  0
 14102  1  0  0  0
 15103  1  0  0  0
 16 17  2  0  0  0
 16 21  1  0  0  0
 16 31  1  0  0  0
 17 18  1  0  0  0
 17104  1  0  0  0
 18 19  2  0  0  0
 18105  1  0  0  0
 19 20  1  0  0  0
 19 24  1  0  0  0
 20 21  2  0  0  0
 20106  1  0  0  0
 21 23  1  0  0  0
 22 28  1  0  0  0
 22 32  2  0  0  0
 26 27  1  0  0  0
 28107  1  0  0  0
 28108  1  0  0  0
 29109  1  0  0  0
 29110  1  0  0  0
 33 34  1  0  0  0
 33 66  1  0  0  0
 33 70  2  0  0  0
 34 36  1  0  0  0
 34 59  1  0  0  0
 34111  1  0  0  0
 35 44  2  0  0  0
 35 45  1  0  0  0
 35 68  1  0  0  0
 36 56  1  0  0  0
 36112  1  0  0  0
 37 39  1  0  0  0
 37 47  1  0  0  0
 37 66  1  0  0  0
 37113  1  0  0  0
 38 43  2  0  0  0
 38 46  1  0  0  0
 38 47  1  0  0  0
 39 64  1  0  0  0
 39 67  2  0  0  0
 40 52  1  0  0  0
 40 53  2  0  0  0
 40 58  1  0  0  0
 41114  1  0  0  0
 41115  1  0  0  0
 41116  1  0  0  0
 41 48  1  0  0  0
 42 43  1  0  0  0
 42 66  1  0  0  0
 42117  1  0  0  0
 42118  1  0  0  0
 43 44  1  0  0  0
 44119  1  0  0  0
 45 46  2  0  0  0
 45120  1  0  0  0
 46121  1  0  0  0
 47122  1  0  0  0
 47123  1  0  0  0
 48 56  1  0  0  0
 48 65  1  0  0  0
 48124  1  0  0  0
 49 50  1  0  0  0
 49 53  1  0  0  0
 49 64  1  0  0  0
 49125  1  0  0  0
 50 51  1  0  0  0
 50126  1  0  0  0
 50127  1  0  0  0
 51 52  1  0  0  0
 51128  1  0  0  0
 51129  1  0  0  0
 52130  1  0  0  0
 52131  1  0  0  0
 53 54  1  0  0  0
 54 55  2  0  0  0
 54132  1  0  0  0
 55 57  1  0  0  0
 55133  1  0  0  0
 56 69  2  0  0  0
 57 58  2  0  0  0
 57134  1  0  0  0
 58135  1  0  0  0
 59 60  1  0  0  0
 59 61  1  0  0  0
 59 62  1  0  0  0
 60136  1  0  0  0
 60137  1  0  0  0
 60138  1  0  0  0
 61139  1  0  0  0
 61140  1  0  0  0
 61141  1  0  0  0
 62142  1  0  0  0
 62143  1  0  0  0
 62144  1  0  0  0
 63 65  1  0  0  0
 63145  1  0  0  0
 63146  1  0  0  0
 63147  1  0  0  0
 64148  1  0  0  0
 65149  1  0  0  0
 68 84  1  0  0  0
 71 72  2  0  0  0
 71 73  1  0  0  0
 71150  1  0  0  0
 72 76  1  0  0  0
 72151  1  0  0  0
 73 75  2  0  0  0
 73 82  1  0  0  0
 74 75  1  0  0  0
 74 76  2  0  0  0
 74 83  1  0  0  0
 75 87  1  0  0  0
 76 90  1  0  0  0
 77 78  1  0  0  0
 77 80  1  0  0  0
 77152  1  0  0  0
 77153  1  0  0  0
 78 82  1  0  0  0
 78154  1  0  0  0
 78155  1  0  0  0
 79 83  1  0  0  0
 79 84  1  0  0  0
 79156  1  0  0  0
 79157  1  0  0  0
 80 88  1  0  0  0
 80158  1  0  0  0
 80159  1  0  0  0
 81 82  1  0  0  0
 81 88  1  0  0  0
 81160  1  0  0  0
 81161  1  0  0  0
 82162  1  0  0  0
 83 89  1  0  0  0
 83163  1  0  0  0
 84 89  1  0  0  0
 84164  1  0  0  0
 85 87  1  0  0  0
 85165  1  0  0  0
 85166  1  0  0  0
 85167  1  0  0  0
 86 90  1  0  0  0
 86168  1  0  0  0
 86169  1  0  0  0
 86170  1  0  0  0
 87171  1  0  0  0
 87172  1  0  0  0
 89173  1  0  0  0
 89174  1  0  0  0
M  CHG  1  89   1
M  ISO  4   1 100  68 101  84 101  88 100
M  END
> <chiral flag>
0

> <version>
0

> <s_m_source_file>
/data/baiqing/PycharmProjects/Reinvent-master-3.2/result/LINK_invent/BTK/process_docking_weight1_custom_sum_contain_oxygen_bond_distance_aromatic_linkinvent_7_9_3/rearranged_h_0153.sdf

> <i_m_source_file_index>
12

> <r_mmod_Potential_Energy-OPLS-2005>
149.842071533203

> <r_mmod_Stretch_Energy-OPLS-2005>
73.8921585083008

> <r_mmod_Bend_Energy-OPLS-2005>
192.824066162109

> <r_mmod_Torsional_Energy-OPLS-2005>
401.069641113281

> <r_mmod_Improper_Torsional_Energy-OPLS-2005>
7.02507781982422

> <r_mmod_Van_der_Waal_Energy-OPLS-2005>
185.535003662109

> <r_mmod_Electrostatic_Energy-OPLS-2005>
-379.632110595703

> <r_mmod_Solvation_Energy-OPLS-2005>
-425.044189453125

> <b_mmod_Minimization_Converged-OPLS-2005>
0

> <r_mmod_RMS_Derivative-OPLS-2005>
8.81933975219727

$$$$
12
                    3D
 Structure written by MMmdl.
173182  0  0  1  0            999 V2000
  -30.6244  -14.6201   20.4908 C   0  0  0  0  0  0
  -30.4386  -12.3766   19.4424 C   0  0  0  0  0  0
  -29.5136  -12.5134   18.2167 C   0  0  0  0  0  0
  -28.0324  -12.3542   18.6200 C   0  0  0  0  0  0
  -27.6562  -13.2107   19.8603 C   0  0  2  0  0  0
  -28.7011  -13.0533   20.9869 C   0  0  0  0  0  0
  -25.2609  -13.8130   20.5644 C   0  0  0  0  0  0
  -24.1875  -13.0412   20.9241 C   0  0  0  0  0  0
  -24.6432  -11.6877   20.8793 C   0  0  0  0  0  0
  -23.9084  -10.4256   21.0442 C   0  0  0  0  0  0
  -24.3641   -9.4153   21.9214 C   0  0  0  0  0  0
  -23.6301   -8.2185   22.0748 C   0  0  0  0  0  0
  -22.4273   -8.0245   21.3556 C   0  0  0  0  0  0
  -21.9934   -9.0214   20.4646 C   0  0  0  0  0  0
  -22.7258  -10.2106   20.3070 C   0  0  0  0  0  0
  -21.6827   -6.0710   22.5299 C   0  0  0  0  0  0
  -21.3980   -6.5613   23.8221 C   0  0  0  0  0  0
  -21.3698   -5.6777   24.9178 C   0  0  0  0  0  0
  -21.6081   -4.3040   24.7233 C   0  0  0  0  0  0
  -21.8815   -3.8131   23.4342 C   0  0  0  0  0  0
  -21.9188   -4.6951   22.3408 C   0  0  0  0  0  0
  -22.7899  -13.5249   21.1854 C   0  0  0  0  0  0
  -22.1653   -4.2142   21.0972 F   0  0  0  0  0  0
  -21.5679   -3.4536   25.7755 F   0  0  0  0  0  0
  -30.0158  -13.3968   20.4189 N   0  0  0  0  0  0
  -26.3022  -12.9296   20.3275 N   0  0  0  0  0  0
  -25.9359  -11.6459   20.5748 N   0  0  0  0  0  0
  -22.0498  -12.8250   22.0402 N   0  0  0  0  0  0
  -25.4314  -15.1810   20.3884 N   0  0  0  0  0  0
  -31.7983  -14.7880   20.1514 O   0  0  0  0  0  0
  -21.6625   -6.8851   21.4250 O   0  0  0  0  0  0
  -22.3600  -14.5540   20.6673 O   0  0  0  0  0  0
  -24.6247  -31.8580   23.2005 C   0  0  0  0  0  0
  -25.9109  -32.4757   23.8325 C   0  0  1  0  0  0
  -27.2352  -27.3330   20.1115 C   0  0  0  0  0  0
  -25.5925  -33.8561   24.2266 N   0  0  0  0  0  0
  -23.4194  -30.4787   21.5414 C   0  0  2  0  0  0
  -24.8641  -28.9230   20.1113 C   0  0  0  0  0  0
  -22.7455  -29.4644   22.4956 C   0  0  0  0  0  0
  -18.0281  -28.1391   22.8483 C   0  0  0  0  0  0
  -24.1479  -36.7303   23.2632 C   0  0  0  0  0  0
  -25.9556  -30.7892   21.3686 C   0  0  0  0  0  0
  -26.0270  -29.4145   20.7147 C   0  0  0  0  0  0
  -27.2088  -28.6269   20.7114 C   0  0  0  0  0  0
  -26.0512  -26.8766   19.4917 C   0  0  0  0  0  0
  -24.8756  -27.6567   19.4973 C   0  0  0  0  0  0
  -23.6311  -29.8021   20.1591 C   0  0  0  0  0  0
  -25.4100  -36.3084   24.0324 C   0  0  1  0  0  0
  -20.5871  -28.3688   23.1294 C   0  0  2  0  0  0
  -20.6769  -26.9413   22.5418 C   0  0  0  0  0  0
  -19.5756  -26.6392   21.5209 C   0  0  0  0  0  0
  -18.1928  -26.7935   22.1614 C   0  0  0  0  0  0
  -19.1525  -28.8849   23.2887 C   0  0  0  0  0  0
  -18.9458  -30.1457   23.8912 C   0  0  0  0  0  0
  -17.6457  -30.6598   24.0567 C   0  0  0  0  0  0
  -25.9041  -34.9446   23.5088 C   0  0  0  0  0  0
  -16.5342  -29.9099   23.6339 C   0  0  0  0  0  0
  -16.7263  -28.6510   23.0361 C   0  0  0  0  0  0
  -26.4486  -31.6559   25.0703 C   0  0  0  0  0  0
  -25.3744  -31.3707   26.1455 C   0  0  0  0  0  0
  -27.0322  -30.2978   24.6183 C   0  0  0  0  0  0
  -27.6026  -32.4298   25.7518 C   0  0  0  0  0  0
  -27.5583  -37.1797   24.8446 C   0  0  0  0  0  0
  -21.4162  -29.3059   22.3699 N   0  0  0  0  0  0
  -26.4283  -37.3779   23.9396 N   0  0  0  0  0  0
  -24.6857  -31.0592   22.0942 N   0  0  0  0  0  0
  -23.4166  -28.8201   23.3071 O   0  0  0  0  0  0
  -28.3935  -26.5557   20.1790 O   0  0  0  0  0  0
  -26.5626  -34.8910   22.4673 O   0  0  0  0  0  0
  -23.5424  -32.1386   23.7338 O   0  0  0  0  0  0
  -25.6227  -18.3341   22.2560 C   0  0  0  0  0  0
  -25.5652  -17.4660   23.4904 C   0  0  0  0  0  0
  -30.4876  -17.8541   19.5451 C   0  0  0  0  0  0
  -30.5851  -19.4221   19.6221 C   0  0  0  0  0  0
  -28.9162  -19.5189   21.3933 C   0  0  0  0  0  0
  -26.8641  -18.1369   23.0997 C   0  0  0  0  0  0
  -28.7249  -17.9477   21.3212 C   0  0  1  0  0  0
  -30.0140  -17.1649   20.8584 C   0  0  1  0  0  0
  -28.4905  -21.7822   18.4514 C   0  0  0  0  0  0
  -27.8661  -23.9728   20.4743 C   0  0  0  0  0  0
  -28.6796  -22.6413   20.8680 C   0  0  0  0  0  0
  -28.4989  -25.1806   19.6662 C   0  0  0  0  0  0
  -28.0553  -17.3383   22.5886 C   0  0  1  0  0  0
  -29.2347  -21.6067   19.7816 C   0  0  1  0  0  0
  -29.7900  -15.6737   20.7515 N   0  0  0  0  0  0
  -29.3240  -20.0940   20.0762 N   0  3  1  0  0  0
  -28.9805  -17.2121   23.6525 O   0  0  0  0  0  0
  -31.4821  -12.4944   19.1448 H   0  0  0  0  0  0
  -30.3508  -11.3784   19.8768 H   0  0  0  0  0  0
  -29.7777  -11.7743   17.4592 H   0  0  0  0  0  0
  -29.6661  -13.4935   17.7597 H   0  0  0  0  0  0
  -27.8577  -11.2968   18.8279 H   0  0  0  0  0  0
  -27.3865  -12.6115   17.7783 H   0  0  0  0  0  0
  -27.6752  -14.2489   19.5347 H   0  0  0  0  0  0
  -28.7118  -12.0284   21.3588 H   0  0  0  0  0  0
  -28.4501  -13.6799   21.8448 H   0  0  0  0  0  0
  -25.2782   -9.5623   22.4801 H   0  0  0  0  0  0
  -24.0012   -7.4586   22.7472 H   0  0  0  0  0  0
  -21.0866   -8.8736   19.8951 H   0  0  0  0  0  0
  -22.3710  -10.9663   19.6196 H   0  0  0  0  0  0
  -21.1885   -7.6124   23.9716 H   0  0  0  0  0  0
  -21.1577   -6.0501   25.9101 H   0  0  0  0  0  0
  -22.0562   -2.7598   23.2841 H   0  0  0  0  0  0
  -22.4058  -11.9878   22.4779 H   0  0  0  0  0  0
  -21.1125  -13.1297   22.2594 H   0  0  0  0  0  0
  -24.6276  -15.8000   20.4237 H   0  0  0  0  0  0
  -26.1947  -15.5576   19.8430 H   0  0  0  0  0  0
  -26.7195  -32.5421   23.1083 H   0  0  0  0  0  0
  -25.0005  -33.9681   25.0360 H   0  0  0  0  0  0
  -22.7158  -31.3010   21.3940 H   0  0  0  0  0  0
  -23.3746  -35.9638   23.3264 H   0  0  0  0  0  0
  -24.3569  -36.8967   22.2064 H   0  0  0  0  0  0
  -23.7239  -37.6486   23.6681 H   0  0  0  0  0  0
  -26.0860  -31.5498   20.5977 H   0  0  0  0  0  0
  -26.8359  -30.8364   21.9979 H   0  0  0  0  0  0
  -28.1011  -29.0026   21.1906 H   0  0  0  0  0  0
  -26.0085  -25.9066   19.0190 H   0  0  0  0  0  0
  -23.9812  -27.2699   19.0293 H   0  0  0  0  0  0
  -23.7524  -30.5743   19.3995 H   0  0  0  0  0  0
  -22.7506  -29.2288   19.8615 H   0  0  0  0  0  0
  -25.1289  -36.1927   25.0825 H   0  0  0  0  0  0
  -20.9945  -28.3266   24.1421 H   0  0  0  0  0  0
  -20.5645  -26.2306   23.3625 H   0  0  0  0  0  0
  -21.6641  -26.7451   22.1220 H   0  0  0  0  0  0
  -19.6895  -25.6297   21.1257 H   0  0  0  0  0  0
  -19.6690  -27.3201   20.6745 H   0  0  0  0  0  0
  -17.4194  -26.6699   21.4017 H   0  0  0  0  0  0
  -18.0309  -26.0076   22.9010 H   0  0  0  0  0  0
  -19.7931  -30.7284   24.2261 H   0  0  0  0  0  0
  -17.5010  -31.6277   24.5186 H   0  0  0  0  0  0
  -15.5336  -30.3008   23.7656 H   0  0  0  0  0  0
  -15.8663  -28.0839   22.7062 H   0  0  0  0  0  0
  -24.5886  -30.7086   25.7807 H   0  0  0  0  0  0
  -24.8988  -32.2882   26.4946 H   0  0  0  0  0  0
  -25.8099  -30.8848   27.0197 H   0  0  0  0  0  0
  -26.2902  -29.6743   24.1203 H   0  0  0  0  0  0
  -27.3971  -29.7242   25.4704 H   0  0  0  0  0  0
  -27.8783  -30.4221   23.9431 H   0  0  0  0  0  0
  -27.2580  -33.3545   26.2168 H   0  0  0  0  0  0
  -28.3839  -32.6945   25.0377 H   0  0  0  0  0  0
  -28.0696  -31.8380   26.5406 H   0  0  0  0  0  0
  -28.2565  -38.0129   24.7537 H   0  0  0  0  0  0
  -28.1121  -36.2664   24.6213 H   0  0  0  0  0  0
  -27.2304  -37.1376   25.8849 H   0  0  0  0  0  0
  -20.9328  -29.8772   21.6897 H   0  0  0  0  0  0
  -26.0164  -38.2842   24.1439 H   0  0  0  0  0  0
  -25.1389  -19.3078   22.3057 H   0  0  0  0  0  0
  -25.5726  -17.8447   21.2840 H   0  0  0  0  0  0
  -25.4635  -16.3931   23.3361 H   0  0  0  0  0  0
  -25.0286  -17.8662   24.3498 H   0  0  0  0  0  0
  -31.4664  -17.4600   19.2644 H   0  0  0  0  0  0
  -29.8193  -17.5821   18.7271 H   0  0  0  0  0  0
  -30.8537  -19.7993   18.6331 H   0  0  0  0  0  0
  -31.3990  -19.7065   20.2922 H   0  0  0  0  0  0
  -29.6408  -19.7859   22.1633 H   0  0  0  0  0  0
  -27.9673  -19.9724   21.6714 H   0  0  0  0  0  0
  -27.1532  -18.9986   23.7016 H   0  0  0  0  0  0
  -27.9871  -17.7957   20.5298 H   0  0  0  0  0  0
  -30.7817  -17.3206   21.6182 H   0  0  0  0  0  0
  -28.5912  -22.7995   18.0775 H   0  0  0  0  0  0
  -27.4260  -21.5690   18.5623 H   0  0  0  0  0  0
  -28.8965  -21.1294   17.6750 H   0  0  0  0  0  0
  -27.5033  -24.3981   21.4103 H   0  0  0  0  0  0
  -26.9495  -23.6729   19.9649 H   0  0  0  0  0  0
  -28.0092  -22.1090   21.5389 H   0  0  0  0  0  0
  -29.5148  -22.9360   21.5043 H   0  0  0  0  0  0
  -28.1311  -25.1621   18.6390 H   0  0  0  0  0  0
  -29.5651  -24.9839   19.5729 H   0  0  0  0  0  0
  -27.7061  -16.3312   22.3464 H   0  0  0  0  0  0
  -30.2606  -21.9322   19.5911 H   0  0  0  0  0  0
  -28.8507  -15.3734   20.9515 H   0  0  0  0  0  0
  -28.6206  -19.7373   19.4470 H   0  0  0  0  0  0
  -28.6161  -16.5933   24.2795 H   0  0  0  0  0  0
  1 25  1  0  0  0
  1 30  2  0  0  0
  1 85  1  0  0  0
  2  3  1  0  0  0
  2 25  1  0  0  0
  2 88  1  0  0  0
  2 89  1  0  0  0
  3  4  1  0  0  0
  3 90  1  0  0  0
  3 91  1  0  0  0
  4  5  1  0  0  0
  4 92  1  0  0  0
  4 93  1  0  0  0
  5  6  1  0  0  0
  5 26  1  0  0  0
  5 94  1  0  0  0
  6 25  1  0  0  0
  6 95  1  0  0  0
  6 96  1  0  0  0
  7  8  2  0  0  0
  7 26  1  0  0  0
  7 29  1  0  0  0
  8  9  1  0  0  0
  8 22  1  0  0  0
  9 10  1  0  0  0
  9 27  2  0  0  0
 10 11  2  0  0  0
 10 15  1  0  0  0
 11 12  1  0  0  0
 11 97  1  0  0  0
 12 13  2  0  0  0
 12 98  1  0  0  0
 13 14  1  0  0  0
 13 31  1  0  0  0
 14 15  2  0  0  0
 14 99  1  0  0  0
 15100  1  0  0  0
 16 17  2  0  0  0
 16 21  1  0  0  0
 16 31  1  0  0  0
 17 18  1  0  0  0
 17101  1  0  0  0
 18 19  2  0  0  0
 18102  1  0  0  0
 19 20  1  0  0  0
 19 24  1  0  0  0
 20 21  2  0  0  0
 20103  1  0  0  0
 21 23  1  0  0  0
 22 28  1  0  0  0
 22 32  2  0  0  0
 26 27  1  0  0  0
 28104  1  0  0  0
 28105  1  0  0  0
 29106  1  0  0  0
 29107  1  0  0  0
 33 34  1  0  0  0
 33 66  1  0  0  0
 33 70  2  0  0  0
 34 36  1  0  0  0
 34 59  1  0  0  0
 34108  1  0  0  0
 35 44  2  0  0  0
 35 45  1  0  0  0
 35 68  1  0  0  0
 36 56  1  0  0  0
 36109  1  0  0  0
 37 39  1  0  0  0
 37 47  1  0  0  0
 37 66  1  0  0  0
 37110  1  0  0  0
 38 43  2  0  0  0
 38 46  1  0  0  0
 38 47  1  0  0  0
 39 64  1  0  0  0
 39 67  2  0  0  0
 40 52  1  0  0  0
 40 53  2  0  0  0
 40 58  1  0  0  0
 41111  1  0  0  0
 41112  1  0  0  0
 41113  1  0  0  0
 41 48  1  0  0  0
 42 43  1  0  0  0
 42 66  1  0  0  0
 42114  1  0  0  0
 42115  1  0  0  0
 43 44  1  0  0  0
 44116  1  0  0  0
 45 46  2  0  0  0
 45117  1  0  0  0
 46118  1  0  0  0
 47119  1  0  0  0
 47120  1  0  0  0
 48 56  1  0  0  0
 48 65  1  0  0  0
 48121  1  0  0  0
 49 50  1  0  0  0
 49 53  1  0  0  0
 49 64  1  0  0  0
 49122  1  0  0  0
 50 51  1  0  0  0
 50123  1  0  0  0
 50124  1  0  0  0
 51 52  1  0  0  0
 51125  1  0  0  0
 51126  1  0  0  0
 52127  1  0  0  0
 52128  1  0  0  0
 53 54  1  0  0  0
 54 55  2  0  0  0
 54129  1  0  0  0
 55 57  1  0  0  0
 55130  1  0  0  0
 56 69  2  0  0  0
 57 58  2  0  0  0
 57131  1  0  0  0
 58132  1  0  0  0
 59 60  1  0  0  0
 59 61  1  0  0  0
 59 62  1  0  0  0
 60133  1  0  0  0
 60134  1  0  0  0
 60135  1  0  0  0
 61136  1  0  0  0
 61137  1  0  0  0
 61138  1  0  0  0
 62139  1  0  0  0
 62140  1  0  0  0
 62141  1  0  0  0
 63 65  1  0  0  0
 63142  1  0  0  0
 63143  1  0  0  0
 63144  1  0  0  0
 64145  1  0  0  0
 65146  1  0  0  0
 68 82  1  0  0  0
 71 72  1  0  0  0
 71147  1  0  0  0
 71148  1  0  0  0
 71 76  1  0  0  0
 72 76  1  0  0  0
 72149  1  0  0  0
 72150  1  0  0  0
 73 74  1  0  0  0
 73 78  1  0  0  0
 73151  1  0  0  0
 73152  1  0  0  0
 74153  1  0  0  0
 74154  1  0  0  0
 74 86  1  0  0  0
 75 86  1  0  0  0
 75155  1  0  0  0
 75156  1  0  0  0
 75 77  1  0  0  0
 76 83  1  0  0  0
 76157  1  0  0  0
 77 78  1  0  0  0
 77 83  1  0  0  0
 77158  1  0  0  0
 78 85  1  0  0  0
 78159  1  0  0  0
 79160  1  0  0  0
 79161  1  0  0  0
 79162  1  0  0  0
 79 84  1  0  0  0
 80 81  1  0  0  0
 80 82  1  0  0  0
 80163  1  0  0  0
 80164  1  0  0  0
 81 84  1  0  0  0
 81165  1  0  0  0
 81166  1  0  0  0
 82167  1  0  0  0
 82168  1  0  0  0
 83 87  1  0  0  0
 83169  1  0  0  0
 84 86  1  0  0  0
 84170  1  0  0  0
 85171  1  0  0  0
 86172  1  0  0  0
 87173  1  0  0  0
M  CHG  1  86   1
M  ISO  4   1 100  68 101  82 101  85 100
M  END
> <chiral flag>
0

> <version>
0

> <s_m_source_file>
/data/baiqing/PycharmProjects/Reinvent-master-3.2/result/LINK_invent/BTK/process_docking_weight1_custom_sum_contain_oxygen_bond_distance_aromatic_linkinvent_7_9_3/rearranged_h_0153.sdf

> <i_m_source_file_index>
13

> <r_mmod_Potential_Energy-OPLS-2005>
90.0963363647461

> <r_mmod_Stretch_Energy-OPLS-2005>
85.5630416870117

> <r_mmod_Bend_Energy-OPLS-2005>
187.211441040039

> <r_mmod_Torsional_Energy-OPLS-2005>
321.538238525391

> <r_mmod_Improper_Torsional_Energy-OPLS-2005>
6.59579992294312

> <r_mmod_Van_der_Waal_Energy-OPLS-2005>
111.537902832031

> <r_mmod_Electrostatic_Energy-OPLS-2005>
-217.398712158203

> <r_mmod_Solvation_Energy-OPLS-2005>
-446.918121337891

> <b_mmod_Minimization_Converged-OPLS-2005>
0

> <r_mmod_RMS_Derivative-OPLS-2005>
4.33482551574707

$$$$
13
                    3D
 Structure written by MMmdl.
165174  0  0  1  0            999 V2000
  -30.6962  -14.4753   20.5453 C   0  0  0  0  0  0
  -30.4238  -12.2970   19.4290 C   0  0  0  0  0  0
  -29.4986  -12.4973   18.2111 C   0  0  0  0  0  0
  -28.0167  -12.3669   18.6187 C   0  0  0  0  0  0
  -27.6610  -13.2075   19.8745 C   0  0  2  0  0  0
  -28.7036  -12.9911   20.9961 C   0  0  0  0  0  0
  -25.2570  -13.8160   20.5682 C   0  0  0  0  0  0
  -24.1829  -13.0433   20.9192 C   0  0  0  0  0  0
  -24.6387  -11.6903   20.8750 C   0  0  0  0  0  0
  -23.9059  -10.4283   21.0408 C   0  0  0  0  0  0
  -24.3613   -9.4194   21.9182 C   0  0  0  0  0  0
  -23.6284   -8.2232   22.0748 C   0  0  0  0  0  0
  -22.4264   -8.0279   21.3546 C   0  0  0  0  0  0
  -21.9901   -9.0257   20.4648 C   0  0  0  0  0  0
  -22.7235  -10.2133   20.3053 C   0  0  0  0  0  0
  -21.6846   -6.0736   22.5282 C   0  0  0  0  0  0
  -21.4018   -6.5641   23.8218 C   0  0  0  0  0  0
  -21.3662   -5.6794   24.9180 C   0  0  0  0  0  0
  -21.6038   -4.3056   24.7228 C   0  0  0  0  0  0
  -21.8821   -3.8148   23.4348 C   0  0  0  0  0  0
  -21.9189   -4.6967   22.3404 C   0  0  0  0  0  0
  -22.7850  -13.5234   21.1854 C   0  0  0  0  0  0
  -22.1653   -4.2152   21.0981 F   0  0  0  0  0  0
  -21.5623   -3.4533   25.7736 F   0  0  0  0  0  0
  -30.0369  -13.2885   20.4438 N   0  0  0  0  0  0
  -26.3013  -12.9333   20.3366 N   0  0  0  0  0  0
  -25.9315  -11.6497   20.5776 N   0  0  0  0  0  0
  -22.0481  -12.8241   22.0409 N   0  0  0  0  0  0
  -25.4253  -15.1882   20.4082 N   0  0  0  0  0  0
  -31.8442  -14.6332   20.1165 O   0  0  0  0  0  0
  -21.6630   -6.8875   21.4240 O   0  0  0  0  0  0
  -22.3541  -14.5541   20.6691 O   0  0  0  0  0  0
  -24.6145  -31.8683   23.2092 C   0  0  0  0  0  0
  -25.9042  -32.4821   23.8389 C   0  0  1  0  0  0
  -27.2365  -27.4319   20.0907 C   0  0  0  0  0  0
  -25.5896  -33.8621   24.2316 N   0  0  0  0  0  0
  -23.4013  -30.4925   21.5504 C   0  0  2  0  0  0
  -24.8461  -28.9576   20.1139 C   0  0  0  0  0  0
  -22.7407  -29.4669   22.4991 C   0  0  0  0  0  0
  -18.0272  -28.1381   22.8491 C   0  0  0  0  0  0
  -24.1487  -36.7317   23.2637 C   0  0  0  0  0  0
  -25.9299  -30.8322   21.3630 C   0  0  0  0  0  0
  -26.0054  -29.4657   20.7115 C   0  0  0  0  0  0
  -27.1995  -28.7091   20.6986 C   0  0  0  0  0  0
  -26.0550  -26.9398   19.4860 C   0  0  0  0  0  0
  -24.8663  -27.6937   19.5002 C   0  0  0  0  0  0
  -23.6087  -29.8253   20.1644 C   0  0  0  0  0  0
  -25.4108  -36.3111   24.0335 C   0  0  1  0  0  0
  -20.5861  -28.3673   23.1319 C   0  0  2  0  0  0
  -20.6764  -26.9412   22.5421 C   0  0  0  0  0  0
  -19.5742  -26.6389   21.5216 C   0  0  0  0  0  0
  -18.1920  -26.7926   22.1626 C   0  0  0  0  0  0
  -19.1520  -28.8843   23.2901 C   0  0  0  0  0  0
  -18.9448  -30.1444   23.8917 C   0  0  0  0  0  0
  -17.6450  -30.6586   24.0571 C   0  0  0  0  0  0
  -25.9033  -34.9476   23.5125 C   0  0  0  0  0  0
  -16.5344  -29.9092   23.6326 C   0  0  0  0  0  0
  -16.7261  -28.6511   23.0346 C   0  0  0  0  0  0
  -26.4468  -31.6602   25.0714 C   0  0  0  0  0  0
  -25.3734  -31.3710   26.1460 C   0  0  0  0  0  0
  -27.0305  -30.3046   24.6093 C   0  0  0  0  0  0
  -27.6043  -32.4326   25.7475 C   0  0  0  0  0  0
  -27.5581  -37.1813   24.8467 C   0  0  0  0  0  0
  -21.4134  -29.3038   22.3725 N   0  0  0  0  0  0
  -26.4295  -37.3796   23.9404 N   0  0  0  0  0  0
  -24.6666  -31.0792   22.0992 N   0  0  0  0  0  0
  -23.4183  -28.8216   23.3030 O   0  0  0  0  0  0
  -28.4237  -26.7219   20.1185 O   0  0  0  0  0  0
  -26.5605  -34.8929   22.4686 O   0  0  0  0  0  0
  -23.5339  -32.1442   23.7491 O   0  0  0  0  0  0
  -28.9849  -17.4585   19.9919 C   0  0  0  0  0  0
  -29.0489  -18.7899   19.5303 C   0  0  0  0  0  0
  -30.2280  -19.5327   19.7925 C   0  0  0  0  0  0
  -31.2610  -18.8852   20.5166 C   0  0  0  0  0  0
  -30.0837  -16.8637   20.6401 C   0  0  0  0  0  0
  -27.0144  -18.5156   17.8629 C   0  0  0  0  0  0
  -27.9644  -19.5181   17.2578 C   0  0  0  0  0  0
  -27.8911  -19.3657   18.7604 C   0  0  0  0  0  0
  -32.5611  -19.5852   20.8721 C   0  0  0  0  0  0
  -30.4136  -20.9556   19.2304 C   0  0  0  0  0  0
  -29.8415  -22.1240   20.0773 C   0  0  0  0  0  0
  -29.7416  -24.6682   20.1518 C   0  0  0  0  0  0
  -28.4407  -25.3553   19.6749 C   0  0  0  0  0  0
  -31.1865  -17.5957   20.9181 N   0  0  0  0  0  0
  -29.9456  -15.4971   21.0009 N   0  0  0  0  0  0
  -30.0835  -23.4270   19.4012 N   0  3  0  0  0  0
  -31.4701  -12.3871   19.1310 H   0  0  0  0  0  0
  -30.3161  -11.2888   19.8329 H   0  0  0  0  0  0
  -29.7380  -11.7677   17.4363 H   0  0  0  0  0  0
  -29.6733  -13.4807   17.7703 H   0  0  0  0  0  0
  -27.8202  -11.3119   18.8131 H   0  0  0  0  0  0
  -27.3708  -12.6462   17.7855 H   0  0  0  0  0  0
  -27.7030  -14.2540   19.5734 H   0  0  0  0  0  0
  -28.6758  -11.9563   21.3414 H   0  0  0  0  0  0
  -28.4709  -13.5948   21.8749 H   0  0  0  0  0  0
  -25.2756   -9.5672   22.4764 H   0  0  0  0  0  0
  -23.9996   -7.4620   22.7466 H   0  0  0  0  0  0
  -21.0831   -8.8791   19.8954 H   0  0  0  0  0  0
  -22.3700  -10.9681   19.6169 H   0  0  0  0  0  0
  -21.2015   -7.6150   23.9729 H   0  0  0  0  0  0
  -21.1479   -6.0517   25.9088 H   0  0  0  0  0  0
  -22.0592   -2.7608   23.2848 H   0  0  0  0  0  0
  -22.4077  -11.9915   22.4839 H   0  0  0  0  0  0
  -21.1098  -13.1287   22.2591 H   0  0  0  0  0  0
  -24.6506  -15.8350   20.5076 H   0  0  0  0  0  0
  -26.2632  -15.6286   20.0549 H   0  0  0  0  0  0
  -26.7114  -32.5538   23.1153 H   0  0  0  0  0  0
  -25.0046  -33.9791   25.0464 H   0  0  0  0  0  0
  -22.6894  -31.3091   21.4130 H   0  0  0  0  0  0
  -23.3745  -35.9657   23.3314 H   0  0  0  0  0  0
  -24.3582  -36.8919   22.2050 H   0  0  0  0  0  0
  -23.7251  -37.6529   23.6648 H   0  0  0  0  0  0
  -26.0430  -31.5970   20.5937 H   0  0  0  0  0  0
  -26.8173  -30.8858   21.9812 H   0  0  0  0  0  0
  -28.0938  -29.0997   21.1644 H   0  0  0  0  0  0
  -26.0233  -25.9791   18.9931 H   0  0  0  0  0  0
  -23.9740  -27.2994   19.0333 H   0  0  0  0  0  0
  -23.7166  -30.6010   19.4051 H   0  0  0  0  0  0
  -22.7319  -29.2458   19.8689 H   0  0  0  0  0  0
  -25.1287  -36.1975   25.0831 H   0  0  0  0  0  0
  -20.9952  -28.3242   24.1439 H   0  0  0  0  0  0
  -20.5677  -26.2281   23.3609 H   0  0  0  0  0  0
  -21.6636  -26.7463   22.1209 H   0  0  0  0  0  0
  -19.6908  -25.6303   21.1238 H   0  0  0  0  0  0
  -19.6678  -27.3207   20.6750 H   0  0  0  0  0  0
  -17.4192  -26.6678   21.4023 H   0  0  0  0  0  0
  -18.0319  -26.0065   22.9018 H   0  0  0  0  0  0
  -19.7925  -30.7250   24.2301 H   0  0  0  0  0  0
  -17.5012  -31.6269   24.5162 H   0  0  0  0  0  0
  -15.5347  -30.3005   23.7632 H   0  0  0  0  0  0
  -15.8661  -28.0836   22.7050 H   0  0  0  0  0  0
  -24.5896  -30.7072   25.7789 H   0  0  0  0  0  0
  -24.8939  -32.2871   26.4920 H   0  0  0  0  0  0
  -25.8077  -30.8862   27.0212 H   0  0  0  0  0  0
  -26.2853  -29.6806   24.1144 H   0  0  0  0  0  0
  -27.4076  -29.7278   25.4549 H   0  0  0  0  0  0
  -27.8685  -30.4364   23.9245 H   0  0  0  0  0  0
  -27.2657  -33.3612   26.2084 H   0  0  0  0  0  0
  -28.3832  -32.6913   25.0290 H   0  0  0  0  0  0
  -28.0740  -31.8441   26.5367 H   0  0  0  0  0  0
  -28.2604  -38.0101   24.7507 H   0  0  0  0  0  0
  -28.1067  -36.2636   24.6299 H   0  0  0  0  0  0
  -27.2303  -37.1477   25.8870 H   0  0  0  0  0  0
  -20.9294  -29.8750   21.6940 H   0  0  0  0  0  0
  -26.0185  -38.2876   24.1397 H   0  0  0  0  0  0
  -28.0966  -16.8750   19.8002 H   0  0  0  0  0  0
  -27.2611  -17.4650   17.7244 H   0  0  0  0  0  0
  -25.9544  -18.7564   17.8136 H   0  0  0  0  0  0
  -27.5284  -20.4112   16.8166 H   0  0  0  0  0  0
  -28.8444  -19.1268   16.7505 H   0  0  0  0  0  0
  -27.3967  -20.1511   19.3288 H   0  0  0  0  0  0
  -32.3708  -20.5720   21.2938 H   0  0  0  0  0  0
  -33.1860  -19.7008   19.9868 H   0  0  0  0  0  0
  -33.1308  -19.0191   21.6104 H   0  0  0  0  0  0
  -29.9802  -20.9922   18.2320 H   0  0  0  0  0  0
  -31.4748  -21.1317   19.0550 H   0  0  0  0  0  0
  -30.3182  -22.1328   21.0583 H   0  0  0  0  0  0
  -28.7715  -21.9929   20.2439 H   0  0  0  0  0  0
  -29.7141  -24.4862   21.2266 H   0  0  0  0  0  0
  -30.5645  -25.3643   19.9842 H   0  0  0  0  0  0
  -27.5886  -24.7945   20.0606 H   0  0  0  0  0  0
  -28.3794  -25.3492   18.5858 H   0  0  0  0  0  0
  -29.0223  -15.2188   21.2878 H   0  0  0  0  0  0
  -29.6227  -23.4330   18.5051 H   0  0  0  0  0  0
  -31.0730  -23.4724   19.2118 H   0  0  0  0  0  0
  1 25  1  0  0  0
  1 30  2  0  0  0
  1 85  1  0  0  0
  2  3  1  0  0  0
  2 25  1  0  0  0
  2 87  1  0  0  0
  2 88  1  0  0  0
  3  4  1  0  0  0
  3 89  1  0  0  0
  3 90  1  0  0  0
  4  5  1  0  0  0
  4 91  1  0  0  0
  4 92  1  0  0  0
  5  6  1  0  0  0
  5 26  1  0  0  0
  5 93  1  0  0  0
  6 25  1  0  0  0
  6 94  1  0  0  0
  6 95  1  0  0  0
  7  8  2  0  0  0
  7 26  1  0  0  0
  7 29  1  0  0  0
  8  9  1  0  0  0
  8 22  1  0  0  0
  9 10  1  0  0  0
  9 27  2  0  0  0
 10 11  2  0  0  0
 10 15  1  0  0  0
 11 12  1  0  0  0
 11 96  1  0  0  0
 12 13  2  0  0  0
 12 97  1  0  0  0
 13 14  1  0  0  0
 13 31  1  0  0  0
 14 15  2  0  0  0
 14 98  1  0  0  0
 15 99  1  0  0  0
 16 17  2  0  0  0
 16 21  1  0  0  0
 16 31  1  0  0  0
 17 18  1  0  0  0
 17100  1  0  0  0
 18 19  2  0  0  0
 18101  1  0  0  0
 19 20  1  0  0  0
 19 24  1  0  0  0
 20 21  2  0  0  0
 20102  1  0  0  0
 21 23  1  0  0  0
 22 28  1  0  0  0
 22 32  2  0  0  0
 26 27  1  0  0  0
 28103  1  0  0  0
 28104  1  0  0  0
 29105  1  0  0  0
 29106  1  0  0  0
 33 34  1  0  0  0
 33 66  1  0  0  0
 33 70  2  0  0  0
 34 36  1  0  0  0
 34 59  1  0  0  0
 34107  1  0  0  0
 35 44  2  0  0  0
 35 45  1  0  0  0
 35 68  1  0  0  0
 36 56  1  0  0  0
 36108  1  0  0  0
 37 39  1  0  0  0
 37 47  1  0  0  0
 37 66  1  0  0  0
 37109  1  0  0  0
 38 43  2  0  0  0
 38 46  1  0  0  0
 38 47  1  0  0  0
 39 64  1  0  0  0
 39 67  2  0  0  0
 40 52  1  0  0  0
 40 53  2  0  0  0
 40 58  1  0  0  0
 41110  1  0  0  0
 41111  1  0  0  0
 41112  1  0  0  0
 41 48  1  0  0  0
 42 43  1  0  0  0
 42 66  1  0  0  0
 42113  1  0  0  0
 42114  1  0  0  0
 43 44  1  0  0  0
 44115  1  0  0  0
 45 46  2  0  0  0
 45116  1  0  0  0
 46117  1  0  0  0
 47118  1  0  0  0
 47119  1  0  0  0
 48 56  1  0  0  0
 48 65  1  0  0  0
 48120  1  0  0  0
 49 50  1  0  0  0
 49 53  1  0  0  0
 49 64  1  0  0  0
 49121  1  0  0  0
 50 51  1  0  0  0
 50122  1  0  0  0
 50123  1  0  0  0
 51 52  1  0  0  0
 51124  1  0  0  0
 51125  1  0  0  0
 52126  1  0  0  0
 52127  1  0  0  0
 53 54  1  0  0  0
 54 55  2  0  0  0
 54128  1  0  0  0
 55 57  1  0  0  0
 55129  1  0  0  0
 56 69  2  0  0  0
 57 58  2  0  0  0
 57130  1  0  0  0
 58131  1  0  0  0
 59 60  1  0  0  0
 59 61  1  0  0  0
 59 62  1  0  0  0
 60132  1  0  0  0
 60133  1  0  0  0
 60134  1  0  0  0
 61135  1  0  0  0
 61136  1  0  0  0
 61137  1  0  0  0
 62138  1  0  0  0
 62139  1  0  0  0
 62140  1  0  0  0
 63 65  1  0  0  0
 63141  1  0  0  0
 63142  1  0  0  0
 63143  1  0  0  0
 64144  1  0  0  0
 65145  1  0  0  0
 68 83  1  0  0  0
 71 72  2  0  0  0
 71 75  1  0  0  0
 71146  1  0  0  0
 72 73  1  0  0  0
 72 78  1  0  0  0
 73 74  2  0  0  0
 73 80  1  0  0  0
 74 79  1  0  0  0
 74 84  1  0  0  0
 75 84  2  0  0  0
 75 85  1  0  0  0
 76 77  1  0  0  0
 76 78  1  0  0  0
 76147  1  0  0  0
 76148  1  0  0  0
 77 78  1  0  0  0
 77149  1  0  0  0
 77150  1  0  0  0
 78151  1  0  0  0
 79152  1  0  0  0
 79153  1  0  0  0
 79154  1  0  0  0
 80 81  1  0  0  0
 80155  1  0  0  0
 80156  1  0  0  0
 81 86  1  0  0  0
 81157  1  0  0  0
 81158  1  0  0  0
 82 83  1  0  0  0
 82 86  1  0  0  0
 82159  1  0  0  0
 82160  1  0  0  0
 83161  1  0  0  0
 83162  1  0  0  0
 85163  1  0  0  0
 86164  1  0  0  0
 86165  1  0  0  0
M  CHG  1  86   1
M  ISO  4   1 100  68 101  83 101  85 100
M  END
> <chiral flag>
0

> <version>
0

> <s_m_source_file>
/data/baiqing/PycharmProjects/Reinvent-master-3.2/result/LINK_invent/BTK/process_docking_weight1_custom_sum_contain_oxygen_bond_distance_aromatic_linkinvent_7_9_3/rearranged_h_0153.sdf

> <i_m_source_file_index>
14

> <r_mmod_Potential_Energy-OPLS-2005>
-343.563537597656

> <r_mmod_Stretch_Energy-OPLS-2005>
37.8783073425293

> <r_mmod_Bend_Energy-OPLS-2005>
102.42301940918

> <r_mmod_Torsional_Energy-OPLS-2005>
255.645935058594

> <r_mmod_Improper_Torsional_Energy-OPLS-2005>
5.60028505325317

> <r_mmod_Van_der_Waal_Energy-OPLS-2005>
148.746490478516

> <r_mmod_Electrostatic_Energy-OPLS-2005>
-410.678131103516

> <r_mmod_Solvation_Energy-OPLS-2005>
-497.216857910156

> <b_mmod_Minimization_Converged-OPLS-2005>
0

> <r_mmod_RMS_Derivative-OPLS-2005>
1.38916838169098

$$$$
14
                    3D
 Structure written by MMmdl.
165174  0  0  1  0            999 V2000
  -30.6832  -14.5079   20.5241 C   0  0  0  0  0  0
  -30.4176  -12.3083   19.4398 C   0  0  0  0  0  0
  -29.4919  -12.4740   18.2163 C   0  0  0  0  0  0
  -28.0162  -12.3254   18.6343 C   0  0  0  0  0  0
  -27.6536  -13.2017   19.8642 C   0  0  2  0  0  0
  -28.6950  -13.0257   20.9939 C   0  0  0  0  0  0
  -25.2564  -13.8156   20.5702 C   0  0  0  0  0  0
  -24.1821  -13.0443   20.9202 C   0  0  0  0  0  0
  -24.6354  -11.6900   20.8734 C   0  0  0  0  0  0
  -23.9029  -10.4282   21.0391 C   0  0  0  0  0  0
  -24.3593   -9.4200   21.9165 C   0  0  0  0  0  0
  -23.6280   -8.2232   22.0736 C   0  0  0  0  0  0
  -22.4251   -8.0266   21.3547 C   0  0  0  0  0  0
  -21.9892   -9.0231   20.4643 C   0  0  0  0  0  0
  -22.7202  -10.2113   20.3055 C   0  0  0  0  0  0
  -21.6852   -6.0740   22.5287 C   0  0  0  0  0  0
  -21.4002   -6.5641   23.8221 C   0  0  0  0  0  0
  -21.3658   -5.6792   24.9178 C   0  0  0  0  0  0
  -21.6047   -4.3060   24.7222 C   0  0  0  0  0  0
  -21.8818   -3.8156   23.4338 C   0  0  0  0  0  0
  -21.9182   -4.6972   22.3397 C   0  0  0  0  0  0
  -22.7842  -13.5233   21.1866 C   0  0  0  0  0  0
  -22.1659   -4.2165   21.0971 F   0  0  0  0  0  0
  -21.5633   -3.4540   25.7730 F   0  0  0  0  0  0
  -30.0236  -13.3210   20.4342 N   0  0  0  0  0  0
  -26.2970  -12.9313   20.3329 N   0  0  0  0  0  0
  -25.9273  -11.6476   20.5762 N   0  0  0  0  0  0
  -22.0504  -12.8221   22.0424 N   0  0  0  0  0  0
  -25.4329  -15.1875   20.4142 N   0  0  0  0  0  0
  -31.8353  -14.6548   20.1078 O   0  0  0  0  0  0
  -21.6628   -6.8862   21.4235 O   0  0  0  0  0  0
  -22.3531  -14.5549   20.6714 O   0  0  0  0  0  0
  -24.6191  -31.8647   23.2124 C   0  0  0  0  0  0
  -25.9093  -32.4790   23.8410 C   0  0  1  0  0  0
  -27.2253  -27.4040   20.1006 C   0  0  0  0  0  0
  -25.5952  -33.8608   24.2301 N   0  0  0  0  0  0
  -23.4056  -30.4912   21.5547 C   0  0  2  0  0  0
  -24.8479  -28.9549   20.1182 C   0  0  0  0  0  0
  -22.7418  -29.4658   22.5023 C   0  0  0  0  0  0
  -18.0263  -28.1370   22.8498 C   0  0  0  0  0  0
  -24.1474  -36.7276   23.2635 C   0  0  0  0  0  0
  -25.9391  -30.8234   21.3668 C   0  0  0  0  0  0
  -26.0133  -29.4566   20.7113 C   0  0  0  0  0  0
  -27.2045  -28.6902   20.6978 C   0  0  0  0  0  0
  -26.0357  -26.9237   19.5063 C   0  0  0  0  0  0
  -24.8550  -27.6873   19.5146 C   0  0  0  0  0  0
  -23.6123  -29.8240   20.1694 C   0  0  0  0  0  0
  -25.4105  -36.3083   24.0319 C   0  0  1  0  0  0
  -20.5850  -28.3636   23.1316 C   0  0  2  0  0  0
  -20.6756  -26.9377   22.5402 C   0  0  0  0  0  0
  -19.5720  -26.6369   21.5215 C   0  0  0  0  0  0
  -18.1906  -26.7914   22.1643 C   0  0  0  0  0  0
  -19.1509  -28.8834   23.2896 C   0  0  0  0  0  0
  -18.9447  -30.1455   23.8866 C   0  0  0  0  0  0
  -17.6452  -30.6594   24.0534 C   0  0  0  0  0  0
  -25.9051  -34.9459   23.5090 C   0  0  0  0  0  0
  -16.5346  -29.9078   23.6352 C   0  0  0  0  0  0
  -16.7248  -28.6500   23.0358 C   0  0  0  0  0  0
  -26.4464  -31.6620   25.0787 C   0  0  0  0  0  0
  -25.3693  -31.3869   26.1547 C   0  0  0  0  0  0
  -27.0180  -30.2989   24.6264 C   0  0  0  0  0  0
  -27.6134  -32.4258   25.7493 C   0  0  0  0  0  0
  -27.5540  -37.1816   24.8480 C   0  0  0  0  0  0
  -21.4146  -29.3013   22.3755 N   0  0  0  0  0  0
  -26.4268  -37.3788   23.9408 N   0  0  0  0  0  0
  -24.6732  -31.0746   22.1012 N   0  0  0  0  0  0
  -23.4172  -28.8181   23.3068 O   0  0  0  0  0  0
  -28.3977  -26.6641   20.0781 O   0  0  0  0  0  0
  -26.5588  -34.8905   22.4635 O   0  0  0  0  0  0
  -23.5387  -32.1421   23.7510 O   0  0  0  0  0  0
  -28.0803  -24.3928   19.2061 C   0  0  0  0  0  0
  -28.0849  -22.9991   19.4396 C   0  0  0  0  0  0
  -28.4480  -22.5110   20.7260 C   0  0  0  0  0  0
  -28.7877  -23.4977   21.6991 C   0  0  0  0  0  0
  -28.3791  -25.2853   20.2504 C   0  0  0  0  0  0
  -29.5751  -19.2326   19.6300 C   0  0  0  0  0  0
  -29.5624  -19.0401   22.1729 C   0  0  0  0  0  0
  -29.2640  -17.7177   19.7615 C   0  0  0  0  0  0
  -30.4556  -17.7789   22.0189 C   0  0  0  0  0  0
  -29.5409  -20.0314   20.9692 C   0  0  2  0  0  0
  -30.2784  -17.0033   20.6875 C   0  0  1  0  0  0
  -27.6544  -22.0920   18.2987 C   0  0  0  0  0  0
  -29.1665  -23.1411   23.1252 C   0  0  0  0  0  0
  -28.3155  -21.0066   21.1090 C   0  0  0  0  0  0
  -28.7544  -24.8343   21.4648 N   0  0  0  0  0  0
  -29.9368  -15.5733   20.8942 N   0  0  0  0  0  0
  -31.4644  -12.3941   19.1441 H   0  0  0  0  0  0
  -30.3116  -11.3093   19.8670 H   0  0  0  0  0  0
  -29.7406  -11.7328   17.4544 H   0  0  0  0  0  0
  -29.6478  -13.4518   17.7593 H   0  0  0  0  0  0
  -27.8522  -11.2733   18.8740 H   0  0  0  0  0  0
  -27.3546  -12.5487   17.7959 H   0  0  0  0  0  0
  -27.6846  -14.2372   19.5272 H   0  0  0  0  0  0
  -28.6747  -12.0018   21.3707 H   0  0  0  0  0  0
  -28.4590  -13.6619   21.8478 H   0  0  0  0  0  0
  -25.2737   -9.5694   22.4741 H   0  0  0  0  0  0
  -24.0018   -7.4621   22.7436 H   0  0  0  0  0  0
  -21.0843   -8.8709   19.8943 H   0  0  0  0  0  0
  -22.3638  -10.9638   19.6171 H   0  0  0  0  0  0
  -21.1989   -7.6149   23.9724 H   0  0  0  0  0  0
  -21.1499   -6.0525   25.9082 H   0  0  0  0  0  0
  -22.0598   -2.7617   23.2829 H   0  0  0  0  0  0
  -22.4125  -11.9882   22.4823 H   0  0  0  0  0  0
  -21.1122  -13.1229   22.2652 H   0  0  0  0  0  0
  -24.6716  -15.8455   20.5381 H   0  0  0  0  0  0
  -26.2872  -15.6228   20.0930 H   0  0  0  0  0  0
  -26.7172  -32.5462   23.1181 H   0  0  0  0  0  0
  -25.0228  -33.9789   25.0534 H   0  0  0  0  0  0
  -22.6992  -31.3111   21.4134 H   0  0  0  0  0  0
  -23.3773  -35.9562   23.3240 H   0  0  0  0  0  0
  -24.3584  -36.8979   22.2064 H   0  0  0  0  0  0
  -23.7157  -37.6418   23.6715 H   0  0  0  0  0  0
  -26.0635  -31.5913   20.6011 H   0  0  0  0  0  0
  -26.8251  -30.8708   21.9902 H   0  0  0  0  0  0
  -28.1099  -29.0780   21.1444 H   0  0  0  0  0  0
  -25.9989  -25.9551   19.0319 H   0  0  0  0  0  0
  -23.9563  -27.2950   19.0564 H   0  0  0  0  0  0
  -23.7189  -30.5966   19.4076 H   0  0  0  0  0  0
  -22.7361  -29.2433   19.8757 H   0  0  0  0  0  0
  -25.1290  -36.1933   25.0809 H   0  0  0  0  0  0
  -20.9931  -28.3174   24.1433 H   0  0  0  0  0  0
  -20.5700  -26.2221   23.3571 H   0  0  0  0  0  0
  -21.6618  -26.7454   22.1144 H   0  0  0  0  0  0
  -19.6883  -25.6280   21.1248 H   0  0  0  0  0  0
  -19.6657  -27.3167   20.6732 H   0  0  0  0  0  0
  -17.4159  -26.6620   21.4067 H   0  0  0  0  0  0
  -18.0342  -26.0086   22.9075 H   0  0  0  0  0  0
  -19.7924  -30.7292   24.2195 H   0  0  0  0  0  0
  -17.5001  -31.6288   24.5101 H   0  0  0  0  0  0
  -15.5334  -30.2942   23.7726 H   0  0  0  0  0  0
  -15.8653  -28.0814   22.7071 H   0  0  0  0  0  0
  -24.5922  -30.7094   25.7983 H   0  0  0  0  0  0
  -24.8796  -32.3055   26.4795 H   0  0  0  0  0  0
  -25.8017  -30.9251   27.0435 H   0  0  0  0  0  0
  -26.2682  -29.6809   24.1295 H   0  0  0  0  0  0
  -27.3791  -29.7233   25.4804 H   0  0  0  0  0  0
  -27.8634  -30.4175   23.9478 H   0  0  0  0  0  0
  -27.3081  -33.3951   26.1439 H   0  0  0  0  0  0
  -28.4262  -32.6043   25.0440 H   0  0  0  0  0  0
  -28.0300  -31.8644   26.5868 H   0  0  0  0  0  0
  -28.2611  -38.0060   24.7471 H   0  0  0  0  0  0
  -28.0971  -36.2595   24.6380 H   0  0  0  0  0  0
  -27.2252  -37.1564   25.8882 H   0  0  0  0  0  0
  -20.9311  -29.8720   21.6960 H   0  0  0  0  0  0
  -26.0138  -38.2854   24.1414 H   0  0  0  0  0  0
  -27.8174  -24.7812   18.2329 H   0  0  0  0  0  0
  -28.9096  -19.6766   18.8931 H   0  0  0  0  0  0
  -30.5726  -19.3258   19.1967 H   0  0  0  0  0  0
  -29.8625  -19.5775   23.0726 H   0  0  0  0  0  0
  -28.5451  -18.6954   22.3636 H   0  0  0  0  0  0
  -29.2834  -17.2547   18.7721 H   0  0  0  0  0  0
  -28.2454  -17.5852   20.1295 H   0  0  0  0  0  0
  -30.2684  -17.1168   22.8659 H   0  0  0  0  0  0
  -31.5021  -18.0721   22.1167 H   0  0  0  0  0  0
  -30.4545  -20.6270   21.0266 H   0  0  0  0  0  0
  -31.2389  -17.0619   20.1718 H   0  0  0  0  0  0
  -27.0572  -22.6476   17.5734 H   0  0  0  0  0  0
  -27.0335  -21.2648   18.6336 H   0  0  0  0  0  0
  -28.5225  -21.6959   17.7716 H   0  0  0  0  0  0
  -29.8720  -22.3119   23.1527 H   0  0  0  0  0  0
  -28.2811  -22.8701   23.7019 H   0  0  0  0  0  0
  -29.6365  -23.9863   23.6298 H   0  0  0  0  0  0
  -27.4474  -20.5658   20.6207 H   0  0  0  0  0  0
  -28.0095  -21.0024   22.1551 H   0  0  0  0  0  0
  -29.0031  -15.3658   21.2164 H   0  0  0  0  0  0
  1 25  1  0  0  0
  1 30  2  0  0  0
  1 86  1  0  0  0
  2  3  1  0  0  0
  2 25  1  0  0  0
  2 87  1  0  0  0
  2 88  1  0  0  0
  3  4  1  0  0  0
  3 89  1  0  0  0
  3 90  1  0  0  0
  4  5  1  0  0  0
  4 91  1  0  0  0
  4 92  1  0  0  0
  5  6  1  0  0  0
  5 26  1  0  0  0
  5 93  1  0  0  0
  6 25  1  0  0  0
  6 94  1  0  0  0
  6 95  1  0  0  0
  7  8  2  0  0  0
  7 26  1  0  0  0
  7 29  1  0  0  0
  8  9  1  0  0  0
  8 22  1  0  0  0
  9 10  1  0  0  0
  9 27  2  0  0  0
 10 11  2  0  0  0
 10 15  1  0  0  0
 11 12  1  0  0  0
 11 96  1  0  0  0
 12 13  2  0  0  0
 12 97  1  0  0  0
 13 14  1  0  0  0
 13 31  1  0  0  0
 14 15  2  0  0  0
 14 98  1  0  0  0
 15 99  1  0  0  0
 16 17  2  0  0  0
 16 21  1  0  0  0
 16 31  1  0  0  0
 17 18  1  0  0  0
 17100  1  0  0  0
 18 19  2  0  0  0
 18101  1  0  0  0
 19 20  1  0  0  0
 19 24  1  0  0  0
 20 21  2  0  0  0
 20102  1  0  0  0
 21 23  1  0  0  0
 22 28  1  0  0  0
 22 32  2  0  0  0
 26 27  1  0  0  0
 28103  1  0  0  0
 28104  1  0  0  0
 29105  1  0  0  0
 29106  1  0  0  0
 33 34  1  0  0  0
 33 66  1  0  0  0
 33 70  2  0  0  0
 34 36  1  0  0  0
 34 59  1  0  0  0
 34107  1  0  0  0
 35 44  2  0  0  0
 35 45  1  0  0  0
 35 68  1  0  0  0
 36 56  1  0  0  0
 36108  1  0  0  0
 37 39  1  0  0  0
 37 47  1  0  0  0
 37 66  1  0  0  0
 37109  1  0  0  0
 38 43  2  0  0  0
 38 46  1  0  0  0
 38 47  1  0  0  0
 39 64  1  0  0  0
 39 67  2  0  0  0
 40 52  1  0  0  0
 40 53  2  0  0  0
 40 58  1  0  0  0
 41110  1  0  0  0
 41111  1  0  0  0
 41112  1  0  0  0
 41 48  1  0  0  0
 42 43  1  0  0  0
 42 66  1  0  0  0
 42113  1  0  0  0
 42114  1  0  0  0
 43 44  1  0  0  0
 44115  1  0  0  0
 45 46  2  0  0  0
 45116  1  0  0  0
 46117  1  0  0  0
 47118  1  0  0  0
 47119  1  0  0  0
 48 56  1  0  0  0
 48 65  1  0  0  0
 48120  1  0  0  0
 49 50  1  0  0  0
 49 53  1  0  0  0
 49 64  1  0  0  0
 49121  1  0  0  0
 50 51  1  0  0  0
 50122  1  0  0  0
 50123  1  0  0  0
 51 52  1  0  0  0
 51124  1  0  0  0
 51125  1  0  0  0
 52126  1  0  0  0
 52127  1  0  0  0
 53 54  1  0  0  0
 54 55  2  0  0  0
 54128  1  0  0  0
 55 57  1  0  0  0
 55129  1  0  0  0
 56 69  2  0  0  0
 57 58  2  0  0  0
 57130  1  0  0  0
 58131  1  0  0  0
 59 60  1  0  0  0
 59 61  1  0  0  0
 59 62  1  0  0  0
 60132  1  0  0  0
 60133  1  0  0  0
 60134  1  0  0  0
 61135  1  0  0  0
 61136  1  0  0  0
 61137  1  0  0  0
 62138  1  0  0  0
 62139  1  0  0  0
 62140  1  0  0  0
 63 65  1  0  0  0
 63141  1  0  0  0
 63142  1  0  0  0
 63143  1  0  0  0
 64144  1  0  0  0
 65145  1  0  0  0
 68 75  1  0  0  0
 71 72  2  0  0  0
 71 75  1  0  0  0
 71146  1  0  0  0
 72 73  1  0  0  0
 72 82  1  0  0  0
 73 74  2  0  0  0
 73 84  1  0  0  0
 74 83  1  0  0  0
 74 85  1  0  0  0
 75 85  2  0  0  0
 76 78  1  0  0  0
 76 80  1  0  0  0
 76147  1  0  0  0
 76148  1  0  0  0
 77 79  1  0  0  0
 77 80  1  0  0  0
 77149  1  0  0  0
 77150  1  0  0  0
 78 81  1  0  0  0
 78151  1  0  0  0
 78152  1  0  0  0
 79 81  1  0  0  0
 79153  1  0  0  0
 79154  1  0  0  0
 80 84  1  0  0  0
 80155  1  0  0  0
 81 86  1  0  0  0
 81156  1  0  0  0
 82157  1  0  0  0
 82158  1  0  0  0
 82159  1  0  0  0
 83160  1  0  0  0
 83161  1  0  0  0
 83162  1  0  0  0
 84163  1  0  0  0
 84164  1  0  0  0
 86165  1  0  0  0
M  ISO  4   1 100  68 101  75 101  86 100
M  END
> <chiral flag>
0

> <version>
0

> <s_m_source_file>
/data/baiqing/PycharmProjects/Reinvent-master-3.2/result/LINK_invent/BTK/process_docking_weight1_custom_sum_contain_oxygen_bond_distance_aromatic_linkinvent_7_9_3/rearranged_h_0153.sdf

> <i_m_source_file_index>
15

> <r_mmod_Potential_Energy-OPLS-2005>
-130.214218139648

> <r_mmod_Stretch_Energy-OPLS-2005>
47.8489112854004

> <r_mmod_Bend_Energy-OPLS-2005>
112.436637878418

> <r_mmod_Torsional_Energy-OPLS-2005>
258.778472900391

> <r_mmod_Improper_Torsional_Energy-OPLS-2005>
5.85392570495605

> <r_mmod_Van_der_Waal_Energy-OPLS-2005>
158.615921020508

> <r_mmod_Electrostatic_Energy-OPLS-2005>
-517.878662109375

> <r_mmod_Solvation_Energy-OPLS-2005>
-214.893890380859

> <b_mmod_Minimization_Converged-OPLS-2005>
0

> <r_mmod_RMS_Derivative-OPLS-2005>
3.42314457893372

$$$$
15
                    3D
 Structure written by MMmdl.
161170  0  0  1  0            999 V2000
  -30.7231  -14.5083   20.5688 C   0  0  0  0  0  0
  -30.4169  -12.3327   19.4378 C   0  0  0  0  0  0
  -29.4957  -12.5042   18.2140 C   0  0  0  0  0  0
  -28.0181  -12.3601   18.6261 C   0  0  0  0  0  0
  -27.6565  -13.2186   19.8683 C   0  0  2  0  0  0
  -28.6991  -13.0463   20.9962 C   0  0  0  0  0  0
  -25.2567  -13.8193   20.5701 C   0  0  0  0  0  0
  -24.1827  -13.0456   20.9178 C   0  0  0  0  0  0
  -24.6399  -11.6923   20.8736 C   0  0  0  0  0  0
  -23.9067  -10.4307   21.0410 C   0  0  0  0  0  0
  -24.3619   -9.4216   21.9178 C   0  0  0  0  0  0
  -23.6300   -8.2250   22.0752 C   0  0  0  0  0  0
  -22.4277   -8.0289   21.3548 C   0  0  0  0  0  0
  -21.9912   -9.0264   20.4647 C   0  0  0  0  0  0
  -22.7242  -10.2142   20.3058 C   0  0  0  0  0  0
  -21.6857   -6.0737   22.5280 C   0  0  0  0  0  0
  -21.4019   -6.5637   23.8213 C   0  0  0  0  0  0
  -21.3663   -5.6785   24.9170 C   0  0  0  0  0  0
  -21.6051   -4.3051   24.7221 C   0  0  0  0  0  0
  -21.8822   -3.8147   23.4341 C   0  0  0  0  0  0
  -21.9194   -4.6964   22.3398 C   0  0  0  0  0  0
  -22.7843  -13.5242   21.1839 C   0  0  0  0  0  0
  -22.1658   -4.2151   21.0975 F   0  0  0  0  0  0
  -21.5631   -3.4532   25.7732 F   0  0  0  0  0  0
  -30.0250  -13.3445   20.4351 N   0  0  0  0  0  0
  -26.3003  -12.9382   20.3349 N   0  0  0  0  0  0
  -25.9324  -11.6527   20.5757 N   0  0  0  0  0  0
  -22.0477  -12.8249   22.0405 N   0  0  0  0  0  0
  -25.4298  -15.1914   20.4144 N   0  0  0  0  0  0
  -31.8509  -14.6487   20.0910 O   0  0  0  0  0  0
  -21.6643   -6.8883   21.4245 O   0  0  0  0  0  0
  -22.3527  -14.5547   20.6683 O   0  0  0  0  0  0
  -24.6189  -31.8661   23.2073 C   0  0  0  0  0  0
  -25.9071  -32.4807   23.8376 C   0  0  1  0  0  0
  -27.2212  -27.3978   20.1082 C   0  0  0  0  0  0
  -25.5920  -33.8604   24.2312 N   0  0  0  0  0  0
  -23.4079  -30.4896   21.5493 C   0  0  2  0  0  0
  -24.8528  -28.9532   20.1107 C   0  0  0  0  0  0
  -22.7439  -29.4647   22.4977 C   0  0  0  0  0  0
  -18.0290  -28.1377   22.8498 C   0  0  0  0  0  0
  -24.1485  -36.7309   23.2636 C   0  0  0  0  0  0
  -25.9400  -30.8210   21.3646 C   0  0  0  0  0  0
  -26.0161  -29.4534   20.7099 C   0  0  0  0  0  0
  -27.2076  -28.6849   20.7009 C   0  0  0  0  0  0
  -26.0451  -26.9254   19.4901 C   0  0  0  0  0  0
  -24.8649  -27.6910   19.4930 C   0  0  0  0  0  0
  -23.6167  -29.8240   20.1630 C   0  0  0  0  0  0
  -25.4109  -36.3099   24.0332 C   0  0  1  0  0  0
  -20.5882  -28.3668   23.1319 C   0  0  2  0  0  0
  -20.6788  -26.9403   22.5420 C   0  0  0  0  0  0
  -19.5757  -26.6376   21.5225 C   0  0  0  0  0  0
  -18.1937  -26.7924   22.1633 C   0  0  0  0  0  0
  -19.1537  -28.8840   23.2905 C   0  0  0  0  0  0
  -18.9465  -30.1448   23.8910 C   0  0  0  0  0  0
  -17.6469  -30.6582   24.0574 C   0  0  0  0  0  0
  -25.9047  -34.9465   23.5119 C   0  0  0  0  0  0
  -16.5359  -29.9090   23.6332 C   0  0  0  0  0  0
  -16.7282  -28.6509   23.0349 C   0  0  0  0  0  0
  -26.4487  -31.6584   25.0710 C   0  0  0  0  0  0
  -25.3748  -31.3697   26.1454 C   0  0  0  0  0  0
  -27.0309  -30.3016   24.6103 C   0  0  0  0  0  0
  -27.6057  -32.4306   25.7476 C   0  0  0  0  0  0
  -27.5579  -37.1811   24.8467 C   0  0  0  0  0  0
  -21.4162  -29.3043   22.3733 N   0  0  0  0  0  0
  -26.4295  -37.3788   23.9407 N   0  0  0  0  0  0
  -24.6742  -31.0742   22.0985 N   0  0  0  0  0  0
  -23.4201  -28.8183   23.3022 O   0  0  0  0  0  0
  -28.3429  -26.5877   20.1322 O   0  0  0  0  0  0
  -26.5605  -34.8924   22.4676 O   0  0  0  0  0  0
  -23.5375  -32.1422   23.7458 O   0  0  0  0  0  0
  -28.3677  -19.1859   23.3573 C   0  0  0  0  0  0
  -28.3001  -20.3238   22.5309 C   0  0  0  0  0  0
  -29.7108  -19.2098   20.8935 C   0  0  0  0  0  0
  -29.1378  -18.0709   22.9761 C   0  0  0  0  0  0
  -29.7868  -18.0512   21.7228 C   0  0  0  0  0  0
  -29.0016  -20.3795   21.3000 C   0  0  0  0  0  0
  -29.3654  -16.9229   23.9476 C   0  0  0  0  0  0
  -30.8383  -16.4425   23.9728 C   0  0  0  0  0  0
  -31.6392  -16.7263   22.6766 C   0  0  0  0  0  0
  -30.7352  -16.8666   21.4313 C   0  0  1  0  0  0
  -28.7179  -24.0457   20.1828 C   0  0  0  0  0  0
  -28.1713  -25.3422   20.8616 C   0  0  0  0  0  0
  -28.5054  -22.7642   21.0528 C   0  0  0  0  0  0
  -30.0980  -15.5527   21.1604 N   0  0  0  0  0  0
  -29.0431  -21.5322   20.5100 O   0  0  0  0  0  0
  -31.4629  -12.4171   19.1365 H   0  0  0  0  0  0
  -30.3132  -11.3325   19.8616 H   0  0  0  0  0  0
  -29.7445  -11.7675   17.4488 H   0  0  0  0  0  0
  -29.6600  -13.4838   17.7627 H   0  0  0  0  0  0
  -27.8368  -11.3062   18.8382 H   0  0  0  0  0  0
  -27.3665  -12.6153   17.7890 H   0  0  0  0  0  0
  -27.6876  -14.2595   19.5452 H   0  0  0  0  0  0
  -28.6831  -12.0253   21.3808 H   0  0  0  0  0  0
  -28.4566  -13.6867   21.8459 H   0  0  0  0  0  0
  -25.2765   -9.5685   22.4741 H   0  0  0  0  0  0
  -24.0009   -7.4645   22.7470 H   0  0  0  0  0  0
  -21.0844   -8.8797   19.8952 H   0  0  0  0  0  0
  -22.3718  -10.9680   19.6165 H   0  0  0  0  0  0
  -21.2015   -7.6143   23.9721 H   0  0  0  0  0  0
  -21.1479   -6.0506   25.9072 H   0  0  0  0  0  0
  -22.0598   -2.7610   23.2839 H   0  0  0  0  0  0
  -22.4077  -11.9915   22.4816 H   0  0  0  0  0  0
  -21.1098  -13.1286   22.2604 H   0  0  0  0  0  0
  -24.6705  -15.8523   20.5381 H   0  0  0  0  0  0
  -26.2924  -15.6323   20.1213 H   0  0  0  0  0  0
  -26.7139  -32.5508   23.1137 H   0  0  0  0  0  0
  -25.0076  -33.9754   25.0461 H   0  0  0  0  0  0
  -22.6977  -31.3073   21.4122 H   0  0  0  0  0  0
  -23.3739  -35.9649   23.3311 H   0  0  0  0  0  0
  -24.3578  -36.8911   22.2048 H   0  0  0  0  0  0
  -23.7246  -37.6522   23.6645 H   0  0  0  0  0  0
  -26.0568  -31.5859   20.5955 H   0  0  0  0  0  0
  -26.8262  -30.8718   21.9861 H   0  0  0  0  0  0
  -28.1040  -29.0630   21.1721 H   0  0  0  0  0  0
  -26.0376  -25.9537   19.0160 H   0  0  0  0  0  0
  -23.9723  -27.3018   19.0232 H   0  0  0  0  0  0
  -23.7273  -30.6005   19.4052 H   0  0  0  0  0  0
  -22.7378  -29.2490   19.8666 H   0  0  0  0  0  0
  -25.1288  -36.1960   25.0827 H   0  0  0  0  0  0
  -20.9971  -28.3229   24.1438 H   0  0  0  0  0  0
  -20.5719  -26.2269   23.3602 H   0  0  0  0  0  0
  -21.6655  -26.7462   22.1196 H   0  0  0  0  0  0
  -19.6915  -25.6290   21.1247 H   0  0  0  0  0  0
  -19.6692  -27.3189   20.6758 H   0  0  0  0  0  0
  -17.4209  -26.6683   21.4030 H   0  0  0  0  0  0
  -18.0333  -26.0054   22.9017 H   0  0  0  0  0  0
  -19.7939  -30.7268   24.2275 H   0  0  0  0  0  0
  -17.5028  -31.6257   24.5184 H   0  0  0  0  0  0
  -15.5360  -30.2997   23.7657 H   0  0  0  0  0  0
  -15.8681  -28.0840   22.7052 H   0  0  0  0  0  0
  -24.5924  -30.7048   25.7791 H   0  0  0  0  0  0
  -24.8943  -32.2853   26.4912 H   0  0  0  0  0  0
  -25.8096  -30.8860   27.0209 H   0  0  0  0  0  0
  -26.2853  -29.6787   24.1157 H   0  0  0  0  0  0
  -27.4064  -29.7251   25.4566 H   0  0  0  0  0  0
  -27.8697  -30.4317   23.9258 H   0  0  0  0  0  0
  -27.2674  -33.3597   26.2079 H   0  0  0  0  0  0
  -28.3855  -32.6888   25.0296 H   0  0  0  0  0  0
  -28.0746  -31.8420   26.5373 H   0  0  0  0  0  0
  -28.2610  -38.0097   24.7508 H   0  0  0  0  0  0
  -28.1061  -36.2631   24.6298 H   0  0  0  0  0  0
  -27.2300  -37.1469   25.8871 H   0  0  0  0  0  0
  -20.9319  -29.8792   21.6981 H   0  0  0  0  0  0
  -26.0179  -38.2867   24.1397 H   0  0  0  0  0  0
  -27.8640  -19.1990   24.3143 H   0  0  0  0  0  0
  -27.7231  -21.1609   22.8941 H   0  0  0  0  0  0
  -30.2629  -19.2300   19.9639 H   0  0  0  0  0  0
  -28.7169  -16.0997   23.6458 H   0  0  0  0  0  0
  -29.0464  -17.1995   24.9540 H   0  0  0  0  0  0
  -30.8639  -15.3787   24.2119 H   0  0  0  0  0  0
  -31.3573  -16.9372   24.7963 H   0  0  0  0  0  0
  -32.4070  -15.9649   22.5325 H   0  0  0  0  0  0
  -32.1849  -17.6631   22.8041 H   0  0  0  0  0  0
  -31.3562  -17.1415   20.5759 H   0  0  0  0  0  0
  -29.7813  -24.1698   19.9781 H   0  0  0  0  0  0
  -28.2317  -23.9113   19.2163 H   0  0  0  0  0  0
  -28.6754  -25.4728   21.8196 H   0  0  0  0  0  0
  -27.1249  -25.1710   21.1210 H   0  0  0  0  0  0
  -27.4332  -22.6382   21.2151 H   0  0  0  0  0  0
  -28.9594  -22.9428   22.0289 H   0  0  0  0  0  0
  -29.1547  -15.4135   21.4856 H   0  0  0  0  0  0
  1 25  1  0  0  0
  1 30  2  0  0  0
  1 84  1  0  0  0
  2  3  1  0  0  0
  2 25  1  0  0  0
  2 86  1  0  0  0
  2 87  1  0  0  0
  3  4  1  0  0  0
  3 88  1  0  0  0
  3 89  1  0  0  0
  4  5  1  0  0  0
  4 90  1  0  0  0
  4 91  1  0  0  0
  5  6  1  0  0  0
  5 26  1  0  0  0
  5 92  1  0  0  0
  6 25  1  0  0  0
  6 93  1  0  0  0
  6 94  1  0  0  0
  7  8  2  0  0  0
  7 26  1  0  0  0
  7 29  1  0  0  0
  8  9  1  0  0  0
  8 22  1  0  0  0
  9 10  1  0  0  0
  9 27  2  0  0  0
 10 11  2  0  0  0
 10 15  1  0  0  0
 11 12  1  0  0  0
 11 95  1  0  0  0
 12 13  2  0  0  0
 12 96  1  0  0  0
 13 14  1  0  0  0
 13 31  1  0  0  0
 14 15  2  0  0  0
 14 97  1  0  0  0
 15 98  1  0  0  0
 16 17  2  0  0  0
 16 21  1  0  0  0
 16 31  1  0  0  0
 17 18  1  0  0  0
 17 99  1  0  0  0
 18 19  2  0  0  0
 18100  1  0  0  0
 19 20  1  0  0  0
 19 24  1  0  0  0
 20 21  2  0  0  0
 20101  1  0  0  0
 21 23  1  0  0  0
 22 28  1  0  0  0
 22 32  2  0  0  0
 26 27  1  0  0  0
 28102  1  0  0  0
 28103  1  0  0  0
 29104  1  0  0  0
 29105  1  0  0  0
 33 34  1  0  0  0
 33 66  1  0  0  0
 33 70  2  0  0  0
 34 36  1  0  0  0
 34 59  1  0  0  0
 34106  1  0  0  0
 35 44  2  0  0  0
 35 45  1  0  0  0
 35 68  1  0  0  0
 36 56  1  0  0  0
 36107  1  0  0  0
 37 39  1  0  0  0
 37 47  1  0  0  0
 37 66  1  0  0  0
 37108  1  0  0  0
 38 43  2  0  0  0
 38 46  1  0  0  0
 38 47  1  0  0  0
 39 64  1  0  0  0
 39 67  2  0  0  0
 40 52  1  0  0  0
 40 53  2  0  0  0
 40 58  1  0  0  0
 41109  1  0  0  0
 41110  1  0  0  0
 41111  1  0  0  0
 41 48  1  0  0  0
 42 43  1  0  0  0
 42 66  1  0  0  0
 42112  1  0  0  0
 42113  1  0  0  0
 43 44  1  0  0  0
 44114  1  0  0  0
 45 46  2  0  0  0
 45115  1  0  0  0
 46116  1  0  0  0
 47117  1  0  0  0
 47118  1  0  0  0
 48 56  1  0  0  0
 48 65  1  0  0  0
 48119  1  0  0  0
 49 50  1  0  0  0
 49 53  1  0  0  0
 49 64  1  0  0  0
 49120  1  0  0  0
 50 51  1  0  0  0
 50121  1  0  0  0
 50122  1  0  0  0
 51 52  1  0  0  0
 51123  1  0  0  0
 51124  1  0  0  0
 52125  1  0  0  0
 52126  1  0  0  0
 53 54  1  0  0  0
 54 55  2  0  0  0
 54127  1  0  0  0
 55 57  1  0  0  0
 55128  1  0  0  0
 56 69  2  0  0  0
 57 58  2  0  0  0
 57129  1  0  0  0
 58130  1  0  0  0
 59 60  1  0  0  0
 59 61  1  0  0  0
 59 62  1  0  0  0
 60131  1  0  0  0
 60132  1  0  0  0
 60133  1  0  0  0
 61134  1  0  0  0
 61135  1  0  0  0
 61136  1  0  0  0
 62137  1  0  0  0
 62138  1  0  0  0
 62139  1  0  0  0
 63 65  1  0  0  0
 63140  1  0  0  0
 63141  1  0  0  0
 63142  1  0  0  0
 64143  1  0  0  0
 65144  1  0  0  0
 68 82  1  0  0  0
 71 72  2  0  0  0
 71 74  1  0  0  0
 71145  1  0  0  0
 72 76  1  0  0  0
 72146  1  0  0  0
 73 75  1  0  0  0
 73 76  2  0  0  0
 73147  1  0  0  0
 74 75  2  0  0  0
 74 77  1  0  0  0
 75 80  1  0  0  0
 76 85  1  0  0  0
 77 78  1  0  0  0
 77148  1  0  0  0
 77149  1  0  0  0
 78 79  1  0  0  0
 78150  1  0  0  0
 78151  1  0  0  0
 79 80  1  0  0  0
 79152  1  0  0  0
 79153  1  0  0  0
 80 84  1  0  0  0
 80154  1  0  0  0
 81 82  1  0  0  0
 81 83  1  0  0  0
 81155  1  0  0  0
 81156  1  0  0  0
 82157  1  0  0  0
 82158  1  0  0  0
 83 85  1  0  0  0
 83159  1  0  0  0
 83160  1  0  0  0
 84161  1  0  0  0
M  ISO  4   1 100  68 101  82 101  84 100
M  END
> <chiral flag>
0

> <version>
0

> <s_m_source_file>
/data/baiqing/PycharmProjects/Reinvent-master-3.2/result/LINK_invent/BTK/process_docking_weight1_custom_sum_contain_oxygen_bond_distance_aromatic_linkinvent_7_9_3/rearranged_h_0153.sdf

> <i_m_source_file_index>
16

> <r_mmod_Potential_Energy-OPLS-2005>
-51.4729766845703

> <r_mmod_Stretch_Energy-OPLS-2005>
49.7946548461914

> <r_mmod_Bend_Energy-OPLS-2005>
109.048858642578

> <r_mmod_Torsional_Energy-OPLS-2005>
239.21696472168

> <r_mmod_Improper_Torsional_Energy-OPLS-2005>
3.70767211914062

> <r_mmod_Van_der_Waal_Energy-OPLS-2005>
160.608688354492

> <r_mmod_Electrostatic_Energy-OPLS-2005>
-430.089965820312

> <r_mmod_Solvation_Energy-OPLS-2005>
-204.654266357422

> <b_mmod_Minimization_Converged-OPLS-2005>
0

> <r_mmod_RMS_Derivative-OPLS-2005>
1.47907984256744

$$$$
16
                    3D
 Structure written by MMmdl.
164173  0  0  1  0            999 V2000
  -30.6765  -14.5137   20.5301 C   0  0  0  0  0  0
  -30.4276  -12.3233   19.4270 C   0  0  0  0  0  0
  -29.4975  -12.5065   18.2082 C   0  0  0  0  0  0
  -28.0204  -12.3559   18.6227 C   0  0  0  0  0  0
  -27.6591  -13.2078   19.8701 C   0  0  2  0  0  0
  -28.7034  -13.0142   20.9936 C   0  0  0  0  0  0
  -25.2579  -13.8161   20.5660 C   0  0  0  0  0  0
  -24.1826  -13.0436   20.9167 C   0  0  0  0  0  0
  -24.6387  -11.6907   20.8736 C   0  0  0  0  0  0
  -23.9052  -10.4289   21.0401 C   0  0  0  0  0  0
  -24.3611   -9.4212   21.9186 C   0  0  0  0  0  0
  -23.6290   -8.2246   22.0755 C   0  0  0  0  0  0
  -22.4279   -8.0276   21.3538 C   0  0  0  0  0  0
  -21.9902   -9.0246   20.4649 C   0  0  0  0  0  0
  -22.7223  -10.2129   20.3054 C   0  0  0  0  0  0
  -21.6850   -6.0733   22.5281 C   0  0  0  0  0  0
  -21.4010   -6.5637   23.8215 C   0  0  0  0  0  0
  -21.3660   -5.6798   24.9175 C   0  0  0  0  0  0
  -21.6042   -4.3056   24.7227 C   0  0  0  0  0  0
  -21.8824   -3.8143   23.4346 C   0  0  0  0  0  0
  -21.9194   -4.6957   22.3402 C   0  0  0  0  0  0
  -22.7849  -13.5241   21.1837 C   0  0  0  0  0  0
  -22.1664   -4.2142   21.0979 F   0  0  0  0  0  0
  -21.5629   -3.4538   25.7742 F   0  0  0  0  0  0
  -30.0297  -13.3199   20.4328 N   0  0  0  0  0  0
  -26.3006  -12.9326   20.3356 N   0  0  0  0  0  0
  -25.9302  -11.6493   20.5757 N   0  0  0  0  0  0
  -22.0486  -12.8232   22.0396 N   0  0  0  0  0  0
  -25.4297  -15.1874   20.4048 N   0  0  0  0  0  0
  -31.8376  -14.6721   20.1456 O   0  0  0  0  0  0
  -21.6635   -6.8873   21.4239 O   0  0  0  0  0  0
  -22.3541  -14.5548   20.6688 O   0  0  0  0  0  0
  -24.6191  -31.8664   23.2083 C   0  0  0  0  0  0
  -25.9073  -32.4815   23.8386 C   0  0  1  0  0  0
  -27.2285  -27.3933   20.0966 C   0  0  0  0  0  0
  -25.5930  -33.8612   24.2325 N   0  0  0  0  0  0
  -23.4068  -30.4913   21.5491 C   0  0  2  0  0  0
  -24.8501  -28.9519   20.1187 C   0  0  0  0  0  0
  -22.7425  -29.4662   22.4966 C   0  0  0  0  0  0
  -18.0284  -28.1376   22.8479 C   0  0  0  0  0  0
  -24.1506  -36.7314   23.2640 C   0  0  0  0  0  0
  -25.9424  -30.8167   21.3713 C   0  0  0  0  0  0
  -26.0149  -29.4502   20.7134 C   0  0  0  0  0  0
  -27.2042  -28.6806   20.6941 C   0  0  0  0  0  0
  -26.0363  -26.9174   19.5023 C   0  0  0  0  0  0
  -24.8586  -27.6864   19.5124 C   0  0  0  0  0  0
  -23.6179  -29.8266   20.1644 C   0  0  0  0  0  0
  -25.4135  -36.3108   24.0328 C   0  0  1  0  0  0
  -20.5877  -28.3676   23.1293 C   0  0  2  0  0  0
  -20.6780  -26.9407   22.5408 C   0  0  0  0  0  0
  -19.5767  -26.6376   21.5202 C   0  0  0  0  0  0
  -18.1941  -26.7919   22.1604 C   0  0  0  0  0  0
  -19.1533  -28.8843   23.2884 C   0  0  0  0  0  0
  -18.9459  -30.1444   23.8902 C   0  0  0  0  0  0
  -17.6464  -30.6584   24.0558 C   0  0  0  0  0  0
  -25.9057  -34.9464   23.5122 C   0  0  0  0  0  0
  -16.5356  -29.9084   23.6324 C   0  0  0  0  0  0
  -16.7269  -28.6497   23.0345 C   0  0  0  0  0  0
  -26.4488  -31.6609   25.0732 C   0  0  0  0  0  0
  -25.3732  -31.3720   26.1466 C   0  0  0  0  0  0
  -27.0350  -30.3048   24.6167 C   0  0  0  0  0  0
  -27.6052  -32.4337   25.7492 C   0  0  0  0  0  0
  -27.5594  -37.1829   24.8468 C   0  0  0  0  0  0
  -21.4154  -29.3042   22.3686 N   0  0  0  0  0  0
  -26.4323  -37.3789   23.9378 N   0  0  0  0  0  0
  -24.6735  -31.0755   22.0992 N   0  0  0  0  0  0
  -23.4185  -28.8201   23.3016 O   0  0  0  0  0  0
  -28.4155  -26.6714   20.0928 O   0  0  0  0  0  0
  -26.5601  -34.8911   22.4674 O   0  0  0  0  0  0
  -23.5379  -32.1428   23.7451 O   0  0  0  0  0  0
  -30.4390  -21.2712   20.7972 C   0  0  0  0  0  0
  -30.5178  -23.6731   19.9228 C   0  0  0  0  0  0
  -28.3956  -22.9083   21.0870 C   0  0  0  0  0  0
  -29.7905  -24.8525   19.2381 C   0  0  0  0  0  0
  -28.2064  -24.4552   21.2057 C   0  0  0  0  0  0
  -28.8243  -17.8049   20.9462 C   0  0  0  0  0  0
  -30.9791  -17.6246   19.8228 C   0  0  0  0  0  0
  -28.9672  -19.3500   21.0804 C   0  0  0  0  0  0
  -31.3072  -19.1050   20.1181 C   0  0  0  0  0  0
  -29.5996  -22.4489   20.2055 C   0  0  2  0  0  0
  -30.1506  -17.0154   20.9654 C   0  0  0  0  0  0
  -28.4376  -25.2330   19.8832 C   0  0  1  0  0  0
  -30.1616  -19.9767   20.4721 N   0  0  0  0  0  0
  -29.8918  -15.5535   20.8914 N   0  0  0  0  0  0
  -31.4583  -21.5514   21.4385 O   0  0  0  0  0  0
  -31.4704  -12.4293   19.1249 H   0  0  0  0  0  0
  -30.3343  -11.3153   19.8357 H   0  0  0  0  0  0
  -29.7459  -11.7838   17.4309 H   0  0  0  0  0  0
  -29.6560  -13.4920   17.7693 H   0  0  0  0  0  0
  -27.8417  -11.3002   18.8334 H   0  0  0  0  0  0
  -27.3672  -12.6135   17.7894 H   0  0  0  0  0  0
  -27.6947  -14.2495   19.5546 H   0  0  0  0  0  0
  -28.6830  -11.9851   21.3590 H   0  0  0  0  0  0
  -28.4671  -13.6364   21.8580 H   0  0  0  0  0  0
  -25.2762   -9.5685   22.4760 H   0  0  0  0  0  0
  -24.0001   -7.4632   22.7471 H   0  0  0  0  0  0
  -21.0841   -8.8766   19.8947 H   0  0  0  0  0  0
  -22.3693  -10.9668   19.6161 H   0  0  0  0  0  0
  -21.2002   -7.6148   23.9712 H   0  0  0  0  0  0
  -21.1477   -6.0525   25.9080 H   0  0  0  0  0  0
  -22.0601   -2.7605   23.2853 H   0  0  0  0  0  0
  -22.4114  -11.9909   22.4803 H   0  0  0  0  0  0
  -21.1102  -13.1243   22.2583 H   0  0  0  0  0  0
  -24.6567  -15.8390   20.4866 H   0  0  0  0  0  0
  -26.2800  -15.6229   20.0715 H   0  0  0  0  0  0
  -26.7137  -32.5522   23.1134 H   0  0  0  0  0  0
  -25.0118  -33.9772   25.0496 H   0  0  0  0  0  0
  -22.6984  -31.3105   21.4104 H   0  0  0  0  0  0
  -23.3760  -35.9659   23.3323 H   0  0  0  0  0  0
  -24.3599  -36.8911   22.2053 H   0  0  0  0  0  0
  -23.7262  -37.6520   23.6650 H   0  0  0  0  0  0
  -26.0833  -31.5851   20.6102 H   0  0  0  0  0  0
  -26.8179  -30.8527   22.0072 H   0  0  0  0  0  0
  -28.1060  -29.0669   21.1500 H   0  0  0  0  0  0
  -25.9726  -25.9603   19.0114 H   0  0  0  0  0  0
  -23.9616  -27.2974   19.0481 H   0  0  0  0  0  0
  -23.7380  -30.6022   19.4068 H   0  0  0  0  0  0
  -22.7382  -29.2561   19.8605 H   0  0  0  0  0  0
  -25.1321  -36.1973   25.0822 H   0  0  0  0  0  0
  -20.9983  -28.3258   24.1409 H   0  0  0  0  0  0
  -20.5705  -26.2291   23.3600 H   0  0  0  0  0  0
  -21.6650  -26.7469   22.1198 H   0  0  0  0  0  0
  -19.6935  -25.6286   21.1242 H   0  0  0  0  0  0
  -19.6702  -27.3169   20.6720 H   0  0  0  0  0  0
  -17.4215  -26.6653   21.4004 H   0  0  0  0  0  0
  -18.0352  -26.0067   22.9015 H   0  0  0  0  0  0
  -19.7945  -30.7245   24.2283 H   0  0  0  0  0  0
  -17.5028  -31.6267   24.5148 H   0  0  0  0  0  0
  -15.5359  -30.2982   23.7654 H   0  0  0  0  0  0
  -15.8671  -28.0810   22.7068 H   0  0  0  0  0  0
  -24.5875  -30.7130   25.7769 H   0  0  0  0  0  0
  -24.8983  -32.2892   26.4959 H   0  0  0  0  0  0
  -25.8053  -30.8822   27.0201 H   0  0  0  0  0  0
  -26.2926  -29.6763   24.1255 H   0  0  0  0  0  0
  -27.4138  -29.7342   25.4656 H   0  0  0  0  0  0
  -27.8747  -30.4361   23.9337 H   0  0  0  0  0  0
  -27.2658  -33.3605   26.2125 H   0  0  0  0  0  0
  -28.3822  -32.6952   25.0297 H   0  0  0  0  0  0
  -28.0779  -31.8448   26.5363 H   0  0  0  0  0  0
  -28.2637  -38.0103   24.7487 H   0  0  0  0  0  0
  -28.1064  -36.2632   24.6344 H   0  0  0  0  0  0
  -27.2305  -37.1530   25.8871 H   0  0  0  0  0  0
  -20.9320  -29.8761   21.6897 H   0  0  0  0  0  0
  -26.0217  -38.2880   24.1322 H   0  0  0  0  0  0
  -31.3799  -23.3854   19.3179 H   0  0  0  0  0  0
  -30.9365  -24.0308   20.8674 H   0  0  0  0  0  0
  -27.4835  -22.4809   20.6658 H   0  0  0  0  0  0
  -28.4701  -22.4842   22.0903 H   0  0  0  0  0  0
  -29.6248  -24.6043   18.1873 H   0  0  0  0  0  0
  -30.4554  -25.7181   19.2287 H   0  0  0  0  0  0
  -28.9022  -24.8342   21.9544 H   0  0  0  0  0  0
  -27.2094  -24.6707   21.5898 H   0  0  0  0  0  0
  -28.3059  -17.5923   20.0101 H   0  0  0  0  0  0
  -28.1566  -17.4440   21.7295 H   0  0  0  0  0  0
  -31.9243  -17.1045   19.6847 H   0  0  0  0  0  0
  -30.4459  -17.5378   18.8735 H   0  0  0  0  0  0
  -28.9904  -19.5836   22.1475 H   0  0  0  0  0  0
  -28.0686  -19.8303   20.6904 H   0  0  0  0  0  0
  -31.8204  -19.5267   19.2527 H   0  0  0  0  0  0
  -32.0368  -19.1238   20.9303 H   0  0  0  0  0  0
  -29.2131  -22.1073   19.2467 H   0  0  0  0  0  0
  -30.6678  -17.1950   21.9115 H   0  0  0  0  0  0
  -27.6877  -24.9038   19.1698 H   0  0  0  0  0  0
  -28.9627  -15.2769   21.1694 H   0  0  0  0  0  0
  1 25  1  0  0  0
  1 30  2  0  0  0
  1 84  1  0  0  0
  2  3  1  0  0  0
  2 25  1  0  0  0
  2 86  1  0  0  0
  2 87  1  0  0  0
  3  4  1  0  0  0
  3 88  1  0  0  0
  3 89  1  0  0  0
  4  5  1  0  0  0
  4 90  1  0  0  0
  4 91  1  0  0  0
  5  6  1  0  0  0
  5 26  1  0  0  0
  5 92  1  0  0  0
  6 25  1  0  0  0
  6 93  1  0  0  0
  6 94  1  0  0  0
  7  8  2  0  0  0
  7 26  1  0  0  0
  7 29  1  0  0  0
  8  9  1  0  0  0
  8 22  1  0  0  0
  9 10  1  0  0  0
  9 27  2  0  0  0
 10 11  2  0  0  0
 10 15  1  0  0  0
 11 12  1  0  0  0
 11 95  1  0  0  0
 12 13  2  0  0  0
 12 96  1  0  0  0
 13 14  1  0  0  0
 13 31  1  0  0  0
 14 15  2  0  0  0
 14 97  1  0  0  0
 15 98  1  0  0  0
 16 17  2  0  0  0
 16 21  1  0  0  0
 16 31  1  0  0  0
 17 18  1  0  0  0
 17 99  1  0  0  0
 18 19  2  0  0  0
 18100  1  0  0  0
 19 20  1  0  0  0
 19 24  1  0  0  0
 20 21  2  0  0  0
 20101  1  0  0  0
 21 23  1  0  0  0
 22 28  1  0  0  0
 22 32  2  0  0  0
 26 27  1  0  0  0
 28102  1  0  0  0
 28103  1  0  0  0
 29104  1  0  0  0
 29105  1  0  0  0
 33 34  1  0  0  0
 33 66  1  0  0  0
 33 70  2  0  0  0
 34 36  1  0  0  0
 34 59  1  0  0  0
 34106  1  0  0  0
 35 44  2  0  0  0
 35 45  1  0  0  0
 35 68  1  0  0  0
 36 56  1  0  0  0
 36107  1  0  0  0
 37 39  1  0  0  0
 37 47  1  0  0  0
 37 66  1  0  0  0
 37108  1  0  0  0
 38 43  2  0  0  0
 38 46  1  0  0  0
 38 47  1  0  0  0
 39 64  1  0  0  0
 39 67  2  0  0  0
 40 52  1  0  0  0
 40 53  2  0  0  0
 40 58  1  0  0  0
 41109  1  0  0  0
 41110  1  0  0  0
 41111  1  0  0  0
 41 48  1  0  0  0
 42 43  1  0  0  0
 42 66  1  0  0  0
 42112  1  0  0  0
 42113  1  0  0  0
 43 44  1  0  0  0
 44114  1  0  0  0
 45 46  2  0  0  0
 45115  1  0  0  0
 46116  1  0  0  0
 47117  1  0  0  0
 47118  1  0  0  0
 48 56  1  0  0  0
 48 65  1  0  0  0
 48119  1  0  0  0
 49 50  1  0  0  0
 49 53  1  0  0  0
 49 64  1  0  0  0
 49120  1  0  0  0
 50 51  1  0  0  0
 50121  1  0  0  0
 50122  1  0  0  0
 51 52  1  0  0  0
 51123  1  0  0  0
 51124  1  0  0  0
 52125  1  0  0  0
 52126  1  0  0  0
 53 54  1  0  0  0
 54 55  2  0  0  0
 54127  1  0  0  0
 55 57  1  0  0  0
 55128  1  0  0  0
 56 69  2  0  0  0
 57 58  2  0  0  0
 57129  1  0  0  0
 58130  1  0  0  0
 59 60  1  0  0  0
 59 61  1  0  0  0
 59 62  1  0  0  0
 60131  1  0  0  0
 60132  1  0  0  0
 60133  1  0  0  0
 61134  1  0  0  0
 61135  1  0  0  0
 61136  1  0  0  0
 62137  1  0  0  0
 62138  1  0  0  0
 62139  1  0  0  0
 63 65  1  0  0  0
 63140  1  0  0  0
 63141  1  0  0  0
 63142  1  0  0  0
 64143  1  0  0  0
 65144  1  0  0  0
 68 82  1  0  0  0
 71 83  1  0  0  0
 71 85  2  0  0  0
 71 80  1  0  0  0
 72 74  1  0  0  0
 72 80  1  0  0  0
 72145  1  0  0  0
 72146  1  0  0  0
 73 75  1  0  0  0
 73 80  1  0  0  0
 73147  1  0  0  0
 73148  1  0  0  0
 74 82  1  0  0  0
 74149  1  0  0  0
 74150  1  0  0  0
 75 82  1  0  0  0
 75151  1  0  0  0
 75152  1  0  0  0
 76 78  1  0  0  0
 76 81  1  0  0  0
 76153  1  0  0  0
 76154  1  0  0  0
 77 79  1  0  0  0
 77 81  1  0  0  0
 77155  1  0  0  0
 77156  1  0  0  0
 78 83  1  0  0  0
 78157  1  0  0  0
 78158  1  0  0  0
 79 83  1  0  0  0
 79159  1  0  0  0
 79160  1  0  0  0
 80161  1  0  0  0
 81 84  1  0  0  0
 81162  1  0  0  0
 82163  1  0  0  0
 84164  1  0  0  0
M  ISO  4   1 100  68 101  82 101  84 100
M  END
> <chiral flag>
0

> <version>
0

> <s_m_source_file>
/data/baiqing/PycharmProjects/Reinvent-master-3.2/result/LINK_invent/BTK/process_docking_weight1_custom_sum_contain_oxygen_bond_distance_aromatic_linkinvent_7_9_3/rearranged_h_0153.sdf

> <i_m_source_file_index>
17

> <r_mmod_Potential_Energy-OPLS-2005>
144.327331542969

> <r_mmod_Stretch_Energy-OPLS-2005>
49.5029945373535

> <r_mmod_Bend_Energy-OPLS-2005>
133.309875488281

> <r_mmod_Torsional_Energy-OPLS-2005>
353.438262939453

> <r_mmod_Improper_Torsional_Energy-OPLS-2005>
8.27150249481201

> <r_mmod_Van_der_Waal_Energy-OPLS-2005>
149.653671264648

> <r_mmod_Electrostatic_Energy-OPLS-2005>
-341.894500732422

> <r_mmod_Solvation_Energy-OPLS-2005>
-227.240753173828

> <b_mmod_Minimization_Converged-OPLS-2005>
0

> <r_mmod_RMS_Derivative-OPLS-2005>
3.6594705581665

$$$$
17
                    3D
 Structure written by MMmdl.
176185  0  0  1  0            999 V2000
  -30.7323  -14.4528   20.5330 C   0  0  0  0  0  0
  -30.4179  -12.2842   19.4152 C   0  0  0  0  0  0
  -29.4903  -12.4808   18.1986 C   0  0  0  0  0  0
  -28.0117  -12.3437   18.6158 C   0  0  0  0  0  0
  -27.6539  -13.1893   19.8678 C   0  0  2  0  0  0
  -28.7075  -13.0111   20.9861 C   0  0  0  0  0  0
  -25.2580  -13.8104   20.5702 C   0  0  0  0  0  0
  -24.1818  -13.0407   20.9192 C   0  0  0  0  0  0
  -24.6362  -11.6863   20.8758 C   0  0  0  0  0  0
  -23.9022  -10.4263   21.0421 C   0  0  0  0  0  0
  -24.3580   -9.4178   21.9196 C   0  0  0  0  0  0
  -23.6264   -8.2211   22.0750 C   0  0  0  0  0  0
  -22.4249   -8.0253   21.3546 C   0  0  0  0  0  0
  -21.9880   -9.0228   20.4649 C   0  0  0  0  0  0
  -22.7203  -10.2108   20.3060 C   0  0  0  0  0  0
  -21.6841   -6.0723   22.5279 C   0  0  0  0  0  0
  -21.4014   -6.5627   23.8216 C   0  0  0  0  0  0
  -21.3661   -5.6770   24.9168 C   0  0  0  0  0  0
  -21.6041   -4.3039   24.7218 C   0  0  0  0  0  0
  -21.8822   -3.8137   23.4333 C   0  0  0  0  0  0
  -21.9189   -4.6958   22.3401 C   0  0  0  0  0  0
  -22.7842  -13.5234   21.1820 C   0  0  0  0  0  0
  -22.1662   -4.2149   21.0972 F   0  0  0  0  0  0
  -21.5631   -3.4513   25.7731 F   0  0  0  0  0  0
  -30.0358  -13.2883   20.4169 N   0  0  0  0  0  0
  -26.2988  -12.9224   20.3367 N   0  0  0  0  0  0
  -25.9276  -11.6413   20.5792 N   0  0  0  0  0  0
  -22.0451  -12.8264   22.0377 N   0  0  0  0  0  0
  -25.4310  -15.1823   20.4141 N   0  0  0  0  0  0
  -31.9024  -14.5803   20.1649 O   0  0  0  0  0  0
  -21.6610   -6.8858   21.4241 O   0  0  0  0  0  0
  -22.3549  -14.5532   20.6639 O   0  0  0  0  0  0
  -24.6109  -31.8697   23.2120 C   0  0  0  0  0  0
  -25.9014  -32.4828   23.8405 C   0  0  1  0  0  0
  -27.2423  -27.4670   20.0780 C   0  0  0  0  0  0
  -25.5886  -33.8629   24.2341 N   0  0  0  0  0  0
  -23.3980  -30.4927   21.5500 C   0  0  2  0  0  0
  -24.8468  -28.9606   20.1124 C   0  0  0  0  0  0
  -22.7390  -29.4668   22.4990 C   0  0  0  0  0  0
  -18.0263  -28.1371   22.8494 C   0  0  0  0  0  0
  -24.1483  -36.7319   23.2637 C   0  0  0  0  0  0
  -25.9235  -30.8397   21.3644 C   0  0  0  0  0  0
  -26.0010  -29.4744   20.7159 C   0  0  0  0  0  0
  -27.1966  -28.7254   20.7137 C   0  0  0  0  0  0
  -26.0688  -26.9523   19.4847 C   0  0  0  0  0  0
  -24.8725  -27.6951   19.5005 C   0  0  0  0  0  0
  -23.6055  -29.8225   20.1642 C   0  0  0  0  0  0
  -25.4099  -36.3118   24.0344 C   0  0  1  0  0  0
  -20.5854  -28.3656   23.1325 C   0  0  2  0  0  0
  -20.6750  -26.9394   22.5421 C   0  0  0  0  0  0
  -19.5736  -26.6384   21.5209 C   0  0  0  0  0  0
  -18.1913  -26.7917   22.1619 C   0  0  0  0  0  0
  -19.1516  -28.8825   23.2905 C   0  0  0  0  0  0
  -18.9445  -30.1434   23.8914 C   0  0  0  0  0  0
  -17.6455  -30.6583   24.0563 C   0  0  0  0  0  0
  -25.9029  -34.9480   23.5138 C   0  0  0  0  0  0
  -16.5342  -29.9089   23.6325 C   0  0  0  0  0  0
  -16.7261  -28.6500   23.0350 C   0  0  0  0  0  0
  -26.4465  -31.6600   25.0720 C   0  0  0  0  0  0
  -25.3748  -31.3705   26.1485 C   0  0  0  0  0  0
  -27.0290  -30.3044   24.6079 C   0  0  0  0  0  0
  -27.6059  -32.4308   25.7462 C   0  0  0  0  0  0
  -27.5586  -37.1797   24.8458 C   0  0  0  0  0  0
  -21.4117  -29.3028   22.3730 N   0  0  0  0  0  0
  -26.4286  -37.3802   23.9423 N   0  0  0  0  0  0
  -24.6615  -31.0820   22.1004 N   0  0  0  0  0  0
  -23.4174  -28.8211   23.3022 O   0  0  0  0  0  0
  -28.4100  -26.7441   20.1002 O   0  0  0  0  0  0
  -26.5591  -34.8932   22.4704 O   0  0  0  0  0  0
  -23.5306  -32.1437   23.7532 O   0  0  0  0  0  0
  -31.3877  -21.5461   18.6267 C   0  0  0  0  0  0
  -29.9715  -21.6097   18.8244 C   0  0  0  0  0  0
  -31.8475  -20.4054   19.2263 C   0  0  0  0  0  0
  -29.6296  -20.5167   19.5964 C   0  0  0  0  0  0
  -30.2592  -17.3667   19.1291 C   0  0  0  0  0  0
  -30.2528  -17.9697   21.6125 C   0  0  0  0  0  0
  -29.3736  -16.2433   19.6942 C   0  0  0  0  0  0
  -30.4267  -16.4569   21.9296 C   0  0  0  0  0  0
  -30.8260  -18.3040   20.2141 C   0  0  0  0  0  0
  -32.2459  -22.5516   17.8852 C   0  0  0  0  0  0
  -33.2552  -19.8911   19.3280 C   0  0  0  0  0  0
  -28.3171  -20.1156   20.2068 C   0  0  0  0  0  0
  -27.7503  -22.2732   17.6326 C   0  0  0  0  0  0
  -29.7468  -25.0087   19.0954 C   0  0  0  0  0  0
  -28.9112  -26.2762   18.8497 C   0  0  0  0  0  0
  -29.0828  -22.7262   18.2603 C   0  0  1  0  0  0
  -30.7616  -19.7076   19.7433 N   0  0  0  0  0  0
  -30.0021  -15.5521   20.8333 N   0  0  0  0  0  0
  -28.8956  -23.7993   19.2616 N   0  3  0  0  0  0
  -31.4626  -12.3697   19.1102 H   0  0  0  0  0  0
  -30.3064  -11.2795   19.8276 H   0  0  0  0  0  0
  -29.7259  -11.7473   17.4255 H   0  0  0  0  0  0
  -29.6619  -13.4607   17.7506 H   0  0  0  0  0  0
  -27.8270  -11.2884   18.8194 H   0  0  0  0  0  0
  -27.3569  -12.6077   17.7838 H   0  0  0  0  0  0
  -27.6604  -14.2241   19.5470 H   0  0  0  0  0  0
  -28.6815  -11.9912   21.3753 H   0  0  0  0  0  0
  -28.4868  -13.6625   21.8335 H   0  0  0  0  0  0
  -25.2726   -9.5649   22.4758 H   0  0  0  0  0  0
  -23.9979   -7.4592   22.7450 H   0  0  0  0  0  0
  -21.0825   -8.8736   19.8947 H   0  0  0  0  0  0
  -22.3672  -10.9636   19.6152 H   0  0  0  0  0  0
  -21.2005   -7.6134   23.9719 H   0  0  0  0  0  0
  -21.1486   -6.0498   25.9073 H   0  0  0  0  0  0
  -22.0605   -2.7602   23.2820 H   0  0  0  0  0  0
  -22.4043  -11.9956   22.4832 H   0  0  0  0  0  0
  -21.1057  -13.1313   22.2516 H   0  0  0  0  0  0
  -24.6682  -15.8400   20.5348 H   0  0  0  0  0  0
  -26.2970  -15.6222   20.1306 H   0  0  0  0  0  0
  -26.7084  -32.5560   23.1172 H   0  0  0  0  0  0
  -25.0035  -33.9791   25.0481 H   0  0  0  0  0  0
  -22.6846  -31.3079   21.4108 H   0  0  0  0  0  0
  -23.3746  -35.9652   23.3298 H   0  0  0  0  0  0
  -24.3584  -36.8929   22.2053 H   0  0  0  0  0  0
  -23.7230  -37.6524   23.6643 H   0  0  0  0  0  0
  -26.0322  -31.6041   20.5935 H   0  0  0  0  0  0
  -26.8125  -30.8958   21.9807 H   0  0  0  0  0  0
  -28.0854  -29.1140   21.1909 H   0  0  0  0  0  0
  -26.0638  -25.9758   19.0238 H   0  0  0  0  0  0
  -23.9824  -27.2880   19.0416 H   0  0  0  0  0  0
  -23.7077  -30.5950   19.4012 H   0  0  0  0  0  0
  -22.7318  -29.2358   19.8739 H   0  0  0  0  0  0
  -25.1268  -36.1983   25.0834 H   0  0  0  0  0  0
  -20.9950  -28.3221   24.1444 H   0  0  0  0  0  0
  -20.5641  -26.2266   23.3606 H   0  0  0  0  0  0
  -21.6624  -26.7429   22.1227 H   0  0  0  0  0  0
  -19.6898  -25.6300   21.1227 H   0  0  0  0  0  0
  -19.6681  -27.3205   20.6747 H   0  0  0  0  0  0
  -17.4185  -26.6671   21.4016 H   0  0  0  0  0  0
  -18.0314  -26.0053   22.9011 H   0  0  0  0  0  0
  -19.7926  -30.7235   24.2295 H   0  0  0  0  0  0
  -17.5016  -31.6267   24.5160 H   0  0  0  0  0  0
  -15.5347  -30.3000   23.7637 H   0  0  0  0  0  0
  -15.8656  -28.0829   22.7062 H   0  0  0  0  0  0
  -24.5911  -30.7056   25.7834 H   0  0  0  0  0  0
  -24.8952  -32.2863   26.4952 H   0  0  0  0  0  0
  -25.8122  -30.8866   27.0227 H   0  0  0  0  0  0
  -26.2820  -29.6799   24.1166 H   0  0  0  0  0  0
  -27.4100  -29.7288   25.4525 H   0  0  0  0  0  0
  -27.8640  -30.4366   23.9194 H   0  0  0  0  0  0
  -27.2692  -33.3591   26.2090 H   0  0  0  0  0  0
  -28.3835  -32.6893   25.0260 H   0  0  0  0  0  0
  -28.0766  -31.8400   26.5330 H   0  0  0  0  0  0
  -28.2590  -38.0111   24.7548 H   0  0  0  0  0  0
  -28.1096  -36.2648   24.6221 H   0  0  0  0  0  0
  -27.2319  -37.1378   25.8864 H   0  0  0  0  0  0
  -20.9267  -29.8761   21.6969 H   0  0  0  0  0  0
  -26.0180  -38.2877   24.1452 H   0  0  0  0  0  0
  -29.6832  -17.9225   18.3882 H   0  0  0  0  0  0
  -31.0908  -16.9307   18.5740 H   0  0  0  0  0  0
  -30.7460  -18.5723   22.3759 H   0  0  0  0  0  0
  -29.1937  -18.1958   21.6911 H   0  0  0  0  0  0
  -29.1697  -15.5616   18.8680 H   0  0  0  0  0  0
  -28.4067  -16.6370   20.0095 H   0  0  0  0  0  0
  -29.8601  -16.2027   22.8263 H   0  0  0  0  0  0
  -31.4743  -16.2737   22.1798 H   0  0  0  0  0  0
  -31.8763  -18.0346   20.3088 H   0  0  0  0  0  0
  -31.7303  -22.9801   17.0272 H   0  0  0  0  0  0
  -33.1527  -22.0958   17.4901 H   0  0  0  0  0  0
  -32.5368  -23.3640   18.5514 H   0  0  0  0  0  0
  -33.9777  -20.5993   18.9243 H   0  0  0  0  0  0
  -33.3802  -18.9533   18.7864 H   0  0  0  0  0  0
  -33.5321  -19.7258   20.3698 H   0  0  0  0  0  0
  -27.4860  -20.7319   19.8938 H   0  0  0  0  0  0
  -28.3604  -20.2222   21.2900 H   0  0  0  0  0  0
  -28.0530  -19.0872   19.9677 H   0  0  0  0  0  0
  -27.9105  -21.4474   16.9383 H   0  0  0  0  0  0
  -27.3068  -23.0865   17.0588 H   0  0  0  0  0  0
  -26.9944  -21.9698   18.3490 H   0  0  0  0  0  0
  -30.3646  -25.1385   19.9848 H   0  0  0  0  0  0
  -30.4505  -24.8922   18.2717 H   0  0  0  0  0  0
  -28.1444  -26.0978   18.0949 H   0  0  0  0  0  0
  -29.5524  -27.0639   18.4515 H   0  0  0  0  0  0
  -29.6084  -23.1374   17.4020 H   0  0  0  0  0  0
  -27.9297  -24.0801   19.2573 H   0  0  0  0  0  0
  -29.0834  -23.3951   20.1657 H   0  0  0  0  0  0
  1 25  1  0  0  0
  1 30  2  0  0  0
  1 88  1  0  0  0
  2  3  1  0  0  0
  2 25  1  0  0  0
  2 90  1  0  0  0
  2 91  1  0  0  0
  3  4  1  0  0  0
  3 92  1  0  0  0
  3 93  1  0  0  0
  4  5  1  0  0  0
  4 94  1  0  0  0
  4 95  1  0  0  0
  5  6  1  0  0  0
  5 26  1  0  0  0
  5 96  1  0  0  0
  6 25  1  0  0  0
  6 97  1  0  0  0
  6 98  1  0  0  0
  7  8  2  0  0  0
  7 26  1  0  0  0
  7 29  1  0  0  0
  8  9  1  0  0  0
  8 22  1  0  0  0
  9 10  1  0  0  0
  9 27  2  0  0  0
 10 11  2  0  0  0
 10 15  1  0  0  0
 11 12  1  0  0  0
 11 99  1  0  0  0
 12 13  2  0  0  0
 12100  1  0  0  0
 13 14  1  0  0  0
 13 31  1  0  0  0
 14 15  2  0  0  0
 14101  1  0  0  0
 15102  1  0  0  0
 16 17  2  0  0  0
 16 21  1  0  0  0
 16 31  1  0  0  0
 17 18  1  0  0  0
 17103  1  0  0  0
 18 19  2  0  0  0
 18104  1  0  0  0
 19 20  1  0  0  0
 19 24  1  0  0  0
 20 21  2  0  0  0
 20105  1  0  0  0
 21 23  1  0  0  0
 22 28  1  0  0  0
 22 32  2  0  0  0
 26 27  1  0  0  0
 28106  1  0  0  0
 28107  1  0  0  0
 29108  1  0  0  0
 29109  1  0  0  0
 33 34  1  0  0  0
 33 66  1  0  0  0
 33 70  2  0  0  0
 34 36  1  0  0  0
 34 59  1  0  0  0
 34110  1  0  0  0
 35 44  2  0  0  0
 35 45  1  0  0  0
 35 68  1  0  0  0
 36 56  1  0  0  0
 36111  1  0  0  0
 37 39  1  0  0  0
 37 47  1  0  0  0
 37 66  1  0  0  0
 37112  1  0  0  0
 38 43  2  0  0  0
 38 46  1  0  0  0
 38 47  1  0  0  0
 39 64  1  0  0  0
 39 67  2  0  0  0
 40 52  1  0  0  0
 40 53  2  0  0  0
 40 58  1  0  0  0
 41113  1  0  0  0
 41114  1  0  0  0
 41115  1  0  0  0
 41 48  1  0  0  0
 42 43  1  0  0  0
 42 66  1  0  0  0
 42116  1  0  0  0
 42117  1  0  0  0
 43 44  1  0  0  0
 44118  1  0  0  0
 45 46  2  0  0  0
 45119  1  0  0  0
 46120  1  0  0  0
 47121  1  0  0  0
 47122  1  0  0  0
 48 56  1  0  0  0
 48 65  1  0  0  0
 48123  1  0  0  0
 49 50  1  0  0  0
 49 53  1  0  0  0
 49 64  1  0  0  0
 49124  1  0  0  0
 50 51  1  0  0  0
 50125  1  0  0  0
 50126  1  0  0  0
 51 52  1  0  0  0
 51127  1  0  0  0
 51128  1  0  0  0
 52129  1  0  0  0
 52130  1  0  0  0
 53 54  1  0  0  0
 54 55  2  0  0  0
 54131  1  0  0  0
 55 57  1  0  0  0
 55132  1  0  0  0
 56 69  2  0  0  0
 57 58  2  0  0  0
 57133  1  0  0  0
 58134  1  0  0  0
 59 60  1  0  0  0
 59 61  1  0  0  0
 59 62  1  0  0  0
 60135  1  0  0  0
 60136  1  0  0  0
 60137  1  0  0  0
 61138  1  0  0  0
 61139  1  0  0  0
 61140  1  0  0  0
 62141  1  0  0  0
 62142  1  0  0  0
 62143  1  0  0  0
 63 65  1  0  0  0
 63144  1  0  0  0
 63145  1  0  0  0
 63146  1  0  0  0
 64147  1  0  0  0
 65148  1  0  0  0
 68 85  1  0  0  0
 71 72  1  0  0  0
 71 73  2  0  0  0
 71 80  1  0  0  0
 72 74  2  0  0  0
 72 86  1  0  0  0
 73 81  1  0  0  0
 73 87  1  0  0  0
 74 82  1  0  0  0
 74 87  1  0  0  0
 75 77  1  0  0  0
 75 79  1  0  0  0
 75149  1  0  0  0
 75150  1  0  0  0
 76 78  1  0  0  0
 76 79  1  0  0  0
 76151  1  0  0  0
 76152  1  0  0  0
 77 88  1  0  0  0
 77153  1  0  0  0
 77154  1  0  0  0
 78 88  1  0  0  0
 78155  1  0  0  0
 78156  1  0  0  0
 79 87  1  0  0  0
 79157  1  0  0  0
 80158  1  0  0  0
 80159  1  0  0  0
 80160  1  0  0  0
 81161  1  0  0  0
 81162  1  0  0  0
 81163  1  0  0  0
 82164  1  0  0  0
 82165  1  0  0  0
 82166  1  0  0  0
 83167  1  0  0  0
 83168  1  0  0  0
 83169  1  0  0  0
 83 86  1  0  0  0
 84 85  1  0  0  0
 84 89  1  0  0  0
 84170  1  0  0  0
 84171  1  0  0  0
 85172  1  0  0  0
 85173  1  0  0  0
 86 89  1  0  0  0
 86174  1  0  0  0
 89175  1  0  0  0
 89176  1  0  0  0
M  CHG  1  89   1
M  ISO  4   1 100  68 101  85 101  88 100
M  END
> <chiral flag>
0

> <version>
0

> <s_m_source_file>
/data/baiqing/PycharmProjects/Reinvent-master-3.2/result/LINK_invent/BTK/process_docking_weight1_custom_sum_contain_oxygen_bond_distance_aromatic_linkinvent_7_9_3/rearranged_h_0153.sdf

> <i_m_source_file_index>
18

> <r_mmod_Potential_Energy-OPLS-2005>
64.4815139770508

> <r_mmod_Stretch_Energy-OPLS-2005>
39.8179969787598

> <r_mmod_Bend_Energy-OPLS-2005>
120.895767211914

> <r_mmod_Torsional_Energy-OPLS-2005>
405.892547607422

> <r_mmod_Improper_Torsional_Energy-OPLS-2005>
9.08328723907471

> <r_mmod_Van_der_Waal_Energy-OPLS-2005>
143.303863525391

> <r_mmod_Electrostatic_Energy-OPLS-2005>
-268.745422363281

> <r_mmod_Solvation_Energy-OPLS-2005>
-400.948822021484

> <b_mmod_Minimization_Converged-OPLS-2005>
0

> <r_mmod_RMS_Derivative-OPLS-2005>
2.14252877235413

$$$$
18
                    3D
 Structure written by MMmdl.
170179  0  0  1  0            999 V2000
  -30.6457  -14.8725   20.4571 C   0  0  0  0  0  0
  -30.4097  -12.5594   19.4957 C   0  0  0  0  0  0
  -29.5142  -12.5283   18.2453 C   0  0  0  0  0  0
  -28.0432  -12.3350   18.6525 C   0  0  0  0  0  0
  -27.6270  -13.2531   19.8335 C   0  0  2  0  0  0
  -28.6641  -13.2696   20.9740 C   0  0  0  0  0  0
  -25.2413  -13.8161   20.5367 C   0  0  0  0  0  0
  -24.1789  -13.0437   20.9107 C   0  0  0  0  0  0
  -24.6416  -11.6911   20.8854 C   0  0  0  0  0  0
  -23.9070  -10.4310   21.0611 C   0  0  0  0  0  0
  -24.3499   -9.4243   21.9442 C   0  0  0  0  0  0
  -23.6138   -8.2320   22.1024 C   0  0  0  0  0  0
  -22.4232   -8.0341   21.3695 C   0  0  0  0  0  0
  -21.9984   -9.0275   20.4704 C   0  0  0  0  0  0
  -22.7295  -10.2152   20.3137 C   0  0  0  0  0  0
  -21.6743   -6.0750   22.5343 C   0  0  0  0  0  0
  -21.3975   -6.5630   23.8308 C   0  0  0  0  0  0
  -21.3684   -5.6776   24.9265 C   0  0  0  0  0  0
  -21.6048   -4.3065   24.7268 C   0  0  0  0  0  0
  -21.8798   -3.8140   23.4379 C   0  0  0  0  0  0
  -21.9141   -4.6973   22.3446 C   0  0  0  0  0  0
  -22.7811  -13.5263   21.1792 C   0  0  0  0  0  0
  -22.1552   -4.2171   21.1003 F   0  0  0  0  0  0
  -21.5655   -3.4531   25.7772 F   0  0  0  0  0  0
  -29.9357  -13.6757   20.3681 N   0  0  0  0  0  0
  -26.2915  -12.9414   20.3220 N   0  0  0  0  0  0
  -25.9352  -11.6539   20.5820 N   0  0  0  0  0  0
  -22.0518  -12.8320   22.0418 N   0  0  0  0  0  0
  -25.4032  -15.1778   20.3263 N   0  0  0  0  0  0
  -31.8591  -14.7961   20.2491 O   0  0  0  0  0  0
  -21.6537   -6.8950   21.4336 O   0  0  0  0  0  0
  -22.3411  -14.5451   20.6516 O   0  0  0  0  0  0
  -24.6467  -31.8482   23.1873 C   0  0  0  0  0  0
  -25.9225  -32.4720   23.8287 C   0  0  1  0  0  0
  -27.2188  -27.1306   20.1618 C   0  0  0  0  0  0
  -25.5968  -33.8526   24.2217 N   0  0  0  0  0  0
  -23.4506  -30.4692   21.5312 C   0  0  2  0  0  0
  -24.9007  -28.8944   20.1244 C   0  0  0  0  0  0
  -22.7602  -29.4581   22.4826 C   0  0  0  0  0  0
  -18.0300  -28.1404   22.8477 C   0  0  0  0  0  0
  -24.1489  -36.7251   23.2640 C   0  0  0  0  0  0
  -26.0112  -30.7234   21.3878 C   0  0  0  0  0  0
  -26.0828  -29.3336   20.7330 C   0  0  0  0  0  0
  -27.2447  -28.4707   20.7286 C   0  0  0  0  0  0
  -25.9935  -26.7917   19.5443 C   0  0  0  0  0  0
  -24.8664  -27.6327   19.5208 C   0  0  0  0  0  0
  -23.6838  -29.8026   20.1524 C   0  0  0  0  0  0
  -25.4118  -36.3025   24.0309 C   0  0  1  0  0  0
  -20.5934  -28.3740   23.1217 C   0  0  2  0  0  0
  -20.6798  -26.9437   22.5394 C   0  0  0  0  0  0
  -19.5763  -26.6384   21.5213 C   0  0  0  0  0  0
  -18.1946  -26.7942   22.1627 C   0  0  0  0  0  0
  -19.1564  -28.8880   23.2845 C   0  0  0  0  0  0
  -18.9483  -30.1489   23.8847 C   0  0  0  0  0  0
  -17.6476  -30.6591   24.0573 C   0  0  0  0  0  0
  -25.9065  -34.9409   23.5056 C   0  0  0  0  0  0
  -16.5365  -29.9088   23.6355 C   0  0  0  0  0  0
  -16.7287  -28.6523   23.0348 C   0  0  0  0  0  0
  -26.4533  -31.6585   25.0725 C   0  0  0  0  0  0
  -25.3702  -31.3819   26.1408 C   0  0  0  0  0  0
  -27.0418  -30.2978   24.6315 C   0  0  0  0  0  0
  -27.6049  -32.4345   25.7545 C   0  0  0  0  0  0
  -27.5554  -37.1790   24.8456 C   0  0  0  0  0  0
  -21.4282  -29.3061   22.3568 N   0  0  0  0  0  0
  -26.4269  -37.3736   23.9405 N   0  0  0  0  0  0
  -24.7225  -31.0358   22.0901 N   0  0  0  0  0  0
  -23.4260  -28.8094   23.2945 O   0  0  0  0  0  0
  -28.2748  -26.1433   20.2251 O   0  0  0  0  0  0
  -26.5631  -34.8905   22.4619 O   0  0  0  0  0  0
  -23.5576  -32.1349   23.7075 O   0  0  0  0  0  0
  -27.9484  -19.3593   21.4347 C   0  0  0  0  0  0
  -29.0350  -18.5836   20.8709 C   0  0  0  0  0  0
  -26.9701  -18.5680   22.1423 C   0  0  0  0  0  0
  -29.0954  -17.0918   20.9599 C   0  0  0  0  0  0
  -27.1506  -17.1682   22.2342 C   0  0  0  0  0  0
  -30.1514  -19.4839   20.3194 C   0  0  0  0  0  0
  -29.7680  -20.9093   19.7134 C   0  0  0  0  0  0
  -27.8852  -20.9939   21.4030 C   0  0  0  0  0  0
  -25.7238  -19.1373   22.8376 C   0  0  0  0  0  0
  -28.3112  -21.4874   22.8012 C   0  0  0  0  0  0
  -26.4402  -21.4608   21.0912 C   0  0  0  0  0  0
  -27.7246  -24.3301   18.5717 C   0  0  0  0  0  0
  -29.0309  -23.3436   20.5627 C   0  0  0  0  0  0
  -28.0298  -24.6031   20.0586 C   0  0  1  0  0  0
  -28.1241  -16.4784   21.6428 N   0  0  0  0  0  0
  -26.3109  -16.3507   22.9750 N   0  0  0  0  0  0
  -30.1484  -16.1989   20.3937 N   0  0  0  0  0  0
  -28.7108  -21.7779   20.3713 N   0  3  1  0  0  0
  -31.4457  -12.6726   19.1771 H   0  0  0  0  0  0
  -30.3909  -11.6075   20.0299 H   0  0  0  0  0  0
  -29.8242  -11.7309   17.5676 H   0  0  0  0  0  0
  -29.6177  -13.4645   17.6967 H   0  0  0  0  0  0
  -27.9093  -11.2845   18.9208 H   0  0  0  0  0  0
  -27.3941  -12.5119   17.7962 H   0  0  0  0  0  0
  -27.5969  -14.2631   19.4214 H   0  0  0  0  0  0
  -28.7475  -12.2874   21.4395 H   0  0  0  0  0  0
  -28.3641  -13.9521   21.7686 H   0  0  0  0  0  0
  -25.2548   -9.5759   22.5120 H   0  0  0  0  0  0
  -23.9659   -7.4758   22.7912 H   0  0  0  0  0  0
  -21.0953   -8.8872   19.8940 H   0  0  0  0  0  0
  -22.3834  -10.9708   19.6241 H   0  0  0  0  0  0
  -21.2000   -7.6135   23.9914 H   0  0  0  0  0  0
  -21.1491   -6.0464   25.9182 H   0  0  0  0  0  0
  -22.0572   -2.7593   23.2924 H   0  0  0  0  0  0
  -22.4218  -12.0097   22.4945 H   0  0  0  0  0  0
  -21.1209  -13.1488   22.2631 H   0  0  0  0  0  0
  -24.6957  -15.8038   20.6940 H   0  0  0  0  0  0
  -26.3448  -15.5426   20.4507 H   0  0  0  0  0  0
  -26.7297  -32.5362   23.1031 H   0  0  0  0  0  0
  -25.0137  -33.9682   25.0373 H   0  0  0  0  0  0
  -22.7473  -31.2910   21.3754 H   0  0  0  0  0  0
  -23.3740  -35.9591   23.3315 H   0  0  0  0  0  0
  -24.3553  -36.8869   22.2044 H   0  0  0  0  0  0
  -23.7263  -37.6462   23.6671 H   0  0  0  0  0  0
  -26.1683  -31.4806   20.6185 H   0  0  0  0  0  0
  -26.8806  -30.7736   22.0295 H   0  0  0  0  0  0
  -28.1477  -28.8131   21.2181 H   0  0  0  0  0  0
  -25.8379  -25.8288   19.0971 H   0  0  0  0  0  0
  -23.9541  -27.2767   19.0593 H   0  0  0  0  0  0
  -23.8399  -30.5786   19.4026 H   0  0  0  0  0  0
  -22.7984  -29.2523   19.8301 H   0  0  0  0  0  0
  -25.1314  -36.1839   25.0798 H   0  0  0  0  0  0
  -21.0038  -28.3320   24.1343 H   0  0  0  0  0  0
  -20.5702  -26.2354   23.3621 H   0  0  0  0  0  0
  -21.6662  -26.7439   22.1184 H   0  0  0  0  0  0
  -19.6938  -25.6288   21.1268 H   0  0  0  0  0  0
  -19.6706  -27.3174   20.6729 H   0  0  0  0  0  0
  -17.4232  -26.6693   21.4025 H   0  0  0  0  0  0
  -18.0335  -26.0089   22.9020 H   0  0  0  0  0  0
  -19.7949  -30.7338   24.2193 H   0  0  0  0  0  0
  -17.5020  -31.6268   24.5187 H   0  0  0  0  0  0
  -15.5370  -30.2983   23.7688 H   0  0  0  0  0  0
  -15.8694  -28.0842   22.7061 H   0  0  0  0  0  0
  -24.5898  -30.7132   25.7763 H   0  0  0  0  0  0
  -24.8867  -32.3023   26.4700 H   0  0  0  0  0  0
  -25.7974  -30.9118   27.0273 H   0  0  0  0  0  0
  -26.3057  -29.6681   24.1302 H   0  0  0  0  0  0
  -27.4031  -29.7292   25.4900 H   0  0  0  0  0  0
  -27.8955  -30.4251   23.9647 H   0  0  0  0  0  0
  -27.2630  -33.3664   26.2078 H   0  0  0  0  0  0
  -28.3912  -32.6874   25.0415 H   0  0  0  0  0  0
  -28.0641  -31.8478   26.5519 H   0  0  0  0  0  0
  -28.2575  -38.0083   24.7472 H   0  0  0  0  0  0
  -28.1050  -36.2608   24.6323 H   0  0  0  0  0  0
  -27.2262  -37.1472   25.8856 H   0  0  0  0  0  0
  -20.9471  -29.8807   21.6781 H   0  0  0  0  0  0
  -26.0126  -38.2799   24.1409 H   0  0  0  0  0  0
  -30.6892  -18.9172   19.5592 H   0  0  0  0  0  0
  -30.8575  -19.6219   21.1387 H   0  0  0  0  0  0
  -29.4108  -20.7373   18.6994 H   0  0  0  0  0  0
  -30.6944  -21.4693   19.6054 H   0  0  0  0  0  0
  -25.9331  -19.9865   23.4855 H   0  0  0  0  0  0
  -25.2170  -18.4409   23.5032 H   0  0  0  0  0  0
  -24.9717  -19.3927   22.0892 H   0  0  0  0  0  0
  -27.8285  -20.9503   23.6084 H   0  0  0  0  0  0
  -28.0690  -22.5327   22.9587 H   0  0  0  0  0  0
  -29.3857  -21.3682   22.9396 H   0  0  0  0  0  0
  -25.7617  -21.4319   21.9328 H   0  0  0  0  0  0
  -26.0085  -20.8893   20.2695 H   0  0  0  0  0  0
  -26.3811  -22.4999   20.8034 H   0  0  0  0  0  0
  -28.3885  -23.5844   18.1324 H   0  0  0  0  0  0
  -27.8145  -25.2335   17.9674 H   0  0  0  0  0  0
  -26.7122  -23.9481   18.4552 H   0  0  0  0  0  0
  -29.3130  -23.5258   21.5937 H   0  0  0  0  0  0
  -29.9768  -23.5182   20.0501 H   0  0  0  0  0  0
  -27.1158  -24.4661   20.6262 H   0  0  0  0  0  0
  -26.5321  -15.3752   23.1206 H   0  0  0  0  0  0
  -25.5713  -16.7198   23.5532 H   0  0  0  0  0  0
  -30.9089  -16.7514   20.0412 H   0  0  0  0  0  0
  -28.0530  -21.7972   19.6083 H   0  0  0  0  0  0
  1 25  1  0  0  0
  1 30  2  0  0  0
  1 87  1  0  0  0
  2  3  1  0  0  0
  2 25  1  0  0  0
  2 89  1  0  0  0
  2 90  1  0  0  0
  3  4  1  0  0  0
  3 91  1  0  0  0
  3 92  1  0  0  0
  4  5  1  0  0  0
  4 93  1  0  0  0
  4 94  1  0  0  0
  5  6  1  0  0  0
  5 26  1  0  0  0
  5 95  1  0  0  0
  6 25  1  0  0  0
  6 96  1  0  0  0
  6 97  1  0  0  0
  7  8  2  0  0  0
  7 26  1  0  0  0
  7 29  1  0  0  0
  8  9  1  0  0  0
  8 22  1  0  0  0
  9 10  1  0  0  0
  9 27  2  0  0  0
 10 11  2  0  0  0
 10 15  1  0  0  0
 11 12  1  0  0  0
 11 98  1  0  0  0
 12 13  2  0  0  0
 12 99  1  0  0  0
 13 14  1  0  0  0
 13 31  1  0  0  0
 14 15  2  0  0  0
 14100  1  0  0  0
 15101  1  0  0  0
 16 17  2  0  0  0
 16 21  1  0  0  0
 16 31  1  0  0  0
 17 18  1  0  0  0
 17102  1  0  0  0
 18 19  2  0  0  0
 18103  1  0  0  0
 19 20  1  0  0  0
 19 24  1  0  0  0
 20 21  2  0  0  0
 20104  1  0  0  0
 21 23  1  0  0  0
 22 28  1  0  0  0
 22 32  2  0  0  0
 26 27  1  0  0  0
 28105  1  0  0  0
 28106  1  0  0  0
 29107  1  0  0  0
 29108  1  0  0  0
 33 34  1  0  0  0
 33 66  1  0  0  0
 33 70  2  0  0  0
 34 36  1  0  0  0
 34 59  1  0  0  0
 34109  1  0  0  0
 35 44  2  0  0  0
 35 45  1  0  0  0
 35 68  1  0  0  0
 36 56  1  0  0  0
 36110  1  0  0  0
 37 39  1  0  0  0
 37 47  1  0  0  0
 37 66  1  0  0  0
 37111  1  0  0  0
 38 43  2  0  0  0
 38 46  1  0  0  0
 38 47  1  0  0  0
 39 64  1  0  0  0
 39 67  2  0  0  0
 40 52  1  0  0  0
 40 53  2  0  0  0
 40 58  1  0  0  0
 41112  1  0  0  0
 41113  1  0  0  0
 41114  1  0  0  0
 41 48  1  0  0  0
 42 43  1  0  0  0
 42 66  1  0  0  0
 42115  1  0  0  0
 42116  1  0  0  0
 43 44  1  0  0  0
 44117  1  0  0  0
 45 46  2  0  0  0
 45118  1  0  0  0
 46119  1  0  0  0
 47120  1  0  0  0
 47121  1  0  0  0
 48 56  1  0  0  0
 48 65  1  0  0  0
 48122  1  0  0  0
 49 50  1  0  0  0
 49 53  1  0  0  0
 49 64  1  0  0  0
 49123  1  0  0  0
 50 51  1  0  0  0
 50124  1  0  0  0
 50125  1  0  0  0
 51 52  1  0  0  0
 51126  1  0  0  0
 51127  1  0  0  0
 52128  1  0  0  0
 52129  1  0  0  0
 53 54  1  0  0  0
 54 55  2  0  0  0
 54130  1  0  0  0
 55 57  1  0  0  0
 55131  1  0  0  0
 56 69  2  0  0  0
 57 58  2  0  0  0
 57132  1  0  0  0
 58133  1  0  0  0
 59 60  1  0  0  0
 59 61  1  0  0  0
 59 62  1  0  0  0
 60134  1  0  0  0
 60135  1  0  0  0
 60136  1  0  0  0
 61137  1  0  0  0
 61138  1  0  0  0
 61139  1  0  0  0
 62140  1  0  0  0
 62141  1  0  0  0
 62142  1  0  0  0
 63 65  1  0  0  0
 63143  1  0  0  0
 63144  1  0  0  0
 63145  1  0  0  0
 64146  1  0  0  0
 65147  1  0  0  0
 68 84  1  0  0  0
 71 72  1  0  0  0
 71 73  2  0  0  0
 71 78  1  0  0  0
 72 74  2  0  0  0
 72 76  1  0  0  0
 73 75  1  0  0  0
 73 79  1  0  0  0
 74 85  1  0  0  0
 74 87  1  0  0  0
 75 85  2  0  0  0
 75 86  1  0  0  0
 76 77  1  0  0  0
 76148  1  0  0  0
 76149  1  0  0  0
 77 88  1  0  0  0
 77150  1  0  0  0
 77151  1  0  0  0
 78 80  1  0  0  0
 78 81  1  0  0  0
 78 88  1  0  0  0
 79152  1  0  0  0
 79153  1  0  0  0
 79154  1  0  0  0
 80155  1  0  0  0
 80156  1  0  0  0
 80157  1  0  0  0
 81158  1  0  0  0
 81159  1  0  0  0
 81160  1  0  0  0
 82161  1  0  0  0
 82162  1  0  0  0
 82163  1  0  0  0
 82 84  1  0  0  0
 83 84  1  0  0  0
 83164  1  0  0  0
 83165  1  0  0  0
 83 88  1  0  0  0
 84166  1  0  0  0
 86167  1  0  0  0
 86168  1  0  0  0
 87169  1  0  0  0
 88170  1  0  0  0
M  CHG  1  88   1
M  ISO  4   1 100  68 101  84 101  87 100
M  END
> <chiral flag>
0

> <version>
0

> <s_m_source_file>
/data/baiqing/PycharmProjects/Reinvent-master-3.2/result/LINK_invent/BTK/process_docking_weight1_custom_sum_contain_oxygen_bond_distance_aromatic_linkinvent_7_9_3/rearranged_h_0153.sdf

> <i_m_source_file_index>
19

> <r_mmod_Potential_Energy-OPLS-2005>
187.231521606445

> <r_mmod_Stretch_Energy-OPLS-2005>
246.77946472168

> <r_mmod_Bend_Energy-OPLS-2005>
367.429046630859

> <r_mmod_Torsional_Energy-OPLS-2005>
300.271331787109

> <r_mmod_Improper_Torsional_Energy-OPLS-2005>
16.1776084899902

> <r_mmod_Van_der_Waal_Energy-OPLS-2005>
168.341369628906

> <r_mmod_Electrostatic_Energy-OPLS-2005>
-644.037109375

> <r_mmod_Solvation_Energy-OPLS-2005>
-439.812103271484

> <b_mmod_Minimization_Converged-OPLS-2005>
0

> <r_mmod_RMS_Derivative-OPLS-2005>
7.96904277801514

$$$$
19
                    3D
 Structure written by MMmdl.
168177  0  0  1  0            999 V2000
  -30.6931  -14.4757   20.5256 C   0  0  0  0  0  0
  -30.4199  -12.2922   19.4303 C   0  0  0  0  0  0
  -29.4961  -12.4841   18.2093 C   0  0  0  0  0  0
  -28.0145  -12.3558   18.6195 C   0  0  0  0  0  0
  -27.6565  -13.2051   19.8688 C   0  0  2  0  0  0
  -28.7000  -13.0101   20.9910 C   0  0  0  0  0  0
  -25.2579  -13.8156   20.5697 C   0  0  0  0  0  0
  -24.1827  -13.0433   20.9177 C   0  0  0  0  0  0
  -24.6379  -11.6903   20.8732 C   0  0  0  0  0  0
  -23.9042  -10.4293   21.0401 C   0  0  0  0  0  0
  -24.3597   -9.4214   21.9182 C   0  0  0  0  0  0
  -23.6283   -8.2243   22.0750 C   0  0  0  0  0  0
  -22.4265   -8.0276   21.3541 C   0  0  0  0  0  0
  -21.9894   -9.0245   20.4638 C   0  0  0  0  0  0
  -22.7217  -10.2130   20.3052 C   0  0  0  0  0  0
  -21.6846   -6.0734   22.5281 C   0  0  0  0  0  0
  -21.4010   -6.5634   23.8214 C   0  0  0  0  0  0
  -21.3662   -5.6782   24.9173 C   0  0  0  0  0  0
  -21.6050   -4.3048   24.7223 C   0  0  0  0  0  0
  -21.8824   -3.8146   23.4342 C   0  0  0  0  0  0
  -21.9187   -4.6963   22.3402 C   0  0  0  0  0  0
  -22.7851  -13.5233   21.1843 C   0  0  0  0  0  0
  -22.1648   -4.2152   21.0979 F   0  0  0  0  0  0
  -21.5639   -3.4534   25.7736 F   0  0  0  0  0  0
  -30.0272  -13.2951   20.4283 N   0  0  0  0  0  0
  -26.3000  -12.9316   20.3360 N   0  0  0  0  0  0
  -25.9304  -11.6479   20.5765 N   0  0  0  0  0  0
  -22.0492  -12.8228   22.0399 N   0  0  0  0  0  0
  -25.4316  -15.1874   20.4130 N   0  0  0  0  0  0
  -31.8730  -14.6104   20.1825 O   0  0  0  0  0  0
  -21.6629   -6.8877   21.4243 O   0  0  0  0  0  0
  -22.3538  -14.5543   20.6694 O   0  0  0  0  0  0
  -24.6149  -31.8677   23.2108 C   0  0  0  0  0  0
  -25.9047  -32.4815   23.8399 C   0  0  1  0  0  0
  -27.2315  -27.4393   20.0937 C   0  0  0  0  0  0
  -25.5913  -33.8610   24.2346 N   0  0  0  0  0  0
  -23.4006  -30.4914   21.5524 C   0  0  2  0  0  0
  -24.8436  -28.9558   20.1169 C   0  0  0  0  0  0
  -22.7402  -29.4661   22.5010 C   0  0  0  0  0  0
  -18.0263  -28.1372   22.8500 C   0  0  0  0  0  0
  -24.1481  -36.7301   23.2645 C   0  0  0  0  0  0
  -25.9272  -30.8369   21.3583 C   0  0  0  0  0  0
  -26.0050  -29.4717   20.7053 C   0  0  0  0  0  0
  -27.2029  -28.7236   20.6830 C   0  0  0  0  0  0
  -26.0502  -26.9322   19.5082 C   0  0  0  0  0  0
  -24.8614  -27.6857   19.5151 C   0  0  0  0  0  0
  -23.6059  -29.8221   20.1675 C   0  0  0  0  0  0
  -25.4103  -36.3101   24.0346 C   0  0  1  0  0  0
  -20.5856  -28.3654   23.1320 C   0  0  2  0  0  0
  -20.6755  -26.9393   22.5414 C   0  0  0  0  0  0
  -19.5731  -26.6380   21.5212 C   0  0  0  0  0  0
  -18.1909  -26.7922   22.1622 C   0  0  0  0  0  0
  -19.1515  -28.8830   23.2909 C   0  0  0  0  0  0
  -18.9447  -30.1445   23.8912 C   0  0  0  0  0  0
  -17.6451  -30.6588   24.0564 C   0  0  0  0  0  0
  -25.9033  -34.9466   23.5142 C   0  0  0  0  0  0
  -16.5340  -29.9087   23.6333 C   0  0  0  0  0  0
  -16.7254  -28.6496   23.0362 C   0  0  0  0  0  0
  -26.4490  -31.6582   25.0711 C   0  0  0  0  0  0
  -25.3776  -31.3634   26.1467 C   0  0  0  0  0  0
  -27.0336  -30.3046   24.6048 C   0  0  0  0  0  0
  -27.6067  -32.4294   25.7474 C   0  0  0  0  0  0
  -27.5580  -37.1799   24.8470 C   0  0  0  0  0  0
  -21.4133  -29.3030   22.3740 N   0  0  0  0  0  0
  -26.4287  -37.3791   23.9424 N   0  0  0  0  0  0
  -24.6667  -31.0789   22.0998 N   0  0  0  0  0  0
  -23.4170  -28.8213   23.3063 O   0  0  0  0  0  0
  -28.4119  -26.7262   20.0864 O   0  0  0  0  0  0
  -26.5586  -34.8916   22.4696 O   0  0  0  0  0  0
  -23.5346  -32.1423   23.7512 O   0  0  0  0  0  0
  -30.6684  -18.6221   17.4526 C   0  0  0  0  0  0
  -29.5352  -20.1029   19.0339 C   0  0  0  0  0  0
  -29.8565  -20.7777   16.7099 C   0  0  0  0  0  0
  -30.1749  -18.8650   18.7521 C   0  0  0  0  0  0
  -30.5182  -19.5729   16.4199 C   0  0  0  0  0  0
  -29.3757  -21.0678   18.0019 C   0  0  0  0  0  0
  -29.9425  -17.9418   21.2144 C   0  0  0  0  0  0
  -29.7768  -16.4107   19.4399 C   0  0  0  0  0  0
  -30.4180  -17.7589   19.7846 C   0  0  1  0  0  0
  -30.0458  -16.5072   21.7814 C   0  0  1  0  0  0
  -29.0142  -16.2426   22.8879 C   0  0  0  0  0  0
  -31.7500  -18.2355   14.8519 C   0  0  0  0  0  0
  -28.5329  -24.4475   19.1192 C   0  0  0  0  0  0
  -28.3464  -25.3216   20.3761 C   0  0  0  0  0  0
  -28.6911  -22.9347   19.4035 C   0  0  0  0  0  0
  -29.8997  -15.5713   20.6447 N   0  0  0  0  0  0
  -30.9833  -19.4008   15.1337 O   0  0  0  0  0  0
  -28.7609  -22.2952   18.1337 O   0  0  0  0  0  0
  -31.4675  -12.3814   19.1362 H   0  0  0  0  0  0
  -30.3092  -11.2884   19.8439 H   0  0  0  0  0  0
  -29.7336  -11.7487   17.4399 H   0  0  0  0  0  0
  -29.6712  -13.4632   17.7605 H   0  0  0  0  0  0
  -27.8211  -11.3019   18.8219 H   0  0  0  0  0  0
  -27.3674  -12.6254   17.7842 H   0  0  0  0  0  0
  -27.6880  -14.2485   19.5560 H   0  0  0  0  0  0
  -28.6708  -11.9884   21.3711 H   0  0  0  0  0  0
  -28.4738  -13.6526   21.8411 H   0  0  0  0  0  0
  -25.2743   -9.5701   22.4746 H   0  0  0  0  0  0
  -24.0009   -7.4635   22.7458 H   0  0  0  0  0  0
  -21.0833   -8.8751   19.8928 H   0  0  0  0  0  0
  -22.3677  -10.9660   19.6151 H   0  0  0  0  0  0
  -21.1997   -7.6139   23.9729 H   0  0  0  0  0  0
  -21.1475   -6.0503   25.9077 H   0  0  0  0  0  0
  -22.0603   -2.7608   23.2838 H   0  0  0  0  0  0
  -22.4083  -11.9867   22.4765 H   0  0  0  0  0  0
  -21.1116  -13.1268   22.2622 H   0  0  0  0  0  0
  -24.6710  -15.8485   20.5304 H   0  0  0  0  0  0
  -26.2977  -15.6245   20.1252 H   0  0  0  0  0  0
  -26.7111  -32.5526   23.1159 H   0  0  0  0  0  0
  -25.0092  -33.9771   25.0511 H   0  0  0  0  0  0
  -22.6906  -31.3095   21.4137 H   0  0  0  0  0  0
  -23.3747  -35.9628   23.3300 H   0  0  0  0  0  0
  -24.3581  -36.8923   22.2062 H   0  0  0  0  0  0
  -23.7218  -37.6497   23.6661 H   0  0  0  0  0  0
  -26.0344  -31.6037   20.5894 H   0  0  0  0  0  0
  -26.8173  -30.8920   21.9735 H   0  0  0  0  0  0
  -28.1033  -29.1238   21.1273 H   0  0  0  0  0  0
  -26.0365  -25.9610   19.0378 H   0  0  0  0  0  0
  -23.9678  -27.2827   19.0586 H   0  0  0  0  0  0
  -23.7124  -30.5961   19.4064 H   0  0  0  0  0  0
  -22.7292  -29.2422   19.8734 H   0  0  0  0  0  0
  -25.1276  -36.1966   25.0837 H   0  0  0  0  0  0
  -20.9942  -28.3207   24.1442 H   0  0  0  0  0  0
  -20.5660  -26.2264   23.3603 H   0  0  0  0  0  0
  -21.6625  -26.7439   22.1202 H   0  0  0  0  0  0
  -19.6897  -25.6292   21.1235 H   0  0  0  0  0  0
  -19.6673  -27.3200   20.6751 H   0  0  0  0  0  0
  -17.4186  -26.6687   21.4016 H   0  0  0  0  0  0
  -18.0302  -26.0048   22.9001 H   0  0  0  0  0  0
  -19.7927  -30.7259   24.2277 H   0  0  0  0  0  0
  -17.5006  -31.6271   24.5162 H   0  0  0  0  0  0
  -15.5343  -30.2995   23.7653 H   0  0  0  0  0  0
  -15.8649  -28.0819   22.7083 H   0  0  0  0  0  0
  -24.5972  -30.6962   25.7802 H   0  0  0  0  0  0
  -24.8941  -32.2758   26.4967 H   0  0  0  0  0  0
  -25.8162  -30.8777   27.0197 H   0  0  0  0  0  0
  -26.2859  -29.6761   24.1198 H   0  0  0  0  0  0
  -27.4259  -29.7318   25.4465 H   0  0  0  0  0  0
  -27.8621  -30.4408   23.9088 H   0  0  0  0  0  0
  -27.2708  -33.3605   26.2055 H   0  0  0  0  0  0
  -28.3882  -32.6835   25.0297 H   0  0  0  0  0  0
  -28.0730  -31.8407   26.5389 H   0  0  0  0  0  0
  -28.2581  -38.0114   24.7549 H   0  0  0  0  0  0
  -28.1095  -36.2646   24.6256 H   0  0  0  0  0  0
  -27.2300  -37.1394   25.8873 H   0  0  0  0  0  0
  -20.9302  -29.8742   21.6951 H   0  0  0  0  0  0
  -26.0172  -38.2864   24.1446 H   0  0  0  0  0  0
  -31.1718  -17.6843   17.2686 H   0  0  0  0  0  0
  -29.1639  -20.3058   20.0275 H   0  0  0  0  0  0
  -29.7343  -21.5100   15.9240 H   0  0  0  0  0  0
  -28.9047  -18.2789   21.2273 H   0  0  0  0  0  0
  -30.5406  -18.6652   21.7707 H   0  0  0  0  0  0
  -30.2270  -15.9646   18.5497 H   0  0  0  0  0  0
  -28.7158  -16.5382   19.2226 H   0  0  0  0  0  0
  -31.5009  -17.6177   19.8199 H   0  0  0  0  0  0
  -31.0462  -16.3878   22.2051 H   0  0  0  0  0  0
  -27.9947  -16.2845   22.5019 H   0  0  0  0  0  0
  -29.0977  -16.9882   23.6794 H   0  0  0  0  0  0
  -29.1609  -15.2662   23.3504 H   0  0  0  0  0  0
  -32.0718  -18.2545   13.8107 H   0  0  0  0  0  0
  -31.1657  -17.3261   14.9975 H   0  0  0  0  0  0
  -32.6469  -18.1899   15.4717 H   0  0  0  0  0  0
  -29.4144  -24.7916   18.5775 H   0  0  0  0  0  0
  -27.6918  -24.5955   18.4431 H   0  0  0  0  0  0
  -29.1554  -25.1106   21.0757 H   0  0  0  0  0  0
  -27.4276  -25.0537   20.9011 H   0  0  0  0  0  0
  -27.8403  -22.5491   19.9683 H   0  0  0  0  0  0
  -29.5957  -22.7559   19.9864 H   0  0  0  0  0  0
  1 25  1  0  0  0
  1 30  2  0  0  0
  1 86  1  0  0  0
  2  3  1  0  0  0
  2 25  1  0  0  0
  2 89  1  0  0  0
  2 90  1  0  0  0
  3  4  1  0  0  0
  3 91  1  0  0  0
  3 92  1  0  0  0
  4  5  1  0  0  0
  4 93  1  0  0  0
  4 94  1  0  0  0
  5  6  1  0  0  0
  5 26  1  0  0  0
  5 95  1  0  0  0
  6 25  1  0  0  0
  6 96  1  0  0  0
  6 97  1  0  0  0
  7  8  2  0  0  0
  7 26  1  0  0  0
  7 29  1  0  0  0
  8  9  1  0  0  0
  8 22  1  0  0  0
  9 10  1  0  0  0
  9 27  2  0  0  0
 10 11  2  0  0  0
 10 15  1  0  0  0
 11 12  1  0  0  0
 11 98  1  0  0  0
 12 13  2  0  0  0
 12 99  1  0  0  0
 13 14  1  0  0  0
 13 31  1  0  0  0
 14 15  2  0  0  0
 14100  1  0  0  0
 15101  1  0  0  0
 16 17  2  0  0  0
 16 21  1  0  0  0
 16 31  1  0  0  0
 17 18  1  0  0  0
 17102  1  0  0  0
 18 19  2  0  0  0
 18103  1  0  0  0
 19 20  1  0  0  0
 19 24  1  0  0  0
 20 21  2  0  0  0
 20104  1  0  0  0
 21 23  1  0  0  0
 22 28  1  0  0  0
 22 32  2  0  0  0
 26 27  1  0  0  0
 28105  1  0  0  0
 28106  1  0  0  0
 29107  1  0  0  0
 29108  1  0  0  0
 33 34  1  0  0  0
 33 66  1  0  0  0
 33 70  2  0  0  0
 34 36  1  0  0  0
 34 59  1  0  0  0
 34109  1  0  0  0
 35 44  2  0  0  0
 35 45  1  0  0  0
 35 68  1  0  0  0
 36 56  1  0  0  0
 36110  1  0  0  0
 37 39  1  0  0  0
 37 47  1  0  0  0
 37 66  1  0  0  0
 37111  1  0  0  0
 38 43  2  0  0  0
 38 46  1  0  0  0
 38 47  1  0  0  0
 39 64  1  0  0  0
 39 67  2  0  0  0
 40 52  1  0  0  0
 40 53  2  0  0  0
 40 58  1  0  0  0
 41112  1  0  0  0
 41113  1  0  0  0
 41114  1  0  0  0
 41 48  1  0  0  0
 42 43  1  0  0  0
 42 66  1  0  0  0
 42115  1  0  0  0
 42116  1  0  0  0
 43 44  1  0  0  0
 44117  1  0  0  0
 45 46  2  0  0  0
 45118  1  0  0  0
 46119  1  0  0  0
 47120  1  0  0  0
 47121  1  0  0  0
 48 56  1  0  0  0
 48 65  1  0  0  0
 48122  1  0  0  0
 49 50  1  0  0  0
 49 53  1  0  0  0
 49 64  1  0  0  0
 49123  1  0  0  0
 50 51  1  0  0  0
 50124  1  0  0  0
 50125  1  0  0  0
 51 52  1  0  0  0
 51126  1  0  0  0
 51127  1  0  0  0
 52128  1  0  0  0
 52129  1  0  0  0
 53 54  1  0  0  0
 54 55  2  0  0  0
 54130  1  0  0  0
 55 57  1  0  0  0
 55131  1  0  0  0
 56 69  2  0  0  0
 57 58  2  0  0  0
 57132  1  0  0  0
 58133  1  0  0  0
 59 60  1  0  0  0
 59 61  1  0  0  0
 59 62  1  0  0  0
 60134  1  0  0  0
 60135  1  0  0  0
 60136  1  0  0  0
 61137  1  0  0  0
 61138  1  0  0  0
 61139  1  0  0  0
 62140  1  0  0  0
 62141  1  0  0  0
 62142  1  0  0  0
 63 65  1  0  0  0
 63143  1  0  0  0
 63144  1  0  0  0
 63145  1  0  0  0
 64146  1  0  0  0
 65147  1  0  0  0
 68 84  1  0  0  0
 71 74  2  0  0  0
 71 75  1  0  0  0
 71148  1  0  0  0
 72 74  1  0  0  0
 72 76  2  0  0  0
 72149  1  0  0  0
 73 75  2  0  0  0
 73 76  1  0  0  0
 73150  1  0  0  0
 74 79  1  0  0  0
 75 87  1  0  0  0
 76 88  1  0  0  0
 77 79  1  0  0  0
 77 80  1  0  0  0
 77151  1  0  0  0
 77152  1  0  0  0
 78 79  1  0  0  0
 78 86  1  0  0  0
 78153  1  0  0  0
 78154  1  0  0  0
 79155  1  0  0  0
 80 81  1  0  0  0
 80 86  1  0  0  0
 80156  1  0  0  0
 81157  1  0  0  0
 81158  1  0  0  0
 81159  1  0  0  0
 82 87  1  0  0  0
 82160  1  0  0  0
 82161  1  0  0  0
 82162  1  0  0  0
 83 84  1  0  0  0
 83 85  1  0  0  0
 83163  1  0  0  0
 83164  1  0  0  0
 84165  1  0  0  0
 84166  1  0  0  0
 85 88  1  0  0  0
 85167  1  0  0  0
 85168  1  0  0  0
M  ISO  4   1 100  68 101  84 101  86 100
M  END
> <chiral flag>
0

> <version>
0

> <s_m_source_file>
/data/baiqing/PycharmProjects/Reinvent-master-3.2/result/LINK_invent/BTK/process_docking_weight1_custom_sum_contain_oxygen_bond_distance_aromatic_linkinvent_7_9_3/rearranged_h_0153.sdf

> <i_m_source_file_index>
20

> <r_mmod_Potential_Energy-OPLS-2005>
214.95068359375

> <r_mmod_Stretch_Energy-OPLS-2005>
38.6233863830566

> <r_mmod_Bend_Energy-OPLS-2005>
152.447143554688

> <r_mmod_Torsional_Energy-OPLS-2005>
342.565826416016

> <r_mmod_Improper_Torsional_Energy-OPLS-2005>
14.9470510482788

> <r_mmod_Van_der_Waal_Energy-OPLS-2005>
147.894226074219

> <r_mmod_Electrostatic_Energy-OPLS-2005>
-297.837249755859

> <r_mmod_Solvation_Energy-OPLS-2005>
-199.731582641602

> <b_mmod_Minimization_Converged-OPLS-2005>
0

> <r_mmod_RMS_Derivative-OPLS-2005>
1.17119264602661

$$$$
20
                    3D
 Structure written by MMmdl.
180190  0  0  1  0            999 V2000
  -30.7277  -14.4407   20.3940 C   0  0  0  0  0  0
  -30.3998  -12.2455   19.4184 C   0  0  0  0  0  0
  -29.4790  -12.4278   18.1939 C   0  0  0  0  0  0
  -27.9991  -12.3352   18.6150 C   0  0  0  0  0  0
  -27.6502  -13.2133   19.8501 C   0  0  2  0  0  0
  -28.7052  -13.0745   20.9711 C   0  0  0  0  0  0
  -25.2571  -13.8186   20.5721 C   0  0  0  0  0  0
  -24.1845  -13.0447   20.9197 C   0  0  0  0  0  0
  -24.6407  -11.6914   20.8757 C   0  0  0  0  0  0
  -23.9079  -10.4299   21.0420 C   0  0  0  0  0  0
  -24.3629   -9.4208   21.9193 C   0  0  0  0  0  0
  -23.6313   -8.2238   22.0742 C   0  0  0  0  0  0
  -22.4290   -8.0290   21.3539 C   0  0  0  0  0  0
  -21.9925   -9.0255   20.4638 C   0  0  0  0  0  0
  -22.7253  -10.2138   20.3060 C   0  0  0  0  0  0
  -21.6846   -6.0763   22.5296 C   0  0  0  0  0  0
  -21.4016   -6.5662   23.8234 C   0  0  0  0  0  0
  -21.3654   -5.6805   24.9186 C   0  0  0  0  0  0
  -21.6033   -4.3067   24.7236 C   0  0  0  0  0  0
  -21.8813   -3.8172   23.4353 C   0  0  0  0  0  0
  -21.9187   -4.6990   22.3416 C   0  0  0  0  0  0
  -22.7865  -13.5213   21.1862 C   0  0  0  0  0  0
  -22.1650   -4.2176   21.0989 F   0  0  0  0  0  0
  -21.5617   -3.4551   25.7750 F   0  0  0  0  0  0
  -30.0298  -13.2850   20.3801 N   0  0  0  0  0  0
  -26.2994  -12.9368   20.3340 N   0  0  0  0  0  0
  -25.9328  -11.6522   20.5789 N   0  0  0  0  0  0
  -22.0513  -12.8197   22.0416 N   0  0  0  0  0  0
  -25.4286  -15.1915   20.4166 N   0  0  0  0  0  0
  -31.9580  -14.4695   20.4327 O   0  0  0  0  0  0
  -21.6631   -6.8904   21.4260 O   0  0  0  0  0  0
  -22.3543  -14.5518   20.6710 O   0  0  0  0  0  0
  -24.6072  -31.8730   23.2135 C   0  0  0  0  0  0
  -25.8992  -32.4854   23.8417 C   0  0  1  0  0  0
  -27.2487  -27.5009   20.0901 C   0  0  0  0  0  0
  -25.5880  -33.8646   24.2362 N   0  0  0  0  0  0
  -23.3928  -30.4936   21.5511 C   0  0  2  0  0  0
  -24.8419  -28.9593   20.1250 C   0  0  0  0  0  0
  -22.7373  -29.4683   22.5025 C   0  0  0  0  0  0
  -18.0266  -28.1376   22.8500 C   0  0  0  0  0  0
  -24.1488  -36.7328   23.2637 C   0  0  0  0  0  0
  -25.9112  -30.8599   21.3539 C   0  0  0  0  0  0
  -25.9941  -29.4934   20.7137 C   0  0  0  0  0  0
  -27.1994  -28.7693   20.7025 C   0  0  0  0  0  0
  -26.0758  -26.9482   19.5376 C   0  0  0  0  0  0
  -24.8725  -27.6798   19.5394 C   0  0  0  0  0  0
  -23.5994  -29.8174   20.1681 C   0  0  0  0  0  0
  -25.4103  -36.3129   24.0349 C   0  0  1  0  0  0
  -20.5848  -28.3652   23.1341 C   0  0  2  0  0  0
  -20.6763  -26.9399   22.5422 C   0  0  0  0  0  0
  -19.5742  -26.6389   21.5216 C   0  0  0  0  0  0
  -18.1914  -26.7926   22.1625 C   0  0  0  0  0  0
  -19.1514  -28.8832   23.2920 C   0  0  0  0  0  0
  -18.9441  -30.1441   23.8927 C   0  0  0  0  0  0
  -17.6446  -30.6583   24.0566 C   0  0  0  0  0  0
  -25.9022  -34.9491   23.5155 C   0  0  0  0  0  0
  -16.5338  -29.9086   23.6325 C   0  0  0  0  0  0
  -16.7258  -28.6503   23.0347 C   0  0  0  0  0  0
  -26.4455  -31.6601   25.0707 C   0  0  0  0  0  0
  -25.3755  -31.3669   26.1476 C   0  0  0  0  0  0
  -27.0264  -30.3059   24.6004 C   0  0  0  0  0  0
  -27.6052  -32.4295   25.7464 C   0  0  0  0  0  0
  -27.5591  -37.1814   24.8465 C   0  0  0  0  0  0
  -21.4109  -29.3030   22.3763 N   0  0  0  0  0  0
  -26.4300  -37.3804   23.9414 N   0  0  0  0  0  0
  -24.6548  -31.0886   22.1003 N   0  0  0  0  0  0
  -23.4169  -28.8243   23.3060 O   0  0  0  0  0  0
  -28.4277  -26.8088   19.9996 O   0  0  0  0  0  0
  -26.5574  -34.8935   22.4708 O   0  0  0  0  0  0
  -23.5283  -32.1445   23.7572 O   0  0  0  0  0  0
  -29.7549  -19.0308   17.6931 C   0  0  0  0  0  0
  -29.2827  -21.3391   19.1805 C   0  0  0  0  0  0
  -29.8896  -18.9868   19.1009 C   0  0  0  0  0  0
  -29.3366  -21.4239   17.7693 C   0  0  0  0  0  0
  -29.5096  -20.2396   17.0181 C   0  0  0  0  0  0
  -29.5641  -20.1309   19.8631 C   0  0  0  0  0  0
  -31.5685  -17.0921   18.8640 C   0  0  0  0  0  0
  -27.9870  -23.5440   17.3516 C   0  0  0  0  0  0
  -30.5504  -23.6148   17.5981 C   0  0  0  0  0  0
  -30.8508  -15.8203   18.4316 C   0  0  0  0  0  0
  -29.5741  -16.6292   20.1954 C   0  0  0  0  0  0
  -28.0683  -25.0160   16.9102 C   0  0  0  0  0  0
  -30.4940  -25.0887   17.1846 C   0  0  0  0  0  0
  -30.5340  -17.7679   19.7696 C   0  0  2  0  0  0
  -29.3211  -22.8037   17.1132 C   0  0  1  0  0  0
  -29.5311  -20.2408   15.4991 C   0  0  0  0  0  0
  -29.1352  -21.1320   22.0127 C   0  0  0  0  0  0
  -29.1677  -27.1233   17.7411 C   0  0  0  0  0  0
  -29.4279  -27.4721   19.2156 C   0  0  0  0  0  0
  -30.1291  -15.3893   19.6359 N   0  0  0  0  0  0
  -29.1990  -25.6509   17.6228 N   0  3  1  0  0  0
  -29.5987  -20.0283   21.2400 O   0  0  0  0  0  0
  -31.4467  -12.3091   19.1170 H   0  0  0  0  0  0
  -30.2659  -11.2586   19.8630 H   0  0  0  0  0  0
  -29.6984  -11.6691   17.4431 H   0  0  0  0  0  0
  -29.6653  -13.3882   17.7123 H   0  0  0  0  0  0
  -27.7961  -11.2867   18.8361 H   0  0  0  0  0  0
  -27.3523  -12.5943   17.7753 H   0  0  0  0  0  0
  -27.6652  -14.2469   19.5038 H   0  0  0  0  0  0
  -28.6598  -12.0849   21.4263 H   0  0  0  0  0  0
  -28.5168  -13.7999   21.7646 H   0  0  0  0  0  0
  -25.2762   -9.5688   22.4776 H   0  0  0  0  0  0
  -24.0030   -7.4617   22.7443 H   0  0  0  0  0  0
  -21.0857   -8.8771   19.8939 H   0  0  0  0  0  0
  -22.3706  -10.9679   19.6173 H   0  0  0  0  0  0
  -21.2012   -7.6170   23.9754 H   0  0  0  0  0  0
  -21.1471   -6.0532   25.9088 H   0  0  0  0  0  0
  -22.0595   -2.7641   23.2853 H   0  0  0  0  0  0
  -22.4143  -11.9855   22.4788 H   0  0  0  0  0  0
  -21.1128  -13.1207   22.2639 H   0  0  0  0  0  0
  -24.6645  -15.8484   20.5347 H   0  0  0  0  0  0
  -26.2900  -15.6347   20.1225 H   0  0  0  0  0  0
  -26.7073  -32.5601   23.1203 H   0  0  0  0  0  0
  -25.0058  -33.9819   25.0524 H   0  0  0  0  0  0
  -22.6784  -31.3069   21.4107 H   0  0  0  0  0  0
  -23.3750  -35.9661   23.3301 H   0  0  0  0  0  0
  -24.3592  -36.8931   22.2051 H   0  0  0  0  0  0
  -23.7238  -37.6540   23.6634 H   0  0  0  0  0  0
  -26.0047  -31.6214   20.5779 H   0  0  0  0  0  0
  -26.8064  -30.9266   21.9596 H   0  0  0  0  0  0
  -28.0862  -29.1911   21.1533 H   0  0  0  0  0  0
  -26.0953  -25.9635   19.0946 H   0  0  0  0  0  0
  -23.9830  -27.2551   19.0961 H   0  0  0  0  0  0
  -23.7012  -30.5867   19.4015 H   0  0  0  0  0  0
  -22.7276  -29.2270   19.8804 H   0  0  0  0  0  0
  -25.1277  -36.2010   25.0842 H   0  0  0  0  0  0
  -20.9940  -28.3208   24.1460 H   0  0  0  0  0  0
  -20.5676  -26.2255   23.3598 H   0  0  0  0  0  0
  -21.6631  -26.7455   22.1205 H   0  0  0  0  0  0
  -19.6904  -25.6306   21.1226 H   0  0  0  0  0  0
  -19.6683  -27.3214   20.6756 H   0  0  0  0  0  0
  -17.4191  -26.6686   21.4016 H   0  0  0  0  0  0
  -18.0308  -26.0058   22.9010 H   0  0  0  0  0  0
  -19.7913  -30.7253   24.2303 H   0  0  0  0  0  0
  -17.4996  -31.6262   24.5167 H   0  0  0  0  0  0
  -15.5341  -30.2998   23.7627 H   0  0  0  0  0  0
  -15.8655  -28.0830   22.7045 H   0  0  0  0  0  0
  -24.5921  -30.7028   25.7815 H   0  0  0  0  0  0
  -24.8955  -32.2806   26.4982 H   0  0  0  0  0  0
  -25.8139  -30.8800   27.0191 H   0  0  0  0  0  0
  -26.2761  -29.6835   24.1109 H   0  0  0  0  0  0
  -27.4125  -29.7279   25.4409 H   0  0  0  0  0  0
  -27.8560  -30.4413   23.9059 H   0  0  0  0  0  0
  -27.2688  -33.3570   26.2102 H   0  0  0  0  0  0
  -28.3831  -32.6883   25.0273 H   0  0  0  0  0  0
  -28.0745  -31.8370   26.5325 H   0  0  0  0  0  0
  -28.2606  -38.0115   24.7526 H   0  0  0  0  0  0
  -28.1089  -36.2647   24.6270 H   0  0  0  0  0  0
  -27.2308  -37.1444   25.8868 H   0  0  0  0  0  0
  -20.9265  -29.8735   21.6979 H   0  0  0  0  0  0
  -26.0200  -38.2891   24.1409 H   0  0  0  0  0  0
  -29.9487  -18.1515   17.0987 H   0  0  0  0  0  0
  -29.1075  -22.2468   19.7367 H   0  0  0  0  0  0
  -31.9433  -17.6960   18.0368 H   0  0  0  0  0  0
  -32.4461  -16.8297   19.4589 H   0  0  0  0  0  0
  -27.1784  -23.0360   16.8240 H   0  0  0  0  0  0
  -27.7204  -23.5142   18.4086 H   0  0  0  0  0  0
  -30.6284  -23.5836   18.6846 H   0  0  0  0  0  0
  -31.4692  -23.1604   17.2250 H   0  0  0  0  0  0
  -31.5475  -15.0802   18.0293 H   0  0  0  0  0  0
  -30.1268  -16.0161   17.6415 H   0  0  0  0  0  0
  -28.5783  -16.7766   19.7770 H   0  0  0  0  0  0
  -29.4638  -16.5871   21.2819 H   0  0  0  0  0  0
  -27.1278  -25.5123   17.1438 H   0  0  0  0  0  0
  -28.2039  -25.1021   15.8310 H   0  0  0  0  0  0
  -30.6099  -25.2045   16.1060 H   0  0  0  0  0  0
  -31.3243  -25.6256   17.6460 H   0  0  0  0  0  0
  -31.0674  -18.1244   20.6531 H   0  0  0  0  0  0
  -29.4285  -22.7155   16.0329 H   0  0  0  0  0  0
  -29.5602  -19.2287   15.0964 H   0  0  0  0  0  0
  -30.4156  -20.7615   15.1305 H   0  0  0  0  0  0
  -28.6432  -20.7272   15.0948 H   0  0  0  0  0  0
  -29.0901  -20.8459   23.0633 H   0  0  0  0  0  0
  -28.1307  -21.4418   21.7197 H   0  0  0  0  0  0
  -29.8115  -21.9847   21.9365 H   0  0  0  0  0  0
  -29.9075  -27.5879   17.0890 H   0  0  0  0  0  0
  -28.1985  -27.5217   17.4409 H   0  0  0  0  0  0
  -29.4478  -28.5529   19.3603 H   0  0  0  0  0  0
  -30.4089  -27.1102   19.5269 H   0  0  0  0  0  0
  -29.0806  -25.3642   18.5855 H   0  0  0  0  0  0
  1 25  1  0  0  0
  1 30  2  0  0  0
  1 90  1  0  0  0
  2  3  1  0  0  0
  2 25  1  0  0  0
  2 93  1  0  0  0
  2 94  1  0  0  0
  3  4  1  0  0  0
  3 95  1  0  0  0
  3 96  1  0  0  0
  4  5  1  0  0  0
  4 97  1  0  0  0
  4 98  1  0  0  0
  5  6  1  0  0  0
  5 26  1  0  0  0
  5 99  1  0  0  0
  6 25  1  0  0  0
  6100  1  0  0  0
  6101  1  0  0  0
  7  8  2  0  0  0
  7 26  1  0  0  0
  7 29  1  0  0  0
  8  9  1  0  0  0
  8 22  1  0  0  0
  9 10  1  0  0  0
  9 27  2  0  0  0
 10 11  2  0  0  0
 10 15  1  0  0  0
 11 12  1  0  0  0
 11102  1  0  0  0
 12 13  2  0  0  0
 12103  1  0  0  0
 13 14  1  0  0  0
 13 31  1  0  0  0
 14 15  2  0  0  0
 14104  1  0  0  0
 15105  1  0  0  0
 16 17  2  0  0  0
 16 21  1  0  0  0
 16 31  1  0  0  0
 17 18  1  0  0  0
 17106  1  0  0  0
 18 19  2  0  0  0
 18107  1  0  0  0
 19 20  1  0  0  0
 19 24  1  0  0  0
 20 21  2  0  0  0
 20108  1  0  0  0
 21 23  1  0  0  0
 22 28  1  0  0  0
 22 32  2  0  0  0
 26 27  1  0  0  0
 28109  1  0  0  0
 28110  1  0  0  0
 29111  1  0  0  0
 29112  1  0  0  0
 33 34  1  0  0  0
 33 66  1  0  0  0
 33 70  2  0  0  0
 34 36  1  0  0  0
 34 59  1  0  0  0
 34113  1  0  0  0
 35 44  2  0  0  0
 35 45  1  0  0  0
 35 68  1  0  0  0
 36 56  1  0  0  0
 36114  1  0  0  0
 37 39  1  0  0  0
 37 47  1  0  0  0
 37 66  1  0  0  0
 37115  1  0  0  0
 38 43  2  0  0  0
 38 46  1  0  0  0
 38 47  1  0  0  0
 39 64  1  0  0  0
 39 67  2  0  0  0
 40 52  1  0  0  0
 40 53  2  0  0  0
 40 58  1  0  0  0
 41116  1  0  0  0
 41117  1  0  0  0
 41118  1  0  0  0
 41 48  1  0  0  0
 42 43  1  0  0  0
 42 66  1  0  0  0
 42119  1  0  0  0
 42120  1  0  0  0
 43 44  1  0  0  0
 44121  1  0  0  0
 45 46  2  0  0  0
 45122  1  0  0  0
 46123  1  0  0  0
 47124  1  0  0  0
 47125  1  0  0  0
 48 56  1  0  0  0
 48 65  1  0  0  0
 48126  1  0  0  0
 49 50  1  0  0  0
 49 53  1  0  0  0
 49 64  1  0  0  0
 49127  1  0  0  0
 50 51  1  0  0  0
 50128  1  0  0  0
 50129  1  0  0  0
 51 52  1  0  0  0
 51130  1  0  0  0
 51131  1  0  0  0
 52132  1  0  0  0
 52133  1  0  0  0
 53 54  1  0  0  0
 54 55  2  0  0  0
 54134  1  0  0  0
 55 57  1  0  0  0
 55135  1  0  0  0
 56 69  2  0  0  0
 57 58  2  0  0  0
 57136  1  0  0  0
 58137  1  0  0  0
 59 60  1  0  0  0
 59 61  1  0  0  0
 59 62  1  0  0  0
 60138  1  0  0  0
 60139  1  0  0  0
 60140  1  0  0  0
 61141  1  0  0  0
 61142  1  0  0  0
 61143  1  0  0  0
 62144  1  0  0  0
 62145  1  0  0  0
 62146  1  0  0  0
 63 65  1  0  0  0
 63147  1  0  0  0
 63148  1  0  0  0
 63149  1  0  0  0
 64150  1  0  0  0
 65151  1  0  0  0
 68 89  1  0  0  0
 71 73  2  0  0  0
 71 75  1  0  0  0
 71152  1  0  0  0
 72 74  1  0  0  0
 72 76  2  0  0  0
 72153  1  0  0  0
 73 76  1  0  0  0
 73 84  1  0  0  0
 74 75  2  0  0  0
 74 85  1  0  0  0
 75 86  1  0  0  0
 76 92  1  0  0  0
 77 80  1  0  0  0
 77 84  1  0  0  0
 77154  1  0  0  0
 77155  1  0  0  0
 78 82  1  0  0  0
 78 85  1  0  0  0
 78156  1  0  0  0
 78157  1  0  0  0
 79 83  1  0  0  0
 79 85  1  0  0  0
 79158  1  0  0  0
 79159  1  0  0  0
 80 90  1  0  0  0
 80160  1  0  0  0
 80161  1  0  0  0
 81 84  1  0  0  0
 81 90  1  0  0  0
 81162  1  0  0  0
 81163  1  0  0  0
 82 91  1  0  0  0
 82164  1  0  0  0
 82165  1  0  0  0
 83 91  1  0  0  0
 83166  1  0  0  0
 83167  1  0  0  0
 84168  1  0  0  0
 85169  1  0  0  0
 86170  1  0  0  0
 86171  1  0  0  0
 86172  1  0  0  0
 87 92  1  0  0  0
 87173  1  0  0  0
 87174  1  0  0  0
 87175  1  0  0  0
 88 89  1  0  0  0
 88176  1  0  0  0
 88177  1  0  0  0
 88 91  1  0  0  0
 89178  1  0  0  0
 89179  1  0  0  0
 91180  1  0  0  0
M  CHG  1  91   1
M  ISO  4   1 100  68 101  89 101  90 100
M  END
> <chiral flag>
0

> <version>
0

> <s_m_source_file>
/data/baiqing/PycharmProjects/Reinvent-master-3.2/result/LINK_invent/BTK/process_docking_weight1_custom_sum_contain_oxygen_bond_distance_aromatic_linkinvent_7_9_3/rearranged_h_0153.sdf

> <i_m_source_file_index>
21

> <r_mmod_Potential_Energy-OPLS-2005>
235.219116210938

> <r_mmod_Stretch_Energy-OPLS-2005>
35.0197715759277

> <r_mmod_Bend_Energy-OPLS-2005>
142.747863769531

> <r_mmod_Torsional_Energy-OPLS-2005>
443.672302246094

> <r_mmod_Improper_Torsional_Energy-OPLS-2005>
34.1873817443848

> <r_mmod_Van_der_Waal_Energy-OPLS-2005>
173.491348266602

> <r_mmod_Electrostatic_Energy-OPLS-2005>
-223.959426879883

> <r_mmod_Solvation_Energy-OPLS-2005>
-409.825805664062

> <b_mmod_Minimization_Converged-OPLS-2005>
0

> <r_mmod_RMS_Derivative-OPLS-2005>
2.16910672187805

$$$$
21
                    3D
 Structure written by MMmdl.
165174  0  0  1  0            999 V2000
  -30.4346  -15.3432   20.4008 C   0  0  0  0  0  0
  -30.4413  -12.8791   19.5203 C   0  0  0  0  0  0
  -29.5482  -12.5964   18.2874 C   0  0  0  0  0  0
  -28.0996  -12.3035   18.7181 C   0  0  0  0  0  0
  -27.6111  -13.2817   19.8168 C   0  0  2  0  0  0
  -28.6448  -13.4900   20.9434 C   0  0  0  0  0  0
  -25.2412  -13.8248   20.5752 C   0  0  0  0  0  0
  -24.1751  -13.0439   20.9234 C   0  0  0  0  0  0
  -24.6405  -11.6926   20.8743 C   0  0  0  0  0  0
  -23.9096  -10.4289   21.0396 C   0  0  0  0  0  0
  -24.3643   -9.4210   21.9177 C   0  0  0  0  0  0
  -23.6300   -8.2249   22.0750 C   0  0  0  0  0  0
  -22.4281   -8.0287   21.3543 C   0  0  0  0  0  0
  -21.9932   -9.0265   20.4654 C   0  0  0  0  0  0
  -22.7269  -10.2132   20.3048 C   0  0  0  0  0  0
  -21.6854   -6.0739   22.5271 C   0  0  0  0  0  0
  -21.4026   -6.5637   23.8206 C   0  0  0  0  0  0
  -21.3655   -5.6782   24.9172 C   0  0  0  0  0  0
  -21.6043   -4.3043   24.7222 C   0  0  0  0  0  0
  -21.8813   -3.8150   23.4335 C   0  0  0  0  0  0
  -21.9182   -4.6967   22.3398 C   0  0  0  0  0  0
  -22.7767  -13.5217   21.1854 C   0  0  0  0  0  0
  -22.1655   -4.2159   21.0971 F   0  0  0  0  0  0
  -21.5626   -3.4528   25.7730 F   0  0  0  0  0  0
  -29.8497  -14.0379   20.2948 N   0  0  0  0  0  0
  -26.2833  -12.9518   20.3199 N   0  0  0  0  0  0
  -25.9346  -11.6619   20.5702 N   0  0  0  0  0  0
  -22.0394  -12.8247   22.0422 N   0  0  0  0  0  0
  -25.4069  -15.1982   20.4222 N   0  0  0  0  0  0
  -31.6703  -15.2727   20.2891 O   0  0  0  0  0  0
  -21.6638   -6.8890   21.4231 O   0  0  0  0  0  0
  -22.3456  -14.5502   20.6653 O   0  0  0  0  0  0
  -24.6689  -31.8184   23.1660 C   0  0  0  0  0  0
  -25.9343  -32.4557   23.8156 C   0  0  1  0  0  0
  -27.2056  -26.8597   20.2019 C   0  0  0  0  0  0
  -25.5977  -33.8368   24.2054 N   0  0  0  0  0  0
  -23.4871  -30.4287   21.5172 C   0  0  2  0  0  0
  -24.9397  -28.8028   20.1185 C   0  0  0  0  0  0
  -22.7707  -29.4420   22.4767 C   0  0  0  0  0  0
  -18.0328  -28.1416   22.8468 C   0  0  0  0  0  0
  -24.1499  -36.7189   23.2647 C   0  0  0  0  0  0
  -26.0613  -30.6029   21.4062 C   0  0  0  0  0  0
  -26.1264  -29.1849   20.7547 C   0  0  0  0  0  0
  -27.2564  -28.2378   20.7665 C   0  0  0  0  0  0
  -25.9899  -26.6479   19.5112 C   0  0  0  0  0  0
  -24.9002  -27.5558   19.4747 C   0  0  0  0  0  0
  -23.7311  -29.7397   20.1469 C   0  0  0  0  0  0
  -25.4144  -36.2950   24.0295 C   0  0  1  0  0  0
  -20.5957  -28.3762   23.1176 C   0  0  2  0  0  0
  -20.6805  -26.9439   22.5403 C   0  0  0  0  0  0
  -19.5772  -26.6379   21.5221 C   0  0  0  0  0  0
  -18.1953  -26.7946   22.1629 C   0  0  0  0  0  0
  -19.1587  -28.8914   23.2801 C   0  0  0  0  0  0
  -18.9499  -30.1500   23.8844 C   0  0  0  0  0  0
  -17.6488  -30.6604   24.0548 C   0  0  0  0  0  0
  -25.9106  -34.9332   23.5008 C   0  0  0  0  0  0
  -16.5374  -29.9084   23.6338 C   0  0  0  0  0  0
  -16.7313  -28.6497   23.0368 C   0  0  0  0  0  0
  -26.4574  -31.6519   25.0706 C   0  0  0  0  0  0
  -25.3678  -31.3787   26.1346 C   0  0  0  0  0  0
  -27.0459  -30.2873   24.6476 C   0  0  0  0  0  0
  -27.6069  -32.4325   25.7502 C   0  0  0  0  0  0
  -27.5576  -37.1750   24.8464 C   0  0  0  0  0  0
  -21.4373  -29.3033   22.3525 N   0  0  0  0  0  0
  -26.4285  -37.3695   23.9402 N   0  0  0  0  0  0
  -24.7614  -30.9785   22.0824 N   0  0  0  0  0  0
  -23.4232  -28.7994   23.3035 O   0  0  0  0  0  0
  -28.1880  -25.7155   20.2506 O   0  0  0  0  0  0
  -26.5723  -34.8881   22.4612 O   0  0  0  0  0  0
  -23.5749  -32.1191   23.6710 O   0  0  0  0  0  0
  -28.5682  -21.0910   20.6121 C   0  0  0  0  0  0
  -30.7152  -21.4140   19.0157 C   0  0  0  0  0  0
  -29.3708  -19.7894   20.3147 C   0  0  0  0  0  0
  -28.7921  -22.5637   20.1496 C   0  0  0  0  0  0
  -29.9446  -22.5845   19.3205 C   0  0  0  0  0  0
  -30.4651  -20.0848   19.4745 C   0  0  0  0  0  0
  -29.3127  -18.1207   20.8749 C   0  0  0  0  0  0
  -30.9982  -17.9403   18.3127 C   0  0  0  0  0  0
  -29.7756  -17.0801   18.7448 C   0  0  0  0  0  0
  -30.3839  -23.9040   18.7128 C   0  0  0  0  0  0
  -34.5749  -17.6008   20.5849 C   0  0  0  0  0  0
  -27.8547  -24.0698   20.3318 C   0  0  0  0  0  0
  -33.7989  -18.5761   19.6912 C   0  0  0  0  0  0
  -32.3829  -18.8475   20.2333 C   0  0  0  0  0  0
  -31.3997  -19.0735   19.1732 N   0  0  0  0  0  0
  -29.7432  -16.6637   20.1526 N   0  0  0  0  0  0
  -31.4531  -13.1038   19.1830 H   0  0  0  0  0  0
  -30.5355  -11.9893   20.1464 H   0  0  0  0  0  0
  -29.9535  -11.7709   17.7004 H   0  0  0  0  0  0
  -29.5601  -13.4678   17.6319 H   0  0  0  0  0  0
  -28.0732  -11.2843   19.1049 H   0  0  0  0  0  0
  -27.4330  -12.3268   17.8553 H   0  0  0  0  0  0
  -27.5160  -14.2418   19.3054 H   0  0  0  0  0  0
  -28.8444  -12.5612   21.4804 H   0  0  0  0  0  0
  -28.2726  -14.2010   21.6821 H   0  0  0  0  0  0
  -25.2791   -9.5700   22.4752 H   0  0  0  0  0  0
  -23.9998   -7.4665   22.7488 H   0  0  0  0  0  0
  -21.0848   -8.8805   19.8992 H   0  0  0  0  0  0
  -22.3723  -10.9673   19.6164 H   0  0  0  0  0  0
  -21.2037   -7.6153   23.9710 H   0  0  0  0  0  0
  -21.1480   -6.0524   25.9069 H   0  0  0  0  0  0
  -22.0597   -2.7619   23.2816 H   0  0  0  0  0  0
  -22.3961  -11.9946   22.4929 H   0  0  0  0  0  0
  -21.0999  -13.1286   22.2523 H   0  0  0  0  0  0
  -24.6455  -15.8572   20.5459 H   0  0  0  0  0  0
  -26.2635  -15.6396   20.1151 H   0  0  0  0  0  0
  -26.7414  -32.5092   23.0874 H   0  0  0  0  0  0
  -25.0064  -33.9459   25.0159 H   0  0  0  0  0  0
  -22.8015  -31.2601   21.3413 H   0  0  0  0  0  0
  -23.3780  -35.9502   23.3287 H   0  0  0  0  0  0
  -24.3572  -36.8863   22.2068 H   0  0  0  0  0  0
  -23.7244  -37.6364   23.6720 H   0  0  0  0  0  0
  -26.2477  -31.3379   20.6216 H   0  0  0  0  0  0
  -26.9186  -30.6650   22.0647 H   0  0  0  0  0  0
  -28.1573  -28.5323   21.2865 H   0  0  0  0  0  0
  -25.8474  -25.7033   19.0078 H   0  0  0  0  0  0
  -23.9999  -27.2585   18.9542 H   0  0  0  0  0  0
  -23.8974  -30.5048   19.3876 H   0  0  0  0  0  0
  -22.8393  -29.1987   19.8261 H   0  0  0  0  0  0
  -25.1347  -36.1752   25.0784 H   0  0  0  0  0  0
  -21.0042  -28.3383   24.1295 H   0  0  0  0  0  0
  -20.5696  -26.2390   23.3656 H   0  0  0  0  0  0
  -21.6666  -26.7410   22.1205 H   0  0  0  0  0  0
  -19.6934  -25.6275   21.1286 H   0  0  0  0  0  0
  -19.6716  -27.3160   20.6727 H   0  0  0  0  0  0
  -17.4234  -26.6694   21.4020 H   0  0  0  0  0  0
  -18.0336  -26.0101   22.9036 H   0  0  0  0  0  0
  -19.7973  -30.7323   24.2202 H   0  0  0  0  0  0
  -17.5036  -31.6278   24.5160 H   0  0  0  0  0  0
  -15.5370  -30.2962   23.7696 H   0  0  0  0  0  0
  -15.8714  -28.0794   22.7111 H   0  0  0  0  0  0
  -24.5881  -30.7118   25.7646 H   0  0  0  0  0  0
  -24.8837  -32.2986   26.4631 H   0  0  0  0  0  0
  -25.7884  -30.9043   27.0223 H   0  0  0  0  0  0
  -26.3130  -29.6539   24.1470 H   0  0  0  0  0  0
  -27.3947  -29.7251   25.5146 H   0  0  0  0  0  0
  -27.9100  -30.4025   23.9932 H   0  0  0  0  0  0
  -27.2659  -33.3687   26.1946 H   0  0  0  0  0  0
  -28.3956  -32.6791   25.0373 H   0  0  0  0  0  0
  -28.0669  -31.8535   26.5531 H   0  0  0  0  0  0
  -28.2569  -38.0068   24.7505 H   0  0  0  0  0  0
  -28.1095  -36.2586   24.6297 H   0  0  0  0  0  0
  -27.2284  -37.1404   25.8865 H   0  0  0  0  0  0
  -20.9666  -29.8704   21.6613 H   0  0  0  0  0  0
  -26.0135  -38.2755   24.1397 H   0  0  0  0  0  0
  -27.7075  -20.9492   21.2506 H   0  0  0  0  0  0
  -31.5781  -21.5442   18.3782 H   0  0  0  0  0  0
  -28.2851  -17.9739   21.2067 H   0  0  0  0  0  0
  -29.8834  -18.1412   21.8041 H   0  0  0  0  0  0
  -30.8254  -18.3200   17.3046 H   0  0  0  0  0  0
  -31.8503  -17.2683   18.2154 H   0  0  0  0  0  0
  -29.7244  -16.1961   18.1041 H   0  0  0  0  0  0
  -28.8562  -17.6193   18.5181 H   0  0  0  0  0  0
  -31.3600  -23.8204   18.2348 H   0  0  0  0  0  0
  -30.4627  -24.6714   19.4833 H   0  0  0  0  0  0
  -29.6686  -24.2403   17.9615 H   0  0  0  0  0  0
  -35.5775  -17.4220   20.1948 H   0  0  0  0  0  0
  -34.0685  -16.6355   20.6365 H   0  0  0  0  0  0
  -34.6726  -17.9746   21.6043 H   0  0  0  0  0  0
  -27.3390  -23.9491   21.2834 H   0  0  0  0  0  0
  -27.0667  -23.9310   19.5922 H   0  0  0  0  0  0
  -33.7706  -18.1622   18.6845 H   0  0  0  0  0  0
  -34.3369  -19.5206   19.6070 H   0  0  0  0  0  0
  -32.4257  -19.7039   20.9099 H   0  0  0  0  0  0
  -32.0576  -18.0063   20.8445 H   0  0  0  0  0  0
  1 25  1  0  0  0
  1 30  2  0  0  0
  1 86  1  0  0  0
  2  3  1  0  0  0
  2 25  1  0  0  0
  2 87  1  0  0  0
  2 88  1  0  0  0
  3  4  1  0  0  0
  3 89  1  0  0  0
  3 90  1  0  0  0
  4  5  1  0  0  0
  4 91  1  0  0  0
  4 92  1  0  0  0
  5  6  1  0  0  0
  5 26  1  0  0  0
  5 93  1  0  0  0
  6 25  1  0  0  0
  6 94  1  0  0  0
  6 95  1  0  0  0
  7  8  2  0  0  0
  7 26  1  0  0  0
  7 29  1  0  0  0
  8  9  1  0  0  0
  8 22  1  0  0  0
  9 10  1  0  0  0
  9 27  2  0  0  0
 10 11  2  0  0  0
 10 15  1  0  0  0
 11 12  1  0  0  0
 11 96  1  0  0  0
 12 13  2  0  0  0
 12 97  1  0  0  0
 13 14  1  0  0  0
 13 31  1  0  0  0
 14 15  2  0  0  0
 14 98  1  0  0  0
 15 99  1  0  0  0
 16 17  2  0  0  0
 16 21  1  0  0  0
 16 31  1  0  0  0
 17 18  1  0  0  0
 17100  1  0  0  0
 18 19  2  0  0  0
 18101  1  0  0  0
 19 20  1  0  0  0
 19 24  1  0  0  0
 20 21  2  0  0  0
 20102  1  0  0  0
 21 23  1  0  0  0
 22 28  1  0  0  0
 22 32  2  0  0  0
 26 27  1  0  0  0
 28103  1  0  0  0
 28104  1  0  0  0
 29105  1  0  0  0
 29106  1  0  0  0
 33 34  1  0  0  0
 33 66  1  0  0  0
 33 70  2  0  0  0
 34 36  1  0  0  0
 34 59  1  0  0  0
 34107  1  0  0  0
 35 44  2  0  0  0
 35 45  1  0  0  0
 35 68  1  0  0  0
 36 56  1  0  0  0
 36108  1  0  0  0
 37 39  1  0  0  0
 37 47  1  0  0  0
 37 66  1  0  0  0
 37109  1  0  0  0
 38 43  2  0  0  0
 38 46  1  0  0  0
 38 47  1  0  0  0
 39 64  1  0  0  0
 39 67  2  0  0  0
 40 52  1  0  0  0
 40 53  2  0  0  0
 40 58  1  0  0  0
 41110  1  0  0  0
 41111  1  0  0  0
 41112  1  0  0  0
 41 48  1  0  0  0
 42 43  1  0  0  0
 42 66  1  0  0  0
 42113  1  0  0  0
 42114  1  0  0  0
 43 44  1  0  0  0
 44115  1  0  0  0
 45 46  2  0  0  0
 45116  1  0  0  0
 46117  1  0  0  0
 47118  1  0  0  0
 47119  1  0  0  0
 48 56  1  0  0  0
 48 65  1  0  0  0
 48120  1  0  0  0
 49 50  1  0  0  0
 49 53  1  0  0  0
 49 64  1  0  0  0
 49121  1  0  0  0
 50 51  1  0  0  0
 50122  1  0  0  0
 50123  1  0  0  0
 51 52  1  0  0  0
 51124  1  0  0  0
 51125  1  0  0  0
 52126  1  0  0  0
 52127  1  0  0  0
 53 54  1  0  0  0
 54 55  2  0  0  0
 54128  1  0  0  0
 55 57  1  0  0  0
 55129  1  0  0  0
 56 69  2  0  0  0
 57 58  2  0  0  0
 57130  1  0  0  0
 58131  1  0  0  0
 59 60  1  0  0  0
 59 61  1  0  0  0
 59 62  1  0  0  0
 60132  1  0  0  0
 60133  1  0  0  0
 60134  1  0  0  0
 61135  1  0  0  0
 61136  1  0  0  0
 61137  1  0  0  0
 62138  1  0  0  0
 62139  1  0  0  0
 62140  1  0  0  0
 63 65  1  0  0  0
 63141  1  0  0  0
 63142  1  0  0  0
 63143  1  0  0  0
 64144  1  0  0  0
 65145  1  0  0  0
 68 82  1  0  0  0
 71 73  2  0  0  0
 71 74  1  0  0  0
 71146  1  0  0  0
 72 75  1  0  0  0
 72 76  2  0  0  0
 72147  1  0  0  0
 73 76  1  0  0  0
 73 77  1  0  0  0
 74 75  2  0  0  0
 74 82  1  0  0  0
 75 80  1  0  0  0
 76 85  1  0  0  0
 77 86  1  0  0  0
 77148  1  0  0  0
 77149  1  0  0  0
 78 79  1  0  0  0
 78 85  1  0  0  0
 78150  1  0  0  0
 78151  1  0  0  0
 79 86  1  0  0  0
 79152  1  0  0  0
 79153  1  0  0  0
 80154  1  0  0  0
 80155  1  0  0  0
 80156  1  0  0  0
 81 83  1  0  0  0
 81157  1  0  0  0
 81158  1  0  0  0
 81159  1  0  0  0
 82160  1  0  0  0
 82161  1  0  0  0
 83 84  1  0  0  0
 83162  1  0  0  0
 83163  1  0  0  0
 84 85  1  0  0  0
 84164  1  0  0  0
 84165  1  0  0  0
M  ISO  4   1 100  68 101  82 101  86 100
M  END
> <chiral flag>
0

> <version>
0

> <s_m_source_file>
/data/baiqing/PycharmProjects/Reinvent-master-3.2/result/LINK_invent/BTK/process_docking_weight1_custom_sum_contain_oxygen_bond_distance_aromatic_linkinvent_7_9_3/rearranged_h_0153.sdf

> <i_m_source_file_index>
22

> <r_mmod_Potential_Energy-OPLS-2005>
1645.93884277344

> <r_mmod_Stretch_Energy-OPLS-2005>
660.255126953125

> <r_mmod_Bend_Energy-OPLS-2005>
463.622406005859

> <r_mmod_Torsional_Energy-OPLS-2005>
369.573638916016

> <r_mmod_Improper_Torsional_Energy-OPLS-2005>
20.8759841918945

> <r_mmod_Van_der_Waal_Energy-OPLS-2005>
129.184066772461

> <r_mmod_Electrostatic_Energy-OPLS-2005>
-346.218139648438

> <r_mmod_Solvation_Energy-OPLS-2005>
-201.535751342773

> <b_mmod_Minimization_Converged-OPLS-2005>
0

> <r_mmod_RMS_Derivative-OPLS-2005>
3.63505220413208

$$$$
22
                    3D
 Structure written by MMmdl.
169179  0  0  1  0            999 V2000
  -30.6765  -14.6182   20.4763 C   0  0  0  0  0  0
  -30.4171  -12.3777   19.4516 C   0  0  0  0  0  0
  -29.4986  -12.4932   18.2181 C   0  0  0  0  0  0
  -28.0211  -12.3469   18.6313 C   0  0  0  0  0  0
  -27.6448  -13.2281   19.8538 C   0  0  2  0  0  0
  -28.6920  -13.1270   20.9838 C   0  0  0  0  0  0
  -25.2532  -13.8199   20.5707 C   0  0  0  0  0  0
  -24.1809  -13.0448   20.9192 C   0  0  0  0  0  0
  -24.6392  -11.6922   20.8739 C   0  0  0  0  0  0
  -23.9065  -10.4299   21.0399 C   0  0  0  0  0  0
  -24.3616   -9.4213   21.9176 C   0  0  0  0  0  0
  -23.6296   -8.2245   22.0749 C   0  0  0  0  0  0
  -22.4278   -8.0278   21.3542 C   0  0  0  0  0  0
  -21.9910   -9.0250   20.4646 C   0  0  0  0  0  0
  -22.7237  -10.2132   20.3052 C   0  0  0  0  0  0
  -21.6855   -6.0731   22.5276 C   0  0  0  0  0  0
  -21.4014   -6.5636   23.8208 C   0  0  0  0  0  0
  -21.3662   -5.6788   24.9173 C   0  0  0  0  0  0
  -21.6046   -4.3050   24.7222 C   0  0  0  0  0  0
  -21.8821   -3.8143   23.4341 C   0  0  0  0  0  0
  -21.9194   -4.6960   22.3399 C   0  0  0  0  0  0
  -22.7830  -13.5231   21.1849 C   0  0  0  0  0  0
  -22.1666   -4.2145   21.0977 F   0  0  0  0  0  0
  -21.5630   -3.4534   25.7737 F   0  0  0  0  0  0
  -30.0015  -13.4304   20.3979 N   0  0  0  0  0  0
  -26.2957  -12.9401   20.3312 N   0  0  0  0  0  0
  -25.9324  -11.6542   20.5754 N   0  0  0  0  0  0
  -22.0475  -12.8226   22.0408 N   0  0  0  0  0  0
  -25.4256  -15.1917   20.4162 N   0  0  0  0  0  0
  -31.8745  -14.6830   20.1823 O   0  0  0  0  0  0
  -21.6644   -6.8872   21.4237 O   0  0  0  0  0  0
  -22.3515  -14.5534   20.6694 O   0  0  0  0  0  0
  -24.6260  -31.8616   23.2057 C   0  0  0  0  0  0
  -25.9117  -32.4785   23.8371 C   0  0  1  0  0  0
  -27.2142  -27.3251   20.0924 C   0  0  0  0  0  0
  -25.5937  -33.8585   24.2294 N   0  0  0  0  0  0
  -23.4167  -30.4898   21.5497 C   0  0  2  0  0  0
  -24.8574  -28.9527   20.1104 C   0  0  0  0  0  0
  -22.7469  -29.4637   22.4948 C   0  0  0  0  0  0
  -18.0287  -28.1385   22.8488 C   0  0  0  0  0  0
  -24.1491  -36.7296   23.2638 C   0  0  0  0  0  0
  -25.9600  -30.7922   21.3774 C   0  0  0  0  0  0
  -26.0288  -29.4227   20.7149 C   0  0  0  0  0  0
  -27.2058  -28.6177   20.7032 C   0  0  0  0  0  0
  -26.0075  -26.9071   19.4786 C   0  0  0  0  0  0
  -24.8483  -27.6989   19.4886 C   0  0  0  0  0  0
  -23.6282  -29.8330   20.1624 C   0  0  0  0  0  0
  -25.4115  -36.3086   24.0331 C   0  0  1  0  0  0
  -20.5885  -28.3686   23.1287 C   0  0  2  0  0  0
  -20.6776  -26.9412   22.5409 C   0  0  0  0  0  0
  -19.5753  -26.6385   21.5214 C   0  0  0  0  0  0
  -18.1933  -26.7931   22.1623 C   0  0  0  0  0  0
  -19.1538  -28.8852   23.2883 C   0  0  0  0  0  0
  -18.9460  -30.1455   23.8897 C   0  0  0  0  0  0
  -17.6459  -30.6587   24.0562 C   0  0  0  0  0  0
  -25.9052  -34.9456   23.5109 C   0  0  0  0  0  0
  -16.5351  -29.9083   23.6331 C   0  0  0  0  0  0
  -16.7274  -28.6502   23.0350 C   0  0  0  0  0  0
  -26.4499  -31.6591   25.0737 C   0  0  0  0  0  0
  -25.3731  -31.3731   26.1464 C   0  0  0  0  0  0
  -27.0331  -30.3008   24.6190 C   0  0  0  0  0  0
  -27.6064  -32.4318   25.7503 C   0  0  0  0  0  0
  -27.5583  -37.1805   24.8463 C   0  0  0  0  0  0
  -21.4185  -29.3041   22.3685 N   0  0  0  0  0  0
  -26.4293  -37.3781   23.9408 N   0  0  0  0  0  0
  -24.6867  -31.0640   22.1006 N   0  0  0  0  0  0
  -23.4203  -28.8167   23.3010 O   0  0  0  0  0  0
  -28.3475  -26.4967   20.1597 O   0  0  0  0  0  0
  -26.5612  -34.8920   22.4670 O   0  0  0  0  0  0
  -23.5429  -32.1415   23.7394 O   0  0  0  0  0  0
  -30.5065  -21.7317   20.9984 C   0  0  0  0  0  0
  -28.4517  -22.6361   20.0952 C   0  0  0  0  0  0
  -29.0530  -23.9480   20.1219 C   0  0  0  0  0  0
  -29.2098  -21.4774   20.5037 C   0  0  0  0  0  0
  -30.3641  -24.0306   20.6291 C   0  0  0  0  0  0
  -25.8903  -23.2575   20.1938 C   0  0  0  0  0  0
  -25.9856  -21.7794   20.4622 C   0  0  0  0  0  0
  -28.9189  -17.8462   19.3899 C   0  0  0  0  0  0
  -29.5645  -18.1095   21.7189 C   0  0  0  0  0  0
  -29.7389  -16.5180   19.3119 C   0  0  0  0  0  0
  -30.3652  -16.7581   21.6409 C   0  0  0  0  0  0
  -27.0366  -22.4582   19.6060 C   0  0  0  0  0  0
  -29.5006  -18.8812   20.3790 C   0  0  0  0  0  0
  -32.3444  -25.3288   21.0927 C   0  0  0  0  0  0
  -28.4247  -25.2131   19.4329 C   0  0  0  0  0  0
  -31.0597  -22.9595   21.0767 N   0  0  0  0  0  0
  -29.9487  -15.7865   20.5906 N   0  0  0  0  0  0
  -28.6963  -20.1405   20.4184 N   0  0  0  0  0  0
  -30.9978  -25.2560   20.6342 O   0  0  0  0  0  0
  -31.4627  -12.4700   19.1522 H   0  0  0  0  0  0
  -30.3236  -11.3937   19.9142 H   0  0  0  0  0  0
  -29.7578  -11.7312   17.4819 H   0  0  0  0  0  0
  -29.6518  -13.4556   17.7277 H   0  0  0  0  0  0
  -27.8505  -11.2961   18.8665 H   0  0  0  0  0  0
  -27.3693  -12.5773   17.7879 H   0  0  0  0  0  0
  -27.6487  -14.2576   19.4972 H   0  0  0  0  0  0
  -28.6967  -12.1293   21.4257 H   0  0  0  0  0  0
  -28.4547  -13.8230   21.7901 H   0  0  0  0  0  0
  -25.2758   -9.5694   22.4752 H   0  0  0  0  0  0
  -24.0009   -7.4636   22.7467 H   0  0  0  0  0  0
  -21.0840   -8.8765   19.8955 H   0  0  0  0  0  0
  -22.3687  -10.9667   19.6161 H   0  0  0  0  0  0
  -21.2006   -7.6144   23.9711 H   0  0  0  0  0  0
  -21.1486   -6.0519   25.9076 H   0  0  0  0  0  0
  -22.0599   -2.7605   23.2841 H   0  0  0  0  0  0
  -22.4096  -11.9898   22.4811 H   0  0  0  0  0  0
  -21.1085  -13.1243   22.2596 H   0  0  0  0  0  0
  -24.6661  -15.8522   20.5406 H   0  0  0  0  0  0
  -26.2945  -15.6315   20.1410 H   0  0  0  0  0  0
  -26.7179  -32.5453   23.1114 H   0  0  0  0  0  0
  -25.0089  -33.9729   25.0440 H   0  0  0  0  0  0
  -22.7104  -31.3112   21.4126 H   0  0  0  0  0  0
  -23.3755  -35.9626   23.3295 H   0  0  0  0  0  0
  -24.3586  -36.8922   22.2053 H   0  0  0  0  0  0
  -23.7239  -37.6496   23.6658 H   0  0  0  0  0  0
  -26.0945  -31.5580   20.6122 H   0  0  0  0  0  0
  -26.8402  -30.8344   22.0074 H   0  0  0  0  0  0
  -28.1041  -28.9738   21.1881 H   0  0  0  0  0  0
  -25.8790  -25.9549   18.9972 H   0  0  0  0  0  0
  -23.9465  -27.3285   19.0207 H   0  0  0  0  0  0
  -23.7484  -30.6129   19.4097 H   0  0  0  0  0  0
  -22.7468  -29.2654   19.8584 H   0  0  0  0  0  0
  -25.1293  -36.1942   25.0823 H   0  0  0  0  0  0
  -20.9979  -28.3257   24.1406 H   0  0  0  0  0  0
  -20.5684  -26.2294   23.3604 H   0  0  0  0  0  0
  -21.6643  -26.7447   22.1198 H   0  0  0  0  0  0
  -19.6912  -25.6296   21.1242 H   0  0  0  0  0  0
  -19.6695  -27.3194   20.6745 H   0  0  0  0  0  0
  -17.4205  -26.6681   21.4022 H   0  0  0  0  0  0
  -18.0331  -26.0072   22.9016 H   0  0  0  0  0  0
  -19.7934  -30.7272   24.2265 H   0  0  0  0  0  0
  -17.5013  -31.6267   24.5163 H   0  0  0  0  0  0
  -15.5350  -30.2981   23.7660 H   0  0  0  0  0  0
  -15.8675  -28.0824   22.7059 H   0  0  0  0  0  0
  -24.5904  -30.7081   25.7795 H   0  0  0  0  0  0
  -24.8926  -32.2900   26.4888 H   0  0  0  0  0  0
  -25.8056  -30.8908   27.0240 H   0  0  0  0  0  0
  -26.2899  -29.6766   24.1210 H   0  0  0  0  0  0
  -27.4018  -29.7258   25.4696 H   0  0  0  0  0  0
  -27.8782  -30.4286   23.9419 H   0  0  0  0  0  0
  -27.2680  -33.3620   26.2077 H   0  0  0  0  0  0
  -28.3875  -32.6869   25.0329 H   0  0  0  0  0  0
  -28.0727  -31.8441   26.5420 H   0  0  0  0  0  0
  -28.2597  -38.0106   24.7511 H   0  0  0  0  0  0
  -28.1080  -36.2637   24.6279 H   0  0  0  0  0  0
  -27.2303  -37.1445   25.8866 H   0  0  0  0  0  0
  -20.9359  -29.8774   21.6908 H   0  0  0  0  0  0
  -26.0177  -38.2858   24.1405 H   0  0  0  0  0  0
  -31.1310  -20.9246   21.3515 H   0  0  0  0  0  0
  -26.1089  -23.9307   21.0210 H   0  0  0  0  0  0
  -25.1014  -23.5846   19.5199 H   0  0  0  0  0  0
  -25.2567  -21.1418   19.9661 H   0  0  0  0  0  0
  -26.2644  -21.4772   21.4700 H   0  0  0  0  0  0
  -27.8891  -17.6091   19.6623 H   0  0  0  0  0  0
  -28.8701  -18.2851   18.3922 H   0  0  0  0  0  0
  -30.0127  -18.7455   22.4834 H   0  0  0  0  0  0
  -28.5516  -17.8971   22.0652 H   0  0  0  0  0  0
  -30.7135  -16.7454   18.8747 H   0  0  0  0  0  0
  -29.2475  -15.8509   18.6016 H   0  0  0  0  0  0
  -30.3045  -16.2611   22.6105 H   0  0  0  0  0  0
  -31.4206  -16.9962   21.4942 H   0  0  0  0  0  0
  -27.0202  -22.2558   18.5367 H   0  0  0  0  0  0
  -30.5156  -19.1210   20.0570 H   0  0  0  0  0  0
  -32.6972  -26.3572   21.0182 H   0  0  0  0  0  0
  -33.0071  -24.7095   20.4868 H   0  0  0  0  0  0
  -32.4274  -25.0264   22.1371 H   0  0  0  0  0  0
  -27.5256  -24.9059   18.9218 H   0  0  0  0  0  0
  -29.0926  -25.4279   18.5982 H   0  0  0  0  0  0
  -27.7362  -20.0536   20.0955 H   0  0  0  0  0  0
  1 25  1  0  0  0
  1 30  2  0  0  0
  1 87  1  0  0  0
  2  3  1  0  0  0
  2 25  1  0  0  0
  2 90  1  0  0  0
  2 91  1  0  0  0
  3  4  1  0  0  0
  3 92  1  0  0  0
  3 93  1  0  0  0
  4  5  1  0  0  0
  4 94  1  0  0  0
  4 95  1  0  0  0
  5  6  1  0  0  0
  5 26  1  0  0  0
  5 96  1  0  0  0
  6 25  1  0  0  0
  6 97  1  0  0  0
  6 98  1  0  0  0
  7  8  2  0  0  0
  7 26  1  0  0  0
  7 29  1  0  0  0
  8  9  1  0  0  0
  8 22  1  0  0  0
  9 10  1  0  0  0
  9 27  2  0  0  0
 10 11  2  0  0  0
 10 15  1  0  0  0
 11 12  1  0  0  0
 11 99  1  0  0  0
 12 13  2  0  0  0
 12100  1  0  0  0
 13 14  1  0  0  0
 13 31  1  0  0  0
 14 15  2  0  0  0
 14101  1  0  0  0
 15102  1  0  0  0
 16 17  2  0  0  0
 16 21  1  0  0  0
 16 31  1  0  0  0
 17 18  1  0  0  0
 17103  1  0  0  0
 18 19  2  0  0  0
 18104  1  0  0  0
 19 20  1  0  0  0
 19 24  1  0  0  0
 20 21  2  0  0  0
 20105  1  0  0  0
 21 23  1  0  0  0
 22 28  1  0  0  0
 22 32  2  0  0  0
 26 27  1  0  0  0
 28106  1  0  0  0
 28107  1  0  0  0
 29108  1  0  0  0
 29109  1  0  0  0
 33 34  1  0  0  0
 33 66  1  0  0  0
 33 70  2  0  0  0
 34 36  1  0  0  0
 34 59  1  0  0  0
 34110  1  0  0  0
 35 44  2  0  0  0
 35 45  1  0  0  0
 35 68  1  0  0  0
 36 56  1  0  0  0
 36111  1  0  0  0
 37 39  1  0  0  0
 37 47  1  0  0  0
 37 66  1  0  0  0
 37112  1  0  0  0
 38 43  2  0  0  0
 38 46  1  0  0  0
 38 47  1  0  0  0
 39 64  1  0  0  0
 39 67  2  0  0  0
 40 52  1  0  0  0
 40 53  2  0  0  0
 40 58  1  0  0  0
 41113  1  0  0  0
 41114  1  0  0  0
 41115  1  0  0  0
 41 48  1  0  0  0
 42 43  1  0  0  0
 42 66  1  0  0  0
 42116  1  0  0  0
 42117  1  0  0  0
 43 44  1  0  0  0
 44118  1  0  0  0
 45 46  2  0  0  0
 45119  1  0  0  0
 46120  1  0  0  0
 47121  1  0  0  0
 47122  1  0  0  0
 48 56  1  0  0  0
 48 65  1  0  0  0
 48123  1  0  0  0
 49 50  1  0  0  0
 49 53  1  0  0  0
 49 64  1  0  0  0
 49124  1  0  0  0
 50 51  1  0  0  0
 50125  1  0  0  0
 50126  1  0  0  0
 51 52  1  0  0  0
 51127  1  0  0  0
 51128  1  0  0  0
 52129  1  0  0  0
 52130  1  0  0  0
 53 54  1  0  0  0
 54 55  2  0  0  0
 54131  1  0  0  0
 55 57  1  0  0  0
 55132  1  0  0  0
 56 69  2  0  0  0
 57 58  2  0  0  0
 57133  1  0  0  0
 58134  1  0  0  0
 59 60  1  0  0  0
 59 61  1  0  0  0
 59 62  1  0  0  0
 60135  1  0  0  0
 60136  1  0  0  0
 60137  1  0  0  0
 61138  1  0  0  0
 61139  1  0  0  0
 61140  1  0  0  0
 62141  1  0  0  0
 62142  1  0  0  0
 62143  1  0  0  0
 63 65  1  0  0  0
 63144  1  0  0  0
 63145  1  0  0  0
 63146  1  0  0  0
 64147  1  0  0  0
 65148  1  0  0  0
 68 85  1  0  0  0
 71 74  2  0  0  0
 71 86  1  0  0  0
 71149  1  0  0  0
 72 73  2  0  0  0
 72 74  1  0  0  0
 72 82  1  0  0  0
 73 75  1  0  0  0
 73 85  1  0  0  0
 74 88  1  0  0  0
 75 86  2  0  0  0
 75 89  1  0  0  0
 76 77  1  0  0  0
 76 82  1  0  0  0
 76150  1  0  0  0
 76151  1  0  0  0
 77 82  1  0  0  0
 77152  1  0  0  0
 77153  1  0  0  0
 78 80  1  0  0  0
 78 83  1  0  0  0
 78154  1  0  0  0
 78155  1  0  0  0
 79 81  1  0  0  0
 79 83  1  0  0  0
 79156  1  0  0  0
 79157  1  0  0  0
 80 87  1  0  0  0
 80158  1  0  0  0
 80159  1  0  0  0
 81 87  1  0  0  0
 81160  1  0  0  0
 81161  1  0  0  0
 82162  1  0  0  0
 83 88  1  0  0  0
 83163  1  0  0  0
 84 89  1  0  0  0
 84164  1  0  0  0
 84165  1  0  0  0
 84166  1  0  0  0
 85167  1  0  0  0
 85168  1  0  0  0
 88169  1  0  0  0
M  ISO  4   1 100  68 101  85 101  87 100
M  END
> <chiral flag>
0

> <version>
0

> <s_m_source_file>
/data/baiqing/PycharmProjects/Reinvent-master-3.2/result/LINK_invent/BTK/process_docking_weight1_custom_sum_contain_oxygen_bond_distance_aromatic_linkinvent_7_9_3/rearranged_h_0153.sdf

> <i_m_source_file_index>
23

> <r_mmod_Potential_Energy-OPLS-2005>
180.238784790039

> <r_mmod_Stretch_Energy-OPLS-2005>
77.5272369384766

> <r_mmod_Bend_Energy-OPLS-2005>
170.690078735352

> <r_mmod_Torsional_Energy-OPLS-2005>
346.344390869141

> <r_mmod_Improper_Torsional_Energy-OPLS-2005>
13.7127313613892

> <r_mmod_Van_der_Waal_Energy-OPLS-2005>
157.067642211914

> <r_mmod_Electrostatic_Energy-OPLS-2005>
-425.465667724609

> <r_mmod_Solvation_Energy-OPLS-2005>
-207.867660522461

> <b_mmod_Minimization_Converged-OPLS-2005>
0

> <r_mmod_RMS_Derivative-OPLS-2005>
0.717053055763245

$$$$
23
                    3D
 Structure written by MMmdl.
173182  0  0  1  0            999 V2000
  -30.7188  -14.4559   20.6139 C   0  0  0  0  0  0
  -30.4210  -12.3140   19.4175 C   0  0  0  0  0  0
  -29.4916  -12.5100   18.2032 C   0  0  0  0  0  0
  -28.0140  -12.3673   18.6181 C   0  0  0  0  0  0
  -27.6611  -13.2072   19.8749 C   0  0  2  0  0  0
  -28.7010  -12.9854   20.9950 C   0  0  0  0  0  0
  -25.2590  -13.8165   20.5680 C   0  0  0  0  0  0
  -24.1838  -13.0445   20.9174 C   0  0  0  0  0  0
  -24.6385  -11.6909   20.8732 C   0  0  0  0  0  0
  -23.9053  -10.4295   21.0405 C   0  0  0  0  0  0
  -24.3608   -9.4212   21.9185 C   0  0  0  0  0  0
  -23.6288   -8.2248   22.0753 C   0  0  0  0  0  0
  -22.4273   -8.0281   21.3543 C   0  0  0  0  0  0
  -21.9905   -9.0251   20.4644 C   0  0  0  0  0  0
  -22.7228  -10.2134   20.3053 C   0  0  0  0  0  0
  -21.6852   -6.0735   22.5279 C   0  0  0  0  0  0
  -21.4009   -6.5638   23.8211 C   0  0  0  0  0  0
  -21.3658   -5.6793   24.9174 C   0  0  0  0  0  0
  -21.6046   -4.3055   24.7227 C   0  0  0  0  0  0
  -21.8820   -3.8147   23.4346 C   0  0  0  0  0  0
  -21.9192   -4.6964   22.3402 C   0  0  0  0  0  0
  -22.7863  -13.5250   21.1844 C   0  0  0  0  0  0
  -22.1662   -4.2148   21.0981 F   0  0  0  0  0  0
  -21.5632   -3.4540   25.7739 F   0  0  0  0  0  0
  -30.0320  -13.2931   20.4447 N   0  0  0  0  0  0
  -26.3020  -12.9331   20.3363 N   0  0  0  0  0  0
  -25.9314  -11.6489   20.5762 N   0  0  0  0  0  0
  -22.0500  -12.8237   22.0396 N   0  0  0  0  0  0
  -25.4330  -15.1879   20.4088 N   0  0  0  0  0  0
  -31.8193  -14.6593   20.0927 O   0  0  0  0  0  0
  -21.6637   -6.8878   21.4240 O   0  0  0  0  0  0
  -22.3549  -14.5563   20.6704 O   0  0  0  0  0  0
  -24.6146  -31.8663   23.2096 C   0  0  0  0  0  0
  -25.9037  -32.4815   23.8390 C   0  0  1  0  0  0
  -27.2356  -27.4373   20.0991 C   0  0  0  0  0  0
  -25.5890  -33.8616   24.2323 N   0  0  0  0  0  0
  -23.4030  -30.4884   21.5495 C   0  0  2  0  0  0
  -24.8513  -28.9502   20.1173 C   0  0  0  0  0  0
  -22.7411  -29.4642   22.4991 C   0  0  0  0  0  0
  -18.0265  -28.1368   22.8483 C   0  0  0  0  0  0
  -24.1481  -36.7309   23.2642 C   0  0  0  0  0  0
  -25.9310  -30.8336   21.3615 C   0  0  0  0  0  0
  -26.0102  -29.4662   20.7118 C   0  0  0  0  0  0
  -27.2090  -28.7173   20.6980 C   0  0  0  0  0  0
  -26.0633  -26.9285   19.5065 C   0  0  0  0  0  0
  -24.8717  -27.6801   19.5120 C   0  0  0  0  0  0
  -23.6125  -29.8170   20.1651 C   0  0  0  0  0  0
  -25.4099  -36.3109   24.0343 C   0  0  1  0  0  0
  -20.5854  -28.3649   23.1317 C   0  0  2  0  0  0
  -20.6758  -26.9382   22.5422 C   0  0  0  0  0  0
  -19.5749  -26.6370   21.5213 C   0  0  0  0  0  0
  -18.1917  -26.7912   22.1608 C   0  0  0  0  0  0
  -19.1514  -28.8824   23.2900 C   0  0  0  0  0  0
  -18.9451  -30.1432   23.8911 C   0  0  0  0  0  0
  -17.6454  -30.6573   24.0566 C   0  0  0  0  0  0
  -25.9025  -34.9475   23.5128 C   0  0  0  0  0  0
  -16.5344  -29.9077   23.6333 C   0  0  0  0  0  0
  -16.7253  -28.6497   23.0343 C   0  0  0  0  0  0
  -26.4474  -31.6597   25.0718 C   0  0  0  0  0  0
  -25.3747  -31.3693   26.1466 C   0  0  0  0  0  0
  -27.0303  -30.3042   24.6075 C   0  0  0  0  0  0
  -27.6049  -32.4319   25.7482 C   0  0  0  0  0  0
  -27.5577  -37.1804   24.8466 C   0  0  0  0  0  0
  -21.4135  -29.3021   22.3734 N   0  0  0  0  0  0
  -26.4287  -37.3793   23.9415 N   0  0  0  0  0  0
  -24.6678  -31.0770   22.0988 N   0  0  0  0  0  0
  -23.4187  -28.8188   23.3028 O   0  0  0  0  0  0
  -28.3918  -26.6937   20.0668 O   0  0  0  0  0  0
  -26.5594  -34.8930   22.4695 O   0  0  0  0  0  0
  -23.5340  -32.1400   23.7499 O   0  0  0  0  0  0
  -29.2324  -20.8348   21.0453 C   0  0  0  0  0  0
  -28.6298  -22.0532   21.4873 C   0  0  0  0  0  0
  -27.5307  -21.7212   22.2490 C   0  0  0  0  0  0
  -28.5305  -19.8020   21.6061 C   0  0  0  0  0  0
  -25.0697  -22.5211   22.8270 C   0  0  0  0  0  0
  -25.8017  -23.7343   22.3316 C   0  0  0  0  0  0
  -26.5740  -22.6130   22.9991 C   0  0  0  0  0  0
  -27.2104  -18.9427   24.4090 C   0  0  0  0  0  0
  -25.7094  -18.5400   22.3695 C   0  0  0  0  0  0
  -30.5760  -16.8647   23.2723 C   0  0  0  0  0  0
  -30.0776  -17.9098   20.9505 C   0  0  0  0  0  0
  -28.4407  -25.6142   21.0122 C   0  0  0  0  0  0
  -28.5571  -24.2048   20.3729 C   0  0  0  0  0  0
  -26.5248  -19.5597   23.1821 C   0  0  0  0  0  0
  -30.6597  -16.7055   21.7458 C   0  0  2  0  0  0
  -27.4771  -20.3224   22.3561 N   0  0  0  0  0  0
  -28.8246  -18.4273   21.5035 N   0  0  0  0  0  0
  -30.0983  -15.4073   21.3380 N   0  0  0  0  0  0
  -29.1667  -23.3123   21.3125 O   0  0  0  0  0  0
  -31.4647  -12.4160   19.1145 H   0  0  0  0  0  0
  -30.3264  -11.3014   19.8133 H   0  0  0  0  0  0
  -29.7315  -11.7842   17.4250 H   0  0  0  0  0  0
  -29.6582  -13.4955   17.7654 H   0  0  0  0  0  0
  -27.8274  -11.3111   18.8165 H   0  0  0  0  0  0
  -27.3613  -12.6402   17.7880 H   0  0  0  0  0  0
  -27.7075  -14.2561   19.5804 H   0  0  0  0  0  0
  -28.6786  -11.9482   21.3329 H   0  0  0  0  0  0
  -28.4535  -13.5789   21.8759 H   0  0  0  0  0  0
  -25.2756   -9.5691   22.4755 H   0  0  0  0  0  0
  -23.9999   -7.4639   22.7476 H   0  0  0  0  0  0
  -21.0837   -8.8768   19.8950 H   0  0  0  0  0  0
  -22.3689  -10.9670   19.6159 H   0  0  0  0  0  0
  -21.1994   -7.6143   23.9712 H   0  0  0  0  0  0
  -21.1480   -6.0523   25.9078 H   0  0  0  0  0  0
  -22.0600   -2.7608   23.2848 H   0  0  0  0  0  0
  -22.4107  -11.9887   22.4769 H   0  0  0  0  0  0
  -21.1122  -13.1263   22.2602 H   0  0  0  0  0  0
  -24.6714  -15.8477   20.5215 H   0  0  0  0  0  0
  -26.2908  -15.6232   20.0934 H   0  0  0  0  0  0
  -26.7109  -32.5531   23.1157 H   0  0  0  0  0  0
  -25.0078  -33.9781   25.0492 H   0  0  0  0  0  0
  -22.6917  -31.3046   21.4086 H   0  0  0  0  0  0
  -23.3746  -35.9642   23.3309 H   0  0  0  0  0  0
  -24.3579  -36.8916   22.2056 H   0  0  0  0  0  0
  -23.7228  -37.6513   23.6649 H   0  0  0  0  0  0
  -26.0395  -31.5978   20.5906 H   0  0  0  0  0  0
  -26.8209  -30.8902   21.9771 H   0  0  0  0  0  0
  -28.1075  -29.1126   21.1505 H   0  0  0  0  0  0
  -26.0746  -25.9539   19.0394 H   0  0  0  0  0  0
  -23.9808  -27.2762   19.0521 H   0  0  0  0  0  0
  -23.7213  -30.5906   19.4041 H   0  0  0  0  0  0
  -22.7372  -29.2362   19.8693 H   0  0  0  0  0  0
  -25.1279  -36.1975   25.0835 H   0  0  0  0  0  0
  -20.9945  -28.3204   24.1436 H   0  0  0  0  0  0
  -20.5652  -26.2251   23.3604 H   0  0  0  0  0  0
  -21.6632  -26.7412   22.1226 H   0  0  0  0  0  0
  -19.6918  -25.6288   21.1229 H   0  0  0  0  0  0
  -19.6705  -27.3195   20.6757 H   0  0  0  0  0  0
  -17.4199  -26.6668   21.3999 H   0  0  0  0  0  0
  -18.0306  -26.0042   22.8987 H   0  0  0  0  0  0
  -19.7934  -30.7245   24.2277 H   0  0  0  0  0  0
  -17.5014  -31.6255   24.5162 H   0  0  0  0  0  0
  -15.5351  -30.2993   23.7650 H   0  0  0  0  0  0
  -15.8643  -28.0835   22.7047 H   0  0  0  0  0  0
  -24.5951  -30.6996   25.7813 H   0  0  0  0  0  0
  -24.8902  -32.2846   26.4886 H   0  0  0  0  0  0
  -25.8112  -30.8903   27.0239 H   0  0  0  0  0  0
  -26.2834  -29.6806   24.1149 H   0  0  0  0  0  0
  -27.4104  -29.7269   25.4513 H   0  0  0  0  0  0
  -27.8651  -30.4370   23.9190 H   0  0  0  0  0  0
  -27.2662  -33.3616   26.2071 H   0  0  0  0  0  0
  -28.3852  -32.6887   25.0305 H   0  0  0  0  0  0
  -28.0723  -31.8442   26.5393 H   0  0  0  0  0  0
  -28.2596  -38.0100   24.7512 H   0  0  0  0  0  0
  -28.1070  -36.2632   24.6284 H   0  0  0  0  0  0
  -27.2304  -37.1444   25.8873 H   0  0  0  0  0  0
  -20.9292  -29.8749   21.6966 H   0  0  0  0  0  0
  -26.0177  -38.2872   24.1424 H   0  0  0  0  0  0
  -30.1214  -20.7454   20.4376 H   0  0  0  0  0  0
  -24.6836  -21.8311   22.0787 H   0  0  0  0  0  0
  -24.4539  -22.6361   23.7169 H   0  0  0  0  0  0
  -25.6677  -24.6584   22.8908 H   0  0  0  0  0  0
  -25.8259  -23.8458   21.2521 H   0  0  0  0  0  0
  -26.9449  -22.8053   24.0045 H   0  0  0  0  0  0
  -26.4822  -18.4645   25.0644 H   0  0  0  0  0  0
  -27.7243  -19.7072   24.9924 H   0  0  0  0  0  0
  -27.9438  -18.1915   24.1289 H   0  0  0  0  0  0
  -24.9220  -18.1005   22.9824 H   0  0  0  0  0  0
  -26.3183  -17.7188   21.9955 H   0  0  0  0  0  0
  -25.2291  -19.0171   21.5149 H   0  0  0  0  0  0
  -30.9182  -17.8523   23.5832 H   0  0  0  0  0  0
  -31.2005  -16.1276   23.7781 H   0  0  0  0  0  0
  -29.5593  -16.7309   23.6378 H   0  0  0  0  0  0
  -29.9396  -17.6462   19.9008 H   0  0  0  0  0  0
  -30.8266  -18.7022   20.9648 H   0  0  0  0  0  0
  -29.3328  -25.7934   21.6127 H   0  0  0  0  0  0
  -27.6102  -25.6467   21.7174 H   0  0  0  0  0  0
  -29.2211  -24.2580   19.5097 H   0  0  0  0  0  0
  -27.6008  -23.8452   19.9962 H   0  0  0  0  0  0
  -25.7942  -20.2462   23.5968 H   0  0  0  0  0  0
  -31.7260  -16.6951   21.5103 H   0  0  0  0  0  0
  -28.2673  -17.7600   22.0242 H   0  0  0  0  0  0
  -29.1785  -15.1773   21.6805 H   0  0  0  0  0  0
  1 25  1  0  0  0
  1 30  2  0  0  0
  1 88  1  0  0  0
  2  3  1  0  0  0
  2 25  1  0  0  0
  2 90  1  0  0  0
  2 91  1  0  0  0
  3  4  1  0  0  0
  3 92  1  0  0  0
  3 93  1  0  0  0
  4  5  1  0  0  0
  4 94  1  0  0  0
  4 95  1  0  0  0
  5  6  1  0  0  0
  5 26  1  0  0  0
  5 96  1  0  0  0
  6 25  1  0  0  0
  6 97  1  0  0  0
  6 98  1  0  0  0
  7  8  2  0  0  0
  7 26  1  0  0  0
  7 29  1  0  0  0
  8  9  1  0  0  0
  8 22  1  0  0  0
  9 10  1  0  0  0
  9 27  2  0  0  0
 10 11  2  0  0  0
 10 15  1  0  0  0
 11 12  1  0  0  0
 11 99  1  0  0  0
 12 13  2  0  0  0
 12100  1  0  0  0
 13 14  1  0  0  0
 13 31  1  0  0  0
 14 15  2  0  0  0
 14101  1  0  0  0
 15102  1  0  0  0
 16 17  2  0  0  0
 16 21  1  0  0  0
 16 31  1  0  0  0
 17 18  1  0  0  0
 17103  1  0  0  0
 18 19  2  0  0  0
 18104  1  0  0  0
 19 20  1  0  0  0
 19 24  1  0  0  0
 20 21  2  0  0  0
 20105  1  0  0  0
 21 23  1  0  0  0
 22 28  1  0  0  0
 22 32  2  0  0  0
 26 27  1  0  0  0
 28106  1  0  0  0
 28107  1  0  0  0
 29108  1  0  0  0
 29109  1  0  0  0
 33 34  1  0  0  0
 33 66  1  0  0  0
 33 70  2  0  0  0
 34 36  1  0  0  0
 34 59  1  0  0  0
 34110  1  0  0  0
 35 44  2  0  0  0
 35 45  1  0  0  0
 35 68  1  0  0  0
 36 56  1  0  0  0
 36111  1  0  0  0
 37 39  1  0  0  0
 37 47  1  0  0  0
 37 66  1  0  0  0
 37112  1  0  0  0
 38 43  2  0  0  0
 38 46  1  0  0  0
 38 47  1  0  0  0
 39 64  1  0  0  0
 39 67  2  0  0  0
 40 52  1  0  0  0
 40 53  2  0  0  0
 40 58  1  0  0  0
 41113  1  0  0  0
 41114  1  0  0  0
 41115  1  0  0  0
 41 48  1  0  0  0
 42 43  1  0  0  0
 42 66  1  0  0  0
 42116  1  0  0  0
 42117  1  0  0  0
 43 44  1  0  0  0
 44118  1  0  0  0
 45 46  2  0  0  0
 45119  1  0  0  0
 46120  1  0  0  0
 47121  1  0  0  0
 47122  1  0  0  0
 48 56  1  0  0  0
 48 65  1  0  0  0
 48123  1  0  0  0
 49 50  1  0  0  0
 49 53  1  0  0  0
 49 64  1  0  0  0
 49124  1  0  0  0
 50 51  1  0  0  0
 50125  1  0  0  0
 50126  1  0  0  0
 51 52  1  0  0  0
 51127  1  0  0  0
 51128  1  0  0  0
 52129  1  0  0  0
 52130  1  0  0  0
 53 54  1  0  0  0
 54 55  2  0  0  0
 54131  1  0  0  0
 55 57  1  0  0  0
 55132  1  0  0  0
 56 69  2  0  0  0
 57 58  2  0  0  0
 57133  1  0  0  0
 58134  1  0  0  0
 59 60  1  0  0  0
 59 61  1  0  0  0
 59 62  1  0  0  0
 60135  1  0  0  0
 60136  1  0  0  0
 60137  1  0  0  0
 61138  1  0  0  0
 61139  1  0  0  0
 61140  1  0  0  0
 62141  1  0  0  0
 62142  1  0  0  0
 62143  1  0  0  0
 63 65  1  0  0  0
 63144  1  0  0  0
 63145  1  0  0  0
 63146  1  0  0  0
 64147  1  0  0  0
 65148  1  0  0  0
 68 82  1  0  0  0
 71 72  1  0  0  0
 71 74  2  0  0  0
 71149  1  0  0  0
 72 73  2  0  0  0
 72 89  1  0  0  0
 73 86  1  0  0  0
 73 77  1  0  0  0
 74 86  1  0  0  0
 74 87  1  0  0  0
 75 76  1  0  0  0
 75 77  1  0  0  0
 75150  1  0  0  0
 75151  1  0  0  0
 76 77  1  0  0  0
 76152  1  0  0  0
 76153  1  0  0  0
 77154  1  0  0  0
 78155  1  0  0  0
 78156  1  0  0  0
 78157  1  0  0  0
 78 84  1  0  0  0
 79 84  1  0  0  0
 79158  1  0  0  0
 79159  1  0  0  0
 79160  1  0  0  0
 80161  1  0  0  0
 80162  1  0  0  0
 80163  1  0  0  0
 80 85  1  0  0  0
 81 85  1  0  0  0
 81 87  1  0  0  0
 81164  1  0  0  0
 81165  1  0  0  0
 82 83  1  0  0  0
 82166  1  0  0  0
 82167  1  0  0  0
 83 89  1  0  0  0
 83168  1  0  0  0
 83169  1  0  0  0
 84 86  1  0  0  0
 84170  1  0  0  0
 85 88  1  0  0  0
 85171  1  0  0  0
 87172  1  0  0  0
 88173  1  0  0  0
M  ISO  4   1 100  68 101  82 101  88 100
M  END
> <chiral flag>
0

> <version>
0

> <s_m_source_file>
/data/baiqing/PycharmProjects/Reinvent-master-3.2/result/LINK_invent/BTK/process_docking_weight1_custom_sum_contain_oxygen_bond_distance_aromatic_linkinvent_7_9_3/rearranged_h_0153.sdf

> <i_m_source_file_index>
24

> <r_mmod_Potential_Energy-OPLS-2005>
-58.8735427856445

> <r_mmod_Stretch_Energy-OPLS-2005>
38.9495849609375

> <r_mmod_Bend_Energy-OPLS-2005>
117.365180969238

> <r_mmod_Torsional_Energy-OPLS-2005>
315.920257568359

> <r_mmod_Improper_Torsional_Energy-OPLS-2005>
4.08325910568237

> <r_mmod_Van_der_Waal_Energy-OPLS-2005>
118.455741882324

> <r_mmod_Electrostatic_Energy-OPLS-2005>
-458.002807617188

> <r_mmod_Solvation_Energy-OPLS-2005>
-206.138427734375

> <b_mmod_Minimization_Converged-OPLS-2005>
0

> <r_mmod_RMS_Derivative-OPLS-2005>
0.935812532901764

$$$$
24
                    3D
 Structure written by MMmdl.
177187  0  0  1  0            999 V2000
  -30.7030  -14.4303   20.6720 C   0  0  0  0  0  0
  -30.4247  -12.3196   19.3918 C   0  0  0  0  0  0
  -29.4806  -12.5567   18.1918 C   0  0  0  0  0  0
  -27.9975  -12.4061   18.5951 C   0  0  0  0  0  0
  -27.6722  -13.1730   19.9025 C   0  0  2  0  0  0
  -28.7265  -12.8241   20.9885 C   0  0  0  0  0  0
  -25.2620  -13.8028   20.5704 C   0  0  0  0  0  0
  -24.1816  -13.0380   20.9155 C   0  0  0  0  0  0
  -24.6358  -11.6818   20.8720 C   0  0  0  0  0  0
  -23.9024  -10.4249   21.0387 C   0  0  0  0  0  0
  -24.3604   -9.4185   21.9170 C   0  0  0  0  0  0
  -23.6279   -8.2218   22.0764 C   0  0  0  0  0  0
  -22.4250   -8.0277   21.3577 C   0  0  0  0  0  0
  -21.9879   -9.0229   20.4680 C   0  0  0  0  0  0
  -22.7187  -10.2109   20.3047 C   0  0  0  0  0  0
  -21.6850   -6.0716   22.5269 C   0  0  0  0  0  0
  -21.4007   -6.5627   23.8195 C   0  0  0  0  0  0
  -21.3661   -5.6814   24.9172 C   0  0  0  0  0  0
  -21.6048   -4.3071   24.7240 C   0  0  0  0  0  0
  -21.8804   -3.8144   23.4360 C   0  0  0  0  0  0
  -21.9196   -4.6950   22.3413 C   0  0  0  0  0  0
  -22.7862  -13.5207   21.1867 C   0  0  0  0  0  0
  -22.1674   -4.2124   21.1000 F   0  0  0  0  0  0
  -21.5648   -3.4562   25.7758 F   0  0  0  0  0  0
  -30.0366  -13.2454   20.4742 N   0  0  0  0  0  0
  -26.3080  -12.9154   20.3526 N   0  0  0  0  0  0
  -25.9268  -11.6335   20.5766 N   0  0  0  0  0  0
  -22.0509  -12.8133   22.0405 N   0  0  0  0  0  0
  -25.4361  -15.1745   20.4104 N   0  0  0  0  0  0
  -31.7610  -14.6491   20.0632 O   0  0  0  0  0  0
  -21.6673   -6.8838   21.4211 O   0  0  0  0  0  0
  -22.3543  -14.5548   20.6788 O   0  0  0  0  0  0
  -24.6123  -31.8701   23.2183 C   0  0  0  0  0  0
  -25.9042  -32.4827   23.8431 C   0  0  1  0  0  0
  -27.2340  -27.4722   20.0634 C   0  0  0  0  0  0
  -25.5919  -33.8619   24.2391 N   0  0  0  0  0  0
  -23.3939  -30.4944   21.5593 C   0  0  2  0  0  0
  -24.8367  -28.9730   20.1126 C   0  0  0  0  0  0
  -22.7379  -29.4601   22.5016 C   0  0  0  0  0  0
  -18.0228  -28.1349   22.8419 C   0  0  0  0  0  0
  -24.1474  -36.7306   23.2639 C   0  0  0  0  0  0
  -25.9206  -30.8407   21.3674 C   0  0  0  0  0  0
  -25.9960  -29.4805   20.7116 C   0  0  0  0  0  0
  -27.1921  -28.7361   20.6930 C   0  0  0  0  0  0
  -26.0566  -26.9857   19.4486 C   0  0  0  0  0  0
  -24.8567  -27.7159   19.4865 C   0  0  0  0  0  0
  -23.5995  -29.8389   20.1686 C   0  0  0  0  0  0
  -25.4080  -36.3094   24.0342 C   0  0  1  0  0  0
  -20.5819  -28.3561   23.1324 C   0  0  2  0  0  0
  -20.6734  -26.9264   22.5465 C   0  0  0  0  0  0
  -19.5776  -26.6367   21.5151 C   0  0  0  0  0  0
  -18.1855  -26.7953   22.1411 C   0  0  0  0  0  0
  -19.1494  -28.8761   23.2876 C   0  0  0  0  0  0
  -18.9473  -30.1347   23.8966 C   0  0  0  0  0  0
  -17.6502  -30.6546   24.0615 C   0  0  0  0  0  0
  -25.9018  -34.9463   23.5154 C   0  0  0  0  0  0
  -16.5358  -29.9102   23.6344 C   0  0  0  0  0  0
  -16.7248  -28.6508   23.0346 C   0  0  0  0  0  0
  -26.4495  -31.6579   25.0732 C   0  0  0  0  0  0
  -25.3831  -31.3704   26.1547 C   0  0  0  0  0  0
  -27.0314  -30.3020   24.6072 C   0  0  0  0  0  0
  -27.6071  -32.4281   25.7482 C   0  0  0  0  0  0
  -27.5558  -37.1805   24.8457 C   0  0  0  0  0  0
  -21.4114  -29.2929   22.3745 N   0  0  0  0  0  0
  -26.4275  -37.3771   23.9409 N   0  0  0  0  0  0
  -24.6606  -31.0799   22.1088 N   0  0  0  0  0  0
  -23.4174  -28.8205   23.3070 O   0  0  0  0  0  0
  -28.4326  -26.7932   20.0636 O   0  0  0  0  0  0
  -26.5554  -34.8898   22.4714 O   0  0  0  0  0  0
  -23.5331  -32.1492   23.7603 O   0  0  0  0  0  0
  -28.1047  -20.0914   23.4437 C   0  0  0  0  0  0
  -27.1856  -21.0833   23.0409 C   0  0  0  0  0  0
  -28.1396  -19.2288   21.1785 C   0  0  0  0  0  0
  -28.5780  -19.1427   22.5151 C   0  0  0  0  0  0
  -26.7375  -21.1644   21.6991 C   0  0  0  0  0  0
  -27.2197  -20.2113   20.7655 C   0  0  0  0  0  0
  -28.6002  -16.6679   22.9397 C   0  0  0  0  0  0
  -30.7543  -17.7512   22.2119 C   0  0  0  0  0  0
  -24.5032  -23.9244   21.8444 C   0  0  0  0  0  0
  -28.8761  -15.8395   21.6707 C   0  0  0  0  0  0
  -31.2286  -16.2696   22.2523 C   0  0  0  0  0  0
  -29.4304  -17.9587   22.9813 C   0  0  0  0  0  0
  -25.7783  -22.2844   21.2824 C   0  0  1  0  0  0
  -24.3496  -22.3952   21.8568 C   0  0  2  0  0  0
  -26.0207  -23.7196   21.7859 C   0  0  1  0  0  0
  -26.7551  -20.1838   19.3180 C   0  0  0  0  0  0
  -28.4827  -25.4472   19.5942 C   0  0  0  0  0  0
  -27.9859  -24.4472   20.6539 C   0  0  0  0  0  0
  -30.2640  -15.3126   21.6279 N   0  0  0  0  0  0
  -23.2605  -21.8953   20.9860 N   0  3  0  0  0  0
  -26.5806  -24.5553   20.7948 O   0  0  0  0  0  0
  -31.4642  -12.4336   19.0853 H   0  0  0  0  0  0
  -30.3468  -11.2834   19.7260 H   0  0  0  0  0  0
  -29.7168  -11.8715   17.3763 H   0  0  0  0  0  0
  -29.6344  -13.5656   17.8020 H   0  0  0  0  0  0
  -27.7752  -11.3457   18.7206 H   0  0  0  0  0  0
  -27.3530  -12.7537   17.7836 H   0  0  0  0  0  0
  -27.7441  -14.2299   19.6583 H   0  0  0  0  0  0
  -28.7221  -11.7400   21.1412 H   0  0  0  0  0  0
  -28.5131  -13.1959   21.9869 H   0  0  0  0  0  0
  -25.2761   -9.5663   22.4705 H   0  0  0  0  0  0
  -23.9986   -7.4593   22.7458 H   0  0  0  0  0  0
  -21.0812   -8.8696   19.9009 H   0  0  0  0  0  0
  -22.3602  -10.9629   19.6131 H   0  0  0  0  0  0
  -21.1976   -7.6139   23.9656 H   0  0  0  0  0  0
  -21.1524   -6.0597   25.9063 H   0  0  0  0  0  0
  -22.0593   -2.7607   23.2887 H   0  0  0  0  0  0
  -22.4115  -11.9796   22.4809 H   0  0  0  0  0  0
  -21.1080  -13.1082   22.2529 H   0  0  0  0  0  0
  -24.6669  -15.8218   20.5288 H   0  0  0  0  0  0
  -26.2934  -15.6238   20.1166 H   0  0  0  0  0  0
  -26.7058  -32.5560   23.1146 H   0  0  0  0  0  0
  -25.0196  -33.9772   25.0613 H   0  0  0  0  0  0
  -22.6785  -31.3091   21.4285 H   0  0  0  0  0  0
  -23.3727  -35.9658   23.3340 H   0  0  0  0  0  0
  -24.3617  -36.8899   22.2059 H   0  0  0  0  0  0
  -23.7226  -37.6515   23.6639 H   0  0  0  0  0  0
  -26.0301  -31.6109   20.6022 H   0  0  0  0  0  0
  -26.8106  -30.8938   21.9798 H   0  0  0  0  0  0
  -28.0857  -29.1301   21.1565 H   0  0  0  0  0  0
  -26.0328  -26.0391   18.9323 H   0  0  0  0  0  0
  -23.9694  -27.3178   19.0136 H   0  0  0  0  0  0
  -23.7037  -30.6268   19.4207 H   0  0  0  0  0  0
  -22.7265  -29.2584   19.8634 H   0  0  0  0  0  0
  -25.1240  -36.1993   25.0829 H   0  0  0  0  0  0
  -20.9829  -28.3150   24.1471 H   0  0  0  0  0  0
  -20.5530  -26.2136   23.3634 H   0  0  0  0  0  0
  -21.6652  -26.7221   22.1398 H   0  0  0  0  0  0
  -19.6871  -25.6304   21.1111 H   0  0  0  0  0  0
  -19.6896  -27.3239   20.6751 H   0  0  0  0  0  0
  -17.4257  -26.6916   21.3633 H   0  0  0  0  0  0
  -18.0003  -25.9998   22.8637 H   0  0  0  0  0  0
  -19.8004  -30.7028   24.2439 H   0  0  0  0  0  0
  -17.5100  -31.6220   24.5259 H   0  0  0  0  0  0
  -15.5373  -30.3045   23.7668 H   0  0  0  0  0  0
  -15.8602  -28.0884   22.7072 H   0  0  0  0  0  0
  -24.5977  -30.7011   25.8010 H   0  0  0  0  0  0
  -24.9058  -32.2877   26.5006 H   0  0  0  0  0  0
  -25.8290  -30.8956   27.0307 H   0  0  0  0  0  0
  -26.2856  -29.6759   24.1149 H   0  0  0  0  0  0
  -27.4139  -29.7215   25.4480 H   0  0  0  0  0  0
  -27.8666  -30.4325   23.9181 H   0  0  0  0  0  0
  -27.2673  -33.3557   26.2098 H   0  0  0  0  0  0
  -28.3873  -32.6893   25.0318 H   0  0  0  0  0  0
  -28.0740  -31.8407   26.5396 H   0  0  0  0  0  0
  -28.2580  -38.0085   24.7472 H   0  0  0  0  0  0
  -28.1035  -36.2629   24.6306 H   0  0  0  0  0  0
  -27.2314  -37.1482   25.8867 H   0  0  0  0  0  0
  -20.9306  -29.8635   21.6923 H   0  0  0  0  0  0
  -26.0180  -38.2854   24.1444 H   0  0  0  0  0  0
  -28.4221  -20.0430   24.4784 H   0  0  0  0  0  0
  -26.8231  -21.7769   23.7861 H   0  0  0  0  0  0
  -28.4800  -18.5061   20.4543 H   0  0  0  0  0  0
  -28.8427  -16.0596   23.8137 H   0  0  0  0  0  0
  -27.5345  -16.8888   23.0308 H   0  0  0  0  0  0
  -30.6270  -18.0271   21.1671 H   0  0  0  0  0  0
  -31.5190  -18.4270   22.5969 H   0  0  0  0  0  0
  -24.1485  -24.4181   22.7491 H   0  0  0  0  0  0
  -24.1167  -24.4089   20.9443 H   0  0  0  0  0  0
  -28.7062  -16.4197   20.7629 H   0  0  0  0  0  0
  -28.0872  -15.1086   21.6718 H   0  0  0  0  0  0
  -31.3730  -15.9811   23.2962 H   0  0  0  0  0  0
  -32.2254  -16.2201   21.8102 H   0  0  0  0  0  0
  -29.6994  -18.1353   24.0244 H   0  0  0  0  0  0
  -25.7389  -22.3421   20.1950 H   0  0  0  0  0  0
  -24.2835  -21.9961   22.8710 H   0  0  0  0  0  0
  -26.4745  -23.8000   22.7750 H   0  0  0  0  0  0
  -27.0537  -19.2601   18.8183 H   0  0  0  0  0  0
  -27.1833  -21.0169   18.7594 H   0  0  0  0  0  0
  -25.6673  -20.2344   19.2566 H   0  0  0  0  0  0
  -27.9947  -25.3131   18.6283 H   0  0  0  0  0  0
  -29.5342  -25.2412   19.4084 H   0  0  0  0  0  0
  -28.4866  -24.6143   21.6078 H   0  0  0  0  0  0
  -28.2381  -23.4415   20.3195 H   0  0  0  0  0  0
  -23.2693  -22.3205   20.0747 H   0  0  0  0  0  0
  -22.3700  -22.0978   21.4064 H   0  0  0  0  0  0
  -23.3158  -20.9000   20.8668 H   0  0  0  0  0  0
  1 25  1  0  0  0
  1 30  2  0  0  0
  1 89  1  0  0  0
  2  3  1  0  0  0
  2 25  1  0  0  0
  2 92  1  0  0  0
  2 93  1  0  0  0
  3  4  1  0  0  0
  3 94  1  0  0  0
  3 95  1  0  0  0
  4  5  1  0  0  0
  4 96  1  0  0  0
  4 97  1  0  0  0
  5  6  1  0  0  0
  5 26  1  0  0  0
  5 98  1  0  0  0
  6 25  1  0  0  0
  6 99  1  0  0  0
  6100  1  0  0  0
  7  8  2  0  0  0
  7 26  1  0  0  0
  7 29  1  0  0  0
  8  9  1  0  0  0
  8 22  1  0  0  0
  9 10  1  0  0  0
  9 27  2  0  0  0
 10 11  2  0  0  0
 10 15  1  0  0  0
 11 12  1  0  0  0
 11101  1  0  0  0
 12 13  2  0  0  0
 12102  1  0  0  0
 13 14  1  0  0  0
 13 31  1  0  0  0
 14 15  2  0  0  0
 14103  1  0  0  0
 15104  1  0  0  0
 16 17  2  0  0  0
 16 21  1  0  0  0
 16 31  1  0  0  0
 17 18  1  0  0  0
 17105  1  0  0  0
 18 19  2  0  0  0
 18106  1  0  0  0
 19 20  1  0  0  0
 19 24  1  0  0  0
 20 21  2  0  0  0
 20107  1  0  0  0
 21 23  1  0  0  0
 22 28  1  0  0  0
 22 32  2  0  0  0
 26 27  1  0  0  0
 28108  1  0  0  0
 28109  1  0  0  0
 29110  1  0  0  0
 29111  1  0  0  0
 33 34  1  0  0  0
 33 66  1  0  0  0
 33 70  2  0  0  0
 34 36  1  0  0  0
 34 59  1  0  0  0
 34112  1  0  0  0
 35 44  2  0  0  0
 35 45  1  0  0  0
 35 68  1  0  0  0
 36 56  1  0  0  0
 36113  1  0  0  0
 37 39  1  0  0  0
 37 47  1  0  0  0
 37 66  1  0  0  0
 37114  1  0  0  0
 38 43  2  0  0  0
 38 46  1  0  0  0
 38 47  1  0  0  0
 39 64  1  0  0  0
 39 67  2  0  0  0
 40 52  1  0  0  0
 40 53  2  0  0  0
 40 58  1  0  0  0
 41115  1  0  0  0
 41116  1  0  0  0
 41117  1  0  0  0
 41 48  1  0  0  0
 42 43  1  0  0  0
 42 66  1  0  0  0
 42118  1  0  0  0
 42119  1  0  0  0
 43 44  1  0  0  0
 44120  1  0  0  0
 45 46  2  0  0  0
 45121  1  0  0  0
 46122  1  0  0  0
 47123  1  0  0  0
 47124  1  0  0  0
 48 56  1  0  0  0
 48 65  1  0  0  0
 48125  1  0  0  0
 49 50  1  0  0  0
 49 53  1  0  0  0
 49 64  1  0  0  0
 49126  1  0  0  0
 50 51  1  0  0  0
 50127  1  0  0  0
 50128  1  0  0  0
 51 52  1  0  0  0
 51129  1  0  0  0
 51130  1  0  0  0
 52131  1  0  0  0
 52132  1  0  0  0
 53 54  1  0  0  0
 54 55  2  0  0  0
 54133  1  0  0  0
 55 57  1  0  0  0
 55134  1  0  0  0
 56 69  2  0  0  0
 57 58  2  0  0  0
 57135  1  0  0  0
 58136  1  0  0  0
 59 60  1  0  0  0
 59 61  1  0  0  0
 59 62  1  0  0  0
 60137  1  0  0  0
 60138  1  0  0  0
 60139  1  0  0  0
 61140  1  0  0  0
 61141  1  0  0  0
 61142  1  0  0  0
 62143  1  0  0  0
 62144  1  0  0  0
 62145  1  0  0  0
 63 65  1  0  0  0
 63146  1  0  0  0
 63147  1  0  0  0
 63148  1  0  0  0
 64149  1  0  0  0
 65150  1  0  0  0
 68 87  1  0  0  0
 71 72  2  0  0  0
 71 74  1  0  0  0
 71151  1  0  0  0
 72 75  1  0  0  0
 72152  1  0  0  0
 73 74  2  0  0  0
 73 76  1  0  0  0
 73153  1  0  0  0
 74 82  1  0  0  0
 75 76  2  0  0  0
 75 83  1  0  0  0
 76 86  1  0  0  0
 77 80  1  0  0  0
 77 82  1  0  0  0
 77154  1  0  0  0
 77155  1  0  0  0
 78 81  1  0  0  0
 78 82  1  0  0  0
 78156  1  0  0  0
 78157  1  0  0  0
 79 84  1  0  0  0
 79 85  1  0  0  0
 79158  1  0  0  0
 79159  1  0  0  0
 80 89  1  0  0  0
 80160  1  0  0  0
 80161  1  0  0  0
 81 89  1  0  0  0
 81162  1  0  0  0
 81163  1  0  0  0
 82164  1  0  0  0
 83 84  1  0  0  0
 83 85  1  0  0  0
 83165  1  0  0  0
 84 90  1  0  0  0
 84166  1  0  0  0
 85 91  1  0  0  0
 85167  1  0  0  0
 86168  1  0  0  0
 86169  1  0  0  0
 86170  1  0  0  0
 87 88  1  0  0  0
 87171  1  0  0  0
 87172  1  0  0  0
 88 91  1  0  0  0
 88173  1  0  0  0
 88174  1  0  0  0
 90175  1  0  0  0
 90176  1  0  0  0
 90177  1  0  0  0
M  CHG  1  90   1
M  ISO  4   1 100  68 101  87 101  89 100
M  END
> <chiral flag>
0

> <version>
0

> <s_m_source_file>
/data/baiqing/PycharmProjects/Reinvent-master-3.2/result/LINK_invent/BTK/process_docking_weight1_custom_sum_contain_oxygen_bond_distance_aromatic_linkinvent_7_9_3/rearranged_h_0153.sdf

> <i_m_source_file_index>
25

> <r_mmod_Potential_Energy-OPLS-2005>
-18.1200542449951

> <r_mmod_Stretch_Energy-OPLS-2005>
45.4657287597656

> <r_mmod_Bend_Energy-OPLS-2005>
143.345794677734

> <r_mmod_Torsional_Energy-OPLS-2005>
343.910125732422

> <r_mmod_Improper_Torsional_Energy-OPLS-2005>
5.12885189056396

> <r_mmod_Van_der_Waal_Energy-OPLS-2005>
180.395156860352

> <r_mmod_Electrostatic_Energy-OPLS-2005>
-237.502426147461

> <r_mmod_Solvation_Energy-OPLS-2005>
-511.033355712891

> <b_mmod_Minimization_Converged-OPLS-2005>
0

> <r_mmod_RMS_Derivative-OPLS-2005>
5.6577353477478

$$$$
25
                    3D
 Structure written by MMmdl.
164173  0  0  1  0            999 V2000
  -30.7501  -14.4603   20.6171 C   0  0  0  0  0  0
  -30.4196  -12.3184   19.4175 C   0  0  0  0  0  0
  -29.4867  -12.4821   18.2034 C   0  0  0  0  0  0
  -28.0143  -12.3187   18.6244 C   0  0  0  0  0  0
  -27.6533  -13.1827   19.8577 C   0  0  2  0  0  0
  -28.6999  -13.0119   20.9842 C   0  0  0  0  0  0
  -25.2615  -13.8107   20.5690 C   0  0  0  0  0  0
  -24.1843  -13.0418   20.9196 C   0  0  0  0  0  0
  -24.6360  -11.6880   20.8746 C   0  0  0  0  0  0
  -23.9018  -10.4295   21.0434 C   0  0  0  0  0  0
  -24.3590   -9.4217   21.9200 C   0  0  0  0  0  0
  -23.6285   -8.2242   22.0751 C   0  0  0  0  0  0
  -22.4264   -8.0287   21.3547 C   0  0  0  0  0  0
  -21.9894   -9.0265   20.4648 C   0  0  0  0  0  0
  -22.7208  -10.2147   20.3071 C   0  0  0  0  0  0
  -21.6849   -6.0745   22.5290 C   0  0  0  0  0  0
  -21.4021   -6.5639   23.8234 C   0  0  0  0  0  0
  -21.3658   -5.6785   24.9191 C   0  0  0  0  0  0
  -21.6039   -4.3050   24.7230 C   0  0  0  0  0  0
  -21.8814   -3.8154   23.4345 C   0  0  0  0  0  0
  -21.9189   -4.6976   22.3405 C   0  0  0  0  0  0
  -22.7880  -13.5266   21.1854 C   0  0  0  0  0  0
  -22.1660   -4.2165   21.0985 F   0  0  0  0  0  0
  -21.5621   -3.4522   25.7738 F   0  0  0  0  0  0
  -30.0321  -13.3138   20.4335 N   0  0  0  0  0  0
  -26.2991  -12.9203   20.3319 N   0  0  0  0  0  0
  -25.9269  -11.6400   20.5765 N   0  0  0  0  0  0
  -22.0494  -12.8282   22.0407 N   0  0  0  0  0  0
  -25.4362  -15.1823   20.4095 N   0  0  0  0  0  0
  -31.8494  -14.6374   20.0803 O   0  0  0  0  0  0
  -21.6639   -6.8884   21.4250 O   0  0  0  0  0  0
  -22.3582  -14.5573   20.6693 O   0  0  0  0  0  0
  -24.6151  -31.8685   23.2110 C   0  0  0  0  0  0
  -25.9042  -32.4828   23.8411 C   0  0  1  0  0  0
  -27.2470  -27.4506   20.0963 C   0  0  0  0  0  0
  -25.5906  -33.8627   24.2345 N   0  0  0  0  0  0
  -23.4049  -30.4908   21.5487 C   0  0  2  0  0  0
  -24.8557  -28.9499   20.1264 C   0  0  0  0  0  0
  -22.7418  -29.4668   22.4976 C   0  0  0  0  0  0
  -18.0287  -28.1394   22.8486 C   0  0  0  0  0  0
  -24.1487  -36.7327   23.2637 C   0  0  0  0  0  0
  -25.9331  -30.8336   21.3675 C   0  0  0  0  0  0
  -26.0132  -29.4634   20.7280 C   0  0  0  0  0  0
  -27.2132  -28.7164   20.7216 C   0  0  0  0  0  0
  -26.0794  -26.9478   19.4903 C   0  0  0  0  0  0
  -24.8796  -27.6847   19.5125 C   0  0  0  0  0  0
  -23.6187  -29.8186   20.1664 C   0  0  0  0  0  0
  -25.4104  -36.3120   24.0341 C   0  0  1  0  0  0
  -20.5876  -28.3683   23.1308 C   0  0  2  0  0  0
  -20.6779  -26.9414   22.5416 C   0  0  0  0  0  0
  -19.5754  -26.6398   21.5217 C   0  0  0  0  0  0
  -18.1932  -26.7941   22.1625 C   0  0  0  0  0  0
  -19.1531  -28.8856   23.2899 C   0  0  0  0  0  0
  -18.9461  -30.1463   23.8908 C   0  0  0  0  0  0
  -17.6459  -30.6596   24.0575 C   0  0  0  0  0  0
  -25.9027  -34.9475   23.5143 C   0  0  0  0  0  0
  -16.5355  -29.9097   23.6328 C   0  0  0  0  0  0
  -16.7274  -28.6519   23.0341 C   0  0  0  0  0  0
  -26.4473  -31.6595   25.0734 C   0  0  0  0  0  0
  -25.3746  -31.3691   26.1488 C   0  0  0  0  0  0
  -27.0301  -30.3037   24.6098 C   0  0  0  0  0  0
  -27.6052  -32.4307   25.7501 C   0  0  0  0  0  0
  -27.5581  -37.1816   24.8463 C   0  0  0  0  0  0
  -21.4144  -29.3044   22.3702 N   0  0  0  0  0  0
  -26.4296  -37.3798   23.9406 N   0  0  0  0  0  0
  -24.6687  -31.0804   22.1004 N   0  0  0  0  0  0
  -23.4183  -28.8211   23.3026 O   0  0  0  0  0  0
  -28.3959  -26.7066   19.9805 O   0  0  0  0  0  0
  -26.5580  -34.8925   22.4695 O   0  0  0  0  0  0
  -23.5339  -32.1427   23.7502 O   0  0  0  0  0  0
  -31.3075  -20.7329   21.0986 C   0  0  0  0  0  0
  -31.0097  -22.1055   21.1548 C   0  0  0  0  0  0
  -30.4502  -19.8096   21.7279 C   0  0  0  0  0  0
  -29.8544  -22.5501   21.8320 C   0  0  0  0  0  0
  -29.3511  -20.3343   22.4427 C   0  0  0  0  0  0
  -29.6610  -24.8820   20.9200 C   0  0  0  0  0  0
  -30.8369  -17.4705   22.8331 C   0  0  0  0  0  0
  -29.6440  -17.6768   20.5951 C   0  0  0  0  0  0
  -31.1024  -15.9712   22.5275 C   0  0  0  0  0  0
  -29.1533  -16.2814   21.0303 C   0  0  0  0  0  0
  -30.6918  -18.3019   21.5396 C   0  0  0  0  0  0
  -27.4434  -20.0193   23.8886 C   0  0  0  0  0  0
  -29.0139  -26.2569   21.1875 C   0  0  0  0  0  0
  -29.0783  -21.6633   22.4955 N   0  0  0  0  0  0
  -30.2447  -15.3921   21.4674 N   0  0  0  0  0  0
  -29.4961  -23.9285   21.8616 N   0  0  0  0  0  0
  -30.2785  -24.7123   19.8625 O   0  0  0  0  0  0
  -28.4904  -19.4745   23.0907 O   0  0  0  0  0  0
  -31.4601  -12.4153   19.1022 H   0  0  0  0  0  0
  -30.3357  -11.3135   19.8335 H   0  0  0  0  0  0
  -29.7375  -11.7440   17.4388 H   0  0  0  0  0  0
  -29.6386  -13.4598   17.7434 H   0  0  0  0  0  0
  -27.8494  -11.2644   18.8489 H   0  0  0  0  0  0
  -27.3535  -12.5599   17.7909 H   0  0  0  0  0  0
  -27.6617  -14.2039   19.4951 H   0  0  0  0  0  0
  -28.6883  -11.9865   21.3558 H   0  0  0  0  0  0
  -28.4469  -13.6367   21.8407 H   0  0  0  0  0  0
  -25.2743   -9.5697   22.4765 H   0  0  0  0  0  0
  -24.0000   -7.4637   22.7457 H   0  0  0  0  0  0
  -21.0832   -8.8787   19.8958 H   0  0  0  0  0  0
  -22.3685  -10.9685   19.6179 H   0  0  0  0  0  0
  -21.2031   -7.6157   23.9737 H   0  0  0  0  0  0
  -21.1470   -6.0519   25.9090 H   0  0  0  0  0  0
  -22.0590   -2.7615   23.2831 H   0  0  0  0  0  0
  -22.4067  -11.9946   22.4829 H   0  0  0  0  0  0
  -21.1122  -13.1337   22.2595 H   0  0  0  0  0  0
  -24.6701  -15.8359   20.5262 H   0  0  0  0  0  0
  -26.2896  -15.6240   20.0930 H   0  0  0  0  0  0
  -26.7117  -32.5561   23.1182 H   0  0  0  0  0  0
  -25.0073  -33.9774   25.0505 H   0  0  0  0  0  0
  -22.6946  -31.3080   21.4039 H   0  0  0  0  0  0
  -23.3732  -35.9678   23.3317 H   0  0  0  0  0  0
  -24.3586  -36.8923   22.2050 H   0  0  0  0  0  0
  -23.7255  -37.6547   23.6632 H   0  0  0  0  0  0
  -26.0464  -31.5930   20.5913 H   0  0  0  0  0  0
  -26.8217  -30.8946   21.9825 H   0  0  0  0  0  0
  -28.1136  -29.1167   21.1658 H   0  0  0  0  0  0
  -26.1042  -25.9866   18.9951 H   0  0  0  0  0  0
  -23.9916  -27.2814   19.0463 H   0  0  0  0  0  0
  -23.7383  -30.5913   19.4058 H   0  0  0  0  0  0
  -22.7436  -29.2410   19.8640 H   0  0  0  0  0  0
  -25.1278  -36.1983   25.0834 H   0  0  0  0  0  0
  -20.9989  -28.3269   24.1425 H   0  0  0  0  0  0
  -20.5703  -26.2295   23.3608 H   0  0  0  0  0  0
  -21.6646  -26.7469   22.1194 H   0  0  0  0  0  0
  -19.6916  -25.6313   21.1243 H   0  0  0  0  0  0
  -19.6699  -27.3211   20.6749 H   0  0  0  0  0  0
  -17.4205  -26.6700   21.4026 H   0  0  0  0  0  0
  -18.0326  -26.0086   22.9024 H   0  0  0  0  0  0
  -19.7937  -30.7280   24.2274 H   0  0  0  0  0  0
  -17.5017  -31.6269   24.5189 H   0  0  0  0  0  0
  -15.5354  -30.3006   23.7645 H   0  0  0  0  0  0
  -15.8679  -28.0851   22.7034 H   0  0  0  0  0  0
  -24.5907  -30.7054   25.7826 H   0  0  0  0  0  0
  -24.8961  -32.2852   26.4959 H   0  0  0  0  0  0
  -25.8121  -30.8843   27.0226 H   0  0  0  0  0  0
  -26.2849  -29.6801   24.1155 H   0  0  0  0  0  0
  -27.4079  -29.7265   25.4544 H   0  0  0  0  0  0
  -27.8676  -30.4357   23.9247 H   0  0  0  0  0  0
  -27.2655  -33.3578   26.2126 H   0  0  0  0  0  0
  -28.3838  -32.6910   25.0321 H   0  0  0  0  0  0
  -28.0735  -31.8401   26.5380 H   0  0  0  0  0  0
  -28.2604  -38.0105   24.7496 H   0  0  0  0  0  0
  -28.1072  -36.2639   24.6301 H   0  0  0  0  0  0
  -27.2304  -37.1482   25.8868 H   0  0  0  0  0  0
  -20.9309  -29.8749   21.6898 H   0  0  0  0  0  0
  -26.0189  -38.2883   24.1393 H   0  0  0  0  0  0
  -32.1719  -20.4014   20.5439 H   0  0  0  0  0  0
  -31.6678  -22.7970   20.6489 H   0  0  0  0  0  0
  -31.6539  -17.8640   23.4398 H   0  0  0  0  0  0
  -29.9412  -17.5453   23.4480 H   0  0  0  0  0  0
  -28.7666  -18.3218   20.5193 H   0  0  0  0  0  0
  -30.0529  -17.6310   19.5837 H   0  0  0  0  0  0
  -32.1559  -15.8598   22.2661 H   0  0  0  0  0  0
  -30.9617  -15.3822   23.4352 H   0  0  0  0  0  0
  -28.6102  -15.8728   20.1868 H   0  0  0  0  0  0
  -28.4339  -16.3677   21.8456 H   0  0  0  0  0  0
  -31.6553  -18.2017   21.0358 H   0  0  0  0  0  0
  -26.7008  -20.5348   23.2777 H   0  0  0  0  0  0
  -27.8216  -20.7034   24.6512 H   0  0  0  0  0  0
  -26.9408  -19.2044   24.4079 H   0  0  0  0  0  0
  -29.7904  -26.9644   21.4784 H   0  0  0  0  0  0
  -28.2983  -26.1930   22.0080 H   0  0  0  0  0  0
  -28.9145  -24.2003   22.6384 H   0  0  0  0  0  0
  1 25  1  0  0  0
  1 30  2  0  0  0
  1 85  1  0  0  0
  2  3  1  0  0  0
  2 25  1  0  0  0
  2 89  1  0  0  0
  2 90  1  0  0  0
  3  4  1  0  0  0
  3 91  1  0  0  0
  3 92  1  0  0  0
  4  5  1  0  0  0
  4 93  1  0  0  0
  4 94  1  0  0  0
  5  6  1  0  0  0
  5 26  1  0  0  0
  5 95  1  0  0  0
  6 25  1  0  0  0
  6 96  1  0  0  0
  6 97  1  0  0  0
  7  8  2  0  0  0
  7 26  1  0  0  0
  7 29  1  0  0  0
  8  9  1  0  0  0
  8 22  1  0  0  0
  9 10  1  0  0  0
  9 27  2  0  0  0
 10 11  2  0  0  0
 10 15  1  0  0  0
 11 12  1  0  0  0
 11 98  1  0  0  0
 12 13  2  0  0  0
 12 99  1  0  0  0
 13 14  1  0  0  0
 13 31  1  0  0  0
 14 15  2  0  0  0
 14100  1  0  0  0
 15101  1  0  0  0
 16 17  2  0  0  0
 16 21  1  0  0  0
 16 31  1  0  0  0
 17 18  1  0  0  0
 17102  1  0  0  0
 18 19  2  0  0  0
 18103  1  0  0  0
 19 20  1  0  0  0
 19 24  1  0  0  0
 20 21  2  0  0  0
 20104  1  0  0  0
 21 23  1  0  0  0
 22 28  1  0  0  0
 22 32  2  0  0  0
 26 27  1  0  0  0
 28105  1  0  0  0
 28106  1  0  0  0
 29107  1  0  0  0
 29108  1  0  0  0
 33 34  1  0  0  0
 33 66  1  0  0  0
 33 70  2  0  0  0
 34 36  1  0  0  0
 34 59  1  0  0  0
 34109  1  0  0  0
 35 44  2  0  0  0
 35 45  1  0  0  0
 35 68  1  0  0  0
 36 56  1  0  0  0
 36110  1  0  0  0
 37 39  1  0  0  0
 37 47  1  0  0  0
 37 66  1  0  0  0
 37111  1  0  0  0
 38 43  2  0  0  0
 38 46  1  0  0  0
 38 47  1  0  0  0
 39 64  1  0  0  0
 39 67  2  0  0  0
 40 52  1  0  0  0
 40 53  2  0  0  0
 40 58  1  0  0  0
 41112  1  0  0  0
 41113  1  0  0  0
 41114  1  0  0  0
 41 48  1  0  0  0
 42 43  1  0  0  0
 42 66  1  0  0  0
 42115  1  0  0  0
 42116  1  0  0  0
 43 44  1  0  0  0
 44117  1  0  0  0
 45 46  2  0  0  0
 45118  1  0  0  0
 46119  1  0  0  0
 47120  1  0  0  0
 47121  1  0  0  0
 48 56  1  0  0  0
 48 65  1  0  0  0
 48122  1  0  0  0
 49 50  1  0  0  0
 49 53  1  0  0  0
 49 64  1  0  0  0
 49123  1  0  0  0
 50 51  1  0  0  0
 50124  1  0  0  0
 50125  1  0  0  0
 51 52  1  0  0  0
 51126  1  0  0  0
 51127  1  0  0  0
 52128  1  0  0  0
 52129  1  0  0  0
 53 54  1  0  0  0
 54 55  2  0  0  0
 54130  1  0  0  0
 55 57  1  0  0  0
 55131  1  0  0  0
 56 69  2  0  0  0
 57 58  2  0  0  0
 57132  1  0  0  0
 58133  1  0  0  0
 59 60  1  0  0  0
 59 61  1  0  0  0
 59 62  1  0  0  0
 60134  1  0  0  0
 60135  1  0  0  0
 60136  1  0  0  0
 61137  1  0  0  0
 61138  1  0  0  0
 61139  1  0  0  0
 62140  1  0  0  0
 62141  1  0  0  0
 62142  1  0  0  0
 63 65  1  0  0  0
 63143  1  0  0  0
 63144  1  0  0  0
 63145  1  0  0  0
 64146  1  0  0  0
 65147  1  0  0  0
 68 83  1  0  0  0
 71 72  2  0  0  0
 71 73  1  0  0  0
 71148  1  0  0  0
 72 74  1  0  0  0
 72149  1  0  0  0
 73 75  2  0  0  0
 73 81  1  0  0  0
 74 84  2  0  0  0
 74 86  1  0  0  0
 75 84  1  0  0  0
 75 88  1  0  0  0
 76 83  1  0  0  0
 76 86  1  0  0  0
 76 87  2  0  0  0
 77 79  1  0  0  0
 77 81  1  0  0  0
 77150  1  0  0  0
 77151  1  0  0  0
 78 80  1  0  0  0
 78 81  1  0  0  0
 78152  1  0  0  0
 78153  1  0  0  0
 79 85  1  0  0  0
 79154  1  0  0  0
 79155  1  0  0  0
 80 85  1  0  0  0
 80156  1  0  0  0
 80157  1  0  0  0
 81158  1  0  0  0
 82 88  1  0  0  0
 82159  1  0  0  0
 82160  1  0  0  0
 82161  1  0  0  0
 83162  1  0  0  0
 83163  1  0  0  0
 86164  1  0  0  0
M  ISO  4   1 100  68 101  83 101  85 100
M  END
> <chiral flag>
0

> <version>
0

> <s_m_source_file>
/data/baiqing/PycharmProjects/Reinvent-master-3.2/result/LINK_invent/BTK/process_docking_weight1_custom_sum_contain_oxygen_bond_distance_aromatic_linkinvent_7_9_3/rearranged_h_0153.sdf

> <i_m_source_file_index>
26

> <r_mmod_Potential_Energy-OPLS-2005>
-22.295259475708

> <r_mmod_Stretch_Energy-OPLS-2005>
40.1599960327148

> <r_mmod_Bend_Energy-OPLS-2005>
118.98356628418

> <r_mmod_Torsional_Energy-OPLS-2005>
352.296783447266

> <r_mmod_Improper_Torsional_Energy-OPLS-2005>
4.34467935562134

> <r_mmod_Van_der_Waal_Energy-OPLS-2005>
171.798614501953

> <r_mmod_Electrostatic_Energy-OPLS-2005>
-493.792907714844

> <r_mmod_Solvation_Energy-OPLS-2005>
-227.887023925781

> <b_mmod_Minimization_Converged-OPLS-2005>
0

> <r_mmod_RMS_Derivative-OPLS-2005>
2.53641605377197

$$$$
26
                    3D
 Structure written by MMmdl.
172181  0  0  1  0            999 V2000
  -30.8739  -14.2431   20.7734 C   0  0  0  0  0  0
  -30.3976  -12.2785   19.3723 C   0  0  0  0  0  0
  -29.4667  -12.5337   18.1794 C   0  0  0  0  0  0
  -28.0021  -12.3676   18.6113 C   0  0  0  0  0  0
  -27.6650  -13.2057   19.8703 C   0  0  2  0  0  0
  -28.7041  -12.9909   20.9950 C   0  0  0  0  0  0
  -25.2609  -13.8169   20.5682 C   0  0  0  0  0  0
  -24.1849  -13.0447   20.9146 C   0  0  0  0  0  0
  -24.6404  -11.6921   20.8721 C   0  0  0  0  0  0
  -23.9064  -10.4304   21.0395 C   0  0  0  0  0  0
  -24.3618   -9.4227   21.9183 C   0  0  0  0  0  0
  -23.6300   -8.2256   22.0764 C   0  0  0  0  0  0
  -22.4277   -8.0284   21.3552 C   0  0  0  0  0  0
  -21.9908   -9.0253   20.4648 C   0  0  0  0  0  0
  -22.7236  -10.2138   20.3054 C   0  0  0  0  0  0
  -21.6849   -6.0738   22.5288 C   0  0  0  0  0  0
  -21.4013   -6.5637   23.8217 C   0  0  0  0  0  0
  -21.3667   -5.6798   24.9177 C   0  0  0  0  0  0
  -21.6036   -4.3055   24.7229 C   0  0  0  0  0  0
  -21.8821   -3.8150   23.4347 C   0  0  0  0  0  0
  -21.9192   -4.6971   22.3405 C   0  0  0  0  0  0
  -22.7872  -13.5246   21.1820 C   0  0  0  0  0  0
  -22.1659   -4.2152   21.0988 F   0  0  0  0  0  0
  -21.5630   -3.4550   25.7739 F   0  0  0  0  0  0
  -30.0581  -13.2118   20.4539 N   0  0  0  0  0  0
  -26.3054  -12.9346   20.3366 N   0  0  0  0  0  0
  -25.9331  -11.6501   20.5758 N   0  0  0  0  0  0
  -22.0515  -12.8236   22.0371 N   0  0  0  0  0  0
  -25.4315  -15.1893   20.4103 N   0  0  0  0  0  0
  -31.7690  -14.6633   20.0348 O   0  0  0  0  0  0
  -21.6642   -6.8885   21.4243 O   0  0  0  0  0  0
  -22.3568  -14.5566   20.6686 O   0  0  0  0  0  0
  -24.6100  -31.8711   23.2146 C   0  0  0  0  0  0
  -25.9017  -32.4830   23.8415 C   0  0  1  0  0  0
  -27.2249  -27.4620   20.0813 C   0  0  0  0  0  0
  -25.5903  -33.8636   24.2333 N   0  0  0  0  0  0
  -23.3964  -30.4961   21.5543 C   0  0  2  0  0  0
  -24.8372  -28.9693   20.1135 C   0  0  0  0  0  0
  -22.7390  -29.4655   22.4994 C   0  0  0  0  0  0
  -18.0255  -28.1382   22.8487 C   0  0  0  0  0  0
  -24.1477  -36.7334   23.2640 C   0  0  0  0  0  0
  -25.9240  -30.8394   21.3674 C   0  0  0  0  0  0
  -25.9963  -29.4780   20.7120 C   0  0  0  0  0  0
  -27.1911  -28.7312   20.6918 C   0  0  0  0  0  0
  -26.0503  -26.9588   19.4774 C   0  0  0  0  0  0
  -24.8579  -27.7076   19.4953 C   0  0  0  0  0  0
  -23.6016  -29.8370   20.1651 C   0  0  0  0  0  0
  -25.4107  -36.3125   24.0322 C   0  0  1  0  0  0
  -20.5849  -28.3651   23.1342 C   0  0  2  0  0  0
  -20.6754  -26.9388   22.5448 C   0  0  0  0  0  0
  -19.5735  -26.6404   21.5236 C   0  0  0  0  0  0
  -18.1896  -26.7942   22.1621 C   0  0  0  0  0  0
  -19.1506  -28.8836   23.2899 C   0  0  0  0  0  0
  -18.9436  -30.1442   23.8895 C   0  0  0  0  0  0
  -17.6433  -30.6579   24.0590 C   0  0  0  0  0  0
  -25.9044  -34.9484   23.5124 C   0  0  0  0  0  0
  -16.5321  -29.9084   23.6340 C   0  0  0  0  0  0
  -16.7248  -28.6524   23.0336 C   0  0  0  0  0  0
  -26.4431  -31.6624   25.0762 C   0  0  0  0  0  0
  -25.3739  -31.3789   26.1578 C   0  0  0  0  0  0
  -27.0256  -30.3055   24.6161 C   0  0  0  0  0  0
  -27.5983  -32.4386   25.7534 C   0  0  0  0  0  0
  -27.5564  -37.1813   24.8455 C   0  0  0  0  0  0
  -21.4114  -29.3022   22.3746 N   0  0  0  0  0  0
  -26.4282  -37.3806   23.9409 N   0  0  0  0  0  0
  -24.6618  -31.0839   22.1024 N   0  0  0  0  0  0
  -23.4190  -28.8156   23.2974 O   0  0  0  0  0  0
  -28.4160  -26.7758   20.0681 O   0  0  0  0  0  0
  -26.5603  -34.8898   22.4691 O   0  0  0  0  0  0
  -23.5313  -32.1433   23.7586 O   0  0  0  0  0  0
  -30.5378  -19.6918   21.9592 C   0  0  0  0  0  0
  -31.4528  -18.6389   21.8203 C   0  0  0  0  0  0
  -30.3993  -17.4945   23.6876 C   0  0  0  0  0  0
  -29.5215  -19.6577   22.9423 C   0  0  0  0  0  0
  -31.3954  -17.5357   22.6878 C   0  0  0  0  0  0
  -29.4542  -18.5377   23.8147 C   0  0  0  0  0  0
  -29.3597  -22.0684   23.6250 C   0  0  0  0  0  0
  -27.9013  -21.1864   21.6890 C   0  0  0  0  0  0
  -28.6268  -23.4088   23.4641 C   0  0  0  0  0  0
  -27.2755  -22.5917   21.6207 C   0  0  0  0  0  0
  -28.5778  -20.8622   23.0506 C   0  0  1  0  0  0
  -28.3996  -18.4247   24.9031 C   0  0  0  0  0  0
  -32.4565  -16.4530   22.5626 C   0  0  0  0  0  0
  -31.9942  -15.0120   22.8600 C   0  0  0  0  0  0
  -27.9300  -25.0052   21.6824 C   0  0  0  0  0  0
  -28.3749  -25.3607   20.2461 C   0  0  0  0  0  0
  -30.8469  -14.5426   22.0782 N   0  0  0  0  0  0
  -28.2749  -23.6051   22.0384 N   0  3  1  0  0  0
  -31.4409  -12.3604   19.0612 H   0  0  0  0  0  0
  -30.2771  -11.2550   19.7306 H   0  0  0  0  0  0
  -29.6969  -11.8442   17.3659 H   0  0  0  0  0  0
  -29.6283  -13.5397   17.7885 H   0  0  0  0  0  0
  -27.8293  -11.3091   18.8113 H   0  0  0  0  0  0
  -27.3341  -12.6345   17.7914 H   0  0  0  0  0  0
  -27.7130  -14.2543   19.5759 H   0  0  0  0  0  0
  -28.6373  -11.9789   21.3957 H   0  0  0  0  0  0
  -28.4706  -13.6639   21.8211 H   0  0  0  0  0  0
  -25.2770   -9.5695   22.4755 H   0  0  0  0  0  0
  -24.0001   -7.4648   22.7501 H   0  0  0  0  0  0
  -21.0833   -8.8772   19.8960 H   0  0  0  0  0  0
  -22.3699  -10.9667   19.6157 H   0  0  0  0  0  0
  -21.2006   -7.6149   23.9715 H   0  0  0  0  0  0
  -21.1482   -6.0532   25.9080 H   0  0  0  0  0  0
  -22.0591   -2.7614   23.2853 H   0  0  0  0  0  0
  -22.4124  -11.9880   22.4730 H   0  0  0  0  0  0
  -21.1139  -13.1274   22.2594 H   0  0  0  0  0  0
  -24.6677  -15.8463   20.5313 H   0  0  0  0  0  0
  -26.2971  -15.6325   20.1267 H   0  0  0  0  0  0
  -26.7093  -32.5546   23.1182 H   0  0  0  0  0  0
  -25.0076  -33.9810   25.0498 H   0  0  0  0  0  0
  -22.6843  -31.3139   21.4217 H   0  0  0  0  0  0
  -23.3714  -35.9683   23.3330 H   0  0  0  0  0  0
  -24.3573  -36.8966   22.2058 H   0  0  0  0  0  0
  -23.7211  -37.6531   23.6666 H   0  0  0  0  0  0
  -26.0454  -31.6058   20.5999 H   0  0  0  0  0  0
  -26.8107  -30.8819   21.9891 H   0  0  0  0  0  0
  -28.0896  -29.1214   21.1495 H   0  0  0  0  0  0
  -26.0421  -26.0105   18.9622 H   0  0  0  0  0  0
  -23.9683  -27.3165   19.0197 H   0  0  0  0  0  0
  -23.7081  -30.6199   19.4126 H   0  0  0  0  0  0
  -22.7218  -29.2645   19.8665 H   0  0  0  0  0  0
  -25.1247  -36.2010   25.0808 H   0  0  0  0  0  0
  -20.9903  -28.3225   24.1475 H   0  0  0  0  0  0
  -20.5716  -26.2218   23.3607 H   0  0  0  0  0  0
  -21.6606  -26.7492   22.1175 H   0  0  0  0  0  0
  -19.6909  -25.6334   21.1215 H   0  0  0  0  0  0
  -19.6693  -27.3261   20.6806 H   0  0  0  0  0  0
  -17.4183  -26.6685   21.4015 H   0  0  0  0  0  0
  -18.0259  -26.0081   22.9020 H   0  0  0  0  0  0
  -19.7919  -30.7277   24.2217 H   0  0  0  0  0  0
  -17.5006  -31.6244   24.5225 H   0  0  0  0  0  0
  -15.5324  -30.3002   23.7693 H   0  0  0  0  0  0
  -15.8636  -28.0898   22.6996 H   0  0  0  0  0  0
  -24.5770  -30.7263   25.7984 H   0  0  0  0  0  0
  -24.9082  -32.2979   26.5153 H   0  0  0  0  0  0
  -25.8130  -30.8870   27.0270 H   0  0  0  0  0  0
  -26.2819  -29.6844   24.1145 H   0  0  0  0  0  0
  -27.3921  -29.7259   25.4631 H   0  0  0  0  0  0
  -27.8689  -30.4351   23.9369 H   0  0  0  0  0  0
  -27.2539  -33.3677   26.2111 H   0  0  0  0  0  0
  -28.3784  -32.7022   25.0375 H   0  0  0  0  0  0
  -28.0639  -31.8537   26.5468 H   0  0  0  0  0  0
  -28.2577  -38.0106   24.7509 H   0  0  0  0  0  0
  -28.1043  -36.2649   24.6271 H   0  0  0  0  0  0
  -27.2302  -37.1476   25.8855 H   0  0  0  0  0  0
  -20.9251  -29.8833   21.7068 H   0  0  0  0  0  0
  -26.0173  -38.2886   24.1424 H   0  0  0  0  0  0
  -30.6420  -20.5401   21.2985 H   0  0  0  0  0  0
  -32.2152  -18.7023   21.0564 H   0  0  0  0  0  0
  -30.3670  -16.6589   24.3715 H   0  0  0  0  0  0
  -29.5903  -21.8889   24.6774 H   0  0  0  0  0  0
  -30.3251  -22.1591   23.1274 H   0  0  0  0  0  0
  -28.6170  -21.1316   20.8718 H   0  0  0  0  0  0
  -27.1510  -20.4287   21.4621 H   0  0  0  0  0  0
  -29.2784  -24.2098   23.8126 H   0  0  0  0  0  0
  -27.7310  -23.4402   24.0847 H   0  0  0  0  0  0
  -26.3842  -22.6513   22.2479 H   0  0  0  0  0  0
  -26.9417  -22.7837   20.6005 H   0  0  0  0  0  0
  -27.7710  -20.6484   23.7518 H   0  0  0  0  0  0
  -28.5364  -17.5188   25.4961 H   0  0  0  0  0  0
  -27.4044  -18.3798   24.4608 H   0  0  0  0  0  0
  -28.4420  -19.2740   25.5854 H   0  0  0  0  0  0
  -33.2765  -16.7137   23.2331 H   0  0  0  0  0  0
  -32.8837  -16.4940   21.5602 H   0  0  0  0  0  0
  -31.7433  -14.9148   23.9166 H   0  0  0  0  0  0
  -32.8309  -14.3305   22.6990 H   0  0  0  0  0  0
  -26.8667  -25.1960   21.8318 H   0  0  0  0  0  0
  -28.4599  -25.6836   22.3501 H   0  0  0  0  0  0
  -27.7654  -24.8589   19.4947 H   0  0  0  0  0  0
  -29.3961  -25.0100   20.0799 H   0  0  0  0  0  0
  -30.0926  -14.1220   22.6008 H   0  0  0  0  0  0
  -29.1250  -23.4023   21.5316 H   0  0  0  0  0  0
  1 25  1  0  0  0
  1 30  2  0  0  0
  1 87  1  0  0  0
  2  3  1  0  0  0
  2 25  1  0  0  0
  2 89  1  0  0  0
  2 90  1  0  0  0
  3  4  1  0  0  0
  3 91  1  0  0  0
  3 92  1  0  0  0
  4  5  1  0  0  0
  4 93  1  0  0  0
  4 94  1  0  0  0
  5  6  1  0  0  0
  5 26  1  0  0  0
  5 95  1  0  0  0
  6 25  1  0  0  0
  6 96  1  0  0  0
  6 97  1  0  0  0
  7  8  2  0  0  0
  7 26  1  0  0  0
  7 29  1  0  0  0
  8  9  1  0  0  0
  8 22  1  0  0  0
  9 10  1  0  0  0
  9 27  2  0  0  0
 10 11  2  0  0  0
 10 15  1  0  0  0
 11 12  1  0  0  0
 11 98  1  0  0  0
 12 13  2  0  0  0
 12 99  1  0  0  0
 13 14  1  0  0  0
 13 31  1  0  0  0
 14 15  2  0  0  0
 14100  1  0  0  0
 15101  1  0  0  0
 16 17  2  0  0  0
 16 21  1  0  0  0
 16 31  1  0  0  0
 17 18  1  0  0  0
 17102  1  0  0  0
 18 19  2  0  0  0
 18103  1  0  0  0
 19 20  1  0  0  0
 19 24  1  0  0  0
 20 21  2  0  0  0
 20104  1  0  0  0
 21 23  1  0  0  0
 22 28  1  0  0  0
 22 32  2  0  0  0
 26 27  1  0  0  0
 28105  1  0  0  0
 28106  1  0  0  0
 29107  1  0  0  0
 29108  1  0  0  0
 33 34  1  0  0  0
 33 66  1  0  0  0
 33 70  2  0  0  0
 34 36  1  0  0  0
 34 59  1  0  0  0
 34109  1  0  0  0
 35 44  2  0  0  0
 35 45  1  0  0  0
 35 68  1  0  0  0
 36 56  1  0  0  0
 36110  1  0  0  0
 37 39  1  0  0  0
 37 47  1  0  0  0
 37 66  1  0  0  0
 37111  1  0  0  0
 38 43  2  0  0  0
 38 46  1  0  0  0
 38 47  1  0  0  0
 39 64  1  0  0  0
 39 67  2  0  0  0
 40 52  1  0  0  0
 40 53  2  0  0  0
 40 58  1  0  0  0
 41112  1  0  0  0
 41113  1  0  0  0
 41114  1  0  0  0
 41 48  1  0  0  0
 42 43  1  0  0  0
 42 66  1  0  0  0
 42115  1  0  0  0
 42116  1  0  0  0
 43 44  1  0  0  0
 44117  1  0  0  0
 45 46  2  0  0  0
 45118  1  0  0  0
 46119  1  0  0  0
 47120  1  0  0  0
 47121  1  0  0  0
 48 56  1  0  0  0
 48 65  1  0  0  0
 48122  1  0  0  0
 49 50  1  0  0  0
 49 53  1  0  0  0
 49 64  1  0  0  0
 49123  1  0  0  0
 50 51  1  0  0  0
 50124  1  0  0  0
 50125  1  0  0  0
 51 52  1  0  0  0
 51126  1  0  0  0
 51127  1  0  0  0
 52128  1  0  0  0
 52129  1  0  0  0
 53 54  1  0  0  0
 54 55  2  0  0  0
 54130  1  0  0  0
 55 57  1  0  0  0
 55131  1  0  0  0
 56 69  2  0  0  0
 57 58  2  0  0  0
 57132  1  0  0  0
 58133  1  0  0  0
 59 60  1  0  0  0
 59 61  1  0  0  0
 59 62  1  0  0  0
 60134  1  0  0  0
 60135  1  0  0  0
 60136  1  0  0  0
 61137  1  0  0  0
 61138  1  0  0  0
 61139  1  0  0  0
 62140  1  0  0  0
 62141  1  0  0  0
 62142  1  0  0  0
 63 65  1  0  0  0
 63143  1  0  0  0
 63144  1  0  0  0
 63145  1  0  0  0
 64146  1  0  0  0
 65147  1  0  0  0
 68 86  1  0  0  0
 71 72  2  0  0  0
 71 74  1  0  0  0
 71148  1  0  0  0
 72 75  1  0  0  0
 72149  1  0  0  0
 73 75  2  0  0  0
 73 76  1  0  0  0
 73150  1  0  0  0
 74 76  2  0  0  0
 74 81  1  0  0  0
 75 83  1  0  0  0
 76 82  1  0  0  0
 77 79  1  0  0  0
 77 81  1  0  0  0
 77151  1  0  0  0
 77152  1  0  0  0
 78 80  1  0  0  0
 78 81  1  0  0  0
 78153  1  0  0  0
 78154  1  0  0  0
 79 88  1  0  0  0
 79155  1  0  0  0
 79156  1  0  0  0
 80 88  1  0  0  0
 80157  1  0  0  0
 80158  1  0  0  0
 81159  1  0  0  0
 82160  1  0  0  0
 82161  1  0  0  0
 82162  1  0  0  0
 83 84  1  0  0  0
 83163  1  0  0  0
 83164  1  0  0  0
 84 87  1  0  0  0
 84165  1  0  0  0
 84166  1  0  0  0
 85 86  1  0  0  0
 85167  1  0  0  0
 85168  1  0  0  0
 85 88  1  0  0  0
 86169  1  0  0  0
 86170  1  0  0  0
 87171  1  0  0  0
 88172  1  0  0  0
M  CHG  1  88   1
M  ISO  4   1 100  68 101  86 101  87 100
M  END
> <chiral flag>
0

> <version>
0

> <s_m_source_file>
/data/baiqing/PycharmProjects/Reinvent-master-3.2/result/LINK_invent/BTK/process_docking_weight1_custom_sum_contain_oxygen_bond_distance_aromatic_linkinvent_7_9_3/rearranged_h_0153.sdf

> <i_m_source_file_index>
27

> <r_mmod_Potential_Energy-OPLS-2005>
-133.661773681641

> <r_mmod_Stretch_Energy-OPLS-2005>
34.0560760498047

> <r_mmod_Bend_Energy-OPLS-2005>
99.9150848388672

> <r_mmod_Torsional_Energy-OPLS-2005>
255.27799987793

> <r_mmod_Improper_Torsional_Energy-OPLS-2005>
8.79000473022461

> <r_mmod_Van_der_Waal_Energy-OPLS-2005>
160.41943359375

> <r_mmod_Electrostatic_Energy-OPLS-2005>
-285.647979736328

> <r_mmod_Solvation_Energy-OPLS-2005>
-418.092376708984

> <b_mmod_Minimization_Converged-OPLS-2005>
0

> <r_mmod_RMS_Derivative-OPLS-2005>
3.57719993591309

$$$$
27
                    3D
 Structure written by MMmdl.
173183  0  0  1  0            999 V2000
  -30.7705  -14.4357   20.2224 C   0  0  0  0  0  0
  -30.3934  -12.2100   19.3749 C   0  0  0  0  0  0
  -29.4260  -12.3122   18.1727 C   0  0  0  0  0  0
  -27.9670  -12.2668   18.6400 C   0  0  0  0  0  0
  -27.6522  -13.2030   19.8379 C   0  0  2  0  0  0
  -28.7403  -13.1116   20.9352 C   0  0  0  0  0  0
  -25.2593  -13.8204   20.5722 C   0  0  0  0  0  0
  -24.1825  -13.0481   20.9225 C   0  0  0  0  0  0
  -24.6379  -11.6950   20.8823 C   0  0  0  0  0  0
  -23.9041  -10.4324   21.0461 C   0  0  0  0  0  0
  -24.3599   -9.4224   21.9218 C   0  0  0  0  0  0
  -23.6304   -8.2244   22.0747 C   0  0  0  0  0  0
  -22.4291   -8.0283   21.3538 C   0  0  0  0  0  0
  -21.9922   -9.0254   20.4654 C   0  0  0  0  0  0
  -22.7228  -10.2149   20.3093 C   0  0  0  0  0  0
  -21.6853   -6.0751   22.5277 C   0  0  0  0  0  0
  -21.4009   -6.5655   23.8214 C   0  0  0  0  0  0
  -21.3651   -5.6806   24.9175 C   0  0  0  0  0  0
  -21.6036   -4.3066   24.7226 C   0  0  0  0  0  0
  -21.8814   -3.8160   23.4354 C   0  0  0  0  0  0
  -21.9185   -4.6976   22.3408 C   0  0  0  0  0  0
  -22.7833  -13.5278   21.1870 C   0  0  0  0  0  0
  -22.1649   -4.2169   21.0983 F   0  0  0  0  0  0
  -21.5637   -3.4548   25.7740 F   0  0  0  0  0  0
  -30.0549  -13.2894   20.3011 N   0  0  0  0  0  0
  -26.3045  -12.9393   20.3453 N   0  0  0  0  0  0
  -25.9329  -11.6571   20.5977 N   0  0  0  0  0  0
  -22.0439  -12.8254   22.0395 N   0  0  0  0  0  0
  -25.4347  -15.1896   20.4040 N   0  0  0  0  0  0
  -31.9232  -14.5433   20.6223 O   0  0  0  0  0  0
  -21.6647   -6.8891   21.4238 O   0  0  0  0  0  0
  -22.3526  -14.5591   20.6733 O   0  0  0  0  0  0
  -24.6057  -31.8713   23.2148 C   0  0  0  0  0  0
  -25.8987  -32.4832   23.8434 C   0  0  1  0  0  0
  -27.2449  -27.4966   20.0883 C   0  0  0  0  0  0
  -25.5888  -33.8637   24.2376 N   0  0  0  0  0  0
  -23.3918  -30.4908   21.5553 C   0  0  2  0  0  0
  -24.8427  -28.9579   20.1230 C   0  0  0  0  0  0
  -22.7343  -29.4665   22.5056 C   0  0  0  0  0  0
  -18.0248  -28.1363   22.8483 C   0  0  0  0  0  0
  -24.1504  -36.7342   23.2622 C   0  0  0  0  0  0
  -25.9126  -30.8525   21.3617 C   0  0  0  0  0  0
  -25.9938  -29.4879   20.7176 C   0  0  0  0  0  0
  -27.1972  -28.7575   20.7099 C   0  0  0  0  0  0
  -26.0816  -26.9580   19.4994 C   0  0  0  0  0  0
  -24.8756  -27.6856   19.5198 C   0  0  0  0  0  0
  -23.5983  -29.8146   20.1720 C   0  0  0  0  0  0
  -25.4119  -36.3133   24.0335 C   0  0  1  0  0  0
  -20.5822  -28.3630   23.1338 C   0  0  2  0  0  0
  -20.6728  -26.9371   22.5428 C   0  0  0  0  0  0
  -19.5739  -26.6365   21.5202 C   0  0  0  0  0  0
  -18.1908  -26.7919   22.1578 C   0  0  0  0  0  0
  -19.1501  -28.8808   23.2903 C   0  0  0  0  0  0
  -18.9433  -30.1419   23.8909 C   0  0  0  0  0  0
  -17.6445  -30.6565   24.0555 C   0  0  0  0  0  0
  -25.9028  -34.9484   23.5161 C   0  0  0  0  0  0
  -16.5324  -29.9069   23.6330 C   0  0  0  0  0  0
  -16.7245  -28.6472   23.0360 C   0  0  0  0  0  0
  -26.4437  -31.6558   25.0714 C   0  0  0  0  0  0
  -25.3746  -31.3668   26.1480 C   0  0  0  0  0  0
  -27.0219  -30.2992   24.6047 C   0  0  0  0  0  0
  -27.6056  -32.4192   25.7474 C   0  0  0  0  0  0
  -27.5616  -37.1822   24.8434 C   0  0  0  0  0  0
  -21.4075  -29.3011   22.3758 N   0  0  0  0  0  0
  -26.4319  -37.3794   23.9386 N   0  0  0  0  0  0
  -24.6536  -31.0858   22.1019 N   0  0  0  0  0  0
  -23.4124  -28.8234   23.3109 O   0  0  0  0  0  0
  -28.4267  -26.8126   20.0568 O   0  0  0  0  0  0
  -26.5597  -34.8911   22.4734 O   0  0  0  0  0  0
  -23.5270  -32.1433   23.7594 O   0  0  0  0  0  0
  -30.0065  -23.1598   18.5377 C   0  0  0  0  0  0
  -29.9316  -24.4876   18.9869 C   0  0  0  0  0  0
  -28.6073  -25.0660   17.0228 C   0  0  0  0  0  0
  -29.3768  -22.7666   17.3358 C   0  0  0  0  0  0
  -29.2091  -25.4344   18.2431 C   0  0  0  0  0  0
  -28.6896  -23.7346   16.5554 C   0  0  0  0  0  0
  -31.6285  -16.5269   17.4702 C   0  0  0  0  0  0
  -30.8370  -20.7362   16.8583 C   0  0  0  0  0  0
  -28.5801  -20.4815   17.9823 C   0  0  0  0  0  0
  -31.5402  -15.1064   17.9980 C   0  0  0  0  0  0
  -29.8360  -16.3963   19.0447 C   0  0  0  0  0  0
  -30.8232  -19.2229   16.6059 C   0  0  0  0  0  0
  -28.6608  -18.9728   17.7232 C   0  0  0  0  0  0
  -29.4032  -21.2885   16.9609 C   0  0  1  0  0  0
  -30.2149  -17.0447   17.6979 C   0  0  1  0  0  0
  -28.0309  -23.3833   15.2280 C   0  0  0  0  0  0
  -29.0771  -26.8353   18.7931 C   0  0  0  0  0  0
  -30.5121  -15.0978   19.0689 N   0  0  0  0  0  0
  -30.0761  -18.5243   17.6904 N   0  3  1  0  0  0
  -31.4323  -12.2659   19.0362 H   0  0  0  0  0  0
  -30.2878  -11.2438   19.8683 H   0  0  0  0  0  0
  -29.6093  -11.4832   17.4873 H   0  0  0  0  0  0
  -29.5637  -13.2090   17.5799 H   0  0  0  0  0  0
  -27.7686  -11.2322   18.9180 H   0  0  0  0  0  0
  -27.2987  -12.4847   17.8069 H   0  0  0  0  0  0
  -27.6627  -14.2194   19.4452 H   0  0  0  0  0  0
  -28.7018  -12.1422   21.4337 H   0  0  0  0  0  0
  -28.5758  -13.8724   21.6994 H   0  0  0  0  0  0
  -25.2743   -9.5699   22.4802 H   0  0  0  0  0  0
  -24.0024   -7.4626   22.7444 H   0  0  0  0  0  0
  -21.0870   -8.8763   19.8963 H   0  0  0  0  0  0
  -22.3689  -10.9685   19.6199 H   0  0  0  0  0  0
  -21.1999   -7.6166   23.9723 H   0  0  0  0  0  0
  -21.1466   -6.0542   25.9079 H   0  0  0  0  0  0
  -22.0598   -2.7634   23.2841 H   0  0  0  0  0  0
  -22.4067  -11.9928   22.4812 H   0  0  0  0  0  0
  -21.1023  -13.1234   22.2563 H   0  0  0  0  0  0
  -24.6760  -15.8524   20.5219 H   0  0  0  0  0  0
  -26.3066  -15.6268   20.1349 H   0  0  0  0  0  0
  -26.7053  -32.5560   23.1200 H   0  0  0  0  0  0
  -25.0035  -33.9816   25.0522 H   0  0  0  0  0  0
  -22.6796  -31.3061   21.4175 H   0  0  0  0  0  0
  -23.3762  -35.9671   23.3229 H   0  0  0  0  0  0
  -24.3621  -36.8997   22.2044 H   0  0  0  0  0  0
  -23.7234  -37.6539   23.6647 H   0  0  0  0  0  0
  -26.0164  -31.6188   20.5941 H   0  0  0  0  0  0
  -26.8003  -30.9093   21.9773 H   0  0  0  0  0  0
  -28.0901  -29.1653   21.1595 H   0  0  0  0  0  0
  -26.1110  -25.9876   19.0224 H   0  0  0  0  0  0
  -23.9851  -27.2674   19.0696 H   0  0  0  0  0  0
  -23.6950  -30.5842   19.4062 H   0  0  0  0  0  0
  -22.7254  -29.2239   19.8895 H   0  0  0  0  0  0
  -25.1304  -36.2018   25.0827 H   0  0  0  0  0  0
  -20.9920  -28.3168   24.1460 H   0  0  0  0  0  0
  -20.5605  -26.2241   23.3607 H   0  0  0  0  0  0
  -21.6606  -26.7413   22.1247 H   0  0  0  0  0  0
  -19.6883  -25.6271   21.1249 H   0  0  0  0  0  0
  -19.6723  -27.3170   20.6732 H   0  0  0  0  0  0
  -17.4205  -26.6696   21.3942 H   0  0  0  0  0  0
  -18.0282  -26.0040   22.8944 H   0  0  0  0  0  0
  -19.7921  -30.7229   24.2271 H   0  0  0  0  0  0
  -17.4995  -31.6249   24.5153 H   0  0  0  0  0  0
  -15.5324  -30.2964   23.7657 H   0  0  0  0  0  0
  -15.8632  -28.0780   22.7102 H   0  0  0  0  0  0
  -24.5956  -30.6941   25.7847 H   0  0  0  0  0  0
  -24.8908  -32.2830   26.4885 H   0  0  0  0  0  0
  -25.8139  -30.8900   27.0246 H   0  0  0  0  0  0
  -26.2751  -29.6815   24.1024 H   0  0  0  0  0  0
  -27.3889  -29.7142   25.4491 H   0  0  0  0  0  0
  -27.8627  -30.4286   23.9223 H   0  0  0  0  0  0
  -27.2728  -33.3461   26.2143 H   0  0  0  0  0  0
  -28.3850  -32.6750   25.0292 H   0  0  0  0  0  0
  -28.0710  -31.8217   26.5320 H   0  0  0  0  0  0
  -28.2595  -38.0161   24.7537 H   0  0  0  0  0  0
  -28.1168  -36.2702   24.6191 H   0  0  0  0  0  0
  -27.2344  -37.1368   25.8837 H   0  0  0  0  0  0
  -20.9222  -29.8694   21.6952 H   0  0  0  0  0  0
  -26.0220  -38.2865   24.1426 H   0  0  0  0  0  0
  -30.5321  -22.4408   19.1497 H   0  0  0  0  0  0
  -30.4050  -24.7684   19.9191 H   0  0  0  0  0  0
  -28.0572  -25.8013   16.4511 H   0  0  0  0  0  0
  -31.9347  -16.5558   16.4216 H   0  0  0  0  0  0
  -32.3592  -17.0890   18.0566 H   0  0  0  0  0  0
  -31.3801  -21.2468   16.0640 H   0  0  0  0  0  0
  -31.3992  -20.9233   17.7739 H   0  0  0  0  0  0
  -28.9289  -20.6757   18.9975 H   0  0  0  0  0  0
  -27.5395  -20.8059   17.9571 H   0  0  0  0  0  0
  -32.5296  -14.7544   18.2985 H   0  0  0  0  0  0
  -31.2296  -14.4527   17.1860 H   0  0  0  0  0  0
  -28.7580  -16.2798   19.1449 H   0  0  0  0  0  0
  -30.1951  -17.0015   19.8810 H   0  0  0  0  0  0
  -31.8605  -18.8995   16.5516 H   0  0  0  0  0  0
  -30.3767  -18.9978   15.6364 H   0  0  0  0  0  0
  -28.1701  -18.7282   16.7794 H   0  0  0  0  0  0
  -28.1085  -18.4549   18.5064 H   0  0  0  0  0  0
  -28.9452  -21.1360   15.9856 H   0  0  0  0  0  0
  -29.5770  -16.6318   16.9126 H   0  0  0  0  0  0
  -27.5669  -24.2538   14.7616 H   0  0  0  0  0  0
  -27.2528  -22.6310   15.3645 H   0  0  0  0  0  0
  -28.7725  -22.9952   14.5279 H   0  0  0  0  0  0
  -28.5834  -27.4882   18.0709 H   0  0  0  0  0  0
  -30.0755  -27.2452   18.9431 H   0  0  0  0  0  0
  -30.5036  -18.8312   18.5511 H   0  0  0  0  0  0
  1 25  1  0  0  0
  1 30  2  0  0  0
  1 88  1  0  0  0
  2  3  1  0  0  0
  2 25  1  0  0  0
  2 90  1  0  0  0
  2 91  1  0  0  0
  3  4  1  0  0  0
  3 92  1  0  0  0
  3 93  1  0  0  0
  4  5  1  0  0  0
  4 94  1  0  0  0
  4 95  1  0  0  0
  5  6  1  0  0  0
  5 26  1  0  0  0
  5 96  1  0  0  0
  6 25  1  0  0  0
  6 97  1  0  0  0
  6 98  1  0  0  0
  7  8  2  0  0  0
  7 26  1  0  0  0
  7 29  1  0  0  0
  8  9  1  0  0  0
  8 22  1  0  0  0
  9 10  1  0  0  0
  9 27  2  0  0  0
 10 11  2  0  0  0
 10 15  1  0  0  0
 11 12  1  0  0  0
 11 99  1  0  0  0
 12 13  2  0  0  0
 12100  1  0  0  0
 13 14  1  0  0  0
 13 31  1  0  0  0
 14 15  2  0  0  0
 14101  1  0  0  0
 15102  1  0  0  0
 16 17  2  0  0  0
 16 21  1  0  0  0
 16 31  1  0  0  0
 17 18  1  0  0  0
 17103  1  0  0  0
 18 19  2  0  0  0
 18104  1  0  0  0
 19 20  1  0  0  0
 19 24  1  0  0  0
 20 21  2  0  0  0
 20105  1  0  0  0
 21 23  1  0  0  0
 22 28  1  0  0  0
 22 32  2  0  0  0
 26 27  1  0  0  0
 28106  1  0  0  0
 28107  1  0  0  0
 29108  1  0  0  0
 29109  1  0  0  0
 33 34  1  0  0  0
 33 66  1  0  0  0
 33 70  2  0  0  0
 34 36  1  0  0  0
 34 59  1  0  0  0
 34110  1  0  0  0
 35 44  2  0  0  0
 35 45  1  0  0  0
 35 68  1  0  0  0
 36 56  1  0  0  0
 36111  1  0  0  0
 37 39  1  0  0  0
 37 47  1  0  0  0
 37 66  1  0  0  0
 37112  1  0  0  0
 38 43  2  0  0  0
 38 46  1  0  0  0
 38 47  1  0  0  0
 39 64  1  0  0  0
 39 67  2  0  0  0
 40 52  1  0  0  0
 40 53  2  0  0  0
 40 58  1  0  0  0
 41113  1  0  0  0
 41114  1  0  0  0
 41115  1  0  0  0
 41 48  1  0  0  0
 42 43  1  0  0  0
 42 66  1  0  0  0
 42116  1  0  0  0
 42117  1  0  0  0
 43 44  1  0  0  0
 44118  1  0  0  0
 45 46  2  0  0  0
 45119  1  0  0  0
 46120  1  0  0  0
 47121  1  0  0  0
 47122  1  0  0  0
 48 56  1  0  0  0
 48 65  1  0  0  0
 48123  1  0  0  0
 49 50  1  0  0  0
 49 53  1  0  0  0
 49 64  1  0  0  0
 49124  1  0  0  0
 50 51  1  0  0  0
 50125  1  0  0  0
 50126  1  0  0  0
 51 52  1  0  0  0
 51127  1  0  0  0
 51128  1  0  0  0
 52129  1  0  0  0
 52130  1  0  0  0
 53 54  1  0  0  0
 54 55  2  0  0  0
 54131  1  0  0  0
 55 57  1  0  0  0
 55132  1  0  0  0
 56 69  2  0  0  0
 57 58  2  0  0  0
 57133  1  0  0  0
 58134  1  0  0  0
 59 60  1  0  0  0
 59 61  1  0  0  0
 59 62  1  0  0  0
 60135  1  0  0  0
 60136  1  0  0  0
 60137  1  0  0  0
 61138  1  0  0  0
 61139  1  0  0  0
 61140  1  0  0  0
 62141  1  0  0  0
 62142  1  0  0  0
 62143  1  0  0  0
 63 65  1  0  0  0
 63144  1  0  0  0
 63145  1  0  0  0
 63146  1  0  0  0
 64147  1  0  0  0
 65148  1  0  0  0
 68 87  1  0  0  0
 71 72  2  0  0  0
 71 74  1  0  0  0
 71149  1  0  0  0
 72 75  1  0  0  0
 72150  1  0  0  0
 73 75  2  0  0  0
 73 76  1  0  0  0
 73151  1  0  0  0
 74 76  2  0  0  0
 74 84  1  0  0  0
 75 87  1  0  0  0
 76 86  1  0  0  0
 77 80  1  0  0  0
 77152  1  0  0  0
 77153  1  0  0  0
 77 85  1  0  0  0
 78 82  1  0  0  0
 78 84  1  0  0  0
 78154  1  0  0  0
 78155  1  0  0  0
 79 83  1  0  0  0
 79 84  1  0  0  0
 79156  1  0  0  0
 79157  1  0  0  0
 80 88  1  0  0  0
 80158  1  0  0  0
 80159  1  0  0  0
 81 85  1  0  0  0
 81 88  1  0  0  0
 81160  1  0  0  0
 81161  1  0  0  0
 82162  1  0  0  0
 82163  1  0  0  0
 82 89  1  0  0  0
 83 89  1  0  0  0
 83164  1  0  0  0
 83165  1  0  0  0
 84166  1  0  0  0
 85 89  1  0  0  0
 85167  1  0  0  0
 86168  1  0  0  0
 86169  1  0  0  0
 86170  1  0  0  0
 87171  1  0  0  0
 87172  1  0  0  0
 89173  1  0  0  0
M  CHG  1  89   1
M  ISO  4   1 100  68 101  87 101  88 100
M  END
> <chiral flag>
0

> <version>
0

> <s_m_source_file>
/data/baiqing/PycharmProjects/Reinvent-master-3.2/result/LINK_invent/BTK/process_docking_weight1_custom_sum_contain_oxygen_bond_distance_aromatic_linkinvent_7_9_3/rearranged_h_0153.sdf

> <i_m_source_file_index>
28

> <r_mmod_Potential_Energy-OPLS-2005>
259.28564453125

> <r_mmod_Stretch_Energy-OPLS-2005>
34.3364067077637

> <r_mmod_Bend_Energy-OPLS-2005>
127.762725830078

> <r_mmod_Torsional_Energy-OPLS-2005>
446.887939453125

> <r_mmod_Improper_Torsional_Energy-OPLS-2005>
33.1141357421875

> <r_mmod_Van_der_Waal_Energy-OPLS-2005>
163.115570068359

> <r_mmod_Electrostatic_Energy-OPLS-2005>
-187.09831237793

> <r_mmod_Solvation_Energy-OPLS-2005>
-435.141143798828

> <b_mmod_Minimization_Converged-OPLS-2005>
0

> <r_mmod_RMS_Derivative-OPLS-2005>
3.64152479171753

$$$$
28
                    3D
 Structure written by MMmdl.
170179  0  0  1  0            999 V2000
  -30.7037  -14.7386   20.4472 C   0  0  0  0  0  0
  -30.4241  -12.4664   19.4647 C   0  0  0  0  0  0
  -29.5121  -12.4972   18.2234 C   0  0  0  0  0  0
  -28.0404  -12.3190   18.6443 C   0  0  0  0  0  0
  -27.6368  -13.2407   19.8273 C   0  0  2  0  0  0
  -28.6870  -13.2373   20.9609 C   0  0  0  0  0  0
  -25.2472  -13.8165   20.5596 C   0  0  0  0  0  0
  -24.1797  -13.0418   20.9204 C   0  0  0  0  0  0
  -24.6405  -11.6908   20.8770 C   0  0  0  0  0  0
  -23.9069  -10.4281   21.0441 C   0  0  0  0  0  0
  -24.3620   -9.4192   21.9199 C   0  0  0  0  0  0
  -23.6292   -8.2235   22.0780 C   0  0  0  0  0  0
  -22.4268   -8.0290   21.3567 C   0  0  0  0  0  0
  -21.9896   -9.0254   20.4675 C   0  0  0  0  0  0
  -22.7239  -10.2137   20.3066 C   0  0  0  0  0  0
  -21.6848   -6.0721   22.5266 C   0  0  0  0  0  0
  -21.4014   -6.5615   23.8197 C   0  0  0  0  0  0
  -21.3654   -5.6770   24.9160 C   0  0  0  0  0  0
  -21.6052   -4.3039   24.7215 C   0  0  0  0  0  0
  -21.8810   -3.8131   23.4338 C   0  0  0  0  0  0
  -21.9174   -4.6949   22.3391 C   0  0  0  0  0  0
  -22.7809  -13.5206   21.1824 C   0  0  0  0  0  0
  -22.1652   -4.2128   21.0964 F   0  0  0  0  0  0
  -21.5641   -3.4532   25.7729 F   0  0  0  0  0  0
  -29.9784  -13.5714   20.3498 N   0  0  0  0  0  0
  -26.2926  -12.9414   20.3163 N   0  0  0  0  0  0
  -25.9341  -11.6548   20.5729 N   0  0  0  0  0  0
  -22.0401  -12.8292   22.0413 N   0  0  0  0  0  0
  -25.4076  -15.1862   20.3875 N   0  0  0  0  0  0
  -31.9221  -14.6566   20.2772 O   0  0  0  0  0  0
  -21.6633   -6.8883   21.4233 O   0  0  0  0  0  0
  -22.3480  -14.5473   20.6586 O   0  0  0  0  0  0
  -24.6295  -31.8566   23.2048 C   0  0  0  0  0  0
  -25.9133  -32.4750   23.8379 C   0  0  1  0  0  0
  -27.2125  -27.2802   20.1232 C   0  0  0  0  0  0
  -25.5948  -33.8554   24.2287 N   0  0  0  0  0  0
  -23.4258  -30.4816   21.5475 C   0  0  2  0  0  0
  -24.8715  -28.9440   20.1097 C   0  0  0  0  0  0
  -22.7500  -29.4587   22.4918 C   0  0  0  0  0  0
  -18.0292  -28.1388   22.8474 C   0  0  0  0  0  0
  -24.1492  -36.7273   23.2627 C   0  0  0  0  0  0
  -25.9717  -30.7767   21.3862 C   0  0  0  0  0  0
  -26.0448  -29.4048   20.7206 C   0  0  0  0  0  0
  -27.2196  -28.5863   20.7160 C   0  0  0  0  0  0
  -26.0139  -26.8940   19.4759 C   0  0  0  0  0  0
  -24.8620  -27.6967   19.4742 C   0  0  0  0  0  0
  -23.6427  -29.8262   20.1601 C   0  0  0  0  0  0
  -25.4115  -36.3054   24.0320 C   0  0  1  0  0  0
  -20.5888  -28.3690   23.1271 C   0  0  2  0  0  0
  -20.6784  -26.9406   22.5415 C   0  0  0  0  0  0
  -19.5774  -26.6387   21.5202 C   0  0  0  0  0  0
  -18.1940  -26.7944   22.1584 C   0  0  0  0  0  0
  -19.1545  -28.8860   23.2861 C   0  0  0  0  0  0
  -18.9455  -30.1474   23.8857 C   0  0  0  0  0  0
  -17.6456  -30.6580   24.0556 C   0  0  0  0  0  0
  -25.9060  -34.9426   23.5091 C   0  0  0  0  0  0
  -16.5348  -29.9070   23.6341 C   0  0  0  0  0  0
  -16.7285  -28.6498   23.0343 C   0  0  0  0  0  0
  -26.4510  -31.6583   25.0775 C   0  0  0  0  0  0
  -25.3756  -31.3766   26.1528 C   0  0  0  0  0  0
  -27.0336  -30.2979   24.6300 C   0  0  0  0  0  0
  -27.6072  -32.4327   25.7544 C   0  0  0  0  0  0
  -27.5579  -37.1784   24.8452 C   0  0  0  0  0  0
  -21.4203  -29.3028   22.3668 N   0  0  0  0  0  0
  -26.4280  -37.3755   23.9412 N   0  0  0  0  0  0
  -24.6943  -31.0558   22.1023 N   0  0  0  0  0  0
  -23.4212  -28.8101   23.2983 O   0  0  0  0  0  0
  -28.2939  -26.3696   20.1984 O   0  0  0  0  0  0
  -26.5595  -34.8884   22.4647 O   0  0  0  0  0  0
  -23.5445  -32.1371   23.7356 O   0  0  0  0  0  0
  -29.6703  -20.5026   20.4490 C   0  0  0  0  0  0
  -27.4660  -20.2603   21.3658 C   0  0  0  0  0  0
  -29.8278  -19.0664   20.5000 C   0  0  0  0  0  0
  -28.8010  -18.2055   20.9646 C   0  0  0  0  0  0
  -27.6128  -18.8453   21.4215 C   0  0  0  0  0  0
  -28.4641  -21.1395   20.8759 C   0  0  0  0  0  0
  -28.9888  -16.6295   20.9912 C   0  0  0  0  0  0
  -31.1105  -18.3761   20.0503 C   0  0  2  0  0  0
  -30.8105  -17.0038   19.3550 C   0  0  2  0  0  0
  -26.4504  -18.0481   21.9880 C   0  0  0  0  0  0
  -30.0868  -17.1910   18.0032 C   0  0  0  0  0  0
  -33.3825  -19.1537   20.9357 C   0  0  0  0  0  0
  -31.6845  -18.4040   22.6269 C   0  0  0  0  0  0
  -27.9705  -24.9136   20.0444 C   0  0  0  0  0  0
  -28.9143  -23.6641   20.4208 C   0  0  0  0  0  0
  -32.1836  -18.2242   21.1790 C   0  0  0  0  0  0
  -30.1066  -15.9910   20.2166 N   0  0  0  0  0  0
  -28.1193  -22.5138   20.8771 O   0  0  0  0  0  0
  -31.4677  -12.5604   19.1555 H   0  0  0  0  0  0
  -30.3557  -11.5087   19.9832 H   0  0  0  0  0  0
  -29.8073  -11.7158   17.5204 H   0  0  0  0  0  0
  -29.6401  -13.4450   17.6973 H   0  0  0  0  0  0
  -27.9120  -11.2765   18.9355 H   0  0  0  0  0  0
  -27.3776  -12.4799   17.7924 H   0  0  0  0  0  0
  -27.6119  -14.2482   19.4100 H   0  0  0  0  0  0
  -28.7288  -12.2655   21.4561 H   0  0  0  0  0  0
  -28.4246  -13.9650   21.7291 H   0  0  0  0  0  0
  -25.2793   -9.5648   22.4740 H   0  0  0  0  0  0
  -23.9997   -7.4611   22.7490 H   0  0  0  0  0  0
  -21.0819   -8.8788   19.8984 H   0  0  0  0  0  0
  -22.3731  -10.9663   19.6156 H   0  0  0  0  0  0
  -21.2034   -7.6128   23.9686 H   0  0  0  0  0  0
  -21.1485   -6.0509   25.9043 H   0  0  0  0  0  0
  -22.0604   -2.7600   23.2819 H   0  0  0  0  0  0
  -22.3978  -12.0028   22.4981 H   0  0  0  0  0  0
  -21.1004  -13.1361   22.2477 H   0  0  0  0  0  0
  -24.6272  -15.8276   20.4766 H   0  0  0  0  0  0
  -26.2308  -15.6170   19.9885 H   0  0  0  0  0  0
  -26.7193  -32.5404   23.1113 H   0  0  0  0  0  0
  -25.0176  -33.9733   25.0483 H   0  0  0  0  0  0
  -22.7222  -31.3035   21.4074 H   0  0  0  0  0  0
  -23.3752  -35.9598   23.3255 H   0  0  0  0  0  0
  -24.3580  -36.8937   22.2043 H   0  0  0  0  0  0
  -23.7248  -37.6467   23.6679 H   0  0  0  0  0  0
  -26.1144  -31.5463   20.6261 H   0  0  0  0  0  0
  -26.8449  -30.8147   22.0260 H   0  0  0  0  0  0
  -28.1155  -28.9303   21.2136 H   0  0  0  0  0  0
  -25.9154  -25.9420   18.9776 H   0  0  0  0  0  0
  -23.9671  -27.3431   18.9824 H   0  0  0  0  0  0
  -23.7635  -30.6047   19.4064 H   0  0  0  0  0  0
  -22.7625  -29.2581   19.8548 H   0  0  0  0  0  0
  -25.1286  -36.1884   25.0804 H   0  0  0  0  0  0
  -20.9970  -28.3263   24.1394 H   0  0  0  0  0  0
  -20.5671  -26.2283   23.3611 H   0  0  0  0  0  0
  -21.6662  -26.7440   22.1221 H   0  0  0  0  0  0
  -19.6936  -25.6292   21.1255 H   0  0  0  0  0  0
  -19.6741  -27.3170   20.6713 H   0  0  0  0  0  0
  -17.4230  -26.6713   21.3958 H   0  0  0  0  0  0
  -18.0308  -26.0080   22.8969 H   0  0  0  0  0  0
  -19.7931  -30.7311   24.2186 H   0  0  0  0  0  0
  -17.5003  -31.6246   24.5193 H   0  0  0  0  0  0
  -15.5343  -30.2943   23.7704 H   0  0  0  0  0  0
  -15.8687  -28.0819   22.7051 H   0  0  0  0  0  0
  -24.5944  -30.7068   25.7918 H   0  0  0  0  0  0
  -24.8931  -32.2944   26.4893 H   0  0  0  0  0  0
  -25.8111  -30.9035   27.0342 H   0  0  0  0  0  0
  -26.2921  -29.6744   24.1298 H   0  0  0  0  0  0
  -27.3929  -29.7234   25.4848 H   0  0  0  0  0  0
  -27.8841  -30.4182   23.9589 H   0  0  0  0  0  0
  -27.2681  -33.3629   26.2099 H   0  0  0  0  0  0
  -28.3897  -32.6884   25.0396 H   0  0  0  0  0  0
  -28.0724  -31.8484   26.5491 H   0  0  0  0  0  0
  -28.2575  -38.0098   24.7499 H   0  0  0  0  0  0
  -28.1097  -36.2628   24.6262 H   0  0  0  0  0  0
  -27.2308  -37.1421   25.8858 H   0  0  0  0  0  0
  -20.9391  -29.8741   21.6867 H   0  0  0  0  0  0
  -26.0149  -38.2817   24.1442 H   0  0  0  0  0  0
  -30.4834  -21.1131   20.0814 H   0  0  0  0  0  0
  -26.5380  -20.6937   21.7121 H   0  0  0  0  0  0
  -28.0679  -16.1836   20.6258 H   0  0  0  0  0  0
  -29.0865  -16.3254   22.0327 H   0  0  0  0  0  0
  -31.5296  -19.0218   19.2770 H   0  0  0  0  0  0
  -31.7878  -16.6319   19.0472 H   0  0  0  0  0  0
  -26.0241  -18.5585   22.8524 H   0  0  0  0  0  0
  -26.7412  -17.0525   22.3206 H   0  0  0  0  0  0
  -25.6628  -17.9435   21.2418 H   0  0  0  0  0  0
  -29.0846  -17.6045   18.1201 H   0  0  0  0  0  0
  -30.0056  -16.2511   17.4572 H   0  0  0  0  0  0
  -30.6458  -17.8777   17.3651 H   0  0  0  0  0  0
  -33.8275  -18.9831   19.9535 H   0  0  0  0  0  0
  -34.1617  -18.9886   21.6809 H   0  0  0  0  0  0
  -33.0798  -20.1990   20.9907 H   0  0  0  0  0  0
  -30.8950  -17.6951   22.8743 H   0  0  0  0  0  0
  -31.3028  -19.4104   22.7982 H   0  0  0  0  0  0
  -32.4979  -18.2386   23.3355 H   0  0  0  0  0  0
  -27.0701  -24.7557   20.6400 H   0  0  0  0  0  0
  -27.6820  -24.7474   19.0050 H   0  0  0  0  0  0
  -29.6047  -23.9432   21.2164 H   0  0  0  0  0  0
  -29.5204  -23.3742   19.5615 H   0  0  0  0  0  0
  -32.5844  -17.2129   21.1237 H   0  0  0  0  0  0
  1 25  1  0  0  0
  1 30  2  0  0  0
  1 87  1  0  0  0
  2  3  1  0  0  0
  2 25  1  0  0  0
  2 89  1  0  0  0
  2 90  1  0  0  0
  3  4  1  0  0  0
  3 91  1  0  0  0
  3 92  1  0  0  0
  4  5  1  0  0  0
  4 93  1  0  0  0
  4 94  1  0  0  0
  5  6  1  0  0  0
  5 26  1  0  0  0
  5 95  1  0  0  0
  6 25  1  0  0  0
  6 96  1  0  0  0
  6 97  1  0  0  0
  7  8  2  0  0  0
  7 26  1  0  0  0
  7 29  1  0  0  0
  8  9  1  0  0  0
  8 22  1  0  0  0
  9 10  1  0  0  0
  9 27  2  0  0  0
 10 11  2  0  0  0
 10 15  1  0  0  0
 11 12  1  0  0  0
 11 98  1  0  0  0
 12 13  2  0  0  0
 12 99  1  0  0  0
 13 14  1  0  0  0
 13 31  1  0  0  0
 14 15  2  0  0  0
 14100  1  0  0  0
 15101  1  0  0  0
 16 17  2  0  0  0
 16 21  1  0  0  0
 16 31  1  0  0  0
 17 18  1  0  0  0
 17102  1  0  0  0
 18 19  2  0  0  0
 18103  1  0  0  0
 19 20  1  0  0  0
 19 24  1  0  0  0
 20 21  2  0  0  0
 20104  1  0  0  0
 21 23  1  0  0  0
 22 28  1  0  0  0
 22 32  2  0  0  0
 26 27  1  0  0  0
 28105  1  0  0  0
 28106  1  0  0  0
 29107  1  0  0  0
 29108  1  0  0  0
 33 34  1  0  0  0
 33 66  1  0  0  0
 33 70  2  0  0  0
 34 36  1  0  0  0
 34 59  1  0  0  0
 34109  1  0  0  0
 35 44  2  0  0  0
 35 45  1  0  0  0
 35 68  1  0  0  0
 36 56  1  0  0  0
 36110  1  0  0  0
 37 39  1  0  0  0
 37 47  1  0  0  0
 37 66  1  0  0  0
 37111  1  0  0  0
 38 43  2  0  0  0
 38 46  1  0  0  0
 38 47  1  0  0  0
 39 64  1  0  0  0
 39 67  2  0  0  0
 40 52  1  0  0  0
 40 53  2  0  0  0
 40 58  1  0  0  0
 41112  1  0  0  0
 41113  1  0  0  0
 41114  1  0  0  0
 41 48  1  0  0  0
 42 43  1  0  0  0
 42 66  1  0  0  0
 42115  1  0  0  0
 42116  1  0  0  0
 43 44  1  0  0  0
 44117  1  0  0  0
 45 46  2  0  0  0
 45118  1  0  0  0
 46119  1  0  0  0
 47120  1  0  0  0
 47121  1  0  0  0
 48 56  1  0  0  0
 48 65  1  0  0  0
 48122  1  0  0  0
 49 50  1  0  0  0
 49 53  1  0  0  0
 49 64  1  0  0  0
 49123  1  0  0  0
 50 51  1  0  0  0
 50124  1  0  0  0
 50125  1  0  0  0
 51 52  1  0  0  0
 51126  1  0  0  0
 51127  1  0  0  0
 52128  1  0  0  0
 52129  1  0  0  0
 53 54  1  0  0  0
 54 55  2  0  0  0
 54130  1  0  0  0
 55 57  1  0  0  0
 55131  1  0  0  0
 56 69  2  0  0  0
 57 58  2  0  0  0
 57132  1  0  0  0
 58133  1  0  0  0
 59 60  1  0  0  0
 59 61  1  0  0  0
 59 62  1  0  0  0
 60134  1  0  0  0
 60135  1  0  0  0
 60136  1  0  0  0
 61137  1  0  0  0
 61138  1  0  0  0
 61139  1  0  0  0
 62140  1  0  0  0
 62141  1  0  0  0
 62142  1  0  0  0
 63 65  1  0  0  0
 63143  1  0  0  0
 63144  1  0  0  0
 63145  1  0  0  0
 64146  1  0  0  0
 65147  1  0  0  0
 68 84  1  0  0  0
 71 73  2  0  0  0
 71 76  1  0  0  0
 71148  1  0  0  0
 72 75  1  0  0  0
 72 76  2  0  0  0
 72149  1  0  0  0
 73 74  1  0  0  0
 73 78  1  0  0  0
 74 75  2  0  0  0
 74 77  1  0  0  0
 75 80  1  0  0  0
 76 88  1  0  0  0
 77 87  1  0  0  0
 77150  1  0  0  0
 77151  1  0  0  0
 78 79  1  0  0  0
 78 86  1  0  0  0
 78152  1  0  0  0
 79 81  1  0  0  0
 79 87  1  0  0  0
 79153  1  0  0  0
 80154  1  0  0  0
 80155  1  0  0  0
 80156  1  0  0  0
 81157  1  0  0  0
 81158  1  0  0  0
 81159  1  0  0  0
 82160  1  0  0  0
 82161  1  0  0  0
 82162  1  0  0  0
 82 86  1  0  0  0
 83 86  1  0  0  0
 83163  1  0  0  0
 83164  1  0  0  0
 83165  1  0  0  0
 84 85  1  0  0  0
 84166  1  0  0  0
 84167  1  0  0  0
 85 88  1  0  0  0
 85168  1  0  0  0
 85169  1  0  0  0
 86170  1  0  0  0
M  ISO  4   1 100  68 101  84 101  87 100
M  END
> <chiral flag>
0

> <version>
0

> <s_m_source_file>
/data/baiqing/PycharmProjects/Reinvent-master-3.2/result/LINK_invent/BTK/process_docking_weight1_custom_sum_contain_oxygen_bond_distance_aromatic_linkinvent_7_9_3/rearranged_h_0153.sdf

> <i_m_source_file_index>
29

> <r_mmod_Potential_Energy-OPLS-2005>
395.209289550781

> <r_mmod_Stretch_Energy-OPLS-2005>
110.810409545898

> <r_mmod_Bend_Energy-OPLS-2005>
207.434906005859

> <r_mmod_Torsional_Energy-OPLS-2005>
306.964782714844

> <r_mmod_Improper_Torsional_Energy-OPLS-2005>
17.7850933074951

> <r_mmod_Van_der_Waal_Energy-OPLS-2005>
149.759063720703

> <r_mmod_Electrostatic_Energy-OPLS-2005>
-305.672607421875

> <r_mmod_Solvation_Energy-OPLS-2005>
-186.408050537109

> <b_mmod_Minimization_Converged-OPLS-2005>
0

> <r_mmod_RMS_Derivative-OPLS-2005>
3.99929618835449

$$$$
29
                    3D
 Structure written by MMmdl.
167177  0  0  1  0            999 V2000
  -30.7293  -14.7012   20.4882 C   0  0  0  0  0  0
  -30.4063  -12.4564   19.4514 C   0  0  0  0  0  0
  -29.4864  -12.5099   18.2175 C   0  0  0  0  0  0
  -28.0179  -12.3413   18.6454 C   0  0  0  0  0  0
  -27.6363  -13.2415   19.8525 C   0  0  2  0  0  0
  -28.6956  -13.1831   20.9751 C   0  0  0  0  0  0
  -25.2481  -13.8222   20.5770 C   0  0  0  0  0  0
  -24.1786  -13.0451   20.9247 C   0  0  0  0  0  0
  -24.6394  -11.6927   20.8778 C   0  0  0  0  0  0
  -23.9092  -10.4290   21.0410 C   0  0  0  0  0  0
  -24.3637   -9.4196   21.9185 C   0  0  0  0  0  0
  -23.6308   -8.2232   22.0743 C   0  0  0  0  0  0
  -22.4290   -8.0282   21.3535 C   0  0  0  0  0  0
  -21.9931   -9.0266   20.4644 C   0  0  0  0  0  0
  -22.7261  -10.2140   20.3056 C   0  0  0  0  0  0
  -21.6842   -6.0748   22.5296 C   0  0  0  0  0  0
  -21.4006   -6.5648   23.8235 C   0  0  0  0  0  0
  -21.3655   -5.6793   24.9188 C   0  0  0  0  0  0
  -21.6044   -4.3066   24.7230 C   0  0  0  0  0  0
  -21.8812   -3.8161   23.4352 C   0  0  0  0  0  0
  -21.9185   -4.6979   22.3418 C   0  0  0  0  0  0
  -22.7804  -13.5225   21.1892 C   0  0  0  0  0  0
  -22.1644   -4.2169   21.0989 F   0  0  0  0  0  0
  -21.5638   -3.4541   25.7741 F   0  0  0  0  0  0
  -29.9761  -13.5496   20.3595 N   0  0  0  0  0  0
  -26.2929  -12.9458   20.3373 N   0  0  0  0  0  0
  -25.9339  -11.6586   20.5831 N   0  0  0  0  0  0
  -22.0422  -12.8209   22.0418 N   0  0  0  0  0  0
  -25.4135  -15.1945   20.4204 N   0  0  0  0  0  0
  -31.9358  -14.6009   20.2458 O   0  0  0  0  0  0
  -21.6638   -6.8893   21.4260 O   0  0  0  0  0  0
  -22.3486  -14.5536   20.6736 O   0  0  0  0  0  0
  -24.6324  -31.8616   23.2068 C   0  0  0  0  0  0
  -25.9164  -32.4779   23.8394 C   0  0  1  0  0  0
  -27.1847  -27.2700   20.1002 C   0  0  0  0  0  0
  -25.5976  -33.8591   24.2311 N   0  0  0  0  0  0
  -23.4237  -30.4941   21.5540 C   0  0  2  0  0  0
  -24.8615  -28.9656   20.1057 C   0  0  0  0  0  0
  -22.7506  -29.4642   22.4948 C   0  0  0  0  0  0
  -18.0288  -28.1400   22.8470 C   0  0  0  0  0  0
  -24.1495  -36.7280   23.2623 C   0  0  0  0  0  0
  -25.9751  -30.7744   21.3903 C   0  0  0  0  0  0
  -26.0405  -29.4029   20.7246 C   0  0  0  0  0  0
  -27.2047  -28.5667   20.7213 C   0  0  0  0  0  0
  -25.9821  -26.9380   19.4195 C   0  0  0  0  0  0
  -24.8387  -27.7406   19.4438 C   0  0  0  0  0  0
  -23.6364  -29.8506   20.1643 C   0  0  0  0  0  0
  -25.4114  -36.3083   24.0323 C   0  0  1  0  0  0
  -20.5891  -28.3706   23.1274 C   0  0  2  0  0  0
  -20.6792  -26.9437   22.5393 C   0  0  0  0  0  0
  -19.5763  -26.6398   21.5209 C   0  0  0  0  0  0
  -18.1939  -26.7943   22.1618 C   0  0  0  0  0  0
  -19.1540  -28.8864   23.2872 C   0  0  0  0  0  0
  -18.9461  -30.1464   23.8891 C   0  0  0  0  0  0
  -17.6459  -30.6589   24.0561 C   0  0  0  0  0  0
  -25.9061  -34.9450   23.5101 C   0  0  0  0  0  0
  -16.5351  -29.9081   23.6346 C   0  0  0  0  0  0
  -16.7273  -28.6511   23.0342 C   0  0  0  0  0  0
  -26.4519  -31.6570   25.0757 C   0  0  0  0  0  0
  -25.3735  -31.3757   26.1470 C   0  0  0  0  0  0
  -27.0308  -30.2959   24.6240 C   0  0  0  0  0  0
  -27.6110  -32.4266   25.7521 C   0  0  0  0  0  0
  -27.5585  -37.1805   24.8459 C   0  0  0  0  0  0
  -21.4215  -29.3063   22.3677 N   0  0  0  0  0  0
  -26.4292  -37.3776   23.9405 N   0  0  0  0  0  0
  -24.6966  -31.0588   22.1056 N   0  0  0  0  0  0
  -23.4214  -28.8143   23.3009 O   0  0  0  0  0  0
  -28.2268  -26.3075   20.1793 O   0  0  0  0  0  0
  -26.5619  -34.8914   22.4663 O   0  0  0  0  0  0
  -23.5476  -32.1460   23.7355 O   0  0  0  0  0  0
  -28.4786  -22.5591   19.0138 C   0  0  0  0  0  0
  -28.8944  -23.0336   21.3119 C   0  0  0  0  0  0
  -28.7689  -21.1678   19.1872 C   0  0  0  0  0  0
  -29.1701  -20.6597   20.4740 C   0  0  0  0  0  0
  -28.5206  -23.5355   20.0445 C   0  0  0  0  0  0
  -29.2117  -21.6481   21.5246 C   0  0  0  0  0  0
  -29.6488  -20.3381   16.8659 C   0  0  0  0  0  0
  -28.2034  -20.6612   16.5638 C   0  0  0  0  0  0
  -28.5194  -18.0214   20.9338 C   0  0  0  0  0  0
  -30.6033  -18.5116   19.7514 C   0  0  0  0  0  0
  -29.0361  -16.5447   21.2638 C   0  0  0  0  0  0
  -31.1539  -17.1085   20.1585 C   0  0  0  0  0  0
  -28.6196  -20.2599   17.9787 C   0  0  0  0  0  0
  -29.6062  -19.1313   20.7476 C   0  0  0  0  0  0
  -29.5744  -21.2531   22.9498 C   0  0  0  0  0  0
  -27.8164  -24.9244   19.7707 C   0  0  0  0  0  0
  -30.1903  -16.0023   20.4820 N   0  0  0  0  0  0
  -31.4455  -12.5403   19.1296 H   0  0  0  0  0  0
  -30.3342  -11.4872   19.9476 H   0  0  0  0  0  0
  -29.7637  -11.7375   17.4984 H   0  0  0  0  0  0
  -29.6134  -13.4641   17.7037 H   0  0  0  0  0  0
  -27.8736  -11.2919   18.9046 H   0  0  0  0  0  0
  -27.3548  -12.5379   17.8024 H   0  0  0  0  0  0
  -27.6245  -14.2628   19.4714 H   0  0  0  0  0  0
  -28.7468  -12.1781   21.3970 H   0  0  0  0  0  0
  -28.4468  -13.8392   21.8081 H   0  0  0  0  0  0
  -25.2761   -9.5678   22.4779 H   0  0  0  0  0  0
  -24.0018   -7.4619   22.7446 H   0  0  0  0  0  0
  -21.0860   -8.8786   19.8949 H   0  0  0  0  0  0
  -22.3710  -10.9692   19.6181 H   0  0  0  0  0  0
  -21.1981   -7.6151   23.9751 H   0  0  0  0  0  0
  -21.1483   -6.0515   25.9098 H   0  0  0  0  0  0
  -22.0592   -2.7627   23.2851 H   0  0  0  0  0  0
  -22.4040  -11.9878   22.4827 H   0  0  0  0  0  0
  -21.1034  -13.1238   22.2590 H   0  0  0  0  0  0
  -24.6484  -15.8473   20.5546 H   0  0  0  0  0  0
  -26.2693  -15.6443   20.1237 H   0  0  0  0  0  0
  -26.7208  -32.5426   23.1121 H   0  0  0  0  0  0
  -25.0145  -33.9747   25.0467 H   0  0  0  0  0  0
  -22.7188  -31.3181   21.4218 H   0  0  0  0  0  0
  -23.3758  -35.9615   23.3296 H   0  0  0  0  0  0
  -24.3598  -36.8882   22.2038 H   0  0  0  0  0  0
  -23.7246  -37.6484   23.6630 H   0  0  0  0  0  0
  -26.1128  -31.5380   20.6231 H   0  0  0  0  0  0
  -26.8541  -30.8192   22.0215 H   0  0  0  0  0  0
  -28.1001  -28.8894   21.2342 H   0  0  0  0  0  0
  -25.8489  -26.0267   18.8599 H   0  0  0  0  0  0
  -23.9408  -27.4092   18.9398 H   0  0  0  0  0  0
  -23.7602  -30.6375   19.4197 H   0  0  0  0  0  0
  -22.7521  -29.2900   19.8529 H   0  0  0  0  0  0
  -25.1292  -36.1938   25.0815 H   0  0  0  0  0  0
  -20.9972  -28.3280   24.1399 H   0  0  0  0  0  0
  -20.5717  -26.2323   23.3597 H   0  0  0  0  0  0
  -21.6663  -26.7479   22.1175 H   0  0  0  0  0  0
  -19.6930  -25.6305   21.1251 H   0  0  0  0  0  0
  -19.6703  -27.3212   20.6742 H   0  0  0  0  0  0
  -17.4215  -26.6682   21.4017 H   0  0  0  0  0  0
  -18.0339  -26.0086   22.9014 H   0  0  0  0  0  0
  -19.7931  -30.7293   24.2268 H   0  0  0  0  0  0
  -17.5000  -31.6279   24.5145 H   0  0  0  0  0  0
  -15.5347  -30.2965   23.7685 H   0  0  0  0  0  0
  -15.8679  -28.0828   22.7045 H   0  0  0  0  0  0
  -24.5890  -30.7127   25.7798 H   0  0  0  0  0  0
  -24.8942  -32.2932   26.4880 H   0  0  0  0  0  0
  -25.8015  -30.8925   27.0255 H   0  0  0  0  0  0
  -26.2859  -29.6738   24.1241 H   0  0  0  0  0  0
  -27.3929  -29.7198   25.4769 H   0  0  0  0  0  0
  -27.8797  -30.4190   23.9508 H   0  0  0  0  0  0
  -27.2780  -33.3611   26.2055 H   0  0  0  0  0  0
  -28.3956  -32.6728   25.0347 H   0  0  0  0  0  0
  -28.0721  -31.8378   26.5465 H   0  0  0  0  0  0
  -28.2587  -38.0119   24.7501 H   0  0  0  0  0  0
  -28.1098  -36.2641   24.6274 H   0  0  0  0  0  0
  -27.2308  -37.1429   25.8867 H   0  0  0  0  0  0
  -20.9404  -29.8804   21.6890 H   0  0  0  0  0  0
  -26.0170  -38.2850   24.1402 H   0  0  0  0  0  0
  -28.1420  -22.8978   18.0465 H   0  0  0  0  0  0
  -28.8848  -23.7159   22.1511 H   0  0  0  0  0  0
  -30.3377  -21.1816   16.8523 H   0  0  0  0  0  0
  -30.0625  -19.4029   16.4904 H   0  0  0  0  0  0
  -27.6742  -19.9220   15.9637 H   0  0  0  0  0  0
  -27.9640  -21.6917   16.3027 H   0  0  0  0  0  0
  -27.8416  -18.3290   21.7320 H   0  0  0  0  0  0
  -27.8998  -17.9736   20.0402 H   0  0  0  0  0  0
  -30.1688  -18.4132   18.7626 H   0  0  0  0  0  0
  -31.4465  -19.1955   19.6405 H   0  0  0  0  0  0
  -28.1842  -15.8807   21.1615 H   0  0  0  0  0  0
  -29.3232  -16.4974   22.3157 H   0  0  0  0  0  0
  -31.8205  -17.2276   21.0148 H   0  0  0  0  0  0
  -31.7883  -16.8092   19.3216 H   0  0  0  0  0  0
  -28.2040  -19.3002   18.2758 H   0  0  0  0  0  0
  -30.1575  -19.1435   21.6856 H   0  0  0  0  0  0
  -29.3466  -22.0497   23.6595 H   0  0  0  0  0  0
  -30.6409  -21.0418   23.0285 H   0  0  0  0  0  0
  -29.0161  -20.3743   23.2746 H   0  0  0  0  0  0
  -26.8416  -24.7243   20.2171 H   0  0  0  0  0  0
  -27.6840  -24.9686   18.6885 H   0  0  0  0  0  0
  1 25  1  0  0  0
  1 30  2  0  0  0
  1 87  1  0  0  0
  2  3  1  0  0  0
  2 25  1  0  0  0
  2 88  1  0  0  0
  2 89  1  0  0  0
  3  4  1  0  0  0
  3 90  1  0  0  0
  3 91  1  0  0  0
  4  5  1  0  0  0
  4 92  1  0  0  0
  4 93  1  0  0  0
  5  6  1  0  0  0
  5 26  1  0  0  0
  5 94  1  0  0  0
  6 25  1  0  0  0
  6 95  1  0  0  0
  6 96  1  0  0  0
  7  8  2  0  0  0
  7 26  1  0  0  0
  7 29  1  0  0  0
  8  9  1  0  0  0
  8 22  1  0  0  0
  9 10  1  0  0  0
  9 27  2  0  0  0
 10 11  2  0  0  0
 10 15  1  0  0  0
 11 12  1  0  0  0
 11 97  1  0  0  0
 12 13  2  0  0  0
 12 98  1  0  0  0
 13 14  1  0  0  0
 13 31  1  0  0  0
 14 15  2  0  0  0
 14 99  1  0  0  0
 15100  1  0  0  0
 16 17  2  0  0  0
 16 21  1  0  0  0
 16 31  1  0  0  0
 17 18  1  0  0  0
 17101  1  0  0  0
 18 19  2  0  0  0
 18102  1  0  0  0
 19 20  1  0  0  0
 19 24  1  0  0  0
 20 21  2  0  0  0
 20103  1  0  0  0
 21 23  1  0  0  0
 22 28  1  0  0  0
 22 32  2  0  0  0
 26 27  1  0  0  0
 28104  1  0  0  0
 28105  1  0  0  0
 29106  1  0  0  0
 29107  1  0  0  0
 33 34  1  0  0  0
 33 66  1  0  0  0
 33 70  2  0  0  0
 34 36  1  0  0  0
 34 59  1  0  0  0
 34108  1  0  0  0
 35 44  2  0  0  0
 35 45  1  0  0  0
 35 68  1  0  0  0
 36 56  1  0  0  0
 36109  1  0  0  0
 37 39  1  0  0  0
 37 47  1  0  0  0
 37 66  1  0  0  0
 37110  1  0  0  0
 38 43  2  0  0  0
 38 46  1  0  0  0
 38 47  1  0  0  0
 39 64  1  0  0  0
 39 67  2  0  0  0
 40 52  1  0  0  0
 40 53  2  0  0  0
 40 58  1  0  0  0
 41111  1  0  0  0
 41112  1  0  0  0
 41113  1  0  0  0
 41 48  1  0  0  0
 42 43  1  0  0  0
 42 66  1  0  0  0
 42114  1  0  0  0
 42115  1  0  0  0
 43 44  1  0  0  0
 44116  1  0  0  0
 45 46  2  0  0  0
 45117  1  0  0  0
 46118  1  0  0  0
 47119  1  0  0  0
 47120  1  0  0  0
 48 56  1  0  0  0
 48 65  1  0  0  0
 48121  1  0  0  0
 49 50  1  0  0  0
 49 53  1  0  0  0
 49 64  1  0  0  0
 49122  1  0  0  0
 50 51  1  0  0  0
 50123  1  0  0  0
 50124  1  0  0  0
 51 52  1  0  0  0
 51125  1  0  0  0
 51126  1  0  0  0
 52127  1  0  0  0
 52128  1  0  0  0
 53 54  1  0  0  0
 54 55  2  0  0  0
 54129  1  0  0  0
 55 57  1  0  0  0
 55130  1  0  0  0
 56 69  2  0  0  0
 57 58  2  0  0  0
 57131  1  0  0  0
 58132  1  0  0  0
 59 60  1  0  0  0
 59 61  1  0  0  0
 59 62  1  0  0  0
 60133  1  0  0  0
 60134  1  0  0  0
 60135  1  0  0  0
 61136  1  0  0  0
 61137  1  0  0  0
 61138  1  0  0  0
 62139  1  0  0  0
 62140  1  0  0  0
 62141  1  0  0  0
 63 65  1  0  0  0
 63142  1  0  0  0
 63143  1  0  0  0
 63144  1  0  0  0
 64145  1  0  0  0
 65146  1  0  0  0
 68 86  1  0  0  0
 71 73  2  0  0  0
 71 75  1  0  0  0
 71147  1  0  0  0
 72 75  2  0  0  0
 72 76  1  0  0  0
 72148  1  0  0  0
 73 74  1  0  0  0
 73 83  1  0  0  0
 74 76  2  0  0  0
 74 84  1  0  0  0
 75 86  1  0  0  0
 76 85  1  0  0  0
 77 78  1  0  0  0
 77 83  1  0  0  0
 77149  1  0  0  0
 77150  1  0  0  0
 78 83  1  0  0  0
 78151  1  0  0  0
 78152  1  0  0  0
 79 81  1  0  0  0
 79 84  1  0  0  0
 79153  1  0  0  0
 79154  1  0  0  0
 80 82  1  0  0  0
 80 84  1  0  0  0
 80155  1  0  0  0
 80156  1  0  0  0
 81 87  1  0  0  0
 81157  1  0  0  0
 81158  1  0  0  0
 82 87  1  0  0  0
 82159  1  0  0  0
 82160  1  0  0  0
 83161  1  0  0  0
 84162  1  0  0  0
 85163  1  0  0  0
 85164  1  0  0  0
 85165  1  0  0  0
 86166  1  0  0  0
 86167  1  0  0  0
M  ISO  4   1 100  68 101  86 101  87 100
M  END
> <chiral flag>
0

> <version>
0

> <s_m_source_file>
/data/baiqing/PycharmProjects/Reinvent-master-3.2/result/LINK_invent/BTK/process_docking_weight1_custom_sum_contain_oxygen_bond_distance_aromatic_linkinvent_7_9_3/rearranged_h_0153.sdf

> <i_m_source_file_index>
30

> <r_mmod_Potential_Energy-OPLS-2005>
489.676879882812

> <r_mmod_Stretch_Energy-OPLS-2005>
117.211540222168

> <r_mmod_Bend_Energy-OPLS-2005>
230.736587524414

> <r_mmod_Torsional_Energy-OPLS-2005>
341.686248779297

> <r_mmod_Improper_Torsional_Energy-OPLS-2005>
15.9646644592285

> <r_mmod_Van_der_Waal_Energy-OPLS-2005>
177.176498413086

> <r_mmod_Electrostatic_Energy-OPLS-2005>
-289.626312255859

> <r_mmod_Solvation_Energy-OPLS-2005>
-196.124069213867

> <b_mmod_Minimization_Converged-OPLS-2005>
0

> <r_mmod_RMS_Derivative-OPLS-2005>
3.50519561767578

$$$$
30
                    3D
 Structure written by MMmdl.
167176  0  0  1  0            999 V2000
  -30.7132  -14.4422   20.6192 C   0  0  0  0  0  0
  -30.4228  -12.3089   19.4082 C   0  0  0  0  0  0
  -29.4918  -12.5140   18.1978 C   0  0  0  0  0  0
  -28.0148  -12.3571   18.6109 C   0  0  0  0  0  0
  -27.6583  -13.1950   19.8661 C   0  0  2  0  0  0
  -28.6974  -12.9673   20.9859 C   0  0  0  0  0  0
  -25.2586  -13.8137   20.5653 C   0  0  0  0  0  0
  -24.1832  -13.0432   20.9173 C   0  0  0  0  0  0
  -24.6367  -11.6892   20.8722 C   0  0  0  0  0  0
  -23.9027  -10.4290   21.0385 C   0  0  0  0  0  0
  -24.3581   -9.4211   21.9158 C   0  0  0  0  0  0
  -23.6265   -8.2247   22.0735 C   0  0  0  0  0  0
  -22.4246   -8.0278   21.3530 C   0  0  0  0  0  0
  -21.9875   -9.0250   20.4643 C   0  0  0  0  0  0
  -22.7196  -10.2128   20.3035 C   0  0  0  0  0  0
  -21.6858   -6.0718   22.5272 C   0  0  0  0  0  0
  -21.4023   -6.5621   23.8204 C   0  0  0  0  0  0
  -21.3664   -5.6777   24.9168 C   0  0  0  0  0  0
  -21.6042   -4.3038   24.7224 C   0  0  0  0  0  0
  -21.8823   -3.8128   23.4347 C   0  0  0  0  0  0
  -21.9202   -4.6946   22.3400 C   0  0  0  0  0  0
  -22.7862  -13.5249   21.1842 C   0  0  0  0  0  0
  -22.1665   -4.2131   21.0980 F   0  0  0  0  0  0
  -21.5624   -3.4528   25.7742 F   0  0  0  0  0  0
  -30.0303  -13.2795   20.4406 N   0  0  0  0  0  0
  -26.2999  -12.9278   20.3298 N   0  0  0  0  0  0
  -25.9280  -11.6445   20.5702 N   0  0  0  0  0  0
  -22.0496  -12.8260   22.0406 N   0  0  0  0  0  0
  -25.4285  -15.1852   20.4048 N   0  0  0  0  0  0
  -31.8197  -14.6531   20.1098 O   0  0  0  0  0  0
  -21.6622   -6.8865   21.4234 O   0  0  0  0  0  0
  -22.3561  -14.5574   20.6711 O   0  0  0  0  0  0
  -24.6152  -31.8681   23.2089 C   0  0  0  0  0  0
  -25.9051  -32.4815   23.8381 C   0  0  1  0  0  0
  -27.2374  -27.4376   20.0983 C   0  0  0  0  0  0
  -25.5920  -33.8609   24.2329 N   0  0  0  0  0  0
  -23.4011  -30.4908   21.5500 C   0  0  2  0  0  0
  -24.8476  -28.9561   20.1128 C   0  0  0  0  0  0
  -22.7407  -29.4659   22.4994 C   0  0  0  0  0  0
  -18.0280  -28.1374   22.8488 C   0  0  0  0  0  0
  -24.1491  -36.7301   23.2623 C   0  0  0  0  0  0
  -25.9289  -30.8344   21.3609 C   0  0  0  0  0  0
  -26.0060  -29.4692   20.7086 C   0  0  0  0  0  0
  -27.2024  -28.7177   20.6962 C   0  0  0  0  0  0
  -26.0628  -26.9434   19.4845 C   0  0  0  0  0  0
  -24.8709  -27.6930   19.4963 C   0  0  0  0  0  0
  -23.6075  -29.8201   20.1649 C   0  0  0  0  0  0
  -25.4096  -36.3096   24.0342 C   0  0  1  0  0  0
  -20.5863  -28.3665   23.1316 C   0  0  2  0  0  0
  -20.6767  -26.9399   22.5416 C   0  0  0  0  0  0
  -19.5746  -26.6382   21.5210 C   0  0  0  0  0  0
  -18.1923  -26.7930   22.1613 C   0  0  0  0  0  0
  -19.1523  -28.8838   23.2904 C   0  0  0  0  0  0
  -18.9455  -30.1439   23.8918 C   0  0  0  0  0  0
  -17.6450  -30.6582   24.0558 C   0  0  0  0  0  0
  -25.9033  -34.9470   23.5132 C   0  0  0  0  0  0
  -16.5348  -29.9077   23.6318 C   0  0  0  0  0  0
  -16.7263  -28.6493   23.0355 C   0  0  0  0  0  0
  -26.4487  -31.6584   25.0697 C   0  0  0  0  0  0
  -25.3756  -31.3707   26.1456 C   0  0  0  0  0  0
  -27.0292  -30.3018   24.6061 C   0  0  0  0  0  0
  -27.6082  -32.4280   25.7454 C   0  0  0  0  0  0
  -27.5605  -37.1761   24.8429 C   0  0  0  0  0  0
  -21.4137  -29.3033   22.3732 N   0  0  0  0  0  0
  -26.4268  -37.3796   23.9452 N   0  0  0  0  0  0
  -24.6660  -31.0788   22.0986 N   0  0  0  0  0  0
  -23.4185  -28.8196   23.3031 O   0  0  0  0  0  0
  -28.4179  -26.7211   20.1307 O   0  0  0  0  0  0
  -26.5584  -34.8927   22.4683 O   0  0  0  0  0  0
  -23.5347  -32.1439   23.7500 O   0  0  0  0  0  0
  -30.1412  -21.7902   19.1224 C   0  0  0  0  0  0
  -30.6134  -20.5960   19.6968 C   0  0  0  0  0  0
  -28.7648  -22.0849   19.1921 C   0  0  0  0  0  0
  -29.7063  -19.7285   20.3243 C   0  0  0  0  0  0
  -27.9246  -21.1600   19.8500 C   0  0  0  0  0  0
  -30.0236  -17.2478   22.8798 C   0  0  0  0  0  0
  -30.8394  -16.0122   22.5001 C   0  0  0  0  0  0
  -29.1530  -16.3267   20.8452 C   0  0  0  0  0  0
  -29.3180  -17.6589   21.5947 C   0  0  2  0  0  0
  -24.2848  -20.9521   20.4925 C   0  0  0  0  0  0
  -28.1946  -23.3112   18.4702 C   0  0  0  0  0  0
  -28.8052  -24.6872   18.8249 C   0  0  0  0  0  0
  -25.7372  -20.4853   20.6163 C   0  0  0  0  0  0
  -28.3440  -25.2865   20.1660 C   0  0  0  0  0  0
  -28.3888  -20.0138   20.4030 N   0  0  0  0  0  0
  -30.1165  -15.3649   21.4061 N   0  0  0  0  0  0
  -30.1823  -18.5454   20.8671 O   0  0  0  0  0  0
  -26.5685  -21.4064   19.9153 O   0  0  0  0  0  0
  -31.4661  -12.4160   19.1072 H   0  0  0  0  0  0
  -30.3289  -11.2939   19.7971 H   0  0  0  0  0  0
  -29.7376  -11.8051   17.4066 H   0  0  0  0  0  0
  -29.6518  -13.5067   17.7747 H   0  0  0  0  0  0
  -27.8359  -11.2990   18.8058 H   0  0  0  0  0  0
  -27.3628  -12.6287   17.7796 H   0  0  0  0  0  0
  -27.7025  -14.2380   19.5589 H   0  0  0  0  0  0
  -28.6758  -11.9268   21.3147 H   0  0  0  0  0  0
  -28.4467  -13.5533   21.8701 H   0  0  0  0  0  0
  -25.2730   -9.5702   22.4716 H   0  0  0  0  0  0
  -23.9994   -7.4642   22.7441 H   0  0  0  0  0  0
  -21.0797   -8.8763   19.8944 H   0  0  0  0  0  0
  -22.3652  -10.9653   19.6135 H   0  0  0  0  0  0
  -21.2008   -7.6125   23.9703 H   0  0  0  0  0  0
  -21.1478   -6.0498   25.9068 H   0  0  0  0  0  0
  -22.0597   -2.7585   23.2850 H   0  0  0  0  0  0
  -22.4092  -11.9938   22.4834 H   0  0  0  0  0  0
  -21.1114  -13.1307   22.2597 H   0  0  0  0  0  0
  -24.6546  -15.8324   20.5031 H   0  0  0  0  0  0
  -26.2699  -15.6243   20.0559 H   0  0  0  0  0  0
  -26.7115  -32.5532   23.1133 H   0  0  0  0  0  0
  -25.0130  -33.9777   25.0517 H   0  0  0  0  0  0
  -22.6891  -31.3072   21.4098 H   0  0  0  0  0  0
  -23.3786  -35.9593   23.3198 H   0  0  0  0  0  0
  -24.3635  -36.9002   22.2059 H   0  0  0  0  0  0
  -23.7189  -37.6457   23.6689 H   0  0  0  0  0  0
  -26.0401  -31.5998   20.5921 H   0  0  0  0  0  0
  -26.8178  -30.8893   21.9774 H   0  0  0  0  0  0
  -28.0968  -29.1071   21.1613 H   0  0  0  0  0  0
  -26.0569  -25.9833   18.9888 H   0  0  0  0  0  0
  -23.9816  -27.2960   19.0267 H   0  0  0  0  0  0
  -23.7096  -30.5909   19.4005 H   0  0  0  0  0  0
  -22.7326  -29.2351   19.8752 H   0  0  0  0  0  0
  -25.1247  -36.1943   25.0828 H   0  0  0  0  0  0
  -20.9966  -28.3238   24.1431 H   0  0  0  0  0  0
  -20.5670  -26.2265   23.3600 H   0  0  0  0  0  0
  -21.6640  -26.7455   22.1200 H   0  0  0  0  0  0
  -19.6906  -25.6297   21.1232 H   0  0  0  0  0  0
  -19.6676  -27.3192   20.6736 H   0  0  0  0  0  0
  -17.4193  -26.6688   21.4013 H   0  0  0  0  0  0
  -18.0312  -26.0064   22.8997 H   0  0  0  0  0  0
  -19.7933  -30.7253   24.2291 H   0  0  0  0  0  0
  -17.5010  -31.6269   24.5149 H   0  0  0  0  0  0
  -15.5346  -30.2984   23.7628 H   0  0  0  0  0  0
  -15.8666  -28.0803   22.7074 H   0  0  0  0  0  0
  -24.5916  -30.7066   25.7805 H   0  0  0  0  0  0
  -24.8965  -32.2873   26.4903 H   0  0  0  0  0  0
  -25.8112  -30.8873   27.0209 H   0  0  0  0  0  0
  -26.2812  -29.6786   24.1144 H   0  0  0  0  0  0
  -27.4101  -29.7247   25.4502 H   0  0  0  0  0  0
  -27.8636  -30.4332   23.9164 H   0  0  0  0  0  0
  -27.2731  -33.3586   26.2047 H   0  0  0  0  0  0
  -28.3880  -32.6827   25.0259 H   0  0  0  0  0  0
  -28.0753  -31.8378   26.5352 H   0  0  0  0  0  0
  -28.2492  -38.0186   24.7689 H   0  0  0  0  0  0
  -28.1234  -36.2747   24.5964 H   0  0  0  0  0  0
  -27.2374  -37.1054   25.8830 H   0  0  0  0  0  0
  -20.9301  -29.8753   21.6949 H   0  0  0  0  0  0
  -26.0154  -38.2843   24.1575 H   0  0  0  0  0  0
  -30.8242  -22.4544   18.6125 H   0  0  0  0  0  0
  -31.6636  -20.3415   19.6438 H   0  0  0  0  0  0
  -30.6274  -18.0450   23.3139 H   0  0  0  0  0  0
  -29.2754  -16.9659   23.6223 H   0  0  0  0  0  0
  -30.9539  -15.3338   23.3466 H   0  0  0  0  0  0
  -31.8378  -16.3072   22.1719 H   0  0  0  0  0  0
  -29.2588  -16.4558   19.7660 H   0  0  0  0  0  0
  -28.1500  -15.9441   21.0302 H   0  0  0  0  0  0
  -28.3462  -18.0834   21.8458 H   0  0  0  0  0  0
  -23.6161  -20.2930   21.0470 H   0  0  0  0  0  0
  -23.9634  -20.9539   19.4506 H   0  0  0  0  0  0
  -24.1596  -21.9613   20.8850 H   0  0  0  0  0  0
  -27.1122  -23.3621   18.5880 H   0  0  0  0  0  0
  -28.3505  -23.1372   17.4049 H   0  0  0  0  0  0
  -28.4947  -25.3777   18.0398 H   0  0  0  0  0  0
  -29.8949  -24.6673   18.7736 H   0  0  0  0  0  0
  -25.8323  -19.4811   20.2000 H   0  0  0  0  0  0
  -26.0269  -20.4438   21.6676 H   0  0  0  0  0  0
  -29.0016  -24.9302   20.9600 H   0  0  0  0  0  0
  -27.3544  -24.9229   20.4473 H   0  0  0  0  0  0
  1 25  1  0  0  0
  1 30  2  0  0  0
  1 86  1  0  0  0
  2  3  1  0  0  0
  2 25  1  0  0  0
  2 89  1  0  0  0
  2 90  1  0  0  0
  3  4  1  0  0  0
  3 91  1  0  0  0
  3 92  1  0  0  0
  4  5  1  0  0  0
  4 93  1  0  0  0
  4 94  1  0  0  0
  5  6  1  0  0  0
  5 26  1  0  0  0
  5 95  1  0  0  0
  6 25  1  0  0  0
  6 96  1  0  0  0
  6 97  1  0  0  0
  7  8  2  0  0  0
  7 26  1  0  0  0
  7 29  1  0  0  0
  8  9  1  0  0  0
  8 22  1  0  0  0
  9 10  1  0  0  0
  9 27  2  0  0  0
 10 11  2  0  0  0
 10 15  1  0  0  0
 11 12  1  0  0  0
 11 98  1  0  0  0
 12 13  2  0  0  0
 12 99  1  0  0  0
 13 14  1  0  0  0
 13 31  1  0  0  0
 14 15  2  0  0  0
 14100  1  0  0  0
 15101  1  0  0  0
 16 17  2  0  0  0
 16 21  1  0  0  0
 16 31  1  0  0  0
 17 18  1  0  0  0
 17102  1  0  0  0
 18 19  2  0  0  0
 18103  1  0  0  0
 19 20  1  0  0  0
 19 24  1  0  0  0
 20 21  2  0  0  0
 20104  1  0  0  0
 21 23  1  0  0  0
 22 28  1  0  0  0
 22 32  2  0  0  0
 26 27  1  0  0  0
 28105  1  0  0  0
 28106  1  0  0  0
 29107  1  0  0  0
 29108  1  0  0  0
 33 34  1  0  0  0
 33 66  1  0  0  0
 33 70  2  0  0  0
 34 36  1  0  0  0
 34 59  1  0  0  0
 34109  1  0  0  0
 35 44  2  0  0  0
 35 45  1  0  0  0
 35 68  1  0  0  0
 36 56  1  0  0  0
 36110  1  0  0  0
 37 39  1  0  0  0
 37 47  1  0  0  0
 37 66  1  0  0  0
 37111  1  0  0  0
 38 43  2  0  0  0
 38 46  1  0  0  0
 38 47  1  0  0  0
 39 64  1  0  0  0
 39 67  2  0  0  0
 40 52  1  0  0  0
 40 53  2  0  0  0
 40 58  1  0  0  0
 41112  1  0  0  0
 41113  1  0  0  0
 41114  1  0  0  0
 41 48  1  0  0  0
 42 43  1  0  0  0
 42 66  1  0  0  0
 42115  1  0  0  0
 42116  1  0  0  0
 43 44  1  0  0  0
 44117  1  0  0  0
 45 46  2  0  0  0
 45118  1  0  0  0
 46119  1  0  0  0
 47120  1  0  0  0
 47121  1  0  0  0
 48 56  1  0  0  0
 48 65  1  0  0  0
 48122  1  0  0  0
 49 50  1  0  0  0
 49 53  1  0  0  0
 49 64  1  0  0  0
 49123  1  0  0  0
 50 51  1  0  0  0
 50124  1  0  0  0
 50125  1  0  0  0
 51 52  1  0  0  0
 51126  1  0  0  0
 51127  1  0  0  0
 52128  1  0  0  0
 52129  1  0  0  0
 53 54  1  0  0  0
 54 55  2  0  0  0
 54130  1  0  0  0
 55 57  1  0  0  0
 55131  1  0  0  0
 56 69  2  0  0  0
 57 58  2  0  0  0
 57132  1  0  0  0
 58133  1  0  0  0
 59 60  1  0  0  0
 59 61  1  0  0  0
 59 62  1  0  0  0
 60134  1  0  0  0
 60135  1  0  0  0
 60136  1  0  0  0
 61137  1  0  0  0
 61138  1  0  0  0
 61139  1  0  0  0
 62140  1  0  0  0
 62141  1  0  0  0
 62142  1  0  0  0
 63 65  1  0  0  0
 63143  1  0  0  0
 63144  1  0  0  0
 63145  1  0  0  0
 64146  1  0  0  0
 65147  1  0  0  0
 68 84  1  0  0  0
 71 72  2  0  0  0
 71 73  1  0  0  0
 71148  1  0  0  0
 72 74  1  0  0  0
 72149  1  0  0  0
 73 75  2  0  0  0
 73 81  1  0  0  0
 74 85  2  0  0  0
 74 87  1  0  0  0
 75 85  1  0  0  0
 75 88  1  0  0  0
 76 77  1  0  0  0
 76 79  1  0  0  0
 76150  1  0  0  0
 76151  1  0  0  0
 77 86  1  0  0  0
 77152  1  0  0  0
 77153  1  0  0  0
 78 79  1  0  0  0
 78 86  1  0  0  0
 78154  1  0  0  0
 78155  1  0  0  0
 79 87  1  0  0  0
 79156  1  0  0  0
 80 83  1  0  0  0
 80157  1  0  0  0
 80158  1  0  0  0
 80159  1  0  0  0
 81 82  1  0  0  0
 81160  1  0  0  0
 81161  1  0  0  0
 82 84  1  0  0  0
 82162  1  0  0  0
 82163  1  0  0  0
 83 88  1  0  0  0
 83164  1  0  0  0
 83165  1  0  0  0
 84166  1  0  0  0
 84167  1  0  0  0
M  ISO  4   1 100  68 101  84 101  86 100
M  END
> <chiral flag>
0

> <version>
0

> <s_m_source_file>
/data/baiqing/PycharmProjects/Reinvent-master-3.2/result/LINK_invent/BTK/process_docking_weight1_custom_sum_contain_oxygen_bond_distance_aromatic_linkinvent_7_9_3/rearranged_h_0153.sdf

> <i_m_source_file_index>
31

> <r_mmod_Potential_Energy-OPLS-2005>
-42.4757232666016

> <r_mmod_Stretch_Energy-OPLS-2005>
37.120189666748

> <r_mmod_Bend_Energy-OPLS-2005>
134.044128417969

> <r_mmod_Torsional_Energy-OPLS-2005>
319.300201416016

> <r_mmod_Improper_Torsional_Energy-OPLS-2005>
5.24078130722046

> <r_mmod_Van_der_Waal_Energy-OPLS-2005>
161.305862426758

> <r_mmod_Electrostatic_Energy-OPLS-2005>
-512.50830078125

> <r_mmod_Solvation_Energy-OPLS-2005>
-198.365310668945

> <b_mmod_Minimization_Converged-OPLS-2005>
0

> <r_mmod_RMS_Derivative-OPLS-2005>
1.97535300254822

$$$$
31
                    3D
 Structure written by MMmdl.
167176  0  0  1  0            999 V2000
  -30.7190  -14.4649   20.5712 C   0  0  0  0  0  0
  -30.4156  -12.3066   19.4217 C   0  0  0  0  0  0
  -29.4918  -12.5081   18.2034 C   0  0  0  0  0  0
  -28.0132  -12.3662   18.6152 C   0  0  0  0  0  0
  -27.6581  -13.2071   19.8717 C   0  0  2  0  0  0
  -28.7013  -13.0039   20.9945 C   0  0  0  0  0  0
  -25.2578  -13.8148   20.5712 C   0  0  0  0  0  0
  -24.1828  -13.0421   20.9184 C   0  0  0  0  0  0
  -24.6388  -11.6890   20.8731 C   0  0  0  0  0  0
  -23.9056  -10.4278   21.0398 C   0  0  0  0  0  0
  -24.3611   -9.4195   21.9180 C   0  0  0  0  0  0
  -23.6285   -8.2236   22.0753 C   0  0  0  0  0  0
  -22.4262   -8.0271   21.3547 C   0  0  0  0  0  0
  -21.9896   -9.0239   20.4647 C   0  0  0  0  0  0
  -22.7230  -10.2118   20.3050 C   0  0  0  0  0  0
  -21.6843   -6.0730   22.5285 C   0  0  0  0  0  0
  -21.3999   -6.5642   23.8214 C   0  0  0  0  0  0
  -21.3660   -5.6792   24.9179 C   0  0  0  0  0  0
  -21.6048   -4.3057   24.7231 C   0  0  0  0  0  0
  -21.8822   -3.8140   23.4356 C   0  0  0  0  0  0
  -21.9194   -4.6957   22.3414 C   0  0  0  0  0  0
  -22.7856  -13.5229   21.1853 C   0  0  0  0  0  0
  -22.1663   -4.2147   21.0990 F   0  0  0  0  0  0
  -21.5634   -3.4539   25.7743 F   0  0  0  0  0  0
  -30.0318  -13.2986   20.4386 N   0  0  0  0  0  0
  -26.3008  -12.9327   20.3354 N   0  0  0  0  0  0
  -25.9316  -11.6485   20.5753 N   0  0  0  0  0  0
  -22.0492  -12.8216   22.0403 N   0  0  0  0  0  0
  -25.4296  -15.1871   20.4182 N   0  0  0  0  0  0
  -31.8412  -14.6348   20.0923 O   0  0  0  0  0  0
  -21.6631   -6.8862   21.4245 O   0  0  0  0  0  0
  -22.3562  -14.5550   20.6719 O   0  0  0  0  0  0
  -24.6183  -31.8686   23.2100 C   0  0  0  0  0  0
  -25.9069  -32.4822   23.8398 C   0  0  1  0  0  0
  -27.2242  -27.4065   20.0921 C   0  0  0  0  0  0
  -25.5920  -33.8617   24.2328 N   0  0  0  0  0  0
  -23.4061  -30.4943   21.5531 C   0  0  2  0  0  0
  -24.8491  -28.9646   20.1107 C   0  0  0  0  0  0
  -22.7434  -29.4657   22.4988 C   0  0  0  0  0  0
  -18.0271  -28.1381   22.8498 C   0  0  0  0  0  0
  -24.1473  -36.7289   23.2626 C   0  0  0  0  0  0
  -25.9405  -30.8239   21.3688 C   0  0  0  0  0  0
  -26.0132  -29.4586   20.7118 C   0  0  0  0  0  0
  -27.2029  -28.6877   20.6998 C   0  0  0  0  0  0
  -26.0389  -26.9495   19.4647 C   0  0  0  0  0  0
  -24.8587  -27.7107   19.4833 C   0  0  0  0  0  0
  -23.6133  -29.8338   20.1655 C   0  0  0  0  0  0
  -25.4093  -36.3107   24.0345 C   0  0  1  0  0  0
  -20.5870  -28.3660   23.1320 C   0  0  2  0  0  0
  -20.6757  -26.9392   22.5429 C   0  0  0  0  0  0
  -19.5738  -26.6379   21.5228 C   0  0  0  0  0  0
  -18.1911  -26.7934   22.1621 C   0  0  0  0  0  0
  -19.1526  -28.8840   23.2905 C   0  0  0  0  0  0
  -18.9452  -30.1451   23.8904 C   0  0  0  0  0  0
  -17.6450  -30.6584   24.0572 C   0  0  0  0  0  0
  -25.9046  -34.9479   23.5133 C   0  0  0  0  0  0
  -16.5342  -29.9087   23.6337 C   0  0  0  0  0  0
  -16.7262  -28.6508   23.0346 C   0  0  0  0  0  0
  -26.4475  -31.6599   25.0732 C   0  0  0  0  0  0
  -25.3731  -31.3741   26.1485 C   0  0  0  0  0  0
  -27.0266  -30.3021   24.6122 C   0  0  0  0  0  0
  -27.6081  -32.4290   25.7473 C   0  0  0  0  0  0
  -27.5604  -37.1757   24.8431 C   0  0  0  0  0  0
  -21.4158  -29.3027   22.3723 N   0  0  0  0  0  0
  -26.4256  -37.3823   23.9471 N   0  0  0  0  0  0
  -24.6734  -31.0763   22.1016 N   0  0  0  0  0  0
  -23.4210  -28.8197   23.3025 O   0  0  0  0  0  0
  -28.3762  -26.6320   20.1362 O   0  0  0  0  0  0
  -26.5608  -34.8938   22.4696 O   0  0  0  0  0  0
  -23.5369  -32.1451   23.7482 O   0  0  0  0  0  0
  -31.2187  -20.9929   22.4740 C   0  0  0  0  0  0
  -30.6384  -22.0955   21.8193 C   0  0  0  0  0  0
  -29.4019  -20.5646   20.3940 C   0  0  0  0  0  0
  -30.9005  -19.6723   22.0972 C   0  0  0  0  0  0
  -30.0115  -19.4370   21.0159 C   0  0  0  0  0  0
  -29.6997  -21.8981   20.7813 C   0  0  0  0  0  0
  -31.5113  -18.5285   22.8932 C   0  0  0  0  0  0
  -30.7254  -17.2210   22.7464 C   0  0  0  0  0  0
  -29.6904  -17.9953   20.5383 C   0  0  2  0  0  0
  -30.5399  -16.8838   21.2626 C   0  0  2  0  0  0
  -31.1226  -17.9554   18.4637 C   0  0  0  0  0  0
  -28.8851  -16.9129   18.4162 C   0  0  0  0  0  0
  -28.2320  -25.2166   19.8643 C   0  0  0  0  0  0
  -29.3263  -24.3053   20.4708 C   0  0  0  0  0  0
  -30.0386  -15.4969   21.1119 N   0  0  0  0  0  0
  -29.7590  -17.9302   19.0466 N   0  3  0  0  0  0
  -29.0492  -22.9329   20.1241 O   0  0  0  0  0  0
  -31.4618  -12.3905   19.1231 H   0  0  0  0  0  0
  -30.3026  -11.2977   19.8215 H   0  0  0  0  0  0
  -29.7355  -11.7850   17.4230 H   0  0  0  0  0  0
  -29.6604  -13.4948   17.7665 H   0  0  0  0  0  0
  -27.8249  -11.3098   18.8100 H   0  0  0  0  0  0
  -27.3626  -12.6382   17.7833 H   0  0  0  0  0  0
  -27.6941  -14.2533   19.5704 H   0  0  0  0  0  0
  -28.6757  -11.9737   21.3537 H   0  0  0  0  0  0
  -28.4657  -13.6210   21.8624 H   0  0  0  0  0  0
  -25.2759   -9.5674   22.4754 H   0  0  0  0  0  0
  -23.9995   -7.4624   22.7473 H   0  0  0  0  0  0
  -21.0827   -8.8752   19.8952 H   0  0  0  0  0  0
  -22.3689  -10.9649   19.6156 H   0  0  0  0  0  0
  -21.1965   -7.6149   23.9715 H   0  0  0  0  0  0
  -21.1490   -6.0524   25.9081 H   0  0  0  0  0  0
  -22.0599   -2.7599   23.2855 H   0  0  0  0  0  0
  -22.4069  -11.9841   22.4754 H   0  0  0  0  0  0
  -21.1109  -13.1241   22.2602 H   0  0  0  0  0  0
  -24.6650  -15.8401   20.5515 H   0  0  0  0  0  0
  -26.2829  -15.6338   20.1157 H   0  0  0  0  0  0
  -26.7147  -32.5526   23.1161 H   0  0  0  0  0  0
  -25.0063  -33.9763   25.0469 H   0  0  0  0  0  0
  -22.6967  -31.3132   21.4174 H   0  0  0  0  0  0
  -23.3798  -35.9548   23.3177 H   0  0  0  0  0  0
  -24.3607  -36.9022   22.2066 H   0  0  0  0  0  0
  -23.7115  -37.6416   23.6702 H   0  0  0  0  0  0
  -26.0597  -31.5893   20.6006 H   0  0  0  0  0  0
  -26.8271  -30.8733   21.9898 H   0  0  0  0  0  0
  -28.0986  -29.0625   21.1755 H   0  0  0  0  0  0
  -25.9955  -26.0011   18.9508 H   0  0  0  0  0  0
  -23.9673  -27.3300   19.0034 H   0  0  0  0  0  0
  -23.7217  -30.6124   19.4096 H   0  0  0  0  0  0
  -22.7365  -29.2553   19.8692 H   0  0  0  0  0  0
  -25.1248  -36.1943   25.0831 H   0  0  0  0  0  0
  -20.9960  -28.3217   24.1440 H   0  0  0  0  0  0
  -20.5663  -26.2265   23.3620 H   0  0  0  0  0  0
  -21.6625  -26.7436   22.1203 H   0  0  0  0  0  0
  -19.6887  -25.6298   21.1234 H   0  0  0  0  0  0
  -19.6685  -27.3211   20.6780 H   0  0  0  0  0  0
  -17.4195  -26.6723   21.4002 H   0  0  0  0  0  0
  -18.0276  -26.0069   22.8999 H   0  0  0  0  0  0
  -19.7927  -30.7274   24.2261 H   0  0  0  0  0  0
  -17.5006  -31.6269   24.5168 H   0  0  0  0  0  0
  -15.5340  -30.2990   23.7658 H   0  0  0  0  0  0
  -15.8662  -28.0842   22.7036 H   0  0  0  0  0  0
  -24.5855  -30.7150   25.7810 H   0  0  0  0  0  0
  -24.8985  -32.2918   26.4975 H   0  0  0  0  0  0
  -25.8050  -30.8845   27.0221 H   0  0  0  0  0  0
  -26.2794  -29.6800   24.1180 H   0  0  0  0  0  0
  -27.4017  -29.7240   25.4574 H   0  0  0  0  0  0
  -27.8655  -30.4303   23.9279 H   0  0  0  0  0  0
  -27.2758  -33.3621   26.2032 H   0  0  0  0  0  0
  -28.3900  -32.6785   25.0285 H   0  0  0  0  0  0
  -28.0737  -31.8414   26.5395 H   0  0  0  0  0  0
  -28.2486  -38.0189   24.7720 H   0  0  0  0  0  0
  -28.1236  -36.2754   24.5924 H   0  0  0  0  0  0
  -27.2387  -37.0990   25.8833 H   0  0  0  0  0  0
  -20.9312  -29.8772   21.6972 H   0  0  0  0  0  0
  -26.0135  -38.2859   24.1648 H   0  0  0  0  0  0
  -31.9117  -21.1689   23.2860 H   0  0  0  0  0  0
  -30.9214  -23.0832   22.1530 H   0  0  0  0  0  0
  -28.6817  -20.4195   19.6015 H   0  0  0  0  0  0
  -31.5586  -18.8036   23.9485 H   0  0  0  0  0  0
  -32.5423  -18.3886   22.5642 H   0  0  0  0  0  0
  -29.7537  -17.3129   23.2344 H   0  0  0  0  0  0
  -31.2606  -16.4219   23.2614 H   0  0  0  0  0  0
  -28.6484  -17.8494   20.8292 H   0  0  0  0  0  0
  -31.5501  -16.9323   20.8576 H   0  0  0  0  0  0
  -31.7343  -18.7403   18.9095 H   0  0  0  0  0  0
  -31.0732  -18.1518   17.3928 H   0  0  0  0  0  0
  -31.6392  -17.0049   18.5919 H   0  0  0  0  0  0
  -27.8712  -16.9549   18.8140 H   0  0  0  0  0  0
  -29.2673  -15.9039   18.5519 H   0  0  0  0  0  0
  -28.8166  -17.0871   17.3422 H   0  0  0  0  0  0
  -27.2924  -24.8480   20.2780 H   0  0  0  0  0  0
  -28.1924  -25.0684   18.7842 H   0  0  0  0  0  0
  -29.3224  -24.4468   21.5516 H   0  0  0  0  0  0
  -30.3107  -24.5876   20.0963 H   0  0  0  0  0  0
  -29.1170  -15.2891   21.4663 H   0  0  0  0  0  0
  -29.3506  -18.8083   18.7666 H   0  0  0  0  0  0
  1 25  1  0  0  0
  1 30  2  0  0  0
  1 85  1  0  0  0
  2  3  1  0  0  0
  2 25  1  0  0  0
  2 88  1  0  0  0
  2 89  1  0  0  0
  3  4  1  0  0  0
  3 90  1  0  0  0
  3 91  1  0  0  0
  4  5  1  0  0  0
  4 92  1  0  0  0
  4 93  1  0  0  0
  5  6  1  0  0  0
  5 26  1  0  0  0
  5 94  1  0  0  0
  6 25  1  0  0  0
  6 95  1  0  0  0
  6 96  1  0  0  0
  7  8  2  0  0  0
  7 26  1  0  0  0
  7 29  1  0  0  0
  8  9  1  0  0  0
  8 22  1  0  0  0
  9 10  1  0  0  0
  9 27  2  0  0  0
 10 11  2  0  0  0
 10 15  1  0  0  0
 11 12  1  0  0  0
 11 97  1  0  0  0
 12 13  2  0  0  0
 12 98  1  0  0  0
 13 14  1  0  0  0
 13 31  1  0  0  0
 14 15  2  0  0  0
 14 99  1  0  0  0
 15100  1  0  0  0
 16 17  2  0  0  0
 16 21  1  0  0  0
 16 31  1  0  0  0
 17 18  1  0  0  0
 17101  1  0  0  0
 18 19  2  0  0  0
 18102  1  0  0  0
 19 20  1  0  0  0
 19 24  1  0  0  0
 20 21  2  0  0  0
 20103  1  0  0  0
 21 23  1  0  0  0
 22 28  1  0  0  0
 22 32  2  0  0  0
 26 27  1  0  0  0
 28104  1  0  0  0
 28105  1  0  0  0
 29106  1  0  0  0
 29107  1  0  0  0
 33 34  1  0  0  0
 33 66  1  0  0  0
 33 70  2  0  0  0
 34 36  1  0  0  0
 34 59  1  0  0  0
 34108  1  0  0  0
 35 44  2  0  0  0
 35 45  1  0  0  0
 35 68  1  0  0  0
 36 56  1  0  0  0
 36109  1  0  0  0
 37 39  1  0  0  0
 37 47  1  0  0  0
 37 66  1  0  0  0
 37110  1  0  0  0
 38 43  2  0  0  0
 38 46  1  0  0  0
 38 47  1  0  0  0
 39 64  1  0  0  0
 39 67  2  0  0  0
 40 52  1  0  0  0
 40 53  2  0  0  0
 40 58  1  0  0  0
 41111  1  0  0  0
 41112  1  0  0  0
 41113  1  0  0  0
 41 48  1  0  0  0
 42 43  1  0  0  0
 42 66  1  0  0  0
 42114  1  0  0  0
 42115  1  0  0  0
 43 44  1  0  0  0
 44116  1  0  0  0
 45 46  2  0  0  0
 45117  1  0  0  0
 46118  1  0  0  0
 47119  1  0  0  0
 47120  1  0  0  0
 48 56  1  0  0  0
 48 65  1  0  0  0
 48121  1  0  0  0
 49 50  1  0  0  0
 49 53  1  0  0  0
 49 64  1  0  0  0
 49122  1  0  0  0
 50 51  1  0  0  0
 50123  1  0  0  0
 50124  1  0  0  0
 51 52  1  0  0  0
 51125  1  0  0  0
 51126  1  0  0  0
 52127  1  0  0  0
 52128  1  0  0  0
 53 54  1  0  0  0
 54 55  2  0  0  0
 54129  1  0  0  0
 55 57  1  0  0  0
 55130  1  0  0  0
 56 69  2  0  0  0
 57 58  2  0  0  0
 57131  1  0  0  0
 58132  1  0  0  0
 59 60  1  0  0  0
 59 61  1  0  0  0
 59 62  1  0  0  0
 60133  1  0  0  0
 60134  1  0  0  0
 60135  1  0  0  0
 61136  1  0  0  0
 61137  1  0  0  0
 61138  1  0  0  0
 62139  1  0  0  0
 62140  1  0  0  0
 62141  1  0  0  0
 63 65  1  0  0  0
 63142  1  0  0  0
 63143  1  0  0  0
 63144  1  0  0  0
 64145  1  0  0  0
 65146  1  0  0  0
 68 83  1  0  0  0
 71 72  2  0  0  0
 71 74  1  0  0  0
 71147  1  0  0  0
 72 76  1  0  0  0
 72148  1  0  0  0
 73 75  1  0  0  0
 73 76  2  0  0  0
 73149  1  0  0  0
 74 75  2  0  0  0
 74 77  1  0  0  0
 75 79  1  0  0  0
 76 87  1  0  0  0
 77 78  1  0  0  0
 77150  1  0  0  0
 77151  1  0  0  0
 78 80  1  0  0  0
 78152  1  0  0  0
 78153  1  0  0  0
 79 80  1  0  0  0
 79 86  1  0  0  0
 79154  1  0  0  0
 80 85  1  0  0  0
 80155  1  0  0  0
 81156  1  0  0  0
 81157  1  0  0  0
 81158  1  0  0  0
 81 86  1  0  0  0
 82 86  1  0  0  0
 82159  1  0  0  0
 82160  1  0  0  0
 82161  1  0  0  0
 83 84  1  0  0  0
 83162  1  0  0  0
 83163  1  0  0  0
 84 87  1  0  0  0
 84164  1  0  0  0
 84165  1  0  0  0
 85166  1  0  0  0
 86167  1  0  0  0
M  CHG  1  86   1
M  ISO  4   1 100  68 101  83 101  85 100
M  END
> <chiral flag>
0

> <version>
0

> <s_m_source_file>
/data/baiqing/PycharmProjects/Reinvent-master-3.2/result/LINK_invent/BTK/process_docking_weight1_custom_sum_contain_oxygen_bond_distance_aromatic_linkinvent_7_9_3/rearranged_h_0153.sdf

> <i_m_source_file_index>
32

> <r_mmod_Potential_Energy-OPLS-2005>
-187.281372070312

> <r_mmod_Stretch_Energy-OPLS-2005>
47.477596282959

> <r_mmod_Bend_Energy-OPLS-2005>
116.509658813477

> <r_mmod_Torsional_Energy-OPLS-2005>
234.03466796875

> <r_mmod_Improper_Torsional_Energy-OPLS-2005>
3.48297953605652

> <r_mmod_Van_der_Waal_Energy-OPLS-2005>
159.382888793945

> <r_mmod_Electrostatic_Energy-OPLS-2005>
-324.939331054688

> <r_mmod_Solvation_Energy-OPLS-2005>
-439.529815673828

> <b_mmod_Minimization_Converged-OPLS-2005>
0

> <r_mmod_RMS_Derivative-OPLS-2005>
1.51403093338013

$$$$
32
                    3D
 Structure written by MMmdl.
164173  0  0  1  0            999 V2000
  -30.7259  -14.7042   20.4755 C   0  0  0  0  0  0
  -30.4050  -12.4505   19.4573 C   0  0  0  0  0  0
  -29.4884  -12.4971   18.2212 C   0  0  0  0  0  0
  -28.0190  -12.3313   18.6465 C   0  0  0  0  0  0
  -27.6346  -13.2396   19.8463 C   0  0  2  0  0  0
  -28.6916  -13.1988   20.9728 C   0  0  0  0  0  0
  -25.2477  -13.8220   20.5722 C   0  0  0  0  0  0
  -24.1781  -13.0450   20.9226 C   0  0  0  0  0  0
  -24.6388  -11.6932   20.8774 C   0  0  0  0  0  0
  -23.9070  -10.4300   21.0417 C   0  0  0  0  0  0
  -24.3619   -9.4210   21.9190 C   0  0  0  0  0  0
  -23.6296   -8.2242   22.0754 C   0  0  0  0  0  0
  -22.4277   -8.0282   21.3542 C   0  0  0  0  0  0
  -21.9913   -9.0258   20.4648 C   0  0  0  0  0  0
  -22.7243  -10.2139   20.3064 C   0  0  0  0  0  0
  -21.6854   -6.0734   22.5278 C   0  0  0  0  0  0
  -21.4014   -6.5640   23.8212 C   0  0  0  0  0  0
  -21.3660   -5.6793   24.9175 C   0  0  0  0  0  0
  -21.6044   -4.3055   24.7225 C   0  0  0  0  0  0
  -21.8818   -3.8145   23.4347 C   0  0  0  0  0  0
  -21.9191   -4.6962   22.3403 C   0  0  0  0  0  0
  -22.7801  -13.5224   21.1871 C   0  0  0  0  0  0
  -22.1661   -4.2147   21.0979 F   0  0  0  0  0  0
  -21.5629   -3.4538   25.7738 F   0  0  0  0  0  0
  -29.9746  -13.5523   20.3557 N   0  0  0  0  0  0
  -26.2916  -12.9448   20.3333 N   0  0  0  0  0  0
  -25.9326  -11.6581   20.5800 N   0  0  0  0  0  0
  -22.0451  -12.8217   22.0432 N   0  0  0  0  0  0
  -25.4135  -15.1942   20.4109 N   0  0  0  0  0  0
  -31.9336  -14.6055   20.2406 O   0  0  0  0  0  0
  -21.6641   -6.8878   21.4240 O   0  0  0  0  0  0
  -22.3484  -14.5525   20.6713 O   0  0  0  0  0  0
  -24.6321  -31.8589   23.2056 C   0  0  0  0  0  0
  -25.9156  -32.4769   23.8381 C   0  0  1  0  0  0
  -27.1957  -27.2622   20.1080 C   0  0  0  0  0  0
  -25.5960  -33.8573   24.2291 N   0  0  0  0  0  0
  -23.4272  -30.4902   21.5497 C   0  0  2  0  0  0
  -24.8691  -28.9570   20.1060 C   0  0  0  0  0  0
  -22.7510  -29.4626   22.4906 C   0  0  0  0  0  0
  -18.0296  -28.1389   22.8477 C   0  0  0  0  0  0
  -24.1493  -36.7287   23.2638 C   0  0  0  0  0  0
  -25.9790  -30.7680   21.3936 C   0  0  0  0  0  0
  -26.0456  -29.3966   20.7264 C   0  0  0  0  0  0
  -27.2117  -28.5596   20.7266 C   0  0  0  0  0  0
  -25.9970  -26.9249   19.4265 C   0  0  0  0  0  0
  -24.8506  -27.7276   19.4459 C   0  0  0  0  0  0
  -23.6443  -29.8443   20.1602 C   0  0  0  0  0  0
  -25.4117  -36.3075   24.0328 C   0  0  1  0  0  0
  -20.5901  -28.3703   23.1256 C   0  0  2  0  0  0
  -20.6784  -26.9420   22.5400 C   0  0  0  0  0  0
  -19.5759  -26.6382   21.5207 C   0  0  0  0  0  0
  -18.1939  -26.7930   22.1617 C   0  0  0  0  0  0
  -19.1549  -28.8861   23.2864 C   0  0  0  0  0  0
  -18.9467  -30.1459   23.8886 C   0  0  0  0  0  0
  -17.6466  -30.6587   24.0558 C   0  0  0  0  0  0
  -25.9061  -34.9445   23.5103 C   0  0  0  0  0  0
  -16.5357  -29.9082   23.6330 C   0  0  0  0  0  0
  -16.7281  -28.6501   23.0351 C   0  0  0  0  0  0
  -26.4510  -31.6584   25.0767 C   0  0  0  0  0  0
  -25.3720  -31.3750   26.1478 C   0  0  0  0  0  0
  -27.0347  -30.2983   24.6285 C   0  0  0  0  0  0
  -27.6066  -32.4318   25.7539 C   0  0  0  0  0  0
  -27.5582  -37.1801   24.8460 C   0  0  0  0  0  0
  -21.4217  -29.3055   22.3648 N   0  0  0  0  0  0
  -26.4291  -37.3772   23.9408 N   0  0  0  0  0  0
  -24.6985  -31.0559   22.1047 N   0  0  0  0  0  0
  -23.4214  -28.8138   23.2980 O   0  0  0  0  0  0
  -28.2428  -26.3024   20.1923 O   0  0  0  0  0  0
  -26.5617  -34.8910   22.4662 O   0  0  0  0  0  0
  -23.5469  -32.1419   23.7342 O   0  0  0  0  0  0
  -28.9581  -21.1822   19.2960 C   0  0  0  0  0  0
  -28.6275  -22.5535   19.0832 C   0  0  0  0  0  0
  -29.2736  -20.6645   20.5775 C   0  0  0  0  0  0
  -28.5846  -23.5262   20.1227 C   0  0  0  0  0  0
  -28.9328  -23.0310   21.4141 C   0  0  0  0  0  0
  -29.2605  -21.6383   21.6314 C   0  0  0  0  0  0
  -28.5582  -18.0536   20.9259 C   0  0  0  0  0  0
  -30.5721  -18.5244   19.7027 C   0  0  0  0  0  0
  -29.0237  -16.5525   21.2107 C   0  0  0  0  0  0
  -31.1265  -17.0998   20.0378 C   0  0  0  0  0  0
  -29.6798  -19.1335   20.8002 C   0  0  0  0  0  0
  -28.9059  -23.9989   22.5867 C   0  0  0  0  0  0
  -28.4508  -20.8791   23.6888 C   0  0  0  0  0  0
  -27.8446  -24.9010   19.8212 C   0  0  0  0  0  0
  -30.1800  -16.0023   20.4378 N   0  0  0  0  0  0
  -29.5810  -21.2218   22.8976 O   0  0  0  0  0  0
  -31.4463  -12.5275   19.1407 H   0  0  0  0  0  0
  -30.3259  -11.4864   19.9625 H   0  0  0  0  0  0
  -29.7644  -11.7136   17.5141 H   0  0  0  0  0  0
  -29.6179  -13.4460   17.6981 H   0  0  0  0  0  0
  -27.8745  -11.2843   18.9148 H   0  0  0  0  0  0
  -27.3560  -12.5207   17.8014 H   0  0  0  0  0  0
  -27.6197  -14.2556   19.4516 H   0  0  0  0  0  0
  -28.7407  -12.2053   21.4204 H   0  0  0  0  0  0
  -28.4414  -13.8760   21.7881 H   0  0  0  0  0  0
  -25.2762   -9.5688   22.4769 H   0  0  0  0  0  0
  -24.0006   -7.4631   22.7470 H   0  0  0  0  0  0
  -21.0844   -8.8779   19.8955 H   0  0  0  0  0  0
  -22.3699  -10.9679   19.6178 H   0  0  0  0  0  0
  -21.2010   -7.6149   23.9718 H   0  0  0  0  0  0
  -21.1485   -6.0521   25.9077 H   0  0  0  0  0  0
  -22.0596   -2.7608   23.2845 H   0  0  0  0  0  0
  -22.4072  -11.9883   22.4826 H   0  0  0  0  0  0
  -21.1072  -13.1240   22.2645 H   0  0  0  0  0  0
  -24.6441  -15.8455   20.5193 H   0  0  0  0  0  0
  -26.2628  -15.6357   20.0836 H   0  0  0  0  0  0
  -26.7222  -32.5407   23.1121 H   0  0  0  0  0  0
  -25.0114  -33.9725   25.0439 H   0  0  0  0  0  0
  -22.7235  -31.3139   21.4137 H   0  0  0  0  0  0
  -23.3757  -35.9616   23.3290 H   0  0  0  0  0  0
  -24.3587  -36.8916   22.2054 H   0  0  0  0  0  0
  -23.7241  -37.6486   23.6662 H   0  0  0  0  0  0
  -26.1295  -31.5334   20.6310 H   0  0  0  0  0  0
  -26.8526  -30.8043   22.0325 H   0  0  0  0  0  0
  -28.1025  -28.8832   21.2462 H   0  0  0  0  0  0
  -25.8745  -26.0087   18.8714 H   0  0  0  0  0  0
  -23.9563  -27.3931   18.9376 H   0  0  0  0  0  0
  -23.7737  -30.6304   19.4154 H   0  0  0  0  0  0
  -22.7608  -29.2857   19.8463 H   0  0  0  0  0  0
  -25.1296  -36.1928   25.0821 H   0  0  0  0  0  0
  -20.9996  -28.3280   24.1375 H   0  0  0  0  0  0
  -20.5680  -26.2318   23.3608 H   0  0  0  0  0  0
  -21.6652  -26.7441   22.1197 H   0  0  0  0  0  0
  -19.6921  -25.6289   21.1247 H   0  0  0  0  0  0
  -19.6698  -27.3180   20.6727 H   0  0  0  0  0  0
  -17.4210  -26.6673   21.4019 H   0  0  0  0  0  0
  -18.0340  -26.0074   22.9018 H   0  0  0  0  0  0
  -19.7944  -30.7273   24.2257 H   0  0  0  0  0  0
  -17.5022  -31.6267   24.5160 H   0  0  0  0  0  0
  -15.5357  -30.2976   23.7668 H   0  0  0  0  0  0
  -15.8683  -28.0817   22.7067 H   0  0  0  0  0  0
  -24.5912  -30.7077   25.7810 H   0  0  0  0  0  0
  -24.8892  -32.2923   26.4857 H   0  0  0  0  0  0
  -25.8027  -30.8966   27.0284 H   0  0  0  0  0  0
  -26.2943  -29.6734   24.1278 H   0  0  0  0  0  0
  -27.3959  -29.7247   25.4832 H   0  0  0  0  0  0
  -27.8860  -30.4223   23.9587 H   0  0  0  0  0  0
  -27.2680  -33.3624   26.2107 H   0  0  0  0  0  0
  -28.3887  -32.6866   25.0375 H   0  0  0  0  0  0
  -28.0723  -31.8447   26.5465 H   0  0  0  0  0  0
  -28.2588  -38.0108   24.7510 H   0  0  0  0  0  0
  -28.1089  -36.2638   24.6276 H   0  0  0  0  0  0
  -27.2305  -37.1440   25.8864 H   0  0  0  0  0  0
  -20.9395  -29.8810   21.6886 H   0  0  0  0  0  0
  -26.0169  -38.2848   24.1402 H   0  0  0  0  0  0
  -28.9458  -20.5152   18.4462 H   0  0  0  0  0  0
  -28.3359  -22.8455   18.0838 H   0  0  0  0  0  0
  -27.8614  -18.3490   21.7092 H   0  0  0  0  0  0
  -27.9698  -18.0630   20.0074 H   0  0  0  0  0  0
  -30.0278  -18.4794   18.7586 H   0  0  0  0  0  0
  -31.4183  -19.1893   19.5248 H   0  0  0  0  0  0
  -28.1557  -15.9163   21.0593 H   0  0  0  0  0  0
  -29.2798  -16.4633   22.2672 H   0  0  0  0  0  0
  -31.8592  -17.2046   20.8401 H   0  0  0  0  0  0
  -31.6924  -16.7866   19.1579 H   0  0  0  0  0  0
  -30.2558  -19.1094   21.7259 H   0  0  0  0  0  0
  -29.2686  -24.9818   22.2864 H   0  0  0  0  0  0
  -29.5398  -23.6630   23.4072 H   0  0  0  0  0  0
  -27.8890  -24.1114   22.9624 H   0  0  0  0  0  0
  -28.7801  -20.5709   24.6810 H   0  0  0  0  0  0
  -27.8936  -20.0513   23.2518 H   0  0  0  0  0  0
  -27.7689  -21.7210   23.8117 H   0  0  0  0  0  0
  -26.8735  -24.7046   20.2785 H   0  0  0  0  0  0
  -27.6946  -24.9129   18.7410 H   0  0  0  0  0  0
  1 25  1  0  0  0
  1 30  2  0  0  0
  1 85  1  0  0  0
  2  3  1  0  0  0
  2 25  1  0  0  0
  2 87  1  0  0  0
  2 88  1  0  0  0
  3  4  1  0  0  0
  3 89  1  0  0  0
  3 90  1  0  0  0
  4  5  1  0  0  0
  4 91  1  0  0  0
  4 92  1  0  0  0
  5  6  1  0  0  0
  5 26  1  0  0  0
  5 93  1  0  0  0
  6 25  1  0  0  0
  6 94  1  0  0  0
  6 95  1  0  0  0
  7  8  2  0  0  0
  7 26  1  0  0  0
  7 29  1  0  0  0
  8  9  1  0  0  0
  8 22  1  0  0  0
  9 10  1  0  0  0
  9 27  2  0  0  0
 10 11  2  0  0  0
 10 15  1  0  0  0
 11 12  1  0  0  0
 11 96  1  0  0  0
 12 13  2  0  0  0
 12 97  1  0  0  0
 13 14  1  0  0  0
 13 31  1  0  0  0
 14 15  2  0  0  0
 14 98  1  0  0  0
 15 99  1  0  0  0
 16 17  2  0  0  0
 16 21  1  0  0  0
 16 31  1  0  0  0
 17 18  1  0  0  0
 17100  1  0  0  0
 18 19  2  0  0  0
 18101  1  0  0  0
 19 20  1  0  0  0
 19 24  1  0  0  0
 20 21  2  0  0  0
 20102  1  0  0  0
 21 23  1  0  0  0
 22 28  1  0  0  0
 22 32  2  0  0  0
 26 27  1  0  0  0
 28103  1  0  0  0
 28104  1  0  0  0
 29105  1  0  0  0
 29106  1  0  0  0
 33 34  1  0  0  0
 33 66  1  0  0  0
 33 70  2  0  0  0
 34 36  1  0  0  0
 34 59  1  0  0  0
 34107  1  0  0  0
 35 44  2  0  0  0
 35 45  1  0  0  0
 35 68  1  0  0  0
 36 56  1  0  0  0
 36108  1  0  0  0
 37 39  1  0  0  0
 37 47  1  0  0  0
 37 66  1  0  0  0
 37109  1  0  0  0
 38 43  2  0  0  0
 38 46  1  0  0  0
 38 47  1  0  0  0
 39 64  1  0  0  0
 39 67  2  0  0  0
 40 52  1  0  0  0
 40 53  2  0  0  0
 40 58  1  0  0  0
 41110  1  0  0  0
 41111  1  0  0  0
 41112  1  0  0  0
 41 48  1  0  0  0
 42 43  1  0  0  0
 42 66  1  0  0  0
 42113  1  0  0  0
 42114  1  0  0  0
 43 44  1  0  0  0
 44115  1  0  0  0
 45 46  2  0  0  0
 45116  1  0  0  0
 46117  1  0  0  0
 47118  1  0  0  0
 47119  1  0  0  0
 48 56  1  0  0  0
 48 65  1  0  0  0
 48120  1  0  0  0
 49 50  1  0  0  0
 49 53  1  0  0  0
 49 64  1  0  0  0
 49121  1  0  0  0
 50 51  1  0  0  0
 50122  1  0  0  0
 50123  1  0  0  0
 51 52  1  0  0  0
 51124  1  0  0  0
 51125  1  0  0  0
 52126  1  0  0  0
 52127  1  0  0  0
 53 54  1  0  0  0
 54 55  2  0  0  0
 54128  1  0  0  0
 55 57  1  0  0  0
 55129  1  0  0  0
 56 69  2  0  0  0
 57 58  2  0  0  0
 57130  1  0  0  0
 58131  1  0  0  0
 59 60  1  0  0  0
 59 61  1  0  0  0
 59 62  1  0  0  0
 60132  1  0  0  0
 60133  1  0  0  0
 60134  1  0  0  0
 61135  1  0  0  0
 61136  1  0  0  0
 61137  1  0  0  0
 62138  1  0  0  0
 62139  1  0  0  0
 62140  1  0  0  0
 63 65  1  0  0  0
 63141  1  0  0  0
 63142  1  0  0  0
 63143  1  0  0  0
 64144  1  0  0  0
 65145  1  0  0  0
 68 84  1  0  0  0
 71 72  2  0  0  0
 71 73  1  0  0  0
 71146  1  0  0  0
 72 74  1  0  0  0
 72147  1  0  0  0
 73 76  2  0  0  0
 73 81  1  0  0  0
 74 75  2  0  0  0
 74 84  1  0  0  0
 75 76  1  0  0  0
 75 82  1  0  0  0
 76 86  1  0  0  0
 77 79  1  0  0  0
 77 81  1  0  0  0
 77148  1  0  0  0
 77149  1  0  0  0
 78 80  1  0  0  0
 78 81  1  0  0  0
 78150  1  0  0  0
 78151  1  0  0  0
 79 85  1  0  0  0
 79152  1  0  0  0
 79153  1  0  0  0
 80 85  1  0  0  0
 80154  1  0  0  0
 80155  1  0  0  0
 81156  1  0  0  0
 82157  1  0  0  0
 82158  1  0  0  0
 82159  1  0  0  0
 83 86  1  0  0  0
 83160  1  0  0  0
 83161  1  0  0  0
 83162  1  0  0  0
 84163  1  0  0  0
 84164  1  0  0  0
M  ISO  4   1 100  68 101  84 101  85 100
M  END
> <chiral flag>
0

> <version>
0

> <s_m_source_file>
/data/baiqing/PycharmProjects/Reinvent-master-3.2/result/LINK_invent/BTK/process_docking_weight1_custom_sum_contain_oxygen_bond_distance_aromatic_linkinvent_7_9_3/rearranged_h_0153.sdf

> <i_m_source_file_index>
33

> <r_mmod_Potential_Energy-OPLS-2005>
457.324249267578

> <r_mmod_Stretch_Energy-OPLS-2005>
114.402847290039

> <r_mmod_Bend_Energy-OPLS-2005>
213.693969726562

> <r_mmod_Torsional_Energy-OPLS-2005>
345.720367431641

> <r_mmod_Improper_Torsional_Energy-OPLS-2005>
16.2226524353027

> <r_mmod_Van_der_Waal_Energy-OPLS-2005>
166.404602050781

> <r_mmod_Electrostatic_Energy-OPLS-2005>
-292.930603027344

> <r_mmod_Solvation_Energy-OPLS-2005>
-201.214920043945

> <b_mmod_Minimization_Converged-OPLS-2005>
0

> <r_mmod_RMS_Derivative-OPLS-2005>
0.595593273639679

$$$$
33
                    3D
 Structure written by MMmdl.
172181  0  0  1  0            999 V2000
  -30.6722  -14.5621   20.5209 C   0  0  0  0  0  0
  -30.4225  -12.3507   19.4402 C   0  0  0  0  0  0
  -29.4984  -12.5029   18.2145 C   0  0  0  0  0  0
  -28.0211  -12.3514   18.6276 C   0  0  0  0  0  0
  -27.6526  -13.2164   19.8632 C   0  0  2  0  0  0
  -28.6962  -13.0592   20.9915 C   0  0  0  0  0  0
  -25.2554  -13.8176   20.5679 C   0  0  0  0  0  0
  -24.1821  -13.0437   20.9181 C   0  0  0  0  0  0
  -24.6389  -11.6910   20.8730 C   0  0  0  0  0  0
  -23.9058  -10.4292   21.0398 C   0  0  0  0  0  0
  -24.3614   -9.4210   21.9176 C   0  0  0  0  0  0
  -23.6292   -8.2246   22.0750 C   0  0  0  0  0  0
  -22.4273   -8.0283   21.3547 C   0  0  0  0  0  0
  -21.9906   -9.0256   20.4646 C   0  0  0  0  0  0
  -22.7232  -10.2136   20.3047 C   0  0  0  0  0  0
  -21.6859   -6.0732   22.5280 C   0  0  0  0  0  0
  -21.4020   -6.5634   23.8215 C   0  0  0  0  0  0
  -21.3656   -5.6789   24.9177 C   0  0  0  0  0  0
  -21.6041   -4.3051   24.7230 C   0  0  0  0  0  0
  -21.8820   -3.8144   23.4350 C   0  0  0  0  0  0
  -21.9195   -4.6959   22.3406 C   0  0  0  0  0  0
  -22.7841  -13.5229   21.1847 C   0  0  0  0  0  0
  -22.1663   -4.2144   21.0983 F   0  0  0  0  0  0
  -21.5624   -3.4536   25.7742 F   0  0  0  0  0  0
  -30.0152  -13.3704   20.4233 N   0  0  0  0  0  0
  -26.2984  -12.9360   20.3319 N   0  0  0  0  0  0
  -25.9317  -11.6511   20.5751 N   0  0  0  0  0  0
  -22.0486  -12.8221   22.0406 N   0  0  0  0  0  0
  -25.4260  -15.1897   20.4091 N   0  0  0  0  0  0
  -31.8363  -14.6950   20.1354 O   0  0  0  0  0  0
  -21.6638   -6.8876   21.4243 O   0  0  0  0  0  0
  -22.3522  -14.5536   20.6696 O   0  0  0  0  0  0
  -24.6210  -31.8631   23.2056 C   0  0  0  0  0  0
  -25.9081  -32.4793   23.8366 C   0  0  1  0  0  0
  -27.2297  -27.3735   20.0888 C   0  0  0  0  0  0
  -25.5918  -33.8592   24.2297 N   0  0  0  0  0  0
  -23.4108  -30.4877   21.5476 C   0  0  2  0  0  0
  -24.8546  -28.9476   20.1119 C   0  0  0  0  0  0
  -22.7435  -29.4642   22.4957 C   0  0  0  0  0  0
  -18.0280  -28.1381   22.8484 C   0  0  0  0  0  0
  -24.1486  -36.7296   23.2635 C   0  0  0  0  0  0
  -25.9468  -30.8088   21.3678 C   0  0  0  0  0  0
  -26.0200  -29.4398   20.7110 C   0  0  0  0  0  0
  -27.2064  -28.6593   20.6982 C   0  0  0  0  0  0
  -26.0312  -26.9043   19.5027 C   0  0  0  0  0  0
  -24.8579  -27.6811   19.5066 C   0  0  0  0  0  0
  -23.6207  -29.8222   20.1619 C   0  0  0  0  0  0
  -25.4105  -36.3091   24.0336 C   0  0  1  0  0  0
  -20.5873  -28.3675   23.1298 C   0  0  2  0  0  0
  -20.6765  -26.9402   22.5413 C   0  0  0  0  0  0
  -19.5748  -26.6387   21.5203 C   0  0  0  0  0  0
  -18.1927  -26.7929   22.1614 C   0  0  0  0  0  0
  -19.1530  -28.8843   23.2891 C   0  0  0  0  0  0
  -18.9456  -30.1449   23.8903 C   0  0  0  0  0  0
  -17.6458  -30.6583   24.0564 C   0  0  0  0  0  0
  -25.9042  -34.9460   23.5113 C   0  0  0  0  0  0
  -16.5348  -29.9084   23.6329 C   0  0  0  0  0  0
  -16.7269  -28.6502   23.0345 C   0  0  0  0  0  0
  -26.4483  -31.6588   25.0721 C   0  0  0  0  0  0
  -25.3737  -31.3722   26.1466 C   0  0  0  0  0  0
  -27.0313  -30.3019   24.6138 C   0  0  0  0  0  0
  -27.6058  -32.4312   25.7485 C   0  0  0  0  0  0
  -27.5586  -37.1791   24.8453 C   0  0  0  0  0  0
  -21.4155  -29.3038   22.3697 N   0  0  0  0  0  0
  -26.4283  -37.3787   23.9425 N   0  0  0  0  0  0
  -24.6782  -31.0687   22.0979 N   0  0  0  0  0  0
  -23.4183  -28.8176   23.3014 O   0  0  0  0  0  0
  -28.3890  -26.6014   20.1278 O   0  0  0  0  0  0
  -26.5597  -34.8923   22.4672 O   0  0  0  0  0  0
  -23.5386  -32.1408   23.7415 O   0  0  0  0  0  0
  -30.0783  -23.5786   20.0271 C   0  0  0  0  0  0
  -27.7186  -23.1441   19.8083 C   0  0  0  0  0  0
  -28.7860  -24.0690   19.7421 C   0  0  0  0  0  0
  -30.3241  -22.2087   20.3208 C   0  0  0  0  0  0
  -29.2500  -21.2674   20.3386 C   0  0  0  0  0  0
  -27.9308  -21.7584   20.0998 C   0  0  0  0  0  0
  -30.6112  -17.8218   19.6400 C   0  0  0  0  0  0
  -29.7229  -17.9300   22.0923 C   0  0  0  0  0  0
  -29.6824  -19.0377   19.3622 C   0  0  0  0  0  0
  -28.8593  -19.1373   21.6210 C   0  0  0  0  0  0
  -30.4170  -17.0599   20.9922 C   0  0  0  0  0  0
  -32.4067  -22.5721   21.7391 C   0  0  0  0  0  0
  -32.6214  -21.8778   19.3036 C   0  0  0  0  0  0
  -25.5692  -21.2963   19.9370 C   0  0  0  0  0  0
  -28.5921  -25.5088   19.1890 C   0  0  0  0  0  0
  -31.7736  -21.7812   20.5816 C   0  0  0  0  0  0
  -29.5173  -19.8776   20.5461 N   0  0  0  0  0  0
  -29.9350  -15.6463   20.8895 N   0  0  0  0  0  0
  -26.9017  -20.8369   20.1224 O   0  0  0  0  0  0
  -31.4673  -12.4511   19.1405 H   0  0  0  0  0  0
  -30.3305  -11.3526   19.8710 H   0  0  0  0  0  0
  -29.7524  -11.7630   17.4543 H   0  0  0  0  0  0
  -29.6543  -13.4799   17.7541 H   0  0  0  0  0  0
  -27.8483  -11.2979   18.8499 H   0  0  0  0  0  0
  -27.3677  -12.5951   17.7891 H   0  0  0  0  0  0
  -27.6775  -14.2542   19.5304 H   0  0  0  0  0  0
  -28.6905  -12.0403   21.3814 H   0  0  0  0  0  0
  -28.4563  -13.7042   21.8381 H   0  0  0  0  0  0
  -25.2767   -9.5690   22.4742 H   0  0  0  0  0  0
  -24.0009   -7.4637   22.7468 H   0  0  0  0  0  0
  -21.0839   -8.8773   19.8955 H   0  0  0  0  0  0
  -22.3692  -10.9670   19.6151 H   0  0  0  0  0  0
  -21.2018   -7.6141   23.9716 H   0  0  0  0  0  0
  -21.1469   -6.0518   25.9079 H   0  0  0  0  0  0
  -22.0599   -2.7605   23.2852 H   0  0  0  0  0  0
  -22.4103  -11.9887   22.4800 H   0  0  0  0  0  0
  -21.1105  -13.1247   22.2613 H   0  0  0  0  0  0
  -24.6571  -15.8424   20.5148 H   0  0  0  0  0  0
  -26.2746  -15.6303   20.0778 H   0  0  0  0  0  0
  -26.7149  -32.5473   23.1120 H   0  0  0  0  0  0
  -25.0079  -33.9745   25.0453 H   0  0  0  0  0  0
  -22.7025  -31.3068   21.4076 H   0  0  0  0  0  0
  -23.3758  -35.9617   23.3275 H   0  0  0  0  0  0
  -24.3594  -36.8934   22.2057 H   0  0  0  0  0  0
  -23.7220  -37.6487   23.6663 H   0  0  0  0  0  0
  -26.0714  -31.5744   20.6005 H   0  0  0  0  0  0
  -26.8304  -30.8576   21.9927 H   0  0  0  0  0  0
  -28.1055  -29.0359   21.1660 H   0  0  0  0  0  0
  -25.9599  -25.9210   19.0637 H   0  0  0  0  0  0
  -23.9572  -27.2893   19.0546 H   0  0  0  0  0  0
  -23.7339  -30.5979   19.4037 H   0  0  0  0  0  0
  -22.7420  -29.2472   19.8638 H   0  0  0  0  0  0
  -25.1278  -36.1944   25.0824 H   0  0  0  0  0  0
  -20.9973  -28.3249   24.1417 H   0  0  0  0  0  0
  -20.5654  -26.2280   23.3603 H   0  0  0  0  0  0
  -21.6640  -26.7431   22.1217 H   0  0  0  0  0  0
  -19.6906  -25.6297   21.1228 H   0  0  0  0  0  0
  -19.6694  -27.3196   20.6731 H   0  0  0  0  0  0
  -17.4196  -26.6679   21.4016 H   0  0  0  0  0  0
  -18.0330  -26.0072   22.9010 H   0  0  0  0  0  0
  -19.7935  -30.7259   24.2277 H   0  0  0  0  0  0
  -17.5015  -31.6266   24.5165 H   0  0  0  0  0  0
  -15.5350  -30.2983   23.7652 H   0  0  0  0  0  0
  -15.8672  -28.0822   22.7053 H   0  0  0  0  0  0
  -24.5908  -30.7065   25.7813 H   0  0  0  0  0  0
  -24.8929  -32.2883   26.4901 H   0  0  0  0  0  0
  -25.8082  -30.8905   27.0234 H   0  0  0  0  0  0
  -26.2866  -29.6785   24.1172 H   0  0  0  0  0  0
  -27.4037  -29.7258   25.4619 H   0  0  0  0  0  0
  -27.8723  -30.4317   23.9326 H   0  0  0  0  0  0
  -27.2679  -33.3608   26.2075 H   0  0  0  0  0  0
  -28.3858  -32.6872   25.0306 H   0  0  0  0  0  0
  -28.0731  -31.8425   26.5391 H   0  0  0  0  0  0
  -28.2565  -38.0127   24.7561 H   0  0  0  0  0  0
  -28.1119  -36.2662   24.6188 H   0  0  0  0  0  0
  -27.2323  -37.1340   25.8859 H   0  0  0  0  0  0
  -20.9312  -29.8766   21.6925 H   0  0  0  0  0  0
  -26.0161  -38.2855   24.1464 H   0  0  0  0  0  0
  -30.9114  -24.2637   19.9656 H   0  0  0  0  0  0
  -26.7344  -23.5184   19.5734 H   0  0  0  0  0  0
  -31.6334  -18.2036   19.6273 H   0  0  0  0  0  0
  -30.5650  -17.1292   18.7986 H   0  0  0  0  0  0
  -29.1373  -17.3025   22.7654 H   0  0  0  0  0  0
  -30.5127  -18.3448   22.7211 H   0  0  0  0  0  0
  -28.7009  -18.6828   19.0418 H   0  0  0  0  0  0
  -30.0801  -19.6253   18.5328 H   0  0  0  0  0  0
  -28.6541  -19.8009   22.4625 H   0  0  0  0  0  0
  -27.8919  -18.7741   21.2701 H   0  0  0  0  0  0
  -31.4315  -16.9320   21.3768 H   0  0  0  0  0  0
  -31.8152  -22.4682   22.6494 H   0  0  0  0  0  0
  -32.4909  -23.6358   21.5173 H   0  0  0  0  0  0
  -33.4099  -22.2057   21.9587 H   0  0  0  0  0  0
  -32.2001  -21.2592   18.5105 H   0  0  0  0  0  0
  -33.6396  -21.5311   19.4810 H   0  0  0  0  0  0
  -32.6812  -22.9009   18.9316 H   0  0  0  0  0  0
  -24.8824  -20.4549   20.0289 H   0  0  0  0  0  0
  -25.4278  -21.7252   18.9441 H   0  0  0  0  0  0
  -25.2888  -22.0312   20.6930 H   0  0  0  0  0  0
  -27.8713  -25.4850   18.3741 H   0  0  0  0  0  0
  -29.5202  -25.7601   18.6743 H   0  0  0  0  0  0
  -31.8009  -20.7379   20.8933 H   0  0  0  0  0  0
  -28.9731  -15.4675   21.1354 H   0  0  0  0  0  0
  1 25  1  0  0  0
  1 30  2  0  0  0
  1 88  1  0  0  0
  2  3  1  0  0  0
  2 25  1  0  0  0
  2 90  1  0  0  0
  2 91  1  0  0  0
  3  4  1  0  0  0
  3 92  1  0  0  0
  3 93  1  0  0  0
  4  5  1  0  0  0
  4 94  1  0  0  0
  4 95  1  0  0  0
  5  6  1  0  0  0
  5 26  1  0  0  0
  5 96  1  0  0  0
  6 25  1  0  0  0
  6 97  1  0  0  0
  6 98  1  0  0  0
  7  8  2  0  0  0
  7 26  1  0  0  0
  7 29  1  0  0  0
  8  9  1  0  0  0
  8 22  1  0  0  0
  9 10  1  0  0  0
  9 27  2  0  0  0
 10 11  2  0  0  0
 10 15  1  0  0  0
 11 12  1  0  0  0
 11 99  1  0  0  0
 12 13  2  0  0  0
 12100  1  0  0  0
 13 14  1  0  0  0
 13 31  1  0  0  0
 14 15  2  0  0  0
 14101  1  0  0  0
 15102  1  0  0  0
 16 17  2  0  0  0
 16 21  1  0  0  0
 16 31  1  0  0  0
 17 18  1  0  0  0
 17103  1  0  0  0
 18 19  2  0  0  0
 18104  1  0  0  0
 19 20  1  0  0  0
 19 24  1  0  0  0
 20 21  2  0  0  0
 20105  1  0  0  0
 21 23  1  0  0  0
 22 28  1  0  0  0
 22 32  2  0  0  0
 26 27  1  0  0  0
 28106  1  0  0  0
 28107  1  0  0  0
 29108  1  0  0  0
 29109  1  0  0  0
 33 34  1  0  0  0
 33 66  1  0  0  0
 33 70  2  0  0  0
 34 36  1  0  0  0
 34 59  1  0  0  0
 34110  1  0  0  0
 35 44  2  0  0  0
 35 45  1  0  0  0
 35 68  1  0  0  0
 36 56  1  0  0  0
 36111  1  0  0  0
 37 39  1  0  0  0
 37 47  1  0  0  0
 37 66  1  0  0  0
 37112  1  0  0  0
 38 43  2  0  0  0
 38 46  1  0  0  0
 38 47  1  0  0  0
 39 64  1  0  0  0
 39 67  2  0  0  0
 40 52  1  0  0  0
 40 53  2  0  0  0
 40 58  1  0  0  0
 41113  1  0  0  0
 41114  1  0  0  0
 41115  1  0  0  0
 41 48  1  0  0  0
 42 43  1  0  0  0
 42 66  1  0  0  0
 42116  1  0  0  0
 42117  1  0  0  0
 43 44  1  0  0  0
 44118  1  0  0  0
 45 46  2  0  0  0
 45119  1  0  0  0
 46120  1  0  0  0
 47121  1  0  0  0
 47122  1  0  0  0
 48 56  1  0  0  0
 48 65  1  0  0  0
 48123  1  0  0  0
 49 50  1  0  0  0
 49 53  1  0  0  0
 49 64  1  0  0  0
 49124  1  0  0  0
 50 51  1  0  0  0
 50125  1  0  0  0
 50126  1  0  0  0
 51 52  1  0  0  0
 51127  1  0  0  0
 51128  1  0  0  0
 52129  1  0  0  0
 52130  1  0  0  0
 53 54  1  0  0  0
 54 55  2  0  0  0
 54131  1  0  0  0
 55 57  1  0  0  0
 55132  1  0  0  0
 56 69  2  0  0  0
 57 58  2  0  0  0
 57133  1  0  0  0
 58134  1  0  0  0
 59 60  1  0  0  0
 59 61  1  0  0  0
 59 62  1  0  0  0
 60135  1  0  0  0
 60136  1  0  0  0
 60137  1  0  0  0
 61138  1  0  0  0
 61139  1  0  0  0
 61140  1  0  0  0
 62141  1  0  0  0
 62142  1  0  0  0
 62143  1  0  0  0
 63 65  1  0  0  0
 63144  1  0  0  0
 63145  1  0  0  0
 63146  1  0  0  0
 64147  1  0  0  0
 65148  1  0  0  0
 68 85  1  0  0  0
 71 73  2  0  0  0
 71 74  1  0  0  0
 71149  1  0  0  0
 72 73  1  0  0  0
 72 76  2  0  0  0
 72150  1  0  0  0
 73 85  1  0  0  0
 74 75  2  0  0  0
 74 86  1  0  0  0
 75 76  1  0  0  0
 75 87  1  0  0  0
 76 89  1  0  0  0
 77 79  1  0  0  0
 77 81  1  0  0  0
 77151  1  0  0  0
 77152  1  0  0  0
 78 80  1  0  0  0
 78 81  1  0  0  0
 78153  1  0  0  0
 78154  1  0  0  0
 79 87  1  0  0  0
 79155  1  0  0  0
 79156  1  0  0  0
 80 87  1  0  0  0
 80157  1  0  0  0
 80158  1  0  0  0
 81 88  1  0  0  0
 81159  1  0  0  0
 82160  1  0  0  0
 82161  1  0  0  0
 82162  1  0  0  0
 82 86  1  0  0  0
 83 86  1  0  0  0
 83163  1  0  0  0
 83164  1  0  0  0
 83165  1  0  0  0
 84 89  1  0  0  0
 84166  1  0  0  0
 84167  1  0  0  0
 84168  1  0  0  0
 85169  1  0  0  0
 85170  1  0  0  0
 86171  1  0  0  0
 88172  1  0  0  0
M  ISO  4   1 100  68 101  85 101  88 100
M  END
> <chiral flag>
0

> <version>
0

> <s_m_source_file>
/data/baiqing/PycharmProjects/Reinvent-master-3.2/result/LINK_invent/BTK/process_docking_weight1_custom_sum_contain_oxygen_bond_distance_aromatic_linkinvent_7_9_3/rearranged_h_0153.sdf

> <i_m_source_file_index>
34

> <r_mmod_Potential_Energy-OPLS-2005>
96.9990081787109

> <r_mmod_Stretch_Energy-OPLS-2005>
59.2015151977539

> <r_mmod_Bend_Energy-OPLS-2005>
146.358428955078

> <r_mmod_Torsional_Energy-OPLS-2005>
273.783203125

> <r_mmod_Improper_Torsional_Energy-OPLS-2005>
8.15090847015381

> <r_mmod_Van_der_Waal_Energy-OPLS-2005>
156.568237304688

> <r_mmod_Electrostatic_Energy-OPLS-2005>
-364.20556640625

> <r_mmod_Solvation_Energy-OPLS-2005>
-210.760818481445

> <b_mmod_Minimization_Converged-OPLS-2005>
0

> <r_mmod_RMS_Derivative-OPLS-2005>
0.774465799331665

$$$$
34
                    3D
 Structure written by MMmdl.
170179  0  0  1  0            999 V2000
  -30.7420  -14.4140   20.6268 C   0  0  0  0  0  0
  -30.4146  -12.2873   19.4207 C   0  0  0  0  0  0
  -29.4921  -12.5073   18.2044 C   0  0  0  0  0  0
  -28.0112  -12.3734   18.6092 C   0  0  0  0  0  0
  -27.6608  -13.2044   19.8713 C   0  0  2  0  0  0
  -28.6938  -12.9613   20.9899 C   0  0  0  0  0  0
  -25.2589  -13.8170   20.5662 C   0  0  0  0  0  0
  -24.1837  -13.0448   20.9159 C   0  0  0  0  0  0
  -24.6386  -11.6912   20.8719 C   0  0  0  0  0  0
  -23.9053  -10.4299   21.0405 C   0  0  0  0  0  0
  -24.3609   -9.4218   21.9186 C   0  0  0  0  0  0
  -23.6290   -8.2248   22.0756 C   0  0  0  0  0  0
  -22.4275   -8.0280   21.3542 C   0  0  0  0  0  0
  -21.9909   -9.0250   20.4640 C   0  0  0  0  0  0
  -22.7231  -10.2132   20.3051 C   0  0  0  0  0  0
  -21.6853   -6.0738   22.5277 C   0  0  0  0  0  0
  -21.4012   -6.5640   23.8208 C   0  0  0  0  0  0
  -21.3656   -5.6793   24.9168 C   0  0  0  0  0  0
  -21.6047   -4.3057   24.7219 C   0  0  0  0  0  0
  -21.8818   -3.8150   23.4339 C   0  0  0  0  0  0
  -21.9191   -4.6968   22.3399 C   0  0  0  0  0  0
  -22.7863  -13.5248   21.1840 C   0  0  0  0  0  0
  -22.1662   -4.2156   21.0978 F   0  0  0  0  0  0
  -21.5629   -3.4543   25.7732 F   0  0  0  0  0  0
  -30.0332  -13.2631   20.4556 N   0  0  0  0  0  0
  -26.3011  -12.9329   20.3327 N   0  0  0  0  0  0
  -25.9305  -11.6489   20.5729 N   0  0  0  0  0  0
  -22.0502  -12.8225   22.0383 N   0  0  0  0  0  0
  -25.4344  -15.1883   20.4094 N   0  0  0  0  0  0
  -31.8481  -14.5888   20.1009 O   0  0  0  0  0  0
  -21.6641   -6.8878   21.4239 O   0  0  0  0  0  0
  -22.3548  -14.5566   20.6713 O   0  0  0  0  0  0
  -24.6100  -31.8707   23.2136 C   0  0  0  0  0  0
  -25.9007  -32.4840   23.8422 C   0  0  1  0  0  0
  -27.2388  -27.4676   20.1006 C   0  0  0  0  0  0
  -25.5869  -33.8640   24.2348 N   0  0  0  0  0  0
  -23.3971  -30.4931   21.5524 C   0  0  2  0  0  0
  -24.8469  -28.9590   20.1210 C   0  0  0  0  0  0
  -22.7387  -29.4671   22.5014 C   0  0  0  0  0  0
  -18.0267  -28.1376   22.8492 C   0  0  0  0  0  0
  -24.1478  -36.7327   23.2640 C   0  0  0  0  0  0
  -25.9216  -30.8445   21.3645 C   0  0  0  0  0  0
  -26.0012  -29.4773   20.7224 C   0  0  0  0  0  0
  -27.2010  -28.7365   20.7185 C   0  0  0  0  0  0
  -26.0765  -26.9589   19.4897 C   0  0  0  0  0  0
  -24.8762  -27.6944   19.5050 C   0  0  0  0  0  0
  -23.6064  -29.8218   20.1678 C   0  0  0  0  0  0
  -25.4099  -36.3129   24.0343 C   0  0  1  0  0  0
  -20.5852  -28.3655   23.1328 C   0  0  2  0  0  0
  -20.6753  -26.9392   22.5422 C   0  0  0  0  0  0
  -19.5733  -26.6381   21.5214 C   0  0  0  0  0  0
  -18.1911  -26.7925   22.1617 C   0  0  0  0  0  0
  -19.1516  -28.8832   23.2909 C   0  0  0  0  0  0
  -18.9443  -30.1441   23.8915 C   0  0  0  0  0  0
  -17.6445  -30.6581   24.0568 C   0  0  0  0  0  0
  -25.9022  -34.9490   23.5147 C   0  0  0  0  0  0
  -16.5338  -29.9084   23.6326 C   0  0  0  0  0  0
  -16.7256  -28.6503   23.0343 C   0  0  0  0  0  0
  -26.4453  -31.6606   25.0733 C   0  0  0  0  0  0
  -25.3738  -31.3678   26.1492 C   0  0  0  0  0  0
  -27.0291  -30.3059   24.6085 C   0  0  0  0  0  0
  -27.6021  -32.4330   25.7501 C   0  0  0  0  0  0
  -27.5585  -37.1822   24.8459 C   0  0  0  0  0  0
  -21.4119  -29.3032   22.3748 N   0  0  0  0  0  0
  -26.4288  -37.3813   23.9414 N   0  0  0  0  0  0
  -24.6607  -31.0836   22.1022 N   0  0  0  0  0  0
  -23.4174  -28.8210   23.3043 O   0  0  0  0  0  0
  -28.3878  -26.7249   20.0151 O   0  0  0  0  0  0
  -26.5600  -34.8931   22.4718 O   0  0  0  0  0  0
  -23.5306  -32.1449   23.7548 O   0  0  0  0  0  0
  -27.3162  -21.9856   20.4145 C   0  0  0  0  0  0
  -28.1588  -22.3234   22.6600 C   0  0  0  0  0  0
  -27.0377  -20.6332   20.7028 C   0  0  0  0  0  0
  -27.9150  -20.9644   22.9606 C   0  0  0  0  0  0
  -27.3878  -20.0920   21.9694 C   0  0  0  0  0  0
  -27.8916  -22.8403   21.3715 C   0  0  0  0  0  0
  -28.9473  -17.6142   20.6169 C   0  0  0  0  0  0
  -28.5118  -16.4212   22.7984 C   0  0  0  0  0  0
  -30.2296  -16.7819   20.4769 C   0  0  0  0  0  0
  -29.8244  -15.6379   22.5671 C   0  0  0  0  0  0
  -28.5463  -17.7955   22.0927 C   0  0  0  0  0  0
  -26.3502  -19.8023   19.6288 C   0  0  0  0  0  0
  -28.2247  -20.4734   24.3681 C   0  0  0  0  0  0
  -27.2272  -18.5925   22.2635 C   0  0  0  0  0  0
  -29.0140  -26.3684   21.2456 C   0  0  0  0  0  0
  -28.3091  -25.1737   21.9146 C   0  0  0  0  0  0
  -30.0600  -15.4736   21.1249 N   0  0  0  0  0  0
  -28.1829  -24.1229   20.9564 O   0  0  0  0  0  0
  -31.4605  -12.3723   19.1216 H   0  0  0  0  0  0
  -30.3036  -11.2731   19.8066 H   0  0  0  0  0  0
  -29.7300  -11.7903   17.4173 H   0  0  0  0  0  0
  -29.6687  -13.4973   17.7800 H   0  0  0  0  0  0
  -27.8121  -11.3172   18.7944 H   0  0  0  0  0  0
  -27.3664  -12.6614   17.7782 H   0  0  0  0  0  0
  -27.7141  -14.2565   19.5892 H   0  0  0  0  0  0
  -28.6606  -11.9215   21.3182 H   0  0  0  0  0  0
  -28.4259  -13.5435   21.8664 H   0  0  0  0  0  0
  -25.2752   -9.5698   22.4764 H   0  0  0  0  0  0
  -24.0000   -7.4641   22.7478 H   0  0  0  0  0  0
  -21.0844   -8.8761   19.8940 H   0  0  0  0  0  0
  -22.3697  -10.9667   19.6155 H   0  0  0  0  0  0
  -21.2005   -7.6147   23.9716 H   0  0  0  0  0  0
  -21.1481   -6.0523   25.9072 H   0  0  0  0  0  0
  -22.0602   -2.7614   23.2839 H   0  0  0  0  0  0
  -22.4099  -11.9851   22.4721 H   0  0  0  0  0  0
  -21.1122  -13.1251   22.2604 H   0  0  0  0  0  0
  -24.6757  -15.8496   20.5278 H   0  0  0  0  0  0
  -26.3017  -15.6221   20.1214 H   0  0  0  0  0  0
  -26.7085  -32.5574   23.1203 H   0  0  0  0  0  0
  -24.9994  -33.9813   25.0474 H   0  0  0  0  0  0
  -22.6843  -31.3082   21.4123 H   0  0  0  0  0  0
  -23.3741  -35.9657   23.3297 H   0  0  0  0  0  0
  -24.3573  -36.8953   22.2055 H   0  0  0  0  0  0
  -23.7220  -37.6525   23.6657 H   0  0  0  0  0  0
  -26.0289  -31.6064   20.5916 H   0  0  0  0  0  0
  -26.8112  -30.9042   21.9792 H   0  0  0  0  0  0
  -28.0945  -29.1497   21.1656 H   0  0  0  0  0  0
  -26.1051  -25.9934   19.0043 H   0  0  0  0  0  0
  -23.9906  -27.2902   19.0341 H   0  0  0  0  0  0
  -23.7110  -30.5945   19.4053 H   0  0  0  0  0  0
  -22.7322  -29.2376   19.8742 H   0  0  0  0  0  0
  -25.1278  -36.2004   25.0837 H   0  0  0  0  0  0
  -20.9942  -28.3209   24.1447 H   0  0  0  0  0  0
  -20.5643  -26.2262   23.3605 H   0  0  0  0  0  0
  -21.6625  -26.7430   22.1216 H   0  0  0  0  0  0
  -19.6886  -25.6295   21.1229 H   0  0  0  0  0  0
  -19.6677  -27.3205   20.6753 H   0  0  0  0  0  0
  -17.4185  -26.6695   21.4013 H   0  0  0  0  0  0
  -18.0294  -26.0061   22.9002 H   0  0  0  0  0  0
  -19.7918  -30.7261   24.2284 H   0  0  0  0  0  0
  -17.4996  -31.6265   24.5162 H   0  0  0  0  0  0
  -15.5339  -30.2992   23.7640 H   0  0  0  0  0  0
  -15.8656  -28.0834   22.7037 H   0  0  0  0  0  0
  -24.5875  -30.7084   25.7806 H   0  0  0  0  0  0
  -24.8984  -32.2826   26.5041 H   0  0  0  0  0  0
  -25.8104  -30.8748   27.0190 H   0  0  0  0  0  0
  -26.2840  -29.6828   24.1128 H   0  0  0  0  0  0
  -27.4063  -29.7284   25.4535 H   0  0  0  0  0  0
  -27.8667  -30.4397   23.9236 H   0  0  0  0  0  0
  -27.2622  -33.3600   26.2135 H   0  0  0  0  0  0
  -28.3805  -32.6952   25.0320 H   0  0  0  0  0  0
  -28.0724  -31.8431   26.5382 H   0  0  0  0  0  0
  -28.2588  -38.0135   24.7532 H   0  0  0  0  0  0
  -28.1100  -36.2671   24.6246 H   0  0  0  0  0  0
  -27.2309  -37.1426   25.8863 H   0  0  0  0  0  0
  -20.9273  -29.8768   21.6987 H   0  0  0  0  0  0
  -26.0179  -38.2892   24.1423 H   0  0  0  0  0  0
  -27.0822  -22.3854   19.4374 H   0  0  0  0  0  0
  -28.5858  -22.9430   23.4329 H   0  0  0  0  0  0
  -28.1409  -17.1254   20.0691 H   0  0  0  0  0  0
  -29.1038  -18.5874   20.1503 H   0  0  0  0  0  0
  -28.3526  -16.5573   23.8689 H   0  0  0  0  0  0
  -27.6640  -15.8382   22.4346 H   0  0  0  0  0  0
  -31.0791  -17.3075   20.9176 H   0  0  0  0  0  0
  -30.4551  -16.6678   19.4137 H   0  0  0  0  0  0
  -29.7995  -14.6807   23.0903 H   0  0  0  0  0  0
  -30.6633  -16.1812   23.0059 H   0  0  0  0  0  0
  -29.3438  -18.3630   22.5715 H   0  0  0  0  0  0
  -26.0996  -20.4091   18.7582 H   0  0  0  0  0  0
  -25.4167  -19.3831   20.0051 H   0  0  0  0  0  0
  -26.9810  -18.9879   19.2804 H   0  0  0  0  0  0
  -28.6462  -21.2656   24.9869 H   0  0  0  0  0  0
  -28.9419  -19.6542   24.3601 H   0  0  0  0  0  0
  -27.3144  -20.1293   24.8600 H   0  0  0  0  0  0
  -26.4449  -18.1475   21.6502 H   0  0  0  0  0  0
  -26.8602  -18.4759   23.2830 H   0  0  0  0  0  0
  -30.0435  -26.0917   21.0177 H   0  0  0  0  0  0
  -29.0749  -27.2098   21.9361 H   0  0  0  0  0  0
  -27.3197  -25.4591   22.2744 H   0  0  0  0  0  0
  -28.9068  -24.8902   22.7789 H   0  0  0  0  0  0
  1 25  1  0  0  0
  1 30  2  0  0  0
  1 87  1  0  0  0
  2  3  1  0  0  0
  2 25  1  0  0  0
  2 89  1  0  0  0
  2 90  1  0  0  0
  3  4  1  0  0  0
  3 91  1  0  0  0
  3 92  1  0  0  0
  4  5  1  0  0  0
  4 93  1  0  0  0
  4 94  1  0  0  0
  5  6  1  0  0  0
  5 26  1  0  0  0
  5 95  1  0  0  0
  6 25  1  0  0  0
  6 96  1  0  0  0
  6 97  1  0  0  0
  7  8  2  0  0  0
  7 26  1  0  0  0
  7 29  1  0  0  0
  8  9  1  0  0  0
  8 22  1  0  0  0
  9 10  1  0  0  0
  9 27  2  0  0  0
 10 11  2  0  0  0
 10 15  1  0  0  0
 11 12  1  0  0  0
 11 98  1  0  0  0
 12 13  2  0  0  0
 12 99  1  0  0  0
 13 14  1  0  0  0
 13 31  1  0  0  0
 14 15  2  0  0  0
 14100  1  0  0  0
 15101  1  0  0  0
 16 17  2  0  0  0
 16 21  1  0  0  0
 16 31  1  0  0  0
 17 18  1  0  0  0
 17102  1  0  0  0
 18 19  2  0  0  0
 18103  1  0  0  0
 19 20  1  0  0  0
 19 24  1  0  0  0
 20 21  2  0  0  0
 20104  1  0  0  0
 21 23  1  0  0  0
 22 28  1  0  0  0
 22 32  2  0  0  0
 26 27  1  0  0  0
 28105  1  0  0  0
 28106  1  0  0  0
 29107  1  0  0  0
 29108  1  0  0  0
 33 34  1  0  0  0
 33 66  1  0  0  0
 33 70  2  0  0  0
 34 36  1  0  0  0
 34 59  1  0  0  0
 34109  1  0  0  0
 35 44  2  0  0  0
 35 45  1  0  0  0
 35 68  1  0  0  0
 36 56  1  0  0  0
 36110  1  0  0  0
 37 39  1  0  0  0
 37 47  1  0  0  0
 37 66  1  0  0  0
 37111  1  0  0  0
 38 43  2  0  0  0
 38 46  1  0  0  0
 38 47  1  0  0  0
 39 64  1  0  0  0
 39 67  2  0  0  0
 40 52  1  0  0  0
 40 53  2  0  0  0
 40 58  1  0  0  0
 41112  1  0  0  0
 41113  1  0  0  0
 41114  1  0  0  0
 41 48  1  0  0  0
 42 43  1  0  0  0
 42 66  1  0  0  0
 42115  1  0  0  0
 42116  1  0  0  0
 43 44  1  0  0  0
 44117  1  0  0  0
 45 46  2  0  0  0
 45118  1  0  0  0
 46119  1  0  0  0
 47120  1  0  0  0
 47121  1  0  0  0
 48 56  1  0  0  0
 48 65  1  0  0  0
 48122  1  0  0  0
 49 50  1  0  0  0
 49 53  1  0  0  0
 49 64  1  0  0  0
 49123  1  0  0  0
 50 51  1  0  0  0
 50124  1  0  0  0
 50125  1  0  0  0
 51 52  1  0  0  0
 51126  1  0  0  0
 51127  1  0  0  0
 52128  1  0  0  0
 52129  1  0  0  0
 53 54  1  0  0  0
 54 55  2  0  0  0
 54130  1  0  0  0
 55 57  1  0  0  0
 55131  1  0  0  0
 56 69  2  0  0  0
 57 58  2  0  0  0
 57132  1  0  0  0
 58133  1  0  0  0
 59 60  1  0  0  0
 59 61  1  0  0  0
 59 62  1  0  0  0
 60134  1  0  0  0
 60135  1  0  0  0
 60136  1  0  0  0
 61137  1  0  0  0
 61138  1  0  0  0
 61139  1  0  0  0
 62140  1  0  0  0
 62141  1  0  0  0
 62142  1  0  0  0
 63 65  1  0  0  0
 63143  1  0  0  0
 63144  1  0  0  0
 63145  1  0  0  0
 64146  1  0  0  0
 65147  1  0  0  0
 68 85  1  0  0  0
 71 73  2  0  0  0
 71 76  1  0  0  0
 71148  1  0  0  0
 72 74  1  0  0  0
 72 76  2  0  0  0
 72149  1  0  0  0
 73 75  1  0  0  0
 73 82  1  0  0  0
 74 75  2  0  0  0
 74 83  1  0  0  0
 75 84  1  0  0  0
 76 88  1  0  0  0
 77 79  1  0  0  0
 77 81  1  0  0  0
 77150  1  0  0  0
 77151  1  0  0  0
 78 80  1  0  0  0
 78 81  1  0  0  0
 78152  1  0  0  0
 78153  1  0  0  0
 79 87  1  0  0  0
 79154  1  0  0  0
 79155  1  0  0  0
 80 87  1  0  0  0
 80156  1  0  0  0
 80157  1  0  0  0
 81 84  1  0  0  0
 81158  1  0  0  0
 82159  1  0  0  0
 82160  1  0  0  0
 82161  1  0  0  0
 83162  1  0  0  0
 83163  1  0  0  0
 83164  1  0  0  0
 84165  1  0  0  0
 84166  1  0  0  0
 85 86  1  0  0  0
 85167  1  0  0  0
 85168  1  0  0  0
 86 88  1  0  0  0
 86169  1  0  0  0
 86170  1  0  0  0
M  ISO  4   1 100  68 101  85 101  87 100
M  END
> <chiral flag>
0

> <version>
0

> <s_m_source_file>
/data/baiqing/PycharmProjects/Reinvent-master-3.2/result/LINK_invent/BTK/process_docking_weight1_custom_sum_contain_oxygen_bond_distance_aromatic_linkinvent_7_9_3/rearranged_h_0153.sdf

> <i_m_source_file_index>
35

> <r_mmod_Potential_Energy-OPLS-2005>
165.292037963867

> <r_mmod_Stretch_Energy-OPLS-2005>
37.5722198486328

> <r_mmod_Bend_Energy-OPLS-2005>
109.887939453125

> <r_mmod_Torsional_Energy-OPLS-2005>
326.177886962891

> <r_mmod_Improper_Torsional_Energy-OPLS-2005>
10.5398731231689

> <r_mmod_Van_der_Waal_Energy-OPLS-2005>
156.792510986328

> <r_mmod_Electrostatic_Energy-OPLS-2005>
-286.391937255859

> <r_mmod_Solvation_Energy-OPLS-2005>
-197.432159423828

> <b_mmod_Minimization_Converged-OPLS-2005>
0

> <r_mmod_RMS_Derivative-OPLS-2005>
0.955199956893921

$$$$
35
                    3D
 Structure written by MMmdl.
163172  0  0  1  0            999 V2000
  -30.6755  -14.4881   20.5470 C   0  0  0  0  0  0
  -30.4363  -12.3001   19.4335 C   0  0  0  0  0  0
  -29.5047  -12.4881   18.2157 C   0  0  0  0  0  0
  -28.0237  -12.3576   18.6268 C   0  0  0  0  0  0
  -27.6703  -13.1993   19.8821 C   0  0  2  0  0  0
  -28.7135  -12.9702   21.0035 C   0  0  0  0  0  0
  -25.2638  -13.8144   20.5680 C   0  0  0  0  0  0
  -24.1865  -13.0430   20.9174 C   0  0  0  0  0  0
  -24.6414  -11.6897   20.8730 C   0  0  0  0  0  0
  -23.9065  -10.4292   21.0402 C   0  0  0  0  0  0
  -24.3614   -9.4209   21.9185 C   0  0  0  0  0  0
  -23.6291   -8.2240   22.0755 C   0  0  0  0  0  0
  -22.4276   -8.0284   21.3546 C   0  0  0  0  0  0
  -21.9916   -9.0251   20.4640 C   0  0  0  0  0  0
  -22.7241  -10.2131   20.3049 C   0  0  0  0  0  0
  -21.6847   -6.0733   22.5278 C   0  0  0  0  0  0
  -21.4008   -6.5635   23.8210 C   0  0  0  0  0  0
  -21.3656   -5.6792   24.9172 C   0  0  0  0  0  0
  -21.6041   -4.3055   24.7230 C   0  0  0  0  0  0
  -21.8821   -3.8145   23.4352 C   0  0  0  0  0  0
  -21.9197   -4.6962   22.3405 C   0  0  0  0  0  0
  -22.7886  -13.5237   21.1837 C   0  0  0  0  0  0
  -22.1662   -4.2142   21.0987 F   0  0  0  0  0  0
  -21.5630   -3.4545   25.7744 F   0  0  0  0  0  0
  -30.0496  -13.2813   20.4605 N   0  0  0  0  0  0
  -26.3073  -12.9298   20.3397 N   0  0  0  0  0  0
  -25.9344  -11.6470   20.5789 N   0  0  0  0  0  0
  -22.0526  -12.8207   22.0381 N   0  0  0  0  0  0
  -25.4379  -15.1854   20.4076 N   0  0  0  0  0  0
  -31.7653  -14.7252   20.0212 O   0  0  0  0  0  0
  -21.6638   -6.8883   21.4244 O   0  0  0  0  0  0
  -22.3578  -14.5548   20.6704 O   0  0  0  0  0  0
  -24.6190  -31.8678   23.2067 C   0  0  0  0  0  0
  -25.9067  -32.4829   23.8382 C   0  0  1  0  0  0
  -27.2366  -27.4210   20.1020 C   0  0  0  0  0  0
  -25.5893  -33.8614   24.2289 N   0  0  0  0  0  0
  -23.4079  -30.4897   21.5494 C   0  0  2  0  0  0
  -24.8572  -28.9560   20.1119 C   0  0  0  0  0  0
  -22.7448  -29.4646   22.4975 C   0  0  0  0  0  0
  -18.0279  -28.1357   22.8485 C   0  0  0  0  0  0
  -24.1482  -36.7316   23.2640 C   0  0  0  0  0  0
  -25.9398  -30.8297   21.3637 C   0  0  0  0  0  0
  -26.0208  -29.4658   20.7037 C   0  0  0  0  0  0
  -27.2184  -28.7087   20.6887 C   0  0  0  0  0  0
  -26.0595  -26.9341   19.4945 C   0  0  0  0  0  0
  -24.8723  -27.6895   19.5016 C   0  0  0  0  0  0
  -23.6183  -29.8215   20.1644 C   0  0  0  0  0  0
  -25.4102  -36.3092   24.0320 C   0  0  1  0  0  0
  -20.5866  -28.3672   23.1291 C   0  0  2  0  0  0
  -20.6771  -26.9408   22.5398 C   0  0  0  0  0  0
  -19.5746  -26.6382   21.5194 C   0  0  0  0  0  0
  -18.1919  -26.7909   22.1610 C   0  0  0  0  0  0
  -19.1525  -28.8834   23.2883 C   0  0  0  0  0  0
  -18.9459  -30.1436   23.8900 C   0  0  0  0  0  0
  -17.6465  -30.6578   24.0554 C   0  0  0  0  0  0
  -25.9048  -34.9471   23.5117 C   0  0  0  0  0  0
  -16.5352  -29.9071   23.6332 C   0  0  0  0  0  0
  -16.7267  -28.6482   23.0356 C   0  0  0  0  0  0
  -26.4463  -31.6615   25.0742 C   0  0  0  0  0  0
  -25.3695  -31.3737   26.1471 C   0  0  0  0  0  0
  -27.0328  -30.3050   24.6161 C   0  0  0  0  0  0
  -27.6012  -32.4375   25.7516 C   0  0  0  0  0  0
  -27.5582  -37.1787   24.8448 C   0  0  0  0  0  0
  -21.4170  -29.3027   22.3710 N   0  0  0  0  0  0
  -26.4278  -37.3774   23.9410 N   0  0  0  0  0  0
  -24.6739  -31.0760   22.0982 N   0  0  0  0  0  0
  -23.4208  -28.8205   23.3039 O   0  0  0  0  0  0
  -28.3653  -26.6231   20.1341 O   0  0  0  0  0  0
  -26.5629  -34.8933   22.4689 O   0  0  0  0  0  0
  -23.5371  -32.1453   23.7447 O   0  0  0  0  0  0
  -30.4407  -20.3189   21.3484 C   0  0  0  0  0  0
  -29.2174  -21.0952   18.9703 C   0  0  0  0  0  0
  -30.2639  -19.3319   20.3484 C   0  0  0  0  0  0
  -29.6563  -19.7474   19.1326 C   0  0  0  0  0  0
  -29.4196  -22.0228   20.0253 C   0  0  0  0  0  0
  -29.1336  -21.4538   16.3461 C   0  0  0  0  0  0
  -28.9029  -22.8073   16.9716 C   0  0  0  0  0  0
  -28.5031  -21.5498   17.7204 C   0  0  0  0  0  0
  -30.7467  -17.8831   20.6129 C   0  0  0  0  0  0
  -29.6544  -16.7867   20.4674 C   0  0  0  0  0  0
  -28.1869  -25.4322   20.9316 C   0  0  0  0  0  0
  -29.3076  -24.3594   20.8502 C   0  0  0  0  0  0
  -30.0301  -21.5961   21.1565 N   0  3  0  0  0  0
  -29.4834  -18.8332   18.0908 N   0  0  0  0  0  0
  -29.9216  -15.4687   21.0760 N   0  0  0  0  0  0
  -28.9724  -23.3380   19.8954 O   0  0  0  0  0  0
  -31.4802  -12.4054   19.1334 H   0  0  0  0  0  0
  -30.3452  -11.2887   19.8345 H   0  0  0  0  0  0
  -29.7419  -11.7477   17.4503 H   0  0  0  0  0  0
  -29.6782  -13.4637   17.7589 H   0  0  0  0  0  0
  -27.8308  -11.3027   18.8258 H   0  0  0  0  0  0
  -27.3760  -12.6301   17.7926 H   0  0  0  0  0  0
  -27.7190  -14.2481   19.5859 H   0  0  0  0  0  0
  -28.6886  -11.9307   21.3339 H   0  0  0  0  0  0
  -28.4741  -13.5580   21.8909 H   0  0  0  0  0  0
  -25.2759   -9.5676   22.4760 H   0  0  0  0  0  0
  -23.9993   -7.4635   22.7476 H   0  0  0  0  0  0
  -21.0849   -8.8765   19.8944 H   0  0  0  0  0  0
  -22.3706  -10.9664   19.6145 H   0  0  0  0  0  0
  -21.1991   -7.6147   23.9706 H   0  0  0  0  0  0
  -21.1472   -6.0527   25.9071 H   0  0  0  0  0  0
  -22.0607   -2.7613   23.2858 H   0  0  0  0  0  0
  -22.4140  -11.9854   22.4731 H   0  0  0  0  0  0
  -21.1140  -13.1211   22.2585 H   0  0  0  0  0  0
  -24.6765  -15.8463   20.5173 H   0  0  0  0  0  0
  -26.2920  -15.6174   20.0765 H   0  0  0  0  0  0
  -26.7186  -32.5533   23.1191 H   0  0  0  0  0  0
  -24.9961  -33.9758   25.0374 H   0  0  0  0  0  0
  -22.6951  -31.3054   21.4096 H   0  0  0  0  0  0
  -23.3741  -35.9655   23.3286 H   0  0  0  0  0  0
  -24.3581  -36.8959   22.2055 H   0  0  0  0  0  0
  -23.7247  -37.6513   23.6689 H   0  0  0  0  0  0
  -26.0580  -31.6026   20.6034 H   0  0  0  0  0  0
  -26.8236  -30.8771   21.9890 H   0  0  0  0  0  0
  -28.1188  -29.0952   21.1473 H   0  0  0  0  0  0
  -26.0552  -25.9599   19.0261 H   0  0  0  0  0  0
  -23.9788  -27.2903   19.0390 H   0  0  0  0  0  0
  -23.7217  -30.5969   19.4034 H   0  0  0  0  0  0
  -22.7432  -29.2374   19.8714 H   0  0  0  0  0  0
  -25.1268  -36.1954   25.0819 H   0  0  0  0  0  0
  -20.9947  -28.3265   24.1410 H   0  0  0  0  0  0
  -20.5661  -26.2282   23.3591 H   0  0  0  0  0  0
  -21.6634  -26.7446   22.1179 H   0  0  0  0  0  0
  -19.6906  -25.6295   21.1223 H   0  0  0  0  0  0
  -19.6670  -27.3200   20.6728 H   0  0  0  0  0  0
  -17.4172  -26.6668   21.4025 H   0  0  0  0  0  0
  -18.0325  -26.0034   22.8985 H   0  0  0  0  0  0
  -19.7942  -30.7241   24.2260 H   0  0  0  0  0  0
  -17.5022  -31.6257   24.5168 H   0  0  0  0  0  0
  -15.5346  -30.2965   23.7663 H   0  0  0  0  0  0
  -15.8667  -28.0815   22.7055 H   0  0  0  0  0  0
  -24.5853  -30.7119   25.7780 H   0  0  0  0  0  0
  -24.8904  -32.2900   26.4935 H   0  0  0  0  0  0
  -25.8006  -30.8876   27.0230 H   0  0  0  0  0  0
  -26.2916  -29.6803   24.1171 H   0  0  0  0  0  0
  -27.4024  -29.7309   25.4665 H   0  0  0  0  0  0
  -27.8771  -30.4352   23.9388 H   0  0  0  0  0  0
  -27.2596  -33.3675   26.2080 H   0  0  0  0  0  0
  -28.3822  -32.6947   25.0349 H   0  0  0  0  0  0
  -28.0682  -31.8519   26.5447 H   0  0  0  0  0  0
  -28.2526  -38.0141   24.7548 H   0  0  0  0  0  0
  -28.1136  -36.2672   24.6197 H   0  0  0  0  0  0
  -27.2305  -37.1329   25.8843 H   0  0  0  0  0  0
  -20.9366  -29.8739   21.6900 H   0  0  0  0  0  0
  -26.0176  -38.2850   24.1437 H   0  0  0  0  0  0
  -30.9021  -20.1203   22.3049 H   0  0  0  0  0  0
  -30.1618  -21.1003   16.2825 H   0  0  0  0  0  0
  -28.4889  -21.1808   15.5130 H   0  0  0  0  0  0
  -28.1064  -23.4211   16.5541 H   0  0  0  0  0  0
  -29.7861  -23.3538   17.2990 H   0  0  0  0  0  0
  -27.4387  -21.3379   17.8015 H   0  0  0  0  0  0
  -31.1698  -17.8316   21.6164 H   0  0  0  0  0  0
  -31.5760  -17.6674   19.9375 H   0  0  0  0  0  0
  -29.4151  -16.6216   19.4153 H   0  0  0  0  0  0
  -28.7329  -17.1507   20.9218 H   0  0  0  0  0  0
  -28.1243  -25.7723   21.9663 H   0  0  0  0  0  0
  -27.2329  -24.9413   20.7358 H   0  0  0  0  0  0
  -29.4120  -23.9312   21.8473 H   0  0  0  0  0  0
  -30.2675  -24.8124   20.6008 H   0  0  0  0  0  0
  -30.1780  -22.2591   21.9170 H   0  0  0  0  0  0
  -29.2961  -19.2337   17.1815 H   0  0  0  0  0  0
  -30.1559  -18.0795   18.0415 H   0  0  0  0  0  0
  -29.1560  -15.1169   21.6315 H   0  0  0  0  0  0
  1 25  1  0  0  0
  1 30  2  0  0  0
  1 85  1  0  0  0
  2  3  1  0  0  0
  2 25  1  0  0  0
  2 87  1  0  0  0
  2 88  1  0  0  0
  3  4  1  0  0  0
  3 89  1  0  0  0
  3 90  1  0  0  0
  4  5  1  0  0  0
  4 91  1  0  0  0
  4 92  1  0  0  0
  5  6  1  0  0  0
  5 26  1  0  0  0
  5 93  1  0  0  0
  6 25  1  0  0  0
  6 94  1  0  0  0
  6 95  1  0  0  0
  7  8  2  0  0  0
  7 26  1  0  0  0
  7 29  1  0  0  0
  8  9  1  0  0  0
  8 22  1  0  0  0
  9 10  1  0  0  0
  9 27  2  0  0  0
 10 11  2  0  0  0
 10 15  1  0  0  0
 11 12  1  0  0  0
 11 96  1  0  0  0
 12 13  2  0  0  0
 12 97  1  0  0  0
 13 14  1  0  0  0
 13 31  1  0  0  0
 14 15  2  0  0  0
 14 98  1  0  0  0
 15 99  1  0  0  0
 16 17  2  0  0  0
 16 21  1  0  0  0
 16 31  1  0  0  0
 17 18  1  0  0  0
 17100  1  0  0  0
 18 19  2  0  0  0
 18101  1  0  0  0
 19 20  1  0  0  0
 19 24  1  0  0  0
 20 21  2  0  0  0
 20102  1  0  0  0
 21 23  1  0  0  0
 22 28  1  0  0  0
 22 32  2  0  0  0
 26 27  1  0  0  0
 28103  1  0  0  0
 28104  1  0  0  0
 29105  1  0  0  0
 29106  1  0  0  0
 33 34  1  0  0  0
 33 66  1  0  0  0
 33 70  2  0  0  0
 34 36  1  0  0  0
 34 59  1  0  0  0
 34107  1  0  0  0
 35 44  2  0  0  0
 35 45  1  0  0  0
 35 68  1  0  0  0
 36 56  1  0  0  0
 36108  1  0  0  0
 37 39  1  0  0  0
 37 47  1  0  0  0
 37 66  1  0  0  0
 37109  1  0  0  0
 38 43  2  0  0  0
 38 46  1  0  0  0
 38 47  1  0  0  0
 39 64  1  0  0  0
 39 67  2  0  0  0
 40 52  1  0  0  0
 40 53  2  0  0  0
 40 58  1  0  0  0
 41110  1  0  0  0
 41111  1  0  0  0
 41112  1  0  0  0
 41 48  1  0  0  0
 42 43  1  0  0  0
 42 66  1  0  0  0
 42113  1  0  0  0
 42114  1  0  0  0
 43 44  1  0  0  0
 44115  1  0  0  0
 45 46  2  0  0  0
 45116  1  0  0  0
 46117  1  0  0  0
 47118  1  0  0  0
 47119  1  0  0  0
 48 56  1  0  0  0
 48 65  1  0  0  0
 48120  1  0  0  0
 49 50  1  0  0  0
 49 53  1  0  0  0
 49 64  1  0  0  0
 49121  1  0  0  0
 50 51  1  0  0  0
 50122  1  0  0  0
 50123  1  0  0  0
 51 52  1  0  0  0
 51124  1  0  0  0
 51125  1  0  0  0
 52126  1  0  0  0
 52127  1  0  0  0
 53 54  1  0  0  0
 54 55  2  0  0  0
 54128  1  0  0  0
 55 57  1  0  0  0
 55129  1  0  0  0
 56 69  2  0  0  0
 57 58  2  0  0  0
 57130  1  0  0  0
 58131  1  0  0  0
 59 60  1  0  0  0
 59 61  1  0  0  0
 59 62  1  0  0  0
 60132  1  0  0  0
 60133  1  0  0  0
 60134  1  0  0  0
 61135  1  0  0  0
 61136  1  0  0  0
 61137  1  0  0  0
 62138  1  0  0  0
 62139  1  0  0  0
 62140  1  0  0  0
 63 65  1  0  0  0
 63141  1  0  0  0
 63142  1  0  0  0
 63143  1  0  0  0
 64144  1  0  0  0
 65145  1  0  0  0
 68 81  1  0  0  0
 71 73  2  0  0  0
 71 83  1  0  0  0
 71146  1  0  0  0
 72 74  2  0  0  0
 72 75  1  0  0  0
 72 78  1  0  0  0
 73 74  1  0  0  0
 73 79  1  0  0  0
 74 84  1  0  0  0
 75 83  2  0  0  0
 75 86  1  0  0  0
 76 77  1  0  0  0
 76 78  1  0  0  0
 76147  1  0  0  0
 76148  1  0  0  0
 77 78  1  0  0  0
 77149  1  0  0  0
 77150  1  0  0  0
 78151  1  0  0  0
 79 80  1  0  0  0
 79152  1  0  0  0
 79153  1  0  0  0
 80 85  1  0  0  0
 80154  1  0  0  0
 80155  1  0  0  0
 81 82  1  0  0  0
 81156  1  0  0  0
 81157  1  0  0  0
 82 86  1  0  0  0
 82158  1  0  0  0
 82159  1  0  0  0
 83160  1  0  0  0
 84161  1  0  0  0
 84162  1  0  0  0
 85163  1  0  0  0
M  CHG  1  83   1
M  ISO  4   1 100  68 101  81 101  85 100
M  END
> <chiral flag>
0

> <version>
0

> <s_m_source_file>
/data/baiqing/PycharmProjects/Reinvent-master-3.2/result/LINK_invent/BTK/process_docking_weight1_custom_sum_contain_oxygen_bond_distance_aromatic_linkinvent_7_9_3/rearranged_h_0153.sdf

> <i_m_source_file_index>
36

> <r_mmod_Potential_Energy-OPLS-2005>
-91.4788589477539

> <r_mmod_Stretch_Energy-OPLS-2005>
44.8542289733887

> <r_mmod_Bend_Energy-OPLS-2005>
115.951278686523

> <r_mmod_Torsional_Energy-OPLS-2005>
264.622406005859

> <r_mmod_Improper_Torsional_Energy-OPLS-2005>
11.4284400939941

> <r_mmod_Van_der_Waal_Energy-OPLS-2005>
154.96305847168

> <r_mmod_Electrostatic_Energy-OPLS-2005>
-277.080688476562

> <r_mmod_Solvation_Energy-OPLS-2005>
-422.764709472656

> <b_mmod_Minimization_Converged-OPLS-2005>
0

> <r_mmod_RMS_Derivative-OPLS-2005>
2.43042182922363

$$$$
36
                    3D
 Structure written by MMmdl.
171180  0  0  1  0            999 V2000
  -30.7501  -14.4030   20.6479 C   0  0  0  0  0  0
  -30.4206  -12.2990   19.4045 C   0  0  0  0  0  0
  -29.4872  -12.5130   18.1977 C   0  0  0  0  0  0
  -28.0110  -12.3731   18.6151 C   0  0  0  0  0  0
  -27.6653  -13.2036   19.8795 C   0  0  2  0  0  0
  -28.7047  -12.9638   20.9965 C   0  0  0  0  0  0
  -25.2599  -13.8144   20.5647 C   0  0  0  0  0  0
  -24.1849  -13.0442   20.9165 C   0  0  0  0  0  0
  -24.6395  -11.6905   20.8734 C   0  0  0  0  0  0
  -23.9057  -10.4300   21.0402 C   0  0  0  0  0  0
  -24.3611   -9.4214   21.9177 C   0  0  0  0  0  0
  -23.6289   -8.2249   22.0750 C   0  0  0  0  0  0
  -22.4272   -8.0285   21.3543 C   0  0  0  0  0  0
  -21.9906   -9.0256   20.4644 C   0  0  0  0  0  0
  -22.7231  -10.2137   20.3053 C   0  0  0  0  0  0
  -21.6852   -6.0740   22.5282 C   0  0  0  0  0  0
  -21.4012   -6.5644   23.8215 C   0  0  0  0  0  0
  -21.3654   -5.6793   24.9175 C   0  0  0  0  0  0
  -21.6045   -4.3058   24.7224 C   0  0  0  0  0  0
  -21.8820   -3.8154   23.4346 C   0  0  0  0  0  0
  -21.9193   -4.6970   22.3405 C   0  0  0  0  0  0
  -22.7878  -13.5252   21.1834 C   0  0  0  0  0  0
  -22.1663   -4.2160   21.0979 F   0  0  0  0  0  0
  -21.5628   -3.4539   25.7735 F   0  0  0  0  0  0
  -30.0417  -13.2607   20.4514 N   0  0  0  0  0  0
  -26.3045  -12.9319   20.3386 N   0  0  0  0  0  0
  -25.9325  -11.6480   20.5780 N   0  0  0  0  0  0
  -22.0515  -12.8246   22.0387 N   0  0  0  0  0  0
  -25.4334  -15.1840   20.3979 N   0  0  0  0  0  0
  -31.8080  -14.6504   20.0640 O   0  0  0  0  0  0
  -21.6639   -6.8881   21.4244 O   0  0  0  0  0  0
  -22.3568  -14.5561   20.6685 O   0  0  0  0  0  0
  -24.6115  -31.8688   23.2110 C   0  0  0  0  0  0
  -25.9022  -32.4826   23.8399 C   0  0  1  0  0  0
  -27.2452  -27.4576   20.1038 C   0  0  0  0  0  0
  -25.5884  -33.8619   24.2331 N   0  0  0  0  0  0
  -23.3991  -30.4888   21.5506 C   0  0  2  0  0  0
  -24.8481  -28.9526   20.1190 C   0  0  0  0  0  0
  -22.7395  -29.4654   22.5019 C   0  0  0  0  0  0
  -18.0262  -28.1365   22.8494 C   0  0  0  0  0  0
  -24.1491  -36.7319   23.2638 C   0  0  0  0  0  0
  -25.9229  -30.8414   21.3594 C   0  0  0  0  0  0
  -26.0037  -29.4754   20.7131 C   0  0  0  0  0  0
  -27.2051  -28.7367   20.7001 C   0  0  0  0  0  0
  -26.0787  -26.9443   19.4997 C   0  0  0  0  0  0
  -24.8789  -27.6835   19.5107 C   0  0  0  0  0  0
  -23.6074  -29.8161   20.1666 C   0  0  0  0  0  0
  -25.4104  -36.3110   24.0344 C   0  0  1  0  0  0
  -20.5853  -28.3648   23.1336 C   0  0  2  0  0  0
  -20.6759  -26.9387   22.5428 C   0  0  0  0  0  0
  -19.5742  -26.6378   21.5219 C   0  0  0  0  0  0
  -18.1911  -26.7913   22.1621 C   0  0  0  0  0  0
  -19.1513  -28.8822   23.2907 C   0  0  0  0  0  0
  -18.9446  -30.1425   23.8916 C   0  0  0  0  0  0
  -17.6455  -30.6578   24.0566 C   0  0  0  0  0  0
  -25.9032  -34.9476   23.5134 C   0  0  0  0  0  0
  -16.5341  -29.9082   23.6324 C   0  0  0  0  0  0
  -16.7251  -28.6495   23.0344 C   0  0  0  0  0  0
  -26.4462  -31.6589   25.0713 C   0  0  0  0  0  0
  -25.3739  -31.3684   26.1478 C   0  0  0  0  0  0
  -27.0292  -30.3043   24.6046 C   0  0  0  0  0  0
  -27.6047  -32.4297   25.7462 C   0  0  0  0  0  0
  -27.5578  -37.1807   24.8456 C   0  0  0  0  0  0
  -21.4129  -29.3015   22.3751 N   0  0  0  0  0  0
  -26.4290  -37.3794   23.9410 N   0  0  0  0  0  0
  -24.6624  -31.0807   22.0995 N   0  0  0  0  0  0
  -23.4166  -28.8216   23.3076 O   0  0  0  0  0  0
  -28.4242  -26.7488   20.0473 O   0  0  0  0  0  0
  -26.5597  -34.8930   22.4698 O   0  0  0  0  0  0
  -23.5319  -32.1436   23.7529 O   0  0  0  0  0  0
  -27.7533  -21.3524   22.8565 C   0  0  0  0  0  0
  -29.3020  -20.4595   20.7843 C   0  0  0  0  0  0
  -28.0034  -19.9683   22.7638 C   0  0  0  0  0  0
  -28.8175  -19.4981   21.7081 C   0  0  0  0  0  0
  -28.3021  -22.2226   21.9059 C   0  0  0  0  0  0
  -25.3074  -17.9850   22.6266 C   0  0  0  0  0  0
  -25.1732  -17.6726   24.0970 C   0  0  0  0  0  0
  -25.9129  -18.9143   23.6518 C   0  0  0  0  0  0
  -27.8069  -19.4247   25.2380 C   0  0  0  0  0  0
  -28.5680  -26.4703   22.5021 C   0  0  0  0  0  0
  -30.8582  -16.5347   21.9293 C   0  0  0  0  0  0
  -27.9194  -24.4975   20.9430 C   0  0  0  0  0  0
  -30.3623  -17.7502   21.1206 C   0  0  0  0  0  0
  -27.4208  -19.0181   23.8074 C   0  0  2  0  0  0
  -28.7045  -25.8216   21.1082 C   0  0  1  0  0  0
  -29.0532  -21.7885   20.8758 N   0  0  0  0  0  0
  -28.1116  -23.5946   22.0767 N   0  0  0  0  0  0
  -30.2288  -15.2751   21.5210 N   0  0  0  0  0  0
  -29.0855  -18.1450   21.6186 O   0  0  0  0  0  0
  -31.4625  -12.4038   19.0953 H   0  0  0  0  0  0
  -30.3291  -11.2810   19.7863 H   0  0  0  0  0  0
  -29.7208  -11.7946   17.4108 H   0  0  0  0  0  0
  -29.6570  -13.5022   17.7693 H   0  0  0  0  0  0
  -27.8171  -11.3161   18.8019 H   0  0  0  0  0  0
  -27.3591  -12.6586   17.7894 H   0  0  0  0  0  0
  -27.7186  -14.2553   19.5969 H   0  0  0  0  0  0
  -28.6739  -11.9238   21.3242 H   0  0  0  0  0  0
  -28.4565  -13.5507   21.8810 H   0  0  0  0  0  0
  -25.2758   -9.5697   22.4746 H   0  0  0  0  0  0
  -24.0005   -7.4643   22.7465 H   0  0  0  0  0  0
  -21.0839   -8.8772   19.8947 H   0  0  0  0  0  0
  -22.3686  -10.9676   19.6162 H   0  0  0  0  0  0
  -21.2003   -7.6151   23.9722 H   0  0  0  0  0  0
  -21.1474   -6.0522   25.9077 H   0  0  0  0  0  0
  -22.0604   -2.7619   23.2842 H   0  0  0  0  0  0
  -22.4125  -11.9909   22.4789 H   0  0  0  0  0  0
  -21.1129  -13.1271   22.2574 H   0  0  0  0  0  0
  -24.6745  -15.8448   20.5177 H   0  0  0  0  0  0
  -26.2979  -15.6204   20.1032 H   0  0  0  0  0  0
  -26.7102  -32.5569   23.1176 H   0  0  0  0  0  0
  -25.0040  -33.9777   25.0479 H   0  0  0  0  0  0
  -22.6883  -31.3048   21.4093 H   0  0  0  0  0  0
  -23.3747  -35.9659   23.3302 H   0  0  0  0  0  0
  -24.3594  -36.8940   22.2053 H   0  0  0  0  0  0
  -23.7252  -37.6525   23.6658 H   0  0  0  0  0  0
  -26.0252  -31.6039   20.5870 H   0  0  0  0  0  0
  -26.8143  -30.9026   21.9720 H   0  0  0  0  0  0
  -28.1009  -29.1440   21.1479 H   0  0  0  0  0  0
  -26.1041  -25.9790   19.0145 H   0  0  0  0  0  0
  -23.9922  -27.2755   19.0461 H   0  0  0  0  0  0
  -23.7154  -30.5890   19.4052 H   0  0  0  0  0  0
  -22.7320  -29.2334   19.8737 H   0  0  0  0  0  0
  -25.1274  -36.1975   25.0839 H   0  0  0  0  0  0
  -20.9929  -28.3218   24.1464 H   0  0  0  0  0  0
  -20.5686  -26.2251   23.3608 H   0  0  0  0  0  0
  -21.6629  -26.7452   22.1209 H   0  0  0  0  0  0
  -19.6922  -25.6300   21.1222 H   0  0  0  0  0  0
  -19.6692  -27.3215   20.6768 H   0  0  0  0  0  0
  -17.4187  -26.6666   21.4007 H   0  0  0  0  0  0
  -18.0300  -26.0046   22.9009 H   0  0  0  0  0  0
  -19.7930  -30.7216   24.2311 H   0  0  0  0  0  0
  -17.5016  -31.6267   24.5143 H   0  0  0  0  0  0
  -15.5343  -30.2989   23.7640 H   0  0  0  0  0  0
  -15.8652  -28.0826   22.7049 H   0  0  0  0  0  0
  -24.5903  -30.7040   25.7815 H   0  0  0  0  0  0
  -24.8931  -32.2835   26.4949 H   0  0  0  0  0  0
  -25.8099  -30.8833   27.0221 H   0  0  0  0  0  0
  -26.2821  -29.6809   24.1120 H   0  0  0  0  0  0
  -27.4107  -29.7267   25.4471 H   0  0  0  0  0  0
  -27.8635  -30.4373   23.9155 H   0  0  0  0  0  0
  -27.2671  -33.3586   26.2074 H   0  0  0  0  0  0
  -28.3829  -32.6881   25.0264 H   0  0  0  0  0  0
  -28.0746  -31.8395   26.5345 H   0  0  0  0  0  0
  -28.2580  -38.0117   24.7515 H   0  0  0  0  0  0
  -28.1085  -36.2649   24.6252 H   0  0  0  0  0  0
  -27.2302  -37.1420   25.8861 H   0  0  0  0  0  0
  -20.9285  -29.8733   21.6978 H   0  0  0  0  0  0
  -26.0186  -38.2873   24.1429 H   0  0  0  0  0  0
  -27.1482  -21.7346   23.6661 H   0  0  0  0  0  0
  -29.9095  -20.1620   19.9425 H   0  0  0  0  0  0
  -24.4170  -18.3230   22.0994 H   0  0  0  0  0  0
  -25.9944  -17.3788   22.0393 H   0  0  0  0  0  0
  -25.7561  -16.8401   24.4869 H   0  0  0  0  0  0
  -24.1970  -17.8112   24.5572 H   0  0  0  0  0  0
  -25.3892  -19.8566   23.8023 H   0  0  0  0  0  0
  -28.8905  -19.4821   25.3457 H   0  0  0  0  0  0
  -27.4406  -18.6960   25.9613 H   0  0  0  0  0  0
  -27.3910  -20.3937   25.5127 H   0  0  0  0  0  0
  -28.9593  -25.8182   23.2828 H   0  0  0  0  0  0
  -27.5294  -26.6909   22.7479 H   0  0  0  0  0  0
  -29.1345  -27.4003   22.5579 H   0  0  0  0  0  0
  -30.6784  -16.6980   22.9928 H   0  0  0  0  0  0
  -31.9429  -16.4604   21.8311 H   0  0  0  0  0  0
  -28.1987  -24.0244   20.0012 H   0  0  0  0  0  0
  -26.8514  -24.7027   20.8782 H   0  0  0  0  0  0
  -30.3062  -17.5268   20.0544 H   0  0  0  0  0  0
  -31.0940  -18.5504   21.2458 H   0  0  0  0  0  0
  -27.8352  -18.0229   23.6468 H   0  0  0  0  0  0
  -29.7607  -25.5748   20.9921 H   0  0  0  0  0  0
  -27.5958  -23.8559   22.9084 H   0  0  0  0  0  0
  -29.3448  -15.0357   21.9456 H   0  0  0  0  0  0
  1 25  1  0  0  0
  1 30  2  0  0  0
  1 88  1  0  0  0
  2  3  1  0  0  0
  2 25  1  0  0  0
  2 90  1  0  0  0
  2 91  1  0  0  0
  3  4  1  0  0  0
  3 92  1  0  0  0
  3 93  1  0  0  0
  4  5  1  0  0  0
  4 94  1  0  0  0
  4 95  1  0  0  0
  5  6  1  0  0  0
  5 26  1  0  0  0
  5 96  1  0  0  0
  6 25  1  0  0  0
  6 97  1  0  0  0
  6 98  1  0  0  0
  7  8  2  0  0  0
  7 26  1  0  0  0
  7 29  1  0  0  0
  8  9  1  0  0  0
  8 22  1  0  0  0
  9 10  1  0  0  0
  9 27  2  0  0  0
 10 11  2  0  0  0
 10 15  1  0  0  0
 11 12  1  0  0  0
 11 99  1  0  0  0
 12 13  2  0  0  0
 12100  1  0  0  0
 13 14  1  0  0  0
 13 31  1  0  0  0
 14 15  2  0  0  0
 14101  1  0  0  0
 15102  1  0  0  0
 16 17  2  0  0  0
 16 21  1  0  0  0
 16 31  1  0  0  0
 17 18  1  0  0  0
 17103  1  0  0  0
 18 19  2  0  0  0
 18104  1  0  0  0
 19 20  1  0  0  0
 19 24  1  0  0  0
 20 21  2  0  0  0
 20105  1  0  0  0
 21 23  1  0  0  0
 22 28  1  0  0  0
 22 32  2  0  0  0
 26 27  1  0  0  0
 28106  1  0  0  0
 28107  1  0  0  0
 29108  1  0  0  0
 29109  1  0  0  0
 33 34  1  0  0  0
 33 66  1  0  0  0
 33 70  2  0  0  0
 34 36  1  0  0  0
 34 59  1  0  0  0
 34110  1  0  0  0
 35 44  2  0  0  0
 35 45  1  0  0  0
 35 68  1  0  0  0
 36 56  1  0  0  0
 36111  1  0  0  0
 37 39  1  0  0  0
 37 47  1  0  0  0
 37 66  1  0  0  0
 37112  1  0  0  0
 38 43  2  0  0  0
 38 46  1  0  0  0
 38 47  1  0  0  0
 39 64  1  0  0  0
 39 67  2  0  0  0
 40 52  1  0  0  0
 40 53  2  0  0  0
 40 58  1  0  0  0
 41113  1  0  0  0
 41114  1  0  0  0
 41115  1  0  0  0
 41 48  1  0  0  0
 42 43  1  0  0  0
 42 66  1  0  0  0
 42116  1  0  0  0
 42117  1  0  0  0
 43 44  1  0  0  0
 44118  1  0  0  0
 45 46  2  0  0  0
 45119  1  0  0  0
 46120  1  0  0  0
 47121  1  0  0  0
 47122  1  0  0  0
 48 56  1  0  0  0
 48 65  1  0  0  0
 48123  1  0  0  0
 49 50  1  0  0  0
 49 53  1  0  0  0
 49 64  1  0  0  0
 49124  1  0  0  0
 50 51  1  0  0  0
 50125  1  0  0  0
 50126  1  0  0  0
 51 52  1  0  0  0
 51127  1  0  0  0
 51128  1  0  0  0
 52129  1  0  0  0
 52130  1  0  0  0
 53 54  1  0  0  0
 54 55  2  0  0  0
 54131  1  0  0  0
 55 57  1  0  0  0
 55132  1  0  0  0
 56 69  2  0  0  0
 57 58  2  0  0  0
 57133  1  0  0  0
 58134  1  0  0  0
 59 60  1  0  0  0
 59 61  1  0  0  0
 59 62  1  0  0  0
 60135  1  0  0  0
 60136  1  0  0  0
 60137  1  0  0  0
 61138  1  0  0  0
 61139  1  0  0  0
 61140  1  0  0  0
 62141  1  0  0  0
 62142  1  0  0  0
 62143  1  0  0  0
 63 65  1  0  0  0
 63144  1  0  0  0
 63145  1  0  0  0
 63146  1  0  0  0
 64147  1  0  0  0
 65148  1  0  0  0
 68 85  1  0  0  0
 71 73  2  0  0  0
 71 75  1  0  0  0
 71149  1  0  0  0
 72 74  2  0  0  0
 72 86  1  0  0  0
 72150  1  0  0  0
 73 74  1  0  0  0
 73 84  1  0  0  0
 74 89  1  0  0  0
 75 86  2  0  0  0
 75 87  1  0  0  0
 76 77  1  0  0  0
 76151  1  0  0  0
 76152  1  0  0  0
 76 78  1  0  0  0
 77 78  1  0  0  0
 77153  1  0  0  0
 77154  1  0  0  0
 78 84  1  0  0  0
 78155  1  0  0  0
 79156  1  0  0  0
 79157  1  0  0  0
 79158  1  0  0  0
 79 84  1  0  0  0
 80159  1  0  0  0
 80160  1  0  0  0
 80161  1  0  0  0
 80 85  1  0  0  0
 81 83  1  0  0  0
 81 88  1  0  0  0
 81162  1  0  0  0
 81163  1  0  0  0
 82 85  1  0  0  0
 82 87  1  0  0  0
 82164  1  0  0  0
 82165  1  0  0  0
 83 89  1  0  0  0
 83166  1  0  0  0
 83167  1  0  0  0
 84168  1  0  0  0
 85169  1  0  0  0
 87170  1  0  0  0
 88171  1  0  0  0
M  ISO  4   1 100  68 101  85 101  88 100
M  END
> <chiral flag>
0

> <version>
0

> <s_m_source_file>
/data/baiqing/PycharmProjects/Reinvent-master-3.2/result/LINK_invent/BTK/process_docking_weight1_custom_sum_contain_oxygen_bond_distance_aromatic_linkinvent_7_9_3/rearranged_h_0153.sdf

> <i_m_source_file_index>
37

> <r_mmod_Potential_Energy-OPLS-2005>
-279.238067626953

> <r_mmod_Stretch_Energy-OPLS-2005>
34.6305809020996

> <r_mmod_Bend_Energy-OPLS-2005>
107.645416259766

> <r_mmod_Torsional_Energy-OPLS-2005>
273.965209960938

> <r_mmod_Improper_Torsional_Energy-OPLS-2005>
4.50178909301758

> <r_mmod_Van_der_Waal_Energy-OPLS-2005>
153.509475708008

> <r_mmod_Electrostatic_Energy-OPLS-2005>
-639.544799804688

> <r_mmod_Solvation_Energy-OPLS-2005>
-220.980926513672

> <b_mmod_Minimization_Converged-OPLS-2005>
0

> <r_mmod_RMS_Derivative-OPLS-2005>
1.4669246673584

$$$$
37
                    3D
 Structure written by MMmdl.
162170  0  0  1  0            999 V2000
  -30.7009  -14.4599   20.5777 C   0  0  0  0  0  0
  -30.4251  -12.3000   19.4246 C   0  0  0  0  0  0
  -29.4987  -12.5009   18.2064 C   0  0  0  0  0  0
  -28.0172  -12.3691   18.6159 C   0  0  0  0  0  0
  -27.6639  -13.2034   19.8771 C   0  0  2  0  0  0
  -28.7045  -12.9768   20.9982 C   0  0  0  0  0  0
  -25.2596  -13.8148   20.5667 C   0  0  0  0  0  0
  -24.1846  -13.0424   20.9157 C   0  0  0  0  0  0
  -24.6390  -11.6889   20.8722 C   0  0  0  0  0  0
  -23.9051  -10.4274   21.0385 C   0  0  0  0  0  0
  -24.3606   -9.4200   21.9169 C   0  0  0  0  0  0
  -23.6282   -8.2237   22.0760 C   0  0  0  0  0  0
  -22.4265   -8.0270   21.3552 C   0  0  0  0  0  0
  -21.9885   -9.0248   20.4660 C   0  0  0  0  0  0
  -22.7209  -10.2121   20.3056 C   0  0  0  0  0  0
  -21.6849   -6.0737   22.5283 C   0  0  0  0  0  0
  -21.4009   -6.5640   23.8220 C   0  0  0  0  0  0
  -21.3660   -5.6789   24.9178 C   0  0  0  0  0  0
  -21.6054   -4.3058   24.7229 C   0  0  0  0  0  0
  -21.8814   -3.8152   23.4340 C   0  0  0  0  0  0
  -21.9185   -4.6969   22.3402 C   0  0  0  0  0  0
  -22.7879  -13.5234   21.1826 C   0  0  0  0  0  0
  -22.1650   -4.2160   21.0978 F   0  0  0  0  0  0
  -21.5640   -3.4526   25.7736 F   0  0  0  0  0  0
  -30.0351  -13.2823   20.4466 N   0  0  0  0  0  0
  -26.3026  -12.9307   20.3358 N   0  0  0  0  0  0
  -25.9318  -11.6469   20.5747 N   0  0  0  0  0  0
  -22.0520  -12.8262   22.0400 N   0  0  0  0  0  0
  -25.4337  -15.1865   20.4080 N   0  0  0  0  0  0
  -31.8204  -14.6601   20.1017 O   0  0  0  0  0  0
  -21.6646   -6.8865   21.4242 O   0  0  0  0  0  0
  -22.3574  -14.5538   20.6659 O   0  0  0  0  0  0
  -24.6142  -31.8677   23.2108 C   0  0  0  0  0  0
  -25.9031  -32.4837   23.8391 C   0  0  1  0  0  0
  -27.2252  -27.4248   20.0967 C   0  0  0  0  0  0
  -25.5881  -33.8634   24.2319 N   0  0  0  0  0  0
  -23.4003  -30.4927   21.5532 C   0  0  2  0  0  0
  -24.8416  -28.9583   20.1168 C   0  0  0  0  0  0
  -22.7400  -29.4662   22.5010 C   0  0  0  0  0  0
  -18.0266  -28.1386   22.8480 C   0  0  0  0  0  0
  -24.1482  -36.7329   23.2636 C   0  0  0  0  0  0
  -25.9282  -30.8326   21.3590 C   0  0  0  0  0  0
  -26.0034  -29.4645   20.7111 C   0  0  0  0  0  0
  -27.1962  -28.7051   20.6971 C   0  0  0  0  0  0
  -26.0417  -26.9409   19.4864 C   0  0  0  0  0  0
  -24.8548  -27.6953   19.5040 C   0  0  0  0  0  0
  -23.6054  -29.8258   20.1673 C   0  0  0  0  0  0
  -25.4109  -36.3123   24.0329 C   0  0  1  0  0  0
  -20.5851  -28.3668   23.1334 C   0  0  2  0  0  0
  -20.6757  -26.9401   22.5451 C   0  0  0  0  0  0
  -19.5761  -26.6381   21.5223 C   0  0  0  0  0  0
  -18.1923  -26.7938   22.1600 C   0  0  0  0  0  0
  -19.1513  -28.8840   23.2904 C   0  0  0  0  0  0
  -18.9444  -30.1446   23.8921 C   0  0  0  0  0  0
  -17.6451  -30.6591   24.0571 C   0  0  0  0  0  0
  -25.9028  -34.9488   23.5118 C   0  0  0  0  0  0
  -16.5340  -29.9096   23.6327 C   0  0  0  0  0  0
  -16.7259  -28.6510   23.0344 C   0  0  0  0  0  0
  -26.4460  -31.6629   25.0719 C   0  0  0  0  0  0
  -25.3737  -31.3760   26.1485 C   0  0  0  0  0  0
  -27.0251  -30.3065   24.6072 C   0  0  0  0  0  0
  -27.6053  -32.4340   25.7463 C   0  0  0  0  0  0
  -27.5582  -37.1819   24.8465 C   0  0  0  0  0  0
  -21.4130  -29.3029   22.3740 N   0  0  0  0  0  0
  -26.4303  -37.3801   23.9396 N   0  0  0  0  0  0
  -24.6671  -31.0781   22.1010 N   0  0  0  0  0  0
  -23.4178  -28.8202   23.3044 O   0  0  0  0  0  0
  -28.3985  -26.6928   20.1429 O   0  0  0  0  0  0
  -26.5600  -34.8931   22.4689 O   0  0  0  0  0  0
  -23.5339  -32.1420   23.7519 O   0  0  0  0  0  0
  -29.7318  -20.7694   21.4945 C   0  0  0  0  0  0
  -29.8111  -22.1804   21.5422 C   0  0  0  0  0  0
  -29.4276  -22.9464   20.4005 C   0  0  0  0  0  0
  -29.0063  -22.2053   19.2594 C   0  0  0  0  0  0
  -29.2776  -20.1415   20.3206 C   0  0  0  0  0  0
  -30.3400  -22.8198   22.8186 C   0  0  0  0  0  0
  -28.6281  -22.8295   17.9286 C   0  0  0  0  0  0
  -30.8778  -24.9594   19.8168 C   0  0  0  0  0  0
  -30.3821  -16.8849   21.0948 C   0  0  0  0  0  0
  -29.1666  -17.8425   21.1812 C   0  0  0  0  0  0
  -28.3307  -25.2908   19.8366 C   0  0  0  0  0  0
  -29.5389  -24.4993   20.4154 C   0  0  1  0  0  0
  -28.9302  -20.8576   19.2388 N   0  0  0  0  0  0
  -29.9947  -15.4644   21.1226 N   0  0  0  0  0  0
  -29.1721  -18.7818   20.1017 O   0  0  0  0  0  0
  -31.4700  -12.4000   19.1250 H   0  0  0  0  0  0
  -30.3247  -11.2887   19.8221 H   0  0  0  0  0  0
  -29.7393  -11.7716   17.4313 H   0  0  0  0  0  0
  -29.6723  -13.4857   17.7681 H   0  0  0  0  0  0
  -27.8177  -11.3125   18.8008 H   0  0  0  0  0  0
  -27.3724  -12.6567   17.7850 H   0  0  0  0  0  0
  -27.7090  -14.2535   19.5872 H   0  0  0  0  0  0
  -28.6815  -11.9382   21.3333 H   0  0  0  0  0  0
  -28.4686  -13.5709   21.8823 H   0  0  0  0  0  0
  -25.2736   -9.5696   22.4754 H   0  0  0  0  0  0
  -24.0001   -7.4633   22.7470 H   0  0  0  0  0  0
  -21.0815   -8.8755   19.8960 H   0  0  0  0  0  0
  -22.3643  -10.9678   19.6187 H   0  0  0  0  0  0
  -21.1999   -7.6152   23.9714 H   0  0  0  0  0  0
  -21.1492   -6.0531   25.9080 H   0  0  0  0  0  0
  -22.0595   -2.7619   23.2839 H   0  0  0  0  0  0
  -22.4115  -11.9914   22.4798 H   0  0  0  0  0  0
  -21.1163  -13.1363   22.2610 H   0  0  0  0  0  0
  -24.6658  -15.8406   20.5093 H   0  0  0  0  0  0
  -26.2793  -15.6227   20.0633 H   0  0  0  0  0  0
  -26.7095  -32.5539   23.1146 H   0  0  0  0  0  0
  -25.0034  -33.9804   25.0463 H   0  0  0  0  0  0
  -22.6886  -31.3094   21.4167 H   0  0  0  0  0  0
  -23.3719  -35.9691   23.3360 H   0  0  0  0  0  0
  -24.3557  -36.8883   22.2036 H   0  0  0  0  0  0
  -23.7265  -37.6566   23.6614 H   0  0  0  0  0  0
  -26.0239  -31.5909   20.5807 H   0  0  0  0  0  0
  -26.8243  -30.8998   21.9640 H   0  0  0  0  0  0
  -28.0943  -29.0885   21.1604 H   0  0  0  0  0  0
  -26.0069  -25.9812   18.9917 H   0  0  0  0  0  0
  -23.9578  -27.3020   19.0440 H   0  0  0  0  0  0
  -23.7122  -30.5991   19.4054 H   0  0  0  0  0  0
  -22.7282  -29.2451   19.8763 H   0  0  0  0  0  0
  -25.1294  -36.1992   25.0824 H   0  0  0  0  0  0
  -20.9934  -28.3241   24.1459 H   0  0  0  0  0  0
  -20.5631  -26.2283   23.3643 H   0  0  0  0  0  0
  -21.6640  -26.7436   22.1270 H   0  0  0  0  0  0
  -19.6925  -25.6286   21.1270 H   0  0  0  0  0  0
  -19.6729  -27.3179   20.6746 H   0  0  0  0  0  0
  -17.4214  -26.6699   21.3981 H   0  0  0  0  0  0
  -18.0298  -26.0072   22.8979 H   0  0  0  0  0  0
  -19.7921  -30.7249   24.2309 H   0  0  0  0  0  0
  -17.5009  -31.6273   24.5169 H   0  0  0  0  0  0
  -15.5344  -30.3009   23.7650 H   0  0  0  0  0  0
  -15.8652  -28.0848   22.7052 H   0  0  0  0  0  0
  -24.5929  -30.7059   25.7867 H   0  0  0  0  0  0
  -24.8893  -32.2922   26.4882 H   0  0  0  0  0  0
  -25.8102  -30.9003   27.0274 H   0  0  0  0  0  0
  -26.2758  -29.6868   24.1125 H   0  0  0  0  0  0
  -27.4016  -29.7271   25.4509 H   0  0  0  0  0  0
  -27.8609  -30.4380   23.9193 H   0  0  0  0  0  0
  -27.2682  -33.3621   26.2094 H   0  0  0  0  0  0
  -28.3828  -32.6937   25.0266 H   0  0  0  0  0  0
  -28.0763  -31.8436   26.5330 H   0  0  0  0  0  0
  -28.2662  -38.0055   24.7442 H   0  0  0  0  0  0
  -28.1009  -36.2588   24.6370 H   0  0  0  0  0  0
  -27.2297  -37.1584   25.8871 H   0  0  0  0  0  0
  -20.9294  -29.8734   21.6946 H   0  0  0  0  0  0
  -26.0197  -38.2887   24.1381 H   0  0  0  0  0  0
  -30.0461  -20.1888   22.3492 H   0  0  0  0  0  0
  -30.6749  -22.0663   23.5313 H   0  0  0  0  0  0
  -29.5688  -23.4098   23.3141 H   0  0  0  0  0  0
  -31.1960  -23.4620   22.6103 H   0  0  0  0  0  0
  -29.3165  -23.6221   17.6431 H   0  0  0  0  0  0
  -27.6126  -23.2240   17.9671 H   0  0  0  0  0  0
  -28.6555  -22.0944   17.1243 H   0  0  0  0  0  0
  -31.7158  -24.5240   20.3615 H   0  0  0  0  0  0
  -30.9807  -26.0424   19.8835 H   0  0  0  0  0  0
  -30.9843  -24.6808   18.7689 H   0  0  0  0  0  0
  -31.0724  -17.0846   21.9153 H   0  0  0  0  0  0
  -30.9372  -17.0912   20.1771 H   0  0  0  0  0  0
  -29.0852  -18.2897   22.1708 H   0  0  0  0  0  0
  -28.2436  -17.2754   21.0582 H   0  0  0  0  0  0
  -27.4236  -24.8535   20.2556 H   0  0  0  0  0  0
  -28.2703  -25.2245   18.7538 H   0  0  0  0  0  0
  -29.5571  -24.8087   21.4584 H   0  0  0  0  0  0
  -29.0777  -15.2342   21.4743 H   0  0  0  0  0  0
  1 25  1  0  0  0
  1 30  2  0  0  0
  1 84  1  0  0  0
  2  3  1  0  0  0
  2 25  1  0  0  0
  2 86  1  0  0  0
  2 87  1  0  0  0
  3  4  1  0  0  0
  3 88  1  0  0  0
  3 89  1  0  0  0
  4  5  1  0  0  0
  4 90  1  0  0  0
  4 91  1  0  0  0
  5  6  1  0  0  0
  5 26  1  0  0  0
  5 92  1  0  0  0
  6 25  1  0  0  0
  6 93  1  0  0  0
  6 94  1  0  0  0
  7  8  2  0  0  0
  7 26  1  0  0  0
  7 29  1  0  0  0
  8  9  1  0  0  0
  8 22  1  0  0  0
  9 10  1  0  0  0
  9 27  2  0  0  0
 10 11  2  0  0  0
 10 15  1  0  0  0
 11 12  1  0  0  0
 11 95  1  0  0  0
 12 13  2  0  0  0
 12 96  1  0  0  0
 13 14  1  0  0  0
 13 31  1  0  0  0
 14 15  2  0  0  0
 14 97  1  0  0  0
 15 98  1  0  0  0
 16 17  2  0  0  0
 16 21  1  0  0  0
 16 31  1  0  0  0
 17 18  1  0  0  0
 17 99  1  0  0  0
 18 19  2  0  0  0
 18100  1  0  0  0
 19 20  1  0  0  0
 19 24  1  0  0  0
 20 21  2  0  0  0
 20101  1  0  0  0
 21 23  1  0  0  0
 22 28  1  0  0  0
 22 32  2  0  0  0
 26 27  1  0  0  0
 28102  1  0  0  0
 28103  1  0  0  0
 29104  1  0  0  0
 29105  1  0  0  0
 33 34  1  0  0  0
 33 66  1  0  0  0
 33 70  2  0  0  0
 34 36  1  0  0  0
 34 59  1  0  0  0
 34106  1  0  0  0
 35 44  2  0  0  0
 35 45  1  0  0  0
 35 68  1  0  0  0
 36 56  1  0  0  0
 36107  1  0  0  0
 37 39  1  0  0  0
 37 47  1  0  0  0
 37 66  1  0  0  0
 37108  1  0  0  0
 38 43  2  0  0  0
 38 46  1  0  0  0
 38 47  1  0  0  0
 39 64  1  0  0  0
 39 67  2  0  0  0
 40 52  1  0  0  0
 40 53  2  0  0  0
 40 58  1  0  0  0
 41109  1  0  0  0
 41110  1  0  0  0
 41111  1  0  0  0
 41 48  1  0  0  0
 42 43  1  0  0  0
 42 66  1  0  0  0
 42112  1  0  0  0
 42113  1  0  0  0
 43 44  1  0  0  0
 44114  1  0  0  0
 45 46  2  0  0  0
 45115  1  0  0  0
 46116  1  0  0  0
 47117  1  0  0  0
 47118  1  0  0  0
 48 56  1  0  0  0
 48 65  1  0  0  0
 48119  1  0  0  0
 49 50  1  0  0  0
 49 53  1  0  0  0
 49 64  1  0  0  0
 49120  1  0  0  0
 50 51  1  0  0  0
 50121  1  0  0  0
 50122  1  0  0  0
 51 52  1  0  0  0
 51123  1  0  0  0
 51124  1  0  0  0
 52125  1  0  0  0
 52126  1  0  0  0
 53 54  1  0  0  0
 54 55  2  0  0  0
 54127  1  0  0  0
 55 57  1  0  0  0
 55128  1  0  0  0
 56 69  2  0  0  0
 57 58  2  0  0  0
 57129  1  0  0  0
 58130  1  0  0  0
 59 60  1  0  0  0
 59 61  1  0  0  0
 59 62  1  0  0  0
 60131  1  0  0  0
 60132  1  0  0  0
 60133  1  0  0  0
 61134  1  0  0  0
 61135  1  0  0  0
 61136  1  0  0  0
 62137  1  0  0  0
 62138  1  0  0  0
 62139  1  0  0  0
 63 65  1  0  0  0
 63140  1  0  0  0
 63141  1  0  0  0
 63142  1  0  0  0
 64143  1  0  0  0
 65144  1  0  0  0
 68 81  1  0  0  0
 71 72  2  0  0  0
 71 75  1  0  0  0
 71145  1  0  0  0
 72 73  1  0  0  0
 72 76  1  0  0  0
 73 74  2  0  0  0
 73 82  1  0  0  0
 74 77  1  0  0  0
 74 83  1  0  0  0
 75 83  2  0  0  0
 75 85  1  0  0  0
 76146  1  0  0  0
 76147  1  0  0  0
 76148  1  0  0  0
 77149  1  0  0  0
 77150  1  0  0  0
 77151  1  0  0  0
 78152  1  0  0  0
 78153  1  0  0  0
 78154  1  0  0  0
 78 82  1  0  0  0
 79 80  1  0  0  0
 79 84  1  0  0  0
 79155  1  0  0  0
 79156  1  0  0  0
 80 85  1  0  0  0
 80157  1  0  0  0
 80158  1  0  0  0
 81 82  1  0  0  0
 81159  1  0  0  0
 81160  1  0  0  0
 82161  1  0  0  0
 84162  1  0  0  0
M  ISO  4   1 100  68 101  81 101  84 100
M  END
> <chiral flag>
0

> <version>
0

> <s_m_source_file>
/data/baiqing/PycharmProjects/Reinvent-master-3.2/result/LINK_invent/BTK/process_docking_weight1_custom_sum_contain_oxygen_bond_distance_aromatic_linkinvent_7_9_3/rearranged_h_0153.sdf

> <i_m_source_file_index>
38

> <r_mmod_Potential_Energy-OPLS-2005>
-272.836517333984

> <r_mmod_Stretch_Energy-OPLS-2005>
40.81298828125

> <r_mmod_Bend_Energy-OPLS-2005>
119.544990539551

> <r_mmod_Torsional_Energy-OPLS-2005>
208.263885498047

> <r_mmod_Improper_Torsional_Energy-OPLS-2005>
3.90353941917419

> <r_mmod_Van_der_Waal_Energy-OPLS-2005>
169.024063110352

> <r_mmod_Electrostatic_Energy-OPLS-2005>
-602.380920410156

> <r_mmod_Solvation_Energy-OPLS-2005>
-225.2783203125

> <b_mmod_Minimization_Converged-OPLS-2005>
0

> <r_mmod_RMS_Derivative-OPLS-2005>
2.21210527420044

$$$$
38
                    3D
 Structure written by MMmdl.
173182  0  0  1  0            999 V2000
  -30.6920  -14.6588   20.4895 C   0  0  0  0  0  0
  -30.4200  -12.4225   19.4349 C   0  0  0  0  0  0
  -29.4871  -12.4923   18.2094 C   0  0  0  0  0  0
  -28.0177  -12.3027   18.6355 C   0  0  0  0  0  0
  -27.6381  -13.1905   19.8471 C   0  0  2  0  0  0
  -28.7007  -13.0854   20.9720 C   0  0  0  0  0  0
  -25.2501  -13.8089   20.5651 C   0  0  0  0  0  0
  -24.1777  -13.0387   20.9201 C   0  0  0  0  0  0
  -24.6336  -11.6856   20.8774 C   0  0  0  0  0  0
  -23.9013  -10.4256   21.0434 C   0  0  0  0  0  0
  -24.3575   -9.4176   21.9199 C   0  0  0  0  0  0
  -23.6260   -8.2209   22.0757 C   0  0  0  0  0  0
  -22.4248   -8.0250   21.3537 C   0  0  0  0  0  0
  -21.9876   -9.0224   20.4646 C   0  0  0  0  0  0
  -22.7199  -10.2104   20.3071 C   0  0  0  0  0  0
  -21.6836   -6.0719   22.5281 C   0  0  0  0  0  0
  -21.4001   -6.5630   23.8213 C   0  0  0  0  0  0
  -21.3656   -5.6786   24.9177 C   0  0  0  0  0  0
  -21.6051   -4.3049   24.7231 C   0  0  0  0  0  0
  -21.8821   -3.8136   23.4353 C   0  0  0  0  0  0
  -21.9180   -4.6949   22.3407 C   0  0  0  0  0  0
  -22.7811  -13.5204   21.1860 C   0  0  0  0  0  0
  -22.1655   -4.2136   21.0984 F   0  0  0  0  0  0
  -21.5629   -3.4537   25.7743 F   0  0  0  0  0  0
  -29.9833  -13.4806   20.3762 N   0  0  0  0  0  0
  -26.2906  -12.9221   20.3297 N   0  0  0  0  0  0
  -25.9256  -11.6409   20.5810 N   0  0  0  0  0  0
  -22.0456  -12.8215   22.0431 N   0  0  0  0  0  0
  -25.4148  -15.1799   20.3986 N   0  0  0  0  0  0
  -31.8970  -14.6364   20.2221 O   0  0  0  0  0  0
  -21.6613   -6.8855   21.4239 O   0  0  0  0  0  0
  -22.3505  -14.5508   20.6696 O   0  0  0  0  0  0
  -24.6211  -31.8627   23.2045 C   0  0  0  0  0  0
  -25.9074  -32.4799   23.8364 C   0  0  1  0  0  0
  -27.2366  -27.3743   20.1127 C   0  0  0  0  0  0
  -25.5899  -33.8596   24.2294 N   0  0  0  0  0  0
  -23.4139  -30.4832   21.5465 C   0  0  2  0  0  0
  -24.8628  -28.9382   20.1161 C   0  0  0  0  0  0
  -22.7449  -29.4631   22.4969 C   0  0  0  0  0  0
  -18.0295  -28.1368   22.8496 C   0  0  0  0  0  0
  -24.1487  -36.7299   23.2640 C   0  0  0  0  0  0
  -25.9475  -30.8114   21.3649 C   0  0  0  0  0  0
  -26.0271  -29.4410   20.7115 C   0  0  0  0  0  0
  -27.2204  -28.6693   20.6996 C   0  0  0  0  0  0
  -26.0534  -26.9006   19.5089 C   0  0  0  0  0  0
  -24.8732  -27.6700   19.5087 C   0  0  0  0  0  0
  -23.6268  -29.8113   20.1638 C   0  0  0  0  0  0
  -25.4109  -36.3097   24.0336 C   0  0  1  0  0  0
  -20.5884  -28.3662   23.1306 C   0  0  2  0  0  0
  -20.6783  -26.9392   22.5412 C   0  0  0  0  0  0
  -19.5759  -26.6372   21.5214 C   0  0  0  0  0  0
  -18.1943  -26.7918   22.1624 C   0  0  0  0  0  0
  -19.1542  -28.8827   23.2908 C   0  0  0  0  0  0
  -18.9467  -30.1434   23.8918 C   0  0  0  0  0  0
  -17.6472  -30.6577   24.0567 C   0  0  0  0  0  0
  -25.9041  -34.9464   23.5119 C   0  0  0  0  0  0
  -16.5363  -29.9081   23.6328 C   0  0  0  0  0  0
  -16.7283  -28.6497   23.0350 C   0  0  0  0  0  0
  -26.4483  -31.6584   25.0712 C   0  0  0  0  0  0
  -25.3739  -31.3674   26.1448 C   0  0  0  0  0  0
  -27.0323  -30.3026   24.6100 C   0  0  0  0  0  0
  -27.6053  -32.4302   25.7475 C   0  0  0  0  0  0
  -27.5572  -37.1804   24.8467 C   0  0  0  0  0  0
  -21.4169  -29.3034   22.3710 N   0  0  0  0  0  0
  -26.4289  -37.3784   23.9413 N   0  0  0  0  0  0
  -24.6793  -31.0677   22.0970 N   0  0  0  0  0  0
  -23.4182  -28.8178   23.3045 O   0  0  0  0  0  0
  -28.3702  -26.5677   20.1149 O   0  0  0  0  0  0
  -26.5612  -34.8926   22.4688 O   0  0  0  0  0  0
  -23.5384  -32.1403   23.7400 O   0  0  0  0  0  0
  -28.8049  -21.3772   20.6686 C   0  0  0  0  0  0
  -26.8392  -22.6130   21.3990 C   0  0  0  0  0  0
  -28.3705  -20.1993   21.3762 C   0  0  0  0  0  0
  -28.0625  -22.6107   20.7067 C   0  0  0  0  0  0
  -26.4060  -21.5063   22.1438 C   0  0  0  0  0  0
  -27.1964  -20.3320   22.1798 C   0  0  0  0  0  0
  -28.2284  -17.5509   21.4277 C   0  0  0  0  0  0
  -30.2149  -18.5218   20.3234 C   0  0  0  0  0  0
  -28.6583  -16.2701   20.6513 C   0  0  0  0  0  0
  -30.9395  -17.1455   20.5797 C   0  0  0  0  0  0
  -29.1390  -18.8148   21.3854 C   0  0  0  0  0  0
  -23.8972  -21.7986   21.9331 C   0  0  0  0  0  0
  -25.1162  -22.7353   23.9529 C   0  0  0  0  0  0
  -27.3519  -19.4046   24.3142 C   0  0  0  0  0  0
  -28.4663  -23.9372   19.9863 C   0  0  0  0  0  0
  -28.2487  -25.2810   20.8027 C   0  0  0  0  0  0
  -25.0788  -21.6143   22.9001 C   0  0  0  0  0  0
  -30.0916  -15.9095   20.6736 N   0  0  0  0  0  0
  -26.7940  -19.3187   23.0098 O   0  0  0  0  0  0
  -31.4562  -12.5339   19.1107 H   0  0  0  0  0  0
  -30.3695  -11.4402   19.9064 H   0  0  0  0  0  0
  -29.7675  -11.7333   17.4781 H   0  0  0  0  0  0
  -29.6039  -13.4553   17.7099 H   0  0  0  0  0  0
  -27.8776  -11.2515   18.8900 H   0  0  0  0  0  0
  -27.3529  -12.5039   17.7946 H   0  0  0  0  0  0
  -27.6278  -14.1949   19.4351 H   0  0  0  0  0  0
  -28.7531  -12.0581   21.3354 H   0  0  0  0  0  0
  -28.4621  -13.6679   21.8602 H   0  0  0  0  0  0
  -25.2721   -9.5659   22.4768 H   0  0  0  0  0  0
  -23.9972   -7.4597   22.7474 H   0  0  0  0  0  0
  -21.0809   -8.8746   19.8945 H   0  0  0  0  0  0
  -22.3665  -10.9645   19.6180 H   0  0  0  0  0  0
  -21.1997   -7.6138   23.9718 H   0  0  0  0  0  0
  -21.1479   -6.0516   25.9081 H   0  0  0  0  0  0
  -22.0603   -2.7601   23.2860 H   0  0  0  0  0  0
  -22.4051  -11.9872   22.4829 H   0  0  0  0  0  0
  -21.1082  -13.1263   22.2630 H   0  0  0  0  0  0
  -24.6478  -15.8317   20.5203 H   0  0  0  0  0  0
  -26.2670  -15.6249   20.0860 H   0  0  0  0  0  0
  -26.7139  -32.5492   23.1118 H   0  0  0  0  0  0
  -25.0053  -33.9752   25.0433 H   0  0  0  0  0  0
  -22.7063  -31.3017   21.4010 H   0  0  0  0  0  0
  -23.3750  -35.9630   23.3318 H   0  0  0  0  0  0
  -24.3576  -36.8908   22.2051 H   0  0  0  0  0  0
  -23.7241  -37.6503   23.6655 H   0  0  0  0  0  0
  -26.0661  -31.5730   20.5932 H   0  0  0  0  0  0
  -26.8328  -30.8670   21.9864 H   0  0  0  0  0  0
  -28.1178  -29.0509   21.1651 H   0  0  0  0  0  0
  -26.0443  -25.9253   19.0427 H   0  0  0  0  0  0
  -23.9790  -27.2774   19.0447 H   0  0  0  0  0  0
  -23.7397  -30.5842   19.4028 H   0  0  0  0  0  0
  -22.7498  -29.2348   19.8656 H   0  0  0  0  0  0
  -25.1289  -36.1952   25.0825 H   0  0  0  0  0  0
  -20.9973  -28.3232   24.1429 H   0  0  0  0  0  0
  -20.5697  -26.2264   23.3603 H   0  0  0  0  0  0
  -21.6647  -26.7426   22.1194 H   0  0  0  0  0  0
  -19.6920  -25.6283   21.1228 H   0  0  0  0  0  0
  -19.6691  -27.3192   20.6757 H   0  0  0  0  0  0
  -17.4211  -26.6664   21.4029 H   0  0  0  0  0  0
  -18.0334  -26.0057   22.9012 H   0  0  0  0  0  0
  -19.7946  -30.7236   24.2293 H   0  0  0  0  0  0
  -17.5035  -31.6258   24.5169 H   0  0  0  0  0  0
  -15.5366  -30.2988   23.7646 H   0  0  0  0  0  0
  -15.8685  -28.0820   22.7054 H   0  0  0  0  0  0
  -24.5933  -30.7003   25.7773 H   0  0  0  0  0  0
  -24.8900  -32.2818   26.4889 H   0  0  0  0  0  0
  -25.8091  -30.8848   27.0210 H   0  0  0  0  0  0
  -26.2875  -29.6781   24.1154 H   0  0  0  0  0  0
  -27.4098  -29.7266   25.4558 H   0  0  0  0  0  0
  -27.8709  -30.4349   23.9261 H   0  0  0  0  0  0
  -27.2680  -33.3606   26.2053 H   0  0  0  0  0  0
  -28.3859  -32.6854   25.0295 H   0  0  0  0  0  0
  -28.0729  -31.8427   26.5386 H   0  0  0  0  0  0
  -28.2599  -38.0091   24.7511 H   0  0  0  0  0  0
  -28.1062  -36.2628   24.6303 H   0  0  0  0  0  0
  -27.2297  -37.1461   25.8871 H   0  0  0  0  0  0
  -20.9341  -29.8764   21.6930 H   0  0  0  0  0  0
  -26.0181  -38.2862   24.1408 H   0  0  0  0  0  0
  -29.7196  -21.3386   20.0940 H   0  0  0  0  0  0
  -26.2078  -23.4873   21.3826 H   0  0  0  0  0  0
  -28.0689  -17.2736   22.4703 H   0  0  0  0  0  0
  -27.2434  -17.8109   21.0386 H   0  0  0  0  0  0
  -29.7672  -18.5312   19.3291 H   0  0  0  0  0  0
  -30.9623  -19.3164   20.3289 H   0  0  0  0  0  0
  -28.3686  -16.3742   19.6040 H   0  0  0  0  0  0
  -28.0337  -15.5055   21.0816 H   0  0  0  0  0  0
  -31.5120  -17.2157   21.5064 H   0  0  0  0  0  0
  -31.6773  -17.0316   19.7833 H   0  0  0  0  0  0
  -29.6823  -18.8305   22.3314 H   0  0  0  0  0  0
  -23.8488  -20.9778   21.2166 H   0  0  0  0  0  0
  -23.9709  -22.7277   21.3673 H   0  0  0  0  0  0
  -22.9494  -21.8173   22.4713 H   0  0  0  0  0  0
  -25.2592  -23.7173   23.5009 H   0  0  0  0  0  0
  -25.9273  -22.5756   24.6634 H   0  0  0  0  0  0
  -24.1860  -22.7702   24.5211 H   0  0  0  0  0  0
  -28.4421  -19.3836   24.2884 H   0  0  0  0  0  0
  -27.0170  -18.5556   24.9098 H   0  0  0  0  0  0
  -27.0370  -20.3150   24.8255 H   0  0  0  0  0  0
  -27.8798  -23.9907   19.0692 H   0  0  0  0  0  0
  -29.5078  -23.8732   19.6698 H   0  0  0  0  0  0
  -28.9764  -25.2934   21.6144 H   0  0  0  0  0  0
  -27.2873  -25.2661   21.3116 H   0  0  0  0  0  0
  -24.8924  -20.6850   23.4371 H   0  0  0  0  0  0
  1 25  1  0  0  0
  1 30  2  0  0  0
  1 88  1  0  0  0
  2  3  1  0  0  0
  2 25  1  0  0  0
  2 90  1  0  0  0
  2 91  1  0  0  0
  3  4  1  0  0  0
  3 92  1  0  0  0
  3 93  1  0  0  0
  4  5  1  0  0  0
  4 94  1  0  0  0
  4 95  1  0  0  0
  5  6  1  0  0  0
  5 26  1  0  0  0
  5 96  1  0  0  0
  6 25  1  0  0  0
  6 97  1  0  0  0
  6 98  1  0  0  0
  7  8  2  0  0  0
  7 26  1  0  0  0
  7 29  1  0  0  0
  8  9  1  0  0  0
  8 22  1  0  0  0
  9 10  1  0  0  0
  9 27  2  0  0  0
 10 11  2  0  0  0
 10 15  1  0  0  0
 11 12  1  0  0  0
 11 99  1  0  0  0
 12 13  2  0  0  0
 12100  1  0  0  0
 13 14  1  0  0  0
 13 31  1  0  0  0
 14 15  2  0  0  0
 14101  1  0  0  0
 15102  1  0  0  0
 16 17  2  0  0  0
 16 21  1  0  0  0
 16 31  1  0  0  0
 17 18  1  0  0  0
 17103  1  0  0  0
 18 19  2  0  0  0
 18104  1  0  0  0
 19 20  1  0  0  0
 19 24  1  0  0  0
 20 21  2  0  0  0
 20105  1  0  0  0
 21 23  1  0  0  0
 22 28  1  0  0  0
 22 32  2  0  0  0
 26 27  1  0  0  0
 28106  1  0  0  0
 28107  1  0  0  0
 29108  1  0  0  0
 29109  1  0  0  0
 33 34  1  0  0  0
 33 66  1  0  0  0
 33 70  2  0  0  0
 34 36  1  0  0  0
 34 59  1  0  0  0
 34110  1  0  0  0
 35 44  2  0  0  0
 35 45  1  0  0  0
 35 68  1  0  0  0
 36 56  1  0  0  0
 36111  1  0  0  0
 37 39  1  0  0  0
 37 47  1  0  0  0
 37 66  1  0  0  0
 37112  1  0  0  0
 38 43  2  0  0  0
 38 46  1  0  0  0
 38 47  1  0  0  0
 39 64  1  0  0  0
 39 67  2  0  0  0
 40 52  1  0  0  0
 40 53  2  0  0  0
 40 58  1  0  0  0
 41113  1  0  0  0
 41114  1  0  0  0
 41115  1  0  0  0
 41 48  1  0  0  0
 42 43  1  0  0  0
 42 66  1  0  0  0
 42116  1  0  0  0
 42117  1  0  0  0
 43 44  1  0  0  0
 44118  1  0  0  0
 45 46  2  0  0  0
 45119  1  0  0  0
 46120  1  0  0  0
 47121  1  0  0  0
 47122  1  0  0  0
 48 56  1  0  0  0
 48 65  1  0  0  0
 48123  1  0  0  0
 49 50  1  0  0  0
 49 53  1  0  0  0
 49 64  1  0  0  0
 49124  1  0  0  0
 50 51  1  0  0  0
 50125  1  0  0  0
 50126  1  0  0  0
 51 52  1  0  0  0
 51127  1  0  0  0
 51128  1  0  0  0
 52129  1  0  0  0
 52130  1  0  0  0
 53 54  1  0  0  0
 54 55  2  0  0  0
 54131  1  0  0  0
 55 57  1  0  0  0
 55132  1  0  0  0
 56 69  2  0  0  0
 57 58  2  0  0  0
 57133  1  0  0  0
 58134  1  0  0  0
 59 60  1  0  0  0
 59 61  1  0  0  0
 59 62  1  0  0  0
 60135  1  0  0  0
 60136  1  0  0  0
 60137  1  0  0  0
 61138  1  0  0  0
 61139  1  0  0  0
 61140  1  0  0  0
 62141  1  0  0  0
 62142  1  0  0  0
 62143  1  0  0  0
 63 65  1  0  0  0
 63144  1  0  0  0
 63145  1  0  0  0
 63146  1  0  0  0
 64147  1  0  0  0
 65148  1  0  0  0
 68 86  1  0  0  0
 71 73  2  0  0  0
 71 74  1  0  0  0
 71149  1  0  0  0
 72 74  2  0  0  0
 72 75  1  0  0  0
 72150  1  0  0  0
 73 76  1  0  0  0
 73 81  1  0  0  0
 74 85  1  0  0  0
 75 76  2  0  0  0
 75 87  1  0  0  0
 76 89  1  0  0  0
 77 79  1  0  0  0
 77 81  1  0  0  0
 77151  1  0  0  0
 77152  1  0  0  0
 78 80  1  0  0  0
 78 81  1  0  0  0
 78153  1  0  0  0
 78154  1  0  0  0
 79 88  1  0  0  0
 79155  1  0  0  0
 79156  1  0  0  0
 80 88  1  0  0  0
 80157  1  0  0  0
 80158  1  0  0  0
 81159  1  0  0  0
 82160  1  0  0  0
 82161  1  0  0  0
 82162  1  0  0  0
 82 87  1  0  0  0
 83 87  1  0  0  0
 83163  1  0  0  0
 83164  1  0  0  0
 83165  1  0  0  0
 84 89  1  0  0  0
 84166  1  0  0  0
 84167  1  0  0  0
 84168  1  0  0  0
 85 86  1  0  0  0
 85169  1  0  0  0
 85170  1  0  0  0
 86171  1  0  0  0
 86172  1  0  0  0
 87173  1  0  0  0
M  ISO  4   1 100  68 101  86 101  88 100
M  END
> <chiral flag>
0

> <version>
0

> <s_m_source_file>
/data/baiqing/PycharmProjects/Reinvent-master-3.2/result/LINK_invent/BTK/process_docking_weight1_custom_sum_contain_oxygen_bond_distance_aromatic_linkinvent_7_9_3/rearranged_h_0153.sdf

> <i_m_source_file_index>
39

> <r_mmod_Potential_Energy-OPLS-2005>
350.189086914062

> <r_mmod_Stretch_Energy-OPLS-2005>
81.9049530029297

> <r_mmod_Bend_Energy-OPLS-2005>
173.626800537109

> <r_mmod_Torsional_Energy-OPLS-2005>
364.548522949219

> <r_mmod_Improper_Torsional_Energy-OPLS-2005>
5.24323654174805

> <r_mmod_Van_der_Waal_Energy-OPLS-2005>
170.919906616211

> <r_mmod_Electrostatic_Energy-OPLS-2005>
-300.069580078125

> <r_mmod_Solvation_Energy-OPLS-2005>
-192.372909545898

> <b_mmod_Minimization_Converged-OPLS-2005>
0

> <r_mmod_RMS_Derivative-OPLS-2005>
1.37643730640411

$$$$
39
                    3D
 Structure written by MMmdl.
165174  0  0  1  0            999 V2000
  -30.6335  -14.8553   20.4334 C   0  0  0  0  0  0
  -30.4135  -12.5357   19.4808 C   0  0  0  0  0  0
  -29.4988  -12.5156   18.2397 C   0  0  0  0  0  0
  -28.0337  -12.3074   18.6640 C   0  0  0  0  0  0
  -27.6193  -13.2346   19.8361 C   0  0  2  0  0  0
  -28.6686  -13.2794   20.9672 C   0  0  0  0  0  0
  -25.2431  -13.8182   20.5752 C   0  0  0  0  0  0
  -24.1746  -13.0421   20.9248 C   0  0  0  0  0  0
  -24.6361  -11.6905   20.8787 C   0  0  0  0  0  0
  -23.9057  -10.4282   21.0435 C   0  0  0  0  0  0
  -24.3614   -9.4196   21.9205 C   0  0  0  0  0  0
  -23.6294   -8.2233   22.0763 C   0  0  0  0  0  0
  -22.4278   -8.0277   21.3547 C   0  0  0  0  0  0
  -21.9917   -9.0254   20.4652 C   0  0  0  0  0  0
  -22.7241  -10.2130   20.3075 C   0  0  0  0  0  0
  -21.6849   -6.0743   22.5295 C   0  0  0  0  0  0
  -21.4012   -6.5650   23.8228 C   0  0  0  0  0  0
  -21.3658   -5.6802   24.9188 C   0  0  0  0  0  0
  -21.6043   -4.3065   24.7236 C   0  0  0  0  0  0
  -21.8821   -3.8160   23.4357 C   0  0  0  0  0  0
  -21.9193   -4.6975   22.3412 C   0  0  0  0  0  0
  -22.7767  -13.5193   21.1882 C   0  0  0  0  0  0
  -22.1660   -4.2162   21.0989 F   0  0  0  0  0  0
  -21.5617   -3.4547   25.7747 F   0  0  0  0  0  0
  -29.9489  -13.6498   20.3523 N   0  0  0  0  0  0
  -26.2831  -12.9386   20.3293 N   0  0  0  0  0  0
  -25.9291  -11.6533   20.5808 N   0  0  0  0  0  0
  -22.0425  -12.8185   22.0436 N   0  0  0  0  0  0
  -25.4122  -15.1908   20.4161 N   0  0  0  0  0  0
  -31.8473  -14.8220   20.2053 O   0  0  0  0  0  0
  -21.6638   -6.8882   21.4254 O   0  0  0  0  0  0
  -22.3467  -14.5508   20.6738 O   0  0  0  0  0  0
  -24.6388  -31.8507   23.1945 C   0  0  0  0  0  0
  -25.9180  -32.4739   23.8321 C   0  0  1  0  0  0
  -27.2084  -27.1911   20.1398 C   0  0  0  0  0  0
  -25.5945  -33.8546   24.2221 N   0  0  0  0  0  0
  -23.4394  -30.4707   21.5413 C   0  0  2  0  0  0
  -24.8847  -28.9060   20.1145 C   0  0  0  0  0  0
  -22.7531  -29.4579   22.4903 C   0  0  0  0  0  0
  -18.0293  -28.1406   22.8489 C   0  0  0  0  0  0
  -24.1488  -36.7270   23.2632 C   0  0  0  0  0  0
  -25.9915  -30.7380   21.3874 C   0  0  0  0  0  0
  -26.0620  -29.3538   20.7301 C   0  0  0  0  0  0
  -27.2306  -28.5111   20.7267 C   0  0  0  0  0  0
  -26.0124  -26.8360   19.4812 C   0  0  0  0  0  0
  -24.8687  -27.6579   19.4767 C   0  0  0  0  0  0
  -23.6611  -29.8022   20.1597 C   0  0  0  0  0  0
  -25.4120  -36.3064   24.0308 C   0  0  1  0  0  0
  -20.5900  -28.3729   23.1258 C   0  0  2  0  0  0
  -20.6790  -26.9442   22.5409 C   0  0  0  0  0  0
  -19.5761  -26.6391   21.5224 C   0  0  0  0  0  0
  -18.1933  -26.7953   22.1630 C   0  0  0  0  0  0
  -19.1545  -28.8883   23.2867 C   0  0  0  0  0  0
  -18.9464  -30.1486   23.8889 C   0  0  0  0  0  0
  -17.6456  -30.6599   24.0571 C   0  0  0  0  0  0
  -25.9062  -34.9435   23.5068 C   0  0  0  0  0  0
  -16.5349  -29.9091   23.6347 C   0  0  0  0  0  0
  -16.7277  -28.6513   23.0366 C   0  0  0  0  0  0
  -26.4505  -31.6605   25.0757 C   0  0  0  0  0  0
  -25.3682  -31.3788   26.1441 C   0  0  0  0  0  0
  -27.0369  -30.3007   24.6327 C   0  0  0  0  0  0
  -27.6043  -32.4362   25.7546 C   0  0  0  0  0  0
  -27.5587  -37.1787   24.8461 C   0  0  0  0  0  0
  -21.4227  -29.3065   22.3643 N   0  0  0  0  0  0
  -26.4296  -37.3774   23.9409 N   0  0  0  0  0  0
  -24.7101  -31.0387   22.0974 N   0  0  0  0  0  0
  -23.4186  -28.8110   23.3033 O   0  0  0  0  0  0
  -28.2623  -26.2285   20.1584 O   0  0  0  0  0  0
  -26.5640  -34.8920   22.4642 O   0  0  0  0  0  0
  -23.5515  -32.1361   23.7187 O   0  0  0  0  0  0
  -29.9754  -21.1369   18.8857 C   0  0  0  0  0  0
  -29.4671  -23.5531   18.8898 C   0  0  0  0  0  0
  -29.2509  -20.8939   20.0740 C   0  0  0  0  0  0
  -30.0827  -22.4225   18.3050 C   0  0  0  0  0  0
  -28.7033  -23.4541   20.0689 C   0  0  0  0  0  0
  -28.6012  -22.0936   20.6464 C   0  0  0  0  0  0
  -28.6572  -18.2299   19.6982 C   0  0  0  0  0  0
  -30.6659  -18.7150   20.9059 C   0  0  0  0  0  0
  -28.7506  -16.6746   20.1201 C   0  0  0  0  0  0
  -30.7195  -17.2114   21.4425 C   0  0  0  0  0  0
  -29.2599  -19.3532   20.6291 C   0  0  0  0  0  0
  -30.8554  -22.5888   17.0105 C   0  0  0  0  0  0
  -26.5417  -21.2957   21.5578 C   0  0  0  0  0  0
  -27.9420  -24.7908   20.5911 C   0  0  0  0  0  0
  -30.0219  -16.1136   20.6868 N   0  0  0  0  0  0
  -27.8257  -21.9417   21.8026 N   0  0  0  0  0  0
  -31.4527  -12.6498   19.1688 H   0  0  0  0  0  0
  -30.3682  -11.5845   20.0140 H   0  0  0  0  0  0
  -29.8043  -11.7284   17.5491 H   0  0  0  0  0  0
  -29.5948  -13.4577   17.6972 H   0  0  0  0  0  0
  -27.9200  -11.2635   18.9586 H   0  0  0  0  0  0
  -27.3692  -12.4575   17.8129 H   0  0  0  0  0  0
  -27.5633  -14.2237   19.3954 H   0  0  0  0  0  0
  -28.7429  -12.3165   21.4749 H   0  0  0  0  0  0
  -28.3835  -14.0104   21.7255 H   0  0  0  0  0  0
  -25.2765   -9.5665   22.4767 H   0  0  0  0  0  0
  -24.0007   -7.4623   22.7478 H   0  0  0  0  0  0
  -21.0855   -8.8779   19.8949 H   0  0  0  0  0  0
  -22.3723  -10.9672   19.6178 H   0  0  0  0  0  0
  -21.2012   -7.6161   23.9728 H   0  0  0  0  0  0
  -21.1466   -6.0536   25.9084 H   0  0  0  0  0  0
  -22.0600   -2.7622   23.2862 H   0  0  0  0  0  0
  -22.4067  -11.9847   22.4804 H   0  0  0  0  0  0
  -21.1043  -13.1198   22.2660 H   0  0  0  0  0  0
  -24.6483  -15.8466   20.5347 H   0  0  0  0  0  0
  -26.2651  -15.6301   20.0972 H   0  0  0  0  0  0
  -26.7249  -32.5357   23.1058 H   0  0  0  0  0  0
  -25.0099  -33.9691   25.0373 H   0  0  0  0  0  0
  -22.7405  -31.2967   21.3917 H   0  0  0  0  0  0
  -23.3783  -35.9577   23.3273 H   0  0  0  0  0  0
  -24.3557  -36.8928   22.2052 H   0  0  0  0  0  0
  -23.7209  -37.6439   23.6686 H   0  0  0  0  0  0
  -26.1376  -31.4924   20.6132 H   0  0  0  0  0  0
  -26.8669  -30.7883   22.0241 H   0  0  0  0  0  0
  -28.1317  -28.8448   21.2218 H   0  0  0  0  0  0
  -25.9455  -25.8871   18.9672 H   0  0  0  0  0  0
  -23.9718  -27.3120   18.9804 H   0  0  0  0  0  0
  -23.7933  -30.5793   19.4068 H   0  0  0  0  0  0
  -22.7769  -29.2421   19.8515 H   0  0  0  0  0  0
  -25.1304  -36.1902   25.0802 H   0  0  0  0  0  0
  -20.9979  -28.3328   24.1386 H   0  0  0  0  0  0
  -20.5711  -26.2338   23.3619 H   0  0  0  0  0  0
  -21.6656  -26.7464   22.1197 H   0  0  0  0  0  0
  -19.6925  -25.6288   21.1280 H   0  0  0  0  0  0
  -19.6716  -27.3186   20.6738 H   0  0  0  0  0  0
  -17.4208  -26.6708   21.4024 H   0  0  0  0  0  0
  -18.0324  -26.0100   22.9029 H   0  0  0  0  0  0
  -19.7938  -30.7315   24.2248 H   0  0  0  0  0  0
  -17.5010  -31.6285   24.5177 H   0  0  0  0  0  0
  -15.5353  -30.2986   23.7686 H   0  0  0  0  0  0
  -15.8681  -28.0825   22.7082 H   0  0  0  0  0  0
  -24.5863  -30.7139   25.7744 H   0  0  0  0  0  0
  -24.8862  -32.2973   26.4806 H   0  0  0  0  0  0
  -25.7932  -30.8988   27.0265 H   0  0  0  0  0  0
  -26.2993  -29.6743   24.1292 H   0  0  0  0  0  0
  -27.3944  -29.7284   25.4900 H   0  0  0  0  0  0
  -27.8919  -30.4263   23.9680 H   0  0  0  0  0  0
  -27.2649  -33.3693   26.2063 H   0  0  0  0  0  0
  -28.3892  -32.6862   25.0395 H   0  0  0  0  0  0
  -28.0682  -31.8532   26.5519 H   0  0  0  0  0  0
  -28.2570  -38.0116   24.7527 H   0  0  0  0  0  0
  -28.1107  -36.2629   24.6263 H   0  0  0  0  0  0
  -27.2287  -37.1406   25.8860 H   0  0  0  0  0  0
  -20.9419  -29.8782   21.6838 H   0  0  0  0  0  0
  -26.0164  -38.2839   24.1447 H   0  0  0  0  0  0
  -30.4645  -20.3072   18.3950 H   0  0  0  0  0  0
  -29.5580  -24.5159   18.4072 H   0  0  0  0  0  0
  -27.6089  -18.4690   19.5131 H   0  0  0  0  0  0
  -29.1356  -18.3196   18.7232 H   0  0  0  0  0  0
  -31.2667  -18.7653   19.9973 H   0  0  0  0  0  0
  -31.1859  -19.3483   21.6256 H   0  0  0  0  0  0
  -28.5086  -16.1049   19.2240 H   0  0  0  0  0  0
  -27.9658  -16.4620   20.8462 H   0  0  0  0  0  0
  -30.2949  -17.2008   22.4471 H   0  0  0  0  0  0
  -31.7696  -16.9477   21.5850 H   0  0  0  0  0  0
  -28.7108  -19.3478   21.5706 H   0  0  0  0  0  0
  -31.5968  -21.7986   16.8859 H   0  0  0  0  0  0
  -31.3788  -23.5454   16.9892 H   0  0  0  0  0  0
  -30.1752  -22.5525   16.1580 H   0  0  0  0  0  0
  -26.0151  -21.1372   22.5003 H   0  0  0  0  0  0
  -26.6504  -20.3254   21.0730 H   0  0  0  0  0  0
  -25.9075  -21.9197   20.9255 H   0  0  0  0  0  0
  -28.0466  -24.7921   21.6752 H   0  0  0  0  0  0
  -26.8861  -24.5819   20.4279 H   0  0  0  0  0  0
  -27.7194  -22.8039   22.3298 H   0  0  0  0  0  0
  1 25  1  0  0  0
  1 30  2  0  0  0
  1 85  1  0  0  0
  2  3  1  0  0  0
  2 25  1  0  0  0
  2 87  1  0  0  0
  2 88  1  0  0  0
  3  4  1  0  0  0
  3 89  1  0  0  0
  3 90  1  0  0  0
  4  5  1  0  0  0
  4 91  1  0  0  0
  4 92  1  0  0  0
  5  6  1  0  0  0
  5 26  1  0  0  0
  5 93  1  0  0  0
  6 25  1  0  0  0
  6 94  1  0  0  0
  6 95  1  0  0  0
  7  8  2  0  0  0
  7 26  1  0  0  0
  7 29  1  0  0  0
  8  9  1  0  0  0
  8 22  1  0  0  0
  9 10  1  0  0  0
  9 27  2  0  0  0
 10 11  2  0  0  0
 10 15  1  0  0  0
 11 12  1  0  0  0
 11 96  1  0  0  0
 12 13  2  0  0  0
 12 97  1  0  0  0
 13 14  1  0  0  0
 13 31  1  0  0  0
 14 15  2  0  0  0
 14 98  1  0  0  0
 15 99  1  0  0  0
 16 17  2  0  0  0
 16 21  1  0  0  0
 16 31  1  0  0  0
 17 18  1  0  0  0
 17100  1  0  0  0
 18 19  2  0  0  0
 18101  1  0  0  0
 19 20  1  0  0  0
 19 24  1  0  0  0
 20 21  2  0  0  0
 20102  1  0  0  0
 21 23  1  0  0  0
 22 28  1  0  0  0
 22 32  2  0  0  0
 26 27  1  0  0  0
 28103  1  0  0  0
 28104  1  0  0  0
 29105  1  0  0  0
 29106  1  0  0  0
 33 34  1  0  0  0
 33 66  1  0  0  0
 33 70  2  0  0  0
 34 36  1  0  0  0
 34 59  1  0  0  0
 34107  1  0  0  0
 35 44  2  0  0  0
 35 45  1  0  0  0
 35 68  1  0  0  0
 36 56  1  0  0  0
 36108  1  0  0  0
 37 39  1  0  0  0
 37 47  1  0  0  0
 37 66  1  0  0  0
 37109  1  0  0  0
 38 43  2  0  0  0
 38 46  1  0  0  0
 38 47  1  0  0  0
 39 64  1  0  0  0
 39 67  2  0  0  0
 40 52  1  0  0  0
 40 53  2  0  0  0
 40 58  1  0  0  0
 41110  1  0  0  0
 41111  1  0  0  0
 41112  1  0  0  0
 41 48  1  0  0  0
 42 43  1  0  0  0
 42 66  1  0  0  0
 42113  1  0  0  0
 42114  1  0  0  0
 43 44  1  0  0  0
 44115  1  0  0  0
 45 46  2  0  0  0
 45116  1  0  0  0
 46117  1  0  0  0
 47118  1  0  0  0
 47119  1  0  0  0
 48 56  1  0  0  0
 48 65  1  0  0  0
 48120  1  0  0  0
 49 50  1  0  0  0
 49 53  1  0  0  0
 49 64  1  0  0  0
 49121  1  0  0  0
 50 51  1  0  0  0
 50122  1  0  0  0
 50123  1  0  0  0
 51 52  1  0  0  0
 51124  1  0  0  0
 51125  1  0  0  0
 52126  1  0  0  0
 52127  1  0  0  0
 53 54  1  0  0  0
 54 55  2  0  0  0
 54128  1  0  0  0
 55 57  1  0  0  0
 55129  1  0  0  0
 56 69  2  0  0  0
 57 58  2  0  0  0
 57130  1  0  0  0
 58131  1  0  0  0
 59 60  1  0  0  0
 59 61  1  0  0  0
 59 62  1  0  0  0
 60132  1  0  0  0
 60133  1  0  0  0
 60134  1  0  0  0
 61135  1  0  0  0
 61136  1  0  0  0
 61137  1  0  0  0
 62138  1  0  0  0
 62139  1  0  0  0
 62140  1  0  0  0
 63 65  1  0  0  0
 63141  1  0  0  0
 63142  1  0  0  0
 63143  1  0  0  0
 64144  1  0  0  0
 65145  1  0  0  0
 68 84  1  0  0  0
 71 73  2  0  0  0
 71 74  1  0  0  0
 71146  1  0  0  0
 72 74  2  0  0  0
 72 75  1  0  0  0
 72147  1  0  0  0
 73 76  1  0  0  0
 73 81  1  0  0  0
 74 82  1  0  0  0
 75 76  2  0  0  0
 75 84  1  0  0  0
 76 86  1  0  0  0
 77 79  1  0  0  0
 77 81  1  0  0  0
 77148  1  0  0  0
 77149  1  0  0  0
 78 80  1  0  0  0
 78 81  1  0  0  0
 78150  1  0  0  0
 78151  1  0  0  0
 79 85  1  0  0  0
 79152  1  0  0  0
 79153  1  0  0  0
 80 85  1  0  0  0
 80154  1  0  0  0
 80155  1  0  0  0
 81156  1  0  0  0
 82157  1  0  0  0
 82158  1  0  0  0
 82159  1  0  0  0
 83 86  1  0  0  0
 83160  1  0  0  0
 83161  1  0  0  0
 83162  1  0  0  0
 84163  1  0  0  0
 84164  1  0  0  0
 86165  1  0  0  0
M  ISO  4   1 100  68 101  84 101  85 100
M  END
> <chiral flag>
0

> <version>
0

> <s_m_source_file>
/data/baiqing/PycharmProjects/Reinvent-master-3.2/result/LINK_invent/BTK/process_docking_weight1_custom_sum_contain_oxygen_bond_distance_aromatic_linkinvent_7_9_3/rearranged_h_0153.sdf

> <i_m_source_file_index>
40

> <r_mmod_Potential_Energy-OPLS-2005>
574.974060058594

> <r_mmod_Stretch_Energy-OPLS-2005>
179.916061401367

> <r_mmod_Bend_Energy-OPLS-2005>
225.253601074219

> <r_mmod_Torsional_Energy-OPLS-2005>
352.998504638672

> <r_mmod_Improper_Torsional_Energy-OPLS-2005>
7.2896294593811

> <r_mmod_Van_der_Waal_Energy-OPLS-2005>
133.230346679688

> <r_mmod_Electrostatic_Energy-OPLS-2005>
-255.727432250977

> <r_mmod_Solvation_Energy-OPLS-2005>
-211.27587890625

> <b_mmod_Minimization_Converged-OPLS-2005>
0

> <r_mmod_RMS_Derivative-OPLS-2005>
2.14792275428772

$$$$
40
                    3D
 Structure written by MMmdl.
173183  0  0  1  0            999 V2000
  -30.6835  -14.4734   20.4698 C   0  0  0  0  0  0
  -30.4154  -12.2705   19.4363 C   0  0  0  0  0  0
  -29.4925  -12.4488   18.2124 C   0  0  0  0  0  0
  -28.0114  -12.3290   18.6264 C   0  0  0  0  0  0
  -27.6512  -13.1985   19.8624 C   0  0  2  0  0  0
  -28.6963  -13.0307   20.9904 C   0  0  0  0  0  0
  -25.2573  -13.8158   20.5697 C   0  0  0  0  0  0
  -24.1810  -13.0445   20.9183 C   0  0  0  0  0  0
  -24.6349  -11.6912   20.8738 C   0  0  0  0  0  0
  -23.9021  -10.4299   21.0408 C   0  0  0  0  0  0
  -24.3587   -9.4222   21.9179 C   0  0  0  0  0  0
  -23.6275   -8.2254   22.0749 C   0  0  0  0  0  0
  -22.4255   -8.0283   21.3541 C   0  0  0  0  0  0
  -21.9885   -9.0250   20.4639 C   0  0  0  0  0  0
  -22.7200  -10.2134   20.3055 C   0  0  0  0  0  0
  -21.6842   -6.0733   22.5281 C   0  0  0  0  0  0
  -21.4004   -6.5637   23.8216 C   0  0  0  0  0  0
  -21.3656   -5.6794   24.9175 C   0  0  0  0  0  0
  -21.6045   -4.3056   24.7226 C   0  0  0  0  0  0
  -21.8822   -3.8148   23.4344 C   0  0  0  0  0  0
  -21.9189   -4.6961   22.3398 C   0  0  0  0  0  0
  -22.7844  -13.5256   21.1859 C   0  0  0  0  0  0
  -22.1663   -4.2154   21.0974 F   0  0  0  0  0  0
  -21.5631   -3.4534   25.7736 F   0  0  0  0  0  0
  -30.0245  -13.2893   20.4190 N   0  0  0  0  0  0
  -26.2966  -12.9291   20.3339 N   0  0  0  0  0  0
  -25.9266  -11.6470   20.5789 N   0  0  0  0  0  0
  -22.0481  -12.8225   22.0402 N   0  0  0  0  0  0
  -25.4356  -15.1871   20.4145 N   0  0  0  0  0  0
  -31.8883  -14.5775   20.2165 O   0  0  0  0  0  0
  -21.6630   -6.8868   21.4240 O   0  0  0  0  0  0
  -22.3534  -14.5567   20.6727 O   0  0  0  0  0  0
  -24.6119  -31.8692   23.2138 C   0  0  0  0  0  0
  -25.9038  -32.4816   23.8403 C   0  0  1  0  0  0
  -27.2344  -27.4736   20.0866 C   0  0  0  0  0  0
  -25.5889  -33.8610   24.2331 N   0  0  0  0  0  0
  -23.3965  -30.4930   21.5555 C   0  0  2  0  0  0
  -24.8438  -28.9638   20.1137 C   0  0  0  0  0  0
  -22.7376  -29.4680   22.5050 C   0  0  0  0  0  0
  -18.0258  -28.1389   22.8496 C   0  0  0  0  0  0
  -24.1482  -36.7329   23.2638 C   0  0  0  0  0  0
  -25.9193  -30.8469   21.3606 C   0  0  0  0  0  0
  -26.0002  -29.4835   20.7098 C   0  0  0  0  0  0
  -27.2002  -28.7418   20.7012 C   0  0  0  0  0  0
  -26.0713  -26.9625   19.4749 C   0  0  0  0  0  0
  -24.8713  -27.6997   19.4967 C   0  0  0  0  0  0
  -23.6011  -29.8230   20.1703 C   0  0  0  0  0  0
  -25.4089  -36.3093   24.0332 C   0  0  1  0  0  0
  -20.5830  -28.3679   23.1344 C   0  0  2  0  0  0
  -20.6755  -26.9435   22.5424 C   0  0  0  0  0  0
  -19.5747  -26.6400   21.5215 C   0  0  0  0  0  0
  -18.1917  -26.7935   22.1620 C   0  0  0  0  0  0
  -19.1500  -28.8853   23.2903 C   0  0  0  0  0  0
  -18.9440  -30.1454   23.8910 C   0  0  0  0  0  0
  -17.6445  -30.6600   24.0577 C   0  0  0  0  0  0
  -25.9027  -34.9464   23.5129 C   0  0  0  0  0  0
  -16.5334  -29.9093   23.6341 C   0  0  0  0  0  0
  -16.7249  -28.6512   23.0357 C   0  0  0  0  0  0
  -26.4488  -31.6587   25.0722 C   0  0  0  0  0  0
  -25.3759  -31.3692   26.1474 C   0  0  0  0  0  0
  -27.0331  -30.3023   24.6111 C   0  0  0  0  0  0
  -27.6057  -32.4322   25.7491 C   0  0  0  0  0  0
  -27.5566  -37.1792   24.8452 C   0  0  0  0  0  0
  -21.4114  -29.3042   22.3769 N   0  0  0  0  0  0
  -26.4273  -37.3778   23.9410 N   0  0  0  0  0  0
  -24.6603  -31.0826   22.1023 N   0  0  0  0  0  0
  -23.4161  -28.8228   23.3081 O   0  0  0  0  0  0
  -28.3787  -26.7179   20.0773 O   0  0  0  0  0  0
  -26.5615  -34.8928   22.4705 O   0  0  0  0  0  0
  -23.5324  -32.1443   23.7565 O   0  0  0  0  0  0
  -30.1228  -20.8470   22.5745 C   0  0  0  0  0  0
  -28.3818  -21.3558   20.9683 C   0  0  0  0  0  0
  -29.2887  -21.7926   21.9498 C   0  0  0  0  0  0
  -30.1180  -19.4903   22.1790 C   0  0  0  0  0  0
  -29.2354  -19.0498   21.1476 C   0  0  0  0  0  0
  -28.3425  -20.0049   20.5777 C   0  0  0  0  0  0
  -28.0970  -23.9604   22.6524 C   0  0  0  0  0  0
  -30.1778  -24.0123   21.1394 C   0  0  0  0  0  0
  -27.6223  -24.9669   21.5955 C   0  0  0  0  0  0
  -30.1111  -25.5413   21.2985 C   0  0  0  0  0  0
  -29.5381  -17.6550   19.1579 C   0  0  0  0  0  0
  -30.0070  -16.2322   18.9340 C   0  0  0  0  0  0
  -29.3894  -16.4537   21.2519 C   0  0  0  0  0  0
  -29.4333  -23.2752   22.2770 C   0  0  2  0  0  0
  -28.6630  -26.0808   21.3242 C   0  0  1  0  0  0
  -31.1419  -18.5879   22.8474 C   0  0  0  0  0  0
  -26.2454  -19.1029   20.0990 C   0  0  0  0  0  0
  -29.2845  -17.7527   20.5792 N   0  0  0  0  0  0
  -29.8746  -15.5298   20.2167 N   0  0  0  0  0  0
  -27.4455  -19.6679   19.5959 O   0  0  0  0  0  0
  -31.4623  -12.3549   19.1384 H   0  0  0  0  0  0
  -30.3035  -11.2733   19.8652 H   0  0  0  0  0  0
  -29.7277  -11.7006   17.4543 H   0  0  0  0  0  0
  -29.6716  -13.4178   17.7465 H   0  0  0  0  0  0
  -27.8168  -11.2775   18.8464 H   0  0  0  0  0  0
  -27.3655  -12.5857   17.7864 H   0  0  0  0  0  0
  -27.6738  -14.2337   19.5253 H   0  0  0  0  0  0
  -28.6615  -12.0234   21.4079 H   0  0  0  0  0  0
  -28.4821  -13.7078   21.8184 H   0  0  0  0  0  0
  -25.2734   -9.5699   22.4739 H   0  0  0  0  0  0
  -23.9997   -7.4637   22.7452 H   0  0  0  0  0  0
  -21.0832   -8.8746   19.8928 H   0  0  0  0  0  0
  -22.3655  -10.9668   19.6159 H   0  0  0  0  0  0
  -21.1997   -7.6147   23.9718 H   0  0  0  0  0  0
  -21.1475   -6.0521   25.9080 H   0  0  0  0  0  0
  -22.0602   -2.7612   23.2842 H   0  0  0  0  0  0
  -22.4101  -11.9872   22.4774 H   0  0  0  0  0  0
  -21.1102  -13.1241   22.2633 H   0  0  0  0  0  0
  -24.6752  -15.8463   20.5360 H   0  0  0  0  0  0
  -26.3008  -15.6236   20.1221 H   0  0  0  0  0  0
  -26.7106  -32.5572   23.1171 H   0  0  0  0  0  0
  -25.0004  -33.9760   25.0453 H   0  0  0  0  0  0
  -22.6851  -31.3103   21.4178 H   0  0  0  0  0  0
  -23.3713  -35.9694   23.3298 H   0  0  0  0  0  0
  -24.3575  -36.8962   22.2051 H   0  0  0  0  0  0
  -23.7272  -37.6544   23.6677 H   0  0  0  0  0  0
  -26.0231  -31.6152   20.5936 H   0  0  0  0  0  0
  -26.8092  -30.9011   21.9740 H   0  0  0  0  0  0
  -28.0942  -29.1366   21.1648 H   0  0  0  0  0  0
  -26.0933  -25.9900   19.0036 H   0  0  0  0  0  0
  -23.9800  -27.2967   19.0377 H   0  0  0  0  0  0
  -23.7030  -30.5998   19.4116 H   0  0  0  0  0  0
  -22.7258  -29.2369   19.8803 H   0  0  0  0  0  0
  -25.1246  -36.1945   25.0819 H   0  0  0  0  0  0
  -20.9896  -28.3250   24.1474 H   0  0  0  0  0  0
  -20.5684  -26.2293   23.3596 H   0  0  0  0  0  0
  -21.6627  -26.7527   22.1207 H   0  0  0  0  0  0
  -19.6934  -25.6312   21.1241 H   0  0  0  0  0  0
  -19.6687  -27.3219   20.6755 H   0  0  0  0  0  0
  -17.4195  -26.6706   21.4012 H   0  0  0  0  0  0
  -18.0316  -26.0059   22.9000 H   0  0  0  0  0  0
  -19.7923  -30.7257   24.2291 H   0  0  0  0  0  0
  -17.5012  -31.6280   24.5184 H   0  0  0  0  0  0
  -15.5335  -30.2995   23.7675 H   0  0  0  0  0  0
  -15.8650  -28.0837   22.7067 H   0  0  0  0  0  0
  -24.5925  -30.7048   25.7811 H   0  0  0  0  0  0
  -24.8964  -32.2849   26.4941 H   0  0  0  0  0  0
  -25.8111  -30.8844   27.0224 H   0  0  0  0  0  0
  -26.2881  -29.6733   24.1225 H   0  0  0  0  0  0
  -27.4145  -29.7303   25.4585 H   0  0  0  0  0  0
  -27.8689  -30.4306   23.9226 H   0  0  0  0  0  0
  -27.2671  -33.3614   26.2093 H   0  0  0  0  0  0
  -28.3861  -32.6905   25.0314 H   0  0  0  0  0  0
  -28.0746  -31.8437   26.5392 H   0  0  0  0  0  0
  -28.2554  -38.0116   24.7501 H   0  0  0  0  0  0
  -28.1085  -36.2638   24.6249 H   0  0  0  0  0  0
  -27.2301  -37.1402   25.8862 H   0  0  0  0  0  0
  -20.9305  -29.8720   21.6940 H   0  0  0  0  0  0
  -26.0154  -38.2857   24.1421 H   0  0  0  0  0  0
  -30.8209  -21.1799   23.3310 H   0  0  0  0  0  0
  -27.7286  -22.0660   20.4836 H   0  0  0  0  0  0
  -27.3172  -23.2273   22.8621 H   0  0  0  0  0  0
  -28.2396  -24.5085   23.5846 H   0  0  0  0  0  0
  -31.2154  -23.6805   21.1037 H   0  0  0  0  0  0
  -29.7462  -23.7482   20.1729 H   0  0  0  0  0  0
  -26.6770  -25.4098   21.9076 H   0  0  0  0  0  0
  -27.4140  -24.4296   20.6694 H   0  0  0  0  0  0
  -30.6075  -25.8099   22.2315 H   0  0  0  0  0  0
  -30.6841  -26.0266   20.5080 H   0  0  0  0  0  0
  -28.6269  -17.8357   18.5871 H   0  0  0  0  0  0
  -30.2888  -18.3785   18.8320 H   0  0  0  0  0  0
  -31.0352  -16.2448   18.5657 H   0  0  0  0  0  0
  -29.3964  -15.7455   18.1728 H   0  0  0  0  0  0
  -28.4016  -16.1421   21.5938 H   0  0  0  0  0  0
  -30.0523  -16.4293   22.1117 H   0  0  0  0  0  0
  -30.0614  -23.3416   23.1670 H   0  0  0  0  0  0
  -28.6052  -26.8191   22.1256 H   0  0  0  0  0  0
  -31.9045  -19.1716   23.3656 H   0  0  0  0  0  0
  -31.6615  -17.9683   22.1164 H   0  0  0  0  0  0
  -30.6596  -17.9553   23.5930 H   0  0  0  0  0  0
  -25.5475  -18.9414   19.2765 H   0  0  0  0  0  0
  -25.7679  -19.7719   20.8166 H   0  0  0  0  0  0
  -26.4272  -18.1411   20.5798 H   0  0  0  0  0  0
  1 25  1  0  0  0
  1 30  2  0  0  0
  1 89  1  0  0  0
  2  3  1  0  0  0
  2 25  1  0  0  0
  2 91  1  0  0  0
  2 92  1  0  0  0
  3  4  1  0  0  0
  3 93  1  0  0  0
  3 94  1  0  0  0
  4  5  1  0  0  0
  4 95  1  0  0  0
  4 96  1  0  0  0
  5  6  1  0  0  0
  5 26  1  0  0  0
  5 97  1  0  0  0
  6 25  1  0  0  0
  6 98  1  0  0  0
  6 99  1  0  0  0
  7  8  2  0  0  0
  7 26  1  0  0  0
  7 29  1  0  0  0
  8  9  1  0  0  0
  8 22  1  0  0  0
  9 10  1  0  0  0
  9 27  2  0  0  0
 10 11  2  0  0  0
 10 15  1  0  0  0
 11 12  1  0  0  0
 11100  1  0  0  0
 12 13  2  0  0  0
 12101  1  0  0  0
 13 14  1  0  0  0
 13 31  1  0  0  0
 14 15  2  0  0  0
 14102  1  0  0  0
 15103  1  0  0  0
 16 17  2  0  0  0
 16 21  1  0  0  0
 16 31  1  0  0  0
 17 18  1  0  0  0
 17104  1  0  0  0
 18 19  2  0  0  0
 18105  1  0  0  0
 19 20  1  0  0  0
 19 24  1  0  0  0
 20 21  2  0  0  0
 20106  1  0  0  0
 21 23  1  0  0  0
 22 28  1  0  0  0
 22 32  2  0  0  0
 26 27  1  0  0  0
 28107  1  0  0  0
 28108  1  0  0  0
 29109  1  0  0  0
 29110  1  0  0  0
 33 34  1  0  0  0
 33 66  1  0  0  0
 33 70  2  0  0  0
 34 36  1  0  0  0
 34 59  1  0  0  0
 34111  1  0  0  0
 35 44  2  0  0  0
 35 45  1  0  0  0
 35 68  1  0  0  0
 36 56  1  0  0  0
 36112  1  0  0  0
 37 39  1  0  0  0
 37 47  1  0  0  0
 37 66  1  0  0  0
 37113  1  0  0  0
 38 43  2  0  0  0
 38 46  1  0  0  0
 38 47  1  0  0  0
 39 64  1  0  0  0
 39 67  2  0  0  0
 40 52  1  0  0  0
 40 53  2  0  0  0
 40 58  1  0  0  0
 41114  1  0  0  0
 41115  1  0  0  0
 41116  1  0  0  0
 41 48  1  0  0  0
 42 43  1  0  0  0
 42 66  1  0  0  0
 42117  1  0  0  0
 42118  1  0  0  0
 43 44  1  0  0  0
 44119  1  0  0  0
 45 46  2  0  0  0
 45120  1  0  0  0
 46121  1  0  0  0
 47122  1  0  0  0
 47123  1  0  0  0
 48 56  1  0  0  0
 48 65  1  0  0  0
 48124  1  0  0  0
 49 50  1  0  0  0
 49 53  1  0  0  0
 49 64  1  0  0  0
 49125  1  0  0  0
 50 51  1  0  0  0
 50126  1  0  0  0
 50127  1  0  0  0
 51 52  1  0  0  0
 51128  1  0  0  0
 51129  1  0  0  0
 52130  1  0  0  0
 52131  1  0  0  0
 53 54  1  0  0  0
 54 55  2  0  0  0
 54132  1  0  0  0
 55 57  1  0  0  0
 55133  1  0  0  0
 56 69  2  0  0  0
 57 58  2  0  0  0
 57134  1  0  0  0
 58135  1  0  0  0
 59 60  1  0  0  0
 59 61  1  0  0  0
 59 62  1  0  0  0
 60136  1  0  0  0
 60137  1  0  0  0
 60138  1  0  0  0
 61139  1  0  0  0
 61140  1  0  0  0
 61141  1  0  0  0
 62142  1  0  0  0
 62143  1  0  0  0
 62144  1  0  0  0
 63 65  1  0  0  0
 63145  1  0  0  0
 63146  1  0  0  0
 63147  1  0  0  0
 64148  1  0  0  0
 65149  1  0  0  0
 68 85  1  0  0  0
 71 73  2  0  0  0
 71 74  1  0  0  0
 71150  1  0  0  0
 72 73  1  0  0  0
 72 76  2  0  0  0
 72151  1  0  0  0
 73 84  1  0  0  0
 74 75  2  0  0  0
 74 86  1  0  0  0
 75 76  1  0  0  0
 75 88  1  0  0  0
 76 90  1  0  0  0
 77 79  1  0  0  0
 77 84  1  0  0  0
 77152  1  0  0  0
 77153  1  0  0  0
 78 80  1  0  0  0
 78 84  1  0  0  0
 78154  1  0  0  0
 78155  1  0  0  0
 79 85  1  0  0  0
 79156  1  0  0  0
 79157  1  0  0  0
 80 85  1  0  0  0
 80158  1  0  0  0
 80159  1  0  0  0
 81 82  1  0  0  0
 81 88  1  0  0  0
 81160  1  0  0  0
 81161  1  0  0  0
 82 89  1  0  0  0
 82162  1  0  0  0
 82163  1  0  0  0
 83 88  1  0  0  0
 83 89  1  0  0  0
 83164  1  0  0  0
 83165  1  0  0  0
 84166  1  0  0  0
 85167  1  0  0  0
 86168  1  0  0  0
 86169  1  0  0  0
 86170  1  0  0  0
 87 90  1  0  0  0
 87171  1  0  0  0
 87172  1  0  0  0
 87173  1  0  0  0
M  ISO  4   1 100  68 101  85 101  89 100
M  END
> <chiral flag>
0

> <version>
0

> <s_m_source_file>
/data/baiqing/PycharmProjects/Reinvent-master-3.2/result/LINK_invent/BTK/process_docking_weight1_custom_sum_contain_oxygen_bond_distance_aromatic_linkinvent_7_9_3/rearranged_h_0153.sdf

> <i_m_source_file_index>
41

> <r_mmod_Potential_Energy-OPLS-2005>
285.816101074219

> <r_mmod_Stretch_Energy-OPLS-2005>
37.2886962890625

> <r_mmod_Bend_Energy-OPLS-2005>
130.119750976562

> <r_mmod_Torsional_Energy-OPLS-2005>
440.26806640625

> <r_mmod_Improper_Torsional_Energy-OPLS-2005>
23.5915069580078

> <r_mmod_Van_der_Waal_Energy-OPLS-2005>
152.741088867188

> <r_mmod_Electrostatic_Energy-OPLS-2005>
-321.161499023438

> <r_mmod_Solvation_Energy-OPLS-2005>
-196.845916748047

> <b_mmod_Minimization_Converged-OPLS-2005>
0

> <r_mmod_RMS_Derivative-OPLS-2005>
2.48201417922974

$$$$
41
                    3D
 Structure written by MMmdl.
171180  0  0  1  0            999 V2000
  -30.7290  -14.4259   20.6003 C   0  0  0  0  0  0
  -30.4175  -12.2823   19.4239 C   0  0  0  0  0  0
  -29.4958  -12.5095   18.2095 C   0  0  0  0  0  0
  -28.0164  -12.3713   18.6170 C   0  0  0  0  0  0
  -27.6644  -13.2045   19.8783 C   0  0  2  0  0  0
  -28.7024  -12.9695   21.0005 C   0  0  0  0  0  0
  -25.2601  -13.8161   20.5678 C   0  0  0  0  0  0
  -24.1841  -13.0445   20.9164 C   0  0  0  0  0  0
  -24.6384  -11.6907   20.8716 C   0  0  0  0  0  0
  -23.9048  -10.4294   21.0396 C   0  0  0  0  0  0
  -24.3602   -9.4214   21.9175 C   0  0  0  0  0  0
  -23.6280   -8.2246   22.0746 C   0  0  0  0  0  0
  -22.4262   -8.0282   21.3544 C   0  0  0  0  0  0
  -21.9905   -9.0251   20.4639 C   0  0  0  0  0  0
  -22.7227  -10.2130   20.3042 C   0  0  0  0  0  0
  -21.6851   -6.0733   22.5278 C   0  0  0  0  0  0
  -21.4009   -6.5634   23.8212 C   0  0  0  0  0  0
  -21.3644   -5.6781   24.9173 C   0  0  0  0  0  0
  -21.6040   -4.3049   24.7222 C   0  0  0  0  0  0
  -21.8825   -3.8146   23.4344 C   0  0  0  0  0  0
  -21.9195   -4.6963   22.3402 C   0  0  0  0  0  0
  -22.7869  -13.5247   21.1830 C   0  0  0  0  0  0
  -22.1667   -4.2156   21.0981 F   0  0  0  0  0  0
  -21.5622   -3.4528   25.7728 F   0  0  0  0  0  0
  -30.0422  -13.2597   20.4572 N   0  0  0  0  0  0
  -26.3034  -12.9323   20.3367 N   0  0  0  0  0  0
  -25.9308  -11.6486   20.5743 N   0  0  0  0  0  0
  -22.0492  -12.8237   22.0374 N   0  0  0  0  0  0
  -25.4358  -15.1876   20.4096 N   0  0  0  0  0  0
  -31.8403  -14.5994   20.0894 O   0  0  0  0  0  0
  -21.6631   -6.8872   21.4236 O   0  0  0  0  0  0
  -22.3563  -14.5559   20.6683 O   0  0  0  0  0  0
  -24.6089  -31.8718   23.2129 C   0  0  0  0  0  0
  -25.8994  -32.4840   23.8418 C   0  0  1  0  0  0
  -27.2561  -27.4759   20.1004 C   0  0  0  0  0  0
  -25.5860  -33.8635   24.2343 N   0  0  0  0  0  0
  -23.3976  -30.4927   21.5518 C   0  0  2  0  0  0
  -24.8507  -28.9614   20.1203 C   0  0  0  0  0  0
  -22.7385  -29.4662   22.5012 C   0  0  0  0  0  0
  -18.0268  -28.1377   22.8495 C   0  0  0  0  0  0
  -24.1467  -36.7296   23.2644 C   0  0  0  0  0  0
  -25.9207  -30.8496   21.3616 C   0  0  0  0  0  0
  -26.0035  -29.4825   20.7212 C   0  0  0  0  0  0
  -27.2067  -28.7458   20.7216 C   0  0  0  0  0  0
  -26.0895  -26.9669   19.4950 C   0  0  0  0  0  0
  -24.8851  -27.6959   19.5088 C   0  0  0  0  0  0
  -23.6077  -29.8213   20.1676 C   0  0  0  0  0  0
  -25.4085  -36.3107   24.0347 C   0  0  1  0  0  0
  -20.5857  -28.3646   23.1328 C   0  0  2  0  0  0
  -20.6745  -26.9381   22.5430 C   0  0  0  0  0  0
  -19.5733  -26.6382   21.5210 C   0  0  0  0  0  0
  -18.1907  -26.7931   22.1613 C   0  0  0  0  0  0
  -19.1517  -28.8827   23.2914 C   0  0  0  0  0  0
  -18.9459  -30.1436   23.8924 C   0  0  0  0  0  0
  -17.6463  -30.6587   24.0575 C   0  0  0  0  0  0
  -25.9018  -34.9479   23.5141 C   0  0  0  0  0  0
  -16.5346  -29.9092   23.6334 C   0  0  0  0  0  0
  -16.7260  -28.6505   23.0353 C   0  0  0  0  0  0
  -26.4435  -31.6605   25.0728 C   0  0  0  0  0  0
  -25.3708  -31.3710   26.1488 C   0  0  0  0  0  0
  -27.0248  -30.3057   24.6050 C   0  0  0  0  0  0
  -27.6026  -32.4307   25.7474 C   0  0  0  0  0  0
  -27.5566  -37.1790   24.8464 C   0  0  0  0  0  0
  -21.4121  -29.3016   22.3731 N   0  0  0  0  0  0
  -26.4265  -37.3794   23.9430 N   0  0  0  0  0  0
  -24.6597  -31.0852   22.1009 N   0  0  0  0  0  0
  -23.4166  -28.8218   23.3054 O   0  0  0  0  0  0
  -28.3842  -26.6908   20.0290 O   0  0  0  0  0  0
  -26.5596  -34.8927   22.4711 O   0  0  0  0  0  0
  -23.5286  -32.1449   23.7537 O   0  0  0  0  0  0
  -32.3704  -23.7084   20.7652 C   0  0  0  0  0  0
  -31.7046  -26.0176   20.4010 C   0  0  0  0  0  0
  -29.1025  -17.5765   21.4659 C   0  0  0  0  0  0
  -32.6725  -25.0019   20.3050 C   0  0  0  0  0  0
  -31.1041  -23.4122   21.3099 C   0  0  0  0  0  0
  -30.4289  -25.7489   20.9411 C   0  0  0  0  0  0
  -29.1477  -18.9778   21.3223 C   0  0  0  0  0  0
  -30.1181  -24.4353   21.3996 C   0  0  0  0  0  0
  -30.3557  -19.5786   20.8959 C   0  0  0  0  0  0
  -31.4744  -18.7341   20.7062 C   0  0  0  0  0  0
  -30.2423  -16.7968   21.1873 C   0  0  0  0  0  0
  -34.0300  -25.2976   19.6975 C   0  0  0  0  0  0
  -27.8989  -19.7967   21.5960 C   0  0  0  0  0  0
  -28.7464  -24.1156   21.9877 C   0  0  0  0  0  0
  -32.8337  -19.2625   20.2824 C   0  0  0  0  0  0
  -30.8524  -21.9723   21.7577 C   0  0  0  0  0  0
  -30.4363  -21.0754   20.5763 C   0  0  0  0  0  0
  -29.4151  -26.8904   20.9905 C   0  0  0  0  0  0
  -31.4102  -17.3948   20.8542 N   0  0  0  0  0  0
  -30.0651  -15.3902   21.2650 N   0  0  0  0  0  0
  -31.4645  -12.3615   19.1266 H   0  0  0  0  0  0
  -30.2980  -11.2690   19.8100 H   0  0  0  0  0  0
  -29.7342  -11.8009   17.4154 H   0  0  0  0  0  0
  -29.6742  -13.5034   17.7957 H   0  0  0  0  0  0
  -27.8205  -11.3147   18.8046 H   0  0  0  0  0  0
  -27.3710  -12.6582   17.7864 H   0  0  0  0  0  0
  -27.7155  -14.2546   19.5900 H   0  0  0  0  0  0
  -28.6668  -11.9324   21.3362 H   0  0  0  0  0  0
  -28.4576  -13.5608   21.8836 H   0  0  0  0  0  0
  -25.2740   -9.5696   22.4758 H   0  0  0  0  0  0
  -23.9997   -7.4637   22.7464 H   0  0  0  0  0  0
  -21.0845   -8.8757   19.8939 H   0  0  0  0  0  0
  -22.3678  -10.9661   19.6146 H   0  0  0  0  0  0
  -21.1997   -7.6133   23.9713 H   0  0  0  0  0  0
  -21.1450   -6.0507   25.9073 H   0  0  0  0  0  0
  -22.0617   -2.7614   23.2839 H   0  0  0  0  0  0
  -22.4069  -11.9872   22.4747 H   0  0  0  0  0  0
  -21.1114  -13.1290   22.2565 H   0  0  0  0  0  0
  -24.6726  -15.8474   20.5096 H   0  0  0  0  0  0
  -26.2903  -15.6207   20.0839 H   0  0  0  0  0  0
  -26.7081  -32.5597   23.1210 H   0  0  0  0  0  0
  -24.9966  -33.9804   25.0455 H   0  0  0  0  0  0
  -22.6840  -31.3073   21.4122 H   0  0  0  0  0  0
  -23.3739  -35.9615   23.3299 H   0  0  0  0  0  0
  -24.3573  -36.8918   22.2062 H   0  0  0  0  0  0
  -23.7202  -37.6489   23.6669 H   0  0  0  0  0  0
  -26.0229  -31.6096   20.5856 H   0  0  0  0  0  0
  -26.8123  -30.9152   21.9725 H   0  0  0  0  0  0
  -28.0854  -29.1707   21.1852 H   0  0  0  0  0  0
  -26.1184  -25.9978   19.0168 H   0  0  0  0  0  0
  -24.0002  -27.2824   19.0448 H   0  0  0  0  0  0
  -23.7110  -30.5943   19.4052 H   0  0  0  0  0  0
  -22.7347  -29.2345   19.8754 H   0  0  0  0  0  0
  -25.1250  -36.1964   25.0837 H   0  0  0  0  0  0
  -20.9969  -28.3212   24.1439 H   0  0  0  0  0  0
  -20.5625  -26.2245   23.3612 H   0  0  0  0  0  0
  -21.6621  -26.7410   22.1238 H   0  0  0  0  0  0
  -19.6883  -25.6296   21.1223 H   0  0  0  0  0  0
  -19.6681  -27.3202   20.6747 H   0  0  0  0  0  0
  -17.4184  -26.6705   21.4004 H   0  0  0  0  0  0
  -18.0291  -26.0059   22.8994 H   0  0  0  0  0  0
  -19.7939  -30.7243   24.2299 H   0  0  0  0  0  0
  -17.5026  -31.6270   24.5168 H   0  0  0  0  0  0
  -15.5350  -30.3002   23.7645 H   0  0  0  0  0  0
  -15.8655  -28.0833   22.7063 H   0  0  0  0  0  0
  -24.5858  -30.7078   25.7843 H   0  0  0  0  0  0
  -24.8914  -32.2867   26.4957 H   0  0  0  0  0  0
  -25.8064  -30.8868   27.0237 H   0  0  0  0  0  0
  -26.2769  -29.6848   24.1106 H   0  0  0  0  0  0
  -27.4054  -29.7257   25.4467 H   0  0  0  0  0  0
  -27.8586  -30.4407   23.9155 H   0  0  0  0  0  0
  -27.2675  -33.3615   26.2065 H   0  0  0  0  0  0
  -28.3813  -32.6857   25.0273 H   0  0  0  0  0  0
  -28.0709  -31.8418   26.5372 H   0  0  0  0  0  0
  -28.2578  -38.0092   24.7530 H   0  0  0  0  0  0
  -28.1056  -36.2626   24.6236 H   0  0  0  0  0  0
  -27.2311  -37.1403   25.8876 H   0  0  0  0  0  0
  -20.9270  -29.8710   21.6938 H   0  0  0  0  0  0
  -26.0145  -38.2859   24.1471 H   0  0  0  0  0  0
  -33.1150  -22.9268   20.6909 H   0  0  0  0  0  0
  -31.9399  -27.0116   20.0449 H   0  0  0  0  0  0
  -28.1736  -17.1011   21.7506 H   0  0  0  0  0  0
  -34.5259  -24.3799   19.3794 H   0  0  0  0  0  0
  -34.6725  -25.8001   20.4205 H   0  0  0  0  0  0
  -33.9301  -25.9403   18.8224 H   0  0  0  0  0  0
  -27.1139  -19.1886   22.0454 H   0  0  0  0  0  0
  -27.5060  -20.2156   20.6697 H   0  0  0  0  0  0
  -28.1154  -20.6128   22.2853 H   0  0  0  0  0  0
  -28.3717  -23.1631   21.6146 H   0  0  0  0  0  0
  -27.9838  -24.8540   21.7460 H   0  0  0  0  0  0
  -28.8125  -24.0548   23.0742 H   0  0  0  0  0  0
  -32.8302  -19.5193   19.2232 H   0  0  0  0  0  0
  -33.6176  -18.5227   20.4451 H   0  0  0  0  0  0
  -33.1068  -20.1507   20.8510 H   0  0  0  0  0  0
  -30.1141  -21.9299   22.5574 H   0  0  0  0  0  0
  -31.7728  -21.5915   22.2018 H   0  0  0  0  0  0
  -29.4847  -21.4177   20.1719 H   0  0  0  0  0  0
  -31.1375  -21.2176   19.7545 H   0  0  0  0  0  0
  -29.9186  -27.8382   20.7921 H   0  0  0  0  0  0
  -29.0034  -26.9584   21.9988 H   0  0  0  0  0  0
  -29.1880  -15.0881   21.6540 H   0  0  0  0  0  0
  1 25  1  0  0  0
  1 30  2  0  0  0
  1 90  1  0  0  0
  2  3  1  0  0  0
  2 25  1  0  0  0
  2 91  1  0  0  0
  2 92  1  0  0  0
  3  4  1  0  0  0
  3 93  1  0  0  0
  3 94  1  0  0  0
  4  5  1  0  0  0
  4 95  1  0  0  0
  4 96  1  0  0  0
  5  6  1  0  0  0
  5 26  1  0  0  0
  5 97  1  0  0  0
  6 25  1  0  0  0
  6 98  1  0  0  0
  6 99  1  0  0  0
  7  8  2  0  0  0
  7 26  1  0  0  0
  7 29  1  0  0  0
  8  9  1  0  0  0
  8 22  1  0  0  0
  9 10  1  0  0  0
  9 27  2  0  0  0
 10 11  2  0  0  0
 10 15  1  0  0  0
 11 12  1  0  0  0
 11100  1  0  0  0
 12 13  2  0  0  0
 12101  1  0  0  0
 13 14  1  0  0  0
 13 31  1  0  0  0
 14 15  2  0  0  0
 14102  1  0  0  0
 15103  1  0  0  0
 16 17  2  0  0  0
 16 21  1  0  0  0
 16 31  1  0  0  0
 17 18  1  0  0  0
 17104  1  0  0  0
 18 19  2  0  0  0
 18105  1  0  0  0
 19 20  1  0  0  0
 19 24  1  0  0  0
 20 21  2  0  0  0
 20106  1  0  0  0
 21 23  1  0  0  0
 22 28  1  0  0  0
 22 32  2  0  0  0
 26 27  1  0  0  0
 28107  1  0  0  0
 28108  1  0  0  0
 29109  1  0  0  0
 29110  1  0  0  0
 33 34  1  0  0  0
 33 66  1  0  0  0
 33 70  2  0  0  0
 34 36  1  0  0  0
 34 59  1  0  0  0
 34111  1  0  0  0
 35 44  2  0  0  0
 35 45  1  0  0  0
 35 68  1  0  0  0
 36 56  1  0  0  0
 36112  1  0  0  0
 37 39  1  0  0  0
 37 47  1  0  0  0
 37 66  1  0  0  0
 37113  1  0  0  0
 38 43  2  0  0  0
 38 46  1  0  0  0
 38 47  1  0  0  0
 39 64  1  0  0  0
 39 67  2  0  0  0
 40 52  1  0  0  0
 40 53  2  0  0  0
 40 58  1  0  0  0
 41114  1  0  0  0
 41115  1  0  0  0
 41116  1  0  0  0
 41 48  1  0  0  0
 42 43  1  0  0  0
 42 66  1  0  0  0
 42117  1  0  0  0
 42118  1  0  0  0
 43 44  1  0  0  0
 44119  1  0  0  0
 45 46  2  0  0  0
 45120  1  0  0  0
 46121  1  0  0  0
 47122  1  0  0  0
 47123  1  0  0  0
 48 56  1  0  0  0
 48 65  1  0  0  0
 48124  1  0  0  0
 49 50  1  0  0  0
 49 53  1  0  0  0
 49 64  1  0  0  0
 49125  1  0  0  0
 50 51  1  0  0  0
 50126  1  0  0  0
 50127  1  0  0  0
 51 52  1  0  0  0
 51128  1  0  0  0
 51129  1  0  0  0
 52130  1  0  0  0
 52131  1  0  0  0
 53 54  1  0  0  0
 54 55  2  0  0  0
 54132  1  0  0  0
 55 57  1  0  0  0
 55133  1  0  0  0
 56 69  2  0  0  0
 57 58  2  0  0  0
 57134  1  0  0  0
 58135  1  0  0  0
 59 60  1  0  0  0
 59 61  1  0  0  0
 59 62  1  0  0  0
 60136  1  0  0  0
 60137  1  0  0  0
 60138  1  0  0  0
 61139  1  0  0  0
 61140  1  0  0  0
 61141  1  0  0  0
 62142  1  0  0  0
 62143  1  0  0  0
 62144  1  0  0  0
 63 65  1  0  0  0
 63145  1  0  0  0
 63146  1  0  0  0
 63147  1  0  0  0
 64148  1  0  0  0
 65149  1  0  0  0
 68 88  1  0  0  0
 71 74  2  0  0  0
 71 75  1  0  0  0
 71150  1  0  0  0
 72 74  1  0  0  0
 72 76  2  0  0  0
 72151  1  0  0  0
 73 77  2  0  0  0
 73 81  1  0  0  0
 73152  1  0  0  0
 74 82  1  0  0  0
 75 78  2  0  0  0
 75 86  1  0  0  0
 76 78  1  0  0  0
 76 88  1  0  0  0
 77 79  1  0  0  0
 77 83  1  0  0  0
 78 84  1  0  0  0
 79 80  2  0  0  0
 79 87  1  0  0  0
 80 85  1  0  0  0
 80 89  1  0  0  0
 81 89  2  0  0  0
 81 90  1  0  0  0
 82153  1  0  0  0
 82154  1  0  0  0
 82155  1  0  0  0
 83156  1  0  0  0
 83157  1  0  0  0
 83158  1  0  0  0
 84159  1  0  0  0
 84160  1  0  0  0
 84161  1  0  0  0
 85162  1  0  0  0
 85163  1  0  0  0
 85164  1  0  0  0
 86 87  1  0  0  0
 86165  1  0  0  0
 86166  1  0  0  0
 87167  1  0  0  0
 87168  1  0  0  0
 88169  1  0  0  0
 88170  1  0  0  0
 90171  1  0  0  0
M  ISO  4   1 100  68 101  88 101  90 100
M  END
> <chiral flag>
0

> <version>
0

> <s_m_source_file>
/data/baiqing/PycharmProjects/Reinvent-master-3.2/result/LINK_invent/BTK/process_docking_weight1_custom_sum_contain_oxygen_bond_distance_aromatic_linkinvent_7_9_3/rearranged_h_0153.sdf

> <i_m_source_file_index>
42

> <r_mmod_Potential_Energy-OPLS-2005>
-196.874465942383

> <r_mmod_Stretch_Energy-OPLS-2005>
36.828685760498

> <r_mmod_Bend_Energy-OPLS-2005>
101.560180664062

> <r_mmod_Torsional_Energy-OPLS-2005>
209.841491699219

> <r_mmod_Improper_Torsional_Energy-OPLS-2005>
3.44115114212036

> <r_mmod_Van_der_Waal_Energy-OPLS-2005>
176.576522827148

> <r_mmod_Electrostatic_Energy-OPLS-2005>
-500.731109619141

> <r_mmod_Solvation_Energy-OPLS-2005>
-232.651275634766

> <b_mmod_Minimization_Converged-OPLS-2005>
0

> <r_mmod_RMS_Derivative-OPLS-2005>
1.67648136615753

$$$$
42
                    3D
 Structure written by MMmdl.
164173  0  0  1  0            999 V2000
  -30.7499  -14.4130   20.6542 C   0  0  0  0  0  0
  -30.4166  -12.3071   19.4062 C   0  0  0  0  0  0
  -29.4863  -12.5228   18.1974 C   0  0  0  0  0  0
  -28.0108  -12.3756   18.6134 C   0  0  0  0  0  0
  -27.6631  -13.2054   19.8773 C   0  0  2  0  0  0
  -28.7023  -12.9721   20.9956 C   0  0  0  0  0  0
  -25.2582  -13.8121   20.5637 C   0  0  0  0  0  0
  -24.1837  -13.0418   20.9165 C   0  0  0  0  0  0
  -24.6395  -11.6890   20.8735 C   0  0  0  0  0  0
  -23.9061  -10.4282   21.0406 C   0  0  0  0  0  0
  -24.3612   -9.4200   21.9187 C   0  0  0  0  0  0
  -23.6286   -8.2237   22.0757 C   0  0  0  0  0  0
  -22.4269   -8.0277   21.3543 C   0  0  0  0  0  0
  -21.9905   -9.0251   20.4645 C   0  0  0  0  0  0
  -22.7235  -10.2130   20.3056 C   0  0  0  0  0  0
  -21.6849   -6.0734   22.5279 C   0  0  0  0  0  0
  -21.4010   -6.5639   23.8211 C   0  0  0  0  0  0
  -21.3658   -5.6791   24.9175 C   0  0  0  0  0  0
  -21.6044   -4.3056   24.7226 C   0  0  0  0  0  0
  -21.8820   -3.8148   23.4346 C   0  0  0  0  0  0
  -21.9192   -4.6962   22.3402 C   0  0  0  0  0  0
  -22.7866  -13.5233   21.1835 C   0  0  0  0  0  0
  -22.1661   -4.2150   21.0980 F   0  0  0  0  0  0
  -21.5631   -3.4540   25.7739 F   0  0  0  0  0  0
  -30.0391  -13.2717   20.4515 N   0  0  0  0  0  0
  -26.3031  -12.9306   20.3368 N   0  0  0  0  0  0
  -25.9325  -11.6468   20.5773 N   0  0  0  0  0  0
  -22.0508  -12.8226   22.0394 N   0  0  0  0  0  0
  -25.4302  -15.1805   20.3967 N   0  0  0  0  0  0
  -31.8076  -14.6610   20.0701 O   0  0  0  0  0  0
  -21.6633   -6.8877   21.4240 O   0  0  0  0  0  0
  -22.3554  -14.5546   20.6695 O   0  0  0  0  0  0
  -24.6141  -31.8684   23.2113 C   0  0  0  0  0  0
  -25.9037  -32.4822   23.8406 C   0  0  1  0  0  0
  -27.2382  -27.4403   20.0739 C   0  0  0  0  0  0
  -25.5899  -33.8623   24.2332 N   0  0  0  0  0  0
  -23.4011  -30.4933   21.5524 C   0  0  2  0  0  0
  -24.8448  -28.9611   20.1147 C   0  0  0  0  0  0
  -22.7406  -29.4657   22.4994 C   0  0  0  0  0  0
  -18.0269  -28.1374   22.8494 C   0  0  0  0  0  0
  -24.1483  -36.7312   23.2639 C   0  0  0  0  0  0
  -25.9303  -30.8333   21.3644 C   0  0  0  0  0  0
  -26.0052  -29.4684   20.7098 C   0  0  0  0  0  0
  -27.1991  -28.7120   20.6929 C   0  0  0  0  0  0
  -26.0448  -26.9359   19.5025 C   0  0  0  0  0  0
  -24.8585  -27.6919   19.5146 C   0  0  0  0  0  0
  -23.6079  -29.8285   20.1658 C   0  0  0  0  0  0
  -25.4105  -36.3111   24.0336 C   0  0  1  0  0  0
  -20.5859  -28.3659   23.1317 C   0  0  2  0  0  0
  -20.6755  -26.9396   22.5416 C   0  0  0  0  0  0
  -19.5737  -26.6385   21.5209 C   0  0  0  0  0  0
  -18.1914  -26.7922   22.1621 C   0  0  0  0  0  0
  -19.1521  -28.8834   23.2901 C   0  0  0  0  0  0
  -18.9449  -30.1442   23.8911 C   0  0  0  0  0  0
  -17.6453  -30.6583   24.0567 C   0  0  0  0  0  0
  -25.9037  -34.9476   23.5131 C   0  0  0  0  0  0
  -16.5346  -29.9089   23.6325 C   0  0  0  0  0  0
  -16.7259  -28.6504   23.0348 C   0  0  0  0  0  0
  -26.4467  -31.6601   25.0734 C   0  0  0  0  0  0
  -25.3732  -31.3685   26.1477 C   0  0  0  0  0  0
  -27.0312  -30.3055   24.6100 C   0  0  0  0  0  0
  -27.6040  -32.4321   25.7499 C   0  0  0  0  0  0
  -27.5576  -37.1813   24.8465 C   0  0  0  0  0  0
  -21.4135  -29.3030   22.3732 N   0  0  0  0  0  0
  -26.4290  -37.3797   23.9408 N   0  0  0  0  0  0
  -24.6670  -31.0791   22.1012 N   0  0  0  0  0  0
  -23.4180  -28.8195   23.3032 O   0  0  0  0  0  0
  -28.4299  -26.7385   20.0939 O   0  0  0  0  0  0
  -26.5603  -34.8927   22.4695 O   0  0  0  0  0  0
  -23.5335  -32.1440   23.7507 O   0  0  0  0  0  0
  -27.9004  -21.7455   21.7171 C   0  0  0  0  0  0
  -29.9878  -20.4788   20.4778 C   0  0  0  0  0  0
  -28.1539  -20.3981   22.0426 C   0  0  0  0  0  0
  -29.2208  -19.7232   21.4031 C   0  0  0  0  0  0
  -28.7168  -22.4008   20.7850 C   0  0  0  0  0  0
  -25.6598  -18.2608   21.5959 C   0  0  0  0  0  0
  -25.1015  -18.2166   22.9954 C   0  0  0  0  0  0
  -25.8866  -19.4244   22.5310 C   0  0  0  0  0  0
  -27.2752  -19.7049   23.0722 C   0  0  0  0  0  0
  -30.9218  -16.4728   22.0525 C   0  0  0  0  0  0
  -30.6438  -17.7617   21.2447 C   0  0  0  0  0  0
  -28.6990  -25.7323   19.1052 C   0  0  0  0  0  0
  -29.3704  -24.4826   19.7096 C   0  0  0  0  0  0
  -29.7550  -21.7801   20.1820 N   0  0  0  0  0  0
  -30.2399  -15.2746   21.5463 N   0  0  0  0  0  0
  -29.4445  -18.3879   21.7060 O   0  0  0  0  0  0
  -28.4269  -23.7137   20.4616 O   0  0  0  0  0  0
  -31.4602  -12.4060   19.1023 H   0  0  0  0  0  0
  -30.3167  -11.2900   19.7883 H   0  0  0  0  0  0
  -29.7240  -11.8104   17.4063 H   0  0  0  0  0  0
  -29.6524  -13.5156   17.7766 H   0  0  0  0  0  0
  -27.8216  -11.3178   18.8004 H   0  0  0  0  0  0
  -27.3572  -12.6590   17.7876 H   0  0  0  0  0  0
  -27.7133  -14.2568   19.5925 H   0  0  0  0  0  0
  -28.6740  -11.9331   21.3275 H   0  0  0  0  0  0
  -28.4513  -13.5621   21.8771 H   0  0  0  0  0  0
  -25.2758   -9.5676   22.4760 H   0  0  0  0  0  0
  -23.9996   -7.4628   22.7476 H   0  0  0  0  0  0
  -21.0842   -8.8769   19.8948 H   0  0  0  0  0  0
  -22.3698  -10.9670   19.6164 H   0  0  0  0  0  0
  -21.1999   -7.6147   23.9715 H   0  0  0  0  0  0
  -21.1479   -6.0523   25.9077 H   0  0  0  0  0  0
  -22.0601   -2.7610   23.2846 H   0  0  0  0  0  0
  -22.4117  -11.9873   22.4760 H   0  0  0  0  0  0
  -21.1133  -13.1261   22.2611 H   0  0  0  0  0  0
  -24.6743  -15.8427   20.5282 H   0  0  0  0  0  0
  -26.2943  -15.6172   20.1021 H   0  0  0  0  0  0
  -26.7107  -32.5531   23.1168 H   0  0  0  0  0  0
  -25.0041  -33.9788   25.0470 H   0  0  0  0  0  0
  -22.6893  -31.3099   21.4157 H   0  0  0  0  0  0
  -23.3744  -35.9646   23.3313 H   0  0  0  0  0  0
  -24.3571  -36.8922   22.2051 H   0  0  0  0  0  0
  -23.7240  -37.6521   23.6652 H   0  0  0  0  0  0
  -26.0442  -31.5997   20.5969 H   0  0  0  0  0  0
  -26.8184  -30.8841   21.9832 H   0  0  0  0  0  0
  -28.0962  -29.1048   21.1506 H   0  0  0  0  0  0
  -25.9848  -25.9522   19.0648 H   0  0  0  0  0  0
  -23.9598  -27.2869   19.0700 H   0  0  0  0  0  0
  -23.7162  -30.6054   19.4082 H   0  0  0  0  0  0
  -22.7313  -29.2495   19.8692 H   0  0  0  0  0  0
  -25.1280  -36.1979   25.0830 H   0  0  0  0  0  0
  -20.9948  -28.3222   24.1439 H   0  0  0  0  0  0
  -20.5657  -26.2267   23.3599 H   0  0  0  0  0  0
  -21.6628  -26.7433   22.1211 H   0  0  0  0  0  0
  -19.6898  -25.6301   21.1224 H   0  0  0  0  0  0
  -19.6678  -27.3204   20.6745 H   0  0  0  0  0  0
  -17.4186  -26.6681   21.4020 H   0  0  0  0  0  0
  -18.0309  -26.0056   22.9006 H   0  0  0  0  0  0
  -19.7926  -30.7252   24.2289 H   0  0  0  0  0  0
  -17.5010  -31.6262   24.5169 H   0  0  0  0  0  0
  -15.5347  -30.3000   23.7637 H   0  0  0  0  0  0
  -15.8657  -28.0832   22.7055 H   0  0  0  0  0  0
  -24.5913  -30.7028   25.7802 H   0  0  0  0  0  0
  -24.8909  -32.2827   26.4942 H   0  0  0  0  0  0
  -25.8084  -30.8839   27.0224 H   0  0  0  0  0  0
  -26.2863  -29.6814   24.1146 H   0  0  0  0  0  0
  -27.4092  -29.7286   25.4551 H   0  0  0  0  0  0
  -27.8686  -30.4396   23.9249 H   0  0  0  0  0  0
  -27.2659  -33.3605   26.2109 H   0  0  0  0  0  0
  -28.3831  -32.6904   25.0317 H   0  0  0  0  0  0
  -28.0728  -31.8427   26.5389 H   0  0  0  0  0  0
  -28.2595  -38.0109   24.7512 H   0  0  0  0  0  0
  -28.1072  -36.2639   24.6290 H   0  0  0  0  0  0
  -27.2292  -37.1464   25.8869 H   0  0  0  0  0  0
  -20.9296  -29.8771   21.6969 H   0  0  0  0  0  0
  -26.0177  -38.2876   24.1412 H   0  0  0  0  0  0
  -27.0821  -22.2780   22.1816 H   0  0  0  0  0  0
  -30.8142  -20.0383   19.9407 H   0  0  0  0  0  0
  -24.9593  -18.4034   20.7752 H   0  0  0  0  0  0
  -26.5172  -17.6283   21.3726 H   0  0  0  0  0  0
  -25.5764  -17.5375   23.7015 H   0  0  0  0  0  0
  -24.0248  -18.3286   23.1108 H   0  0  0  0  0  0
  -25.3096  -20.3217   22.3128 H   0  0  0  0  0  0
  -27.1883  -20.3415   23.9532 H   0  0  0  0  0  0
  -27.7329  -18.7764   23.4132 H   0  0  0  0  0  0
  -30.6496  -16.6247   23.0974 H   0  0  0  0  0  0
  -31.9983  -16.2899   22.0619 H   0  0  0  0  0  0
  -30.5958  -17.5600   20.1736 H   0  0  0  0  0  0
  -31.4872  -18.4340   21.4111 H   0  0  0  0  0  0
  -27.8586  -25.4221   18.4916 H   0  0  0  0  0  0
  -29.4004  -26.1851   18.4037 H   0  0  0  0  0  0
  -30.2126  -24.7618   20.3435 H   0  0  0  0  0  0
  -29.7697  -23.9039   18.8757 H   0  0  0  0  0  0
  -29.3589  -15.0272   21.9717 H   0  0  0  0  0  0
  1 25  1  0  0  0
  1 30  2  0  0  0
  1 85  1  0  0  0
  2  3  1  0  0  0
  2 25  1  0  0  0
  2 88  1  0  0  0
  2 89  1  0  0  0
  3  4  1  0  0  0
  3 90  1  0  0  0
  3 91  1  0  0  0
  4  5  1  0  0  0
  4 92  1  0  0  0
  4 93  1  0  0  0
  5  6  1  0  0  0
  5 26  1  0  0  0
  5 94  1  0  0  0
  6 25  1  0  0  0
  6 95  1  0  0  0
  6 96  1  0  0  0
  7  8  2  0  0  0
  7 26  1  0  0  0
  7 29  1  0  0  0
  8  9  1  0  0  0
  8 22  1  0  0  0
  9 10  1  0  0  0
  9 27  2  0  0  0
 10 11  2  0  0  0
 10 15  1  0  0  0
 11 12  1  0  0  0
 11 97  1  0  0  0
 12 13  2  0  0  0
 12 98  1  0  0  0
 13 14  1  0  0  0
 13 31  1  0  0  0
 14 15  2  0  0  0
 14 99  1  0  0  0
 15100  1  0  0  0
 16 17  2  0  0  0
 16 21  1  0  0  0
 16 31  1  0  0  0
 17 18  1  0  0  0
 17101  1  0  0  0
 18 19  2  0  0  0
 18102  1  0  0  0
 19 20  1  0  0  0
 19 24  1  0  0  0
 20 21  2  0  0  0
 20103  1  0  0  0
 21 23  1  0  0  0
 22 28  1  0  0  0
 22 32  2  0  0  0
 26 27  1  0  0  0
 28104  1  0  0  0
 28105  1  0  0  0
 29106  1  0  0  0
 29107  1  0  0  0
 33 34  1  0  0  0
 33 66  1  0  0  0
 33 70  2  0  0  0
 34 36  1  0  0  0
 34 59  1  0  0  0
 34108  1  0  0  0
 35 44  2  0  0  0
 35 45  1  0  0  0
 35 68  1  0  0  0
 36 56  1  0  0  0
 36109  1  0  0  0
 37 39  1  0  0  0
 37 47  1  0  0  0
 37 66  1  0  0  0
 37110  1  0  0  0
 38 43  2  0  0  0
 38 46  1  0  0  0
 38 47  1  0  0  0
 39 64  1  0  0  0
 39 67  2  0  0  0
 40 52  1  0  0  0
 40 53  2  0  0  0
 40 58  1  0  0  0
 41111  1  0  0  0
 41112  1  0  0  0
 41113  1  0  0  0
 41 48  1  0  0  0
 42 43  1  0  0  0
 42 66  1  0  0  0
 42114  1  0  0  0
 42115  1  0  0  0
 43 44  1  0  0  0
 44116  1  0  0  0
 45 46  2  0  0  0
 45117  1  0  0  0
 46118  1  0  0  0
 47119  1  0  0  0
 47120  1  0  0  0
 48 56  1  0  0  0
 48 65  1  0  0  0
 48121  1  0  0  0
 49 50  1  0  0  0
 49 53  1  0  0  0
 49 64  1  0  0  0
 49122  1  0  0  0
 50 51  1  0  0  0
 50123  1  0  0  0
 50124  1  0  0  0
 51 52  1  0  0  0
 51125  1  0  0  0
 51126  1  0  0  0
 52127  1  0  0  0
 52128  1  0  0  0
 53 54  1  0  0  0
 54 55  2  0  0  0
 54129  1  0  0  0
 55 57  1  0  0  0
 55130  1  0  0  0
 56 69  2  0  0  0
 57 58  2  0  0  0
 57131  1  0  0  0
 58132  1  0  0  0
 59 60  1  0  0  0
 59 61  1  0  0  0
 59 62  1  0  0  0
 60133  1  0  0  0
 60134  1  0  0  0
 60135  1  0  0  0
 61136  1  0  0  0
 61137  1  0  0  0
 61138  1  0  0  0
 62139  1  0  0  0
 62140  1  0  0  0
 62141  1  0  0  0
 63 65  1  0  0  0
 63142  1  0  0  0
 63143  1  0  0  0
 63144  1  0  0  0
 64145  1  0  0  0
 65146  1  0  0  0
 68 82  1  0  0  0
 71 73  2  0  0  0
 71 75  1  0  0  0
 71147  1  0  0  0
 72 74  2  0  0  0
 72 84  1  0  0  0
 72148  1  0  0  0
 73 74  1  0  0  0
 73 79  1  0  0  0
 74 86  1  0  0  0
 75 84  2  0  0  0
 75 87  1  0  0  0
 76 77  1  0  0  0
 76 78  1  0  0  0
 76149  1  0  0  0
 76150  1  0  0  0
 77 78  1  0  0  0
 77151  1  0  0  0
 77152  1  0  0  0
 78 79  1  0  0  0
 78153  1  0  0  0
 79154  1  0  0  0
 79155  1  0  0  0
 80 81  1  0  0  0
 80 85  1  0  0  0
 80156  1  0  0  0
 80157  1  0  0  0
 81 86  1  0  0  0
 81158  1  0  0  0
 81159  1  0  0  0
 82 83  1  0  0  0
 82160  1  0  0  0
 82161  1  0  0  0
 83 87  1  0  0  0
 83162  1  0  0  0
 83163  1  0  0  0
 85164  1  0  0  0
M  ISO  4   1 100  68 101  82 101  85 100
M  END
> <chiral flag>
0

> <version>
0

> <s_m_source_file>
/data/baiqing/PycharmProjects/Reinvent-master-3.2/result/LINK_invent/BTK/process_docking_weight1_custom_sum_contain_oxygen_bond_distance_aromatic_linkinvent_7_9_3/rearranged_h_0153.sdf

> <i_m_source_file_index>
43

> <r_mmod_Potential_Energy-OPLS-2005>
-218.165618896484

> <r_mmod_Stretch_Energy-OPLS-2005>
36.8998336791992

> <r_mmod_Bend_Energy-OPLS-2005>
116.899894714355

> <r_mmod_Torsional_Energy-OPLS-2005>
221.157089233398

> <r_mmod_Improper_Torsional_Energy-OPLS-2005>
1.74866235256195

> <r_mmod_Van_der_Waal_Energy-OPLS-2005>
161.800765991211

> <r_mmod_Electrostatic_Energy-OPLS-2005>
-554.862243652344

> <r_mmod_Solvation_Energy-OPLS-2005>
-211.035079956055

> <b_mmod_Minimization_Converged-OPLS-2005>
0

> <r_mmod_RMS_Derivative-OPLS-2005>
0.62004953622818

$$$$
43
                    3D
 Structure written by MMmdl.
169178  0  0  1  0            999 V2000
  -30.7133  -14.3898   20.5996 C   0  0  0  0  0  0
  -30.4190  -12.2639   19.4045 C   0  0  0  0  0  0
  -29.4919  -12.5126   18.1971 C   0  0  0  0  0  0
  -28.0100  -12.3846   18.6053 C   0  0  0  0  0  0
  -27.6673  -13.1983   19.8823 C   0  0  2  0  0  0
  -28.7050  -12.9241   20.9954 C   0  0  0  0  0  0
  -25.2609  -13.8146   20.5667 C   0  0  0  0  0  0
  -24.1850  -13.0435   20.9166 C   0  0  0  0  0  0
  -24.6390  -11.6896   20.8728 C   0  0  0  0  0  0
  -23.9054  -10.4288   21.0402 C   0  0  0  0  0  0
  -24.3609   -9.4205   21.9181 C   0  0  0  0  0  0
  -23.6288   -8.2239   22.0752 C   0  0  0  0  0  0
  -22.4270   -8.0279   21.3543 C   0  0  0  0  0  0
  -21.9902   -9.0250   20.4644 C   0  0  0  0  0  0
  -22.7229  -10.2129   20.3052 C   0  0  0  0  0  0
  -21.6852   -6.0734   22.5281 C   0  0  0  0  0  0
  -21.4011   -6.5638   23.8213 C   0  0  0  0  0  0
  -21.3660   -5.6792   24.9177 C   0  0  0  0  0  0
  -21.6043   -4.3055   24.7226 C   0  0  0  0  0  0
  -21.8819   -3.8147   23.4349 C   0  0  0  0  0  0
  -21.9190   -4.6962   22.3405 C   0  0  0  0  0  0
  -22.7873  -13.5240   21.1841 C   0  0  0  0  0  0
  -22.1660   -4.2149   21.0981 F   0  0  0  0  0  0
  -21.5629   -3.4538   25.7739 F   0  0  0  0  0  0
  -30.0454  -13.2185   20.4552 N   0  0  0  0  0  0
  -26.3044  -12.9301   20.3378 N   0  0  0  0  0  0
  -25.9312  -11.6467   20.5753 N   0  0  0  0  0  0
  -22.0507  -12.8232   22.0392 N   0  0  0  0  0  0
  -25.4338  -15.1861   20.4060 N   0  0  0  0  0  0
  -31.8115  -14.6224   20.0858 O   0  0  0  0  0  0
  -21.6634   -6.8878   21.4242 O   0  0  0  0  0  0
  -22.3564  -14.5549   20.6698 O   0  0  0  0  0  0
  -24.6096  -31.8699   23.2114 C   0  0  0  0  0  0
  -25.9013  -32.4826   23.8400 C   0  0  1  0  0  0
  -27.2476  -27.4850   20.0851 C   0  0  0  0  0  0
  -25.5896  -33.8624   24.2345 N   0  0  0  0  0  0
  -23.3952  -30.4899   21.5511 C   0  0  2  0  0  0
  -24.8432  -28.9550   20.1203 C   0  0  0  0  0  0
  -22.7389  -29.4652   22.5022 C   0  0  0  0  0  0
  -18.0264  -28.1361   22.8482 C   0  0  0  0  0  0
  -24.1483  -36.7318   23.2643 C   0  0  0  0  0  0
  -25.9163  -30.8522   21.3537 C   0  0  0  0  0  0
  -25.9975  -29.4870   20.7065 C   0  0  0  0  0  0
  -27.2037  -28.7592   20.6826 C   0  0  0  0  0  0
  -26.0770  -26.9471   19.5071 C   0  0  0  0  0  0
  -24.8743  -27.6816   19.5211 C   0  0  0  0  0  0
  -23.6005  -29.8144   20.1670 C   0  0  0  0  0  0
  -25.4100  -36.3116   24.0348 C   0  0  1  0  0  0
  -20.5853  -28.3633   23.1342 C   0  0  2  0  0  0
  -20.6751  -26.9379   22.5424 C   0  0  0  0  0  0
  -19.5739  -26.6376   21.5208 C   0  0  0  0  0  0
  -18.1914  -26.7907   22.1619 C   0  0  0  0  0  0
  -19.1513  -28.8814   23.2902 C   0  0  0  0  0  0
  -18.9456  -30.1424   23.8908 C   0  0  0  0  0  0
  -17.6462  -30.6575   24.0557 C   0  0  0  0  0  0
  -25.9029  -34.9476   23.5142 C   0  0  0  0  0  0
  -16.5348  -29.9079   23.6322 C   0  0  0  0  0  0
  -16.7254  -28.6495   23.0335 C   0  0  0  0  0  0
  -26.4462  -31.6595   25.0710 C   0  0  0  0  0  0
  -25.3742  -31.3698   26.1471 C   0  0  0  0  0  0
  -27.0288  -30.3053   24.6032 C   0  0  0  0  0  0
  -27.6041  -32.4307   25.7480 C   0  0  0  0  0  0
  -27.5574  -37.1811   24.8467 C   0  0  0  0  0  0
  -21.4125  -29.3007   22.3765 N   0  0  0  0  0  0
  -26.4285  -37.3794   23.9417 N   0  0  0  0  0  0
  -24.6584  -31.0836   22.0990 N   0  0  0  0  0  0
  -23.4184  -28.8201   23.3048 O   0  0  0  0  0  0
  -28.4518  -26.8324   20.0317 O   0  0  0  0  0  0
  -26.5579  -34.8925   22.4695 O   0  0  0  0  0  0
  -23.5307  -32.1422   23.7550 O   0  0  0  0  0  0
  -31.0133  -23.2110   21.5979 C   0  0  0  0  0  0
  -28.8499  -23.2924   22.6990 C   0  0  0  0  0  0
  -29.8327  -23.9083   21.9059 C   0  0  0  0  0  0
  -31.2116  -21.8950   22.0604 C   0  0  0  0  0  0
  -29.0250  -21.9749   23.1681 C   0  0  0  0  0  0
  -30.2065  -21.2539   22.8370 C   0  0  0  0  0  0
  -29.0223  -17.5573   20.5989 C   0  0  0  0  0  0
  -29.1603  -18.9427   21.2521 C   0  0  0  0  0  0
  -30.6180  -17.4666   22.3949 C   0  0  0  0  0  0
  -30.2542  -16.7825   21.0780 C   0  0  1  0  0  0
  -32.5175  -21.2054   21.6891 C   0  0  0  0  0  0
  -27.9228  -21.3819   24.0337 C   0  0  0  0  0  0
  -29.6311  -25.3261   21.4100 C   0  0  0  0  0  0
  -30.3886  -19.7942   23.2718 C   0  0  0  0  0  0
  -28.4723  -25.4655   20.4126 C   0  0  0  0  0  0
  -30.0104  -15.3488   21.2115 N   0  0  0  0  0  0
  -30.3745  -18.8887   22.1014 N   0  3  2  0  0  0
  -31.4657  -12.3550   19.1082 H   0  0  0  0  0  0
  -30.3024  -11.2425   19.7704 H   0  0  0  0  0  0
  -29.7205  -11.8103   17.3944 H   0  0  0  0  0  0
  -29.6754  -13.5089   17.7917 H   0  0  0  0  0  0
  -27.8005  -11.3274   18.7721 H   0  0  0  0  0  0
  -27.3664  -12.6939   17.7807 H   0  0  0  0  0  0
  -27.7283  -14.2540   19.6167 H   0  0  0  0  0  0
  -28.6623  -11.8762   21.2963 H   0  0  0  0  0  0
  -28.4717  -13.4882   21.8995 H   0  0  0  0  0  0
  -25.2757   -9.5681   22.4754 H   0  0  0  0  0  0
  -24.0000   -7.4629   22.7469 H   0  0  0  0  0  0
  -21.0834   -8.8767   19.8951 H   0  0  0  0  0  0
  -22.3691  -10.9666   19.6158 H   0  0  0  0  0  0
  -21.2005   -7.6146   23.9719 H   0  0  0  0  0  0
  -21.1482   -6.0521   25.9080 H   0  0  0  0  0  0
  -22.0598   -2.7608   23.2848 H   0  0  0  0  0  0
  -22.4111  -11.9880   22.4767 H   0  0  0  0  0  0
  -21.1129  -13.1268   22.2606 H   0  0  0  0  0  0
  -24.6630  -15.8388   20.5006 H   0  0  0  0  0  0
  -26.2793  -15.6190   20.0576 H   0  0  0  0  0  0
  -26.7088  -32.5559   23.1178 H   0  0  0  0  0  0
  -25.0059  -33.9782   25.0499 H   0  0  0  0  0  0
  -22.6813  -31.3032   21.4097 H   0  0  0  0  0  0
  -23.3732  -35.9666   23.3322 H   0  0  0  0  0  0
  -24.3577  -36.8904   22.2052 H   0  0  0  0  0  0
  -23.7240  -37.6537   23.6635 H   0  0  0  0  0  0
  -26.0104  -31.6189   20.5831 H   0  0  0  0  0  0
  -26.8108  -30.9156   21.9613 H   0  0  0  0  0  0
  -28.1022  -29.1738   21.1183 H   0  0  0  0  0  0
  -26.0981  -25.9774   19.0302 H   0  0  0  0  0  0
  -23.9869  -27.2657   19.0643 H   0  0  0  0  0  0
  -23.7001  -30.5836   19.4001 H   0  0  0  0  0  0
  -22.7283  -29.2251   19.8790 H   0  0  0  0  0  0
  -25.1269  -36.1994   25.0840 H   0  0  0  0  0  0
  -20.9919  -28.3177   24.1474 H   0  0  0  0  0  0
  -20.5657  -26.2230   23.3597 H   0  0  0  0  0  0
  -21.6621  -26.7425   22.1223 H   0  0  0  0  0  0
  -19.6908  -25.6294   21.1222 H   0  0  0  0  0  0
  -19.6692  -27.3196   20.6750 H   0  0  0  0  0  0
  -17.4188  -26.6654   21.4016 H   0  0  0  0  0  0
  -18.0312  -26.0041   22.9011 H   0  0  0  0  0  0
  -19.7935  -30.7222   24.2287 H   0  0  0  0  0  0
  -17.5023  -31.6261   24.5146 H   0  0  0  0  0  0
  -15.5346  -30.2988   23.7643 H   0  0  0  0  0  0
  -15.8651  -28.0829   22.7036 H   0  0  0  0  0  0
  -24.5909  -30.7044   25.7826 H   0  0  0  0  0  0
  -24.8935  -32.2855   26.4929 H   0  0  0  0  0  0
  -25.8107  -30.8872   27.0221 H   0  0  0  0  0  0
  -26.2812  -29.6817   24.1114 H   0  0  0  0  0  0
  -27.4125  -29.7283   25.4455 H   0  0  0  0  0  0
  -27.8616  -30.4403   23.9121 H   0  0  0  0  0  0
  -27.2660  -33.3590   26.2102 H   0  0  0  0  0  0
  -28.3845  -32.6890   25.0310 H   0  0  0  0  0  0
  -28.0717  -31.8395   26.5366 H   0  0  0  0  0  0
  -28.2601  -38.0096   24.7495 H   0  0  0  0  0  0
  -28.1055  -36.2625   24.6315 H   0  0  0  0  0  0
  -27.2291  -37.1492   25.8868 H   0  0  0  0  0  0
  -20.9285  -29.8724   21.6985 H   0  0  0  0  0  0
  -26.0184  -38.2877   24.1409 H   0  0  0  0  0  0
  -31.7766  -23.6914   21.0004 H   0  0  0  0  0  0
  -27.9524  -23.8424   22.9489 H   0  0  0  0  0  0
  -28.9770  -17.6183   19.5107 H   0  0  0  0  0  0
  -28.0994  -17.0866   20.9407 H   0  0  0  0  0  0
  -28.2741  -19.1504   21.8522 H   0  0  0  0  0  0
  -29.2488  -19.7365   20.5087 H   0  0  0  0  0  0
  -31.6509  -17.2807   22.6933 H   0  0  0  0  0  0
  -29.9635  -17.1335   23.2029 H   0  0  0  0  0  0
  -31.0615  -16.9733   20.3658 H   0  0  0  0  0  0
  -33.2452  -21.9268   21.3164 H   0  0  0  0  0  0
  -32.3623  -20.4717   20.8981 H   0  0  0  0  0  0
  -32.9771  -20.7146   22.5469 H   0  0  0  0  0  0
  -27.1257  -22.1044   24.2117 H   0  0  0  0  0  0
  -28.3116  -21.0911   25.0094 H   0  0  0  0  0  0
  -27.4699  -20.5113   23.5609 H   0  0  0  0  0  0
  -30.5524  -25.6843   20.9485 H   0  0  0  0  0  0
  -29.4518  -25.9700   22.2724 H   0  0  0  0  0  0
  -29.6272  -19.4739   23.9810 H   0  0  0  0  0  0
  -31.3354  -19.6936   23.8030 H   0  0  0  0  0  0
  -27.5378  -25.1418   20.8732 H   0  0  0  0  0  0
  -28.6407  -24.8473   19.5302 H   0  0  0  0  0  0
  -29.1320  -15.0590   21.6150 H   0  0  0  0  0  0
  -31.1378  -19.1862   21.5133 H   0  0  0  0  0  0
  1 25  1  0  0  0
  1 30  2  0  0  0
  1 86  1  0  0  0
  2  3  1  0  0  0
  2 25  1  0  0  0
  2 88  1  0  0  0
  2 89  1  0  0  0
  3  4  1  0  0  0
  3 90  1  0  0  0
  3 91  1  0  0  0
  4  5  1  0  0  0
  4 92  1  0  0  0
  4 93  1  0  0  0
  5  6  1  0  0  0
  5 26  1  0  0  0
  5 94  1  0  0  0
  6 25  1  0  0  0
  6 95  1  0  0  0
  6 96  1  0  0  0
  7  8  2  0  0  0
  7 26  1  0  0  0
  7 29  1  0  0  0
  8  9  1  0  0  0
  8 22  1  0  0  0
  9 10  1  0  0  0
  9 27  2  0  0  0
 10 11  2  0  0  0
 10 15  1  0  0  0
 11 12  1  0  0  0
 11 97  1  0  0  0
 12 13  2  0  0  0
 12 98  1  0  0  0
 13 14  1  0  0  0
 13 31  1  0  0  0
 14 15  2  0  0  0
 14 99  1  0  0  0
 15100  1  0  0  0
 16 17  2  0  0  0
 16 21  1  0  0  0
 16 31  1  0  0  0
 17 18  1  0  0  0
 17101  1  0  0  0
 18 19  2  0  0  0
 18102  1  0  0  0
 19 20  1  0  0  0
 19 24  1  0  0  0
 20 21  2  0  0  0
 20103  1  0  0  0
 21 23  1  0  0  0
 22 28  1  0  0  0
 22 32  2  0  0  0
 26 27  1  0  0  0
 28104  1  0  0  0
 28105  1  0  0  0
 29106  1  0  0  0
 29107  1  0  0  0
 33 34  1  0  0  0
 33 66  1  0  0  0
 33 70  2  0  0  0
 34 36  1  0  0  0
 34 59  1  0  0  0
 34108  1  0  0  0
 35 44  2  0  0  0
 35 45  1  0  0  0
 35 68  1  0  0  0
 36 56  1  0  0  0
 36109  1  0  0  0
 37 39  1  0  0  0
 37 47  1  0  0  0
 37 66  1  0  0  0
 37110  1  0  0  0
 38 43  2  0  0  0
 38 46  1  0  0  0
 38 47  1  0  0  0
 39 64  1  0  0  0
 39 67  2  0  0  0
 40 52  1  0  0  0
 40 53  2  0  0  0
 40 58  1  0  0  0
 41111  1  0  0  0
 41112  1  0  0  0
 41113  1  0  0  0
 41 48  1  0  0  0
 42 43  1  0  0  0
 42 66  1  0  0  0
 42114  1  0  0  0
 42115  1  0  0  0
 43 44  1  0  0  0
 44116  1  0  0  0
 45 46  2  0  0  0
 45117  1  0  0  0
 46118  1  0  0  0
 47119  1  0  0  0
 47120  1  0  0  0
 48 56  1  0  0  0
 48 65  1  0  0  0
 48121  1  0  0  0
 49 50  1  0  0  0
 49 53  1  0  0  0
 49 64  1  0  0  0
 49122  1  0  0  0
 50 51  1  0  0  0
 50123  1  0  0  0
 50124  1  0  0  0
 51 52  1  0  0  0
 51125  1  0  0  0
 51126  1  0  0  0
 52127  1  0  0  0
 52128  1  0  0  0
 53 54  1  0  0  0
 54 55  2  0  0  0
 54129  1  0  0  0
 55 57  1  0  0  0
 55130  1  0  0  0
 56 69  2  0  0  0
 57 58  2  0  0  0
 57131  1  0  0  0
 58132  1  0  0  0
 59 60  1  0  0  0
 59 61  1  0  0  0
 59 62  1  0  0  0
 60133  1  0  0  0
 60134  1  0  0  0
 60135  1  0  0  0
 61136  1  0  0  0
 61137  1  0  0  0
 61138  1  0  0  0
 62139  1  0  0  0
 62140  1  0  0  0
 62141  1  0  0  0
 63 65  1  0  0  0
 63142  1  0  0  0
 63143  1  0  0  0
 63144  1  0  0  0
 64145  1  0  0  0
 65146  1  0  0  0
 68 85  1  0  0  0
 71 73  2  0  0  0
 71 74  1  0  0  0
 71147  1  0  0  0
 72 73  1  0  0  0
 72 75  2  0  0  0
 72148  1  0  0  0
 73 83  1  0  0  0
 74 76  2  0  0  0
 74 81  1  0  0  0
 75 76  1  0  0  0
 75 82  1  0  0  0
 76 84  1  0  0  0
 77 78  1  0  0  0
 77 80  1  0  0  0
 77149  1  0  0  0
 77150  1  0  0  0
 78 87  1  0  0  0
 78151  1  0  0  0
 78152  1  0  0  0
 79 80  1  0  0  0
 79 87  1  0  0  0
 79153  1  0  0  0
 79154  1  0  0  0
 80 86  1  0  0  0
 80155  1  0  0  0
 81156  1  0  0  0
 81157  1  0  0  0
 81158  1  0  0  0
 82159  1  0  0  0
 82160  1  0  0  0
 82161  1  0  0  0
 83 85  1  0  0  0
 83162  1  0  0  0
 83163  1  0  0  0
 84164  1  0  0  0
 84165  1  0  0  0
 84 87  1  0  0  0
 85166  1  0  0  0
 85167  1  0  0  0
 86168  1  0  0  0
 87169  1  0  0  0
M  CHG  1  87   1
M  ISO  4   1 100  68 101  85 101  86 100
M  END
> <chiral flag>
0

> <version>
0

> <s_m_source_file>
/data/baiqing/PycharmProjects/Reinvent-master-3.2/result/LINK_invent/BTK/process_docking_weight1_custom_sum_contain_oxygen_bond_distance_aromatic_linkinvent_7_9_3/rearranged_h_0153.sdf

> <i_m_source_file_index>
44

> <r_mmod_Potential_Energy-OPLS-2005>
-161.020782470703

> <r_mmod_Stretch_Energy-OPLS-2005>
32.6975288391113

> <r_mmod_Bend_Energy-OPLS-2005>
117.855049133301

> <r_mmod_Torsional_Energy-OPLS-2005>
261.151031494141

> <r_mmod_Improper_Torsional_Energy-OPLS-2005>
4.46160316467285

> <r_mmod_Van_der_Waal_Energy-OPLS-2005>
152.104080200195

> <r_mmod_Electrostatic_Energy-OPLS-2005>
-299.346038818359

> <r_mmod_Solvation_Energy-OPLS-2005>
-438.195983886719

> <b_mmod_Minimization_Converged-OPLS-2005>
0

> <r_mmod_RMS_Derivative-OPLS-2005>
1.2521231174469

$$$$
44
                    3D
 Structure written by MMmdl.
159168  0  0  1  0            999 V2000
  -30.6736  -14.6661   20.4503 C   0  0  0  0  0  0
  -30.4184  -12.4074   19.4624 C   0  0  0  0  0  0
  -29.5016  -12.4953   18.2252 C   0  0  0  0  0  0
  -28.0264  -12.3351   18.6397 C   0  0  0  0  0  0
  -27.6424  -13.2325   19.8480 C   0  0  2  0  0  0
  -28.6899  -13.1641   20.9811 C   0  0  0  0  0  0
  -25.2513  -13.8207   20.5695 C   0  0  0  0  0  0
  -24.1804  -13.0446   20.9203 C   0  0  0  0  0  0
  -24.6400  -11.6924   20.8752 C   0  0  0  0  0  0
  -23.9082  -10.4299   21.0399 C   0  0  0  0  0  0
  -24.3633   -9.4214   21.9182 C   0  0  0  0  0  0
  -23.6297   -8.2244   22.0757 C   0  0  0  0  0  0
  -22.4282   -8.0280   21.3543 C   0  0  0  0  0  0
  -21.9918   -9.0257   20.4650 C   0  0  0  0  0  0
  -22.7250  -10.2136   20.3056 C   0  0  0  0  0  0
  -21.6857   -6.0736   22.5278 C   0  0  0  0  0  0
  -21.4020   -6.5640   23.8214 C   0  0  0  0  0  0
  -21.3657   -5.6796   24.9173 C   0  0  0  0  0  0
  -21.6042   -4.3056   24.7228 C   0  0  0  0  0  0
  -21.8821   -3.8149   23.4351 C   0  0  0  0  0  0
  -21.9192   -4.6960   22.3407 C   0  0  0  0  0  0
  -22.7830  -13.5219   21.1857 C   0  0  0  0  0  0
  -22.1659   -4.2149   21.0983 F   0  0  0  0  0  0
  -21.5624   -3.4545   25.7741 F   0  0  0  0  0  0
  -29.9968  -13.4756   20.3921 N   0  0  0  0  0  0
  -26.2945  -12.9420   20.3290 N   0  0  0  0  0  0
  -25.9335  -11.6564   20.5766 N   0  0  0  0  0  0
  -22.0479  -12.8204   22.0417 N   0  0  0  0  0  0
  -25.4215  -15.1931   20.4129 N   0  0  0  0  0  0
  -31.8715  -14.7096   20.1625 O   0  0  0  0  0  0
  -21.6641   -6.8874   21.4240 O   0  0  0  0  0  0
  -22.3506  -14.5525   20.6702 O   0  0  0  0  0  0
  -24.6261  -31.8602   23.2008 C   0  0  0  0  0  0
  -25.9108  -32.4783   23.8342 C   0  0  1  0  0  0
  -27.2266  -27.3294   20.1291 C   0  0  0  0  0  0
  -25.5932  -33.8580   24.2279 N   0  0  0  0  0  0
  -23.4201  -30.4804   21.5442 C   0  0  2  0  0  0
  -24.8668  -28.9314   20.1133 C   0  0  0  0  0  0
  -22.7501  -29.4613   22.4968 C   0  0  0  0  0  0
  -18.0293  -28.1388   22.8482 C   0  0  0  0  0  0
  -24.1492  -36.7297   23.2645 C   0  0  0  0  0  0
  -25.9568  -30.7990   21.3631 C   0  0  0  0  0  0
  -26.0341  -29.4219   20.7145 C   0  0  0  0  0  0
  -27.2193  -28.6318   20.7119 C   0  0  0  0  0  0
  -26.0423  -26.8825   19.5084 C   0  0  0  0  0  0
  -24.8725  -27.6674   19.4998 C   0  0  0  0  0  0
  -23.6327  -29.8102   20.1606 C   0  0  0  0  0  0
  -25.4115  -36.3101   24.0341 C   0  0  1  0  0  0
  -20.5895  -28.3679   23.1317 C   0  0  2  0  0  0
  -20.6785  -26.9406   22.5436 C   0  0  0  0  0  0
  -19.5751  -26.6385   21.5246 C   0  0  0  0  0  0
  -18.1923  -26.7922   22.1645 C   0  0  0  0  0  0
  -19.1545  -28.8850   23.2881 C   0  0  0  0  0  0
  -18.9471  -30.1454   23.8893 C   0  0  0  0  0  0
  -17.6469  -30.6583   24.0568 C   0  0  0  0  0  0
  -25.9058  -34.9465   23.5120 C   0  0  0  0  0  0
  -16.5356  -29.9084   23.6333 C   0  0  0  0  0  0
  -16.7279  -28.6512   23.0327 C   0  0  0  0  0  0
  -26.4486  -31.6574   25.0698 C   0  0  0  0  0  0
  -25.3729  -31.3710   26.1434 C   0  0  0  0  0  0
  -27.0313  -30.3019   24.6085 C   0  0  0  0  0  0
  -27.6066  -32.4282   25.7452 C   0  0  0  0  0  0
  -27.5579  -37.1798   24.8467 C   0  0  0  0  0  0
  -21.4214  -29.3036   22.3725 N   0  0  0  0  0  0
  -26.4287  -37.3796   23.9420 N   0  0  0  0  0  0
  -24.6870  -31.0628   22.0945 N   0  0  0  0  0  0
  -23.4222  -28.8168   23.3072 O   0  0  0  0  0  0
  -28.3423  -26.4882   20.1355 O   0  0  0  0  0  0
  -26.5628  -34.8935   22.4690 O   0  0  0  0  0  0
  -23.5426  -32.1399   23.7327 O   0  0  0  0  0  0
  -29.6155  -20.8784   19.6471 C   0  0  0  0  0  0
  -28.7133  -20.3782   21.8328 C   0  0  0  0  0  0
  -30.0247  -19.5120   19.5655 C   0  0  0  0  0  0
  -29.8020  -18.5667   20.5818 C   0  0  0  0  0  0
  -28.9452  -21.3483   20.8095 C   0  0  0  0  0  0
  -29.1396  -19.0063   21.7505 C   0  0  0  0  0  0
  -30.8171  -18.9023   18.4384 C   0  0  0  0  0  0
  -30.9876  -17.4090   18.8213 C   0  0  0  0  0  0
  -30.5451  -17.2175   20.3010 C   0  0  2  0  0  0
  -28.6316  -18.5698   24.0527 C   0  0  0  0  0  0
  -28.1925  -25.1803   20.8111 C   0  0  0  0  0  0
  -28.6926  -23.8137   20.1502 C   0  0  0  0  0  0
  -29.9666  -15.8417   20.5677 N   0  0  0  0  0  0
  -28.9796  -18.0852   22.7628 O   0  0  0  0  0  0
  -28.5090  -22.6698   21.0520 O   0  0  0  0  0  0
  -31.4641  -12.4988   19.1629 H   0  0  0  0  0  0
  -30.3296  -11.4316   19.9422 H   0  0  0  0  0  0
  -29.7721  -11.7283   17.4984 H   0  0  0  0  0  0
  -29.6429  -13.4557   17.7259 H   0  0  0  0  0  0
  -27.8693  -11.2853   18.8915 H   0  0  0  0  0  0
  -27.3717  -12.5432   17.7926 H   0  0  0  0  0  0
  -27.6373  -14.2562   19.4708 H   0  0  0  0  0  0
  -28.7068  -12.1742   21.4379 H   0  0  0  0  0  0
  -28.4439  -13.8691   21.7767 H   0  0  0  0  0  0
  -25.2780   -9.5679   22.4761 H   0  0  0  0  0  0
  -24.0007   -7.4633   22.7475 H   0  0  0  0  0  0
  -21.0850   -8.8771   19.8957 H   0  0  0  0  0  0
  -22.3705  -10.9672   19.6161 H   0  0  0  0  0  0
  -21.2018   -7.6151   23.9713 H   0  0  0  0  0  0
  -21.1477   -6.0530   25.9074 H   0  0  0  0  0  0
  -22.0603   -2.7612   23.2857 H   0  0  0  0  0  0
  -22.4112  -11.9863   22.4801 H   0  0  0  0  0  0
  -21.1092  -13.1214   22.2617 H   0  0  0  0  0  0
  -24.6581  -15.8506   20.5311 H   0  0  0  0  0  0
  -26.2732  -15.6345   20.0912 H   0  0  0  0  0  0
  -26.7173  -32.5458   23.1088 H   0  0  0  0  0  0
  -25.0078  -33.9725   25.0420 H   0  0  0  0  0  0
  -22.7119  -31.2988   21.3981 H   0  0  0  0  0  0
  -23.3766  -35.9617   23.3296 H   0  0  0  0  0  0
  -24.3600  -36.8943   22.2067 H   0  0  0  0  0  0
  -23.7215  -37.6483   23.6665 H   0  0  0  0  0  0
  -26.0725  -31.5549   20.5853 H   0  0  0  0  0  0
  -26.8461  -30.8612   21.9801 H   0  0  0  0  0  0
  -28.1167  -29.0046   21.1844 H   0  0  0  0  0  0
  -26.0207  -25.9098   19.0376 H   0  0  0  0  0  0
  -23.9791  -27.2871   19.0235 H   0  0  0  0  0  0
  -23.7433  -30.5830   19.3994 H   0  0  0  0  0  0
  -22.7547  -29.2352   19.8632 H   0  0  0  0  0  0
  -25.1278  -36.1962   25.0828 H   0  0  0  0  0  0
  -20.9944  -28.3244   24.1461 H   0  0  0  0  0  0
  -20.5741  -26.2290   23.3639 H   0  0  0  0  0  0
  -21.6640  -26.7469   22.1192 H   0  0  0  0  0  0
  -19.6923  -25.6309   21.1248 H   0  0  0  0  0  0
  -19.6679  -27.3236   20.6801 H   0  0  0  0  0  0
  -17.4211  -26.6704   21.4023 H   0  0  0  0  0  0
  -18.0271  -26.0072   22.9045 H   0  0  0  0  0  0
  -19.7949  -30.7267   24.2254 H   0  0  0  0  0  0
  -17.5024  -31.6255   24.5173 H   0  0  0  0  0  0
  -15.5347  -30.2974   23.7653 H   0  0  0  0  0  0
  -15.8692  -28.0832   22.7003 H   0  0  0  0  0  0
  -24.5879  -30.7086   25.7760 H   0  0  0  0  0  0
  -24.8932  -32.2873   26.4879 H   0  0  0  0  0  0
  -25.8048  -30.8857   27.0192 H   0  0  0  0  0  0
  -26.2850  -29.6779   24.1150 H   0  0  0  0  0  0
  -27.4115  -29.7254   25.4525 H   0  0  0  0  0  0
  -27.8670  -30.4363   23.9217 H   0  0  0  0  0  0
  -27.2721  -33.3619   26.1979 H   0  0  0  0  0  0
  -28.3887  -32.6776   25.0267 H   0  0  0  0  0  0
  -28.0705  -31.8423   26.5402 H   0  0  0  0  0  0
  -28.2581  -38.0105   24.7522 H   0  0  0  0  0  0
  -28.1080  -36.2636   24.6255 H   0  0  0  0  0  0
  -27.2307  -37.1410   25.8872 H   0  0  0  0  0  0
  -20.9405  -29.8758   21.6921 H   0  0  0  0  0  0
  -26.0179  -38.2878   24.1415 H   0  0  0  0  0  0
  -29.8423  -21.5575   18.8360 H   0  0  0  0  0  0
  -28.2068  -20.7346   22.7172 H   0  0  0  0  0  0
  -31.7853  -19.4001   18.3653 H   0  0  0  0  0  0
  -30.3009  -19.0230   17.4850 H   0  0  0  0  0  0
  -32.0050  -17.0582   18.6467 H   0  0  0  0  0  0
  -30.3388  -16.8207   18.1711 H   0  0  0  0  0  0
  -31.4389  -17.2830   20.9239 H   0  0  0  0  0  0
  -28.6216  -17.7362   24.7548 H   0  0  0  0  0  0
  -27.6378  -19.0184   24.0654 H   0  0  0  0  0  0
  -29.3622  -19.2976   24.4114 H   0  0  0  0  0  0
  -28.7411  -25.2907   21.7469 H   0  0  0  0  0  0
  -27.1583  -25.0370   21.1234 H   0  0  0  0  0  0
  -29.7445  -23.8955   19.8780 H   0  0  0  0  0  0
  -28.1374  -23.6342   19.2294 H   0  0  0  0  0  0
  -28.9777  -15.7812   20.7559 H   0  0  0  0  0  0
  1 25  1  0  0  0
  1 30  2  0  0  0
  1 83  1  0  0  0
  2  3  1  0  0  0
  2 25  1  0  0  0
  2 86  1  0  0  0
  2 87  1  0  0  0
  3  4  1  0  0  0
  3 88  1  0  0  0
  3 89  1  0  0  0
  4  5  1  0  0  0
  4 90  1  0  0  0
  4 91  1  0  0  0
  5  6  1  0  0  0
  5 26  1  0  0  0
  5 92  1  0  0  0
  6 25  1  0  0  0
  6 93  1  0  0  0
  6 94  1  0  0  0
  7  8  2  0  0  0
  7 26  1  0  0  0
  7 29  1  0  0  0
  8  9  1  0  0  0
  8 22  1  0  0  0
  9 10  1  0  0  0
  9 27  2  0  0  0
 10 11  2  0  0  0
 10 15  1  0  0  0
 11 12  1  0  0  0
 11 95  1  0  0  0
 12 13  2  0  0  0
 12 96  1  0  0  0
 13 14  1  0  0  0
 13 31  1  0  0  0
 14 15  2  0  0  0
 14 97  1  0  0  0
 15 98  1  0  0  0
 16 17  2  0  0  0
 16 21  1  0  0  0
 16 31  1  0  0  0
 17 18  1  0  0  0
 17 99  1  0  0  0
 18 19  2  0  0  0
 18100  1  0  0  0
 19 20  1  0  0  0
 19 24  1  0  0  0
 20 21  2  0  0  0
 20101  1  0  0  0
 21 23  1  0  0  0
 22 28  1  0  0  0
 22 32  2  0  0  0
 26 27  1  0  0  0
 28102  1  0  0  0
 28103  1  0  0  0
 29104  1  0  0  0
 29105  1  0  0  0
 33 34  1  0  0  0
 33 66  1  0  0  0
 33 70  2  0  0  0
 34 36  1  0  0  0
 34 59  1  0  0  0
 34106  1  0  0  0
 35 44  2  0  0  0
 35 45  1  0  0  0
 35 68  1  0  0  0
 36 56  1  0  0  0
 36107  1  0  0  0
 37 39  1  0  0  0
 37 47  1  0  0  0
 37 66  1  0  0  0
 37108  1  0  0  0
 38 43  2  0  0  0
 38 46  1  0  0  0
 38 47  1  0  0  0
 39 64  1  0  0  0
 39 67  2  0  0  0
 40 52  1  0  0  0
 40 53  2  0  0  0
 40 58  1  0  0  0
 41109  1  0  0  0
 41110  1  0  0  0
 41111  1  0  0  0
 41 48  1  0  0  0
 42 43  1  0  0  0
 42 66  1  0  0  0
 42112  1  0  0  0
 42113  1  0  0  0
 43 44  1  0  0  0
 44114  1  0  0  0
 45 46  2  0  0  0
 45115  1  0  0  0
 46116  1  0  0  0
 47117  1  0  0  0
 47118  1  0  0  0
 48 56  1  0  0  0
 48 65  1  0  0  0
 48119  1  0  0  0
 49 50  1  0  0  0
 49 53  1  0  0  0
 49 64  1  0  0  0
 49120  1  0  0  0
 50 51  1  0  0  0
 50121  1  0  0  0
 50122  1  0  0  0
 51 52  1  0  0  0
 51123  1  0  0  0
 51124  1  0  0  0
 52125  1  0  0  0
 52126  1  0  0  0
 53 54  1  0  0  0
 54 55  2  0  0  0
 54127  1  0  0  0
 55 57  1  0  0  0
 55128  1  0  0  0
 56 69  2  0  0  0
 57 58  2  0  0  0
 57129  1  0  0  0
 58130  1  0  0  0
 59 60  1  0  0  0
 59 61  1  0  0  0
 59 62  1  0  0  0
 60131  1  0  0  0
 60132  1  0  0  0
 60133  1  0  0  0
 61134  1  0  0  0
 61135  1  0  0  0
 61136  1  0  0  0
 62137  1  0  0  0
 62138  1  0  0  0
 62139  1  0  0  0
 63 65  1  0  0  0
 63140  1  0  0  0
 63141  1  0  0  0
 63142  1  0  0  0
 64143  1  0  0  0
 65144  1  0  0  0
 68 81  1  0  0  0
 71 73  2  0  0  0
 71 75  1  0  0  0
 71145  1  0  0  0
 72 75  2  0  0  0
 72 76  1  0  0  0
 72146  1  0  0  0
 73 74  1  0  0  0
 73 77  1  0  0  0
 74 76  2  0  0  0
 74 79  1  0  0  0
 75 85  1  0  0  0
 76 84  1  0  0  0
 77 78  1  0  0  0
 77147  1  0  0  0
 77148  1  0  0  0
 78 79  1  0  0  0
 78149  1  0  0  0
 78150  1  0  0  0
 79 83  1  0  0  0
 79151  1  0  0  0
 80 84  1  0  0  0
 80152  1  0  0  0
 80153  1  0  0  0
 80154  1  0  0  0
 81 82  1  0  0  0
 81155  1  0  0  0
 81156  1  0  0  0
 82 85  1  0  0  0
 82157  1  0  0  0
 82158  1  0  0  0
 83159  1  0  0  0
M  ISO  4   1 100  68 101  81 101  83 100
M  END
> <chiral flag>
0

> <version>
0

> <s_m_source_file>
/data/baiqing/PycharmProjects/Reinvent-master-3.2/result/LINK_invent/BTK/process_docking_weight1_custom_sum_contain_oxygen_bond_distance_aromatic_linkinvent_7_9_3/rearranged_h_0153.sdf

> <i_m_source_file_index>
45

> <r_mmod_Potential_Energy-OPLS-2005>
119.02791595459

> <r_mmod_Stretch_Energy-OPLS-2005>
79.9928131103516

> <r_mmod_Bend_Energy-OPLS-2005>
202.187225341797

> <r_mmod_Torsional_Energy-OPLS-2005>
236.899505615234

> <r_mmod_Improper_Torsional_Energy-OPLS-2005>
7.22121429443359

> <r_mmod_Van_der_Waal_Energy-OPLS-2005>
137.306350708008

> <r_mmod_Electrostatic_Energy-OPLS-2005>
-390.961364746094

> <r_mmod_Solvation_Energy-OPLS-2005>
-209.046020507812

> <b_mmod_Minimization_Converged-OPLS-2005>
0

> <r_mmod_RMS_Derivative-OPLS-2005>
2.27924704551697

$$$$
45
                    3D
 Structure written by MMmdl.
163172  0  0  1  0            999 V2000
  -30.6831  -14.4718   20.5742 C   0  0  0  0  0  0
  -30.4291  -12.3081   19.4150 C   0  0  0  0  0  0
  -29.4966  -12.5163   18.2035 C   0  0  0  0  0  0
  -28.0172  -12.3742   18.6161 C   0  0  0  0  0  0
  -27.6659  -13.2032   19.8802 C   0  0  2  0  0  0
  -28.7083  -12.9669   20.9984 C   0  0  0  0  0  0
  -25.2611  -13.8165   20.5687 C   0  0  0  0  0  0
  -24.1857  -13.0433   20.9191 C   0  0  0  0  0  0
  -24.6404  -11.6906   20.8739 C   0  0  0  0  0  0
  -23.9059  -10.4297   21.0400 C   0  0  0  0  0  0
  -24.3620   -9.4220   21.9179 C   0  0  0  0  0  0
  -23.6293   -8.2256   22.0761 C   0  0  0  0  0  0
  -22.4280   -8.0283   21.3546 C   0  0  0  0  0  0
  -21.9908   -9.0256   20.4653 C   0  0  0  0  0  0
  -22.7233  -10.2135   20.3048 C   0  0  0  0  0  0
  -21.6856   -6.0738   22.5283 C   0  0  0  0  0  0
  -21.4014   -6.5640   23.8216 C   0  0  0  0  0  0
  -21.3659   -5.6793   24.9179 C   0  0  0  0  0  0
  -21.6050   -4.3057   24.7230 C   0  0  0  0  0  0
  -21.8813   -3.8146   23.4350 C   0  0  0  0  0  0
  -21.9192   -4.6965   22.3406 C   0  0  0  0  0  0
  -22.7884  -13.5244   21.1843 C   0  0  0  0  0  0
  -22.1659   -4.2149   21.0985 F   0  0  0  0  0  0
  -21.5628   -3.4537   25.7743 F   0  0  0  0  0  0
  -30.0412  -13.2786   20.4494 N   0  0  0  0  0  0
  -26.3048  -12.9321   20.3384 N   0  0  0  0  0  0
  -25.9334  -11.6484   20.5774 N   0  0  0  0  0  0
  -22.0508  -12.8235   22.0397 N   0  0  0  0  0  0
  -25.4314  -15.1881   20.4079 N   0  0  0  0  0  0
  -31.7987  -14.6952   20.0934 O   0  0  0  0  0  0
  -21.6637   -6.8884   21.4245 O   0  0  0  0  0  0
  -22.3575  -14.5556   20.6705 O   0  0  0  0  0  0
  -24.6142  -31.8697   23.2102 C   0  0  0  0  0  0
  -25.9054  -32.4824   23.8381 C   0  0  1  0  0  0
  -27.2353  -27.4436   20.0577 C   0  0  0  0  0  0
  -25.5913  -33.8617   24.2322 N   0  0  0  0  0  0
  -23.4002  -30.4961   21.5509 C   0  0  2  0  0  0
  -24.8426  -28.9579   20.1185 C   0  0  0  0  0  0
  -22.7390  -29.4713   22.4990 C   0  0  0  0  0  0
  -18.0273  -28.1371   22.8521 C   0  0  0  0  0  0
  -24.1497  -36.7319   23.2634 C   0  0  0  0  0  0
  -25.9304  -30.8329   21.3631 C   0  0  0  0  0  0
  -26.0057  -29.4665   20.7100 C   0  0  0  0  0  0
  -27.1998  -28.7098   20.6880 C   0  0  0  0  0  0
  -26.0400  -26.9324   19.5001 C   0  0  0  0  0  0
  -24.8516  -27.6860   19.5228 C   0  0  0  0  0  0
  -23.6069  -29.8270   20.1668 C   0  0  0  0  0  0
  -25.4114  -36.3106   24.0329 C   0  0  1  0  0  0
  -20.5854  -28.3710   23.1312 C   0  0  2  0  0  0
  -20.6788  -26.9454   22.5404 C   0  0  0  0  0  0
  -19.5756  -26.6366   21.5238 C   0  0  0  0  0  0
  -18.1942  -26.7899   22.1677 C   0  0  0  0  0  0
  -19.1515  -28.8851   23.2918 C   0  0  0  0  0  0
  -18.9434  -30.1458   23.8915 C   0  0  0  0  0  0
  -17.6443  -30.6598   24.0546 C   0  0  0  0  0  0
  -25.9031  -34.9472   23.5127 C   0  0  0  0  0  0
  -16.5332  -29.9082   23.6316 C   0  0  0  0  0  0
  -16.7260  -28.6478   23.0373 C   0  0  0  0  0  0
  -26.4473  -31.6585   25.0699 C   0  0  0  0  0  0
  -25.3740  -31.3672   26.1439 C   0  0  0  0  0  0
  -27.0303  -30.3033   24.6056 C   0  0  0  0  0  0
  -27.6039  -32.4294   25.7477 C   0  0  0  0  0  0
  -27.5584  -37.1820   24.8465 C   0  0  0  0  0  0
  -21.4117  -29.3104   22.3736 N   0  0  0  0  0  0
  -26.4301  -37.3790   23.9403 N   0  0  0  0  0  0
  -24.6666  -31.0804   22.0998 N   0  0  0  0  0  0
  -23.4166  -28.8259   23.3028 O   0  0  0  0  0  0
  -28.4190  -26.7313   20.0370 O   0  0  0  0  0  0
  -26.5593  -34.8926   22.4688 O   0  0  0  0  0  0
  -23.5340  -32.1435   23.7516 O   0  0  0  0  0  0
  -29.1027  -20.0427   20.8566 C   0  0  0  0  0  0
  -27.1277  -21.4127   21.0762 C   0  0  0  0  0  0
  -28.4252  -19.0086   21.5539 C   0  0  0  0  0  0
  -28.4599  -21.2849   20.6183 C   0  0  0  0  0  0
  -27.1015  -19.2831   21.9850 C   0  0  0  0  0  0
  -30.1708  -17.7052   23.0238 C   0  0  0  0  0  0
  -31.2446  -17.4029   21.9769 C   0  0  0  0  0  0
  -29.1081  -17.6734   21.9118 C   0  0  2  0  0  0
  -30.1390  -16.9104   21.0304 C   0  0  2  0  0  0
  -26.2790  -18.3161   22.8148 C   0  0  0  0  0  0
  -29.4171  -24.6203   19.2091 C   0  0  0  0  0  0
  -28.7375  -25.9649   18.8628 C   0  0  0  0  0  0
  -28.4802  -23.5809   19.8496 C   0  0  0  0  0  0
  -26.4695  -20.4445   21.7350 N   0  0  0  0  0  0
  -29.9349  -15.4496   21.1146 N   0  0  0  0  0  0
  -29.1399  -22.3092   19.9767 O   0  0  0  0  0  0
  -31.4719  -12.4191   19.1135 H   0  0  0  0  0  0
  -30.3354  -11.2910   19.7993 H   0  0  0  0  0  0
  -29.7342  -11.8017   17.4146 H   0  0  0  0  0  0
  -29.6654  -13.5072   17.7772 H   0  0  0  0  0  0
  -27.8267  -11.3167   18.8020 H   0  0  0  0  0  0
  -27.3670  -12.6606   17.7880 H   0  0  0  0  0  0
  -27.7126  -14.2539   19.5934 H   0  0  0  0  0  0
  -28.6844  -11.9279   21.3316 H   0  0  0  0  0  0
  -28.4701  -13.5551   21.8854 H   0  0  0  0  0  0
  -25.2762   -9.5694   22.4759 H   0  0  0  0  0  0
  -23.9997   -7.4647   22.7487 H   0  0  0  0  0  0
  -21.0838   -8.8779   19.8961 H   0  0  0  0  0  0
  -22.3694  -10.9676   19.6162 H   0  0  0  0  0  0
  -21.2006   -7.6146   23.9721 H   0  0  0  0  0  0
  -21.1487   -6.0523   25.9083 H   0  0  0  0  0  0
  -22.0594   -2.7607   23.2852 H   0  0  0  0  0  0
  -22.4087  -11.9876   22.4776 H   0  0  0  0  0  0
  -21.1133  -13.1297   22.2594 H   0  0  0  0  0  0
  -24.6534  -15.8322   20.4934 H   0  0  0  0  0  0
  -26.2690  -15.6255   20.0457 H   0  0  0  0  0  0
  -26.7127  -32.5535   23.1142 H   0  0  0  0  0  0
  -25.0080  -33.9772   25.0478 H   0  0  0  0  0  0
  -22.6884  -31.3126   21.4133 H   0  0  0  0  0  0
  -23.3747  -35.9669   23.3309 H   0  0  0  0  0  0
  -24.3590  -36.8919   22.2048 H   0  0  0  0  0  0
  -23.7266  -37.6533   23.6641 H   0  0  0  0  0  0
  -26.0432  -31.5995   20.5940 H   0  0  0  0  0  0
  -26.8182  -30.8857   21.9808 H   0  0  0  0  0  0
  -28.1012  -29.0991   21.1399 H   0  0  0  0  0  0
  -25.9992  -25.9471   19.0597 H   0  0  0  0  0  0
  -23.9491  -27.2794   19.0896 H   0  0  0  0  0  0
  -23.7195  -30.6043   19.4099 H   0  0  0  0  0  0
  -22.7269  -29.2537   19.8670 H   0  0  0  0  0  0
  -25.1297  -36.1967   25.0820 H   0  0  0  0  0  0
  -20.9936  -28.3289   24.1427 H   0  0  0  0  0  0
  -20.5723  -26.2342   23.3603 H   0  0  0  0  0  0
  -21.6661  -26.7522   22.1183 H   0  0  0  0  0  0
  -19.6920  -25.6261   21.1326 H   0  0  0  0  0  0
  -19.6675  -27.3146   20.6740 H   0  0  0  0  0  0
  -17.4199  -26.6579   21.4097 H   0  0  0  0  0  0
  -18.0384  -26.0049   22.9100 H   0  0  0  0  0  0
  -19.7894  -30.7280   24.2302 H   0  0  0  0  0  0
  -17.4984  -31.6290   24.5118 H   0  0  0  0  0  0
  -15.5330  -30.3005   23.7610 H   0  0  0  0  0  0
  -15.8659  -28.0782   22.7092 H   0  0  0  0  0  0
  -24.5939  -30.6978   25.7791 H   0  0  0  0  0  0
  -24.8888  -32.2811   26.4874 H   0  0  0  0  0  0
  -25.8096  -30.8872   27.0209 H   0  0  0  0  0  0
  -26.2841  -29.6791   24.1120 H   0  0  0  0  0  0
  -27.4098  -29.7259   25.4496 H   0  0  0  0  0  0
  -27.8664  -30.4355   23.9181 H   0  0  0  0  0  0
  -27.2651  -33.3586   26.2069 H   0  0  0  0  0  0
  -28.3850  -32.6859   25.0309 H   0  0  0  0  0  0
  -28.0702  -31.8401   26.5381 H   0  0  0  0  0  0
  -28.2613  -38.0109   24.7502 H   0  0  0  0  0  0
  -28.1069  -36.2636   24.6309 H   0  0  0  0  0  0
  -27.2294  -37.1494   25.8868 H   0  0  0  0  0  0
  -20.9269  -29.8838   21.6970 H   0  0  0  0  0  0
  -26.0189  -38.2870   24.1393 H   0  0  0  0  0  0
  -30.1237  -19.9029   20.5330 H   0  0  0  0  0  0
  -26.5547  -22.3155   20.9368 H   0  0  0  0  0  0
  -30.2932  -18.6647   23.5264 H   0  0  0  0  0  0
  -30.0505  -16.8923   23.7419 H   0  0  0  0  0  0
  -31.9793  -16.6574   22.2849 H   0  0  0  0  0  0
  -31.7350  -18.3042   21.6065 H   0  0  0  0  0  0
  -28.3257  -16.9675   22.1877 H   0  0  0  0  0  0
  -30.2247  -17.2897   20.0105 H   0  0  0  0  0  0
  -26.8642  -17.9116   23.6416 H   0  0  0  0  0  0
  -25.9227  -17.4965   22.1933 H   0  0  0  0  0  0
  -25.4043  -18.8089   23.2406 H   0  0  0  0  0  0
  -30.2756  -24.7991   19.8568 H   0  0  0  0  0  0
  -29.8161  -24.1963   18.2873 H   0  0  0  0  0  0
  -27.9024  -25.7762   18.1899 H   0  0  0  0  0  0
  -29.4299  -26.5655   18.2715 H   0  0  0  0  0  0
  -28.1734  -23.9495   20.8300 H   0  0  0  0  0  0
  -27.5827  -23.4780   19.2349 H   0  0  0  0  0  0
  -29.0426  -15.1443   21.4709 H   0  0  0  0  0  0
  1 25  1  0  0  0
  1 30  2  0  0  0
  1 85  1  0  0  0
  2  3  1  0  0  0
  2 25  1  0  0  0
  2 87  1  0  0  0
  2 88  1  0  0  0
  3  4  1  0  0  0
  3 89  1  0  0  0
  3 90  1  0  0  0
  4  5  1  0  0  0
  4 91  1  0  0  0
  4 92  1  0  0  0
  5  6  1  0  0  0
  5 26  1  0  0  0
  5 93  1  0  0  0
  6 25  1  0  0  0
  6 94  1  0  0  0
  6 95  1  0  0  0
  7  8  2  0  0  0
  7 26  1  0  0  0
  7 29  1  0  0  0
  8  9  1  0  0  0
  8 22  1  0  0  0
  9 10  1  0  0  0
  9 27  2  0  0  0
 10 11  2  0  0  0
 10 15  1  0  0  0
 11 12  1  0  0  0
 11 96  1  0  0  0
 12 13  2  0  0  0
 12 97  1  0  0  0
 13 14  1  0  0  0
 13 31  1  0  0  0
 14 15  2  0  0  0
 14 98  1  0  0  0
 15 99  1  0  0  0
 16 17  2  0  0  0
 16 21  1  0  0  0
 16 31  1  0  0  0
 17 18  1  0  0  0
 17100  1  0  0  0
 18 19  2  0  0  0
 18101  1  0  0  0
 19 20  1  0  0  0
 19 24  1  0  0  0
 20 21  2  0  0  0
 20102  1  0  0  0
 21 23  1  0  0  0
 22 28  1  0  0  0
 22 32  2  0  0  0
 26 27  1  0  0  0
 28103  1  0  0  0
 28104  1  0  0  0
 29105  1  0  0  0
 29106  1  0  0  0
 33 34  1  0  0  0
 33 66  1  0  0  0
 33 70  2  0  0  0
 34 36  1  0  0  0
 34 59  1  0  0  0
 34107  1  0  0  0
 35 44  2  0  0  0
 35 45  1  0  0  0
 35 68  1  0  0  0
 36 56  1  0  0  0
 36108  1  0  0  0
 37 39  1  0  0  0
 37 47  1  0  0  0
 37 66  1  0  0  0
 37109  1  0  0  0
 38 43  2  0  0  0
 38 46  1  0  0  0
 38 47  1  0  0  0
 39 64  1  0  0  0
 39 67  2  0  0  0
 40 52  1  0  0  0
 40 53  2  0  0  0
 40 58  1  0  0  0
 41110  1  0  0  0
 41111  1  0  0  0
 41112  1  0  0  0
 41 48  1  0  0  0
 42 43  1  0  0  0
 42 66  1  0  0  0
 42113  1  0  0  0
 42114  1  0  0  0
 43 44  1  0  0  0
 44115  1  0  0  0
 45 46  2  0  0  0
 45116  1  0  0  0
 46117  1  0  0  0
 47118  1  0  0  0
 47119  1  0  0  0
 48 56  1  0  0  0
 48 65  1  0  0  0
 48120  1  0  0  0
 49 50  1  0  0  0
 49 53  1  0  0  0
 49 64  1  0  0  0
 49121  1  0  0  0
 50 51  1  0  0  0
 50122  1  0  0  0
 50123  1  0  0  0
 51 52  1  0  0  0
 51124  1  0  0  0
 51125  1  0  0  0
 52126  1  0  0  0
 52127  1  0  0  0
 53 54  1  0  0  0
 54 55  2  0  0  0
 54128  1  0  0  0
 55 57  1  0  0  0
 55129  1  0  0  0
 56 69  2  0  0  0
 57 58  2  0  0  0
 57130  1  0  0  0
 58131  1  0  0  0
 59 60  1  0  0  0
 59 61  1  0  0  0
 59 62  1  0  0  0
 60132  1  0  0  0
 60133  1  0  0  0
 60134  1  0  0  0
 61135  1  0  0  0
 61136  1  0  0  0
 61137  1  0  0  0
 62138  1  0  0  0
 62139  1  0  0  0
 62140  1  0  0  0
 63 65  1  0  0  0
 63141  1  0  0  0
 63142  1  0  0  0
 63143  1  0  0  0
 64144  1  0  0  0
 65145  1  0  0  0
 68 82  1  0  0  0
 71 73  2  0  0  0
 71 74  1  0  0  0
 71146  1  0  0  0
 72 74  2  0  0  0
 72 84  1  0  0  0
 72147  1  0  0  0
 73 75  1  0  0  0
 73 78  1  0  0  0
 74 86  1  0  0  0
 75 80  1  0  0  0
 75 84  2  0  0  0
 76 77  1  0  0  0
 76 78  1  0  0  0
 76148  1  0  0  0
 76149  1  0  0  0
 77 79  1  0  0  0
 77150  1  0  0  0
 77151  1  0  0  0
 78 79  1  0  0  0
 78152  1  0  0  0
 79 85  1  0  0  0
 79153  1  0  0  0
 80154  1  0  0  0
 80155  1  0  0  0
 80156  1  0  0  0
 81 82  1  0  0  0
 81 83  1  0  0  0
 81157  1  0  0  0
 81158  1  0  0  0
 82159  1  0  0  0
 82160  1  0  0  0
 83 86  1  0  0  0
 83161  1  0  0  0
 83162  1  0  0  0
 85163  1  0  0  0
M  ISO  4   1 100  68 101  82 101  85 100
M  END
> <chiral flag>
0

> <version>
0

> <s_m_source_file>
/data/baiqing/PycharmProjects/Reinvent-master-3.2/result/LINK_invent/BTK/process_docking_weight1_custom_sum_contain_oxygen_bond_distance_aromatic_linkinvent_7_9_3/rearranged_h_0153.sdf

> <i_m_source_file_index>
46

> <r_mmod_Potential_Energy-OPLS-2005>
-151.765151977539

> <r_mmod_Stretch_Energy-OPLS-2005>
39.7511367797852

> <r_mmod_Bend_Energy-OPLS-2005>
115.112663269043

> <r_mmod_Torsional_Energy-OPLS-2005>
252.29345703125

> <r_mmod_Improper_Torsional_Energy-OPLS-2005>
4.62869215011597

> <r_mmod_Van_der_Waal_Energy-OPLS-2005>
159.744171142578

> <r_mmod_Electrostatic_Energy-OPLS-2005>
-511.143280029297

> <r_mmod_Solvation_Energy-OPLS-2005>
-223.697082519531

> <b_mmod_Minimization_Converged-OPLS-2005>
0

> <r_mmod_RMS_Derivative-OPLS-2005>
2.8521740436554

$$$$
46
                    3D
 Structure written by MMmdl.
171180  0  0  1  0            999 V2000
  -30.6487  -14.4591   20.6162 C   0  0  0  0  0  0
  -30.4485  -12.3182   19.3820 C   0  0  0  0  0  0
  -29.4952  -12.5233   18.1846 C   0  0  0  0  0  0
  -28.0162  -12.3722   18.5998 C   0  0  0  0  0  0
  -27.6680  -13.1848   19.8750 C   0  0  2  0  0  0
  -28.7110  -12.8902   20.9744 C   0  0  0  0  0  0
  -25.2621  -13.8102   20.5635 C   0  0  0  0  0  0
  -24.1852  -13.0423   20.9157 C   0  0  0  0  0  0
  -24.6378  -11.6878   20.8733 C   0  0  0  0  0  0
  -23.9032  -10.4290   21.0425 C   0  0  0  0  0  0
  -24.3592   -9.4212   21.9211 C   0  0  0  0  0  0
  -23.6274   -8.2248   22.0765 C   0  0  0  0  0  0
  -22.4263   -8.0277   21.3541 C   0  0  0  0  0  0
  -21.9888   -9.0256   20.4651 C   0  0  0  0  0  0
  -22.7202  -10.2148   20.3078 C   0  0  0  0  0  0
  -21.6854   -6.0733   22.5283 C   0  0  0  0  0  0
  -21.4013   -6.5628   23.8219 C   0  0  0  0  0  0
  -21.3660   -5.6778   24.9174 C   0  0  0  0  0  0
  -21.6046   -4.3046   24.7218 C   0  0  0  0  0  0
  -21.8822   -3.8134   23.4338 C   0  0  0  0  0  0
  -21.9190   -4.6956   22.3392 C   0  0  0  0  0  0
  -22.7894  -13.5261   21.1838 C   0  0  0  0  0  0
  -22.1673   -4.2147   21.0979 F   0  0  0  0  0  0
  -21.5631   -3.4529   25.7734 F   0  0  0  0  0  0
  -30.0431  -13.2526   20.4375 N   0  0  0  0  0  0
  -26.3047  -12.9240   20.3334 N   0  0  0  0  0  0
  -25.9288  -11.6417   20.5727 N   0  0  0  0  0  0
  -22.0492  -12.8302   22.0390 N   0  0  0  0  0  0
  -25.4325  -15.1816   20.4031 N   0  0  0  0  0  0
  -31.7541  -14.7597   20.1530 O   0  0  0  0  0  0
  -21.6627   -6.8883   21.4243 O   0  0  0  0  0  0
  -22.3601  -14.5588   20.6705 O   0  0  0  0  0  0
  -24.6171  -31.8695   23.2087 C   0  0  0  0  0  0
  -25.9074  -32.4821   23.8378 C   0  0  1  0  0  0
  -27.2427  -27.4506   20.0739 C   0  0  0  0  0  0
  -25.5933  -33.8614   24.2323 N   0  0  0  0  0  0
  -23.4030  -30.4937   21.5490 C   0  0  2  0  0  0
  -24.8500  -28.9561   20.1198 C   0  0  0  0  0  0
  -22.7409  -29.4690   22.4971 C   0  0  0  0  0  0
  -18.0303  -28.1364   22.8484 C   0  0  0  0  0  0
  -24.1490  -36.7318   23.2630 C   0  0  0  0  0  0
  -25.9330  -30.8344   21.3628 C   0  0  0  0  0  0
  -26.0109  -29.4697   20.7121 C   0  0  0  0  0  0
  -27.2131  -28.7236   20.6870 C   0  0  0  0  0  0
  -26.0631  -26.9487   19.4837 C   0  0  0  0  0  0
  -24.8685  -27.6905   19.5080 C   0  0  0  0  0  0
  -23.6132  -29.8240   20.1651 C   0  0  0  0  0  0
  -25.4103  -36.3095   24.0332 C   0  0  1  0  0  0
  -20.5879  -28.3707   23.1304 C   0  0  2  0  0  0
  -20.6812  -26.9420   22.5471 C   0  0  0  0  0  0
  -19.5812  -26.6346   21.5269 C   0  0  0  0  0  0
  -18.1987  -26.7888   22.1674 C   0  0  0  0  0  0
  -19.1534  -28.8850   23.2887 C   0  0  0  0  0  0
  -18.9468  -30.1451   23.8896 C   0  0  0  0  0  0
  -17.6472  -30.6576   24.0547 C   0  0  0  0  0  0
  -25.9036  -34.9472   23.5121 C   0  0  0  0  0  0
  -16.5365  -29.9074   23.6294 C   0  0  0  0  0  0
  -16.7292  -28.6482   23.0328 C   0  0  0  0  0  0
  -26.4497  -31.6593   25.0702 C   0  0  0  0  0  0
  -25.3767  -31.3721   26.1459 C   0  0  0  0  0  0
  -27.0324  -30.3026   24.6098 C   0  0  0  0  0  0
  -27.6066  -32.4295   25.7480 C   0  0  0  0  0  0
  -27.5576  -37.1804   24.8461 C   0  0  0  0  0  0
  -21.4143  -29.3072   22.3704 N   0  0  0  0  0  0
  -26.4286  -37.3779   23.9405 N   0  0  0  0  0  0
  -24.6689  -31.0805   22.0976 N   0  0  0  0  0  0
  -23.4174  -28.8213   23.3001 O   0  0  0  0  0  0
  -28.4157  -26.7286   20.0203 O   0  0  0  0  0  0
  -26.5593  -34.8928   22.4680 O   0  0  0  0  0  0
  -23.5363  -32.1446   23.7487 O   0  0  0  0  0  0
  -26.6787  -23.3311   21.8666 C   0  0  0  0  0  0
  -26.1027  -22.3254   22.6350 C   0  0  0  0  0  0
  -27.6372  -23.0421   20.8911 C   0  0  0  0  0  0
  -26.5161  -20.9748   22.4746 C   0  0  0  0  0  0
  -28.0363  -21.6850   20.6930 C   0  0  0  0  0  0
  -27.6235  -20.6301   21.5969 C   0  0  0  0  0  0
  -30.1042  -17.8124   20.6992 C   0  0  0  0  0  0
  -28.4066  -16.8856   22.2373 C   0  0  0  0  0  0
  -29.7168  -19.2081   21.2806 C   0  0  0  0  0  0
  -27.9931  -18.3133   22.6110 C   0  0  0  0  0  0
  -29.8459  -16.6998   21.7377 C   0  0  0  0  0  0
  -25.0090  -22.7642   23.6055 C   0  0  0  0  0  0
  -25.6213  -19.9578   23.1847 C   0  0  0  0  0  0
  -28.7718  -21.3956   19.3830 C   0  0  0  0  0  0
  -28.1190  -24.2214   20.0232 C   0  0  0  0  0  0
  -28.4382  -25.5313   20.8086 C   0  0  0  0  0  0
  -28.2662  -19.3237   21.5704 N   0  0  0  0  0  0
  -29.8382  -15.3112   21.2611 N   0  0  0  0  0  0
  -31.4863  -12.4689   19.0770 H   0  0  0  0  0  0
  -30.3892  -11.2905   19.7426 H   0  0  0  0  0  0
  -29.7312  -11.8158   17.3892 H   0  0  0  0  0  0
  -29.6519  -13.5151   17.7599 H   0  0  0  0  0  0
  -27.8258  -11.3130   18.7750 H   0  0  0  0  0  0
  -27.3645  -12.6640   17.7746 H   0  0  0  0  0  0
  -27.7310  -14.2409   19.6129 H   0  0  0  0  0  0
  -28.6957  -11.8292   21.2260 H   0  0  0  0  0  0
  -28.4519  -13.3899   21.9091 H   0  0  0  0  0  0
  -25.2748   -9.5691   22.4767 H   0  0  0  0  0  0
  -23.9968   -7.4647   22.7502 H   0  0  0  0  0  0
  -21.0806   -8.8791   19.8974 H   0  0  0  0  0  0
  -22.3671  -10.9690   19.6180 H   0  0  0  0  0  0
  -21.2015   -7.6139   23.9727 H   0  0  0  0  0  0
  -21.1484   -6.0509   25.9091 H   0  0  0  0  0  0
  -22.0596   -2.7594   23.2839 H   0  0  0  0  0  0
  -22.4038  -11.9942   22.4773 H   0  0  0  0  0  0
  -21.1142  -13.1415   22.2601 H   0  0  0  0  0  0
  -24.6605  -15.8300   20.5175 H   0  0  0  0  0  0
  -26.2747  -15.6253   20.0625 H   0  0  0  0  0  0
  -26.7135  -32.5526   23.1127 H   0  0  0  0  0  0
  -25.0123  -33.9766   25.0505 H   0  0  0  0  0  0
  -22.6910  -31.3087   21.4061 H   0  0  0  0  0  0
  -23.3727  -35.9674   23.3296 H   0  0  0  0  0  0
  -24.3584  -36.8938   22.2039 H   0  0  0  0  0  0
  -23.7272  -37.6538   23.6646 H   0  0  0  0  0  0
  -26.0487  -31.5977   20.5919 H   0  0  0  0  0  0
  -26.8189  -30.8860   21.9832 H   0  0  0  0  0  0
  -28.1143  -29.1222   21.1319 H   0  0  0  0  0  0
  -26.0574  -25.9981   18.9757 H   0  0  0  0  0  0
  -23.9806  -27.2915   19.0381 H   0  0  0  0  0  0
  -23.7235  -30.5949   19.4014 H   0  0  0  0  0  0
  -22.7365  -29.2445   19.8702 H   0  0  0  0  0  0
  -25.1264  -36.1945   25.0817 H   0  0  0  0  0  0
  -20.9954  -28.3331   24.1431 H   0  0  0  0  0  0
  -20.5725  -26.2333   23.3694 H   0  0  0  0  0  0
  -21.6703  -26.7462   22.1295 H   0  0  0  0  0  0
  -19.6993  -25.6245   21.1346 H   0  0  0  0  0  0
  -19.6764  -27.3125   20.6781 H   0  0  0  0  0  0
  -17.4229  -26.6507   21.4121 H   0  0  0  0  0  0
  -18.0475  -26.0073   22.9129 H   0  0  0  0  0  0
  -19.7948  -30.7274   24.2256 H   0  0  0  0  0  0
  -17.5038  -31.6275   24.5131 H   0  0  0  0  0  0
  -15.5373  -30.2998   23.7585 H   0  0  0  0  0  0
  -15.8686  -28.0803   22.7043 H   0  0  0  0  0  0
  -24.5924  -30.7079   25.7814 H   0  0  0  0  0  0
  -24.8987  -32.2897   26.4891 H   0  0  0  0  0  0
  -25.8132  -30.8901   27.0225 H   0  0  0  0  0  0
  -26.2879  -29.6762   24.1167 H   0  0  0  0  0  0
  -27.4106  -29.7266   25.4562 H   0  0  0  0  0  0
  -27.8711  -30.4312   23.9245 H   0  0  0  0  0  0
  -27.2674  -33.3565   26.2110 H   0  0  0  0  0  0
  -28.3871  -32.6904   25.0319 H   0  0  0  0  0  0
  -28.0749  -31.8390   26.5368 H   0  0  0  0  0  0
  -28.2583  -38.0106   24.7488 H   0  0  0  0  0  0
  -28.1074  -36.2635   24.6285 H   0  0  0  0  0  0
  -27.2304  -37.1465   25.8868 H   0  0  0  0  0  0
  -20.9306  -29.8863   21.6986 H   0  0  0  0  0  0
  -26.0172  -38.2859   24.1391 H   0  0  0  0  0  0
  -26.2966  -24.3328   21.9877 H   0  0  0  0  0  0
  -31.1594  -17.8109   20.4191 H   0  0  0  0  0  0
  -29.5407  -17.6322   19.7826 H   0  0  0  0  0  0
  -27.7120  -16.5532   21.4638 H   0  0  0  0  0  0
  -28.2235  -16.2338   23.0929 H   0  0  0  0  0  0
  -30.1431  -19.9787   20.6554 H   0  0  0  0  0  0
  -30.2527  -19.3467   22.2209 H   0  0  0  0  0  0
  -28.4424  -18.6118   23.5600 H   0  0  0  0  0  0
  -26.9488  -18.1284   22.7783 H   0  0  0  0  0  0
  -30.5480  -16.7983   22.5676 H   0  0  0  0  0  0
  -25.0189  -23.8423   23.7650 H   0  0  0  0  0  0
  -25.1371  -22.3058   24.5870 H   0  0  0  0  0  0
  -24.0228  -22.5098   23.2145 H   0  0  0  0  0  0
  -24.6600  -20.3453   23.5116 H   0  0  0  0  0  0
  -26.1011  -19.5429   24.0706 H   0  0  0  0  0  0
  -25.3182  -19.1832   22.4816 H   0  0  0  0  0  0
  -28.3095  -21.9379   18.5568 H   0  0  0  0  0  0
  -28.7111  -20.3469   19.0921 H   0  0  0  0  0  0
  -29.8168  -21.7040   19.4378 H   0  0  0  0  0  0
  -27.3474  -24.3866   19.2774 H   0  0  0  0  0  0
  -29.0142  -23.9594   19.4610 H   0  0  0  0  0  0
  -29.4361  -25.4314   21.2368 H   0  0  0  0  0  0
  -27.7910  -25.6918   21.6680 H   0  0  0  0  0  0
  -28.9859  -14.8332   21.5117 H   0  0  0  0  0  0
  1 25  1  0  0  0
  1 30  2  0  0  0
  1 88  1  0  0  0
  2  3  1  0  0  0
  2 25  1  0  0  0
  2 89  1  0  0  0
  2 90  1  0  0  0
  3  4  1  0  0  0
  3 91  1  0  0  0
  3 92  1  0  0  0
  4  5  1  0  0  0
  4 93  1  0  0  0
  4 94  1  0  0  0
  5  6  1  0  0  0
  5 26  1  0  0  0
  5 95  1  0  0  0
  6 25  1  0  0  0
  6 96  1  0  0  0
  6 97  1  0  0  0
  7  8  2  0  0  0
  7 26  1  0  0  0
  7 29  1  0  0  0
  8  9  1  0  0  0
  8 22  1  0  0  0
  9 10  1  0  0  0
  9 27  2  0  0  0
 10 11  2  0  0  0
 10 15  1  0  0  0
 11 12  1  0  0  0
 11 98  1  0  0  0
 12 13  2  0  0  0
 12 99  1  0  0  0
 13 14  1  0  0  0
 13 31  1  0  0  0
 14 15  2  0  0  0
 14100  1  0  0  0
 15101  1  0  0  0
 16 17  2  0  0  0
 16 21  1  0  0  0
 16 31  1  0  0  0
 17 18  1  0  0  0
 17102  1  0  0  0
 18 19  2  0  0  0
 18103  1  0  0  0
 19 20  1  0  0  0
 19 24  1  0  0  0
 20 21  2  0  0  0
 20104  1  0  0  0
 21 23  1  0  0  0
 22 28  1  0  0  0
 22 32  2  0  0  0
 26 27  1  0  0  0
 28105  1  0  0  0
 28106  1  0  0  0
 29107  1  0  0  0
 29108  1  0  0  0
 33 34  1  0  0  0
 33 66  1  0  0  0
 33 70  2  0  0  0
 34 36  1  0  0  0
 34 59  1  0  0  0
 34109  1  0  0  0
 35 44  2  0  0  0
 35 45  1  0  0  0
 35 68  1  0  0  0
 36 56  1  0  0  0
 36110  1  0  0  0
 37 39  1  0  0  0
 37 47  1  0  0  0
 37 66  1  0  0  0
 37111  1  0  0  0
 38 43  2  0  0  0
 38 46  1  0  0  0
 38 47  1  0  0  0
 39 64  1  0  0  0
 39 67  2  0  0  0
 40 52  1  0  0  0
 40 53  2  0  0  0
 40 58  1  0  0  0
 41112  1  0  0  0
 41113  1  0  0  0
 41114  1  0  0  0
 41 48  1  0  0  0
 42 43  1  0  0  0
 42 66  1  0  0  0
 42115  1  0  0  0
 42116  1  0  0  0
 43 44  1  0  0  0
 44117  1  0  0  0
 45 46  2  0  0  0
 45118  1  0  0  0
 46119  1  0  0  0
 47120  1  0  0  0
 47121  1  0  0  0
 48 56  1  0  0  0
 48 65  1  0  0  0
 48122  1  0  0  0
 49 50  1  0  0  0
 49 53  1  0  0  0
 49 64  1  0  0  0
 49123  1  0  0  0
 50 51  1  0  0  0
 50124  1  0  0  0
 50125  1  0  0  0
 51 52  1  0  0  0
 51126  1  0  0  0
 51127  1  0  0  0
 52128  1  0  0  0
 52129  1  0  0  0
 53 54  1  0  0  0
 54 55  2  0  0  0
 54130  1  0  0  0
 55 57  1  0  0  0
 55131  1  0  0  0
 56 69  2  0  0  0
 57 58  2  0  0  0
 57132  1  0  0  0
 58133  1  0  0  0
 59 60  1  0  0  0
 59 61  1  0  0  0
 59 62  1  0  0  0
 60134  1  0  0  0
 60135  1  0  0  0
 60136  1  0  0  0
 61137  1  0  0  0
 61138  1  0  0  0
 61139  1  0  0  0
 62140  1  0  0  0
 62141  1  0  0  0
 62142  1  0  0  0
 63 65  1  0  0  0
 63143  1  0  0  0
 63144  1  0  0  0
 63145  1  0  0  0
 64146  1  0  0  0
 65147  1  0  0  0
 68 86  1  0  0  0
 71 72  2  0  0  0
 71 73  1  0  0  0
 71148  1  0  0  0
 72 74  1  0  0  0
 72 82  1  0  0  0
 73 75  2  0  0  0
 73 85  1  0  0  0
 74 76  2  0  0  0
 74 83  1  0  0  0
 75 76  1  0  0  0
 75 84  1  0  0  0
 76 87  1  0  0  0
 77 79  1  0  0  0
 77 81  1  0  0  0
 77149  1  0  0  0
 77150  1  0  0  0
 78 80  1  0  0  0
 78 81  1  0  0  0
 78151  1  0  0  0
 78152  1  0  0  0
 79 87  1  0  0  0
 79153  1  0  0  0
 79154  1  0  0  0
 80 87  1  0  0  0
 80155  1  0  0  0
 80156  1  0  0  0
 81 88  1  0  0  0
 81157  1  0  0  0
 82158  1  0  0  0
 82159  1  0  0  0
 82160  1  0  0  0
 83161  1  0  0  0
 83162  1  0  0  0
 83163  1  0  0  0
 84164  1  0  0  0
 84165  1  0  0  0
 84166  1  0  0  0
 85 86  1  0  0  0
 85167  1  0  0  0
 85168  1  0  0  0
 86169  1  0  0  0
 86170  1  0  0  0
 88171  1  0  0  0
M  ISO  4   1 100  68 101  86 101  88 100
M  END
> <chiral flag>
0

> <version>
0

> <s_m_source_file>
/data/baiqing/PycharmProjects/Reinvent-master-3.2/result/LINK_invent/BTK/process_docking_weight1_custom_sum_contain_oxygen_bond_distance_aromatic_linkinvent_7_9_3/rearranged_h_0153.sdf

> <i_m_source_file_index>
47

> <r_mmod_Potential_Energy-OPLS-2005>
117.947486877441

> <r_mmod_Stretch_Energy-OPLS-2005>
61.5482482910156

> <r_mmod_Bend_Energy-OPLS-2005>
182.353149414062

> <r_mmod_Torsional_Energy-OPLS-2005>
267.883972167969

> <r_mmod_Improper_Torsional_Energy-OPLS-2005>
8.20711898803711

> <r_mmod_Van_der_Waal_Energy-OPLS-2005>
205.64697265625

> <r_mmod_Electrostatic_Energy-OPLS-2005>
-407.324340820312

> <r_mmod_Solvation_Energy-OPLS-2005>
-213.378402709961

> <b_mmod_Minimization_Converged-OPLS-2005>
0

> <r_mmod_RMS_Derivative-OPLS-2005>
2.69643354415894

$$$$
47
                    3D
 Structure written by MMmdl.
156164  0  0  1  0            999 V2000
  -30.5625  -14.7721   20.4981 C   0  0  0  0  0  0
  -30.4526  -12.4798   19.4678 C   0  0  0  0  0  0
  -29.5169  -12.4964   18.2361 C   0  0  0  0  0  0
  -28.0442  -12.3033   18.6536 C   0  0  0  0  0  0
  -27.6413  -13.2113   19.8441 C   0  0  2  0  0  0
  -28.6837  -13.1371   20.9789 C   0  0  0  0  0  0
  -25.2522  -13.8144   20.5640 C   0  0  0  0  0  0
  -24.1803  -13.0417   20.9178 C   0  0  0  0  0  0
  -24.6369  -11.6884   20.8732 C   0  0  0  0  0  0
  -23.9042  -10.4273   21.0411 C   0  0  0  0  0  0
  -24.3603   -9.4190   21.9190 C   0  0  0  0  0  0
  -23.6278   -8.2230   22.0752 C   0  0  0  0  0  0
  -22.4265   -8.0269   21.3539 C   0  0  0  0  0  0
  -21.9895   -9.0240   20.4640 C   0  0  0  0  0  0
  -22.7215  -10.2125   20.3056 C   0  0  0  0  0  0
  -21.6852   -6.0723   22.5276 C   0  0  0  0  0  0
  -21.4009   -6.5629   23.8203 C   0  0  0  0  0  0
  -21.3661   -5.6789   24.9166 C   0  0  0  0  0  0
  -21.6052   -4.3054   24.7224 C   0  0  0  0  0  0
  -21.8820   -3.8141   23.4349 C   0  0  0  0  0  0
  -21.9180   -4.6952   22.3398 C   0  0  0  0  0  0
  -22.7833  -13.5219   21.1855 C   0  0  0  0  0  0
  -22.1656   -4.2141   21.0977 F   0  0  0  0  0  0
  -21.5629   -3.4535   25.7734 F   0  0  0  0  0  0
  -29.9766  -13.5272   20.4002 N   0  0  0  0  0  0
  -26.2919  -12.9301   20.3220 N   0  0  0  0  0  0
  -25.9285  -11.6466   20.5726 N   0  0  0  0  0  0
  -22.0498  -12.8208   22.0423 N   0  0  0  0  0  0
  -25.4229  -15.1864   20.4030 N   0  0  0  0  0  0
  -31.7641  -14.9034   20.2370 O   0  0  0  0  0  0
  -21.6635   -6.8868   21.4240 O   0  0  0  0  0  0
  -22.3512  -14.5526   20.6709 O   0  0  0  0  0  0
  -24.6335  -31.8544   23.1937 C   0  0  0  0  0  0
  -25.9155  -32.4744   23.8293 C   0  0  1  0  0  0
  -27.2158  -27.2324   20.1311 C   0  0  0  0  0  0
  -25.5967  -33.8543   24.2215 N   0  0  0  0  0  0
  -23.4334  -30.4754   21.5364 C   0  0  2  0  0  0
  -24.8833  -28.9234   20.1064 C   0  0  0  0  0  0
  -22.7537  -29.4576   22.4858 C   0  0  0  0  0  0
  -18.0315  -28.1376   22.8435 C   0  0  0  0  0  0
  -24.1519  -36.7297   23.2638 C   0  0  0  0  0  0
  -25.9834  -30.7576   21.3812 C   0  0  0  0  0  0
  -26.0568  -29.3782   20.7210 C   0  0  0  0  0  0
  -27.2276  -28.5477   20.7195 C   0  0  0  0  0  0
  -26.0159  -26.8600   19.4821 C   0  0  0  0  0  0
  -24.8700  -27.6737   19.4751 C   0  0  0  0  0  0
  -23.6582  -29.8156   20.1513 C   0  0  0  0  0  0
  -25.4139  -36.3035   24.0300 C   0  0  1  0  0  0
  -20.5916  -28.3697   23.1234 C   0  0  2  0  0  0
  -20.6818  -26.9411   22.5382 C   0  0  0  0  0  0
  -19.5791  -26.6365   21.5201 C   0  0  0  0  0  0
  -18.1961  -26.7902   22.1597 C   0  0  0  0  0  0
  -19.1559  -28.8852   23.2824 C   0  0  0  0  0  0
  -18.9502  -30.1448   23.8857 C   0  0  0  0  0  0
  -17.6493  -30.6568   24.0555 C   0  0  0  0  0  0
  -25.9081  -34.9424   23.5031 C   0  0  0  0  0  0
  -16.5382  -29.9074   23.6319 C   0  0  0  0  0  0
  -16.7294  -28.6497   23.0300 C   0  0  0  0  0  0
  -26.4519  -31.6576   25.0695 C   0  0  0  0  0  0
  -25.3729  -31.3754   26.1410 C   0  0  0  0  0  0
  -27.0387  -30.2986   24.6215 C   0  0  0  0  0  0
  -27.6045  -32.4353   25.7484 C   0  0  0  0  0  0
  -27.5573  -37.1795   24.8446 C   0  0  0  0  0  0
  -21.4236  -29.3058   22.3636 N   0  0  0  0  0  0
  -26.4295  -37.3735   23.9376 N   0  0  0  0  0  0
  -24.7027  -31.0462   22.0928 N   0  0  0  0  0  0
  -23.4216  -28.8094   23.2954 O   0  0  0  0  0  0
  -28.2916  -26.3042   20.1930 O   0  0  0  0  0  0
  -26.5624  -34.8889   22.4584 O   0  0  0  0  0  0
  -23.5469  -32.1407   23.7193 O   0  0  0  0  0  0
  -29.3715  -19.7728   22.3707 C   0  0  0  0  0  0
  -29.5018  -18.6253   23.1728 C   0  0  0  0  0  0
  -29.6995  -17.3537   22.5659 C   0  0  0  0  0  0
  -29.7644  -17.2393   21.1447 C   0  0  0  0  0  0
  -29.4231  -19.6716   20.9750 C   0  0  0  0  0  0
  -29.3917  -18.7926   24.6836 C   0  0  0  0  0  0
  -29.7829  -16.1050   23.4499 C   0  0  0  0  0  0
  -29.0494  -23.6021   20.3255 C   0  0  0  0  0  0
  -27.9757  -24.8188   20.1577 C   0  0  0  0  0  0
  -28.5241  -22.0607   20.4973 C   0  0  0  0  0  0
  -29.6201  -18.4152   20.3939 N   0  0  0  0  0  0
  -29.6913  -15.8560   20.5976 N   0  0  0  0  0  0
  -29.3496  -20.8435   20.1583 O   0  0  0  0  0  0
  -31.4849  -12.6523   19.1560 H   0  0  0  0  0  0
  -30.4399  -11.5016   19.9523 H   0  0  0  0  0  0
  -29.8099  -11.7149   17.5322 H   0  0  0  0  0  0
  -29.6241  -13.4442   17.7060 H   0  0  0  0  0  0
  -27.9201  -11.2567   18.9347 H   0  0  0  0  0  0
  -27.3797  -12.4670   17.8036 H   0  0  0  0  0  0
  -27.6357  -14.2288   19.4534 H   0  0  0  0  0  0
  -28.7317  -12.1282   21.3924 H   0  0  0  0  0  0
  -28.3999  -13.7862   21.8068 H   0  0  0  0  0  0
  -25.2760   -9.5662   22.4735 H   0  0  0  0  0  0
  -23.9992   -7.4622   22.7470 H   0  0  0  0  0  0
  -21.0822   -8.8749   19.8951 H   0  0  0  0  0  0
  -22.3683  -10.9645   19.6151 H   0  0  0  0  0  0
  -21.2020   -7.6143   23.9704 H   0  0  0  0  0  0
  -21.1479   -6.0523   25.9069 H   0  0  0  0  0  0
  -22.0603   -2.7606   23.2847 H   0  0  0  0  0  0
  -22.4139  -11.9869   22.4782 H   0  0  0  0  0  0
  -21.1121  -13.1221   22.2662 H   0  0  0  0  0  0
  -24.6502  -15.8338   20.5038 H   0  0  0  0  0  0
  -26.2520  -15.6255   20.0268 H   0  0  0  0  0  0
  -26.7227  -32.5382   23.1025 H   0  0  0  0  0  0
  -25.0164  -33.9704   25.0393 H   0  0  0  0  0  0
  -22.7303  -31.2971   21.3855 H   0  0  0  0  0  0
  -23.3754  -35.9658   23.3283 H   0  0  0  0  0  0
  -24.3625  -36.8946   22.2062 H   0  0  0  0  0  0
  -23.7318  -37.6499   23.6694 H   0  0  0  0  0  0
  -26.1284  -31.5187   20.6141 H   0  0  0  0  0  0
  -26.8595  -30.8031   22.0146 H   0  0  0  0  0  0
  -28.1243  -28.8864   21.2170 H   0  0  0  0  0  0
  -25.9203  -25.9135   18.9772 H   0  0  0  0  0  0
  -23.9753  -27.3186   18.9815 H   0  0  0  0  0  0
  -23.7983  -30.5986   19.4061 H   0  0  0  0  0  0
  -22.7753  -29.2612   19.8292 H   0  0  0  0  0  0
  -25.1328  -36.1869   25.0794 H   0  0  0  0  0  0
  -21.0004  -28.3296   24.1352 H   0  0  0  0  0  0
  -20.5748  -26.2318   23.3600 H   0  0  0  0  0  0
  -21.6682  -26.7454   22.1160 H   0  0  0  0  0  0
  -19.6976  -25.6270   21.1244 H   0  0  0  0  0  0
  -19.6732  -27.3170   20.6713 H   0  0  0  0  0  0
  -17.4234  -26.6635   21.3993 H   0  0  0  0  0  0
  -18.0357  -26.0058   22.9012 H   0  0  0  0  0  0
  -19.7989  -30.7269   24.2197 H   0  0  0  0  0  0
  -17.5060  -31.6243   24.5187 H   0  0  0  0  0  0
  -15.5372  -30.2966   23.7675 H   0  0  0  0  0  0
  -15.8696  -28.0848   22.6963 H   0  0  0  0  0  0
  -24.5891  -30.7119   25.7732 H   0  0  0  0  0  0
  -24.8967  -32.2959   26.4807 H   0  0  0  0  0  0
  -25.8052  -30.8941   27.0201 H   0  0  0  0  0  0
  -26.2988  -29.6700   24.1261 H   0  0  0  0  0  0
  -27.4078  -29.7267   25.4737 H   0  0  0  0  0  0
  -27.8840  -30.4229   23.9452 H   0  0  0  0  0  0
  -27.2607  -33.3657   26.2019 H   0  0  0  0  0  0
  -28.3883  -32.6934   25.0346 H   0  0  0  0  0  0
  -28.0690  -31.8532   26.5457 H   0  0  0  0  0  0
  -28.2538  -38.0133   24.7482 H   0  0  0  0  0  0
  -28.1122  -36.2651   24.6291 H   0  0  0  0  0  0
  -27.2295  -37.1451   25.8850 H   0  0  0  0  0  0
  -20.9421  -29.8844   21.6909 H   0  0  0  0  0  0
  -26.0163  -38.2783   24.1420 H   0  0  0  0  0  0
  -29.2486  -20.7369   22.8417 H   0  0  0  0  0  0
  -29.2119  -19.8296   24.9679 H   0  0  0  0  0  0
  -30.3098  -18.4779   25.1796 H   0  0  0  0  0  0
  -28.5638  -18.2044   25.0826 H   0  0  0  0  0  0
  -29.8740  -16.3196   24.5135 H   0  0  0  0  0  0
  -30.6542  -15.5043   23.1971 H   0  0  0  0  0  0
  -28.8901  -15.4929   23.3313 H   0  0  0  0  0  0
  -29.6823  -23.8295   21.1826 H   0  0  0  0  0  0
  -29.7167  -23.6420   19.4650 H   0  0  0  0  0  0
  -27.1998  -24.6561   20.9070 H   0  0  0  0  0  0
  -27.5118  -24.6107   19.1942 H   0  0  0  0  0  0
  -27.6536  -21.9632   19.8482 H   0  0  0  0  0  0
  -28.0959  -21.9685   21.4937 H   0  0  0  0  0  0
  -28.7398  -15.5455   20.5071 H   0  0  0  0  0  0
  1 25  1  0  0  0
  1 30  2  0  0  0
  1 82  1  0  0  0
  2  3  1  0  0  0
  2 25  1  0  0  0
  2 84  1  0  0  0
  2 85  1  0  0  0
  3  4  1  0  0  0
  3 86  1  0  0  0
  3 87  1  0  0  0
  4  5  1  0  0  0
  4 88  1  0  0  0
  4 89  1  0  0  0
  5  6  1  0  0  0
  5 26  1  0  0  0
  5 90  1  0  0  0
  6 25  1  0  0  0
  6 91  1  0  0  0
  6 92  1  0  0  0
  7  8  2  0  0  0
  7 26  1  0  0  0
  7 29  1  0  0  0
  8  9  1  0  0  0
  8 22  1  0  0  0
  9 10  1  0  0  0
  9 27  2  0  0  0
 10 11  2  0  0  0
 10 15  1  0  0  0
 11 12  1  0  0  0
 11 93  1  0  0  0
 12 13  2  0  0  0
 12 94  1  0  0  0
 13 14  1  0  0  0
 13 31  1  0  0  0
 14 15  2  0  0  0
 14 95  1  0  0  0
 15 96  1  0  0  0
 16 17  2  0  0  0
 16 21  1  0  0  0
 16 31  1  0  0  0
 17 18  1  0  0  0
 17 97  1  0  0  0
 18 19  2  0  0  0
 18 98  1  0  0  0
 19 20  1  0  0  0
 19 24  1  0  0  0
 20 21  2  0  0  0
 20 99  1  0  0  0
 21 23  1  0  0  0
 22 28  1  0  0  0
 22 32  2  0  0  0
 26 27  1  0  0  0
 28100  1  0  0  0
 28101  1  0  0  0
 29102  1  0  0  0
 29103  1  0  0  0
 33 34  1  0  0  0
 33 66  1  0  0  0
 33 70  2  0  0  0
 34 36  1  0  0  0
 34 59  1  0  0  0
 34104  1  0  0  0
 35 44  2  0  0  0
 35 45  1  0  0  0
 35 68  1  0  0  0
 36 56  1  0  0  0
 36105  1  0  0  0
 37 39  1  0  0  0
 37 47  1  0  0  0
 37 66  1  0  0  0
 37106  1  0  0  0
 38 43  2  0  0  0
 38 46  1  0  0  0
 38 47  1  0  0  0
 39 64  1  0  0  0
 39 67  2  0  0  0
 40 52  1  0  0  0
 40 53  2  0  0  0
 40 58  1  0  0  0
 41107  1  0  0  0
 41108  1  0  0  0
 41109  1  0  0  0
 41 48  1  0  0  0
 42 43  1  0  0  0
 42 66  1  0  0  0
 42110  1  0  0  0
 42111  1  0  0  0
 43 44  1  0  0  0
 44112  1  0  0  0
 45 46  2  0  0  0
 45113  1  0  0  0
 46114  1  0  0  0
 47115  1  0  0  0
 47116  1  0  0  0
 48 56  1  0  0  0
 48 65  1  0  0  0
 48117  1  0  0  0
 49 50  1  0  0  0
 49 53  1  0  0  0
 49 64  1  0  0  0
 49118  1  0  0  0
 50 51  1  0  0  0
 50119  1  0  0  0
 50120  1  0  0  0
 51 52  1  0  0  0
 51121  1  0  0  0
 51122  1  0  0  0
 52123  1  0  0  0
 52124  1  0  0  0
 53 54  1  0  0  0
 54 55  2  0  0  0
 54125  1  0  0  0
 55 57  1  0  0  0
 55126  1  0  0  0
 56 69  2  0  0  0
 57 58  2  0  0  0
 57127  1  0  0  0
 58128  1  0  0  0
 59 60  1  0  0  0
 59 61  1  0  0  0
 59 62  1  0  0  0
 60129  1  0  0  0
 60130  1  0  0  0
 60131  1  0  0  0
 61132  1  0  0  0
 61133  1  0  0  0
 61134  1  0  0  0
 62135  1  0  0  0
 62136  1  0  0  0
 62137  1  0  0  0
 63 65  1  0  0  0
 63138  1  0  0  0
 63139  1  0  0  0
 63140  1  0  0  0
 64141  1  0  0  0
 65142  1  0  0  0
 68 79  1  0  0  0
 71 72  2  0  0  0
 71 75  1  0  0  0
 71143  1  0  0  0
 72 73  1  0  0  0
 72 76  1  0  0  0
 73 74  2  0  0  0
 73 77  1  0  0  0
 74 81  1  0  0  0
 74 82  1  0  0  0
 75 81  2  0  0  0
 75 83  1  0  0  0
 76144  1  0  0  0
 76145  1  0  0  0
 76146  1  0  0  0
 77147  1  0  0  0
 77148  1  0  0  0
 77149  1  0  0  0
 78 79  1  0  0  0
 78 80  1  0  0  0
 78150  1  0  0  0
 78151  1  0  0  0
 79152  1  0  0  0
 79153  1  0  0  0
 80 83  1  0  0  0
 80154  1  0  0  0
 80155  1  0  0  0
 82156  1  0  0  0
M  ISO  4   1 100  68 101  79 101  82 100
M  END
> <chiral flag>
0

> <version>
0

> <s_m_source_file>
/data/baiqing/PycharmProjects/Reinvent-master-3.2/result/LINK_invent/BTK/process_docking_weight1_custom_sum_contain_oxygen_bond_distance_aromatic_linkinvent_7_9_3/rearranged_h_0153.sdf

> <i_m_source_file_index>
48

> <r_mmod_Potential_Energy-OPLS-2005>
99.1728363037109

> <r_mmod_Stretch_Energy-OPLS-2005>
145.499862670898

> <r_mmod_Bend_Energy-OPLS-2005>
192.656433105469

> <r_mmod_Torsional_Energy-OPLS-2005>
260.241607666016

> <r_mmod_Improper_Torsional_Energy-OPLS-2005>
10.2805223464966

> <r_mmod_Van_der_Waal_Energy-OPLS-2005>
147.584396362305

> <r_mmod_Electrostatic_Energy-OPLS-2005>
-532.308349609375

> <r_mmod_Solvation_Energy-OPLS-2005>
-229.380065917969

> <b_mmod_Minimization_Converged-OPLS-2005>
0

> <r_mmod_RMS_Derivative-OPLS-2005>
2.82002234458923

$$$$
48
                    3D
 Structure written by MMmdl.
172182  0  0  1  0            999 V2000
  -30.6649  -14.5906   20.4992 C   0  0  0  0  0  0
  -30.4246  -12.3619   19.4504 C   0  0  0  0  0  0
  -29.5011  -12.5015   18.2215 C   0  0  0  0  0  0
  -28.0231  -12.3504   18.6328 C   0  0  0  0  0  0
  -27.6516  -13.2178   19.8654 C   0  0  2  0  0  0
  -28.6964  -13.0724   20.9944 C   0  0  0  0  0  0
  -25.2548  -13.8180   20.5701 C   0  0  0  0  0  0
  -24.1817  -13.0437   20.9193 C   0  0  0  0  0  0
  -24.6393  -11.6911   20.8750 C   0  0  0  0  0  0
  -23.9066  -10.4289   21.0412 C   0  0  0  0  0  0
  -24.3620   -9.4204   21.9187 C   0  0  0  0  0  0
  -23.6291   -8.2242   22.0755 C   0  0  0  0  0  0
  -22.4272   -8.0283   21.3550 C   0  0  0  0  0  0
  -21.9914   -9.0254   20.4646 C   0  0  0  0  0  0
  -22.7243  -10.2132   20.3057 C   0  0  0  0  0  0
  -21.6851   -6.0735   22.5283 C   0  0  0  0  0  0
  -21.4011   -6.5640   23.8216 C   0  0  0  0  0  0
  -21.3659   -5.6795   24.9179 C   0  0  0  0  0  0
  -21.6045   -4.3058   24.7229 C   0  0  0  0  0  0
  -21.8820   -3.8147   23.4349 C   0  0  0  0  0  0
  -21.9192   -4.6963   22.3405 C   0  0  0  0  0  0
  -22.7837  -13.5225   21.1860 C   0  0  0  0  0  0
  -22.1662   -4.2147   21.0983 F   0  0  0  0  0  0
  -21.5629   -3.4544   25.7742 F   0  0  0  0  0  0
  -30.0112  -13.3916   20.4226 N   0  0  0  0  0  0
  -26.2980  -12.9365   20.3347 N   0  0  0  0  0  0
  -25.9322  -11.6517   20.5774 N   0  0  0  0  0  0
  -22.0493  -12.8206   22.0419 N   0  0  0  0  0  0
  -25.4260  -15.1898   20.4114 N   0  0  0  0  0  0
  -31.8439  -14.6928   20.1438 O   0  0  0  0  0  0
  -21.6636   -6.8879   21.4244 O   0  0  0  0  0  0
  -22.3515  -14.5535   20.6717 O   0  0  0  0  0  0
  -24.6208  -31.8631   23.2064 C   0  0  0  0  0  0
  -25.9073  -32.4798   23.8382 C   0  0  1  0  0  0
  -27.2272  -27.3782   20.1104 C   0  0  0  0  0  0
  -25.5910  -33.8598   24.2309 N   0  0  0  0  0  0
  -23.4139  -30.4864   21.5466 C   0  0  2  0  0  0
  -24.8636  -28.9504   20.1066 C   0  0  0  0  0  0
  -22.7452  -29.4634   22.4946 C   0  0  0  0  0  0
  -18.0282  -28.1380   22.8490 C   0  0  0  0  0  0
  -24.1487  -36.7305   23.2638 C   0  0  0  0  0  0
  -25.9493  -30.8118   21.3701 C   0  0  0  0  0  0
  -26.0282  -29.4443   20.7114 C   0  0  0  0  0  0
  -27.2177  -28.6662   20.7105 C   0  0  0  0  0  0
  -26.0519  -26.9203   19.4825 C   0  0  0  0  0  0
  -24.8740  -27.6906   19.4843 C   0  0  0  0  0  0
  -23.6265  -29.8214   20.1607 C   0  0  0  0  0  0
  -25.4110  -36.3097   24.0336 C   0  0  1  0  0  0
  -20.5881  -28.3677   23.1292 C   0  0  2  0  0  0
  -20.6770  -26.9404   22.5410 C   0  0  0  0  0  0
  -19.5748  -26.6383   21.5209 C   0  0  0  0  0  0
  -18.1928  -26.7926   22.1621 C   0  0  0  0  0  0
  -19.1534  -28.8847   23.2888 C   0  0  0  0  0  0
  -18.9459  -30.1451   23.8900 C   0  0  0  0  0  0
  -17.6460  -30.6586   24.0566 C   0  0  0  0  0  0
  -25.9045  -34.9463   23.5124 C   0  0  0  0  0  0
  -16.5349  -29.9087   23.6328 C   0  0  0  0  0  0
  -16.7270  -28.6502   23.0352 C   0  0  0  0  0  0
  -26.4481  -31.6589   25.0727 C   0  0  0  0  0  0
  -25.3732  -31.3707   26.1466 C   0  0  0  0  0  0
  -27.0322  -30.3021   24.6143 C   0  0  0  0  0  0
  -27.6051  -32.4315   25.7492 C   0  0  0  0  0  0
  -27.5584  -37.1804   24.8462 C   0  0  0  0  0  0
  -21.4172  -29.3035   22.3688 N   0  0  0  0  0  0
  -26.4293  -37.3786   23.9410 N   0  0  0  0  0  0
  -24.6795  -31.0689   22.0987 N   0  0  0  0  0  0
  -23.4190  -28.8171   23.3010 O   0  0  0  0  0  0
  -28.3010  -26.5014   20.1796 O   0  0  0  0  0  0
  -26.5612  -34.8920   22.4689 O   0  0  0  0  0  0
  -23.5381  -32.1404   23.7417 O   0  0  0  0  0  0
  -29.0253  -23.4777   19.9094 C   0  0  0  0  0  0
  -29.5162  -22.1403   19.8216 C   0  0  0  0  0  0
  -28.6759  -24.0741   21.1429 C   0  0  0  0  0  0
  -28.7749  -23.2557   22.3089 C   0  0  0  0  0  0
  -29.3009  -21.9264   22.2408 C   0  0  0  0  0  0
  -29.6684  -21.3448   20.9951 C   0  0  0  0  0  0
  -31.3673  -21.4048   18.1084 C   0  0  0  0  0  0
  -30.5622  -22.4778   17.4190 C   0  0  0  0  0  0
  -29.7450  -17.8162   21.9210 C   0  0  0  0  0  0
  -30.3460  -18.0348   19.5327 C   0  0  0  0  0  0
  -29.2549  -16.3510   21.6629 C   0  0  0  0  0  0
  -29.8059  -16.5955   19.2965 C   0  0  0  0  0  0
  -29.9124  -21.6036   18.4730 C   0  0  0  0  0  0
  -29.6572  -18.7782   20.7001 C   0  0  0  0  0  0
  -28.3193  -23.8037   23.6637 C   0  0  0  0  0  0
  -29.4856  -21.1237   23.5312 C   0  0  0  0  0  0
  -28.1258  -25.5331   21.2547 C   0  0  0  0  0  0
  -29.8719  -15.7126   20.4825 N   0  0  0  0  0  0
  -30.3201  -20.0771   20.9678 N   0  0  0  0  0  0
  -31.4693  -12.4614   19.1505 H   0  0  0  0  0  0
  -30.3348  -11.3681   19.8919 H   0  0  0  0  0  0
  -29.7584  -11.7553   17.4687 H   0  0  0  0  0  0
  -29.6530  -13.4755   17.7533 H   0  0  0  0  0  0
  -27.8501  -11.2971   18.8563 H   0  0  0  0  0  0
  -27.3702  -12.5930   17.7935 H   0  0  0  0  0  0
  -27.6706  -14.2539   19.5286 H   0  0  0  0  0  0
  -28.6964  -12.0571   21.3928 H   0  0  0  0  0  0
  -28.4537  -13.7234   21.8343 H   0  0  0  0  0  0
  -25.2770   -9.5675   22.4756 H   0  0  0  0  0  0
  -24.0003   -7.4629   22.7468 H   0  0  0  0  0  0
  -21.0853   -8.8773   19.8943 H   0  0  0  0  0  0
  -22.3709  -10.9671   19.6162 H   0  0  0  0  0  0
  -21.2004   -7.6149   23.9717 H   0  0  0  0  0  0
  -21.1479   -6.0527   25.9082 H   0  0  0  0  0  0
  -22.0598   -2.7608   23.2853 H   0  0  0  0  0  0
  -22.4118  -11.9853   22.4776 H   0  0  0  0  0  0
  -21.1109  -13.1207   22.2646 H   0  0  0  0  0  0
  -24.6612  -15.8462   20.5230 H   0  0  0  0  0  0
  -26.2846  -15.6286   20.1046 H   0  0  0  0  0  0
  -26.7144  -32.5491   23.1144 H   0  0  0  0  0  0
  -25.0064  -33.9758   25.0456 H   0  0  0  0  0  0
  -22.7048  -31.3045   21.4059 H   0  0  0  0  0  0
  -23.3758  -35.9629   23.3288 H   0  0  0  0  0  0
  -24.3581  -36.8937   22.2056 H   0  0  0  0  0  0
  -23.7231  -37.6500   23.6664 H   0  0  0  0  0  0
  -26.0733  -31.5779   20.6035 H   0  0  0  0  0  0
  -26.8326  -30.8608   21.9956 H   0  0  0  0  0  0
  -28.1094  -29.0311   21.2010 H   0  0  0  0  0  0
  -26.0398  -25.9417   19.0230 H   0  0  0  0  0  0
  -23.9803  -27.3043   19.0137 H   0  0  0  0  0  0
  -23.7368  -30.5985   19.4033 H   0  0  0  0  0  0
  -22.7496  -29.2443   19.8623 H   0  0  0  0  0  0
  -25.1285  -36.1960   25.0830 H   0  0  0  0  0  0
  -20.9979  -28.3252   24.1411 H   0  0  0  0  0  0
  -20.5669  -26.2286   23.3603 H   0  0  0  0  0  0
  -21.6639  -26.7434   22.1207 H   0  0  0  0  0  0
  -19.6909  -25.6299   21.1232 H   0  0  0  0  0  0
  -19.6688  -27.3195   20.6744 H   0  0  0  0  0  0
  -17.4198  -26.6676   21.4025 H   0  0  0  0  0  0
  -18.0327  -26.0064   22.9013 H   0  0  0  0  0  0
  -19.7937  -30.7267   24.2263 H   0  0  0  0  0  0
  -17.5016  -31.6263   24.5173 H   0  0  0  0  0  0
  -15.5349  -30.2988   23.7651 H   0  0  0  0  0  0
  -15.8669  -28.0821   22.7063 H   0  0  0  0  0  0
  -24.5898  -30.7068   25.7793 H   0  0  0  0  0  0
  -24.8935  -32.2867   26.4922 H   0  0  0  0  0  0
  -25.8072  -30.8860   27.0219 H   0  0  0  0  0  0
  -26.2884  -29.6775   24.1180 H   0  0  0  0  0  0
  -27.4058  -29.7267   25.4623 H   0  0  0  0  0  0
  -27.8733  -30.4329   23.9331 H   0  0  0  0  0  0
  -27.2674  -33.3617   26.2075 H   0  0  0  0  0  0
  -28.3855  -32.6872   25.0311 H   0  0  0  0  0  0
  -28.0722  -31.8433   26.5402 H   0  0  0  0  0  0
  -28.2590  -38.0115   24.7531 H   0  0  0  0  0  0
  -28.1096  -36.2648   24.6262 H   0  0  0  0  0  0
  -27.2304  -37.1420   25.8865 H   0  0  0  0  0  0
  -20.9334  -29.8764   21.6915 H   0  0  0  0  0  0
  -26.0182  -38.2860   24.1424 H   0  0  0  0  0  0
  -28.9230  -24.0681   19.0100 H   0  0  0  0  0  0
  -32.1173  -21.7245   18.8297 H   0  0  0  0  0  0
  -31.6279  -20.5274   17.5196 H   0  0  0  0  0  0
  -30.3002  -22.3003   16.3777 H   0  0  0  0  0  0
  -30.8094  -23.5081   17.6677 H   0  0  0  0  0  0
  -30.7802  -17.7642   22.2622 H   0  0  0  0  0  0
  -29.1786  -18.2338   22.7542 H   0  0  0  0  0  0
  -30.2339  -18.6108   18.6144 H   0  0  0  0  0  0
  -31.4197  -17.9756   19.7190 H   0  0  0  0  0  0
  -28.1736  -16.3523   21.5175 H   0  0  0  0  0  0
  -29.4398  -15.7491   22.5541 H   0  0  0  0  0  0
  -30.3391  -16.1465   18.4564 H   0  0  0  0  0  0
  -28.7632  -16.6521   18.9822 H   0  0  0  0  0  0
  -29.1995  -20.8533   18.1357 H   0  0  0  0  0  0
  -28.6087  -18.9527   20.4513 H   0  0  0  0  0  0
  -27.5683  -24.5872   23.5859 H   0  0  0  0  0  0
  -29.1702  -24.2046   24.2152 H   0  0  0  0  0  0
  -27.8509  -23.0293   24.2713 H   0  0  0  0  0  0
  -29.7750  -21.7602   24.3663 H   0  0  0  0  0  0
  -30.2723  -20.3751   23.4641 H   0  0  0  0  0  0
  -28.5586  -20.6122   23.7915 H   0  0  0  0  0  0
  -28.5921  -25.9980   22.1238 H   0  0  0  0  0  0
  -27.0681  -25.4272   21.5052 H   0  0  0  0  0  0
  -30.9626  -19.9875   21.7472 H   0  0  0  0  0  0
  1 25  1  0  0  0
  1 30  2  0  0  0
  1 88  1  0  0  0
  2  3  1  0  0  0
  2 25  1  0  0  0
  2 90  1  0  0  0
  2 91  1  0  0  0
  3  4  1  0  0  0
  3 92  1  0  0  0
  3 93  1  0  0  0
  4  5  1  0  0  0
  4 94  1  0  0  0
  4 95  1  0  0  0
  5  6  1  0  0  0
  5 26  1  0  0  0
  5 96  1  0  0  0
  6 25  1  0  0  0
  6 97  1  0  0  0
  6 98  1  0  0  0
  7  8  2  0  0  0
  7 26  1  0  0  0
  7 29  1  0  0  0
  8  9  1  0  0  0
  8 22  1  0  0  0
  9 10  1  0  0  0
  9 27  2  0  0  0
 10 11  2  0  0  0
 10 15  1  0  0  0
 11 12  1  0  0  0
 11 99  1  0  0  0
 12 13  2  0  0  0
 12100  1  0  0  0
 13 14  1  0  0  0
 13 31  1  0  0  0
 14 15  2  0  0  0
 14101  1  0  0  0
 15102  1  0  0  0
 16 17  2  0  0  0
 16 21  1  0  0  0
 16 31  1  0  0  0
 17 18  1  0  0  0
 17103  1  0  0  0
 18 19  2  0  0  0
 18104  1  0  0  0
 19 20  1  0  0  0
 19 24  1  0  0  0
 20 21  2  0  0  0
 20105  1  0  0  0
 21 23  1  0  0  0
 22 28  1  0  0  0
 22 32  2  0  0  0
 26 27  1  0  0  0
 28106  1  0  0  0
 28107  1  0  0  0
 29108  1  0  0  0
 29109  1  0  0  0
 33 34  1  0  0  0
 33 66  1  0  0  0
 33 70  2  0  0  0
 34 36  1  0  0  0
 34 59  1  0  0  0
 34110  1  0  0  0
 35 44  2  0  0  0
 35 45  1  0  0  0
 35 68  1  0  0  0
 36 56  1  0  0  0
 36111  1  0  0  0
 37 39  1  0  0  0
 37 47  1  0  0  0
 37 66  1  0  0  0
 37112  1  0  0  0
 38 43  2  0  0  0
 38 46  1  0  0  0
 38 47  1  0  0  0
 39 64  1  0  0  0
 39 67  2  0  0  0
 40 52  1  0  0  0
 40 53  2  0  0  0
 40 58  1  0  0  0
 41113  1  0  0  0
 41114  1  0  0  0
 41115  1  0  0  0
 41 48  1  0  0  0
 42 43  1  0  0  0
 42 66  1  0  0  0
 42116  1  0  0  0
 42117  1  0  0  0
 43 44  1  0  0  0
 44118  1  0  0  0
 45 46  2  0  0  0
 45119  1  0  0  0
 46120  1  0  0  0
 47121  1  0  0  0
 47122  1  0  0  0
 48 56  1  0  0  0
 48 65  1  0  0  0
 48123  1  0  0  0
 49 50  1  0  0  0
 49 53  1  0  0  0
 49 64  1  0  0  0
 49124  1  0  0  0
 50 51  1  0  0  0
 50125  1  0  0  0
 50126  1  0  0  0
 51 52  1  0  0  0
 51127  1  0  0  0
 51128  1  0  0  0
 52129  1  0  0  0
 52130  1  0  0  0
 53 54  1  0  0  0
 54 55  2  0  0  0
 54131  1  0  0  0
 55 57  1  0  0  0
 55132  1  0  0  0
 56 69  2  0  0  0
 57 58  2  0  0  0
 57133  1  0  0  0
 58134  1  0  0  0
 59 60  1  0  0  0
 59 61  1  0  0  0
 59 62  1  0  0  0
 60135  1  0  0  0
 60136  1  0  0  0
 60137  1  0  0  0
 61138  1  0  0  0
 61139  1  0  0  0
 61140  1  0  0  0
 62141  1  0  0  0
 62142  1  0  0  0
 62143  1  0  0  0
 63 65  1  0  0  0
 63144  1  0  0  0
 63145  1  0  0  0
 63146  1  0  0  0
 64147  1  0  0  0
 65148  1  0  0  0
 68 87  1  0  0  0
 71 72  2  0  0  0
 71 73  1  0  0  0
 71149  1  0  0  0
 72 76  1  0  0  0
 72 83  1  0  0  0
 73 74  2  0  0  0
 73 87  1  0  0  0
 74 75  1  0  0  0
 74 85  1  0  0  0
 75 76  2  0  0  0
 75 86  1  0  0  0
 76 89  1  0  0  0
 77 78  1  0  0  0
 77 83  1  0  0  0
 77150  1  0  0  0
 77151  1  0  0  0
 78 83  1  0  0  0
 78152  1  0  0  0
 78153  1  0  0  0
 79 81  1  0  0  0
 79 84  1  0  0  0
 79154  1  0  0  0
 79155  1  0  0  0
 80 82  1  0  0  0
 80 84  1  0  0  0
 80156  1  0  0  0
 80157  1  0  0  0
 81 88  1  0  0  0
 81158  1  0  0  0
 81159  1  0  0  0
 82 88  1  0  0  0
 82160  1  0  0  0
 82161  1  0  0  0
 83162  1  0  0  0
 84 89  1  0  0  0
 84163  1  0  0  0
 85164  1  0  0  0
 85165  1  0  0  0
 85166  1  0  0  0
 86167  1  0  0  0
 86168  1  0  0  0
 86169  1  0  0  0
 87170  1  0  0  0
 87171  1  0  0  0
 89172  1  0  0  0
M  ISO  4   1 100  68 101  87 101  88 100
M  END
> <chiral flag>
0

> <version>
0

> <s_m_source_file>
/data/baiqing/PycharmProjects/Reinvent-master-3.2/result/LINK_invent/BTK/process_docking_weight1_custom_sum_contain_oxygen_bond_distance_aromatic_linkinvent_7_9_3/rearranged_h_0153.sdf

> <i_m_source_file_index>
49

> <r_mmod_Potential_Energy-OPLS-2005>
283.885162353516

> <r_mmod_Stretch_Energy-OPLS-2005>
61.7331199645996

> <r_mmod_Bend_Energy-OPLS-2005>
130.466293334961

> <r_mmod_Torsional_Energy-OPLS-2005>
414.811340332031

> <r_mmod_Improper_Torsional_Energy-OPLS-2005>
21.3052520751953

> <r_mmod_Van_der_Waal_Energy-OPLS-2005>
145.453567504883

> <r_mmod_Electrostatic_Energy-OPLS-2005>
-332.264190673828

> <r_mmod_Solvation_Energy-OPLS-2005>
-194.667755126953

> <b_mmod_Minimization_Converged-OPLS-2005>
0

> <r_mmod_RMS_Derivative-OPLS-2005>
0.776188492774963

$$$$
49
                    3D
 Structure written by MMmdl.
168177  0  0  1  0            999 V2000
  -30.6969  -14.6757   20.6091 C   0  0  0  0  0  0
  -30.4068  -12.4462   19.4976 C   0  0  0  0  0  0
  -29.5015  -12.5705   18.2494 C   0  0  0  0  0  0
  -28.0272  -12.3593   18.6409 C   0  0  0  0  0  0
  -27.6421  -13.2221   19.8743 C   0  0  2  0  0  0
  -28.6836  -13.1021   21.0131 C   0  0  0  0  0  0
  -25.2465  -13.8140   20.5882 C   0  0  0  0  0  0
  -24.1799  -13.0404   20.9392 C   0  0  0  0  0  0
  -24.6324  -11.6886   20.8766 C   0  0  0  0  0  0
  -23.8928  -10.4268   21.0364 C   0  0  0  0  0  0
  -24.3536   -9.4173   21.9129 C   0  0  0  0  0  0
  -23.6236   -8.2194   22.0700 C   0  0  0  0  0  0
  -22.4158   -8.0221   21.3539 C   0  0  0  0  0  0
  -21.9813   -9.0169   20.4609 C   0  0  0  0  0  0
  -22.7114  -10.2053   20.3013 C   0  0  0  0  0  0
  -21.6842   -6.0674   22.5292 C   0  0  0  0  0  0
  -21.4030   -6.5604   23.8204 C   0  0  0  0  0  0
  -21.3690   -5.6809   24.9183 C   0  0  0  0  0  0
  -21.6070   -4.3043   24.7257 C   0  0  0  0  0  0
  -21.8778   -3.8111   23.4379 C   0  0  0  0  0  0
  -21.9203   -4.6907   22.3420 C   0  0  0  0  0  0
  -22.7758  -13.5069   21.2015 C   0  0  0  0  0  0
  -22.1644   -4.2094   21.1009 F   0  0  0  0  0  0
  -21.5647   -3.4525   25.7768 F   0  0  0  0  0  0
  -29.9899  -13.4885   20.4670 N   0  0  0  0  0  0
  -26.2917  -12.9387   20.3460 N   0  0  0  0  0  0
  -25.9282  -11.6487   20.5905 N   0  0  0  0  0  0
  -22.0397  -12.8155   22.0525 N   0  0  0  0  0  0
  -25.4114  -15.1902   20.4365 N   0  0  0  0  0  0
  -31.8487  -14.7147   20.1528 O   0  0  0  0  0  0
  -21.6603   -6.8764   21.4192 O   0  0  0  0  0  0
  -22.3479  -14.5345   20.6739 O   0  0  0  0  0  0
  -24.6194  -31.8727   23.2083 C   0  0  0  0  0  0
  -25.9075  -32.4828   23.8422 C   0  0  1  0  0  0
  -27.2250  -27.3237   20.1982 C   0  0  0  0  0  0
  -25.5914  -33.8642   24.2347 N   0  0  0  0  0  0
  -23.4106  -30.4927   21.5456 C   0  0  2  0  0  0
  -24.8658  -28.9513   20.0915 C   0  0  0  0  0  0
  -22.7427  -29.4703   22.4918 C   0  0  0  0  0  0
  -18.0264  -28.1408   22.8481 C   0  0  0  0  0  0
  -24.1469  -36.7263   23.2655 C   0  0  0  0  0  0
  -25.9381  -30.8202   21.3588 C   0  0  0  0  0  0
  -26.0181  -29.4408   20.7127 C   0  0  0  0  0  0
  -27.1960  -28.6432   20.7454 C   0  0  0  0  0  0
  -26.0657  -26.8866   19.5246 C   0  0  0  0  0  0
  -24.9010  -27.6873   19.4705 C   0  0  0  0  0  0
  -23.6230  -29.8312   20.1551 C   0  0  0  0  0  0
  -25.4092  -36.3078   24.0339 C   0  0  1  0  0  0
  -20.5870  -28.3704   23.1283 C   0  0  2  0  0  0
  -20.6760  -26.9429   22.5426 C   0  0  0  0  0  0
  -19.5750  -26.6387   21.5218 C   0  0  0  0  0  0
  -18.1916  -26.7964   22.1637 C   0  0  0  0  0  0
  -19.1530  -28.8854   23.2880 C   0  0  0  0  0  0
  -18.9476  -30.1448   23.8893 C   0  0  0  0  0  0
  -17.6501  -30.6626   24.0555 C   0  0  0  0  0  0
  -25.9025  -34.9455   23.5121 C   0  0  0  0  0  0
  -16.5367  -29.9121   23.6345 C   0  0  0  0  0  0
  -16.7264  -28.6531   23.0360 C   0  0  0  0  0  0
  -26.4451  -31.6608   25.0754 C   0  0  0  0  0  0
  -25.3740  -31.3682   26.1502 C   0  0  0  0  0  0
  -27.0321  -30.3081   24.6127 C   0  0  0  0  0  0
  -27.5994  -32.4321   25.7558 C   0  0  0  0  0  0
  -27.5546  -37.1788   24.8487 C   0  0  0  0  0  0
  -21.4128  -29.3088   22.3677 N   0  0  0  0  0  0
  -26.4249  -37.3779   23.9448 N   0  0  0  0  0  0
  -24.6738  -31.0790   22.0950 N   0  0  0  0  0  0
  -23.4162  -28.8254   23.3003 O   0  0  0  0  0  0
  -28.3709  -26.5293   20.3569 O   0  0  0  0  0  0
  -26.5610  -34.8916   22.4691 O   0  0  0  0  0  0
  -23.5391  -32.1453   23.7511 O   0  0  0  0  0  0
  -25.8750  -22.1242   19.3510 C   0  0  0  0  0  0
  -26.5487  -22.9138   20.2728 C   0  0  0  0  0  0
  -27.4489  -20.3523   19.8036 C   0  0  0  0  0  0
  -26.3491  -20.8492   19.0619 C   0  0  0  0  0  0
  -27.8047  -22.5696   20.8171 C   0  0  0  0  0  0
  -28.1948  -21.1348   20.7442 C   0  0  0  0  0  0
  -28.4599  -17.7840   21.5784 C   0  0  0  0  0  0
  -30.6717  -18.3045   22.2008 C   0  0  0  0  0  0
  -28.8459  -16.4153   20.8911 C   0  0  0  0  0  0
  -31.1436  -16.8488   21.7655 C   0  0  0  0  0  0
  -29.5230  -18.9081   21.3314 C   0  0  0  0  0  0
  -25.5972  -20.0443   18.0170 C   0  0  0  0  0  0
  -29.8433  -24.0015   21.9423 C   0  0  0  0  0  0
  -28.4632  -25.0742   20.0858 C   0  0  0  0  0  0
  -28.4606  -23.9584   21.2684 C   0  0  1  0  0  0
  -30.1741  -15.8224   21.2260 N   0  0  0  0  0  0
  -29.1720  -20.3939   21.5283 N   0  0  0  0  0  0
  -31.4636  -12.5270   19.2260 H   0  0  0  0  0  0
  -30.2945  -11.4523   19.9363 H   0  0  0  0  0  0
  -29.8103  -11.8607   17.4804 H   0  0  0  0  0  0
  -29.6098  -13.5611   17.8051 H   0  0  0  0  0  0
  -27.8749  -11.3042   18.8614 H   0  0  0  0  0  0
  -27.3748  -12.5850   17.7920 H   0  0  0  0  0  0
  -27.6488  -14.2537   19.5289 H   0  0  0  0  0  0
  -28.7064  -12.0684   21.3751 H   0  0  0  0  0  0
  -28.4139  -13.6888   21.8854 H   0  0  0  0  0  0
  -25.2648   -9.5670   22.4658 H   0  0  0  0  0  0
  -23.9957   -7.4592   22.7458 H   0  0  0  0  0  0
  -21.0698   -8.8589   19.8992 H   0  0  0  0  0  0
  -22.3450  -10.9541   19.6080 H   0  0  0  0  0  0
  -21.1965   -7.6117   23.9655 H   0  0  0  0  0  0
  -21.1601   -6.0580   25.9122 H   0  0  0  0  0  0
  -22.0518   -2.7562   23.2928 H   0  0  0  0  0  0
  -22.3927  -11.9696   22.4742 H   0  0  0  0  0  0
  -21.1002  -13.1224   22.2682 H   0  0  0  0  0  0
  -24.6362  -15.8378   20.5539 H   0  0  0  0  0  0
  -26.2444  -15.6428   20.0785 H   0  0  0  0  0  0
  -26.7162  -32.5569   23.1211 H   0  0  0  0  0  0
  -25.0033  -33.9773   25.0481 H   0  0  0  0  0  0
  -22.6967  -31.3122   21.4220 H   0  0  0  0  0  0
  -23.3725  -35.9608   23.3333 H   0  0  0  0  0  0
  -24.3515  -36.8870   22.2056 H   0  0  0  0  0  0
  -23.7198  -37.6454   23.6670 H   0  0  0  0  0  0
  -26.0474  -31.5971   20.6000 H   0  0  0  0  0  0
  -26.8227  -30.8953   21.9777 H   0  0  0  0  0  0
  -28.0654  -29.0372   21.2485 H   0  0  0  0  0  0
  -26.0494  -25.9145   19.0539 H   0  0  0  0  0  0
  -24.0265  -27.3229   18.9526 H   0  0  0  0  0  0
  -23.7069  -30.6273   19.4131 H   0  0  0  0  0  0
  -22.7459  -29.2544   19.8567 H   0  0  0  0  0  0
  -25.1263  -36.1901   25.0825 H   0  0  0  0  0  0
  -20.9953  -28.3289   24.1412 H   0  0  0  0  0  0
  -20.5645  -26.2317   23.3614 H   0  0  0  0  0  0
  -21.6615  -26.7472   22.1218 H   0  0  0  0  0  0
  -19.6904  -25.6266   21.1274 H   0  0  0  0  0  0
  -19.6684  -27.3151   20.6697 H   0  0  0  0  0  0
  -17.4166  -26.6650   21.4047 H   0  0  0  0  0  0
  -18.0358  -26.0115   22.9057 H   0  0  0  0  0  0
  -19.7942  -30.7267   24.2253 H   0  0  0  0  0  0
  -17.5054  -31.6321   24.5157 H   0  0  0  0  0  0
  -15.5356  -30.3059   23.7678 H   0  0  0  0  0  0
  -15.8635  -28.0860   22.7117 H   0  0  0  0  0  0
  -24.5864  -30.7074   25.7801 H   0  0  0  0  0  0
  -24.8988  -32.2859   26.5035 H   0  0  0  0  0  0
  -25.8116  -30.8750   27.0223 H   0  0  0  0  0  0
  -26.2872  -29.6794   24.1218 H   0  0  0  0  0  0
  -27.4144  -29.7300   25.4555 H   0  0  0  0  0  0
  -27.8675  -30.4364   23.9232 H   0  0  0  0  0  0
  -27.2565  -33.3596   26.2184 H   0  0  0  0  0  0
  -28.3845  -32.6968   25.0446 H   0  0  0  0  0  0
  -28.0668  -31.8455   26.5485 H   0  0  0  0  0  0
  -28.2596  -38.0056   24.7518 H   0  0  0  0  0  0
  -28.1006  -36.2581   24.6343 H   0  0  0  0  0  0
  -27.2279  -37.1487   25.8899 H   0  0  0  0  0  0
  -20.9244  -29.8769   21.6873 H   0  0  0  0  0  0
  -26.0113  -38.2846   24.1498 H   0  0  0  0  0  0
  -25.0288  -22.5359   18.8241 H   0  0  0  0  0  0
  -26.1394  -23.9024   20.4366 H   0  0  0  0  0  0
  -27.7145  -19.3237   19.5955 H   0  0  0  0  0  0
  -28.3447  -17.5774   22.6482 H   0  0  0  0  0  0
  -27.4607  -18.1028   21.2903 H   0  0  0  0  0  0
  -31.5461  -18.9636   22.2171 H   0  0  0  0  0  0
  -30.3441  -18.2485   23.2461 H   0  0  0  0  0  0
  -28.8334  -16.5457   19.8049 H   0  0  0  0  0  0
  -28.0640  -15.7094   21.1226 H   0  0  0  0  0  0
  -31.6502  -16.4004   22.6181 H   0  0  0  0  0  0
  -31.9350  -17.0117   21.0313 H   0  0  0  0  0  0
  -29.8508  -18.8208   20.2956 H   0  0  0  0  0  0
  -25.8515  -18.9804   18.0538 H   0  0  0  0  0  0
  -25.7993  -20.4071   17.0096 H   0  0  0  0  0  0
  -24.5243  -20.1662   18.1843 H   0  0  0  0  0  0
  -29.8265  -23.6773   22.9838 H   0  0  0  0  0  0
  -30.1781  -25.0483   21.9681 H   0  0  0  0  0  0
  -30.5864  -23.4547   21.3633 H   0  0  0  0  0  0
  -27.9046  -24.7603   19.2054 H   0  0  0  0  0  0
  -29.4613  -25.0381   19.6652 H   0  0  0  0  0  0
  -27.7626  -24.3275   22.0277 H   0  0  0  0  0  0
  -29.8200  -20.9547   22.0865 H   0  0  0  0  0  0
  1 25  1  0  0  0
  1 30  2  0  0  0
  1 86  1  0  0  0
  2  3  1  0  0  0
  2 25  1  0  0  0
  2 88  1  0  0  0
  2 89  1  0  0  0
  3  4  1  0  0  0
  3 90  1  0  0  0
  3 91  1  0  0  0
  4  5  1  0  0  0
  4 92  1  0  0  0
  4 93  1  0  0  0
  5  6  1  0  0  0
  5 26  1  0  0  0
  5 94  1  0  0  0
  6 25  1  0  0  0
  6 95  1  0  0  0
  6 96  1  0  0  0
  7  8  2  0  0  0
  7 26  1  0  0  0
  7 29  1  0  0  0
  8  9  1  0  0  0
  8 22  1  0  0  0
  9 10  1  0  0  0
  9 27  2  0  0  0
 10 11  2  0  0  0
 10 15  1  0  0  0
 11 12  1  0  0  0
 11 97  1  0  0  0
 12 13  2  0  0  0
 12 98  1  0  0  0
 13 14  1  0  0  0
 13 31  1  0  0  0
 14 15  2  0  0  0
 14 99  1  0  0  0
 15100  1  0  0  0
 16 17  2  0  0  0
 16 21  1  0  0  0
 16 31  1  0  0  0
 17 18  1  0  0  0
 17101  1  0  0  0
 18 19  2  0  0  0
 18102  1  0  0  0
 19 20  1  0  0  0
 19 24  1  0  0  0
 20 21  2  0  0  0
 20103  1  0  0  0
 21 23  1  0  0  0
 22 28  1  0  0  0
 22 32  2  0  0  0
 26 27  1  0  0  0
 28104  1  0  0  0
 28105  1  0  0  0
 29106  1  0  0  0
 29107  1  0  0  0
 33 34  1  0  0  0
 33 66  1  0  0  0
 33 70  2  0  0  0
 34 36  1  0  0  0
 34 59  1  0  0  0
 34108  1  0  0  0
 35 44  2  0  0  0
 35 45  1  0  0  0
 35 68  1  0  0  0
 36 56  1  0  0  0
 36109  1  0  0  0
 37 39  1  0  0  0
 37 47  1  0  0  0
 37 66  1  0  0  0
 37110  1  0  0  0
 38 43  2  0  0  0
 38 46  1  0  0  0
 38 47  1  0  0  0
 39 64  1  0  0  0
 39 67  2  0  0  0
 40 52  1  0  0  0
 40 53  2  0  0  0
 40 58  1  0  0  0
 41111  1  0  0  0
 41112  1  0  0  0
 41113  1  0  0  0
 41 48  1  0  0  0
 42 43  1  0  0  0
 42 66  1  0  0  0
 42114  1  0  0  0
 42115  1  0  0  0
 43 44  1  0  0  0
 44116  1  0  0  0
 45 46  2  0  0  0
 45117  1  0  0  0
 46118  1  0  0  0
 47119  1  0  0  0
 47120  1  0  0  0
 48 56  1  0  0  0
 48 65  1  0  0  0
 48121  1  0  0  0
 49 50  1  0  0  0
 49 53  1  0  0  0
 49 64  1  0  0  0
 49122  1  0  0  0
 50 51  1  0  0  0
 50123  1  0  0  0
 50124  1  0  0  0
 51 52  1  0  0  0
 51125  1  0  0  0
 51126  1  0  0  0
 52127  1  0  0  0
 52128  1  0  0  0
 53 54  1  0  0  0
 54 55  2  0  0  0
 54129  1  0  0  0
 55 57  1  0  0  0
 55130  1  0  0  0
 56 69  2  0  0  0
 57 58  2  0  0  0
 57131  1  0  0  0
 58132  1  0  0  0
 59 60  1  0  0  0
 59 61  1  0  0  0
 59 62  1  0  0  0
 60133  1  0  0  0
 60134  1  0  0  0
 60135  1  0  0  0
 61136  1  0  0  0
 61137  1  0  0  0
 61138  1  0  0  0
 62139  1  0  0  0
 62140  1  0  0  0
 62141  1  0  0  0
 63 65  1  0  0  0
 63142  1  0  0  0
 63143  1  0  0  0
 63144  1  0  0  0
 64145  1  0  0  0
 65146  1  0  0  0
 68 84  1  0  0  0
 71 72  2  0  0  0
 71 74  1  0  0  0
 71147  1  0  0  0
 72 75  1  0  0  0
 72148  1  0  0  0
 73 74  2  0  0  0
 73 76  1  0  0  0
 73149  1  0  0  0
 74 82  1  0  0  0
 75 76  2  0  0  0
 75 85  1  0  0  0
 76 87  1  0  0  0
 77 79  1  0  0  0
 77 81  1  0  0  0
 77150  1  0  0  0
 77151  1  0  0  0
 78 80  1  0  0  0
 78 81  1  0  0  0
 78152  1  0  0  0
 78153  1  0  0  0
 79 86  1  0  0  0
 79154  1  0  0  0
 79155  1  0  0  0
 80 86  1  0  0  0
 80156  1  0  0  0
 80157  1  0  0  0
 81 87  1  0  0  0
 81158  1  0  0  0
 82159  1  0  0  0
 82160  1  0  0  0
 82161  1  0  0  0
 83162  1  0  0  0
 83163  1  0  0  0
 83164  1  0  0  0
 83 85  1  0  0  0
 84 85  1  0  0  0
 84165  1  0  0  0
 84166  1  0  0  0
 85167  1  0  0  0
 87168  1  0  0  0
M  ISO  4   1 100  68 101  84 101  86 100
M  END
> <chiral flag>
0

> <version>
0

> <s_m_source_file>
/data/baiqing/PycharmProjects/Reinvent-master-3.2/result/LINK_invent/BTK/process_docking_weight1_custom_sum_contain_oxygen_bond_distance_aromatic_linkinvent_7_9_3/rearranged_h_0153.sdf

> <i_m_source_file_index>
50

> <r_mmod_Potential_Energy-OPLS-2005>
494.797546386719

> <r_mmod_Stretch_Energy-OPLS-2005>
139.522827148438

> <r_mmod_Bend_Energy-OPLS-2005>
306.816497802734

> <r_mmod_Torsional_Energy-OPLS-2005>
338.766510009766

> <r_mmod_Improper_Torsional_Energy-OPLS-2005>
5.10129547119141

> <r_mmod_Van_der_Waal_Energy-OPLS-2005>
162.862152099609

> <r_mmod_Electrostatic_Energy-OPLS-2005>
-312.532897949219

> <r_mmod_Solvation_Energy-OPLS-2005>
-204.85774230957

> <b_mmod_Minimization_Converged-OPLS-2005>
0

> <r_mmod_RMS_Derivative-OPLS-2005>
15.0799922943115

$$$$
50
                    3D
 Structure written by MMmdl.
187197  0  0  1  0            999 V2000
  -30.6818  -14.4331   20.5411 C   0  0  0  0  0  0
  -30.4219  -12.2762   19.4009 C   0  0  0  0  0  0
  -29.4870  -12.4870   18.1896 C   0  0  0  0  0  0
  -28.0078  -12.3493   18.6038 C   0  0  0  0  0  0
  -27.6566  -13.1918   19.8591 C   0  0  2  0  0  0
  -28.6987  -12.9681   20.9806 C   0  0  0  0  0  0
  -25.2573  -13.8148   20.5658 C   0  0  0  0  0  0
  -24.1829  -13.0461   20.9156 C   0  0  0  0  0  0
  -24.6345  -11.6906   20.8728 C   0  0  0  0  0  0
  -23.9034  -10.4282   21.0412 C   0  0  0  0  0  0
  -24.3596   -9.4210   21.9204 C   0  0  0  0  0  0
  -23.6287   -8.2230   22.0776 C   0  0  0  0  0  0
  -22.4263   -8.0248   21.3573 C   0  0  0  0  0  0
  -21.9877   -9.0215   20.4686 C   0  0  0  0  0  0
  -22.7191  -10.2103   20.3096 C   0  0  0  0  0  0
  -21.6826   -6.0695   22.5286 C   0  0  0  0  0  0
  -21.3993   -6.5610   23.8224 C   0  0  0  0  0  0
  -21.3683   -5.6791   24.9208 C   0  0  0  0  0  0
  -21.6064   -4.3046   24.7246 C   0  0  0  0  0  0
  -21.8820   -3.8121   23.4357 C   0  0  0  0  0  0
  -21.9186   -4.6932   22.3414 C   0  0  0  0  0  0
  -22.7856  -13.5284   21.1822 C   0  0  0  0  0  0
  -22.1665   -4.2140   21.0981 F   0  0  0  0  0  0
  -21.5668   -3.4525   25.7744 F   0  0  0  0  0  0
  -30.0322  -13.2488   20.4261 N   0  0  0  0  0  0
  -26.2976  -12.9284   20.3276 N   0  0  0  0  0  0
  -25.9252  -11.6466   20.5682 N   0  0  0  0  0  0
  -22.0454  -12.8328   22.0380 N   0  0  0  0  0  0
  -25.4416  -15.1865   20.4155 N   0  0  0  0  0  0
  -31.8528  -14.6138   20.1955 O   0  0  0  0  0  0
  -21.6652   -6.8826   21.4245 O   0  0  0  0  0  0
  -22.3583  -14.5571   20.6597 O   0  0  0  0  0  0
  -24.6102  -31.8672   23.2094 C   0  0  0  0  0  0
  -25.9020  -32.4813   23.8383 C   0  0  1  0  0  0
  -27.2672  -27.4965   20.0803 C   0  0  0  0  0  0
  -25.5898  -33.8611   24.2315 N   0  0  0  0  0  0
  -23.3979  -30.4863   21.5471 C   0  0  2  0  0  0
  -24.8505  -28.9535   20.1172 C   0  0  0  0  0  0
  -22.7373  -29.4667   22.5006 C   0  0  0  0  0  0
  -18.0263  -28.1372   22.8482 C   0  0  0  0  0  0
  -24.1492  -36.7347   23.2628 C   0  0  0  0  0  0
  -25.9169  -30.8554   21.3500 C   0  0  0  0  0  0
  -26.0022  -29.4914   20.7038 C   0  0  0  0  0  0
  -27.2097  -28.7688   20.6925 C   0  0  0  0  0  0
  -26.0963  -26.9560   19.5124 C   0  0  0  0  0  0
  -24.8879  -27.6800   19.5225 C   0  0  0  0  0  0
  -23.6032  -29.8018   20.1672 C   0  0  0  0  0  0
  -25.4099  -36.3102   24.0323 C   0  0  1  0  0  0
  -20.5850  -28.3659   23.1314 C   0  0  2  0  0  0
  -20.6757  -26.9402   22.5398 C   0  0  0  0  0  0
  -19.5746  -26.6385   21.5184 C   0  0  0  0  0  0
  -18.1919  -26.7923   22.1596 C   0  0  0  0  0  0
  -19.1515  -28.8831   23.2894 C   0  0  0  0  0  0
  -18.9453  -30.1448   23.8900 C   0  0  0  0  0  0
  -17.6466  -30.6585   24.0562 C   0  0  0  0  0  0
  -25.9027  -34.9467   23.5110 C   0  0  0  0  0  0
  -16.5357  -29.9087   23.6339 C   0  0  0  0  0  0
  -16.7261  -28.6503   23.0352 C   0  0  0  0  0  0
  -26.4472  -31.6584   25.0693 C   0  0  0  0  0  0
  -25.3786  -31.3673   26.1466 C   0  0  0  0  0  0
  -27.0284  -30.3036   24.6033 C   0  0  0  0  0  0
  -27.6037  -32.4286   25.7476 C   0  0  0  0  0  0
  -27.5589  -37.1793   24.8441 C   0  0  0  0  0  0
  -21.4109  -29.3024   22.3713 N   0  0  0  0  0  0
  -26.4274  -37.3794   23.9427 N   0  0  0  0  0  0
  -24.6600  -31.0820   22.0962 N   0  0  0  0  0  0
  -23.4132  -28.8235   23.3069 O   0  0  0  0  0  0
  -28.4010  -26.7202   20.0355 O   0  0  0  0  0  0
  -26.5584  -34.8918   22.4665 O   0  0  0  0  0  0
  -23.5306  -32.1390   23.7523 O   0  0  0  0  0  0
  -31.1090  -23.3340   18.5443 C   0  0  0  0  0  0
  -30.7362  -24.6885   18.5327 C   0  0  0  0  0  0
  -33.0254  -25.2992   18.0151 C   0  0  0  0  0  0
  -32.4328  -22.9326   18.2630 C   0  0  0  0  0  0
  -33.4014  -23.9366   17.9875 C   0  0  0  0  0  0
  -32.2448  -20.6324   19.4113 C   0  0  0  0  0  0
  -32.9644  -20.6540   20.6410 C   0  0  0  0  0  0
  -31.0322  -19.8865   19.3584 C   0  0  0  0  0  0
  -31.6975  -25.6923   18.2697 C   0  0  0  0  0  0
  -32.4191  -19.9761   21.7622 C   0  0  0  0  0  0
  -30.5469  -19.3248   20.5578 C   0  0  0  0  0  0
  -29.8135  -16.5245   19.6450 C   0  0  0  0  0  0
  -29.8509  -16.4987   21.7047 C   0  0  0  0  0  0
  -29.0698  -17.3365   20.6899 C   0  0  0  0  0  0
  -34.8366  -23.5997   17.6226 C   0  0  0  0  0  0
  -34.2832  -21.4137   20.7716 C   0  0  0  0  0  0
  -30.2540  -19.6881   18.0513 C   0  0  0  0  0  0
  -33.5799  -18.3686   23.3358 C   0  0  0  0  0  0
  -32.3217  -20.3646   24.2985 C   0  0  0  0  0  0
  -32.7332  -21.4302   18.1858 C   0  0  0  0  0  0
  -29.6778  -27.3516   19.9346 C   0  0  0  0  0  0
  -30.0896  -27.4976   18.4546 C   0  0  0  0  0  0
  -33.1410  -19.8267   23.1123 C   0  0  0  0  0  0
  -31.2246  -19.3583   21.7090 N   0  0  0  0  0  0
  -29.8300  -15.4628   20.6585 N   0  0  0  0  0  0
  -29.2629  -18.7832   20.6311 N   0  0  0  0  0  0
  -31.4267  -27.0466   18.2334 O   0  0  0  0  0  0
  -31.4640  -12.3838   19.0974 H   0  0  0  0  0  0
  -30.3262  -11.2637   19.7935 H   0  0  0  0  0  0
  -29.7220  -11.7682   17.4033 H   0  0  0  0  0  0
  -29.6527  -13.4764   17.7581 H   0  0  0  0  0  0
  -27.8150  -11.2927   18.8056 H   0  0  0  0  0  0
  -27.3553  -12.6257   17.7723 H   0  0  0  0  0  0
  -27.6987  -14.2368   19.5517 H   0  0  0  0  0  0
  -28.6611  -11.9397   21.3396 H   0  0  0  0  0  0
  -28.4719  -13.5977   21.8410 H   0  0  0  0  0  0
  -25.2723   -9.5721   22.4813 H   0  0  0  0  0  0
  -24.0020   -7.4612   22.7452 H   0  0  0  0  0  0
  -21.0837   -8.8683   19.8962 H   0  0  0  0  0  0
  -22.3609  -10.9631   19.6229 H   0  0  0  0  0  0
  -21.1939   -7.6118   23.9699 H   0  0  0  0  0  0
  -21.1544   -6.0541   25.9120 H   0  0  0  0  0  0
  -22.0555   -2.7574   23.2853 H   0  0  0  0  0  0
  -22.3969  -12.0029   22.4918 H   0  0  0  0  0  0
  -21.1039  -13.1355   22.2409 H   0  0  0  0  0  0
  -24.7038  -15.8669   20.5657 H   0  0  0  0  0  0
  -26.3305  -15.6017   20.1721 H   0  0  0  0  0  0
  -26.7103  -32.5554   23.1166 H   0  0  0  0  0  0
  -25.0070  -33.9776   25.0475 H   0  0  0  0  0  0
  -22.6883  -31.3033   21.3971 H   0  0  0  0  0  0
  -23.3730  -35.9701   23.3210 H   0  0  0  0  0  0
  -24.3617  -36.9043   22.2067 H   0  0  0  0  0  0
  -23.7259  -37.6528   23.6698 H   0  0  0  0  0  0
  -26.0079  -31.6178   20.5743 H   0  0  0  0  0  0
  -26.8114  -30.9234   21.9587 H   0  0  0  0  0  0
  -28.0740  -29.2040   21.1704 H   0  0  0  0  0  0
  -26.1290  -25.9773   19.0557 H   0  0  0  0  0  0
  -24.0027  -27.2491   19.0760 H   0  0  0  0  0  0
  -23.6913  -30.5612   19.3900 H   0  0  0  0  0  0
  -22.7385  -29.1967   19.8882 H   0  0  0  0  0  0
  -25.1263  -36.1937   25.0810 H   0  0  0  0  0  0
  -20.9948  -28.3225   24.1435 H   0  0  0  0  0  0
  -20.5658  -26.2275   23.3583 H   0  0  0  0  0  0
  -21.6633  -26.7435   22.1209 H   0  0  0  0  0  0
  -19.6911  -25.6288   21.1228 H   0  0  0  0  0  0
  -19.6699  -27.3197   20.6713 H   0  0  0  0  0  0
  -17.4190  -26.6679   21.3990 H   0  0  0  0  0  0
  -18.0323  -26.0055   22.8986 H   0  0  0  0  0  0
  -19.7937  -30.7258   24.2260 H   0  0  0  0  0  0
  -17.5026  -31.6269   24.5157 H   0  0  0  0  0  0
  -15.5365  -30.2998   23.7663 H   0  0  0  0  0  0
  -15.8656  -28.0841   22.7058 H   0  0  0  0  0  0
  -24.5953  -30.7010   25.7824 H   0  0  0  0  0  0
  -24.9008  -32.2832   26.4958 H   0  0  0  0  0  0
  -25.8209  -30.8829   27.0183 H   0  0  0  0  0  0
  -26.2792  -29.6783   24.1162 H   0  0  0  0  0  0
  -27.4126  -29.7282   25.4463 H   0  0  0  0  0  0
  -27.8594  -30.4333   23.9095 H   0  0  0  0  0  0
  -27.2645  -33.3570   26.2083 H   0  0  0  0  0  0
  -28.3877  -32.6856   25.0341 H   0  0  0  0  0  0
  -28.0669  -31.8380   26.5388 H   0  0  0  0  0  0
  -28.2510  -38.0181   24.7568 H   0  0  0  0  0  0
  -28.1168  -36.2699   24.6127 H   0  0  0  0  0  0
  -27.2327  -37.1289   25.8845 H   0  0  0  0  0  0
  -20.9289  -29.8714   21.6897 H   0  0  0  0  0  0
  -26.0134  -38.2841   24.1492 H   0  0  0  0  0  0
  -30.3504  -22.5928   18.7493 H   0  0  0  0  0  0
  -29.7016  -24.9249   18.7316 H   0  0  0  0  0  0
  -33.7599  -26.0658   17.8112 H   0  0  0  0  0  0
  -30.8104  -16.8874   19.3773 H   0  0  0  0  0  0
  -29.2277  -16.3052   18.7513 H   0  0  0  0  0  0
  -29.2813  -16.2669   22.6081 H   0  0  0  0  0  0
  -30.8529  -16.8464   21.9546 H   0  0  0  0  0  0
  -28.0048  -17.0917   20.6965 H   0  0  0  0  0  0
  -35.4074  -24.5005   17.4013 H   0  0  0  0  0  0
  -34.8736  -22.9660   16.7377 H   0  0  0  0  0  0
  -35.3486  -23.0968   18.4377 H   0  0  0  0  0  0
  -34.7719  -21.5824   19.8202 H   0  0  0  0  0  0
  -35.0203  -20.8630   21.3540 H   0  0  0  0  0  0
  -34.1176  -22.3855   21.2409 H   0  0  0  0  0  0
  -29.6531  -20.5638   17.8133 H   0  0  0  0  0  0
  -29.5786  -18.8314   18.0917 H   0  0  0  0  0  0
  -30.9138  -19.4661   17.2094 H   0  0  0  0  0  0
  -34.1943  -18.0189   22.5062 H   0  0  0  0  0  0
  -32.7179  -17.7061   23.4119 H   0  0  0  0  0  0
  -34.1607  -18.2534   24.2488 H   0  0  0  0  0  0
  -32.1052  -21.4249   24.1685 H   0  0  0  0  0  0
  -32.8657  -20.2540   25.2363 H   0  0  0  0  0  0
  -31.3724  -19.8377   24.4021 H   0  0  0  0  0  0
  -33.7823  -21.2151   17.9941 H   0  0  0  0  0  0
  -32.2463  -21.0973   17.2703 H   0  0  0  0  0  0
  -29.7889  -28.2915   20.4700 H   0  0  0  0  0  0
  -30.3718  -26.6775   20.4356 H   0  0  0  0  0  0
  -30.0343  -28.5475   18.1641 H   0  0  0  0  0  0
  -29.4052  -26.9736   17.7836 H   0  0  0  0  0  0
  -34.0514  -20.4200   23.1304 H   0  0  0  0  0  0
  -28.6744  -19.1719   19.9054 H   0  0  0  0  0  0
  1 25  1  0  0  0
  1 30  2  0  0  0
  1 95  1  0  0  0
  2  3  1  0  0  0
  2 25  1  0  0  0
  2 98  1  0  0  0
  2 99  1  0  0  0
  3  4  1  0  0  0
  3100  1  0  0  0
  3101  1  0  0  0
  4  5  1  0  0  0
  4102  1  0  0  0
  4103  1  0  0  0
  5  6  1  0  0  0
  5 26  1  0  0  0
  5104  1  0  0  0
  6 25  1  0  0  0
  6105  1  0  0  0
  6106  1  0  0  0
  7  8  2  0  0  0
  7 26  1  0  0  0
  7 29  1  0  0  0
  8  9  1  0  0  0
  8 22  1  0  0  0
  9 10  1  0  0  0
  9 27  2  0  0  0
 10 11  2  0  0  0
 10 15  1  0  0  0
 11 12  1  0  0  0
 11107  1  0  0  0
 12 13  2  0  0  0
 12108  1  0  0  0
 13 14  1  0  0  0
 13 31  1  0  0  0
 14 15  2  0  0  0
 14109  1  0  0  0
 15110  1  0  0  0
 16 17  2  0  0  0
 16 21  1  0  0  0
 16 31  1  0  0  0
 17 18  1  0  0  0
 17111  1  0  0  0
 18 19  2  0  0  0
 18112  1  0  0  0
 19 20  1  0  0  0
 19 24  1  0  0  0
 20 21  2  0  0  0
 20113  1  0  0  0
 21 23  1  0  0  0
 22 28  1  0  0  0
 22 32  2  0  0  0
 26 27  1  0  0  0
 28114  1  0  0  0
 28115  1  0  0  0
 29116  1  0  0  0
 29117  1  0  0  0
 33 34  1  0  0  0
 33 66  1  0  0  0
 33 70  2  0  0  0
 34 36  1  0  0  0
 34 59  1  0  0  0
 34118  1  0  0  0
 35 44  2  0  0  0
 35 45  1  0  0  0
 35 68  1  0  0  0
 36 56  1  0  0  0
 36119  1  0  0  0
 37 39  1  0  0  0
 37 47  1  0  0  0
 37 66  1  0  0  0
 37120  1  0  0  0
 38 43  2  0  0  0
 38 46  1  0  0  0
 38 47  1  0  0  0
 39 64  1  0  0  0
 39 67  2  0  0  0
 40 52  1  0  0  0
 40 53  2  0  0  0
 40 58  1  0  0  0
 41121  1  0  0  0
 41122  1  0  0  0
 41123  1  0  0  0
 41 48  1  0  0  0
 42 43  1  0  0  0
 42 66  1  0  0  0
 42124  1  0  0  0
 42125  1  0  0  0
 43 44  1  0  0  0
 44126  1  0  0  0
 45 46  2  0  0  0
 45127  1  0  0  0
 46128  1  0  0  0
 47129  1  0  0  0
 47130  1  0  0  0
 48 56  1  0  0  0
 48 65  1  0  0  0
 48131  1  0  0  0
 49 50  1  0  0  0
 49 53  1  0  0  0
 49 64  1  0  0  0
 49132  1  0  0  0
 50 51  1  0  0  0
 50133  1  0  0  0
 50134  1  0  0  0
 51 52  1  0  0  0
 51135  1  0  0  0
 51136  1  0  0  0
 52137  1  0  0  0
 52138  1  0  0  0
 53 54  1  0  0  0
 54 55  2  0  0  0
 54139  1  0  0  0
 55 57  1  0  0  0
 55140  1  0  0  0
 56 69  2  0  0  0
 57 58  2  0  0  0
 57141  1  0  0  0
 58142  1  0  0  0
 59 60  1  0  0  0
 59 61  1  0  0  0
 59 62  1  0  0  0
 60143  1  0  0  0
 60144  1  0  0  0
 60145  1  0  0  0
 61146  1  0  0  0
 61147  1  0  0  0
 61148  1  0  0  0
 62149  1  0  0  0
 62150  1  0  0  0
 62151  1  0  0  0
 63 65  1  0  0  0
 63152  1  0  0  0
 63153  1  0  0  0
 63154  1  0  0  0
 64155  1  0  0  0
 65156  1  0  0  0
 68 91  1  0  0  0
 71 72  2  0  0  0
 71 74  1  0  0  0
 71157  1  0  0  0
 72 79  1  0  0  0
 72158  1  0  0  0
 73 75  1  0  0  0
 73 79  2  0  0  0
 73159  1  0  0  0
 74 75  2  0  0  0
 74 90  1  0  0  0
 75 85  1  0  0  0
 76 77  2  0  0  0
 76 78  1  0  0  0
 76 90  1  0  0  0
 77 80  1  0  0  0
 77 86  1  0  0  0
 78 81  2  0  0  0
 78 87  1  0  0  0
 79 97  1  0  0  0
 80 93  1  0  0  0
 80 94  2  0  0  0
 81 94  1  0  0  0
 81 96  1  0  0  0
 82 84  1  0  0  0
 82 95  1  0  0  0
 82160  1  0  0  0
 82161  1  0  0  0
 83 84  1  0  0  0
 83 95  1  0  0  0
 83162  1  0  0  0
 83163  1  0  0  0
 84 96  1  0  0  0
 84164  1  0  0  0
 85165  1  0  0  0
 85166  1  0  0  0
 85167  1  0  0  0
 86168  1  0  0  0
 86169  1  0  0  0
 86170  1  0  0  0
 87171  1  0  0  0
 87172  1  0  0  0
 87173  1  0  0  0
 88174  1  0  0  0
 88175  1  0  0  0
 88176  1  0  0  0
 88 93  1  0  0  0
 89 93  1  0  0  0
 89177  1  0  0  0
 89178  1  0  0  0
 89179  1  0  0  0
 90180  1  0  0  0
 90181  1  0  0  0
 91 92  1  0  0  0
 91182  1  0  0  0
 91183  1  0  0  0
 92 97  1  0  0  0
 92184  1  0  0  0
 92185  1  0  0  0
 93186  1  0  0  0
 96187  1  0  0  0
M  ISO  4   1 100  68 101  91 101  95 100
M  END
> <chiral flag>
0

> <version>
0

> <s_m_source_file>
/data/baiqing/PycharmProjects/Reinvent-master-3.2/result/LINK_invent/BTK/process_docking_weight1_custom_sum_contain_oxygen_bond_distance_aromatic_linkinvent_7_9_3/rearranged_h_0153.sdf

> <i_m_source_file_index>
51

> <r_mmod_Potential_Energy-OPLS-2005>
-154.262054443359

> <r_mmod_Stretch_Energy-OPLS-2005>
41.938533782959

> <r_mmod_Bend_Energy-OPLS-2005>
145.886199951172

> <r_mmod_Torsional_Energy-OPLS-2005>
270.118560791016

> <r_mmod_Improper_Torsional_Energy-OPLS-2005>
24.0713710784912

> <r_mmod_Van_der_Waal_Energy-OPLS-2005>
195.992156982422

> <r_mmod_Electrostatic_Energy-OPLS-2005>
-608.765869140625

> <r_mmod_Solvation_Energy-OPLS-2005>
-235.453536987305

> <b_mmod_Minimization_Converged-OPLS-2005>
0

> <r_mmod_RMS_Derivative-OPLS-2005>
4.56499099731445

$$$$
51
                    3D
 Structure written by MMmdl.
178188  0  0  1  0            999 V2000
  -30.7298  -14.4327   20.6224 C   0  0  0  0  0  0
  -30.4125  -12.3053   19.4091 C   0  0  0  0  0  0
  -29.4851  -12.5290   18.1978 C   0  0  0  0  0  0
  -28.0104  -12.3762   18.6118 C   0  0  0  0  0  0
  -27.6582  -13.2059   19.8756 C   0  0  2  0  0  0
  -28.6972  -12.9764   20.9947 C   0  0  0  0  0  0
  -25.2555  -13.8150   20.5652 C   0  0  0  0  0  0
  -24.1814  -13.0429   20.9161 C   0  0  0  0  0  0
  -24.6370  -11.6902   20.8707 C   0  0  0  0  0  0
  -23.9047  -10.4291   21.0383 C   0  0  0  0  0  0
  -24.3621   -9.4220   21.9161 C   0  0  0  0  0  0
  -23.6311   -8.2249   22.0753 C   0  0  0  0  0  0
  -22.4279   -8.0285   21.3560 C   0  0  0  0  0  0
  -21.9904   -9.0242   20.4646 C   0  0  0  0  0  0
  -22.7221  -10.2127   20.3042 C   0  0  0  0  0  0
  -21.6860   -6.0727   22.5269 C   0  0  0  0  0  0
  -21.4010   -6.5629   23.8203 C   0  0  0  0  0  0
  -21.3669   -5.6786   24.9169 C   0  0  0  0  0  0
  -21.6056   -4.3047   24.7224 C   0  0  0  0  0  0
  -21.8820   -3.8136   23.4344 C   0  0  0  0  0  0
  -21.9193   -4.6950   22.3402 C   0  0  0  0  0  0
  -22.7839  -13.5225   21.1845 C   0  0  0  0  0  0
  -22.1663   -4.2133   21.0978 F   0  0  0  0  0  0
  -21.5647   -3.4536   25.7742 F   0  0  0  0  0  0
  -30.0331  -13.2755   20.4495 N   0  0  0  0  0  0
  -26.2998  -12.9329   20.3359 N   0  0  0  0  0  0
  -25.9292  -11.6488   20.5746 N   0  0  0  0  0  0
  -22.0480  -12.8222   22.0405 N   0  0  0  0  0  0
  -25.4227  -15.1867   20.4041 N   0  0  0  0  0  0
  -31.8101  -14.6466   20.0594 O   0  0  0  0  0  0
  -21.6661   -6.8874   21.4236 O   0  0  0  0  0  0
  -22.3523  -14.5531   20.6694 O   0  0  0  0  0  0
  -24.6110  -31.8682   23.2131 C   0  0  0  0  0  0
  -25.9011  -32.4829   23.8420 C   0  0  1  0  0  0
  -27.2419  -27.4632   20.0983 C   0  0  0  0  0  0
  -25.5876  -33.8630   24.2353 N   0  0  0  0  0  0
  -23.3999  -30.4895   21.5506 C   0  0  2  0  0  0
  -24.8517  -28.9594   20.1142 C   0  0  0  0  0  0
  -22.7403  -29.4633   22.4991 C   0  0  0  0  0  0
  -18.0267  -28.1362   22.8491 C   0  0  0  0  0  0
  -24.1479  -36.7321   23.2641 C   0  0  0  0  0  0
  -25.9258  -30.8412   21.3645 C   0  0  0  0  0  0
  -26.0065  -29.4763   20.7168 C   0  0  0  0  0  0
  -27.2049  -28.7316   20.7166 C   0  0  0  0  0  0
  -26.0800  -26.9586   19.4824 C   0  0  0  0  0  0
  -24.8803  -27.6964   19.4962 C   0  0  0  0  0  0
  -23.6098  -29.8206   20.1645 C   0  0  0  0  0  0
  -25.4097  -36.3126   24.0348 C   0  0  1  0  0  0
  -20.5853  -28.3633   23.1329 C   0  0  2  0  0  0
  -20.6755  -26.9372   22.5419 C   0  0  0  0  0  0
  -19.5731  -26.6366   21.5213 C   0  0  0  0  0  0
  -18.1909  -26.7917   22.1623 C   0  0  0  0  0  0
  -19.1514  -28.8821   23.2904 C   0  0  0  0  0  0
  -18.9447  -30.1438   23.8897 C   0  0  0  0  0  0
  -17.6446  -30.6576   24.0564 C   0  0  0  0  0  0
  -25.9015  -34.9481   23.5138 C   0  0  0  0  0  0
  -16.5338  -29.9072   23.6332 C   0  0  0  0  0  0
  -16.7252  -28.6492   23.0346 C   0  0  0  0  0  0
  -26.4466  -31.6596   25.0727 C   0  0  0  0  0  0
  -25.3755  -31.3682   26.1490 C   0  0  0  0  0  0
  -27.0287  -30.3039   24.6076 C   0  0  0  0  0  0
  -27.6048  -32.4308   25.7488 C   0  0  0  0  0  0
  -27.5583  -37.1814   24.8469 C   0  0  0  0  0  0
  -21.4134  -29.3003   22.3742 N   0  0  0  0  0  0
  -26.4293  -37.3803   23.9411 N   0  0  0  0  0  0
  -24.6638  -31.0788   22.1026 N   0  0  0  0  0  0
  -23.4195  -28.8173   23.3019 O   0  0  0  0  0  0
  -28.3795  -26.6936   20.0654 O   0  0  0  0  0  0
  -26.5580  -34.8928   22.4706 O   0  0  0  0  0  0
  -23.5305  -32.1419   23.7526 O   0  0  0  0  0  0
  -29.0460  -20.8116   23.1769 C   0  0  0  0  0  0
  -28.1106  -21.4652   20.7005 C   0  0  0  0  0  0
  -28.2207  -22.5101   21.6426 C   0  0  0  0  0  0
  -28.7302  -22.1700   22.9250 C   0  0  0  0  0  0
  -28.8321  -19.8412   22.1825 C   0  0  0  0  0  0
  -27.9403  -17.6389   24.6596 C   0  0  0  0  0  0
  -26.8479  -18.4201   23.9666 C   0  0  0  0  0  0
  -30.9069  -16.9454   23.0170 C   0  0  0  0  0  0
  -30.4319  -15.5103   22.7645 C   0  0  0  0  0  0
  -27.9325  -17.7446   23.1510 C   0  0  0  0  0  0
  -30.2058  -17.7888   21.9555 C   0  0  1  0  0  0
  -29.9875  -16.7825   20.7946 C   0  0  2  0  0  0
  -28.7388  -16.9688   19.9093 C   0  0  0  0  0  0
  -29.5458  -24.1235   25.9490 C   0  0  0  0  0  0
  -27.6819  -23.8857   21.1801 C   0  0  0  0  0  0
  -27.8897  -25.2022   21.9849 C   0  0  0  0  0  0
  -29.4604  -22.8280   25.1387 C   0  0  0  0  0  0
  -28.8462  -26.2312   21.3366 C   0  0  0  0  0  0
  -28.3991  -20.1726   20.9535 N   0  0  0  0  0  0
  -30.1152  -15.4081   21.3358 N   0  0  0  0  0  0
  -29.0076  -18.4730   22.4696 N   0  0  0  0  0  0
  -28.8745  -23.1462   23.8833 O   0  0  0  0  0  0
  -31.4575  -12.3973   19.1080 H   0  0  0  0  0  0
  -30.3059  -11.2879   19.7903 H   0  0  0  0  0  0
  -29.7228  -11.8237   17.4007 H   0  0  0  0  0  0
  -29.6475  -13.5258   17.7836 H   0  0  0  0  0  0
  -27.8222  -11.3173   18.7967 H   0  0  0  0  0  0
  -27.3611  -12.6579   17.7830 H   0  0  0  0  0  0
  -27.7030  -14.2546   19.5894 H   0  0  0  0  0  0
  -28.6626  -11.9400   21.3326 H   0  0  0  0  0  0
  -28.4505  -13.5748   21.8718 H   0  0  0  0  0  0
  -25.2767   -9.5712   22.4725 H   0  0  0  0  0  0
  -24.0033   -7.4648   22.7473 H   0  0  0  0  0  0
  -21.0833   -8.8749   19.8956 H   0  0  0  0  0  0
  -22.3671  -10.9664   19.6156 H   0  0  0  0  0  0
  -21.1989   -7.6132   23.9715 H   0  0  0  0  0  0
  -21.1501   -6.0504   25.9081 H   0  0  0  0  0  0
  -22.0593   -2.7592   23.2840 H   0  0  0  0  0  0
  -22.4096  -11.9895   22.4811 H   0  0  0  0  0  0
  -21.1096  -13.1239   22.2606 H   0  0  0  0  0  0
  -24.6509  -15.8371   20.5029 H   0  0  0  0  0  0
  -26.2782  -15.6288   20.0941 H   0  0  0  0  0  0
  -26.7090  -32.5539   23.1195 H   0  0  0  0  0  0
  -25.0072  -33.9817   25.0527 H   0  0  0  0  0  0
  -22.6859  -31.3032   21.4097 H   0  0  0  0  0  0
  -23.3741  -35.9656   23.3327 H   0  0  0  0  0  0
  -24.3587  -36.8901   22.2054 H   0  0  0  0  0  0
  -23.7224  -37.6535   23.6627 H   0  0  0  0  0  0
  -26.0346  -31.6049   20.5931 H   0  0  0  0  0  0
  -26.8173  -30.8999   21.9775 H   0  0  0  0  0  0
  -28.0958  -29.1305   21.1813 H   0  0  0  0  0  0
  -26.1053  -25.9899   19.0047 H   0  0  0  0  0  0
  -23.9950  -27.2917   19.0239 H   0  0  0  0  0  0
  -23.7168  -30.5949   19.4035 H   0  0  0  0  0  0
  -22.7371  -29.2351   19.8688 H   0  0  0  0  0  0
  -25.1275  -36.2021   25.0846 H   0  0  0  0  0  0
  -20.9942  -28.3191   24.1448 H   0  0  0  0  0  0
  -20.5644  -26.2237   23.3596 H   0  0  0  0  0  0
  -21.6627  -26.7406   22.1210 H   0  0  0  0  0  0
  -19.6875  -25.6279   21.1223 H   0  0  0  0  0  0
  -19.6674  -27.3207   20.6765 H   0  0  0  0  0  0
  -17.4180  -26.6671   21.4022 H   0  0  0  0  0  0
  -18.0297  -26.0063   22.9017 H   0  0  0  0  0  0
  -19.7922  -30.7260   24.2250 H   0  0  0  0  0  0
  -17.4997  -31.6254   24.5168 H   0  0  0  0  0  0
  -15.5337  -30.2965   23.7658 H   0  0  0  0  0  0
  -15.8654  -28.0810   22.7048 H   0  0  0  0  0  0
  -24.5924  -30.7030   25.7844 H   0  0  0  0  0  0
  -24.8954  -32.2829   26.4977 H   0  0  0  0  0  0
  -25.8136  -30.8837   27.0224 H   0  0  0  0  0  0
  -26.2821  -29.6803   24.1141 H   0  0  0  0  0  0
  -27.4092  -29.7269   25.4518 H   0  0  0  0  0  0
  -27.8644  -30.4381   23.9200 H   0  0  0  0  0  0
  -27.2679  -33.3595   26.2116 H   0  0  0  0  0  0
  -28.3840  -32.6890   25.0301 H   0  0  0  0  0  0
  -28.0739  -31.8394   26.5365 H   0  0  0  0  0  0
  -28.2617  -38.0102   24.7521 H   0  0  0  0  0  0
  -28.1063  -36.2632   24.6288 H   0  0  0  0  0  0
  -27.2304  -37.1470   25.8876 H   0  0  0  0  0  0
  -20.9276  -29.8754   21.7000 H   0  0  0  0  0  0
  -26.0189  -38.2886   24.1411 H   0  0  0  0  0  0
  -29.4037  -20.4811   24.1403 H   0  0  0  0  0  0
  -27.7295  -21.6663   19.7105 H   0  0  0  0  0  0
  -27.6659  -16.6813   25.0986 H   0  0  0  0  0  0
  -28.6821  -18.2089   25.2160 H   0  0  0  0  0  0
  -26.8571  -19.4984   24.1052 H   0  0  0  0  0  0
  -25.8569  -17.9694   23.9308 H   0  0  0  0  0  0
  -31.9844  -16.9933   22.8503 H   0  0  0  0  0  0
  -30.7339  -17.2828   24.0392 H   0  0  0  0  0  0
  -29.5245  -15.3088   23.3335 H   0  0  0  0  0  0
  -31.1806  -14.7853   23.0936 H   0  0  0  0  0  0
  -27.6524  -16.8481   22.6053 H   0  0  0  0  0  0
  -30.8926  -18.5697   21.6206 H   0  0  0  0  0  0
  -30.8370  -16.9493   20.1282 H   0  0  0  0  0  0
  -28.7355  -16.2720   19.0717 H   0  0  0  0  0  0
  -28.7116  -17.9696   19.4796 H   0  0  0  0  0  0
  -27.8136  -16.8210   20.4614 H   0  0  0  0  0  0
  -29.9703  -23.9396   26.9358 H   0  0  0  0  0  0
  -28.5595  -24.5697   26.0823 H   0  0  0  0  0  0
  -30.1776  -24.8552   25.4451 H   0  0  0  0  0  0
  -26.6033  -23.7464   21.0952 H   0  0  0  0  0  0
  -28.0107  -24.0469   20.1518 H   0  0  0  0  0  0
  -28.1662  -25.0645   23.0201 H   0  0  0  0  0  0
  -26.9139  -25.6812   22.0707 H   0  0  0  0  0  0
  -28.8538  -22.0966   25.6755 H   0  0  0  0  0  0
  -30.4611  -22.4134   25.0038 H   0  0  0  0  0  0
  -29.8295  -25.7801   21.2016 H   0  0  0  0  0  0
  -28.9952  -27.0750   22.0117 H   0  0  0  0  0  0
  1 25  1  0  0  0
  1 30  2  0  0  0
  1 90  1  0  0  0
  2  3  1  0  0  0
  2 25  1  0  0  0
  2 93  1  0  0  0
  2 94  1  0  0  0
  3  4  1  0  0  0
  3 95  1  0  0  0
  3 96  1  0  0  0
  4  5  1  0  0  0
  4 97  1  0  0  0
  4 98  1  0  0  0
  5  6  1  0  0  0
  5 26  1  0  0  0
  5 99  1  0  0  0
  6 25  1  0  0  0
  6100  1  0  0  0
  6101  1  0  0  0
  7  8  2  0  0  0
  7 26  1  0  0  0
  7 29  1  0  0  0
  8  9  1  0  0  0
  8 22  1  0  0  0
  9 10  1  0  0  0
  9 27  2  0  0  0
 10 11  2  0  0  0
 10 15  1  0  0  0
 11 12  1  0  0  0
 11102  1  0  0  0
 12 13  2  0  0  0
 12103  1  0  0  0
 13 14  1  0  0  0
 13 31  1  0  0  0
 14 15  2  0  0  0
 14104  1  0  0  0
 15105  1  0  0  0
 16 17  2  0  0  0
 16 21  1  0  0  0
 16 31  1  0  0  0
 17 18  1  0  0  0
 17106  1  0  0  0
 18 19  2  0  0  0
 18107  1  0  0  0
 19 20  1  0  0  0
 19 24  1  0  0  0
 20 21  2  0  0  0
 20108  1  0  0  0
 21 23  1  0  0  0
 22 28  1  0  0  0
 22 32  2  0  0  0
 26 27  1  0  0  0
 28109  1  0  0  0
 28110  1  0  0  0
 29111  1  0  0  0
 29112  1  0  0  0
 33 34  1  0  0  0
 33 66  1  0  0  0
 33 70  2  0  0  0
 34 36  1  0  0  0
 34 59  1  0  0  0
 34113  1  0  0  0
 35 44  2  0  0  0
 35 45  1  0  0  0
 35 68  1  0  0  0
 36 56  1  0  0  0
 36114  1  0  0  0
 37 39  1  0  0  0
 37 47  1  0  0  0
 37 66  1  0  0  0
 37115  1  0  0  0
 38 43  2  0  0  0
 38 46  1  0  0  0
 38 47  1  0  0  0
 39 64  1  0  0  0
 39 67  2  0  0  0
 40 52  1  0  0  0
 40 53  2  0  0  0
 40 58  1  0  0  0
 41116  1  0  0  0
 41117  1  0  0  0
 41118  1  0  0  0
 41 48  1  0  0  0
 42 43  1  0  0  0
 42 66  1  0  0  0
 42119  1  0  0  0
 42120  1  0  0  0
 43 44  1  0  0  0
 44121  1  0  0  0
 45 46  2  0  0  0
 45122  1  0  0  0
 46123  1  0  0  0
 47124  1  0  0  0
 47125  1  0  0  0
 48 56  1  0  0  0
 48 65  1  0  0  0
 48126  1  0  0  0
 49 50  1  0  0  0
 49 53  1  0  0  0
 49 64  1  0  0  0
 49127  1  0  0  0
 50 51  1  0  0  0
 50128  1  0  0  0
 50129  1  0  0  0
 51 52  1  0  0  0
 51130  1  0  0  0
 51131  1  0  0  0
 52132  1  0  0  0
 52133  1  0  0  0
 53 54  1  0  0  0
 54 55  2  0  0  0
 54134  1  0  0  0
 55 57  1  0  0  0
 55135  1  0  0  0
 56 69  2  0  0  0
 57 58  2  0  0  0
 57136  1  0  0  0
 58137  1  0  0  0
 59 60  1  0  0  0
 59 61  1  0  0  0
 59 62  1  0  0  0
 60138  1  0  0  0
 60139  1  0  0  0
 60140  1  0  0  0
 61141  1  0  0  0
 61142  1  0  0  0
 61143  1  0  0  0
 62144  1  0  0  0
 62145  1  0  0  0
 62146  1  0  0  0
 63 65  1  0  0  0
 63147  1  0  0  0
 63148  1  0  0  0
 63149  1  0  0  0
 64150  1  0  0  0
 65151  1  0  0  0
 68 88  1  0  0  0
 71 74  2  0  0  0
 71 75  1  0  0  0
 71152  1  0  0  0
 72 73  2  0  0  0
 72 89  1  0  0  0
 72153  1  0  0  0
 73 74  1  0  0  0
 73 85  1  0  0  0
 74 92  1  0  0  0
 75 89  2  0  0  0
 75 91  1  0  0  0
 76 77  1  0  0  0
 76 80  1  0  0  0
 76154  1  0  0  0
 76155  1  0  0  0
 77 80  1  0  0  0
 77156  1  0  0  0
 77157  1  0  0  0
 78 79  1  0  0  0
 78 81  1  0  0  0
 78158  1  0  0  0
 78159  1  0  0  0
 79 90  1  0  0  0
 79160  1  0  0  0
 79161  1  0  0  0
 80 91  1  0  0  0
 80162  1  0  0  0
 81 82  1  0  0  0
 81 91  1  0  0  0
 81163  1  0  0  0
 82 83  1  0  0  0
 82 90  1  0  0  0
 82164  1  0  0  0
 83165  1  0  0  0
 83166  1  0  0  0
 83167  1  0  0  0
 84 87  1  0  0  0
 84168  1  0  0  0
 84169  1  0  0  0
 84170  1  0  0  0
 85 86  1  0  0  0
 85171  1  0  0  0
 85172  1  0  0  0
 86 88  1  0  0  0
 86173  1  0  0  0
 86174  1  0  0  0
 87 92  1  0  0  0
 87175  1  0  0  0
 87176  1  0  0  0
 88177  1  0  0  0
 88178  1  0  0  0
M  ISO  4   1 100  68 101  88 101  90 100
M  END
> <chiral flag>
0

> <version>
0

> <s_m_source_file>
/data/baiqing/PycharmProjects/Reinvent-master-3.2/result/LINK_invent/BTK/process_docking_weight1_custom_sum_contain_oxygen_bond_distance_aromatic_linkinvent_7_9_3/rearranged_h_0153.sdf

> <i_m_source_file_index>
52

> <r_mmod_Potential_Energy-OPLS-2005>
138.570358276367

> <r_mmod_Stretch_Energy-OPLS-2005>
41.2788505554199

> <r_mmod_Bend_Energy-OPLS-2005>
165.275039672852

> <r_mmod_Torsional_Energy-OPLS-2005>
457.618286132812

> <r_mmod_Improper_Torsional_Energy-OPLS-2005>
7.36600065231323

> <r_mmod_Van_der_Waal_Energy-OPLS-2005>
145.911285400391

> <r_mmod_Electrostatic_Energy-OPLS-2005>
-490.947082519531

> <r_mmod_Solvation_Energy-OPLS-2005>
-196.17919921875

> <b_mmod_Minimization_Converged-OPLS-2005>
0

> <r_mmod_RMS_Derivative-OPLS-2005>
2.23090362548828

$$$$
52
                    3D
 Structure written by MMmdl.
161170  0  0  1  0            999 V2000
  -30.6243  -14.7831   20.4441 C   0  0  0  0  0  0
  -30.4247  -12.4767   19.4846 C   0  0  0  0  0  0
  -29.5118  -12.5094   18.2410 C   0  0  0  0  0  0
  -28.0379  -12.3356   18.6523 C   0  0  0  0  0  0
  -27.6374  -13.2426   19.8468 C   0  0  2  0  0  0
  -28.6809  -13.2100   20.9838 C   0  0  0  0  0  0
  -25.2488  -13.8231   20.5713 C   0  0  0  0  0  0
  -24.1793  -13.0459   20.9226 C   0  0  0  0  0  0
  -24.6409  -11.6940   20.8766 C   0  0  0  0  0  0
  -23.9101  -10.4305   21.0416 C   0  0  0  0  0  0
  -24.3647   -9.4208   21.9187 C   0  0  0  0  0  0
  -23.6312   -8.2246   22.0754 C   0  0  0  0  0  0
  -22.4287   -8.0299   21.3551 C   0  0  0  0  0  0
  -21.9937   -9.0281   20.4645 C   0  0  0  0  0  0
  -22.7279  -10.2152   20.3057 C   0  0  0  0  0  0
  -21.6861   -6.0745   22.5274 C   0  0  0  0  0  0
  -21.4023   -6.5639   23.8214 C   0  0  0  0  0  0
  -21.3664   -5.6781   24.9174 C   0  0  0  0  0  0
  -21.6047   -4.3047   24.7212 C   0  0  0  0  0  0
  -21.8819   -3.8150   23.4326 C   0  0  0  0  0  0
  -21.9196   -4.6973   22.3391 C   0  0  0  0  0  0
  -22.7813  -13.5222   21.1876 C   0  0  0  0  0  0
  -22.1662   -4.2166   21.0965 F   0  0  0  0  0  0
  -21.5634   -3.4520   25.7719 F   0  0  0  0  0  0
  -29.9760  -13.5637   20.3916 N   0  0  0  0  0  0
  -26.2921  -12.9455   20.3290 N   0  0  0  0  0  0
  -25.9340  -11.6584   20.5763 N   0  0  0  0  0  0
  -22.0461  -12.8213   22.0431 N   0  0  0  0  0  0
  -25.4168  -15.1957   20.4105 N   0  0  0  0  0  0
  -31.8167  -14.8289   20.1314 O   0  0  0  0  0  0
  -21.6648   -6.8897   21.4240 O   0  0  0  0  0  0
  -22.3491  -14.5524   20.6716 O   0  0  0  0  0  0
  -24.6330  -31.8518   23.1949 C   0  0  0  0  0  0
  -25.9150  -32.4725   23.8308 C   0  0  1  0  0  0
  -27.2136  -27.2380   20.1382 C   0  0  0  0  0  0
  -25.5935  -33.8532   24.2221 N   0  0  0  0  0  0
  -23.4304  -30.4742   21.5384 C   0  0  2  0  0  0
  -24.8767  -28.9120   20.1130 C   0  0  0  0  0  0
  -22.7502  -29.4600   22.4901 C   0  0  0  0  0  0
  -18.0299  -28.1404   22.8488 C   0  0  0  0  0  0
  -24.1494  -36.7276   23.2641 C   0  0  0  0  0  0
  -25.9762  -30.7595   21.3766 C   0  0  0  0  0  0
  -26.0496  -29.3784   20.7205 C   0  0  0  0  0  0
  -27.2247  -28.5557   20.7148 C   0  0  0  0  0  0
  -26.0197  -26.8395   19.5046 C   0  0  0  0  0  0
  -24.8675  -27.6527   19.4921 C   0  0  0  0  0  0
  -23.6497  -29.8042   20.1565 C   0  0  0  0  0  0
  -25.4123  -36.3044   24.0311 C   0  0  1  0  0  0
  -20.5900  -28.3720   23.1269 C   0  0  2  0  0  0
  -20.6794  -26.9439   22.5418 C   0  0  0  0  0  0
  -19.5764  -26.6398   21.5232 C   0  0  0  0  0  0
  -18.1944  -26.7943   22.1636 C   0  0  0  0  0  0
  -19.1549  -28.8883   23.2874 C   0  0  0  0  0  0
  -18.9466  -30.1487   23.8889 C   0  0  0  0  0  0
  -17.6462  -30.6602   24.0574 C   0  0  0  0  0  0
  -25.9068  -34.9419   23.5070 C   0  0  0  0  0  0
  -16.5357  -29.9095   23.6343 C   0  0  0  0  0  0
  -16.7283  -28.6520   23.0350 C   0  0  0  0  0  0
  -26.4506  -31.6559   25.0709 C   0  0  0  0  0  0
  -25.3716  -31.3720   26.1417 C   0  0  0  0  0  0
  -27.0366  -30.2971   24.6219 C   0  0  0  0  0  0
  -27.6043  -32.4312   25.7493 C   0  0  0  0  0  0
  -27.5575  -37.1795   24.8455 C   0  0  0  0  0  0
  -21.4209  -29.3054   22.3639 N   0  0  0  0  0  0
  -26.4287  -37.3752   23.9396 N   0  0  0  0  0  0
  -24.6992  -31.0465   22.0938 N   0  0  0  0  0  0
  -23.4197  -28.8152   23.3018 O   0  0  0  0  0  0
  -28.3040  -26.3348   20.1434 O   0  0  0  0  0  0
  -26.5644  -34.8899   22.4647 O   0  0  0  0  0  0
  -23.5476  -32.1356   23.7236 O   0  0  0  0  0  0
  -32.2900  -22.4259   21.0630 C   0  0  0  0  0  0
  -30.9488  -22.6627   20.7913 C   0  0  0  0  0  0
  -31.8425  -20.0341   21.0977 C   0  0  0  0  0  0
  -30.4583  -20.2157   20.7250 C   0  0  0  0  0  0
  -32.7468  -21.1209   21.1987 C   0  0  0  0  0  0
  -29.9972  -21.6350   20.5688 C   0  0  0  0  0  0
  -32.4482  -18.6660   21.4223 C   0  0  0  0  0  0
  -29.6394  -18.8309   20.5322 C   0  0  0  0  0  0
  -31.4445  -17.5896   21.7815 C   0  0  0  0  0  0
  -30.4874  -17.4151   20.6128 C   0  0  1  0  0  0
  -34.2349  -20.9298   21.4596 C   0  0  0  0  0  0
  -28.1141  -24.8976   20.5961 C   0  0  0  0  0  0
  -28.5116  -23.5804   19.7113 C   0  0  0  0  0  0
  -29.9164  -15.9744   20.6495 N   0  0  0  0  0  0
  -28.7113  -22.1675   20.2627 O   0  0  0  0  0  0
  -31.4684  -12.5867   19.1856 H   0  0  0  0  0  0
  -30.3624  -11.5085   19.9848 H   0  0  0  0  0  0
  -29.8005  -11.7272   17.5374 H   0  0  0  0  0  0
  -29.6406  -13.4572   17.7171 H   0  0  0  0  0  0
  -27.8940  -11.2883   18.9189 H   0  0  0  0  0  0
  -27.3843  -12.5266   17.8001 H   0  0  0  0  0  0
  -27.6229  -14.2596   19.4541 H   0  0  0  0  0  0
  -28.7216  -12.2238   21.4489 H   0  0  0  0  0  0
  -28.4131  -13.9135   21.7731 H   0  0  0  0  0  0
  -25.2800   -9.5679   22.4750 H   0  0  0  0  0  0
  -24.0036   -7.4629   22.7451 H   0  0  0  0  0  0
  -21.0889   -8.8807   19.8929 H   0  0  0  0  0  0
  -22.3768  -10.9697   19.6158 H   0  0  0  0  0  0
  -21.2020   -7.6145   23.9732 H   0  0  0  0  0  0
  -21.1491   -6.0499   25.9078 H   0  0  0  0  0  0
  -22.0598   -2.7610   23.2814 H   0  0  0  0  0  0
  -22.4090  -11.9888   22.4843 H   0  0  0  0  0  0
  -21.1061  -13.1218   22.2594 H   0  0  0  0  0  0
  -24.6505  -15.8509   20.5213 H   0  0  0  0  0  0
  -26.2599  -15.6336   20.0636 H   0  0  0  0  0  0
  -26.7212  -32.5361   23.1047 H   0  0  0  0  0  0
  -25.0034  -33.9658   25.0331 H   0  0  0  0  0  0
  -22.7289  -31.2977   21.3896 H   0  0  0  0  0  0
  -23.3748  -35.9616   23.3284 H   0  0  0  0  0  0
  -24.3590  -36.8931   22.2062 H   0  0  0  0  0  0
  -23.7261  -37.6471   23.6693 H   0  0  0  0  0  0
  -26.1181  -31.5213   20.6085 H   0  0  0  0  0  0
  -26.8514  -30.8068   22.0125 H   0  0  0  0  0  0
  -28.1266  -28.9121   21.1929 H   0  0  0  0  0  0
  -25.9709  -25.8750   19.0199 H   0  0  0  0  0  0
  -23.9698  -27.2928   19.0087 H   0  0  0  0  0  0
  -23.7764  -30.5777   19.3977 H   0  0  0  0  0  0
  -22.7663  -29.2401   19.8525 H   0  0  0  0  0  0
  -25.1317  -36.1879   25.0802 H   0  0  0  0  0  0
  -21.0003  -28.3316   24.1383 H   0  0  0  0  0  0
  -20.5735  -26.2331   23.3624 H   0  0  0  0  0  0
  -21.6656  -26.7482   22.1191 H   0  0  0  0  0  0
  -19.6927  -25.6310   21.1264 H   0  0  0  0  0  0
  -19.6696  -27.3207   20.6760 H   0  0  0  0  0  0
  -17.4218  -26.6704   21.4025 H   0  0  0  0  0  0
  -18.0328  -26.0090   22.9034 H   0  0  0  0  0  0
  -19.7942  -30.7326   24.2230 H   0  0  0  0  0  0
  -17.5010  -31.6270   24.5193 H   0  0  0  0  0  0
  -15.5356  -30.2994   23.7673 H   0  0  0  0  0  0
  -15.8683  -28.0847   22.7047 H   0  0  0  0  0  0
  -24.5889  -30.7076   25.7733 H   0  0  0  0  0  0
  -24.8913  -32.2894   26.4827 H   0  0  0  0  0  0
  -25.8022  -30.8899   27.0201 H   0  0  0  0  0  0
  -26.2961  -29.6697   24.1238 H   0  0  0  0  0  0
  -27.4028  -29.7258   25.4758 H   0  0  0  0  0  0
  -27.8842  -30.4226   23.9479 H   0  0  0  0  0  0
  -27.2633  -33.3618   26.2040 H   0  0  0  0  0  0
  -28.3875  -32.6863   25.0341 H   0  0  0  0  0  0
  -28.0678  -31.8455   26.5439 H   0  0  0  0  0  0
  -28.2575  -38.0106   24.7512 H   0  0  0  0  0  0
  -28.1090  -36.2640   24.6276 H   0  0  0  0  0  0
  -27.2289  -37.1427   25.8854 H   0  0  0  0  0  0
  -20.9403  -29.8737   21.6805 H   0  0  0  0  0  0
  -26.0153  -38.2818   24.1412 H   0  0  0  0  0  0
  -32.9623  -23.2653   21.1808 H   0  0  0  0  0  0
  -30.6929  -23.7094   20.7559 H   0  0  0  0  0  0
  -33.1216  -18.7488   22.2750 H   0  0  0  0  0  0
  -33.0595  -18.3419   20.5782 H   0  0  0  0  0  0
  -29.1111  -18.8807   19.5803 H   0  0  0  0  0  0
  -28.8673  -18.8191   21.3009 H   0  0  0  0  0  0
  -30.9003  -17.8530   22.6894 H   0  0  0  0  0  0
  -31.9937  -16.6763   22.0095 H   0  0  0  0  0  0
  -31.0910  -17.4040   19.7027 H   0  0  0  0  0  0
  -34.7846  -21.8622   21.3214 H   0  0  0  0  0  0
  -34.6609  -20.2029   20.7670 H   0  0  0  0  0  0
  -34.4171  -20.5939   22.4804 H   0  0  0  0  0  0
  -28.7038  -24.8332   21.5102 H   0  0  0  0  0  0
  -27.0872  -24.7658   20.9402 H   0  0  0  0  0  0
  -29.3619  -23.8323   19.0769 H   0  0  0  0  0  0
  -27.7079  -23.4760   18.9837 H   0  0  0  0  0  0
  -28.9303  -15.8806   20.8408 H   0  0  0  0  0  0
  1 25  1  0  0  0
  1 30  2  0  0  0
  1 84  1  0  0  0
  2  3  1  0  0  0
  2 25  1  0  0  0
  2 86  1  0  0  0
  2 87  1  0  0  0
  3  4  1  0  0  0
  3 88  1  0  0  0
  3 89  1  0  0  0
  4  5  1  0  0  0
  4 90  1  0  0  0
  4 91  1  0  0  0
  5  6  1  0  0  0
  5 26  1  0  0  0
  5 92  1  0  0  0
  6 25  1  0  0  0
  6 93  1  0  0  0
  6 94  1  0  0  0
  7  8  2  0  0  0
  7 26  1  0  0  0
  7 29  1  0  0  0
  8  9  1  0  0  0
  8 22  1  0  0  0
  9 10  1  0  0  0
  9 27  2  0  0  0
 10 11  2  0  0  0
 10 15  1  0  0  0
 11 12  1  0  0  0
 11 95  1  0  0  0
 12 13  2  0  0  0
 12 96  1  0  0  0
 13 14  1  0  0  0
 13 31  1  0  0  0
 14 15  2  0  0  0
 14 97  1  0  0  0
 15 98  1  0  0  0
 16 17  2  0  0  0
 16 21  1  0  0  0
 16 31  1  0  0  0
 17 18  1  0  0  0
 17 99  1  0  0  0
 18 19  2  0  0  0
 18100  1  0  0  0
 19 20  1  0  0  0
 19 24  1  0  0  0
 20 21  2  0  0  0
 20101  1  0  0  0
 21 23  1  0  0  0
 22 28  1  0  0  0
 22 32  2  0  0  0
 26 27  1  0  0  0
 28102  1  0  0  0
 28103  1  0  0  0
 29104  1  0  0  0
 29105  1  0  0  0
 33 34  1  0  0  0
 33 66  1  0  0  0
 33 70  2  0  0  0
 34 36  1  0  0  0
 34 59  1  0  0  0
 34106  1  0  0  0
 35 44  2  0  0  0
 35 45  1  0  0  0
 35 68  1  0  0  0
 36 56  1  0  0  0
 36107  1  0  0  0
 37 39  1  0  0  0
 37 47  1  0  0  0
 37 66  1  0  0  0
 37108  1  0  0  0
 38 43  2  0  0  0
 38 46  1  0  0  0
 38 47  1  0  0  0
 39 64  1  0  0  0
 39 67  2  0  0  0
 40 52  1  0  0  0
 40 53  2  0  0  0
 40 58  1  0  0  0
 41109  1  0  0  0
 41110  1  0  0  0
 41111  1  0  0  0
 41 48  1  0  0  0
 42 43  1  0  0  0
 42 66  1  0  0  0
 42112  1  0  0  0
 42113  1  0  0  0
 43 44  1  0  0  0
 44114  1  0  0  0
 45 46  2  0  0  0
 45115  1  0  0  0
 46116  1  0  0  0
 47117  1  0  0  0
 47118  1  0  0  0
 48 56  1  0  0  0
 48 65  1  0  0  0
 48119  1  0  0  0
 49 50  1  0  0  0
 49 53  1  0  0  0
 49 64  1  0  0  0
 49120  1  0  0  0
 50 51  1  0  0  0
 50121  1  0  0  0
 50122  1  0  0  0
 51 52  1  0  0  0
 51123  1  0  0  0
 51124  1  0  0  0
 52125  1  0  0  0
 52126  1  0  0  0
 53 54  1  0  0  0
 54 55  2  0  0  0
 54127  1  0  0  0
 55 57  1  0  0  0
 55128  1  0  0  0
 56 69  2  0  0  0
 57 58  2  0  0  0
 57129  1  0  0  0
 58130  1  0  0  0
 59 60  1  0  0  0
 59 61  1  0  0  0
 59 62  1  0  0  0
 60131  1  0  0  0
 60132  1  0  0  0
 60133  1  0  0  0
 61134  1  0  0  0
 61135  1  0  0  0
 61136  1  0  0  0
 62137  1  0  0  0
 62138  1  0  0  0
 62139  1  0  0  0
 63 65  1  0  0  0
 63140  1  0  0  0
 63141  1  0  0  0
 63142  1  0  0  0
 64143  1  0  0  0
 65144  1  0  0  0
 68 82  1  0  0  0
 71 72  2  0  0  0
 71 75  1  0  0  0
 71145  1  0  0  0
 72 76  1  0  0  0
 72146  1  0  0  0
 73 74  1  0  0  0
 73 75  2  0  0  0
 73 77  1  0  0  0
 74 76  2  0  0  0
 74 78  1  0  0  0
 75 81  1  0  0  0
 76 85  1  0  0  0
 77 79  1  0  0  0
 77147  1  0  0  0
 77148  1  0  0  0
 78 80  1  0  0  0
 78149  1  0  0  0
 78150  1  0  0  0
 79 80  1  0  0  0
 79151  1  0  0  0
 79152  1  0  0  0
 80 84  1  0  0  0
 80153  1  0  0  0
 81154  1  0  0  0
 81155  1  0  0  0
 81156  1  0  0  0
 82 83  1  0  0  0
 82157  1  0  0  0
 82158  1  0  0  0
 83 85  1  0  0  0
 83159  1  0  0  0
 83160  1  0  0  0
 84161  1  0  0  0
M  ISO  4   1 100  68 101  82 101  84 100
M  END
> <chiral flag>
0

> <version>
0

> <s_m_source_file>
/data/baiqing/PycharmProjects/Reinvent-master-3.2/result/LINK_invent/BTK/process_docking_weight1_custom_sum_contain_oxygen_bond_distance_aromatic_linkinvent_7_9_3/rearranged_h_0153.sdf

> <i_m_source_file_index>
53

> <r_mmod_Potential_Energy-OPLS-2005>
299.975372314453

> <r_mmod_Stretch_Energy-OPLS-2005>
182.774169921875

> <r_mmod_Bend_Energy-OPLS-2005>
239.830368041992

> <r_mmod_Torsional_Energy-OPLS-2005>
223.047927856445

> <r_mmod_Improper_Torsional_Energy-OPLS-2005>
4.13145303726196

> <r_mmod_Van_der_Waal_Energy-OPLS-2005>
159.416564941406

> <r_mmod_Electrostatic_Energy-OPLS-2005>
-394.129852294922

> <r_mmod_Solvation_Energy-OPLS-2005>
-215.076278686523

> <b_mmod_Minimization_Converged-OPLS-2005>
0

> <r_mmod_RMS_Derivative-OPLS-2005>
1.42476940155029

$$$$
53
                    3D
 Structure written by MMmdl.
162171  0  0  1  0            999 V2000
  -30.7888  -14.3556   20.6738 C   0  0  0  0  0  0
  -30.4165  -12.2793   19.3957 C   0  0  0  0  0  0
  -29.4868  -12.5104   18.1917 C   0  0  0  0  0  0
  -28.0099  -12.3796   18.6096 C   0  0  0  0  0  0
  -27.6698  -13.2051   19.8782 C   0  0  2  0  0  0
  -28.7096  -12.9577   20.9937 C   0  0  0  0  0  0
  -25.2638  -13.8160   20.5694 C   0  0  0  0  0  0
  -24.1873  -13.0440   20.9160 C   0  0  0  0  0  0
  -24.6424  -11.6904   20.8724 C   0  0  0  0  0  0
  -23.9090  -10.4288   21.0386 C   0  0  0  0  0  0
  -24.3636   -9.4198   21.9176 C   0  0  0  0  0  0
  -23.6295   -8.2246   22.0761 C   0  0  0  0  0  0
  -22.4279   -8.0283   21.3551 C   0  0  0  0  0  0
  -21.9922   -9.0258   20.4645 C   0  0  0  0  0  0
  -22.7263  -10.2122   20.3039 C   0  0  0  0  0  0
  -21.6864   -6.0734   22.5281 C   0  0  0  0  0  0
  -21.4016   -6.5635   23.8216 C   0  0  0  0  0  0
  -21.3649   -5.6781   24.9175 C   0  0  0  0  0  0
  -21.6045   -4.3047   24.7220 C   0  0  0  0  0  0
  -21.8830   -3.8145   23.4342 C   0  0  0  0  0  0
  -21.9201   -4.6961   22.3401 C   0  0  0  0  0  0
  -22.7895  -13.5239   21.1812 C   0  0  0  0  0  0
  -22.1672   -4.2151   21.0975 F   0  0  0  0  0  0
  -21.5621   -3.4527   25.7731 F   0  0  0  0  0  0
  -30.0523  -13.2367   20.4507 N   0  0  0  0  0  0
  -26.3083  -12.9330   20.3389 N   0  0  0  0  0  0
  -25.9350  -11.6482   20.5759 N   0  0  0  0  0  0
  -22.0532  -12.8224   22.0357 N   0  0  0  0  0  0
  -25.4344  -15.1871   20.4103 N   0  0  0  0  0  0
  -31.8055  -14.6385   20.0345 O   0  0  0  0  0  0
  -21.6644   -6.8883   21.4244 O   0  0  0  0  0  0
  -22.3579  -14.5542   20.6662 O   0  0  0  0  0  0
  -24.6143  -31.8667   23.2103 C   0  0  0  0  0  0
  -25.9032  -32.4822   23.8403 C   0  0  1  0  0  0
  -27.2407  -27.4334   20.0905 C   0  0  0  0  0  0
  -25.5887  -33.8616   24.2328 N   0  0  0  0  0  0
  -23.4031  -30.4943   21.5484 C   0  0  2  0  0  0
  -24.8494  -28.9655   20.1111 C   0  0  0  0  0  0
  -22.7414  -29.4658   22.4954 C   0  0  0  0  0  0
  -18.0273  -28.1384   22.8515 C   0  0  0  0  0  0
  -24.1453  -36.7254   23.2646 C   0  0  0  0  0  0
  -25.9342  -30.8371   21.3631 C   0  0  0  0  0  0
  -26.0102  -29.4726   20.7061 C   0  0  0  0  0  0
  -27.2045  -28.7145   20.6940 C   0  0  0  0  0  0
  -26.0552  -26.9537   19.4785 C   0  0  0  0  0  0
  -24.8664  -27.7053   19.4958 C   0  0  0  0  0  0
  -23.6112  -29.8309   20.1621 C   0  0  0  0  0  0
  -25.4088  -36.3092   24.0355 C   0  0  1  0  0  0
  -20.5878  -28.3653   23.1311 C   0  0  2  0  0  0
  -20.6766  -26.9383   22.5411 C   0  0  0  0  0  0
  -19.5734  -26.6385   21.5218 C   0  0  0  0  0  0
  -18.1910  -26.7945   22.1623 C   0  0  0  0  0  0
  -19.1533  -28.8844   23.2910 C   0  0  0  0  0  0
  -18.9465  -30.1474   23.8878 C   0  0  0  0  0  0
  -17.6473  -30.6595   24.0593 C   0  0  0  0  0  0
  -25.9046  -34.9480   23.5145 C   0  0  0  0  0  0
  -16.5357  -29.9111   23.6360 C   0  0  0  0  0  0
  -16.7264  -28.6532   23.0361 C   0  0  0  0  0  0
  -26.4458  -31.6602   25.0728 C   0  0  0  0  0  0
  -25.3742  -31.3709   26.1494 C   0  0  0  0  0  0
  -27.0317  -30.3062   24.6106 C   0  0  0  0  0  0
  -27.6022  -32.4324   25.7492 C   0  0  0  0  0  0
  -27.5558  -37.1787   24.8485 C   0  0  0  0  0  0
  -21.4140  -29.3013   22.3686 N   0  0  0  0  0  0
  -26.4247  -37.3800   23.9455 N   0  0  0  0  0  0
  -24.6685  -31.0814   22.0982 N   0  0  0  0  0  0
  -23.4196  -28.8216   23.2993 O   0  0  0  0  0  0
  -28.4198  -26.7044   20.1339 O   0  0  0  0  0  0
  -26.5584  -34.8936   22.4694 O   0  0  0  0  0  0
  -23.5341  -32.1364   23.7530 O   0  0  0  0  0  0
  -30.4593  -21.7064   20.7365 C   0  0  0  0  0  0
  -30.6528  -20.3098   20.8085 C   0  0  0  0  0  0
  -28.2339  -21.4300   21.6595 C   0  0  0  0  0  0
  -28.4179  -20.0310   21.7411 C   0  0  0  0  0  0
  -29.2420  -22.2811   21.1653 C   0  0  0  0  0  0
  -29.6451  -19.4576   21.3286 C   0  0  0  0  0  0
  -26.4777  -19.5522   23.4625 C   0  0  0  0  0  0
  -27.4409  -18.3926   23.5487 C   0  0  0  0  0  0
  -27.3029  -19.1627   22.2566 C   0  0  0  0  0  0
  -31.1611  -16.2365   22.2368 C   0  0  0  0  0  0
  -31.0923  -17.5173   21.3829 C   0  0  0  0  0  0
  -28.4356  -25.3724   19.5904 C   0  0  0  0  0  0
  -29.5575  -24.4675   20.1513 C   0  0  0  0  0  0
  -30.3918  -15.1171   21.6931 N   0  0  0  0  0  0
  -28.9888  -23.6382   21.1730 O   0  0  0  0  0  0
  -29.7857  -18.0875   21.4619 O   0  0  0  0  0  0
  -31.4616  -12.3687   19.0899 H   0  0  0  0  0  0
  -30.3095  -11.2597   19.7711 H   0  0  0  0  0  0
  -29.7133  -11.7943   17.4006 H   0  0  0  0  0  0
  -29.6672  -13.5003   17.7715 H   0  0  0  0  0  0
  -27.8084  -11.3231   18.7896 H   0  0  0  0  0  0
  -27.3591  -12.6754   17.7861 H   0  0  0  0  0  0
  -27.7273  -14.2588   19.6018 H   0  0  0  0  0  0
  -28.6727  -11.9191   21.3250 H   0  0  0  0  0  0
  -28.4645  -13.5520   21.8733 H   0  0  0  0  0  0
  -25.2784   -9.5669   22.4741 H   0  0  0  0  0  0
  -24.0014   -7.4636   22.7475 H   0  0  0  0  0  0
  -21.0872   -8.8763   19.8940 H   0  0  0  0  0  0
  -22.3742  -10.9647   19.6130 H   0  0  0  0  0  0
  -21.2013   -7.6142   23.9718 H   0  0  0  0  0  0
  -21.1449   -6.0506   25.9075 H   0  0  0  0  0  0
  -22.0615   -2.7606   23.2834 H   0  0  0  0  0  0
  -22.4161  -11.9887   22.4732 H   0  0  0  0  0  0
  -21.1125  -13.1213   22.2519 H   0  0  0  0  0  0
  -24.6715  -15.8419   20.5401 H   0  0  0  0  0  0
  -26.2934  -15.6295   20.1086 H   0  0  0  0  0  0
  -26.7116  -32.5524   23.1179 H   0  0  0  0  0  0
  -25.0093  -33.9776   25.0525 H   0  0  0  0  0  0
  -22.6929  -31.3129   21.4134 H   0  0  0  0  0  0
  -23.3745  -35.9556   23.3330 H   0  0  0  0  0  0
  -24.3556  -36.8825   22.2054 H   0  0  0  0  0  0
  -23.7165  -37.6453   23.6637 H   0  0  0  0  0  0
  -26.0601  -31.6146   20.6073 H   0  0  0  0  0  0
  -26.8173  -30.8772   21.9882 H   0  0  0  0  0  0
  -28.1000  -29.1122   21.1528 H   0  0  0  0  0  0
  -26.0108  -26.0041   18.9711 H   0  0  0  0  0  0
  -23.9745  -27.3081   19.0298 H   0  0  0  0  0  0
  -23.7201  -30.6068   19.4027 H   0  0  0  0  0  0
  -22.7368  -29.2499   19.8636 H   0  0  0  0  0  0
  -25.1269  -36.1924   25.0844 H   0  0  0  0  0  0
  -21.0007  -28.3205   24.1421 H   0  0  0  0  0  0
  -20.5678  -26.2251   23.3597 H   0  0  0  0  0  0
  -21.6641  -26.7425   22.1199 H   0  0  0  0  0  0
  -19.6884  -25.6305   21.1222 H   0  0  0  0  0  0
  -19.6688  -27.3239   20.6786 H   0  0  0  0  0  0
  -17.4202  -26.6733   21.3995 H   0  0  0  0  0  0
  -18.0266  -26.0080   22.8999 H   0  0  0  0  0  0
  -19.7946  -30.7320   24.2176 H   0  0  0  0  0  0
  -17.5034  -31.6264   24.5219 H   0  0  0  0  0  0
  -15.5366  -30.3020   23.7712 H   0  0  0  0  0  0
  -15.8655  -28.0888   22.7048 H   0  0  0  0  0  0
  -24.5932  -30.7010   25.7886 H   0  0  0  0  0  0
  -24.8904  -32.2857   26.4917 H   0  0  0  0  0  0
  -25.8117  -30.8933   27.0269 H   0  0  0  0  0  0
  -26.2880  -29.6809   24.1145 H   0  0  0  0  0  0
  -27.4105  -29.7295   25.4555 H   0  0  0  0  0  0
  -27.8707  -30.4428   23.9279 H   0  0  0  0  0  0
  -27.2639  -33.3638   26.2045 H   0  0  0  0  0  0
  -28.3842  -32.6840   25.0322 H   0  0  0  0  0  0
  -28.0676  -31.8458   26.5418 H   0  0  0  0  0  0
  -28.2596  -38.0068   24.7552 H   0  0  0  0  0  0
  -28.1006  -36.2603   24.6262 H   0  0  0  0  0  0
  -27.2289  -37.1406   25.8889 H   0  0  0  0  0  0
  -20.9267  -29.8702   21.6905 H   0  0  0  0  0  0
  -26.0107  -38.2852   24.1514 H   0  0  0  0  0  0
  -31.2673  -22.3255   20.3710 H   0  0  0  0  0  0
  -31.5931  -19.9118   20.4594 H   0  0  0  0  0  0
  -27.2940  -21.8596   21.9802 H   0  0  0  0  0  0
  -26.7423  -20.4599   24.0018 H   0  0  0  0  0  0
  -25.4154  -19.3096   23.4527 H   0  0  0  0  0  0
  -27.0156  -17.3907   23.5807 H   0  0  0  0  0  0
  -28.3447  -18.5370   24.1371 H   0  0  0  0  0  0
  -26.7878  -18.6680   21.4350 H   0  0  0  0  0  0
  -30.8172  -16.4436   23.2505 H   0  0  0  0  0  0
  -32.2044  -15.9285   22.3306 H   0  0  0  0  0  0
  -31.3574  -17.3224   20.3416 H   0  0  0  0  0  0
  -31.8442  -18.1966   21.7840 H   0  0  0  0  0  0
  -27.5069  -24.8343   19.7723 H   0  0  0  0  0  0
  -28.5495  -25.4651   18.5097 H   0  0  0  0  0  0
  -30.3927  -25.0485   20.5454 H   0  0  0  0  0  0
  -29.9464  -23.8687   19.3254 H   0  0  0  0  0  0
  -29.5559  -14.8348   22.1848 H   0  0  0  0  0  0
  1 25  1  0  0  0
  1 30  2  0  0  0
  1 84  1  0  0  0
  2  3  1  0  0  0
  2 25  1  0  0  0
  2 87  1  0  0  0
  2 88  1  0  0  0
  3  4  1  0  0  0
  3 89  1  0  0  0
  3 90  1  0  0  0
  4  5  1  0  0  0
  4 91  1  0  0  0
  4 92  1  0  0  0
  5  6  1  0  0  0
  5 26  1  0  0  0
  5 93  1  0  0  0
  6 25  1  0  0  0
  6 94  1  0  0  0
  6 95  1  0  0  0
  7  8  2  0  0  0
  7 26  1  0  0  0
  7 29  1  0  0  0
  8  9  1  0  0  0
  8 22  1  0  0  0
  9 10  1  0  0  0
  9 27  2  0  0  0
 10 11  2  0  0  0
 10 15  1  0  0  0
 11 12  1  0  0  0
 11 96  1  0  0  0
 12 13  2  0  0  0
 12 97  1  0  0  0
 13 14  1  0  0  0
 13 31  1  0  0  0
 14 15  2  0  0  0
 14 98  1  0  0  0
 15 99  1  0  0  0
 16 17  2  0  0  0
 16 21  1  0  0  0
 16 31  1  0  0  0
 17 18  1  0  0  0
 17100  1  0  0  0
 18 19  2  0  0  0
 18101  1  0  0  0
 19 20  1  0  0  0
 19 24  1  0  0  0
 20 21  2  0  0  0
 20102  1  0  0  0
 21 23  1  0  0  0
 22 28  1  0  0  0
 22 32  2  0  0  0
 26 27  1  0  0  0
 28103  1  0  0  0
 28104  1  0  0  0
 29105  1  0  0  0
 29106  1  0  0  0
 33 34  1  0  0  0
 33 66  1  0  0  0
 33 70  2  0  0  0
 34 36  1  0  0  0
 34 59  1  0  0  0
 34107  1  0  0  0
 35 44  2  0  0  0
 35 45  1  0  0  0
 35 68  1  0  0  0
 36 56  1  0  0  0
 36108  1  0  0  0
 37 39  1  0  0  0
 37 47  1  0  0  0
 37 66  1  0  0  0
 37109  1  0  0  0
 38 43  2  0  0  0
 38 46  1  0  0  0
 38 47  1  0  0  0
 39 64  1  0  0  0
 39 67  2  0  0  0
 40 52  1  0  0  0
 40 53  2  0  0  0
 40 58  1  0  0  0
 41110  1  0  0  0
 41111  1  0  0  0
 41112  1  0  0  0
 41 48  1  0  0  0
 42 43  1  0  0  0
 42 66  1  0  0  0
 42113  1  0  0  0
 42114  1  0  0  0
 43 44  1  0  0  0
 44115  1  0  0  0
 45 46  2  0  0  0
 45116  1  0  0  0
 46117  1  0  0  0
 47118  1  0  0  0
 47119  1  0  0  0
 48 56  1  0  0  0
 48 65  1  0  0  0
 48120  1  0  0  0
 49 50  1  0  0  0
 49 53  1  0  0  0
 49 64  1  0  0  0
 49121  1  0  0  0
 50 51  1  0  0  0
 50122  1  0  0  0
 50123  1  0  0  0
 51 52  1  0  0  0
 51124  1  0  0  0
 51125  1  0  0  0
 52126  1  0  0  0
 52127  1  0  0  0
 53 54  1  0  0  0
 54 55  2  0  0  0
 54128  1  0  0  0
 55 57  1  0  0  0
 55129  1  0  0  0
 56 69  2  0  0  0
 57 58  2  0  0  0
 57130  1  0  0  0
 58131  1  0  0  0
 59 60  1  0  0  0
 59 61  1  0  0  0
 59 62  1  0  0  0
 60132  1  0  0  0
 60133  1  0  0  0
 60134  1  0  0  0
 61135  1  0  0  0
 61136  1  0  0  0
 61137  1  0  0  0
 62138  1  0  0  0
 62139  1  0  0  0
 62140  1  0  0  0
 63 65  1  0  0  0
 63141  1  0  0  0
 63142  1  0  0  0
 63143  1  0  0  0
 64144  1  0  0  0
 65145  1  0  0  0
 68 82  1  0  0  0
 71 72  2  0  0  0
 71 75  1  0  0  0
 71146  1  0  0  0
 72 76  1  0  0  0
 72147  1  0  0  0
 73 74  1  0  0  0
 73 75  2  0  0  0
 73148  1  0  0  0
 74 76  2  0  0  0
 74 79  1  0  0  0
 75 85  1  0  0  0
 76 86  1  0  0  0
 77 78  1  0  0  0
 77 79  1  0  0  0
 77149  1  0  0  0
 77150  1  0  0  0
 78 79  1  0  0  0
 78151  1  0  0  0
 78152  1  0  0  0
 79153  1  0  0  0
 80 81  1  0  0  0
 80 84  1  0  0  0
 80154  1  0  0  0
 80155  1  0  0  0
 81 86  1  0  0  0
 81156  1  0  0  0
 81157  1  0  0  0
 82 83  1  0  0  0
 82158  1  0  0  0
 82159  1  0  0  0
 83 85  1  0  0  0
 83160  1  0  0  0
 83161  1  0  0  0
 84162  1  0  0  0
M  ISO  4   1 100  68 101  82 101  84 100
M  END
> <chiral flag>
0

> <version>
0

> <s_m_source_file>
/data/baiqing/PycharmProjects/Reinvent-master-3.2/result/LINK_invent/BTK/process_docking_weight1_custom_sum_contain_oxygen_bond_distance_aromatic_linkinvent_7_9_3/rearranged_h_0153.sdf

> <i_m_source_file_index>
54

> <r_mmod_Potential_Energy-OPLS-2005>
-94.4439849853516

> <r_mmod_Stretch_Energy-OPLS-2005>
37.2597885131836

> <r_mmod_Bend_Energy-OPLS-2005>
110.624198913574

> <r_mmod_Torsional_Energy-OPLS-2005>
232.252319335938

> <r_mmod_Improper_Torsional_Energy-OPLS-2005>
2.02202939987183

> <r_mmod_Van_der_Waal_Energy-OPLS-2005>
163.124984741211

> <r_mmod_Electrostatic_Energy-OPLS-2005>
-436.435913085938

> <r_mmod_Solvation_Energy-OPLS-2005>
-212.657913208008

> <b_mmod_Minimization_Converged-OPLS-2005>
0

> <r_mmod_RMS_Derivative-OPLS-2005>
3.15571331977844

$$$$
54
                    3D
 Structure written by MMmdl.
175184  0  0  1  0            999 V2000
  -30.6091  -14.7099   20.4032 C   0  0  0  0  0  0
  -30.4223  -12.4114   19.4565 C   0  0  0  0  0  0
  -29.5071  -12.4831   18.2156 C   0  0  0  0  0  0
  -28.0270  -12.3313   18.6232 C   0  0  0  0  0  0
  -27.6396  -13.2253   19.8344 C   0  0  2  0  0  0
  -28.6877  -13.1521   20.9655 C   0  0  0  0  0  0
  -25.2546  -13.8195   20.5683 C   0  0  0  0  0  0
  -24.1827  -13.0467   20.9181 C   0  0  0  0  0  0
  -24.6388  -11.6921   20.8715 C   0  0  0  0  0  0
  -23.9066  -10.4306   21.0376 C   0  0  0  0  0  0
  -24.3629   -9.4223   21.9150 C   0  0  0  0  0  0
  -23.6300   -8.2262   22.0738 C   0  0  0  0  0  0
  -22.4278   -8.0290   21.3539 C   0  0  0  0  0  0
  -21.9915   -9.0263   20.4640 C   0  0  0  0  0  0
  -22.7237  -10.2142   20.3028 C   0  0  0  0  0  0
  -21.6868   -6.0730   22.5273 C   0  0  0  0  0  0
  -21.4030   -6.5628   23.8210 C   0  0  0  0  0  0
  -21.3665   -5.6777   24.9166 C   0  0  0  0  0  0
  -21.6051   -4.3041   24.7214 C   0  0  0  0  0  0
  -21.8823   -3.8133   23.4335 C   0  0  0  0  0  0
  -21.9201   -4.6956   22.3392 C   0  0  0  0  0  0
  -22.7840  -13.5244   21.1814 C   0  0  0  0  0  0
  -22.1656   -4.2136   21.0968 F   0  0  0  0  0  0
  -21.5636   -3.4529   25.7729 F   0  0  0  0  0  0
  -29.9846  -13.4868   20.3722 N   0  0  0  0  0  0
  -26.2943  -12.9382   20.3205 N   0  0  0  0  0  0
  -25.9311  -11.6531   20.5677 N   0  0  0  0  0  0
  -22.0476  -12.8265   22.0366 N   0  0  0  0  0  0
  -25.4321  -15.1928   20.4155 N   0  0  0  0  0  0
  -31.8159  -14.7855   20.1481 O   0  0  0  0  0  0
  -21.6653   -6.8877   21.4234 O   0  0  0  0  0  0
  -22.3520  -14.5530   20.6613 O   0  0  0  0  0  0
  -24.6327  -31.8516   23.1962 C   0  0  0  0  0  0
  -25.9148  -32.4740   23.8327 C   0  0  1  0  0  0
  -27.2254  -27.2455   20.1231 C   0  0  0  0  0  0
  -25.5952  -33.8546   24.2254 N   0  0  0  0  0  0
  -23.4318  -30.4737   21.5386 C   0  0  2  0  0  0
  -24.8792  -28.9131   20.1158 C   0  0  0  0  0  0
  -22.7504  -29.4596   22.4895 C   0  0  0  0  0  0
  -18.0297  -28.1393   22.8481 C   0  0  0  0  0  0
  -24.1490  -36.7260   23.2645 C   0  0  0  0  0  0
  -25.9763  -30.7593   21.3786 C   0  0  0  0  0  0
  -26.0493  -29.3780   20.7261 C   0  0  0  0  0  0
  -27.2222  -28.5549   20.7207 C   0  0  0  0  0  0
  -26.0258  -26.8522   19.4862 C   0  0  0  0  0  0
  -24.8732  -27.6596   19.4895 C   0  0  0  0  0  0
  -23.6532  -29.8030   20.1567 C   0  0  0  0  0  0
  -25.4115  -36.3054   24.0334 C   0  0  1  0  0  0
  -20.5895  -28.3702   23.1260 C   0  0  2  0  0  0
  -20.6774  -26.9418   22.5404 C   0  0  0  0  0  0
  -19.5755  -26.6387   21.5205 C   0  0  0  0  0  0
  -18.1936  -26.7938   22.1614 C   0  0  0  0  0  0
  -19.1545  -28.8867   23.2869 C   0  0  0  0  0  0
  -18.9471  -30.1466   23.8893 C   0  0  0  0  0  0
  -17.6471  -30.6595   24.0563 C   0  0  0  0  0  0
  -25.9054  -34.9429   23.5085 C   0  0  0  0  0  0
  -16.5363  -29.9088   23.6338 C   0  0  0  0  0  0
  -16.7282  -28.6502   23.0363 C   0  0  0  0  0  0
  -26.4527  -31.6579   25.0718 C   0  0  0  0  0  0
  -25.3759  -31.3715   26.1443 C   0  0  0  0  0  0
  -27.0380  -30.3010   24.6184 C   0  0  0  0  0  0
  -27.6089  -32.4314   25.7483 C   0  0  0  0  0  0
  -27.5561  -37.1791   24.8471 C   0  0  0  0  0  0
  -21.4204  -29.3051   22.3644 N   0  0  0  0  0  0
  -26.4274  -37.3761   23.9412 N   0  0  0  0  0  0
  -24.7001  -31.0465   22.0953 N   0  0  0  0  0  0
  -23.4185  -28.8139   23.3008 O   0  0  0  0  0  0
  -28.3539  -26.3883   20.1556 O   0  0  0  0  0  0
  -26.5603  -34.8905   22.4642 O   0  0  0  0  0  0
  -23.5472  -32.1364   23.7231 O   0  0  0  0  0  0
  -28.9773  -18.2177   21.2517 C   0  0  0  0  0  0
  -30.2034  -18.1323   19.1143 C   0  0  0  0  0  0
  -29.5774  -24.3565   19.2006 C   0  0  0  0  0  0
  -28.1906  -23.9711   21.1912 C   0  0  0  0  0  0
  -29.6880  -16.8001   21.4890 C   0  0  0  0  0  0
  -29.7134  -16.6324   19.0619 C   0  0  0  0  0  0
  -29.6532  -22.7865   18.9846 C   0  0  0  0  0  0
  -28.3277  -22.3866   20.9859 C   0  0  0  0  0  0
  -29.3867  -19.1214   20.0220 C   0  0  0  0  0  0
  -28.3008  -24.8906   19.9171 C   0  0  1  0  0  0
  -32.1478  -22.6671   22.1302 C   0  0  0  0  0  0
  -32.0031  -20.7352   23.7297 C   0  0  0  0  0  0
  -31.3175  -20.3765   21.3084 C   0  0  0  0  0  0
  -30.1716  -20.5366   20.2639 C   0  0  2  0  0  0
  -31.3775  -21.3814   22.4873 C   0  0  0  0  0  0
  -29.8194  -15.8598   20.3350 N   0  0  0  0  0  0
  -29.5738  -21.9831   20.2533 N   0  3  1  0  0  0
  -31.4695  -12.5075   19.1645 H   0  0  0  0  0  0
  -30.3384  -11.4354   19.9378 H   0  0  0  0  0  0
  -29.7772  -11.7051   17.4981 H   0  0  0  0  0  0
  -29.6551  -13.4338   17.7015 H   0  0  0  0  0  0
  -27.8584  -11.2811   18.8663 H   0  0  0  0  0  0
  -27.3828  -12.5524   17.7711 H   0  0  0  0  0  0
  -27.6325  -14.2473   19.4557 H   0  0  0  0  0  0
  -28.7157  -12.1545   21.4052 H   0  0  0  0  0  0
  -28.4406  -13.8438   21.7711 H   0  0  0  0  0  0
  -25.2791   -9.5713   22.4699 H   0  0  0  0  0  0
  -24.0029   -7.4660   22.7464 H   0  0  0  0  0  0
  -21.0846   -8.8773   19.8947 H   0  0  0  0  0  0
  -22.3689  -10.9672   19.6127 H   0  0  0  0  0  0
  -21.2018   -7.6136   23.9708 H   0  0  0  0  0  0
  -21.1482   -6.0500   25.9069 H   0  0  0  0  0  0
  -22.0596   -2.7594   23.2837 H   0  0  0  0  0  0
  -22.4098  -11.9995   22.4891 H   0  0  0  0  0  0
  -21.1048  -13.1250   22.2411 H   0  0  0  0  0  0
  -24.6879  -15.8632   20.5686 H   0  0  0  0  0  0
  -26.3030  -15.6278   20.1388 H   0  0  0  0  0  0
  -26.7202  -32.5387   23.1059 H   0  0  0  0  0  0
  -25.0184  -33.9703   25.0458 H   0  0  0  0  0  0
  -22.7297  -31.2963   21.3834 H   0  0  0  0  0  0
  -23.3753  -35.9590   23.3322 H   0  0  0  0  0  0
  -24.3571  -36.8858   22.2052 H   0  0  0  0  0  0
  -23.7244  -37.6472   23.6650 H   0  0  0  0  0  0
  -26.1099  -31.5152   20.6037 H   0  0  0  0  0  0
  -26.8557  -30.8164   22.0089 H   0  0  0  0  0  0
  -28.1193  -28.9037   21.2120 H   0  0  0  0  0  0
  -25.9319  -25.9117   18.9679 H   0  0  0  0  0  0
  -23.9788  -27.3015   18.9991 H   0  0  0  0  0  0
  -23.7828  -30.5712   19.3934 H   0  0  0  0  0  0
  -22.7744  -29.2325   19.8519 H   0  0  0  0  0  0
  -25.1301  -36.1897   25.0828 H   0  0  0  0  0  0
  -20.9997  -28.3279   24.1378 H   0  0  0  0  0  0
  -20.5649  -26.2322   23.3612 H   0  0  0  0  0  0
  -21.6645  -26.7425   22.1215 H   0  0  0  0  0  0
  -19.6909  -25.6291   21.1250 H   0  0  0  0  0  0
  -19.6696  -27.3179   20.6717 H   0  0  0  0  0  0
  -17.4206  -26.6702   21.4012 H   0  0  0  0  0  0
  -18.0326  -26.0077   22.9000 H   0  0  0  0  0  0
  -19.7948  -30.7281   24.2254 H   0  0  0  0  0  0
  -17.5030  -31.6275   24.5159 H   0  0  0  0  0  0
  -15.5362  -30.2989   23.7667 H   0  0  0  0  0  0
  -15.8683  -28.0816   22.7091 H   0  0  0  0  0  0
  -24.5982  -30.6997   25.7787 H   0  0  0  0  0  0
  -24.8900  -32.2872   26.4820 H   0  0  0  0  0  0
  -25.8114  -30.8961   27.0242 H   0  0  0  0  0  0
  -26.2958  -29.6742   24.1225 H   0  0  0  0  0  0
  -27.4112  -29.7279   25.4681 H   0  0  0  0  0  0
  -27.8809  -30.4309   23.9395 H   0  0  0  0  0  0
  -27.2733  -33.3653   26.1998 H   0  0  0  0  0  0
  -28.3938  -32.6797   25.0329 H   0  0  0  0  0  0
  -28.0705  -31.8468   26.5449 H   0  0  0  0  0  0
  -28.2604  -38.0066   24.7490 H   0  0  0  0  0  0
  -28.1036  -36.2596   24.6336 H   0  0  0  0  0  0
  -27.2274  -37.1481   25.8876 H   0  0  0  0  0  0
  -20.9387  -29.8803   21.6875 H   0  0  0  0  0  0
  -26.0150  -38.2828   24.1433 H   0  0  0  0  0  0
  -29.0372  -18.8029   22.1687 H   0  0  0  0  0  0
  -27.9105  -18.0128   21.1447 H   0  0  0  0  0  0
  -30.2362  -18.5275   18.0971 H   0  0  0  0  0  0
  -31.2402  -18.1210   19.4499 H   0  0  0  0  0  0
  -29.6566  -24.8465   18.2298 H   0  0  0  0  0  0
  -30.4562  -24.6858   19.7556 H   0  0  0  0  0  0
  -28.9578  -24.2898   21.8988 H   0  0  0  0  0  0
  -27.2437  -24.1786   21.6907 H   0  0  0  0  0  0
  -29.1344  -16.2718   22.2678 H   0  0  0  0  0  0
  -30.6838  -16.9586   21.9004 H   0  0  0  0  0  0
  -28.6701  -16.6152   18.7470 H   0  0  0  0  0  0
  -30.2542  -16.1141   18.2668 H   0  0  0  0  0  0
  -30.5850  -22.5694   18.4603 H   0  0  0  0  0  0
  -28.8490  -22.4632   18.3244 H   0  0  0  0  0  0
  -27.4624  -21.9955   20.4497 H   0  0  0  0  0  0
  -28.3043  -21.9097   21.9657 H   0  0  0  0  0  0
  -28.4710  -19.3645   19.4820 H   0  0  0  0  0  0
  -27.4785  -24.6310   19.2559 H   0  0  0  0  0  0
  -32.2047  -23.3422   22.9844 H   0  0  0  0  0  0
  -31.7039  -23.2284   21.3123 H   0  0  0  0  0  0
  -33.1753  -22.4382   21.8429 H   0  0  0  0  0  0
  -31.9403  -21.4119   24.5831 H   0  0  0  0  0  0
  -33.0537  -20.4784   23.5810 H   0  0  0  0  0  0
  -31.4653  -19.8261   24.0041 H   0  0  0  0  0  0
  -32.2800  -20.3719   20.7934 H   0  0  0  0  0  0
  -31.2691  -19.3691   21.7184 H   0  0  0  0  0  0
  -30.7349  -20.5838   19.3322 H   0  0  0  0  0  0
  -30.3677  -21.6447   22.7972 H   0  0  0  0  0  0
  -30.2944  -22.4182   20.8132 H   0  0  0  0  0  0
  1 25  1  0  0  0
  1 30  2  0  0  0
  1 86  1  0  0  0
  2  3  1  0  0  0
  2 25  1  0  0  0
  2 88  1  0  0  0
  2 89  1  0  0  0
  3  4  1  0  0  0
  3 90  1  0  0  0
  3 91  1  0  0  0
  4  5  1  0  0  0
  4 92  1  0  0  0
  4 93  1  0  0  0
  5  6  1  0  0  0
  5 26  1  0  0  0
  5 94  1  0  0  0
  6 25  1  0  0  0
  6 95  1  0  0  0
  6 96  1  0  0  0
  7  8  2  0  0  0
  7 26  1  0  0  0
  7 29  1  0  0  0
  8  9  1  0  0  0
  8 22  1  0  0  0
  9 10  1  0  0  0
  9 27  2  0  0  0
 10 11  2  0  0  0
 10 15  1  0  0  0
 11 12  1  0  0  0
 11 97  1  0  0  0
 12 13  2  0  0  0
 12 98  1  0  0  0
 13 14  1  0  0  0
 13 31  1  0  0  0
 14 15  2  0  0  0
 14 99  1  0  0  0
 15100  1  0  0  0
 16 17  2  0  0  0
 16 21  1  0  0  0
 16 31  1  0  0  0
 17 18  1  0  0  0
 17101  1  0  0  0
 18 19  2  0  0  0
 18102  1  0  0  0
 19 20  1  0  0  0
 19 24  1  0  0  0
 20 21  2  0  0  0
 20103  1  0  0  0
 21 23  1  0  0  0
 22 28  1  0  0  0
 22 32  2  0  0  0
 26 27  1  0  0  0
 28104  1  0  0  0
 28105  1  0  0  0
 29106  1  0  0  0
 29107  1  0  0  0
 33 34  1  0  0  0
 33 66  1  0  0  0
 33 70  2  0  0  0
 34 36  1  0  0  0
 34 59  1  0  0  0
 34108  1  0  0  0
 35 44  2  0  0  0
 35 45  1  0  0  0
 35 68  1  0  0  0
 36 56  1  0  0  0
 36109  1  0  0  0
 37 39  1  0  0  0
 37 47  1  0  0  0
 37 66  1  0  0  0
 37110  1  0  0  0
 38 43  2  0  0  0
 38 46  1  0  0  0
 38 47  1  0  0  0
 39 64  1  0  0  0
 39 67  2  0  0  0
 40 52  1  0  0  0
 40 53  2  0  0  0
 40 58  1  0  0  0
 41111  1  0  0  0
 41112  1  0  0  0
 41113  1  0  0  0
 41 48  1  0  0  0
 42 43  1  0  0  0
 42 66  1  0  0  0
 42114  1  0  0  0
 42115  1  0  0  0
 43 44  1  0  0  0
 44116  1  0  0  0
 45 46  2  0  0  0
 45117  1  0  0  0
 46118  1  0  0  0
 47119  1  0  0  0
 47120  1  0  0  0
 48 56  1  0  0  0
 48 65  1  0  0  0
 48121  1  0  0  0
 49 50  1  0  0  0
 49 53  1  0  0  0
 49 64  1  0  0  0
 49122  1  0  0  0
 50 51  1  0  0  0
 50123  1  0  0  0
 50124  1  0  0  0
 51 52  1  0  0  0
 51125  1  0  0  0
 51126  1  0  0  0
 52127  1  0  0  0
 52128  1  0  0  0
 53 54  1  0  0  0
 54 55  2  0  0  0
 54129  1  0  0  0
 55 57  1  0  0  0
 55130  1  0  0  0
 56 69  2  0  0  0
 57 58  2  0  0  0
 57131  1  0  0  0
 58132  1  0  0  0
 59 60  1  0  0  0
 59 61  1  0  0  0
 59 62  1  0  0  0
 60133  1  0  0  0
 60134  1  0  0  0
 60135  1  0  0  0
 61136  1  0  0  0
 61137  1  0  0  0
 61138  1  0  0  0
 62139  1  0  0  0
 62140  1  0  0  0
 62141  1  0  0  0
 63 65  1  0  0  0
 63142  1  0  0  0
 63143  1  0  0  0
 63144  1  0  0  0
 64145  1  0  0  0
 65146  1  0  0  0
 68 80  1  0  0  0
 71 75  1  0  0  0
 71147  1  0  0  0
 71148  1  0  0  0
 71 79  1  0  0  0
 72 76  1  0  0  0
 72 79  1  0  0  0
 72149  1  0  0  0
 72150  1  0  0  0
 73 77  1  0  0  0
 73 80  1  0  0  0
 73151  1  0  0  0
 73152  1  0  0  0
 74 78  1  0  0  0
 74 80  1  0  0  0
 74153  1  0  0  0
 74154  1  0  0  0
 75 86  1  0  0  0
 75155  1  0  0  0
 75156  1  0  0  0
 76 86  1  0  0  0
 76157  1  0  0  0
 76158  1  0  0  0
 77159  1  0  0  0
 77160  1  0  0  0
 77 87  1  0  0  0
 78 87  1  0  0  0
 78161  1  0  0  0
 78162  1  0  0  0
 79 84  1  0  0  0
 79163  1  0  0  0
 80164  1  0  0  0
 81165  1  0  0  0
 81166  1  0  0  0
 81167  1  0  0  0
 81 85  1  0  0  0
 82 85  1  0  0  0
 82168  1  0  0  0
 82169  1  0  0  0
 82170  1  0  0  0
 83 85  1  0  0  0
 83171  1  0  0  0
 83172  1  0  0  0
 83 84  1  0  0  0
 84 87  1  0  0  0
 84173  1  0  0  0
 85174  1  0  0  0
 87175  1  0  0  0
M  CHG  1  87   1
M  ISO  4   1 100  68 101  80 101  86 100
M  END
> <chiral flag>
0

> <version>
0

> <s_m_source_file>
/data/baiqing/PycharmProjects/Reinvent-master-3.2/result/LINK_invent/BTK/process_docking_weight1_custom_sum_contain_oxygen_bond_distance_aromatic_linkinvent_7_9_3/rearranged_h_0153.sdf

> <i_m_source_file_index>
55

> <r_mmod_Potential_Energy-OPLS-2005>
464.795623779297

> <r_mmod_Stretch_Energy-OPLS-2005>
130.49040222168

> <r_mmod_Bend_Energy-OPLS-2005>
247.616424560547

> <r_mmod_Torsional_Energy-OPLS-2005>
434.862121582031

> <r_mmod_Improper_Torsional_Energy-OPLS-2005>
13.1095151901245

> <r_mmod_Van_der_Waal_Energy-OPLS-2005>
124.483421325684

> <r_mmod_Electrostatic_Energy-OPLS-2005>
-157.16845703125

> <r_mmod_Solvation_Energy-OPLS-2005>
-408.787353515625

> <b_mmod_Minimization_Converged-OPLS-2005>
0

> <r_mmod_RMS_Derivative-OPLS-2005>
3.84610724449158

$$$$
55
                    3D
 Structure written by MMmdl.
164173  0  0  1  0            999 V2000
  -30.6416  -14.8750   20.4027 C   0  0  0  0  0  0
  -30.4259  -12.5605   19.4705 C   0  0  0  0  0  0
  -29.4989  -12.4848   18.2376 C   0  0  0  0  0  0
  -28.0365  -12.2889   18.6753 C   0  0  0  0  0  0
  -27.6235  -13.2459   19.8250 C   0  0  2  0  0  0
  -28.6790  -13.3065   20.9531 C   0  0  0  0  0  0
  -25.2438  -13.8183   20.5672 C   0  0  0  0  0  0
  -24.1771  -13.0381   20.9270 C   0  0  0  0  0  0
  -24.6405  -11.6897   20.8835 C   0  0  0  0  0  0
  -23.9098  -10.4263   21.0470 C   0  0  0  0  0  0
  -24.3640   -9.4172   21.9230 C   0  0  0  0  0  0
  -23.6292   -8.2222   22.0769 C   0  0  0  0  0  0
  -22.4290   -8.0284   21.3535 C   0  0  0  0  0  0
  -21.9934   -9.0291   20.4662 C   0  0  0  0  0  0
  -22.7272  -10.2166   20.3097 C   0  0  0  0  0  0
  -21.6852   -6.0752   22.5291 C   0  0  0  0  0  0
  -21.3998   -6.5640   23.8223 C   0  0  0  0  0  0
  -21.3648   -5.6791   24.9177 C   0  0  0  0  0  0
  -21.6034   -4.3057   24.7229 C   0  0  0  0  0  0
  -21.8809   -3.8152   23.4344 C   0  0  0  0  0  0
  -21.9180   -4.6975   22.3404 C   0  0  0  0  0  0
  -22.7811  -13.5220   21.1855 C   0  0  0  0  0  0
  -22.1655   -4.2133   21.0989 F   0  0  0  0  0  0
  -21.5623   -3.4553   25.7754 F   0  0  0  0  0  0
  -29.9501  -13.6823   20.3239 N   0  0  0  0  0  0
  -26.2870  -12.9417   20.3292 N   0  0  0  0  0  0
  -25.9315  -11.6552   20.5798 N   0  0  0  0  0  0
  -22.0451  -12.8268   22.0448 N   0  0  0  0  0  0
  -25.4066  -15.1881   20.3971 N   0  0  0  0  0  0
  -31.8512  -14.8429   20.1778 O   0  0  0  0  0  0
  -21.6627   -6.8897   21.4250 O   0  0  0  0  0  0
  -22.3520  -14.5493   20.6626 O   0  0  0  0  0  0
  -24.6319  -31.8502   23.1945 C   0  0  0  0  0  0
  -25.9131  -32.4748   23.8281 C   0  0  1  0  0  0
  -27.2457  -27.2596   20.0844 C   0  0  0  0  0  0
  -25.5948  -33.8553   24.2249 N   0  0  0  0  0  0
  -23.4328  -30.4722   21.5351 C   0  0  2  0  0  0
  -24.8852  -28.9084   20.1097 C   0  0  0  0  0  0
  -22.7532  -29.4588   22.4845 C   0  0  0  0  0  0
  -18.0280  -28.1447   22.8364 C   0  0  0  0  0  0
  -24.1513  -36.7281   23.2648 C   0  0  0  0  0  0
  -25.9791  -30.7639   21.3741 C   0  0  0  0  0  0
  -26.0552  -29.3802   20.7150 C   0  0  0  0  0  0
  -27.2335  -28.5654   20.6917 C   0  0  0  0  0  0
  -26.0367  -26.8441   19.4874 C   0  0  0  0  0  0
  -24.8778  -27.6440   19.4990 C   0  0  0  0  0  0
  -23.6511  -29.7900   20.1569 C   0  0  0  0  0  0
  -25.4117  -36.3077   24.0333 C   0  0  1  0  0  0
  -20.5921  -28.3705   23.1186 C   0  0  2  0  0  0
  -20.6759  -26.9414   22.5215 C   0  0  0  0  0  0
  -19.5665  -26.6492   21.5018 C   0  0  0  0  0  0
  -18.1895  -26.8020   22.1493 C   0  0  0  0  0  0
  -19.1560  -28.8903   23.2776 C   0  0  0  0  0  0
  -18.9470  -30.1436   23.8845 C   0  0  0  0  0  0
  -17.6474  -30.6564   24.0566 C   0  0  0  0  0  0
  -25.9032  -34.9456   23.5071 C   0  0  0  0  0  0
  -16.5348  -29.9102   23.6272 C   0  0  0  0  0  0
  -16.7272  -28.6557   23.0217 C   0  0  0  0  0  0
  -26.4500  -31.6597   25.0679 C   0  0  0  0  0  0
  -25.3702  -31.3751   26.1387 C   0  0  0  0  0  0
  -27.0335  -30.2999   24.6172 C   0  0  0  0  0  0
  -27.6057  -32.4317   25.7445 C   0  0  0  0  0  0
  -27.5591  -37.1778   24.8462 C   0  0  0  0  0  0
  -21.4233  -29.3129   22.3677 N   0  0  0  0  0  0
  -26.4292  -37.3764   23.9417 N   0  0  0  0  0  0
  -24.6990  -31.0457   22.0911 N   0  0  0  0  0  0
  -23.4163  -28.8069   23.2955 O   0  0  0  0  0  0
  -28.3834  -26.4146   20.1084 O   0  0  0  0  0  0
  -26.5640  -34.8907   22.4662 O   0  0  0  0  0  0
  -23.5444  -32.1350   23.7216 O   0  0  0  0  0  0
  -26.7132  -19.9787   21.8486 C   0  0  0  0  0  0
  -27.1598  -21.0889   21.1291 C   0  0  0  0  0  0
  -28.9547  -19.7075   20.2108 C   0  0  0  0  0  0
  -27.3736  -18.7316   21.8015 C   0  0  0  0  0  0
  -28.4901  -18.5019   20.9346 C   0  0  0  0  0  0
  -28.3226  -21.0451   20.3322 C   0  0  0  0  0  0
  -29.3080  -16.7577   22.6011 C   0  0  0  0  0  0
  -29.0197  -16.9460   21.0875 C   0  0  1  0  0  0
  -26.9502  -17.6026   22.7637 C   0  0  2  0  0  0
  -24.4216  -17.7438   23.1624 C   0  0  0  0  0  0
  -25.8179  -17.9171   23.7728 C   0  0  0  0  0  0
  -28.4830  -25.0489   19.4524 C   0  0  0  0  0  0
  -28.4172  -23.6537   20.2903 C   0  0  0  0  0  0
  -30.0355  -16.1454   20.2780 N   0  0  0  0  0  0
  -28.1628  -17.1312   23.4658 N   0  3  0  0  0  0
  -28.7372  -22.2806   19.7126 O   0  0  0  0  0  0
  -31.4557  -12.6946   19.1307 H   0  0  0  0  0  0
  -30.4111  -11.6240   20.0301 H   0  0  0  0  0  0
  -29.8061  -11.6605   17.5903 H   0  0  0  0  0  0
  -29.5863  -13.3918   17.6384 H   0  0  0  0  0  0
  -27.9309  -11.2536   19.0018 H   0  0  0  0  0  0
  -27.3697  -12.4025   17.8194 H   0  0  0  0  0  0
  -27.5738  -14.2362   19.3680 H   0  0  0  0  0  0
  -28.7752  -12.3415   21.4549 H   0  0  0  0  0  0
  -28.3892  -14.0366   21.7134 H   0  0  0  0  0  0
  -25.2789   -9.5633   22.4797 H   0  0  0  0  0  0
  -23.9989   -7.4600   22.7469 H   0  0  0  0  0  0
  -21.0856   -8.8804   19.8994 H   0  0  0  0  0  0
  -22.3712  -10.9705   19.6209 H   0  0  0  0  0  0
  -21.1995   -7.6143   23.9705 H   0  0  0  0  0  0
  -21.1482   -6.0538   25.9069 H   0  0  0  0  0  0
  -22.0607   -2.7608   23.2860 H   0  0  0  0  0  0
  -22.4065  -12.0002   22.4946 H   0  0  0  0  0  0
  -21.1065  -13.1306   22.2579 H   0  0  0  0  0  0
  -24.5718  -15.7595   20.3265 H   0  0  0  0  0  0
  -26.1680  -15.5575   19.8440 H   0  0  0  0  0  0
  -26.7251  -32.5396   23.1060 H   0  0  0  0  0  0
  -25.0046  -33.9700   25.0367 H   0  0  0  0  0  0
  -22.7271  -31.2904   21.3739 H   0  0  0  0  0  0
  -23.3786  -35.9613   23.3283 H   0  0  0  0  0  0
  -24.3616  -36.8904   22.2074 H   0  0  0  0  0  0
  -23.7244  -37.6462   23.6659 H   0  0  0  0  0  0
  -26.1158  -31.5260   20.6033 H   0  0  0  0  0  0
  -26.8582  -30.8166   22.0065 H   0  0  0  0  0  0
  -28.1374  -28.9288   21.1620 H   0  0  0  0  0  0
  -25.9550  -25.8751   19.0246 H   0  0  0  0  0  0
  -23.9715  -27.2713   19.0420 H   0  0  0  0  0  0
  -23.7821  -30.5547   19.3906 H   0  0  0  0  0  0
  -22.7763  -29.2099   19.8536 H   0  0  0  0  0  0
  -25.1313  -36.1937   25.0825 H   0  0  0  0  0  0
  -20.9999  -28.3109   24.1327 H   0  0  0  0  0  0
  -20.5688  -26.2268   23.3388 H   0  0  0  0  0  0
  -21.6630  -26.7584   22.0918 H   0  0  0  0  0  0
  -19.6797  -25.6466   21.0800 H   0  0  0  0  0  0
  -19.6560  -27.3460   20.6648 H   0  0  0  0  0  0
  -17.4156  -26.6711   21.3964 H   0  0  0  0  0  0
  -18.0335  -26.0258   22.8992 H   0  0  0  0  0  0
  -19.7889  -30.7181   24.2397 H   0  0  0  0  0  0
  -17.5030  -31.6174   24.5337 H   0  0  0  0  0  0
  -15.5373  -30.3056   23.7538 H   0  0  0  0  0  0
  -15.8671  -28.0896   22.6826 H   0  0  0  0  0  0
  -24.5904  -30.7081   25.7705 H   0  0  0  0  0  0
  -24.8857  -32.2919   26.4744 H   0  0  0  0  0  0
  -25.8001  -30.8964   27.0201 H   0  0  0  0  0  0
  -26.2918  -29.6722   24.1198 H   0  0  0  0  0  0
  -27.4044  -29.7278   25.4703 H   0  0  0  0  0  0
  -27.8803  -30.4276   23.9406 H   0  0  0  0  0  0
  -27.2705  -33.3635   26.1998 H   0  0  0  0  0  0
  -28.3869  -32.6826   25.0265 H   0  0  0  0  0  0
  -28.0729  -31.8435   26.5352 H   0  0  0  0  0  0
  -28.2585  -38.0099   24.7517 H   0  0  0  0  0  0
  -28.1103  -36.2613   24.6283 H   0  0  0  0  0  0
  -27.2294  -37.1429   25.8860 H   0  0  0  0  0  0
  -20.9358  -29.9083   21.7119 H   0  0  0  0  0  0
  -26.0190  -38.2842   24.1402 H   0  0  0  0  0  0
  -25.8241  -20.1283   22.4493 H   0  0  0  0  0  0
  -26.5597  -21.9750   21.2326 H   0  0  0  0  0  0
  -29.8254  -19.6257   19.5778 H   0  0  0  0  0  0
  -30.1312  -17.4212   22.8699 H   0  0  0  0  0  0
  -29.6242  -15.7454   22.8547 H   0  0  0  0  0  0
  -28.1490  -16.3444   20.8382 H   0  0  0  0  0  0
  -26.5660  -16.7778   22.1659 H   0  0  0  0  0  0
  -24.1866  -16.6840   23.0557 H   0  0  0  0  0  0
  -24.3554  -18.1975   22.1668 H   0  0  0  0  0  0
  -23.6578  -18.1885   23.7962 H   0  0  0  0  0  0
  -25.9249  -18.9133   24.2053 H   0  0  0  0  0  0
  -25.8735  -17.2324   24.6265 H   0  0  0  0  0  0
  -27.8300  -25.0125   18.5817 H   0  0  0  0  0  0
  -29.4768  -25.0475   19.0019 H   0  0  0  0  0  0
  -27.4476  -23.6936   20.7698 H   0  0  0  0  0  0
  -29.1406  -23.7786   21.0950 H   0  0  0  0  0  0
  -30.6884  -16.7825   19.8497 H   0  0  0  0  0  0
  -28.4699  -17.8690   24.0826 H   0  0  0  0  0  0
  -27.9210  -16.3427   24.0437 H   0  0  0  0  0  0
  1 25  1  0  0  0
  1 30  2  0  0  0
  1 84  1  0  0  0
  2  3  1  0  0  0
  2 25  1  0  0  0
  2 87  1  0  0  0
  2 88  1  0  0  0
  3  4  1  0  0  0
  3 89  1  0  0  0
  3 90  1  0  0  0
  4  5  1  0  0  0
  4 91  1  0  0  0
  4 92  1  0  0  0
  5  6  1  0  0  0
  5 26  1  0  0  0
  5 93  1  0  0  0
  6 25  1  0  0  0
  6 94  1  0  0  0
  6 95  1  0  0  0
  7  8  2  0  0  0
  7 26  1  0  0  0
  7 29  1  0  0  0
  8  9  1  0  0  0
  8 22  1  0  0  0
  9 10  1  0  0  0
  9 27  2  0  0  0
 10 11  2  0  0  0
 10 15  1  0  0  0
 11 12  1  0  0  0
 11 96  1  0  0  0
 12 13  2  0  0  0
 12 97  1  0  0  0
 13 14  1  0  0  0
 13 31  1  0  0  0
 14 15  2  0  0  0
 14 98  1  0  0  0
 15 99  1  0  0  0
 16 17  2  0  0  0
 16 21  1  0  0  0
 16 31  1  0  0  0
 17 18  1  0  0  0
 17100  1  0  0  0
 18 19  2  0  0  0
 18101  1  0  0  0
 19 20  1  0  0  0
 19 24  1  0  0  0
 20 21  2  0  0  0
 20102  1  0  0  0
 21 23  1  0  0  0
 22 28  1  0  0  0
 22 32  2  0  0  0
 26 27  1  0  0  0
 28103  1  0  0  0
 28104  1  0  0  0
 29105  1  0  0  0
 29106  1  0  0  0
 33 34  1  0  0  0
 33 66  1  0  0  0
 33 70  2  0  0  0
 34 36  1  0  0  0
 34 59  1  0  0  0
 34107  1  0  0  0
 35 44  2  0  0  0
 35 45  1  0  0  0
 35 68  1  0  0  0
 36 56  1  0  0  0
 36108  1  0  0  0
 37 39  1  0  0  0
 37 47  1  0  0  0
 37 66  1  0  0  0
 37109  1  0  0  0
 38 43  2  0  0  0
 38 46  1  0  0  0
 38 47  1  0  0  0
 39 64  1  0  0  0
 39 67  2  0  0  0
 40 52  1  0  0  0
 40 53  2  0  0  0
 40 58  1  0  0  0
 41110  1  0  0  0
 41111  1  0  0  0
 41112  1  0  0  0
 41 48  1  0  0  0
 42 43  1  0  0  0
 42 66  1  0  0  0
 42113  1  0  0  0
 42114  1  0  0  0
 43 44  1  0  0  0
 44115  1  0  0  0
 45 46  2  0  0  0
 45116  1  0  0  0
 46117  1  0  0  0
 47118  1  0  0  0
 47119  1  0  0  0
 48 56  1  0  0  0
 48 65  1  0  0  0
 48120  1  0  0  0
 49 50  1  0  0  0
 49 53  1  0  0  0
 49 64  1  0  0  0
 49121  1  0  0  0
 50 51  1  0  0  0
 50122  1  0  0  0
 50123  1  0  0  0
 51 52  1  0  0  0
 51124  1  0  0  0
 51125  1  0  0  0
 52126  1  0  0  0
 52127  1  0  0  0
 53 54  1  0  0  0
 54 55  2  0  0  0
 54128  1  0  0  0
 55 57  1  0  0  0
 55129  1  0  0  0
 56 69  2  0  0  0
 57 58  2  0  0  0
 57130  1  0  0  0
 58131  1  0  0  0
 59 60  1  0  0  0
 59 61  1  0  0  0
 59 62  1  0  0  0
 60132  1  0  0  0
 60133  1  0  0  0
 60134  1  0  0  0
 61135  1  0  0  0
 61136  1  0  0  0
 61137  1  0  0  0
 62138  1  0  0  0
 62139  1  0  0  0
 62140  1  0  0  0
 63 65  1  0  0  0
 63141  1  0  0  0
 63142  1  0  0  0
 63143  1  0  0  0
 64144  1  0  0  0
 65145  1  0  0  0
 68 82  1  0  0  0
 71 72  2  0  0  0
 71 74  1  0  0  0
 71146  1  0  0  0
 72 76  1  0  0  0
 72147  1  0  0  0
 73 75  1  0  0  0
 73 76  2  0  0  0
 73148  1  0  0  0
 74 75  2  0  0  0
 74 79  1  0  0  0
 75 78  1  0  0  0
 76 86  1  0  0  0
 77 78  1  0  0  0
 77 85  1  0  0  0
 77149  1  0  0  0
 77150  1  0  0  0
 78 84  1  0  0  0
 78151  1  0  0  0
 79 81  1  0  0  0
 79 85  1  0  0  0
 79152  1  0  0  0
 80 81  1  0  0  0
 80153  1  0  0  0
 80154  1  0  0  0
 80155  1  0  0  0
 81156  1  0  0  0
 81157  1  0  0  0
 82 83  1  0  0  0
 82158  1  0  0  0
 82159  1  0  0  0
 83 86  1  0  0  0
 83160  1  0  0  0
 83161  1  0  0  0
 84162  1  0  0  0
 85163  1  0  0  0
 85164  1  0  0  0
M  CHG  1  85   1
M  ISO  4   1 100  68 101  82 101  84 100
M  END
> <chiral flag>
0

> <version>
0

> <s_m_source_file>
/data/baiqing/PycharmProjects/Reinvent-master-3.2/result/LINK_invent/BTK/process_docking_weight1_custom_sum_contain_oxygen_bond_distance_aromatic_linkinvent_7_9_3/rearranged_h_0153.sdf

> <i_m_source_file_index>
56

> <r_mmod_Potential_Energy-OPLS-2005>
207.586349487305

> <r_mmod_Stretch_Energy-OPLS-2005>
181.133758544922

> <r_mmod_Bend_Energy-OPLS-2005>
302.150482177734

> <r_mmod_Torsional_Energy-OPLS-2005>
287.543182373047

> <r_mmod_Improper_Torsional_Energy-OPLS-2005>
18.9971122741699

> <r_mmod_Van_der_Waal_Energy-OPLS-2005>
152.981369018555

> <r_mmod_Electrostatic_Energy-OPLS-2005>
-382.733642578125

> <r_mmod_Solvation_Energy-OPLS-2005>
-479.207366943359

> <b_mmod_Minimization_Converged-OPLS-2005>
0

> <r_mmod_RMS_Derivative-OPLS-2005>
9.45068264007568

$$$$
56
                    3D
 Structure written by MMmdl.
166175  0  0  1  0            999 V2000
  -30.6704  -14.6634   20.5853 C   0  0  0  0  0  0
  -30.4318  -12.4315   19.4724 C   0  0  0  0  0  0
  -29.5098  -12.5295   18.2360 C   0  0  0  0  0  0
  -28.0349  -12.3501   18.6394 C   0  0  0  0  0  0
  -27.6477  -13.2271   19.8581 C   0  0  2  0  0  0
  -28.6833  -13.1039   20.9954 C   0  0  0  0  0  0
  -25.2464  -13.8152   20.5566 C   0  0  0  0  0  0
  -24.1781  -13.0412   20.9186 C   0  0  0  0  0  0
  -24.6398  -11.6901   20.8761 C   0  0  0  0  0  0
  -23.9090  -10.4277   21.0415 C   0  0  0  0  0  0
  -24.3653   -9.4200   21.9193 C   0  0  0  0  0  0
  -23.6308   -8.2242   22.0769 C   0  0  0  0  0  0
  -22.4281   -8.0303   21.3557 C   0  0  0  0  0  0
  -21.9926   -9.0279   20.4646 C   0  0  0  0  0  0
  -22.7273  -10.2144   20.3046 C   0  0  0  0  0  0
  -21.6865   -6.0740   22.5285 C   0  0  0  0  0  0
  -21.4014   -6.5636   23.8217 C   0  0  0  0  0  0
  -21.3659   -5.6786   24.9175 C   0  0  0  0  0  0
  -21.6045   -4.3053   24.7236 C   0  0  0  0  0  0
  -21.8815   -3.8144   23.4355 C   0  0  0  0  0  0
  -21.9192   -4.6960   22.3411 C   0  0  0  0  0  0
  -22.7817  -13.5220   21.1863 C   0  0  0  0  0  0
  -22.1658   -4.2137   21.0993 F   0  0  0  0  0  0
  -21.5627   -3.4539   25.7754 F   0  0  0  0  0  0
  -30.0091  -13.4573   20.4566 N   0  0  0  0  0  0
  -26.2944  -12.9388   20.3267 N   0  0  0  0  0  0
  -25.9336  -11.6540   20.5794 N   0  0  0  0  0  0
  -22.0471  -12.8206   22.0430 N   0  0  0  0  0  0
  -25.4011  -15.1843   20.3794 N   0  0  0  0  0  0
  -31.7606  -14.8355   20.0307 O   0  0  0  0  0  0
  -21.6645   -6.8894   21.4251 O   0  0  0  0  0  0
  -22.3507  -14.5531   20.6724 O   0  0  0  0  0  0
  -24.6289  -31.8594   23.2010 C   0  0  0  0  0  0
  -25.9125  -32.4779   23.8351 C   0  0  1  0  0  0
  -27.2230  -27.2944   20.1318 C   0  0  0  0  0  0
  -25.5933  -33.8579   24.2278 N   0  0  0  0  0  0
  -23.4246  -30.4826   21.5450 C   0  0  2  0  0  0
  -24.8727  -28.9349   20.1156 C   0  0  0  0  0  0
  -22.7493  -29.4624   22.4932 C   0  0  0  0  0  0
  -18.0292  -28.1385   22.8488 C   0  0  0  0  0  0
  -24.1488  -36.7292   23.2637 C   0  0  0  0  0  0
  -25.9685  -30.7839   21.3760 C   0  0  0  0  0  0
  -26.0450  -29.4079   20.7209 C   0  0  0  0  0  0
  -27.2272  -28.6019   20.7166 C   0  0  0  0  0  0
  -26.0274  -26.8825   19.5066 C   0  0  0  0  0  0
  -24.8671  -27.6773   19.4965 C   0  0  0  0  0  0
  -23.6420  -29.8181   20.1610 C   0  0  0  0  0  0
  -25.4112  -36.3081   24.0328 C   0  0  1  0  0  0
  -20.5895  -28.3698   23.1273 C   0  0  2  0  0  0
  -20.6783  -26.9421   22.5404 C   0  0  0  0  0  0
  -19.5754  -26.6386   21.5213 C   0  0  0  0  0  0
  -18.1934  -26.7928   22.1627 C   0  0  0  0  0  0
  -19.1545  -28.8860   23.2874 C   0  0  0  0  0  0
  -18.9464  -30.1462   23.8892 C   0  0  0  0  0  0
  -17.6463  -30.6589   24.0562 C   0  0  0  0  0  0
  -25.9054  -34.9452   23.5104 C   0  0  0  0  0  0
  -16.5355  -29.9085   23.6331 C   0  0  0  0  0  0
  -16.7278  -28.6499   23.0357 C   0  0  0  0  0  0
  -26.4502  -31.6588   25.0728 C   0  0  0  0  0  0
  -25.3726  -31.3729   26.1448 C   0  0  0  0  0  0
  -27.0350  -30.3008   24.6192 C   0  0  0  0  0  0
  -27.6055  -32.4328   25.7504 C   0  0  0  0  0  0
  -27.5577  -37.1803   24.8469 C   0  0  0  0  0  0
  -21.4206  -29.3047   22.3667 N   0  0  0  0  0  0
  -26.4292  -37.3775   23.9410 N   0  0  0  0  0  0
  -24.6929  -31.0592   22.0970 N   0  0  0  0  0  0
  -23.4202  -28.8163   23.3023 O   0  0  0  0  0  0
  -28.3049  -26.3925   20.1403 O   0  0  0  0  0  0
  -26.5621  -34.8917   22.4671 O   0  0  0  0  0  0
  -23.5446  -32.1398   23.7321 O   0  0  0  0  0  0
  -29.5762  -21.5831   21.2715 C   0  0  0  0  0  0
  -28.0738  -22.9593   19.3736 C   0  0  0  0  0  0
  -28.2570  -21.5348   19.2753 C   0  0  0  0  0  0
  -29.0146  -20.7852   20.2330 C   0  0  0  0  0  0
  -28.5835  -23.6848   20.4912 C   0  0  0  0  0  0
  -28.9101  -16.6027   23.1822 C   0  0  0  0  0  0
  -28.1899  -16.9539   21.8809 C   0  0  0  0  0  0
  -30.0389  -15.6566   22.7546 C   0  0  0  0  0  0
  -29.2971  -16.9172   20.8217 C   0  0  1  0  0  0
  -27.2746  -23.6976   18.3085 C   0  0  0  0  0  0
  -26.4891  -20.0440   18.6648 C   0  0  0  0  0  0
  -28.1032  -25.1439   20.9326 C   0  0  0  0  0  0
  -29.9512  -18.3947   20.7661 C   0  0  0  0  0  0
  -29.3278  -22.9361   21.3655 N   0  3  0  0  0  0
  -30.0792  -15.6992   21.2899 N   0  0  0  0  0  0
  -27.6265  -20.8465   18.2253 N   0  0  0  0  0  0
  -29.0851  -19.3681   20.0739 O   0  0  0  0  0  0
  -31.4732  -12.5492   19.1708 H   0  0  0  0  0  0
  -30.3671  -11.4389   19.9214 H   0  0  0  0  0  0
  -29.7852  -11.7748   17.4981 H   0  0  0  0  0  0
  -29.6461  -13.4975   17.7523 H   0  0  0  0  0  0
  -27.8862  -11.2972   18.8827 H   0  0  0  0  0  0
  -27.3805  -12.5612   17.7922 H   0  0  0  0  0  0
  -27.6605  -14.2606   19.5124 H   0  0  0  0  0  0
  -28.6965  -12.0886   21.3924 H   0  0  0  0  0  0
  -28.3814  -13.7404   21.8243 H   0  0  0  0  0  0
  -25.2809   -9.5683   22.4756 H   0  0  0  0  0  0
  -24.0019   -7.4627   22.7493 H   0  0  0  0  0  0
  -21.0853   -8.8822   19.8946 H   0  0  0  0  0  0
  -22.3757  -10.9708   19.6163 H   0  0  0  0  0  0
  -21.2001   -7.6140   23.9730 H   0  0  0  0  0  0
  -21.1492   -6.0508   25.9078 H   0  0  0  0  0  0
  -22.0587   -2.7601   23.2874 H   0  0  0  0  0  0
  -22.4098  -11.9890   22.4843 H   0  0  0  0  0  0
  -21.1077  -13.1206   22.2586 H   0  0  0  0  0  0
  -24.6169  -15.8234   20.4481 H   0  0  0  0  0  0
  -26.2451  -15.6221   20.0343 H   0  0  0  0  0  0
  -26.7198  -32.5444   23.1104 H   0  0  0  0  0  0
  -25.0084  -33.9721   25.0425 H   0  0  0  0  0  0
  -22.7190  -31.3033   21.4011 H   0  0  0  0  0  0
  -23.3750  -35.9627   23.3305 H   0  0  0  0  0  0
  -24.3578  -36.8907   22.2050 H   0  0  0  0  0  0
  -23.7242  -37.6497   23.6656 H   0  0  0  0  0  0
  -26.1004  -31.5448   20.6054 H   0  0  0  0  0  0
  -26.8479  -30.8352   22.0058 H   0  0  0  0  0  0
  -28.1260  -28.9634   21.1962 H   0  0  0  0  0  0
  -25.9669  -25.9180   19.0339 H   0  0  0  0  0  0
  -23.9705  -27.3066   19.0181 H   0  0  0  0  0  0
  -23.7625  -30.5948   19.4051 H   0  0  0  0  0  0
  -22.7613  -29.2495   19.8569 H   0  0  0  0  0  0
  -25.1292  -36.1937   25.0821 H   0  0  0  0  0  0
  -20.9982  -28.3273   24.1397 H   0  0  0  0  0  0
  -20.5692  -26.2310   23.3605 H   0  0  0  0  0  0
  -21.6649  -26.7455   22.1192 H   0  0  0  0  0  0
  -19.6919  -25.6297   21.1243 H   0  0  0  0  0  0
  -19.6685  -27.3194   20.6739 H   0  0  0  0  0  0
  -17.4204  -26.6673   21.4030 H   0  0  0  0  0  0
  -18.0339  -26.0071   22.9023 H   0  0  0  0  0  0
  -19.7941  -30.7279   24.2255 H   0  0  0  0  0  0
  -17.5018  -31.6267   24.5167 H   0  0  0  0  0  0
  -15.5355  -30.2985   23.7660 H   0  0  0  0  0  0
  -15.8676  -28.0815   22.7080 H   0  0  0  0  0  0
  -24.5898  -30.7089   25.7768 H   0  0  0  0  0  0
  -24.8923  -32.2898   26.4871 H   0  0  0  0  0  0
  -25.8038  -30.8901   27.0224 H   0  0  0  0  0  0
  -26.2933  -29.6757   24.1207 H   0  0  0  0  0  0
  -27.4036  -29.7267   25.4702 H   0  0  0  0  0  0
  -27.8806  -30.4295   23.9431 H   0  0  0  0  0  0
  -27.2658  -33.3621   26.2084 H   0  0  0  0  0  0
  -28.3862  -32.6899   25.0334 H   0  0  0  0  0  0
  -28.0728  -31.8455   26.5417 H   0  0  0  0  0  0
  -28.2601  -38.0092   24.7507 H   0  0  0  0  0  0
  -28.1065  -36.2625   24.6309 H   0  0  0  0  0  0
  -27.2293  -37.1468   25.8870 H   0  0  0  0  0  0
  -20.9389  -29.8769   21.6873 H   0  0  0  0  0  0
  -26.0175  -38.2855   24.1399 H   0  0  0  0  0  0
  -30.1665  -21.1709   22.0760 H   0  0  0  0  0  0
  -28.2399  -16.1522   23.9168 H   0  0  0  0  0  0
  -29.3346  -17.4986   23.6362 H   0  0  0  0  0  0
  -27.6568  -17.9030   21.9274 H   0  0  0  0  0  0
  -27.4552  -16.1792   21.6748 H   0  0  0  0  0  0
  -29.8647  -14.6484   23.1331 H   0  0  0  0  0  0
  -30.9974  -15.9806   23.1627 H   0  0  0  0  0  0
  -28.8760  -16.6914   19.8410 H   0  0  0  0  0  0
  -27.3776  -23.2462   17.3224 H   0  0  0  0  0  0
  -27.6321  -24.7199   18.1997 H   0  0  0  0  0  0
  -26.2162  -23.7097   18.5667 H   0  0  0  0  0  0
  -25.8721  -19.7667   17.8093 H   0  0  0  0  0  0
  -25.8557  -20.5971   19.3607 H   0  0  0  0  0  0
  -26.8041  -19.1220   19.1548 H   0  0  0  0  0  0
  -28.5647  -25.3477   21.8984 H   0  0  0  0  0  0
  -27.0433  -25.0320   21.1663 H   0  0  0  0  0  0
  -30.8989  -18.3517   20.2294 H   0  0  0  0  0  0
  -30.1822  -18.7492   21.7714 H   0  0  0  0  0  0
  -29.6980  -23.4131   22.1906 H   0  0  0  0  0  0
  -27.3771  -21.4750   17.4701 H   0  0  0  0  0  0
  1 25  1  0  0  0
  1 30  2  0  0  0
  1 85  1  0  0  0
  2  3  1  0  0  0
  2 25  1  0  0  0
  2 88  1  0  0  0
  2 89  1  0  0  0
  3  4  1  0  0  0
  3 90  1  0  0  0
  3 91  1  0  0  0
  4  5  1  0  0  0
  4 92  1  0  0  0
  4 93  1  0  0  0
  5  6  1  0  0  0
  5 26  1  0  0  0
  5 94  1  0  0  0
  6 25  1  0  0  0
  6 95  1  0  0  0
  6 96  1  0  0  0
  7  8  2  0  0  0
  7 26  1  0  0  0
  7 29  1  0  0  0
  8  9  1  0  0  0
  8 22  1  0  0  0
  9 10  1  0  0  0
  9 27  2  0  0  0
 10 11  2  0  0  0
 10 15  1  0  0  0
 11 12  1  0  0  0
 11 97  1  0  0  0
 12 13  2  0  0  0
 12 98  1  0  0  0
 13 14  1  0  0  0
 13 31  1  0  0  0
 14 15  2  0  0  0
 14 99  1  0  0  0
 15100  1  0  0  0
 16 17  2  0  0  0
 16 21  1  0  0  0
 16 31  1  0  0  0
 17 18  1  0  0  0
 17101  1  0  0  0
 18 19  2  0  0  0
 18102  1  0  0  0
 19 20  1  0  0  0
 19 24  1  0  0  0
 20 21  2  0  0  0
 20103  1  0  0  0
 21 23  1  0  0  0
 22 28  1  0  0  0
 22 32  2  0  0  0
 26 27  1  0  0  0
 28104  1  0  0  0
 28105  1  0  0  0
 29106  1  0  0  0
 29107  1  0  0  0
 33 34  1  0  0  0
 33 66  1  0  0  0
 33 70  2  0  0  0
 34 36  1  0  0  0
 34 59  1  0  0  0
 34108  1  0  0  0
 35 44  2  0  0  0
 35 45  1  0  0  0
 35 68  1  0  0  0
 36 56  1  0  0  0
 36109  1  0  0  0
 37 39  1  0  0  0
 37 47  1  0  0  0
 37 66  1  0  0  0
 37110  1  0  0  0
 38 43  2  0  0  0
 38 46  1  0  0  0
 38 47  1  0  0  0
 39 64  1  0  0  0
 39 67  2  0  0  0
 40 52  1  0  0  0
 40 53  2  0  0  0
 40 58  1  0  0  0
 41111  1  0  0  0
 41112  1  0  0  0
 41113  1  0  0  0
 41 48  1  0  0  0
 42 43  1  0  0  0
 42 66  1  0  0  0
 42114  1  0  0  0
 42115  1  0  0  0
 43 44  1  0  0  0
 44116  1  0  0  0
 45 46  2  0  0  0
 45117  1  0  0  0
 46118  1  0  0  0
 47119  1  0  0  0
 47120  1  0  0  0
 48 56  1  0  0  0
 48 65  1  0  0  0
 48121  1  0  0  0
 49 50  1  0  0  0
 49 53  1  0  0  0
 49 64  1  0  0  0
 49122  1  0  0  0
 50 51  1  0  0  0
 50123  1  0  0  0
 50124  1  0  0  0
 51 52  1  0  0  0
 51125  1  0  0  0
 51126  1  0  0  0
 52127  1  0  0  0
 52128  1  0  0  0
 53 54  1  0  0  0
 54 55  2  0  0  0
 54129  1  0  0  0
 55 57  1  0  0  0
 55130  1  0  0  0
 56 69  2  0  0  0
 57 58  2  0  0  0
 57131  1  0  0  0
 58132  1  0  0  0
 59 60  1  0  0  0
 59 61  1  0  0  0
 59 62  1  0  0  0
 60133  1  0  0  0
 60134  1  0  0  0
 60135  1  0  0  0
 61136  1  0  0  0
 61137  1  0  0  0
 61138  1  0  0  0
 62139  1  0  0  0
 62140  1  0  0  0
 62141  1  0  0  0
 63 65  1  0  0  0
 63142  1  0  0  0
 63143  1  0  0  0
 63144  1  0  0  0
 64145  1  0  0  0
 65146  1  0  0  0
 68 82  1  0  0  0
 71 74  2  0  0  0
 71 84  1  0  0  0
 71147  1  0  0  0
 72 73  2  0  0  0
 72 75  1  0  0  0
 72 80  1  0  0  0
 73 74  1  0  0  0
 73 86  1  0  0  0
 74 87  1  0  0  0
 75 82  1  0  0  0
 75 84  2  0  0  0
 76 77  1  0  0  0
 76 78  1  0  0  0
 76148  1  0  0  0
 76149  1  0  0  0
 77 79  1  0  0  0
 77150  1  0  0  0
 77151  1  0  0  0
 78 85  1  0  0  0
 78152  1  0  0  0
 78153  1  0  0  0
 79 83  1  0  0  0
 79 85  1  0  0  0
 79154  1  0  0  0
 80155  1  0  0  0
 80156  1  0  0  0
 80157  1  0  0  0
 81 86  1  0  0  0
 81158  1  0  0  0
 81159  1  0  0  0
 81160  1  0  0  0
 82161  1  0  0  0
 82162  1  0  0  0
 83 87  1  0  0  0
 83163  1  0  0  0
 83164  1  0  0  0
 84165  1  0  0  0
 86166  1  0  0  0
M  CHG  1  84   1
M  ISO  4   1 100  68 101  82 101  85 100
M  END
> <chiral flag>
0

> <version>
0

> <s_m_source_file>
/data/baiqing/PycharmProjects/Reinvent-master-3.2/result/LINK_invent/BTK/process_docking_weight1_custom_sum_contain_oxygen_bond_distance_aromatic_linkinvent_7_9_3/rearranged_h_0153.sdf

> <i_m_source_file_index>
57

> <r_mmod_Potential_Energy-OPLS-2005>
359.846832275391

> <r_mmod_Stretch_Energy-OPLS-2005>
108.913948059082

> <r_mmod_Bend_Energy-OPLS-2005>
215.885772705078

> <r_mmod_Torsional_Energy-OPLS-2005>
417.401977539062

> <r_mmod_Improper_Torsional_Energy-OPLS-2005>
9.46324825286865

> <r_mmod_Van_der_Waal_Energy-OPLS-2005>
134.044570922852

> <r_mmod_Electrostatic_Energy-OPLS-2005>
-165.662673950195

> <r_mmod_Solvation_Energy-OPLS-2005>
-419.394927978516

> <b_mmod_Minimization_Converged-OPLS-2005>
0

> <r_mmod_RMS_Derivative-OPLS-2005>
1.93548429012299

$$$$
57
                    3D
 Structure written by MMmdl.
158167  0  0  1  0            999 V2000
  -30.5697  -14.7900   20.4522 C   0  0  0  0  0  0
  -30.4306  -12.4865   19.4708 C   0  0  0  0  0  0
  -29.5049  -12.5155   18.2357 C   0  0  0  0  0  0
  -28.0360  -12.3198   18.6568 C   0  0  0  0  0  0
  -27.6330  -13.2301   19.8477 C   0  0  2  0  0  0
  -28.6764  -13.1779   20.9820 C   0  0  0  0  0  0
  -25.2457  -13.8206   20.5667 C   0  0  0  0  0  0
  -24.1760  -13.0435   20.9209 C   0  0  0  0  0  0
  -24.6344  -11.6919   20.8741 C   0  0  0  0  0  0
  -23.9046  -10.4276   21.0413 C   0  0  0  0  0  0
  -24.3596   -9.4198   21.9198 C   0  0  0  0  0  0
  -23.6266   -8.2232   22.0753 C   0  0  0  0  0  0
  -22.4262   -8.0260   21.3528 C   0  0  0  0  0  0
  -21.9897   -9.0236   20.4644 C   0  0  0  0  0  0
  -22.7217  -10.2122   20.3063 C   0  0  0  0  0  0
  -21.6852   -6.0721   22.5269 C   0  0  0  0  0  0
  -21.4006   -6.5624   23.8201 C   0  0  0  0  0  0
  -21.3669   -5.6779   24.9172 C   0  0  0  0  0  0
  -21.6048   -4.3037   24.7219 C   0  0  0  0  0  0
  -21.8830   -3.8137   23.4339 C   0  0  0  0  0  0
  -21.9187   -4.6947   22.3393 C   0  0  0  0  0  0
  -22.7788  -13.5221   21.1883 C   0  0  0  0  0  0
  -22.1659   -4.2132   21.0969 F   0  0  0  0  0  0
  -21.5640   -3.4524   25.7740 F   0  0  0  0  0  0
  -29.9700  -13.5483   20.3944 N   0  0  0  0  0  0
  -26.2878  -12.9408   20.3274 N   0  0  0  0  0  0
  -25.9277  -11.6548   20.5747 N   0  0  0  0  0  0
  -22.0451  -12.8191   22.0448 N   0  0  0  0  0  0
  -25.4118  -15.1930   20.4065 N   0  0  0  0  0  0
  -31.7720  -14.8929   20.1888 O   0  0  0  0  0  0
  -21.6639   -6.8862   21.4226 O   0  0  0  0  0  0
  -22.3470  -14.5536   20.6755 O   0  0  0  0  0  0
  -24.6318  -31.8507   23.1943 C   0  0  0  0  0  0
  -25.9129  -32.4719   23.8293 C   0  0  1  0  0  0
  -27.2201  -27.2379   20.1446 C   0  0  0  0  0  0
  -25.5921  -33.8518   24.2203 N   0  0  0  0  0  0
  -23.4295  -30.4691   21.5374 C   0  0  2  0  0  0
  -24.8773  -28.9022   20.1154 C   0  0  0  0  0  0
  -22.7511  -29.4545   22.4884 C   0  0  0  0  0  0
  -18.0284  -28.1335   22.8470 C   0  0  0  0  0  0
  -24.1483  -36.7246   23.2641 C   0  0  0  0  0  0
  -25.9726  -30.7604   21.3746 C   0  0  0  0  0  0
  -26.0502  -29.3759   20.7188 C   0  0  0  0  0  0
  -27.2286  -28.5597   20.7118 C   0  0  0  0  0  0
  -26.0241  -26.8245   19.5242 C   0  0  0  0  0  0
  -24.8722  -27.6370   19.5052 C   0  0  0  0  0  0
  -23.6486  -29.7951   20.1577 C   0  0  0  0  0  0
  -25.4124  -36.3039   24.0314 C   0  0  1  0  0  0
  -20.5891  -28.3646   23.1244 C   0  0  2  0  0  0
  -20.6779  -26.9367   22.5374 C   0  0  0  0  0  0
  -19.5754  -26.6349   21.5166 C   0  0  0  0  0  0
  -18.1922  -26.7886   22.1586 C   0  0  0  0  0  0
  -19.1537  -28.8811   23.2845 C   0  0  0  0  0  0
  -18.9492  -30.1415   23.8884 C   0  0  0  0  0  0
  -17.6495  -30.6575   24.0517 C   0  0  0  0  0  0
  -25.9066  -34.9421   23.5072 C   0  0  0  0  0  0
  -16.5376  -29.9056   23.6328 C   0  0  0  0  0  0
  -16.7279  -28.6456   23.0370 C   0  0  0  0  0  0
  -26.4534  -31.6556   25.0685 C   0  0  0  0  0  0
  -25.3750  -31.3656   26.1391 C   0  0  0  0  0  0
  -27.0414  -30.3004   24.6136 C   0  0  0  0  0  0
  -27.6054  -32.4341   25.7491 C   0  0  0  0  0  0
  -27.5578  -37.1780   24.8481 C   0  0  0  0  0  0
  -21.4216  -29.3000   22.3660 N   0  0  0  0  0  0
  -26.4293  -37.3744   23.9412 N   0  0  0  0  0  0
  -24.6972  -31.0441   22.0927 N   0  0  0  0  0  0
  -23.4195  -28.8101   23.3004 O   0  0  0  0  0  0
  -28.3262  -26.3616   20.1227 O   0  0  0  0  0  0
  -26.5632  -34.8923   22.4639 O   0  0  0  0  0  0
  -23.5467  -32.1357   23.7229 O   0  0  0  0  0  0
  -27.7607  -18.4565   21.5306 C   0  0  0  0  0  0
  -27.3998  -20.8904   21.2003 C   0  0  0  0  0  0
  -29.0077  -18.5528   20.8848 C   0  0  0  0  0  0
  -29.4059  -19.8283   20.3786 C   0  0  0  0  0  0
  -26.9585  -19.6217   21.6716 C   0  0  0  0  0  0
  -28.6490  -21.0686   20.5516 C   0  0  0  0  0  0
  -30.7118  -19.6258   19.6369 C   0  0  0  0  0  0
  -30.9510  -18.0685   19.5991 C   0  0  0  0  0  0
  -30.0921  -17.4187   20.7199 C   0  0  2  0  0  0
  -25.6134  -19.5256   22.3755 C   0  0  0  0  0  0
  -28.2436  -24.9704   20.7080 C   0  0  0  0  0  0
  -28.2355  -23.5702   19.8695 C   0  0  0  0  0  0
  -29.7584  -15.9153   20.6057 N   0  0  0  0  0  0
  -29.1095  -22.3784   20.1962 O   0  0  0  0  0  0
  -31.4677  -12.6284   19.1656 H   0  0  0  0  0  0
  -30.3902  -11.5119   19.9611 H   0  0  0  0  0  0
  -29.7947  -11.7439   17.5226 H   0  0  0  0  0  0
  -29.6102  -13.4696   17.7166 H   0  0  0  0  0  0
  -27.9129  -11.2738   18.9382 H   0  0  0  0  0  0
  -27.3690  -12.4881   17.8113 H   0  0  0  0  0  0
  -27.6202  -14.2487   19.4562 H   0  0  0  0  0  0
  -28.7224  -12.1843   21.4321 H   0  0  0  0  0  0
  -28.4061  -13.8625   21.7876 H   0  0  0  0  0  0
  -25.2746   -9.5701   22.4757 H   0  0  0  0  0  0
  -23.9983   -7.4658   22.7485 H   0  0  0  0  0  0
  -21.0830   -8.8761   19.8946 H   0  0  0  0  0  0
  -22.3677  -10.9659   19.6162 H   0  0  0  0  0  0
  -21.1994   -7.6126   23.9698 H   0  0  0  0  0  0
  -21.1484   -6.0509   25.9076 H   0  0  0  0  0  0
  -22.0602   -2.7588   23.2845 H   0  0  0  0  0  0
  -22.4041  -11.9815   22.4774 H   0  0  0  0  0  0
  -21.1091  -13.1234   22.2732 H   0  0  0  0  0  0
  -24.6321  -15.8366   20.4959 H   0  0  0  0  0  0
  -26.2476  -15.6350   20.0476 H   0  0  0  0  0  0
  -26.7145  -32.5388   23.1000 H   0  0  0  0  0  0
  -25.0073  -33.9640   25.0362 H   0  0  0  0  0  0
  -22.7247  -31.2880   21.3857 H   0  0  0  0  0  0
  -23.3763  -35.9559   23.3316 H   0  0  0  0  0  0
  -24.3588  -36.8904   22.2067 H   0  0  0  0  0  0
  -23.7203  -37.6426   23.6704 H   0  0  0  0  0  0
  -26.1026  -31.5217   20.6068 H   0  0  0  0  0  0
  -26.8514  -30.8200   22.0063 H   0  0  0  0  0  0
  -28.1363  -28.9183   21.1754 H   0  0  0  0  0  0
  -25.9810  -25.8524   19.0527 H   0  0  0  0  0  0
  -23.9727  -27.2765   19.0223 H   0  0  0  0  0  0
  -23.7743  -30.5693   19.3996 H   0  0  0  0  0  0
  -22.7655  -29.2289   19.8566 H   0  0  0  0  0  0
  -25.1294  -36.1889   25.0781 H   0  0  0  0  0  0
  -20.9966  -28.3259   24.1361 H   0  0  0  0  0  0
  -20.5634  -26.2266   23.3589 H   0  0  0  0  0  0
  -21.6645  -26.7360   22.1190 H   0  0  0  0  0  0
  -19.6925  -25.6251   21.1190 H   0  0  0  0  0  0
  -19.6694  -27.3149   20.6686 H   0  0  0  0  0  0
  -17.4176  -26.6641   21.3990 H   0  0  0  0  0  0
  -18.0338  -26.0043   22.8976 H   0  0  0  0  0  0
  -19.7998  -30.7193   24.2288 H   0  0  0  0  0  0
  -17.5070  -31.6252   24.5102 H   0  0  0  0  0  0
  -15.5376  -30.2931   23.7674 H   0  0  0  0  0  0
  -15.8696  -28.0736   22.7122 H   0  0  0  0  0  0
  -24.5999  -30.6908   25.7725 H   0  0  0  0  0  0
  -24.8828  -32.2767   26.4780 H   0  0  0  0  0  0
  -25.8101  -30.8893   27.0179 H   0  0  0  0  0  0
  -26.2978  -29.6688   24.1241 H   0  0  0  0  0  0
  -27.4211  -29.7319   25.4639 H   0  0  0  0  0  0
  -27.8814  -30.4302   23.9306 H   0  0  0  0  0  0
  -27.2630  -33.3678   26.1945 H   0  0  0  0  0  0
  -28.3940  -32.6815   25.0375 H   0  0  0  0  0  0
  -28.0603  -31.8504   26.5515 H   0  0  0  0  0  0
  -28.2543  -38.0130   24.7562 H   0  0  0  0  0  0
  -28.1110  -36.2643   24.6259 H   0  0  0  0  0  0
  -27.2279  -37.1355   25.8879 H   0  0  0  0  0  0
  -20.9429  -29.8761   21.6895 H   0  0  0  0  0  0
  -26.0181  -38.2789   24.1496 H   0  0  0  0  0  0
  -27.4276  -17.5103   21.9322 H   0  0  0  0  0  0
  -26.7706  -21.7500   21.3787 H   0  0  0  0  0  0
  -31.5152  -20.1311   20.1716 H   0  0  0  0  0  0
  -30.6590  -20.0489   18.6317 H   0  0  0  0  0  0
  -32.0062  -17.8029   19.6494 H   0  0  0  0  0  0
  -30.5830  -17.7026   18.6395 H   0  0  0  0  0  0
  -30.6793  -17.4888   21.6390 H   0  0  0  0  0  0
  -25.2912  -18.4921   22.5189 H   0  0  0  0  0  0
  -24.8392  -20.0324   21.7999 H   0  0  0  0  0  0
  -25.6590  -19.9981   23.3567 H   0  0  0  0  0  0
  -29.1297  -24.9194   21.3418 H   0  0  0  0  0  0
  -27.4122  -24.9427   21.4128 H   0  0  0  0  0  0
  -28.5554  -23.8454   18.8656 H   0  0  0  0  0  0
  -27.2028  -23.2528   19.7189 H   0  0  0  0  0  0
  -28.7824  -15.6954   20.7366 H   0  0  0  0  0  0
  1 25  1  0  0  0
  1 30  2  0  0  0
  1 83  1  0  0  0
  2  3  1  0  0  0
  2 25  1  0  0  0
  2 85  1  0  0  0
  2 86  1  0  0  0
  3  4  1  0  0  0
  3 87  1  0  0  0
  3 88  1  0  0  0
  4  5  1  0  0  0
  4 89  1  0  0  0
  4 90  1  0  0  0
  5  6  1  0  0  0
  5 26  1  0  0  0
  5 91  1  0  0  0
  6 25  1  0  0  0
  6 92  1  0  0  0
  6 93  1  0  0  0
  7  8  2  0  0  0
  7 26  1  0  0  0
  7 29  1  0  0  0
  8  9  1  0  0  0
  8 22  1  0  0  0
  9 10  1  0  0  0
  9 27  2  0  0  0
 10 11  2  0  0  0
 10 15  1  0  0  0
 11 12  1  0  0  0
 11 94  1  0  0  0
 12 13  2  0  0  0
 12 95  1  0  0  0
 13 14  1  0  0  0
 13 31  1  0  0  0
 14 15  2  0  0  0
 14 96  1  0  0  0
 15 97  1  0  0  0
 16 17  2  0  0  0
 16 21  1  0  0  0
 16 31  1  0  0  0
 17 18  1  0  0  0
 17 98  1  0  0  0
 18 19  2  0  0  0
 18 99  1  0  0  0
 19 20  1  0  0  0
 19 24  1  0  0  0
 20 21  2  0  0  0
 20100  1  0  0  0
 21 23  1  0  0  0
 22 28  1  0  0  0
 22 32  2  0  0  0
 26 27  1  0  0  0
 28101  1  0  0  0
 28102  1  0  0  0
 29103  1  0  0  0
 29104  1  0  0  0
 33 34  1  0  0  0
 33 66  1  0  0  0
 33 70  2  0  0  0
 34 36  1  0  0  0
 34 59  1  0  0  0
 34105  1  0  0  0
 35 44  2  0  0  0
 35 45  1  0  0  0
 35 68  1  0  0  0
 36 56  1  0  0  0
 36106  1  0  0  0
 37 39  1  0  0  0
 37 47  1  0  0  0
 37 66  1  0  0  0
 37107  1  0  0  0
 38 43  2  0  0  0
 38 46  1  0  0  0
 38 47  1  0  0  0
 39 64  1  0  0  0
 39 67  2  0  0  0
 40 52  1  0  0  0
 40 53  2  0  0  0
 40 58  1  0  0  0
 41108  1  0  0  0
 41109  1  0  0  0
 41110  1  0  0  0
 41 48  1  0  0  0
 42 43  1  0  0  0
 42 66  1  0  0  0
 42111  1  0  0  0
 42112  1  0  0  0
 43 44  1  0  0  0
 44113  1  0  0  0
 45 46  2  0  0  0
 45114  1  0  0  0
 46115  1  0  0  0
 47116  1  0  0  0
 47117  1  0  0  0
 48 56  1  0  0  0
 48 65  1  0  0  0
 48118  1  0  0  0
 49 50  1  0  0  0
 49 53  1  0  0  0
 49 64  1  0  0  0
 49119  1  0  0  0
 50 51  1  0  0  0
 50120  1  0  0  0
 50121  1  0  0  0
 51 52  1  0  0  0
 51122  1  0  0  0
 51123  1  0  0  0
 52124  1  0  0  0
 52125  1  0  0  0
 53 54  1  0  0  0
 54 55  2  0  0  0
 54126  1  0  0  0
 55 57  1  0  0  0
 55127  1  0  0  0
 56 69  2  0  0  0
 57 58  2  0  0  0
 57128  1  0  0  0
 58129  1  0  0  0
 59 60  1  0  0  0
 59 61  1  0  0  0
 59 62  1  0  0  0
 60130  1  0  0  0
 60131  1  0  0  0
 60132  1  0  0  0
 61133  1  0  0  0
 61134  1  0  0  0
 61135  1  0  0  0
 62136  1  0  0  0
 62137  1  0  0  0
 62138  1  0  0  0
 63 65  1  0  0  0
 63139  1  0  0  0
 63140  1  0  0  0
 63141  1  0  0  0
 64142  1  0  0  0
 65143  1  0  0  0
 68 81  1  0  0  0
 71 73  2  0  0  0
 71 75  1  0  0  0
 71144  1  0  0  0
 72 75  2  0  0  0
 72 76  1  0  0  0
 72145  1  0  0  0
 73 74  1  0  0  0
 73 79  1  0  0  0
 74 76  2  0  0  0
 74 77  1  0  0  0
 75 80  1  0  0  0
 76 84  1  0  0  0
 77 78  1  0  0  0
 77146  1  0  0  0
 77147  1  0  0  0
 78 79  1  0  0  0
 78148  1  0  0  0
 78149  1  0  0  0
 79 83  1  0  0  0
 79150  1  0  0  0
 80151  1  0  0  0
 80152  1  0  0  0
 80153  1  0  0  0
 81 82  1  0  0  0
 81154  1  0  0  0
 81155  1  0  0  0
 82 84  1  0  0  0
 82156  1  0  0  0
 82157  1  0  0  0
 83158  1  0  0  0
M  ISO  4   1 100  68 101  81 101  83 100
M  END
> <chiral flag>
0

> <version>
0

> <s_m_source_file>
/data/baiqing/PycharmProjects/Reinvent-master-3.2/result/LINK_invent/BTK/process_docking_weight1_custom_sum_contain_oxygen_bond_distance_aromatic_linkinvent_7_9_3/rearranged_h_0153.sdf

> <i_m_source_file_index>
58

> <r_mmod_Potential_Energy-OPLS-2005>
225.41975402832

> <r_mmod_Stretch_Energy-OPLS-2005>
134.319046020508

> <r_mmod_Bend_Energy-OPLS-2005>
251.66389465332

> <r_mmod_Torsional_Energy-OPLS-2005>
237.014083862305

> <r_mmod_Improper_Torsional_Energy-OPLS-2005>
4.96141910552979

> <r_mmod_Van_der_Waal_Energy-OPLS-2005>
120.757347106934

> <r_mmod_Electrostatic_Energy-OPLS-2005>
-413.107055664062

> <r_mmod_Solvation_Energy-OPLS-2005>
-210.834167480469

> <b_mmod_Minimization_Converged-OPLS-2005>
0

> <r_mmod_RMS_Derivative-OPLS-2005>
4.4763503074646

$$$$
58
                    3D
 Structure written by MMmdl.
162171  0  0  1  0            999 V2000
  -30.6907  -14.5552   20.5013 C   0  0  0  0  0  0
  -30.4223  -12.3452   19.4443 C   0  0  0  0  0  0
  -29.5002  -12.5058   18.2170 C   0  0  0  0  0  0
  -28.0215  -12.3495   18.6238 C   0  0  0  0  0  0
  -27.6518  -13.2137   19.8617 C   0  0  2  0  0  0
  -28.6973  -13.0610   20.9894 C   0  0  0  0  0  0
  -25.2547  -13.8160   20.5637 C   0  0  0  0  0  0
  -24.1812  -13.0429   20.9171 C   0  0  0  0  0  0
  -24.6381  -11.6914   20.8720 C   0  0  0  0  0  0
  -23.9051  -10.4296   21.0391 C   0  0  0  0  0  0
  -24.3628   -9.4219   21.9168 C   0  0  0  0  0  0
  -23.6317   -8.2254   22.0736 C   0  0  0  0  0  0
  -22.4292   -8.0281   21.3548 C   0  0  0  0  0  0
  -21.9910   -9.0247   20.4639 C   0  0  0  0  0  0
  -22.7222  -10.2135   20.3043 C   0  0  0  0  0  0
  -21.6855   -6.0754   22.5286 C   0  0  0  0  0  0
  -21.4024   -6.5653   23.8222 C   0  0  0  0  0  0
  -21.3649   -5.6794   24.9174 C   0  0  0  0  0  0
  -21.6041   -4.3058   24.7221 C   0  0  0  0  0  0
  -21.8822   -3.8161   23.4335 C   0  0  0  0  0  0
  -21.9202   -4.6981   22.3403 C   0  0  0  0  0  0
  -22.7854  -13.5228   21.1868 C   0  0  0  0  0  0
  -22.1671   -4.2167   21.0974 F   0  0  0  0  0  0
  -21.5619   -3.4536   25.7730 F   0  0  0  0  0  0
  -30.0145  -13.3712   20.4182 N   0  0  0  0  0  0
  -26.2972  -12.9351   20.3328 N   0  0  0  0  0  0
  -25.9306  -11.6490   20.5737 N   0  0  0  0  0  0
  -22.0513  -12.8206   22.0408 N   0  0  0  0  0  0
  -25.4204  -15.1877   20.4086 N   0  0  0  0  0  0
  -31.8769  -14.6272   20.1652 O   0  0  0  0  0  0
  -21.6642   -6.8899   21.4252 O   0  0  0  0  0  0
  -22.3526  -14.5528   20.6684 O   0  0  0  0  0  0
  -24.6145  -31.8667   23.2058 C   0  0  0  0  0  0
  -25.9012  -32.4797   23.8404 C   0  0  1  0  0  0
  -27.2581  -27.4139   20.1314 C   0  0  0  0  0  0
  -25.5881  -33.8602   24.2325 N   0  0  0  0  0  0
  -23.4061  -30.4857   21.5394 C   0  0  2  0  0  0
  -24.8619  -28.9366   20.1311 C   0  0  0  0  0  0
  -22.7408  -29.4655   22.4925 C   0  0  0  0  0  0
  -18.0279  -28.1369   22.8487 C   0  0  0  0  0  0
  -24.1516  -36.7351   23.2627 C   0  0  0  0  0  0
  -25.9328  -30.8308   21.3605 C   0  0  0  0  0  0
  -26.0174  -29.4541   20.7311 C   0  0  0  0  0  0
  -27.2150  -28.7001   20.7291 C   0  0  0  0  0  0
  -26.0868  -26.9279   19.5144 C   0  0  0  0  0  0
  -24.8936  -27.6738   19.5223 C   0  0  0  0  0  0
  -23.6255  -29.8084   20.1593 C   0  0  0  0  0  0
  -25.4119  -36.3121   24.0329 C   0  0  1  0  0  0
  -20.5868  -28.3689   23.1311 C   0  0  2  0  0  0
  -20.6744  -26.9414   22.5390 C   0  0  0  0  0  0
  -19.5741  -26.6379   21.5175 C   0  0  0  0  0  0
  -18.1934  -26.7905   22.1606 C   0  0  0  0  0  0
  -19.1515  -28.8833   23.2903 C   0  0  0  0  0  0
  -18.9444  -30.1416   23.8939 C   0  0  0  0  0  0
  -17.6440  -30.6549   24.0577 C   0  0  0  0  0  0
  -25.9045  -34.9477   23.5116 C   0  0  0  0  0  0
  -16.5335  -29.9076   23.6274 C   0  0  0  0  0  0
  -16.7257  -28.6486   23.0313 C   0  0  0  0  0  0
  -26.4476  -31.6564   25.0693 C   0  0  0  0  0  0
  -25.3801  -31.3661   26.1482 C   0  0  0  0  0  0
  -27.0295  -30.3022   24.6003 C   0  0  0  0  0  0
  -27.6056  -32.4289   25.7438 C   0  0  0  0  0  0
  -27.5582  -37.1830   24.8450 C   0  0  0  0  0  0
  -21.4128  -29.3073   22.3712 N   0  0  0  0  0  0
  -26.4326  -37.3773   23.9373 N   0  0  0  0  0  0
  -24.6685  -31.0809   22.0936 N   0  0  0  0  0  0
  -23.4175  -28.8174   23.2964 O   0  0  0  0  0  0
  -28.4631  -26.7405   20.0228 O   0  0  0  0  0  0
  -26.5600  -34.8899   22.4684 O   0  0  0  0  0  0
  -23.5323  -32.1413   23.7422 O   0  0  0  0  0  0
  -27.2191  -21.8431   19.8888 C   0  0  0  0  0  0
  -29.2685  -22.3806   21.0002 C   0  0  0  0  0  0
  -28.0777  -22.8264   20.3914 C   0  0  0  0  0  0
  -27.5835  -20.4821   19.9285 C   0  0  0  0  0  0
  -28.8450  -20.1176   20.4789 C   0  0  0  0  0  0
  -29.3398  -17.8444   21.7328 C   0  0  0  0  0  0
  -29.1981  -17.8065   19.2062 C   0  0  0  0  0  0
  -29.1747  -16.2924   21.5386 C   0  0  0  0  0  0
  -30.1226  -16.5655   19.2335 C   0  0  0  0  0  0
  -29.4782  -18.6905   20.4373 C   0  0  0  0  0  0
  -26.5906  -19.5096   19.3171 C   0  0  0  0  0  0
  -27.6675  -24.2960   20.1897 C   0  0  0  0  0  0
  -28.6721  -25.4176   20.5795 C   0  0  0  0  0  0
  -29.6382  -21.0714   21.0339 N   0  0  0  0  0  0
  -29.9249  -15.6866   20.4081 N   0  0  0  0  0  0
  -31.4684  -12.4374   19.1497 H   0  0  0  0  0  0
  -30.3270  -11.3527   19.8827 H   0  0  0  0  0  0
  -29.7643  -11.7817   17.4448 H   0  0  0  0  0  0
  -29.6471  -13.4915   17.7754 H   0  0  0  0  0  0
  -27.8407  -11.2944   18.8313 H   0  0  0  0  0  0
  -27.3754  -12.6024   17.7818 H   0  0  0  0  0  0
  -27.6729  -14.2486   19.5205 H   0  0  0  0  0  0
  -28.6940  -12.0426   21.3743 H   0  0  0  0  0  0
  -28.4566  -13.7045   21.8351 H   0  0  0  0  0  0
  -25.2803   -9.5696   22.4701 H   0  0  0  0  0  0
  -24.0035   -7.4646   22.7441 H   0  0  0  0  0  0
  -21.0851   -8.8769   19.8946 H   0  0  0  0  0  0
  -22.3701  -10.9669   19.6125 H   0  0  0  0  0  0
  -21.2011   -7.6158   23.9730 H   0  0  0  0  0  0
  -21.1467   -6.0521   25.9076 H   0  0  0  0  0  0
  -22.0607   -2.7624   23.2828 H   0  0  0  0  0  0
  -22.4202  -11.9918   22.4841 H   0  0  0  0  0  0
  -21.1107  -13.1172   22.2598 H   0  0  0  0  0  0
  -24.6478  -15.8326   20.5244 H   0  0  0  0  0  0
  -26.2677  -15.6370   20.0880 H   0  0  0  0  0  0
  -26.7075  -32.5560   23.1191 H   0  0  0  0  0  0
  -25.0059  -33.9815   25.0484 H   0  0  0  0  0  0
  -22.6947  -31.2998   21.3914 H   0  0  0  0  0  0
  -23.3721  -35.9729   23.3275 H   0  0  0  0  0  0
  -24.3631  -36.8973   22.2040 H   0  0  0  0  0  0
  -23.7326  -37.6577   23.6668 H   0  0  0  0  0  0
  -26.0435  -31.5826   20.5777 H   0  0  0  0  0  0
  -26.8185  -30.9059   21.9790 H   0  0  0  0  0  0
  -28.1027  -29.1047   21.1898 H   0  0  0  0  0  0
  -26.0880  -25.9924   18.9847 H   0  0  0  0  0  0
  -24.0167  -27.2781   19.0323 H   0  0  0  0  0  0
  -23.7517  -30.5784   19.3953 H   0  0  0  0  0  0
  -22.7508  -29.2336   19.8542 H   0  0  0  0  0  0
  -25.1296  -36.1981   25.0816 H   0  0  0  0  0  0
  -21.0012  -28.3235   24.1422 H   0  0  0  0  0  0
  -20.5630  -26.2311   23.3581 H   0  0  0  0  0  0
  -21.6630  -26.7430   22.1209 H   0  0  0  0  0  0
  -19.6919  -25.6318   21.1164 H   0  0  0  0  0  0
  -19.6634  -27.3232   20.6740 H   0  0  0  0  0  0
  -17.4180  -26.6638   21.4002 H   0  0  0  0  0  0
  -18.0349  -26.0032   22.9006 H   0  0  0  0  0  0
  -19.7917  -30.7204   24.2340 H   0  0  0  0  0  0
  -17.4997  -31.6230   24.5209 H   0  0  0  0  0  0
  -15.5353  -30.3011   23.7533 H   0  0  0  0  0  0
  -15.8656  -28.0812   22.7016 H   0  0  0  0  0  0
  -24.5991  -30.6957   25.7864 H   0  0  0  0  0  0
  -24.9004  -32.2831   26.4926 H   0  0  0  0  0  0
  -25.8239  -30.8882   27.0229 H   0  0  0  0  0  0
  -26.2852  -29.6820   24.0986 H   0  0  0  0  0  0
  -27.4048  -29.7160   25.4395 H   0  0  0  0  0  0
  -27.8676  -30.4314   23.9134 H   0  0  0  0  0  0
  -27.2651  -33.3571   26.2001 H   0  0  0  0  0  0
  -28.3859  -32.6834   25.0275 H   0  0  0  0  0  0
  -28.0717  -31.8440   26.5378 H   0  0  0  0  0  0
  -28.2594  -38.0130   24.7472 H   0  0  0  0  0  0
  -28.1103  -36.2665   24.6319 H   0  0  0  0  0  0
  -27.2312  -37.1475   25.8859 H   0  0  0  0  0  0
  -20.9279  -29.8938   21.7052 H   0  0  0  0  0  0
  -26.0202  -38.2849   24.1351 H   0  0  0  0  0  0
  -26.2851  -22.1439   19.4283 H   0  0  0  0  0  0
  -29.9607  -23.0852   21.4414 H   0  0  0  0  0  0
  -30.1917  -18.0574   22.3818 H   0  0  0  0  0  0
  -28.4717  -18.2016   22.2840 H   0  0  0  0  0  0
  -28.1592  -17.4714   19.2035 H   0  0  0  0  0  0
  -29.3616  -18.3652   18.2847 H   0  0  0  0  0  0
  -28.1214  -16.1119   21.3300 H   0  0  0  0  0  0
  -29.3753  -15.7705   22.4757 H   0  0  0  0  0  0
  -31.1641  -16.8917   19.1945 H   0  0  0  0  0  0
  -29.9557  -15.9770   18.3280 H   0  0  0  0  0  0
  -30.5477  -18.8920   20.3548 H   0  0  0  0  0  0
  -26.4096  -18.6464   19.9554 H   0  0  0  0  0  0
  -26.9369  -19.1785   18.3396 H   0  0  0  0  0  0
  -25.6313  -19.9962   19.1445 H   0  0  0  0  0  0
  -26.7077  -24.4541   20.6842 H   0  0  0  0  0  0
  -27.4862  -24.3800   19.1156 H   0  0  0  0  0  0
  -28.8191  -25.4785   21.6589 H   0  0  0  0  0  0
  -29.6425  -25.1299   20.1778 H   0  0  0  0  0  0
  1 25  1  0  0  0
  1 30  2  0  0  0
  1 85  1  0  0  0
  2  3  1  0  0  0
  2 25  1  0  0  0
  2 86  1  0  0  0
  2 87  1  0  0  0
  3  4  1  0  0  0
  3 88  1  0  0  0
  3 89  1  0  0  0
  4  5  1  0  0  0
  4 90  1  0  0  0
  4 91  1  0  0  0
  5  6  1  0  0  0
  5 26  1  0  0  0
  5 92  1  0  0  0
  6 25  1  0  0  0
  6 93  1  0  0  0
  6 94  1  0  0  0
  7  8  2  0  0  0
  7 26  1  0  0  0
  7 29  1  0  0  0
  8  9  1  0  0  0
  8 22  1  0  0  0
  9 10  1  0  0  0
  9 27  2  0  0  0
 10 11  2  0  0  0
 10 15  1  0  0  0
 11 12  1  0  0  0
 11 95  1  0  0  0
 12 13  2  0  0  0
 12 96  1  0  0  0
 13 14  1  0  0  0
 13 31  1  0  0  0
 14 15  2  0  0  0
 14 97  1  0  0  0
 15 98  1  0  0  0
 16 17  2  0  0  0
 16 21  1  0  0  0
 16 31  1  0  0  0
 17 18  1  0  0  0
 17 99  1  0  0  0
 18 19  2  0  0  0
 18100  1  0  0  0
 19 20  1  0  0  0
 19 24  1  0  0  0
 20 21  2  0  0  0
 20101  1  0  0  0
 21 23  1  0  0  0
 22 28  1  0  0  0
 22 32  2  0  0  0
 26 27  1  0  0  0
 28102  1  0  0  0
 28103  1  0  0  0
 29104  1  0  0  0
 29105  1  0  0  0
 33 34  1  0  0  0
 33 66  1  0  0  0
 33 70  2  0  0  0
 34 36  1  0  0  0
 34 59  1  0  0  0
 34106  1  0  0  0
 35 44  2  0  0  0
 35 45  1  0  0  0
 35 68  1  0  0  0
 36 56  1  0  0  0
 36107  1  0  0  0
 37 39  1  0  0  0
 37 47  1  0  0  0
 37 66  1  0  0  0
 37108  1  0  0  0
 38 43  2  0  0  0
 38 46  1  0  0  0
 38 47  1  0  0  0
 39 64  1  0  0  0
 39 67  2  0  0  0
 40 52  1  0  0  0
 40 53  2  0  0  0
 40 58  1  0  0  0
 41109  1  0  0  0
 41110  1  0  0  0
 41111  1  0  0  0
 41 48  1  0  0  0
 42 43  1  0  0  0
 42 66  1  0  0  0
 42112  1  0  0  0
 42113  1  0  0  0
 43 44  1  0  0  0
 44114  1  0  0  0
 45 46  2  0  0  0
 45115  1  0  0  0
 46116  1  0  0  0
 47117  1  0  0  0
 47118  1  0  0  0
 48 56  1  0  0  0
 48 65  1  0  0  0
 48119  1  0  0  0
 49 50  1  0  0  0
 49 53  1  0  0  0
 49 64  1  0  0  0
 49120  1  0  0  0
 50 51  1  0  0  0
 50121  1  0  0  0
 50122  1  0  0  0
 51 52  1  0  0  0
 51123  1  0  0  0
 51124  1  0  0  0
 52125  1  0  0  0
 52126  1  0  0  0
 53 54  1  0  0  0
 54 55  2  0  0  0
 54127  1  0  0  0
 55 57  1  0  0  0
 55128  1  0  0  0
 56 69  2  0  0  0
 57 58  2  0  0  0
 57129  1  0  0  0
 58130  1  0  0  0
 59 60  1  0  0  0
 59 61  1  0  0  0
 59 62  1  0  0  0
 60131  1  0  0  0
 60132  1  0  0  0
 60133  1  0  0  0
 61134  1  0  0  0
 61135  1  0  0  0
 61136  1  0  0  0
 62137  1  0  0  0
 62138  1  0  0  0
 62139  1  0  0  0
 63 65  1  0  0  0
 63140  1  0  0  0
 63141  1  0  0  0
 63142  1  0  0  0
 64143  1  0  0  0
 65144  1  0  0  0
 68 83  1  0  0  0
 71 73  2  0  0  0
 71 74  1  0  0  0
 71145  1  0  0  0
 72 73  1  0  0  0
 72 84  2  0  0  0
 72146  1  0  0  0
 73 82  1  0  0  0
 74 75  2  0  0  0
 74 81  1  0  0  0
 75 84  1  0  0  0
 75 80  1  0  0  0
 76 78  1  0  0  0
 76 80  1  0  0  0
 76147  1  0  0  0
 76148  1  0  0  0
 77 79  1  0  0  0
 77 80  1  0  0  0
 77149  1  0  0  0
 77150  1  0  0  0
 78 85  1  0  0  0
 78151  1  0  0  0
 78152  1  0  0  0
 79 85  1  0  0  0
 79153  1  0  0  0
 79154  1  0  0  0
 80155  1  0  0  0
 81156  1  0  0  0
 81157  1  0  0  0
 81158  1  0  0  0
 82 83  1  0  0  0
 82159  1  0  0  0
 82160  1  0  0  0
 83161  1  0  0  0
 83162  1  0  0  0
M  ISO  4   1 100  68 101  83 101  85 100
M  END
> <chiral flag>
0

> <version>
0

> <s_m_source_file>
/data/baiqing/PycharmProjects/Reinvent-master-3.2/result/LINK_invent/BTK/process_docking_weight1_custom_sum_contain_oxygen_bond_distance_aromatic_linkinvent_7_9_3/rearranged_h_0153.sdf

> <i_m_source_file_index>
59

> <r_mmod_Potential_Energy-OPLS-2005>
94.7237167358398

> <r_mmod_Stretch_Energy-OPLS-2005>
51.1302261352539

> <r_mmod_Bend_Energy-OPLS-2005>
145.249969482422

> <r_mmod_Torsional_Energy-OPLS-2005>
345.404632568359

> <r_mmod_Improper_Torsional_Energy-OPLS-2005>
20.1874980926514

> <r_mmod_Van_der_Waal_Energy-OPLS-2005>
157.297576904297

> <r_mmod_Electrostatic_Energy-OPLS-2005>
-437.059600830078

> <r_mmod_Solvation_Energy-OPLS-2005>
-210.318222045898

> <b_mmod_Minimization_Converged-OPLS-2005>
0

> <r_mmod_RMS_Derivative-OPLS-2005>
7.03498506546021

$$$$
59
                    3D
 Structure written by MMmdl.
184194  0  0  1  0            999 V2000
  -30.7111  -14.4595   20.5568 C   0  0  0  0  0  0
  -30.4166  -12.2924   19.4256 C   0  0  0  0  0  0
  -29.4897  -12.5017   18.2096 C   0  0  0  0  0  0
  -28.0137  -12.3592   18.6267 C   0  0  0  0  0  0
  -27.6639  -13.2043   19.8803 C   0  0  2  0  0  0
  -28.7074  -12.9922   21.0028 C   0  0  0  0  0  0
  -25.2612  -13.8160   20.5688 C   0  0  0  0  0  0
  -24.1853  -13.0446   20.9183 C   0  0  0  0  0  0
  -24.6397  -11.6911   20.8744 C   0  0  0  0  0  0
  -23.9063  -10.4294   21.0413 C   0  0  0  0  0  0
  -24.3613   -9.4204   21.9195 C   0  0  0  0  0  0
  -23.6292   -8.2236   22.0756 C   0  0  0  0  0  0
  -22.4277   -8.0277   21.3545 C   0  0  0  0  0  0
  -21.9913   -9.0248   20.4647 C   0  0  0  0  0  0
  -22.7237  -10.2133   20.3061 C   0  0  0  0  0  0
  -21.6853   -6.0737   22.5284 C   0  0  0  0  0  0
  -21.4008   -6.5635   23.8218 C   0  0  0  0  0  0
  -21.3661   -5.6790   24.9175 C   0  0  0  0  0  0
  -21.6049   -4.3050   24.7224 C   0  0  0  0  0  0
  -21.8822   -3.8146   23.4342 C   0  0  0  0  0  0
  -21.9190   -4.6971   22.3397 C   0  0  0  0  0  0
  -22.7875  -13.5253   21.1845 C   0  0  0  0  0  0
  -22.1662   -4.2154   21.0977 F   0  0  0  0  0  0
  -21.5631   -3.4535   25.7733 F   0  0  0  0  0  0
  -30.0404  -13.2820   20.4484 N   0  0  0  0  0  0
  -26.3048  -12.9324   20.3422 N   0  0  0  0  0  0
  -25.9330  -11.6487   20.5806 N   0  0  0  0  0  0
  -22.0511  -12.8238   22.0387 N   0  0  0  0  0  0
  -25.4377  -15.1872   20.4074 N   0  0  0  0  0  0
  -31.8340  -14.6375   20.0785 O   0  0  0  0  0  0
  -21.6635   -6.8881   21.4246 O   0  0  0  0  0  0
  -22.3572  -14.5576   20.6717 O   0  0  0  0  0  0
  -24.6172  -31.8671   23.2103 C   0  0  0  0  0  0
  -25.9052  -32.4822   23.8413 C   0  0  1  0  0  0
  -27.2483  -27.4279   20.0919 C   0  0  0  0  0  0
  -25.5899  -33.8614   24.2347 N   0  0  0  0  0  0
  -23.4064  -30.4892   21.5495 C   0  0  2  0  0  0
  -24.8546  -28.9547   20.1135 C   0  0  0  0  0  0
  -22.7422  -29.4643   22.4984 C   0  0  0  0  0  0
  -18.0275  -28.1380   22.8505 C   0  0  0  0  0  0
  -24.1479  -36.7317   23.2646 C   0  0  0  0  0  0
  -25.9349  -30.8302   21.3610 C   0  0  0  0  0  0
  -26.0130  -29.4618   20.7134 C   0  0  0  0  0  0
  -27.2072  -28.7037   20.7043 C   0  0  0  0  0  0
  -26.0697  -26.9417   19.4802 C   0  0  0  0  0  0
  -24.8791  -27.6917   19.4969 C   0  0  0  0  0  0
  -23.6151  -29.8206   20.1642 C   0  0  0  0  0  0
  -25.4099  -36.3110   24.0344 C   0  0  1  0  0  0
  -20.5869  -28.3662   23.1320 C   0  0  2  0  0  0
  -20.6770  -26.9390   22.5427 C   0  0  0  0  0  0
  -19.5754  -26.6381   21.5228 C   0  0  0  0  0  0
  -18.1918  -26.7925   22.1624 C   0  0  0  0  0  0
  -19.1527  -28.8838   23.2912 C   0  0  0  0  0  0
  -18.9463  -30.1443   23.8918 C   0  0  0  0  0  0
  -17.6464  -30.6581   24.0584 C   0  0  0  0  0  0
  -25.9031  -34.9467   23.5142 C   0  0  0  0  0  0
  -16.5354  -29.9085   23.6342 C   0  0  0  0  0  0
  -16.7271  -28.6505   23.0358 C   0  0  0  0  0  0
  -26.4474  -31.6595   25.0735 C   0  0  0  0  0  0
  -25.3755  -31.3644   26.1495 C   0  0  0  0  0  0
  -27.0324  -30.3070   24.6059 C   0  0  0  0  0  0
  -27.6064  -32.4308   25.7480 C   0  0  0  0  0  0
  -27.5571  -37.1802   24.8469 C   0  0  0  0  0  0
  -21.4149  -29.3030   22.3729 N   0  0  0  0  0  0
  -26.4288  -37.3796   23.9410 N   0  0  0  0  0  0
  -24.6714  -31.0766   22.0986 N   0  0  0  0  0  0
  -23.4187  -28.8193   23.3040 O   0  0  0  0  0  0
  -28.4349  -26.7127   20.1330 O   0  0  0  0  0  0
  -26.5593  -34.8913   22.4700 O   0  0  0  0  0  0
  -23.5361  -32.1404   23.7491 O   0  0  0  0  0  0
  -28.2608  -21.2965   20.8130 C   0  0  0  0  0  0
  -28.4412  -19.9867   21.2943 C   0  0  0  0  0  0
  -29.3342  -22.0250   20.2599 C   0  0  0  0  0  0
  -29.7115  -19.3724   21.2796 C   0  0  0  0  0  0
  -30.8225  -20.1229   20.8016 C   0  0  0  0  0  0
  -30.6220  -21.4216   20.2430 C   0  0  0  0  0  0
  -32.2239  -22.1728   15.8149 C   0  0  0  0  0  0
  -32.8016  -23.2195   14.8490 C   0  0  0  0  0  0
  -27.8150  -24.2374   20.0127 C   0  0  0  0  0  0
  -29.8368  -24.6828   19.7793 C   0  0  0  0  0  0
  -33.9836  -22.8036   17.4931 C   0  0  0  0  0  0
  -29.0280  -23.3786   19.5927 C   0  0  1  0  0  0
  -32.4675  -22.5924   17.2751 C   0  0  2  0  0  0
  -28.5496  -25.4629   19.4366 C   0  0  2  0  0  0
  -34.3012  -23.4691   15.1192 C   0  0  1  0  0  0
  -32.2345  -19.5512   20.8893 C   0  0  0  0  0  0
  -34.8617  -24.5660   14.1967 C   0  0  0  0  0  0
  -29.8129  -17.9158   21.7749 C   0  0  0  0  0  0
  -31.8593  -21.5590   18.2414 C   0  0  0  0  0  0
  -30.2515  -16.9044   20.6866 C   0  0  0  0  0  0
  -31.6782  -22.0775   19.5956 N   0  0  0  0  0  0
  -29.9941  -15.4949   21.0313 N   0  0  0  0  0  0
  -34.5243  -23.8073   16.5471 N   0  3  0  0  0  0
  -31.4628  -12.3718   19.1269 H   0  0  0  0  0  0
  -30.2976  -11.2832   19.8231 H   0  0  0  0  0  0
  -29.7246  -11.7802   17.4253 H   0  0  0  0  0  0
  -29.6574  -13.4891   17.7772 H   0  0  0  0  0  0
  -27.8321  -11.3039   18.8327 H   0  0  0  0  0  0
  -27.3560  -12.6224   17.7969 H   0  0  0  0  0  0
  -27.7078  -14.2502   19.5768 H   0  0  0  0  0  0
  -28.6777  -11.9623   21.3581 H   0  0  0  0  0  0
  -28.4788  -13.6054   21.8762 H   0  0  0  0  0  0
  -25.2756   -9.5685   22.4773 H   0  0  0  0  0  0
  -24.0005   -7.4633   22.7478 H   0  0  0  0  0  0
  -21.0842   -8.8776   19.8948 H   0  0  0  0  0  0
  -22.3703  -10.9679   19.6167 H   0  0  0  0  0  0
  -21.1992   -7.6143   23.9727 H   0  0  0  0  0  0
  -21.1482   -6.0510   25.9085 H   0  0  0  0  0  0
  -22.0595   -2.7609   23.2838 H   0  0  0  0  0  0
  -22.4099  -11.9860   22.4732 H   0  0  0  0  0  0
  -21.1140  -13.1282   22.2628 H   0  0  0  0  0  0
  -24.6761  -15.8495   20.5033 H   0  0  0  0  0  0
  -26.2975  -15.6162   20.0900 H   0  0  0  0  0  0
  -26.7120  -32.5525   23.1175 H   0  0  0  0  0  0
  -25.0057  -33.9784   25.0499 H   0  0  0  0  0  0
  -22.6950  -31.3052   21.4062 H   0  0  0  0  0  0
  -23.3740  -35.9651   23.3318 H   0  0  0  0  0  0
  -24.3586  -36.8936   22.2063 H   0  0  0  0  0  0
  -23.7222  -37.6520   23.6655 H   0  0  0  0  0  0
  -26.0387  -31.5901   20.5847 H   0  0  0  0  0  0
  -26.8274  -30.8937   21.9715 H   0  0  0  0  0  0
  -28.1013  -29.0924   21.1705 H   0  0  0  0  0  0
  -26.0427  -25.9823   18.9870 H   0  0  0  0  0  0
  -23.9903  -27.2937   19.0297 H   0  0  0  0  0  0
  -23.7174  -30.5968   19.4046 H   0  0  0  0  0  0
  -22.7400  -29.2395   19.8693 H   0  0  0  0  0  0
  -25.1256  -36.1993   25.0839 H   0  0  0  0  0  0
  -20.9977  -28.3232   24.1438 H   0  0  0  0  0  0
  -20.5714  -26.2252   23.3613 H   0  0  0  0  0  0
  -21.6628  -26.7441   22.1179 H   0  0  0  0  0  0
  -19.6921  -25.6302   21.1227 H   0  0  0  0  0  0
  -19.6705  -27.3228   20.6793 H   0  0  0  0  0  0
  -17.4197  -26.6723   21.4011 H   0  0  0  0  0  0
  -18.0292  -26.0044   22.8994 H   0  0  0  0  0  0
  -19.7938  -30.7268   24.2273 H   0  0  0  0  0  0
  -17.5016  -31.6262   24.5181 H   0  0  0  0  0  0
  -15.5359  -30.2999   23.7642 H   0  0  0  0  0  0
  -15.8672  -28.0842   22.7047 H   0  0  0  0  0  0
  -24.5974  -30.6923   25.7844 H   0  0  0  0  0  0
  -24.8874  -32.2759   26.4960 H   0  0  0  0  0  0
  -25.8146  -30.8838   27.0249 H   0  0  0  0  0  0
  -26.2846  -29.6806   24.1182 H   0  0  0  0  0  0
  -27.4226  -29.7316   25.4461 H   0  0  0  0  0  0
  -27.8603  -30.4445   23.9100 H   0  0  0  0  0  0
  -27.2720  -33.3638   26.2019 H   0  0  0  0  0  0
  -28.3877  -32.6823   25.0296 H   0  0  0  0  0  0
  -28.0709  -31.8447   26.5421 H   0  0  0  0  0  0
  -28.2577  -38.0112   24.7534 H   0  0  0  0  0  0
  -28.1072  -36.2638   24.6260 H   0  0  0  0  0  0
  -27.2297  -37.1422   25.8879 H   0  0  0  0  0  0
  -20.9301  -29.8767   21.6967 H   0  0  0  0  0  0
  -26.0183  -38.2873   24.1442 H   0  0  0  0  0  0
  -27.2659  -21.7182   20.8231 H   0  0  0  0  0  0
  -27.5797  -19.4516   21.6702 H   0  0  0  0  0  0
  -32.6836  -21.2015   15.6235 H   0  0  0  0  0  0
  -31.1553  -22.0512   15.6268 H   0  0  0  0  0  0
  -32.2404  -24.1504   14.9435 H   0  0  0  0  0  0
  -32.6604  -22.8839   13.8205 H   0  0  0  0  0  0
  -27.6909  -24.2949   21.0947 H   0  0  0  0  0  0
  -26.8818  -23.9659   19.5208 H   0  0  0  0  0  0
  -30.6570  -24.8282   19.0772 H   0  0  0  0  0  0
  -30.1630  -24.8343   20.8107 H   0  0  0  0  0  0
  -34.5199  -21.8620   17.3628 H   0  0  0  0  0  0
  -34.1811  -23.1352   18.5130 H   0  0  0  0  0  0
  -28.9536  -23.1661   18.5234 H   0  0  0  0  0  0
  -31.9525  -23.5422   17.4275 H   0  0  0  0  0  0
  -28.4240  -25.5667   18.3553 H   0  0  0  0  0  0
  -34.8441  -22.5454   14.9102 H   0  0  0  0  0  0
  -32.3335  -18.8042   21.6747 H   0  0  0  0  0  0
  -32.9519  -20.3357   21.1299 H   0  0  0  0  0  0
  -32.5261  -19.0960   19.9441 H   0  0  0  0  0  0
  -34.3739  -25.5253   14.3696 H   0  0  0  0  0  0
  -34.7143  -24.3070   13.1480 H   0  0  0  0  0  0
  -35.9337  -24.7035   14.3467 H   0  0  0  0  0  0
  -28.8363  -17.6108   22.1523 H   0  0  0  0  0  0
  -30.4797  -17.8681   22.6370 H   0  0  0  0  0  0
  -32.4800  -20.6629   18.2628 H   0  0  0  0  0  0
  -30.8875  -21.2469   17.8517 H   0  0  0  0  0  0
  -31.3032  -17.0569   20.4482 H   0  0  0  0  0  0
  -29.7037  -17.1095   19.7662 H   0  0  0  0  0  0
  -31.5529  -23.0833   19.6056 H   0  0  0  0  0  0
  -29.0883  -15.2706   21.4146 H   0  0  0  0  0  0
  -35.5137  -23.8983   16.7155 H   0  0  0  0  0  0
  -34.1030  -24.6981   16.7539 H   0  0  0  0  0  0
  1 25  1  0  0  0
  1 30  2  0  0  0
  1 92  1  0  0  0
  2  3  1  0  0  0
  2 25  1  0  0  0
  2 94  1  0  0  0
  2 95  1  0  0  0
  3  4  1  0  0  0
  3 96  1  0  0  0
  3 97  1  0  0  0
  4  5  1  0  0  0
  4 98  1  0  0  0
  4 99  1  0  0  0
  5  6  1  0  0  0
  5 26  1  0  0  0
  5100  1  0  0  0
  6 25  1  0  0  0
  6101  1  0  0  0
  6102  1  0  0  0
  7  8  2  0  0  0
  7 26  1  0  0  0
  7 29  1  0  0  0
  8  9  1  0  0  0
  8 22  1  0  0  0
  9 10  1  0  0  0
  9 27  2  0  0  0
 10 11  2  0  0  0
 10 15  1  0  0  0
 11 12  1  0  0  0
 11103  1  0  0  0
 12 13  2  0  0  0
 12104  1  0  0  0
 13 14  1  0  0  0
 13 31  1  0  0  0
 14 15  2  0  0  0
 14105  1  0  0  0
 15106  1  0  0  0
 16 17  2  0  0  0
 16 21  1  0  0  0
 16 31  1  0  0  0
 17 18  1  0  0  0
 17107  1  0  0  0
 18 19  2  0  0  0
 18108  1  0  0  0
 19 20  1  0  0  0
 19 24  1  0  0  0
 20 21  2  0  0  0
 20109  1  0  0  0
 21 23  1  0  0  0
 22 28  1  0  0  0
 22 32  2  0  0  0
 26 27  1  0  0  0
 28110  1  0  0  0
 28111  1  0  0  0
 29112  1  0  0  0
 29113  1  0  0  0
 33 34  1  0  0  0
 33 66  1  0  0  0
 33 70  2  0  0  0
 34 36  1  0  0  0
 34 59  1  0  0  0
 34114  1  0  0  0
 35 44  2  0  0  0
 35 45  1  0  0  0
 35 68  1  0  0  0
 36 56  1  0  0  0
 36115  1  0  0  0
 37 39  1  0  0  0
 37 47  1  0  0  0
 37 66  1  0  0  0
 37116  1  0  0  0
 38 43  2  0  0  0
 38 46  1  0  0  0
 38 47  1  0  0  0
 39 64  1  0  0  0
 39 67  2  0  0  0
 40 52  1  0  0  0
 40 53  2  0  0  0
 40 58  1  0  0  0
 41117  1  0  0  0
 41118  1  0  0  0
 41119  1  0  0  0
 41 48  1  0  0  0
 42 43  1  0  0  0
 42 66  1  0  0  0
 42120  1  0  0  0
 42121  1  0  0  0
 43 44  1  0  0  0
 44122  1  0  0  0
 45 46  2  0  0  0
 45123  1  0  0  0
 46124  1  0  0  0
 47125  1  0  0  0
 47126  1  0  0  0
 48 56  1  0  0  0
 48 65  1  0  0  0
 48127  1  0  0  0
 49 50  1  0  0  0
 49 53  1  0  0  0
 49 64  1  0  0  0
 49128  1  0  0  0
 50 51  1  0  0  0
 50129  1  0  0  0
 50130  1  0  0  0
 51 52  1  0  0  0
 51131  1  0  0  0
 51132  1  0  0  0
 52133  1  0  0  0
 52134  1  0  0  0
 53 54  1  0  0  0
 54 55  2  0  0  0
 54135  1  0  0  0
 55 57  1  0  0  0
 55136  1  0  0  0
 56 69  2  0  0  0
 57 58  2  0  0  0
 57137  1  0  0  0
 58138  1  0  0  0
 59 60  1  0  0  0
 59 61  1  0  0  0
 59 62  1  0  0  0
 60139  1  0  0  0
 60140  1  0  0  0
 60141  1  0  0  0
 61142  1  0  0  0
 61143  1  0  0  0
 61144  1  0  0  0
 62145  1  0  0  0
 62146  1  0  0  0
 62147  1  0  0  0
 63 65  1  0  0  0
 63148  1  0  0  0
 63149  1  0  0  0
 63150  1  0  0  0
 64151  1  0  0  0
 65152  1  0  0  0
 68 84  1  0  0  0
 71 72  2  0  0  0
 71 73  1  0  0  0
 71153  1  0  0  0
 72 74  1  0  0  0
 72154  1  0  0  0
 73 76  2  0  0  0
 73 82  1  0  0  0
 74 75  2  0  0  0
 74 88  1  0  0  0
 75 76  1  0  0  0
 75 86  1  0  0  0
 76 91  1  0  0  0
 77 78  1  0  0  0
 77 83  1  0  0  0
 77155  1  0  0  0
 77156  1  0  0  0
 78 85  1  0  0  0
 78157  1  0  0  0
 78158  1  0  0  0
 79 82  1  0  0  0
 79 84  1  0  0  0
 79159  1  0  0  0
 79160  1  0  0  0
 80 82  1  0  0  0
 80 84  1  0  0  0
 80161  1  0  0  0
 80162  1  0  0  0
 81 83  1  0  0  0
 81 93  1  0  0  0
 81163  1  0  0  0
 81164  1  0  0  0
 82165  1  0  0  0
 83 89  1  0  0  0
 83166  1  0  0  0
 84167  1  0  0  0
 85 87  1  0  0  0
 85 93  1  0  0  0
 85168  1  0  0  0
 86169  1  0  0  0
 86170  1  0  0  0
 86171  1  0  0  0
 87172  1  0  0  0
 87173  1  0  0  0
 87174  1  0  0  0
 88 90  1  0  0  0
 88175  1  0  0  0
 88176  1  0  0  0
 89 91  1  0  0  0
 89177  1  0  0  0
 89178  1  0  0  0
 90 92  1  0  0  0
 90179  1  0  0  0
 90180  1  0  0  0
 91181  1  0  0  0
 92182  1  0  0  0
 93183  1  0  0  0
 93184  1  0  0  0
M  CHG  1  93   1
M  ISO  4   1 100  68 101  84 101  92 100
M  END
> <chiral flag>
0

> <version>
0

> <s_m_source_file>
/data/baiqing/PycharmProjects/Reinvent-master-3.2/result/LINK_invent/BTK/process_docking_weight1_custom_sum_contain_oxygen_bond_distance_aromatic_linkinvent_7_9_3/rearranged_h_0153.sdf

> <i_m_source_file_index>
60

> <r_mmod_Potential_Energy-OPLS-2005>
-178.49919128418

> <r_mmod_Stretch_Energy-OPLS-2005>
42.9078521728516

> <r_mmod_Bend_Energy-OPLS-2005>
128.469451904297

> <r_mmod_Torsional_Energy-OPLS-2005>
267.785797119141

> <r_mmod_Improper_Torsional_Energy-OPLS-2005>
11.5465660095215

> <r_mmod_Van_der_Waal_Energy-OPLS-2005>
162.113479614258

> <r_mmod_Electrostatic_Energy-OPLS-2005>
-344.408660888672

> <r_mmod_Solvation_Energy-OPLS-2005>
-459.970092773438

> <b_mmod_Minimization_Converged-OPLS-2005>
0

> <r_mmod_RMS_Derivative-OPLS-2005>
2.37565684318542

$$$$
60
                    3D
 Structure written by MMmdl.
164174  0  0  1  0            999 V2000
  -30.6665  -14.7720   20.3602 C   0  0  0  0  0  0
  -30.4200  -12.4670   19.4348 C   0  0  0  0  0  0
  -29.4909  -12.4801   18.2056 C   0  0  0  0  0  0
  -28.0192  -12.3227   18.6402 C   0  0  0  0  0  0
  -27.6243  -13.2415   19.8302 C   0  0  2  0  0  0
  -28.6991  -13.2540   20.9433 C   0  0  0  0  0  0
  -25.2380  -13.8234   20.5680 C   0  0  0  0  0  0
  -24.1733  -13.0472   20.9198 C   0  0  0  0  0  0
  -24.6409  -11.6958   20.8845 C   0  0  0  0  0  0
  -23.9099  -10.4325   21.0465 C   0  0  0  0  0  0
  -24.3664   -9.4217   21.9210 C   0  0  0  0  0  0
  -23.6331   -8.2247   22.0777 C   0  0  0  0  0  0
  -22.4297   -8.0287   21.3571 C   0  0  0  0  0  0
  -21.9956   -9.0275   20.4684 C   0  0  0  0  0  0
  -22.7299  -10.2150   20.3094 C   0  0  0  0  0  0
  -21.6842   -6.0743   22.5294 C   0  0  0  0  0  0
  -21.3980   -6.5647   23.8220 C   0  0  0  0  0  0
  -21.3669   -5.6802   24.9182 C   0  0  0  0  0  0
  -21.6062   -4.3071   24.7249 C   0  0  0  0  0  0
  -21.8820   -3.8168   23.4364 C   0  0  0  0  0  0
  -21.9188   -4.6979   22.3412 C   0  0  0  0  0  0
  -22.7737  -13.5194   21.1817 C   0  0  0  0  0  0
  -22.1636   -4.2151   21.0988 F   0  0  0  0  0  0
  -21.5682   -3.4566   25.7754 F   0  0  0  0  0  0
  -29.9892  -13.5713   20.3190 N   0  0  0  0  0  0
  -26.2894  -12.9484   20.3367 N   0  0  0  0  0  0
  -25.9356  -11.6626   20.5964 N   0  0  0  0  0  0
  -22.0430  -12.8190   22.0402 N   0  0  0  0  0  0
  -25.3855  -15.1988   20.4005 N   0  0  0  0  0  0
  -31.8903  -14.7812   20.2044 O   0  0  0  0  0  0
  -21.6637   -6.8895   21.4256 O   0  0  0  0  0  0
  -22.3391  -14.5488   20.6625 O   0  0  0  0  0  0
  -24.6277  -31.8593   23.1987 C   0  0  0  0  0  0
  -25.9097  -32.4790   23.8360 C   0  0  1  0  0  0
  -27.2368  -27.3056   20.1491 C   0  0  0  0  0  0
  -25.5926  -33.8610   24.2290 N   0  0  0  0  0  0
  -23.4257  -30.4750   21.5423 C   0  0  2  0  0  0
  -24.8770  -28.9139   20.1247 C   0  0  0  0  0  0
  -22.7500  -29.4603   22.4943 C   0  0  0  0  0  0
  -18.0308  -28.1402   22.8450 C   0  0  0  0  0  0
  -24.1484  -36.7321   23.2632 C   0  0  0  0  0  0
  -25.9650  -30.7869   21.3683 C   0  0  0  0  0  0
  -26.0413  -29.4072   20.7234 C   0  0  0  0  0  0
  -27.2265  -28.6140   20.7209 C   0  0  0  0  0  0
  -26.0525  -26.8557   19.5322 C   0  0  0  0  0  0
  -24.8813  -27.6438   19.5205 C   0  0  0  0  0  0
  -23.6459  -29.7989   20.1629 C   0  0  0  0  0  0
  -25.4125  -36.3111   24.0321 C   0  0  1  0  0  0
  -20.5901  -28.3699   23.1297 C   0  0  2  0  0  0
  -20.6777  -26.9428   22.5439 C   0  0  0  0  0  0
  -19.5804  -26.6443   21.5173 C   0  0  0  0  0  0
  -18.1931  -26.7975   22.1513 C   0  0  0  0  0  0
  -19.1557  -28.8870   23.2872 C   0  0  0  0  0  0
  -18.9471  -30.1450   23.8941 C   0  0  0  0  0  0
  -17.6454  -30.6572   24.0604 C   0  0  0  0  0  0
  -25.9062  -34.9464   23.5108 C   0  0  0  0  0  0
  -16.5353  -29.9096   23.6296 C   0  0  0  0  0  0
  -16.7297  -28.6514   23.0300 C   0  0  0  0  0  0
  -26.4472  -31.6612   25.0739 C   0  0  0  0  0  0
  -25.3681  -31.3773   26.1456 C   0  0  0  0  0  0
  -27.0284  -30.3023   24.6167 C   0  0  0  0  0  0
  -27.6033  -32.4357   25.7482 C   0  0  0  0  0  0
  -27.5597  -37.1828   24.8453 C   0  0  0  0  0  0
  -21.4211  -29.3053   22.3700 N   0  0  0  0  0  0
  -26.4301  -37.3812   23.9403 N   0  0  0  0  0  0
  -24.6917  -31.0572   22.0950 N   0  0  0  0  0  0
  -23.4207  -28.8173   23.3035 O   0  0  0  0  0  0
  -28.3820  -26.5007   20.1335 O   0  0  0  0  0  0
  -26.5612  -34.8931   22.4653 O   0  0  0  0  0  0
  -23.5423  -32.1372   23.7305 O   0  0  0  0  0  0
  -28.5351  -24.6738   21.7876 C   0  0  0  0  0  0
  -28.6737  -23.2903   22.0830 C   0  0  0  0  0  0
  -28.3839  -25.1197   20.4525 C   0  0  0  0  0  0
  -28.4049  -24.0767   19.4717 C   0  0  0  0  0  0
  -28.7074  -22.3309   21.0463 C   0  0  0  0  0  0
  -28.0196  -17.2652   19.3590 C   0  0  0  0  0  0
  -27.2260  -23.7085   17.1460 C   0  0  0  0  0  0
  -28.7101  -23.5362   16.8779 C   0  0  0  0  0  0
  -28.0272  -17.9574   20.7396 C   0  0  0  0  0  0
  -29.2394  -16.3415   19.0894 C   0  0  0  0  0  0
  -30.5169  -17.3212   20.7814 C   0  0  0  0  0  0
  -28.2462  -24.4132   18.0103 C   0  0  0  0  0  0
  -29.4290  -18.4559   21.1395 C   0  0  1  0  0  0
  -29.6495  -19.9903   20.7034 C   0  0  0  0  0  0
  -28.5613  -22.7381   19.7600 N   0  0  0  0  0  0
  -29.9623  -15.9789   20.3275 N   0  0  0  0  0  0
  -28.7606  -20.9561   21.3644 O   0  0  0  0  0  0
  -31.4607  -12.5645   19.1170 H   0  0  0  0  0  0
  -30.3447  -11.5145   19.9602 H   0  0  0  0  0  0
  -29.7616  -11.6649   17.5317 H   0  0  0  0  0  0
  -29.6278  -13.4016   17.6372 H   0  0  0  0  0  0
  -27.8910  -11.2790   18.9296 H   0  0  0  0  0  0
  -27.3471  -12.4769   17.7922 H   0  0  0  0  0  0
  -27.5569  -14.2435   19.4210 H   0  0  0  0  0  0
  -28.7553  -12.2916   21.4465 H   0  0  0  0  0  0
  -28.4561  -13.9994   21.7038 H   0  0  0  0  0  0
  -25.2863   -9.5637   22.4740 H   0  0  0  0  0  0
  -24.0072   -7.4608   22.7442 H   0  0  0  0  0  0
  -21.0921   -8.8801   19.8960 H   0  0  0  0  0  0
  -22.3828  -10.9664   19.6172 H   0  0  0  0  0  0
  -21.1882   -7.6144   23.9726 H   0  0  0  0  0  0
  -21.1518   -6.0521   25.9080 H   0  0  0  0  0  0
  -22.0589   -2.7629   23.2846 H   0  0  0  0  0  0
  -22.4187  -11.9927   22.4789 H   0  0  0  0  0  0
  -21.0998  -13.1068   22.2612 H   0  0  0  0  0  0
  -24.6064  -15.8459   20.4763 H   0  0  0  0  0  0
  -26.2411  -15.6532   20.1103 H   0  0  0  0  0  0
  -26.7204  -32.5442   23.1154 H   0  0  0  0  0  0
  -25.0142  -33.9760   25.0487 H   0  0  0  0  0  0
  -22.7193  -31.2940   21.3934 H   0  0  0  0  0  0
  -23.3757  -35.9648   23.3291 H   0  0  0  0  0  0
  -24.3585  -36.8918   22.2042 H   0  0  0  0  0  0
  -23.7195  -37.6521   23.6640 H   0  0  0  0  0  0
  -26.0891  -31.5460   20.5951 H   0  0  0  0  0  0
  -26.8499  -30.8486   21.9894 H   0  0  0  0  0  0
  -28.1333  -29.0006   21.1624 H   0  0  0  0  0  0
  -26.0238  -25.8828   19.0633 H   0  0  0  0  0  0
  -23.9820  -27.2566   19.0621 H   0  0  0  0  0  0
  -23.7857  -30.5724   19.4070 H   0  0  0  0  0  0
  -22.7623  -29.2359   19.8515 H   0  0  0  0  0  0
  -25.1302  -36.2003   25.0819 H   0  0  0  0  0  0
  -20.9992  -28.3241   24.1425 H   0  0  0  0  0  0
  -20.5595  -26.2341   23.3656 H   0  0  0  0  0  0
  -21.6672  -26.7394   22.1330 H   0  0  0  0  0  0
  -19.6769  -27.3340   20.6781 H   0  0  0  0  0  0
  -19.6977  -25.6386   21.1115 H   0  0  0  0  0  0
  -17.4271  -26.6851   21.3827 H   0  0  0  0  0  0
  -18.0185  -26.0063   22.8817 H   0  0  0  0  0  0
  -19.7933  -30.7234   24.2383 H   0  0  0  0  0  0
  -17.4992  -31.6215   24.5273 H   0  0  0  0  0  0
  -15.5361  -30.2996   23.7599 H   0  0  0  0  0  0
  -15.8700  -28.0848   22.7000 H   0  0  0  0  0  0
  -24.5877  -30.7088   25.7802 H   0  0  0  0  0  0
  -24.8855  -32.2946   26.4843 H   0  0  0  0  0  0
  -25.8005  -30.8989   27.0248 H   0  0  0  0  0  0
  -26.2835  -29.6815   24.1166 H   0  0  0  0  0  0
  -27.3941  -29.7255   25.4677 H   0  0  0  0  0  0
  -27.8737  -30.4324   23.9406 H   0  0  0  0  0  0
  -27.2657  -33.3677   26.2053 H   0  0  0  0  0  0
  -28.3840  -32.6901   25.0293 H   0  0  0  0  0  0
  -28.0723  -31.8483   26.5382 H   0  0  0  0  0  0
  -28.2632  -38.0115   24.7550 H   0  0  0  0  0  0
  -28.1076  -36.2656   24.6253 H   0  0  0  0  0  0
  -27.2311  -37.1449   25.8850 H   0  0  0  0  0  0
  -20.9391  -29.8802   21.6916 H   0  0  0  0  0  0
  -26.0189  -38.2890   24.1419 H   0  0  0  0  0  0
  -28.5719  -25.3952   22.5913 H   0  0  0  0  0  0
  -28.7751  -22.9731   23.1112 H   0  0  0  0  0  0
  -27.9569  -18.0225   18.5766 H   0  0  0  0  0  0
  -27.0997  -16.7040   19.2422 H   0  0  0  0  0  0
  -26.7021  -22.8458   17.5500 H   0  0  0  0  0  0
  -26.6525  -24.3253   16.4546 H   0  0  0  0  0  0
  -29.0955  -24.0256   15.9852 H   0  0  0  0  0  0
  -29.1765  -22.5887   17.1342 H   0  0  0  0  0  0
  -27.6936  -17.2507   21.5020 H   0  0  0  0  0  0
  -27.2989  -18.7726   20.7687 H   0  0  0  0  0  0
  -29.9227  -16.8577   18.4107 H   0  0  0  0  0  0
  -28.9475  -15.4814   18.4952 H   0  0  0  0  0  0
  -31.1518  -17.1476   21.6518 H   0  0  0  0  0  0
  -31.2018  -17.7114   20.0248 H   0  0  0  0  0  0
  -28.3795  -25.4802   17.8506 H   0  0  0  0  0  0
  -29.4376  -18.4913   22.2290 H   0  0  0  0  0  0
  -29.5804  -20.0850   19.6202 H   0  0  0  0  0  0
  -30.6596  -20.2901   20.9823 H   0  0  0  0  0  0
  1 25  1  0  0  0
  1 30  2  0  0  0
  1 86  1  0  0  0
  2  3  1  0  0  0
  2 25  1  0  0  0
  2 88  1  0  0  0
  2 89  1  0  0  0
  3  4  1  0  0  0
  3 90  1  0  0  0
  3 91  1  0  0  0
  4  5  1  0  0  0
  4 92  1  0  0  0
  4 93  1  0  0  0
  5  6  1  0  0  0
  5 26  1  0  0  0
  5 94  1  0  0  0
  6 25  1  0  0  0
  6 95  1  0  0  0
  6 96  1  0  0  0
  7  8  2  0  0  0
  7 26  1  0  0  0
  7 29  1  0  0  0
  8  9  1  0  0  0
  8 22  1  0  0  0
  9 10  1  0  0  0
  9 27  2  0  0  0
 10 11  2  0  0  0
 10 15  1  0  0  0
 11 12  1  0  0  0
 11 97  1  0  0  0
 12 13  2  0  0  0
 12 98  1  0  0  0
 13 14  1  0  0  0
 13 31  1  0  0  0
 14 15  2  0  0  0
 14 99  1  0  0  0
 15100  1  0  0  0
 16 17  2  0  0  0
 16 21  1  0  0  0
 16 31  1  0  0  0
 17 18  1  0  0  0
 17101  1  0  0  0
 18 19  2  0  0  0
 18102  1  0  0  0
 19 20  1  0  0  0
 19 24  1  0  0  0
 20 21  2  0  0  0
 20103  1  0  0  0
 21 23  1  0  0  0
 22 28  1  0  0  0
 22 32  2  0  0  0
 26 27  1  0  0  0
 28104  1  0  0  0
 28105  1  0  0  0
 29106  1  0  0  0
 29107  1  0  0  0
 33 34  1  0  0  0
 33 66  1  0  0  0
 33 70  2  0  0  0
 34 36  1  0  0  0
 34 59  1  0  0  0
 34108  1  0  0  0
 35 44  2  0  0  0
 35 45  1  0  0  0
 35 68  1  0  0  0
 36 56  1  0  0  0
 36109  1  0  0  0
 37 39  1  0  0  0
 37 47  1  0  0  0
 37 66  1  0  0  0
 37110  1  0  0  0
 38 43  2  0  0  0
 38 46  1  0  0  0
 38 47  1  0  0  0
 39 64  1  0  0  0
 39 67  2  0  0  0
 40 52  1  0  0  0
 40 53  2  0  0  0
 40 58  1  0  0  0
 41111  1  0  0  0
 41112  1  0  0  0
 41113  1  0  0  0
 41 48  1  0  0  0
 42 43  1  0  0  0
 42 66  1  0  0  0
 42114  1  0  0  0
 42115  1  0  0  0
 43 44  1  0  0  0
 44116  1  0  0  0
 45 46  2  0  0  0
 45117  1  0  0  0
 46118  1  0  0  0
 47119  1  0  0  0
 47120  1  0  0  0
 48 56  1  0  0  0
 48 65  1  0  0  0
 48121  1  0  0  0
 49 50  1  0  0  0
 49 53  1  0  0  0
 49 64  1  0  0  0
 49122  1  0  0  0
 50 51  1  0  0  0
 50123  1  0  0  0
 50124  1  0  0  0
 51 52  1  0  0  0
 51125  1  0  0  0
 51126  1  0  0  0
 52127  1  0  0  0
 52128  1  0  0  0
 53 54  1  0  0  0
 54 55  2  0  0  0
 54129  1  0  0  0
 55 57  1  0  0  0
 55130  1  0  0  0
 56 69  2  0  0  0
 57 58  2  0  0  0
 57131  1  0  0  0
 58132  1  0  0  0
 59 60  1  0  0  0
 59 61  1  0  0  0
 59 62  1  0  0  0
 60133  1  0  0  0
 60134  1  0  0  0
 60135  1  0  0  0
 61136  1  0  0  0
 61137  1  0  0  0
 61138  1  0  0  0
 62139  1  0  0  0
 62140  1  0  0  0
 62141  1  0  0  0
 63 65  1  0  0  0
 63142  1  0  0  0
 63143  1  0  0  0
 63144  1  0  0  0
 64145  1  0  0  0
 65146  1  0  0  0
 68 73  1  0  0  0
 71 72  2  0  0  0
 71 73  1  0  0  0
 71147  1  0  0  0
 72 75  1  0  0  0
 72148  1  0  0  0
 73 74  2  0  0  0
 74 85  1  0  0  0
 74 82  1  0  0  0
 75 85  2  0  0  0
 75 87  1  0  0  0
 76 79  1  0  0  0
 76 80  1  0  0  0
 76149  1  0  0  0
 76150  1  0  0  0
 77 78  1  0  0  0
 77 82  1  0  0  0
 77151  1  0  0  0
 77152  1  0  0  0
 78 82  1  0  0  0
 78153  1  0  0  0
 78154  1  0  0  0
 79 83  1  0  0  0
 79155  1  0  0  0
 79156  1  0  0  0
 80 86  1  0  0  0
 80157  1  0  0  0
 80158  1  0  0  0
 81 83  1  0  0  0
 81 86  1  0  0  0
 81159  1  0  0  0
 81160  1  0  0  0
 82161  1  0  0  0
 83 84  1  0  0  0
 83162  1  0  0  0
 84 87  1  0  0  0
 84163  1  0  0  0
 84164  1  0  0  0
M  ISO  4   1 100  68 101  73 101  86 100
M  END
> <chiral flag>
0

> <version>
0

> <s_m_source_file>
/data/baiqing/PycharmProjects/Reinvent-master-3.2/result/LINK_invent/BTK/process_docking_weight1_custom_sum_contain_oxygen_bond_distance_aromatic_linkinvent_7_9_3/rearranged_h_0153.sdf

> <i_m_source_file_index>
61

> <r_mmod_Potential_Energy-OPLS-2005>
247.256408691406

> <r_mmod_Stretch_Energy-OPLS-2005>
94.526969909668

> <r_mmod_Bend_Energy-OPLS-2005>
169.207641601562

> <r_mmod_Torsional_Energy-OPLS-2005>
392.633026123047

> <r_mmod_Improper_Torsional_Energy-OPLS-2005>
10.8315181732178

> <r_mmod_Van_der_Waal_Energy-OPLS-2005>
139.332260131836

> <r_mmod_Electrostatic_Energy-OPLS-2005>
-451.434356689453

> <r_mmod_Solvation_Energy-OPLS-2005>
-195.961135864258

> <b_mmod_Minimization_Converged-OPLS-2005>
0

> <r_mmod_RMS_Derivative-OPLS-2005>
6.2860221862793

$$$$
61
                    3D
 Structure written by MMmdl.
176185  0  0  1  0            999 V2000
  -30.6802  -14.5265   20.5576 C   0  0  0  0  0  0
  -30.4245  -12.3320   19.4394 C   0  0  0  0  0  0
  -29.5015  -12.5008   18.2137 C   0  0  0  0  0  0
  -28.0217  -12.3598   18.6230 C   0  0  0  0  0  0
  -27.6602  -13.2104   19.8709 C   0  0  2  0  0  0
  -28.7015  -13.0206   20.9980 C   0  0  0  0  0  0
  -25.2606  -13.8163   20.5684 C   0  0  0  0  0  0
  -24.1860  -13.0435   20.9185 C   0  0  0  0  0  0
  -24.6414  -11.6908   20.8742 C   0  0  0  0  0  0
  -23.9077  -10.4292   21.0413 C   0  0  0  0  0  0
  -24.3627   -9.4210   21.9197 C   0  0  0  0  0  0
  -23.6293   -8.2251   22.0771 C   0  0  0  0  0  0
  -22.4285   -8.0290   21.3551 C   0  0  0  0  0  0
  -21.9921   -9.0263   20.4656 C   0  0  0  0  0  0
  -22.7255  -10.2135   20.3058 C   0  0  0  0  0  0
  -21.6846   -6.0747   22.5282 C   0  0  0  0  0  0
  -21.4013   -6.5651   23.8217 C   0  0  0  0  0  0
  -21.3650   -5.6798   24.9175 C   0  0  0  0  0  0
  -21.6043   -4.3062   24.7225 C   0  0  0  0  0  0
  -21.8818   -3.8160   23.4343 C   0  0  0  0  0  0
  -21.9195   -4.6976   22.3402 C   0  0  0  0  0  0
  -22.7885  -13.5250   21.1824 C   0  0  0  0  0  0
  -22.1667   -4.2172   21.0971 F   0  0  0  0  0  0
  -21.5620   -3.4540   25.7731 F   0  0  0  0  0  0
  -30.0262  -13.3350   20.4428 N   0  0  0  0  0  0
  -26.3028  -12.9328   20.3342 N   0  0  0  0  0  0
  -25.9342  -11.6491   20.5763 N   0  0  0  0  0  0
  -22.0507  -12.8238   22.0357 N   0  0  0  0  0  0
  -25.4323  -15.1872   20.4090 N   0  0  0  0  0  0
  -31.8136  -14.7003   20.1015 O   0  0  0  0  0  0
  -21.6634   -6.8898   21.4250 O   0  0  0  0  0  0
  -22.3597  -14.5565   20.6680 O   0  0  0  0  0  0
  -24.6178  -31.8634   23.2043 C   0  0  0  0  0  0
  -25.9044  -32.4796   23.8364 C   0  0  1  0  0  0
  -27.2385  -27.3768   20.1076 C   0  0  0  0  0  0
  -25.5901  -33.8598   24.2297 N   0  0  0  0  0  0
  -23.4084  -30.4824   21.5489 C   0  0  2  0  0  0
  -24.8549  -28.9258   20.1279 C   0  0  0  0  0  0
  -22.7423  -29.4639   22.5018 C   0  0  0  0  0  0
  -18.0283  -28.1362   22.8527 C   0  0  0  0  0  0
  -24.1479  -36.7303   23.2641 C   0  0  0  0  0  0
  -25.9405  -30.8063   21.3627 C   0  0  0  0  0  0
  -26.0176  -29.4294   20.7249 C   0  0  0  0  0  0
  -27.2128  -28.6625   20.7110 C   0  0  0  0  0  0
  -26.0559  -26.8919   19.5124 C   0  0  0  0  0  0
  -24.8686  -27.6553   19.5252 C   0  0  0  0  0  0
  -23.6189  -29.8021   20.1693 C   0  0  0  0  0  0
  -25.4113  -36.3093   24.0321 C   0  0  1  0  0  0
  -20.5874  -28.3654   23.1336 C   0  0  2  0  0  0
  -20.6775  -26.9390   22.5421 C   0  0  0  0  0  0
  -19.5747  -26.6380   21.5225 C   0  0  0  0  0  0
  -18.1923  -26.7911   22.1637 C   0  0  0  0  0  0
  -19.1532  -28.8825   23.2928 C   0  0  0  0  0  0
  -18.9456  -30.1432   23.8926 C   0  0  0  0  0  0
  -17.6458  -30.6569   24.0569 C   0  0  0  0  0  0
  -25.9056  -34.9455   23.5113 C   0  0  0  0  0  0
  -16.5352  -29.9070   23.6333 C   0  0  0  0  0  0
  -16.7273  -28.6484   23.0375 C   0  0  0  0  0  0
  -26.4475  -31.6574   25.0693 C   0  0  0  0  0  0
  -25.3737  -31.3610   26.1432 C   0  0  0  0  0  0
  -27.0333  -30.3040   24.6023 C   0  0  0  0  0  0
  -27.6049  -32.4298   25.7466 C   0  0  0  0  0  0
  -27.5577  -37.1805   24.8476 C   0  0  0  0  0  0
  -21.4150  -29.3013   22.3741 N   0  0  0  0  0  0
  -26.4297  -37.3779   23.9404 N   0  0  0  0  0  0
  -24.6751  -31.0668   22.0971 N   0  0  0  0  0  0
  -23.4163  -28.8193   23.3094 O   0  0  0  0  0  0
  -28.4154  -26.6549   19.9815 O   0  0  0  0  0  0
  -26.5628  -34.8902   22.4675 O   0  0  0  0  0  0
  -23.5361  -32.1464   23.7387 O   0  0  0  0  0  0
  -28.7787  -25.1504   21.8752 C   0  0  0  0  0  0
  -28.8328  -24.1449   19.8756 C   0  0  0  0  0  0
  -28.5971  -25.3965   20.5499 C   0  0  0  0  0  0
  -29.1981  -23.1831   20.8113 C   0  0  0  0  0  0
  -30.2917  -21.2434   19.3557 C   0  0  0  0  0  0
  -30.4289  -19.7236   19.5525 C   0  0  0  0  0  0
  -28.7376  -20.5264   21.0602 C   0  0  0  0  0  0
  -29.6866  -21.7134   20.6844 C   0  0  2  0  0  0
  -28.7597  -23.9685   18.3791 C   0  0  0  0  0  0
  -31.0579  -23.5984   23.6147 C   0  0  0  0  0  0
  -31.1032  -17.3887   22.2336 C   0  0  0  0  0  0
  -27.1759  -23.3993   24.2974 C   0  0  0  0  0  0
  -29.0319  -17.9325   20.8091 C   0  0  0  0  0  0
  -29.5782  -23.2724   23.3517 C   0  0  1  0  0  0
  -30.3033  -17.0148   20.9699 C   0  0  2  0  0  0
  -28.6679  -23.6609   24.5444 C   0  0  1  0  0  0
  -29.1562  -23.8253   22.0576 N   0  0  0  0  0  0
  -29.9532  -15.5662   21.0402 N   0  0  0  0  0  0
  -29.1979  -19.3368   20.2721 N   0  3  2  0  0  0
  -28.8266  -24.9422   24.8862 F   0  0  0  0  0  0
  -31.4714  -12.4256   19.1452 H   0  0  0  0  0  0
  -30.3223  -11.3284   19.8555 H   0  0  0  0  0  0
  -29.7475  -11.7589   17.4524 H   0  0  0  0  0  0
  -29.6662  -13.4762   17.7530 H   0  0  0  0  0  0
  -27.8365  -11.3045   18.8290 H   0  0  0  0  0  0
  -27.3716  -12.6225   17.7867 H   0  0  0  0  0  0
  -27.6952  -14.2534   19.5556 H   0  0  0  0  0  0
  -28.6910  -11.9905   21.3574 H   0  0  0  0  0  0
  -28.4608  -13.6378   21.8645 H   0  0  0  0  0  0
  -25.2772   -9.5680   22.4782 H   0  0  0  0  0  0
  -23.9995   -7.4646   22.7502 H   0  0  0  0  0  0
  -21.0856   -8.8797   19.8960 H   0  0  0  0  0  0
  -22.3738  -10.9681   19.6168 H   0  0  0  0  0  0
  -21.2007   -7.6160   23.9730 H   0  0  0  0  0  0
  -21.1469   -6.0524   25.9077 H   0  0  0  0  0  0
  -22.0606   -2.7627   23.2832 H   0  0  0  0  0  0
  -22.4089  -11.9862   22.4696 H   0  0  0  0  0  0
  -21.1131  -13.1285   22.2559 H   0  0  0  0  0  0
  -24.6582  -15.8364   20.4990 H   0  0  0  0  0  0
  -26.2697  -15.6181   20.0403 H   0  0  0  0  0  0
  -26.7095  -32.5491   23.1110 H   0  0  0  0  0  0
  -25.0039  -33.9761   25.0434 H   0  0  0  0  0  0
  -22.7003  -31.3005   21.4010 H   0  0  0  0  0  0
  -23.3733  -35.9652   23.3334 H   0  0  0  0  0  0
  -24.3581  -36.8915   22.2055 H   0  0  0  0  0  0
  -23.7235  -37.6505   23.6669 H   0  0  0  0  0  0
  -26.0486  -31.5572   20.5799 H   0  0  0  0  0  0
  -26.8302  -30.8757   21.9765 H   0  0  0  0  0  0
  -28.1197  -29.0533   21.1496 H   0  0  0  0  0  0
  -26.0584  -25.9260   19.0276 H   0  0  0  0  0  0
  -23.9710  -27.2650   19.0643 H   0  0  0  0  0  0
  -23.7302  -30.5716   19.4046 H   0  0  0  0  0  0
  -22.7390  -29.2263   19.8764 H   0  0  0  0  0  0
  -25.1275  -36.1963   25.0815 H   0  0  0  0  0  0
  -20.9991  -28.3217   24.1456 H   0  0  0  0  0  0
  -20.5720  -26.2241   23.3601 H   0  0  0  0  0  0
  -21.6637  -26.7458   22.1183 H   0  0  0  0  0  0
  -19.6914  -25.6307   21.1219 H   0  0  0  0  0  0
  -19.6669  -27.3225   20.6780 H   0  0  0  0  0  0
  -17.4198  -26.6710   21.4020 H   0  0  0  0  0  0
  -18.0300  -26.0019   22.8994 H   0  0  0  0  0  0
  -19.7926  -30.7250   24.2298 H   0  0  0  0  0  0
  -17.5005  -31.6261   24.5149 H   0  0  0  0  0  0
  -15.5353  -30.2972   23.7629 H   0  0  0  0  0  0
  -15.8681  -28.0794   22.7089 H   0  0  0  0  0  0
  -24.5952  -30.6923   25.7742 H   0  0  0  0  0  0
  -24.8857  -32.2705   26.4932 H   0  0  0  0  0  0
  -25.8105  -30.8750   27.0162 H   0  0  0  0  0  0
  -26.2876  -29.6795   24.1081 H   0  0  0  0  0  0
  -27.4162  -29.7260   25.4436 H   0  0  0  0  0  0
  -27.8667  -30.4411   23.9135 H   0  0  0  0  0  0
  -27.2709  -33.3632   26.2008 H   0  0  0  0  0  0
  -28.3889  -32.6798   25.0309 H   0  0  0  0  0  0
  -28.0672  -31.8420   26.5409 H   0  0  0  0  0  0
  -28.2583  -38.0109   24.7547 H   0  0  0  0  0  0
  -28.1074  -36.2634   24.6289 H   0  0  0  0  0  0
  -27.2287  -37.1452   25.8875 H   0  0  0  0  0  0
  -20.9312  -29.8716   21.6946 H   0  0  0  0  0  0
  -26.0177  -38.2856   24.1406 H   0  0  0  0  0  0
  -28.7321  -25.8353   22.7076 H   0  0  0  0  0  0
  -29.6112  -21.4288   18.5267 H   0  0  0  0  0  0
  -31.2449  -21.7222   19.1285 H   0  0  0  0  0  0
  -31.3123  -19.5133   20.1560 H   0  0  0  0  0  0
  -30.5331  -19.1887   18.6069 H   0  0  0  0  0  0
  -27.7078  -20.7468   20.7767 H   0  0  0  0  0  0
  -28.7487  -20.3300   22.1314 H   0  0  0  0  0  0
  -30.5295  -21.6214   21.3701 H   0  0  0  0  0  0
  -28.4443  -24.8909   17.8912 H   0  0  0  0  0  0
  -28.0398  -23.1925   18.1203 H   0  0  0  0  0  0
  -29.7335  -23.6967   17.9722 H   0  0  0  0  0  0
  -31.2267  -24.6742   23.6555 H   0  0  0  0  0  0
  -31.6977  -23.1910   22.8315 H   0  0  0  0  0  0
  -31.3912  -23.1711   24.5605 H   0  0  0  0  0  0
  -31.4284  -18.4280   22.2185 H   0  0  0  0  0  0
  -31.9980  -16.7725   22.3338 H   0  0  0  0  0  0
  -30.5084  -17.2478   23.1378 H   0  0  0  0  0  0
  -27.0147  -22.3737   23.9646 H   0  0  0  0  0  0
  -26.7724  -24.0612   23.5317 H   0  0  0  0  0  0
  -26.6000  -23.5521   25.2098 H   0  0  0  0  0  0
  -28.4769  -17.9619   21.7481 H   0  0  0  0  0  0
  -28.3600  -17.4412   20.1050 H   0  0  0  0  0  0
  -29.5008  -22.1902   23.2921 H   0  0  0  0  0  0
  -30.9440  -17.1447   20.0967 H   0  0  0  0  0  0
  -28.9829  -23.0893   25.4199 H   0  0  0  0  0  0
  -29.0344  -15.3302   21.3849 H   0  0  0  0  0  0
  -28.5138  -19.3329   19.5290 H   0  0  0  0  0  0
  1 25  1  0  0  0
  1 30  2  0  0  0
  1 88  1  0  0  0
  2  3  1  0  0  0
  2 25  1  0  0  0
  2 91  1  0  0  0
  2 92  1  0  0  0
  3  4  1  0  0  0
  3 93  1  0  0  0
  3 94  1  0  0  0
  4  5  1  0  0  0
  4 95  1  0  0  0
  4 96  1  0  0  0
  5  6  1  0  0  0
  5 26  1  0  0  0
  5 97  1  0  0  0
  6 25  1  0  0  0
  6 98  1  0  0  0
  6 99  1  0  0  0
  7  8  2  0  0  0
  7 26  1  0  0  0
  7 29  1  0  0  0
  8  9  1  0  0  0
  8 22  1  0  0  0
  9 10  1  0  0  0
  9 27  2  0  0  0
 10 11  2  0  0  0
 10 15  1  0  0  0
 11 12  1  0  0  0
 11100  1  0  0  0
 12 13  2  0  0  0
 12101  1  0  0  0
 13 14  1  0  0  0
 13 31  1  0  0  0
 14 15  2  0  0  0
 14102  1  0  0  0
 15103  1  0  0  0
 16 17  2  0  0  0
 16 21  1  0  0  0
 16 31  1  0  0  0
 17 18  1  0  0  0
 17104  1  0  0  0
 18 19  2  0  0  0
 18105  1  0  0  0
 19 20  1  0  0  0
 19 24  1  0  0  0
 20 21  2  0  0  0
 20106  1  0  0  0
 21 23  1  0  0  0
 22 28  1  0  0  0
 22 32  2  0  0  0
 26 27  1  0  0  0
 28107  1  0  0  0
 28108  1  0  0  0
 29109  1  0  0  0
 29110  1  0  0  0
 33 34  1  0  0  0
 33 66  1  0  0  0
 33 70  2  0  0  0
 34 36  1  0  0  0
 34 59  1  0  0  0
 34111  1  0  0  0
 35 44  2  0  0  0
 35 45  1  0  0  0
 35 68  1  0  0  0
 36 56  1  0  0  0
 36112  1  0  0  0
 37 39  1  0  0  0
 37 47  1  0  0  0
 37 66  1  0  0  0
 37113  1  0  0  0
 38 43  2  0  0  0
 38 46  1  0  0  0
 38 47  1  0  0  0
 39 64  1  0  0  0
 39 67  2  0  0  0
 40 52  1  0  0  0
 40 53  2  0  0  0
 40 58  1  0  0  0
 41114  1  0  0  0
 41115  1  0  0  0
 41116  1  0  0  0
 41 48  1  0  0  0
 42 43  1  0  0  0
 42 66  1  0  0  0
 42117  1  0  0  0
 42118  1  0  0  0
 43 44  1  0  0  0
 44119  1  0  0  0
 45 46  2  0  0  0
 45120  1  0  0  0
 46121  1  0  0  0
 47122  1  0  0  0
 47123  1  0  0  0
 48 56  1  0  0  0
 48 65  1  0  0  0
 48124  1  0  0  0
 49 50  1  0  0  0
 49 53  1  0  0  0
 49 64  1  0  0  0
 49125  1  0  0  0
 50 51  1  0  0  0
 50126  1  0  0  0
 50127  1  0  0  0
 51 52  1  0  0  0
 51128  1  0  0  0
 51129  1  0  0  0
 52130  1  0  0  0
 52131  1  0  0  0
 53 54  1  0  0  0
 54 55  2  0  0  0
 54132  1  0  0  0
 55 57  1  0  0  0
 55133  1  0  0  0
 56 69  2  0  0  0
 57 58  2  0  0  0
 57134  1  0  0  0
 58135  1  0  0  0
 59 60  1  0  0  0
 59 61  1  0  0  0
 59 62  1  0  0  0
 60136  1  0  0  0
 60137  1  0  0  0
 60138  1  0  0  0
 61139  1  0  0  0
 61140  1  0  0  0
 61141  1  0  0  0
 62142  1  0  0  0
 62143  1  0  0  0
 62144  1  0  0  0
 63 65  1  0  0  0
 63145  1  0  0  0
 63146  1  0  0  0
 63147  1  0  0  0
 64148  1  0  0  0
 65149  1  0  0  0
 68 73  1  0  0  0
 71 73  2  0  0  0
 71 87  1  0  0  0
 71150  1  0  0  0
 72 73  1  0  0  0
 72 74  2  0  0  0
 72 79  1  0  0  0
 74 87  1  0  0  0
 74 78  1  0  0  0
 75 76  1  0  0  0
 75 78  1  0  0  0
 75151  1  0  0  0
 75152  1  0  0  0
 76 89  1  0  0  0
 76153  1  0  0  0
 76154  1  0  0  0
 77 78  1  0  0  0
 77 89  1  0  0  0
 77155  1  0  0  0
 77156  1  0  0  0
 78157  1  0  0  0
 79158  1  0  0  0
 79159  1  0  0  0
 79160  1  0  0  0
 80161  1  0  0  0
 80162  1  0  0  0
 80163  1  0  0  0
 80 84  1  0  0  0
 81164  1  0  0  0
 81165  1  0  0  0
 81166  1  0  0  0
 81 85  1  0  0  0
 82167  1  0  0  0
 82168  1  0  0  0
 82169  1  0  0  0
 82 86  1  0  0  0
 83 85  1  0  0  0
 83170  1  0  0  0
 83171  1  0  0  0
 83 89  1  0  0  0
 84 86  1  0  0  0
 84 87  1  0  0  0
 84172  1  0  0  0
 85 88  1  0  0  0
 85173  1  0  0  0
 86 90  1  0  0  0
 86174  1  0  0  0
 88175  1  0  0  0
 89176  1  0  0  0
M  CHG  1  89   1
M  ISO  4   1 100  68 101  73 101  88 100
M  END
> <chiral flag>
0

> <version>
0

> <s_m_source_file>
/data/baiqing/PycharmProjects/Reinvent-master-3.2/result/LINK_invent/BTK/process_docking_weight1_custom_sum_contain_oxygen_bond_distance_aromatic_linkinvent_7_9_3/rearranged_h_0153.sdf

> <i_m_source_file_index>
62

> <r_mmod_Potential_Energy-OPLS-2005>
-78.5743789672852

> <r_mmod_Stretch_Energy-OPLS-2005>
55.3932266235352

> <r_mmod_Bend_Energy-OPLS-2005>
170.105194091797

> <r_mmod_Torsional_Energy-OPLS-2005>
318.357421875

> <r_mmod_Improper_Torsional_Energy-OPLS-2005>
6.33236026763916

> <r_mmod_Van_der_Waal_Energy-OPLS-2005>
109.926963806152

> <r_mmod_Electrostatic_Energy-OPLS-2005>
-281.496643066406

> <r_mmod_Solvation_Energy-OPLS-2005>
-476.742126464844

> <b_mmod_Minimization_Converged-OPLS-2005>
0

> <r_mmod_RMS_Derivative-OPLS-2005>
2.7328417301178

$$$$
62
                    3D
 Structure written by MMmdl.
171180  0  0  1  0            999 V2000
  -30.5638  -14.7879   20.4408 C   0  0  0  0  0  0
  -30.4625  -12.4872   19.4407 C   0  0  0  0  0  0
  -29.5103  -12.5072   18.2203 C   0  0  0  0  0  0
  -28.0382  -12.3247   18.6473 C   0  0  0  0  0  0
  -27.6426  -13.2179   19.8513 C   0  0  2  0  0  0
  -28.7053  -13.1381   20.9698 C   0  0  0  0  0  0
  -25.2419  -13.7897   20.5676 C   0  0  0  0  0  0
  -24.1721  -13.0235   20.9221 C   0  0  0  0  0  0
  -24.6381  -11.6761   20.8763 C   0  0  0  0  0  0
  -23.9058  -10.4185   21.0397 C   0  0  0  0  0  0
  -24.3628   -9.4123   21.9182 C   0  0  0  0  0  0
  -23.6291   -8.2178   22.0743 C   0  0  0  0  0  0
  -22.4263   -8.0239   21.3525 C   0  0  0  0  0  0
  -21.9903   -9.0216   20.4635 C   0  0  0  0  0  0
  -22.7250  -10.2078   20.3030 C   0  0  0  0  0  0
  -21.6833   -6.0712   22.5267 C   0  0  0  0  0  0
  -21.3993   -6.5610   23.8202 C   0  0  0  0  0  0
  -21.3655   -5.6769   24.9160 C   0  0  0  0  0  0
  -21.6058   -4.3028   24.7212 C   0  0  0  0  0  0
  -21.8833   -3.8127   23.4331 C   0  0  0  0  0  0
  -21.9177   -4.6946   22.3390 C   0  0  0  0  0  0
  -22.7765  -13.5078   21.1878 C   0  0  0  0  0  0
  -22.1660   -4.2122   21.0972 F   0  0  0  0  0  0
  -21.5638   -3.4529   25.7734 F   0  0  0  0  0  0
  -29.9959  -13.5298   20.3796 N   0  0  0  0  0  0
  -26.2948  -12.9219   20.3343 N   0  0  0  0  0  0
  -25.9325  -11.6381   20.5787 N   0  0  0  0  0  0
  -22.0393  -12.8117   22.0455 N   0  0  0  0  0  0
  -25.3917  -15.1499   20.4095 N   0  0  0  0  0  0
  -31.7651  -14.9455   20.2070 O   0  0  0  0  0  0
  -21.6610   -6.8847   21.4225 O   0  0  0  0  0  0
  -22.3504  -14.5406   20.6709 O   0  0  0  0  0  0
  -24.6288  -31.8535   23.1989 C   0  0  0  0  0  0
  -25.9116  -32.4753   23.8343 C   0  0  1  0  0  0
  -27.2541  -27.2898   20.1168 C   0  0  0  0  0  0
  -25.5931  -33.8558   24.2272 N   0  0  0  0  0  0
  -23.4287  -30.4721   21.5388 C   0  0  2  0  0  0
  -24.8831  -28.9220   20.1139 C   0  0  0  0  0  0
  -22.7486  -29.4556   22.4863 C   0  0  0  0  0  0
  -18.0244  -28.1335   22.8642 C   0  0  0  0  0  0
  -24.1492  -36.7283   23.2642 C   0  0  0  0  0  0
  -25.9710  -30.7728   21.3792 C   0  0  0  0  0  0
  -26.0502  -29.3974   20.7214 C   0  0  0  0  0  0
  -27.2344  -28.5940   20.7103 C   0  0  0  0  0  0
  -26.0526  -26.8722   19.4917 C   0  0  0  0  0  0
  -24.8867  -27.6643   19.4922 C   0  0  0  0  0  0
  -23.6524  -29.8061   20.1565 C   0  0  0  0  0  0
  -25.4114  -36.3062   24.0318 C   0  0  1  0  0  0
  -20.5874  -28.3694   23.1306 C   0  0  2  0  0  0
  -20.6710  -26.9347   22.5601 C   0  0  0  0  0  0
  -19.5626  -26.6292   21.5435 C   0  0  0  0  0  0
  -18.1883  -26.7768   22.1995 C   0  0  0  0  0  0
  -19.1517  -28.8854   23.2909 C   0  0  0  0  0  0
  -18.9447  -30.1478   23.8877 C   0  0  0  0  0  0
  -17.6445  -30.6611   24.0505 C   0  0  0  0  0  0
  -25.9055  -34.9438   23.5108 C   0  0  0  0  0  0
  -16.5322  -29.9064   23.6401 C   0  0  0  0  0  0
  -16.7235  -28.6447   23.0503 C   0  0  0  0  0  0
  -26.4496  -31.6588   25.0730 C   0  0  0  0  0  0
  -25.3702  -31.3727   26.1433 C   0  0  0  0  0  0
  -27.0358  -30.3014   24.6212 C   0  0  0  0  0  0
  -27.6047  -32.4331   25.7502 C   0  0  0  0  0  0
  -27.5579  -37.1801   24.8469 C   0  0  0  0  0  0
  -21.4208  -29.2920   22.3562 N   0  0  0  0  0  0
  -26.4297  -37.3752   23.9401 N   0  0  0  0  0  0
  -24.6942  -31.0487   22.0964 N   0  0  0  0  0  0
  -23.4173  -28.8172   23.3039 O   0  0  0  0  0  0
  -28.3859  -26.4387   20.1664 O   0  0  0  0  0  0
  -26.5598  -34.8919   22.4659 O   0  0  0  0  0  0
  -23.5429  -32.1347   23.7271 O   0  0  0  0  0  0
  -28.5408  -17.8625   18.7707 C   0  0  0  0  0  0
  -28.3987  -17.4164   21.4994 C   0  0  0  0  0  0
  -29.4759  -18.3510   19.7071 C   0  0  0  0  0  0
  -27.2462  -17.6215   19.3329 C   0  0  0  0  0  0
  -29.5770  -17.3031   20.7329 C   0  0  0  0  0  0
  -27.1798  -17.5813   20.7733 C   0  0  0  0  0  0
  -27.8829  -20.5039   19.2852 C   0  0  0  0  0  0
  -27.7918  -21.9883   19.5865 C   0  0  0  0  0  0
  -30.0422  -21.2269   19.9200 C   0  0  0  0  0  0
  -29.1095  -19.9236   20.0491 C   0  0  2  0  0  0
  -24.7467  -18.2893   18.9148 C   0  0  0  0  0  0
  -25.9525  -18.6847   22.4594 C   0  0  0  0  0  0
  -29.3569  -23.8599   20.2232 C   0  0  0  0  0  0
  -28.2361  -24.9801   19.8611 C   0  0  0  0  0  0
  -26.0185  -17.5951   18.3917 C   0  0  2  0  0  0
  -29.6500  -15.8343   20.4335 N   0  0  0  0  0  0
  -29.1778  -22.4650   19.5904 N   0  3  2  0  0  0
  -26.2772  -18.2048   17.1384 O   0  0  0  0  0  0
  -25.9909  -17.6736   21.4545 O   0  0  0  0  0  0
  -31.4852  -12.6726   19.1066 H   0  0  0  0  0  0
  -30.4695  -11.5049   19.9201 H   0  0  0  0  0  0
  -29.7964  -11.7254   17.5181 H   0  0  0  0  0  0
  -29.6174  -13.4454   17.6746 H   0  0  0  0  0  0
  -27.9082  -11.2766   18.9186 H   0  0  0  0  0  0
  -27.3713  -12.5092   17.8022 H   0  0  0  0  0  0
  -27.6228  -14.2398   19.4715 H   0  0  0  0  0  0
  -28.7644  -12.1229   21.3659 H   0  0  0  0  0  0
  -28.4391  -13.7795   21.8130 H   0  0  0  0  0  0
  -25.2779   -9.5604   22.4747 H   0  0  0  0  0  0
  -23.9969   -7.4562   22.7476 H   0  0  0  0  0  0
  -21.0812   -8.8778   19.8965 H   0  0  0  0  0  0
  -22.3733  -10.9626   19.6132 H   0  0  0  0  0  0
  -21.1990   -7.6115   23.9706 H   0  0  0  0  0  0
  -21.1465   -6.0486   25.9066 H   0  0  0  0  0  0
  -22.0620   -2.7586   23.2835 H   0  0  0  0  0  0
  -22.3989  -11.9794   22.4879 H   0  0  0  0  0  0
  -21.0975  -13.1110   22.2512 H   0  0  0  0  0  0
  -24.6494  -15.7906   20.6605 H   0  0  0  0  0  0
  -26.2688  -15.6255   20.2677 H   0  0  0  0  0  0
  -26.7169  -32.5401   23.1077 H   0  0  0  0  0  0
  -25.0126  -33.9693   25.0453 H   0  0  0  0  0  0
  -22.7239  -31.2925   21.3926 H   0  0  0  0  0  0
  -23.3751  -35.9631   23.3307 H   0  0  0  0  0  0
  -24.3603  -36.8886   22.2066 H   0  0  0  0  0  0
  -23.7269  -37.6491   23.6662 H   0  0  0  0  0  0
  -26.1101  -31.5315   20.6088 H   0  0  0  0  0  0
  -26.8494  -30.8233   22.0110 H   0  0  0  0  0  0
  -28.1296  -28.9569   21.1943 H   0  0  0  0  0  0
  -25.9814  -25.9133   19.0030 H   0  0  0  0  0  0
  -23.9909  -27.2930   19.0125 H   0  0  0  0  0  0
  -23.7842  -30.5872   19.4056 H   0  0  0  0  0  0
  -22.7720  -29.2424   19.8427 H   0  0  0  0  0  0
  -25.1309  -36.1905   25.0806 H   0  0  0  0  0  0
  -21.0016  -28.3447   24.1409 H   0  0  0  0  0  0
  -20.5506  -26.2377   23.3922 H   0  0  0  0  0  0
  -21.6557  -26.7244   22.1426 H   0  0  0  0  0  0
  -19.6786  -25.6223   21.1437 H   0  0  0  0  0  0
  -19.6377  -27.3139   20.6989 H   0  0  0  0  0  0
  -17.4041  -26.6253   21.4580 H   0  0  0  0  0  0
  -18.0486  -26.0011   22.9554 H   0  0  0  0  0  0
  -19.7912  -30.7317   24.2243 H   0  0  0  0  0  0
  -17.5011  -31.6346   24.4980 H   0  0  0  0  0  0
  -15.5305  -30.2931   23.7812 H   0  0  0  0  0  0
  -15.8641  -28.0662   22.7370 H   0  0  0  0  0  0
  -24.5891  -30.7071   25.7741 H   0  0  0  0  0  0
  -24.8880  -32.2891   26.4838 H   0  0  0  0  0  0
  -25.7997  -30.8907   27.0223 H   0  0  0  0  0  0
  -26.2956  -29.6752   24.1217 H   0  0  0  0  0  0
  -27.4032  -29.7283   25.4735 H   0  0  0  0  0  0
  -27.8836  -30.4310   23.9486 H   0  0  0  0  0  0
  -27.2670  -33.3640   26.2070 H   0  0  0  0  0  0
  -28.3872  -32.6867   25.0339 H   0  0  0  0  0  0
  -28.0714  -31.8460   26.5418 H   0  0  0  0  0  0
  -28.2586  -38.0101   24.7493 H   0  0  0  0  0  0
  -28.1071  -36.2625   24.6317 H   0  0  0  0  0  0
  -27.2295  -37.1485   25.8870 H   0  0  0  0  0  0
  -20.9439  -29.8396   21.6559 H   0  0  0  0  0  0
  -26.0161  -38.2820   24.1394 H   0  0  0  0  0  0
  -28.6232  -18.1440   17.7310 H   0  0  0  0  0  0
  -28.3684  -17.0841   22.5268 H   0  0  0  0  0  0
  -28.0141  -20.3813   18.2085 H   0  0  0  0  0  0
  -26.9354  -20.0639   19.5648 H   0  0  0  0  0  0
  -27.3310  -22.1372   20.5633 H   0  0  0  0  0  0
  -27.1825  -22.5010   18.8397 H   0  0  0  0  0  0
  -30.7563  -21.0935   19.1088 H   0  0  0  0  0  0
  -30.6264  -21.3839   20.8286 H   0  0  0  0  0  0
  -28.8221  -19.9300   21.1028 H   0  0  0  0  0  0
  -24.9278  -19.3208   19.2136 H   0  0  0  0  0  0
  -24.3205  -17.7627   19.7667 H   0  0  0  0  0  0
  -23.9621  -18.3103   18.1594 H   0  0  0  0  0  0
  -26.7138  -18.5628   23.2295 H   0  0  0  0  0  0
  -26.0661  -19.6733   22.0074 H   0  0  0  0  0  0
  -24.9876  -18.6689   22.9631 H   0  0  0  0  0  0
  -29.4008  -23.7414   21.3055 H   0  0  0  0  0  0
  -30.3375  -24.2304   19.9235 H   0  0  0  0  0  0
  -27.3240  -24.6515   20.3598 H   0  0  0  0  0  0
  -28.0401  -24.9174   18.7902 H   0  0  0  0  0  0
  -25.7850  -16.5510   18.1830 H   0  0  0  0  0  0
  -28.7309  -15.4273   20.4442 H   0  0  0  0  0  0
  -29.3830  -22.6164   18.6121 H   0  0  0  0  0  0
  -25.5338  -18.0239   16.5714 H   0  0  0  0  0  0
  1 25  1  0  0  0
  1 30  2  0  0  0
  1 86  1  0  0  0
  2  3  1  0  0  0
  2 25  1  0  0  0
  2 90  1  0  0  0
  2 91  1  0  0  0
  3  4  1  0  0  0
  3 92  1  0  0  0
  3 93  1  0  0  0
  4  5  1  0  0  0
  4 94  1  0  0  0
  4 95  1  0  0  0
  5  6  1  0  0  0
  5 26  1  0  0  0
  5 96  1  0  0  0
  6 25  1  0  0  0
  6 97  1  0  0  0
  6 98  1  0  0  0
  7  8  2  0  0  0
  7 26  1  0  0  0
  7 29  1  0  0  0
  8  9  1  0  0  0
  8 22  1  0  0  0
  9 10  1  0  0  0
  9 27  2  0  0  0
 10 11  2  0  0  0
 10 15  1  0  0  0
 11 12  1  0  0  0
 11 99  1  0  0  0
 12 13  2  0  0  0
 12100  1  0  0  0
 13 14  1  0  0  0
 13 31  1  0  0  0
 14 15  2  0  0  0
 14101  1  0  0  0
 15102  1  0  0  0
 16 17  2  0  0  0
 16 21  1  0  0  0
 16 31  1  0  0  0
 17 18  1  0  0  0
 17103  1  0  0  0
 18 19  2  0  0  0
 18104  1  0  0  0
 19 20  1  0  0  0
 19 24  1  0  0  0
 20 21  2  0  0  0
 20105  1  0  0  0
 21 23  1  0  0  0
 22 28  1  0  0  0
 22 32  2  0  0  0
 26 27  1  0  0  0
 28106  1  0  0  0
 28107  1  0  0  0
 29108  1  0  0  0
 29109  1  0  0  0
 33 34  1  0  0  0
 33 66  1  0  0  0
 33 70  2  0  0  0
 34 36  1  0  0  0
 34 59  1  0  0  0
 34110  1  0  0  0
 35 44  2  0  0  0
 35 45  1  0  0  0
 35 68  1  0  0  0
 36 56  1  0  0  0
 36111  1  0  0  0
 37 39  1  0  0  0
 37 47  1  0  0  0
 37 66  1  0  0  0
 37112  1  0  0  0
 38 43  2  0  0  0
 38 46  1  0  0  0
 38 47  1  0  0  0
 39 64  1  0  0  0
 39 67  2  0  0  0
 40 52  1  0  0  0
 40 53  2  0  0  0
 40 58  1  0  0  0
 41113  1  0  0  0
 41114  1  0  0  0
 41115  1  0  0  0
 41 48  1  0  0  0
 42 43  1  0  0  0
 42 66  1  0  0  0
 42116  1  0  0  0
 42117  1  0  0  0
 43 44  1  0  0  0
 44118  1  0  0  0
 45 46  2  0  0  0
 45119  1  0  0  0
 46120  1  0  0  0
 47121  1  0  0  0
 47122  1  0  0  0
 48 56  1  0  0  0
 48 65  1  0  0  0
 48123  1  0  0  0
 49 50  1  0  0  0
 49 53  1  0  0  0
 49 64  1  0  0  0
 49124  1  0  0  0
 50 51  1  0  0  0
 50125  1  0  0  0
 50126  1  0  0  0
 51 52  1  0  0  0
 51127  1  0  0  0
 51128  1  0  0  0
 52129  1  0  0  0
 52130  1  0  0  0
 53 54  1  0  0  0
 54 55  2  0  0  0
 54131  1  0  0  0
 55 57  1  0  0  0
 55132  1  0  0  0
 56 69  2  0  0  0
 57 58  2  0  0  0
 57133  1  0  0  0
 58134  1  0  0  0
 59 60  1  0  0  0
 59 61  1  0  0  0
 59 62  1  0  0  0
 60135  1  0  0  0
 60136  1  0  0  0
 60137  1  0  0  0
 61138  1  0  0  0
 61139  1  0  0  0
 61140  1  0  0  0
 62141  1  0  0  0
 62142  1  0  0  0
 62143  1  0  0  0
 63 65  1  0  0  0
 63144  1  0  0  0
 63145  1  0  0  0
 63146  1  0  0  0
 64147  1  0  0  0
 65148  1  0  0  0
 68 84  1  0  0  0
 71 73  2  0  0  0
 71 74  1  0  0  0
 71149  1  0  0  0
 72 75  2  0  0  0
 72 76  1  0  0  0
 72150  1  0  0  0
 73 75  1  0  0  0
 73 80  1  0  0  0
 74 76  2  0  0  0
 74 85  1  0  0  0
 75 86  1  0  0  0
 76 89  1  0  0  0
 77 78  1  0  0  0
 77 80  1  0  0  0
 77151  1  0  0  0
 77152  1  0  0  0
 78 87  1  0  0  0
 78153  1  0  0  0
 78154  1  0  0  0
 79 80  1  0  0  0
 79 87  1  0  0  0
 79155  1  0  0  0
 79156  1  0  0  0
 80157  1  0  0  0
 81158  1  0  0  0
 81159  1  0  0  0
 81160  1  0  0  0
 81 85  1  0  0  0
 82 89  1  0  0  0
 82161  1  0  0  0
 82162  1  0  0  0
 82163  1  0  0  0
 83 84  1  0  0  0
 83164  1  0  0  0
 83165  1  0  0  0
 83 87  1  0  0  0
 84166  1  0  0  0
 84167  1  0  0  0
 85 88  1  0  0  0
 85168  1  0  0  0
 86169  1  0  0  0
 87170  1  0  0  0
 88171  1  0  0  0
M  CHG  1  87   1
M  ISO  4   1 100  68 101  84 101  86 100
M  END
> <chiral flag>
0

> <version>
0

> <s_m_source_file>
/data/baiqing/PycharmProjects/Reinvent-master-3.2/result/LINK_invent/BTK/process_docking_weight1_custom_sum_contain_oxygen_bond_distance_aromatic_linkinvent_7_9_3/rearranged_h_0153.sdf

> <i_m_source_file_index>
63

> <r_mmod_Potential_Energy-OPLS-2005>
657.723937988281

> <r_mmod_Stretch_Energy-OPLS-2005>
154.70524597168

> <r_mmod_Bend_Energy-OPLS-2005>
314.888580322266

> <r_mmod_Torsional_Energy-OPLS-2005>
565.44384765625

> <r_mmod_Improper_Torsional_Energy-OPLS-2005>
63.0279655456543

> <r_mmod_Van_der_Waal_Energy-OPLS-2005>
188.036880493164

> <r_mmod_Electrostatic_Energy-OPLS-2005>
-278.916229248047

> <r_mmod_Solvation_Energy-OPLS-2005>
-439.932739257812

> <b_mmod_Minimization_Converged-OPLS-2005>
0

> <r_mmod_RMS_Derivative-OPLS-2005>
4.84851312637329

$$$$
63
                    3D
 Structure written by MMmdl.
170179  0  0  1  0            999 V2000
  -30.6447  -14.6006   20.5275 C   0  0  0  0  0  0
  -30.4292  -12.3778   19.4384 C   0  0  0  0  0  0
  -29.4970  -12.5008   18.2144 C   0  0  0  0  0  0
  -28.0209  -12.3427   18.6302 C   0  0  0  0  0  0
  -27.6493  -13.2136   19.8602 C   0  0  2  0  0  0
  -28.6935  -13.0620   20.9869 C   0  0  0  0  0  0
  -25.2546  -13.8171   20.5689 C   0  0  0  0  0  0
  -24.1816  -13.0435   20.9197 C   0  0  0  0  0  0
  -24.6381  -11.6906   20.8750 C   0  0  0  0  0  0
  -23.9051  -10.4291   21.0413 C   0  0  0  0  0  0
  -24.3606   -9.4202   21.9189 C   0  0  0  0  0  0
  -23.6287   -8.2238   22.0753 C   0  0  0  0  0  0
  -22.4269   -8.0277   21.3541 C   0  0  0  0  0  0
  -21.9902   -9.0248   20.4643 C   0  0  0  0  0  0
  -22.7231  -10.2131   20.3057 C   0  0  0  0  0  0
  -21.6851   -6.0732   22.5279 C   0  0  0  0  0  0
  -21.4012   -6.5637   23.8212 C   0  0  0  0  0  0
  -21.3659   -5.6791   24.9174 C   0  0  0  0  0  0
  -21.6045   -4.3055   24.7226 C   0  0  0  0  0  0
  -21.8819   -3.8143   23.4348 C   0  0  0  0  0  0
  -21.9192   -4.6959   22.3404 C   0  0  0  0  0  0
  -22.7838  -13.5225   21.1865 C   0  0  0  0  0  0
  -22.1661   -4.2144   21.0983 F   0  0  0  0  0  0
  -21.5629   -3.4540   25.7739 F   0  0  0  0  0  0
  -30.0065  -13.3964   20.4172 N   0  0  0  0  0  0
  -26.2964  -12.9341   20.3309 N   0  0  0  0  0  0
  -25.9302  -11.6501   20.5752 N   0  0  0  0  0  0
  -22.0484  -12.8212   22.0420 N   0  0  0  0  0  0
  -25.4267  -15.1890   20.4089 N   0  0  0  0  0  0
  -31.8144  -14.7482   20.1634 O   0  0  0  0  0  0
  -21.6637   -6.8873   21.4239 O   0  0  0  0  0  0
  -22.3526  -14.5539   20.6727 O   0  0  0  0  0  0
  -24.6225  -31.8618   23.2020 C   0  0  0  0  0  0
  -25.9094  -32.4785   23.8338 C   0  0  1  0  0  0
  -27.2273  -27.3488   20.1294 C   0  0  0  0  0  0
  -25.5920  -33.8583   24.2279 N   0  0  0  0  0  0
  -23.4134  -30.4825   21.5444 C   0  0  2  0  0  0
  -24.8600  -28.9274   20.1228 C   0  0  0  0  0  0
  -22.7450  -29.4632   22.4967 C   0  0  0  0  0  0
  -18.0283  -28.1383   22.8478 C   0  0  0  0  0  0
  -24.1492  -36.7295   23.2643 C   0  0  0  0  0  0
  -25.9487  -30.8020   21.3652 C   0  0  0  0  0  0
  -26.0245  -29.4260   20.7205 C   0  0  0  0  0  0
  -27.2145  -28.6486   20.7101 C   0  0  0  0  0  0
  -26.0437  -26.8769   19.5307 C   0  0  0  0  0  0
  -24.8686  -27.6559   19.5215 C   0  0  0  0  0  0
  -23.6272  -29.8070   20.1629 C   0  0  0  0  0  0
  -25.4110  -36.3083   24.0335 C   0  0  1  0  0  0
  -20.5874  -28.3678   23.1305 C   0  0  2  0  0  0
  -20.6778  -26.9413   22.5418 C   0  0  0  0  0  0
  -19.5755  -26.6384   21.5217 C   0  0  0  0  0  0
  -18.1929  -26.7929   22.1618 C   0  0  0  0  0  0
  -19.1534  -28.8847   23.2887 C   0  0  0  0  0  0
  -18.9462  -30.1450   23.8903 C   0  0  0  0  0  0
  -17.6465  -30.6586   24.0564 C   0  0  0  0  0  0
  -25.9047  -34.9458   23.5105 C   0  0  0  0  0  0
  -16.5355  -29.9083   23.6332 C   0  0  0  0  0  0
  -16.7273  -28.6507   23.0338 C   0  0  0  0  0  0
  -26.4488  -31.6585   25.0700 C   0  0  0  0  0  0
  -25.3731  -31.3704   26.1435 C   0  0  0  0  0  0
  -27.0329  -30.3019   24.6111 C   0  0  0  0  0  0
  -27.6048  -32.4314   25.7472 C   0  0  0  0  0  0
  -27.5576  -37.1799   24.8463 C   0  0  0  0  0  0
  -21.4169  -29.3036   22.3711 N   0  0  0  0  0  0
  -26.4287  -37.3775   23.9416 N   0  0  0  0  0  0
  -24.6808  -31.0653   22.0953 N   0  0  0  0  0  0
  -23.4197  -28.8192   23.3044 O   0  0  0  0  0  0
  -28.3812  -26.5833   20.0390 O   0  0  0  0  0  0
  -26.5610  -34.8923   22.4664 O   0  0  0  0  0  0
  -23.5403  -32.1402   23.7371 O   0  0  0  0  0  0
  -27.5759  -21.4484   23.2834 C   0  0  0  0  0  0
  -27.6272  -22.6239   22.5172 C   0  0  0  0  0  0
  -27.9720  -20.2257   22.7220 C   0  0  0  0  0  0
  -28.1715  -22.5801   21.2070 C   0  0  0  0  0  0
  -28.4477  -20.2023   21.3972 C   0  0  0  0  0  0
  -28.2817  -23.8629   20.3220 C   0  0  2  0  0  0
  -29.6242  -24.5326   20.1788 C   0  0  2  0  0  0
  -28.5064  -25.3473   20.8147 C   0  0  1  0  0  0
  -27.0500  -23.8843   23.1433 C   0  0  0  0  0  0
  -27.8227  -18.9589   23.5553 C   0  0  0  0  0  0
  -31.2410  -25.9178   18.8098 C   0  0  0  0  0  0
  -30.7735  -23.5143   18.1817 C   0  0  0  0  0  0
  -29.8594  -18.2826   20.4022 C   0  0  0  0  0  0
  -30.3249  -17.0478   21.2821 C   0  0  0  0  0  0
  -30.1888  -24.7979   18.7886 C   0  0  0  0  0  0
  -28.5754  -21.3651   20.6745 N   0  0  0  0  0  0
  -28.5848  -18.9214   20.7942 N   0  0  0  0  0  0
  -29.8814  -15.6660   20.9104 N   0  0  0  0  0  0
  -31.4700  -12.5011   19.1337 H   0  0  0  0  0  0
  -30.3617  -11.3808   19.8771 H   0  0  0  0  0  0
  -29.7561  -11.7505   17.4661 H   0  0  0  0  0  0
  -29.6412  -13.4714   17.7370 H   0  0  0  0  0  0
  -27.8542  -11.2898   18.8604 H   0  0  0  0  0  0
  -27.3648  -12.5762   17.7903 H   0  0  0  0  0  0
  -27.6703  -14.2499   19.5225 H   0  0  0  0  0  0
  -28.6993  -12.0402   21.3686 H   0  0  0  0  0  0
  -28.4435  -13.6960   21.8393 H   0  0  0  0  0  0
  -25.2748   -9.5682   22.4764 H   0  0  0  0  0  0
  -23.9999   -7.4624   22.7472 H   0  0  0  0  0  0
  -21.0834   -8.8762   19.8946 H   0  0  0  0  0  0
  -22.3686  -10.9668   19.6166 H   0  0  0  0  0  0
  -21.2006   -7.6145   23.9713 H   0  0  0  0  0  0
  -21.1482   -6.0523   25.9077 H   0  0  0  0  0  0
  -22.0600   -2.7604   23.2853 H   0  0  0  0  0  0
  -22.4096  -11.9855   22.4783 H   0  0  0  0  0  0
  -21.1103  -13.1233   22.2640 H   0  0  0  0  0  0
  -24.6554  -15.8405   20.5064 H   0  0  0  0  0  0
  -26.2646  -15.6220   20.0423 H   0  0  0  0  0  0
  -26.7171  -32.5478   23.1102 H   0  0  0  0  0  0
  -25.0090  -33.9735   25.0438 H   0  0  0  0  0  0
  -22.7047  -31.3004   21.3983 H   0  0  0  0  0  0
  -23.3752  -35.9633   23.3298 H   0  0  0  0  0  0
  -24.3581  -36.8910   22.2058 H   0  0  0  0  0  0
  -23.7254  -37.6500   23.6659 H   0  0  0  0  0  0
  -26.0656  -31.5614   20.5907 H   0  0  0  0  0  0
  -26.8365  -30.8606   21.9843 H   0  0  0  0  0  0
  -28.1206  -29.0366   21.1527 H   0  0  0  0  0  0
  -26.0335  -25.9053   19.0572 H   0  0  0  0  0  0
  -23.9748  -27.2664   19.0539 H   0  0  0  0  0  0
  -23.7460  -30.5784   19.4015 H   0  0  0  0  0  0
  -22.7479  -29.2337   19.8629 H   0  0  0  0  0  0
  -25.1291  -36.1925   25.0828 H   0  0  0  0  0  0
  -20.9958  -28.3246   24.1428 H   0  0  0  0  0  0
  -20.5684  -26.2292   23.3609 H   0  0  0  0  0  0
  -21.6647  -26.7453   22.1207 H   0  0  0  0  0  0
  -19.6920  -25.6295   21.1243 H   0  0  0  0  0  0
  -19.6695  -27.3201   20.6753 H   0  0  0  0  0  0
  -17.4206  -26.6693   21.4012 H   0  0  0  0  0  0
  -18.0311  -26.0062   22.9002 H   0  0  0  0  0  0
  -19.7939  -30.7260   24.2275 H   0  0  0  0  0  0
  -17.5019  -31.6266   24.5159 H   0  0  0  0  0  0
  -15.5356  -30.2982   23.7654 H   0  0  0  0  0  0
  -15.8675  -28.0832   22.7042 H   0  0  0  0  0  0
  -24.5945  -30.7002   25.7773 H   0  0  0  0  0  0
  -24.8885  -32.2864   26.4827 H   0  0  0  0  0  0
  -25.8077  -30.8929   27.0226 H   0  0  0  0  0  0
  -26.2888  -29.6769   24.1164 H   0  0  0  0  0  0
  -27.4089  -29.7265   25.4577 H   0  0  0  0  0  0
  -27.8716  -30.4328   23.9271 H   0  0  0  0  0  0
  -27.2667  -33.3623   26.2031 H   0  0  0  0  0  0
  -28.3870  -32.6849   25.0307 H   0  0  0  0  0  0
  -28.0700  -31.8449   26.5406 H   0  0  0  0  0  0
  -28.2588  -38.0102   24.7502 H   0  0  0  0  0  0
  -28.1080  -36.2627   24.6292 H   0  0  0  0  0  0
  -27.2295  -37.1447   25.8868 H   0  0  0  0  0  0
  -20.9349  -29.8750   21.6916 H   0  0  0  0  0  0
  -26.0165  -38.2851   24.1408 H   0  0  0  0  0  0
  -27.1827  -21.4769   24.2899 H   0  0  0  0  0  0
  -27.6726  -23.7418   19.4281 H   0  0  0  0  0  0
  -30.3856  -24.2009   20.8824 H   0  0  0  0  0  0
  -28.6612  -25.5738   21.8655 H   0  0  0  0  0  0
  -26.3307  -23.6334   23.9245 H   0  0  0  0  0  0
  -26.5135  -24.4904   22.4130 H   0  0  0  0  0  0
  -27.8345  -24.4805   23.6096 H   0  0  0  0  0  0
  -27.4253  -19.1768   24.5476 H   0  0  0  0  0  0
  -28.7904  -18.4785   23.6935 H   0  0  0  0  0  0
  -27.1432  -18.2519   23.0781 H   0  0  0  0  0  0
  -30.8259  -26.8481   19.1979 H   0  0  0  0  0  0
  -31.6096  -26.1252   17.8047 H   0  0  0  0  0  0
  -32.0951  -25.6529   19.4342 H   0  0  0  0  0  0
  -30.0256  -22.7213   18.1394 H   0  0  0  0  0  0
  -31.6153  -23.1442   18.7682 H   0  0  0  0  0  0
  -31.1267  -23.6854   17.1643 H   0  0  0  0  0  0
  -29.8076  -17.9941   19.3519 H   0  0  0  0  0  0
  -30.6306  -19.0526   20.4568 H   0  0  0  0  0  0
  -30.0786  -17.2153   22.3290 H   0  0  0  0  0  0
  -31.4167  -17.0480   21.2649 H   0  0  0  0  0  0
  -29.3662  -25.1217   18.1485 H   0  0  0  0  0  0
  -28.0095  -18.2472   21.2830 H   0  0  0  0  0  0
  -28.9165  -15.4455   21.1055 H   0  0  0  0  0  0
  1 25  1  0  0  0
  1 30  2  0  0  0
  1 88  1  0  0  0
  2  3  1  0  0  0
  2 25  1  0  0  0
  2 89  1  0  0  0
  2 90  1  0  0  0
  3  4  1  0  0  0
  3 91  1  0  0  0
  3 92  1  0  0  0
  4  5  1  0  0  0
  4 93  1  0  0  0
  4 94  1  0  0  0
  5  6  1  0  0  0
  5 26  1  0  0  0
  5 95  1  0  0  0
  6 25  1  0  0  0
  6 96  1  0  0  0
  6 97  1  0  0  0
  7  8  2  0  0  0
  7 26  1  0  0  0
  7 29  1  0  0  0
  8  9  1  0  0  0
  8 22  1  0  0  0
  9 10  1  0  0  0
  9 27  2  0  0  0
 10 11  2  0  0  0
 10 15  1  0  0  0
 11 12  1  0  0  0
 11 98  1  0  0  0
 12 13  2  0  0  0
 12 99  1  0  0  0
 13 14  1  0  0  0
 13 31  1  0  0  0
 14 15  2  0  0  0
 14100  1  0  0  0
 15101  1  0  0  0
 16 17  2  0  0  0
 16 21  1  0  0  0
 16 31  1  0  0  0
 17 18  1  0  0  0
 17102  1  0  0  0
 18 19  2  0  0  0
 18103  1  0  0  0
 19 20  1  0  0  0
 19 24  1  0  0  0
 20 21  2  0  0  0
 20104  1  0  0  0
 21 23  1  0  0  0
 22 28  1  0  0  0
 22 32  2  0  0  0
 26 27  1  0  0  0
 28105  1  0  0  0
 28106  1  0  0  0
 29107  1  0  0  0
 29108  1  0  0  0
 33 34  1  0  0  0
 33 66  1  0  0  0
 33 70  2  0  0  0
 34 36  1  0  0  0
 34 59  1  0  0  0
 34109  1  0  0  0
 35 44  2  0  0  0
 35 45  1  0  0  0
 35 68  1  0  0  0
 36 56  1  0  0  0
 36110  1  0  0  0
 37 39  1  0  0  0
 37 47  1  0  0  0
 37 66  1  0  0  0
 37111  1  0  0  0
 38 43  2  0  0  0
 38 46  1  0  0  0
 38 47  1  0  0  0
 39 64  1  0  0  0
 39 67  2  0  0  0
 40 52  1  0  0  0
 40 53  2  0  0  0
 40 58  1  0  0  0
 41112  1  0  0  0
 41113  1  0  0  0
 41114  1  0  0  0
 41 48  1  0  0  0
 42 43  1  0  0  0
 42 66  1  0  0  0
 42115  1  0  0  0
 42116  1  0  0  0
 43 44  1  0  0  0
 44117  1  0  0  0
 45 46  2  0  0  0
 45118  1  0  0  0
 46119  1  0  0  0
 47120  1  0  0  0
 47121  1  0  0  0
 48 56  1  0  0  0
 48 65  1  0  0  0
 48122  1  0  0  0
 49 50  1  0  0  0
 49 53  1  0  0  0
 49 64  1  0  0  0
 49123  1  0  0  0
 50 51  1  0  0  0
 50124  1  0  0  0
 50125  1  0  0  0
 51 52  1  0  0  0
 51126  1  0  0  0
 51127  1  0  0  0
 52128  1  0  0  0
 52129  1  0  0  0
 53 54  1  0  0  0
 54 55  2  0  0  0
 54130  1  0  0  0
 55 57  1  0  0  0
 55131  1  0  0  0
 56 69  2  0  0  0
 57 58  2  0  0  0
 57132  1  0  0  0
 58133  1  0  0  0
 59 60  1  0  0  0
 59 61  1  0  0  0
 59 62  1  0  0  0
 60134  1  0  0  0
 60135  1  0  0  0
 60136  1  0  0  0
 61137  1  0  0  0
 61138  1  0  0  0
 61139  1  0  0  0
 62140  1  0  0  0
 62141  1  0  0  0
 62142  1  0  0  0
 63 65  1  0  0  0
 63143  1  0  0  0
 63144  1  0  0  0
 63145  1  0  0  0
 64146  1  0  0  0
 65147  1  0  0  0
 68 78  1  0  0  0
 71 72  2  0  0  0
 71 73  1  0  0  0
 71148  1  0  0  0
 72 74  1  0  0  0
 72 79  1  0  0  0
 73 75  2  0  0  0
 73 80  1  0  0  0
 74 86  2  0  0  0
 74 76  1  0  0  0
 75 86  1  0  0  0
 75 87  1  0  0  0
 76 77  1  0  0  0
 76 78  1  0  0  0
 76149  1  0  0  0
 77 78  1  0  0  0
 77 85  1  0  0  0
 77150  1  0  0  0
 78151  1  0  0  0
 79152  1  0  0  0
 79153  1  0  0  0
 79154  1  0  0  0
 80155  1  0  0  0
 80156  1  0  0  0
 80157  1  0  0  0
 81158  1  0  0  0
 81159  1  0  0  0
 81160  1  0  0  0
 81 85  1  0  0  0
 82 85  1  0  0  0
 82161  1  0  0  0
 82162  1  0  0  0
 82163  1  0  0  0
 83 84  1  0  0  0
 83 87  1  0  0  0
 83164  1  0  0  0
 83165  1  0  0  0
 84 88  1  0  0  0
 84166  1  0  0  0
 84167  1  0  0  0
 85168  1  0  0  0
 87169  1  0  0  0
 88170  1  0  0  0
M  ISO  4   1 100  68 101  78 101  88 100
M  END
> <chiral flag>
0

> <version>
0

> <s_m_source_file>
/data/baiqing/PycharmProjects/Reinvent-master-3.2/result/LINK_invent/BTK/process_docking_weight1_custom_sum_contain_oxygen_bond_distance_aromatic_linkinvent_7_9_3/rearranged_h_0153.sdf

> <i_m_source_file_index>
64

> <r_mmod_Potential_Energy-OPLS-2005>
-167.562545776367

> <r_mmod_Stretch_Energy-OPLS-2005>
69.8231658935547

> <r_mmod_Bend_Energy-OPLS-2005>
163.093139648438

> <r_mmod_Torsional_Energy-OPLS-2005>
289.918121337891

> <r_mmod_Improper_Torsional_Energy-OPLS-2005>
9.37462043762207

> <r_mmod_Van_der_Waal_Energy-OPLS-2005>
134.511138916016

> <r_mmod_Electrostatic_Energy-OPLS-2005>
-631.085754394531

> <r_mmod_Solvation_Energy-OPLS-2005>
-236.807632446289

> <b_mmod_Minimization_Converged-OPLS-2005>
0

> <r_mmod_RMS_Derivative-OPLS-2005>
1.21803331375122

$$$$
64
                    3D
 Structure written by MMmdl.
167176  0  0  1  0            999 V2000
  -30.6939  -14.4348   20.6191 C   0  0  0  0  0  0
  -30.4358  -12.2981   19.4069 C   0  0  0  0  0  0
  -29.4984  -12.5197   18.2008 C   0  0  0  0  0  0
  -28.0181  -12.3805   18.6111 C   0  0  0  0  0  0
  -27.6728  -13.1946   19.8859 C   0  0  2  0  0  0
  -28.7130  -12.9204   20.9967 C   0  0  0  0  0  0
  -25.2652  -13.8139   20.5662 C   0  0  0  0  0  0
  -24.1870  -13.0445   20.9149 C   0  0  0  0  0  0
  -24.6392  -11.6900   20.8714 C   0  0  0  0  0  0
  -23.9044  -10.4299   21.0392 C   0  0  0  0  0  0
  -24.3601   -9.4221   21.9173 C   0  0  0  0  0  0
  -23.6288   -8.2252   22.0748 C   0  0  0  0  0  0
  -22.4272   -8.0280   21.3540 C   0  0  0  0  0  0
  -21.9902   -9.0254   20.4643 C   0  0  0  0  0  0
  -22.7217  -10.2142   20.3045 C   0  0  0  0  0  0
  -21.6862   -6.0729   22.5275 C   0  0  0  0  0  0
  -21.4015   -6.5637   23.8206 C   0  0  0  0  0  0
  -21.3658   -5.6788   24.9170 C   0  0  0  0  0  0
  -21.6042   -4.3051   24.7221 C   0  0  0  0  0  0
  -21.8820   -3.8141   23.4342 C   0  0  0  0  0  0
  -21.9197   -4.6958   22.3398 C   0  0  0  0  0  0
  -22.7892  -13.5260   21.1805 C   0  0  0  0  0  0
  -22.1659   -4.2135   21.0977 F   0  0  0  0  0  0
  -21.5638   -3.4533   25.7733 F   0  0  0  0  0  0
  -30.0509  -13.2468   20.4620 N   0  0  0  0  0  0
  -26.3084  -12.9276   20.3398 N   0  0  0  0  0  0
  -25.9322  -11.6450   20.5756 N   0  0  0  0  0  0
  -22.0517  -12.8266   22.0362 N   0  0  0  0  0  0
  -25.4459  -15.1848   20.4048 N   0  0  0  0  0  0
  -31.7617  -14.7071   20.0638 O   0  0  0  0  0  0
  -21.6643   -6.8873   21.4235 O   0  0  0  0  0  0
  -22.3585  -14.5564   20.6646 O   0  0  0  0  0  0
  -24.6119  -31.8693   23.2112 C   0  0  0  0  0  0
  -25.9020  -32.4833   23.8407 C   0  0  1  0  0  0
  -27.2423  -27.4610   20.0918 C   0  0  0  0  0  0
  -25.5888  -33.8631   24.2342 N   0  0  0  0  0  0
  -23.4004  -30.4913   21.5497 C   0  0  2  0  0  0
  -24.8507  -28.9573   20.1160 C   0  0  0  0  0  0
  -22.7397  -29.4664   22.4991 C   0  0  0  0  0  0
  -18.0269  -28.1373   22.8493 C   0  0  0  0  0  0
  -24.1485  -36.7324   23.2638 C   0  0  0  0  0  0
  -25.9261  -30.8430   21.3605 C   0  0  0  0  0  0
  -26.0073  -29.4773   20.7110 C   0  0  0  0  0  0
  -27.2083  -28.7352   20.6986 C   0  0  0  0  0  0
  -26.0751  -26.9488   19.4907 C   0  0  0  0  0  0
  -24.8775  -27.6902   19.5047 C   0  0  0  0  0  0
  -23.6095  -29.8197   20.1652 C   0  0  0  0  0  0
  -25.4105  -36.3122   24.0342 C   0  0  1  0  0  0
  -20.5857  -28.3658   23.1325 C   0  0  2  0  0  0
  -20.6756  -26.9398   22.5418 C   0  0  0  0  0  0
  -19.5738  -26.6384   21.5210 C   0  0  0  0  0  0
  -18.1917  -26.7920   22.1623 C   0  0  0  0  0  0
  -19.1517  -28.8831   23.2906 C   0  0  0  0  0  0
  -18.9447  -30.1437   23.8916 C   0  0  0  0  0  0
  -17.6452  -30.6582   24.0566 C   0  0  0  0  0  0
  -25.9027  -34.9484   23.5138 C   0  0  0  0  0  0
  -16.5343  -29.9088   23.6319 C   0  0  0  0  0  0
  -16.7260  -28.6503   23.0343 C   0  0  0  0  0  0
  -26.4462  -31.6600   25.0719 C   0  0  0  0  0  0
  -25.3749  -31.3698   26.1483 C   0  0  0  0  0  0
  -27.0280  -30.3045   24.6067 C   0  0  0  0  0  0
  -27.6044  -32.4310   25.7480 C   0  0  0  0  0  0
  -27.5583  -37.1817   24.8466 C   0  0  0  0  0  0
  -21.4126  -29.3034   22.3736 N   0  0  0  0  0  0
  -26.4297  -37.3800   23.9407 N   0  0  0  0  0  0
  -24.6640  -31.0814   22.0998 N   0  0  0  0  0  0
  -23.4180  -28.8202   23.3020 O   0  0  0  0  0  0
  -28.3975  -26.7174   20.0823 O   0  0  0  0  0  0
  -26.5584  -34.8930   22.4697 O   0  0  0  0  0  0
  -23.5315  -32.1433   23.7519 O   0  0  0  0  0  0
  -30.7146  -19.8215   19.9124 C   0  0  0  0  0  0
  -31.3001  -19.7634   22.2321 C   0  0  0  0  0  0
  -31.1009  -19.0555   21.0345 C   0  0  0  0  0  0
  -31.1315  -21.1412   22.2851 C   0  0  0  0  0  0
  -30.7607  -21.8329   21.1063 C   0  0  0  0  0  0
  -31.6884  -19.2320   23.5754 C   0  0  0  0  0  0
  -31.5720  -20.4987   24.4468 C   0  0  0  0  0  0
  -31.9662  -24.0094   20.6606 C   0  0  0  0  0  0
  -31.2796  -17.5411   20.9478 C   0  0  0  0  0  0
  -29.9841  -16.7978   21.3316 C   0  0  0  0  0  0
  -28.3264  -24.3155   20.6503 C   0  0  0  0  0  0
  -28.4828  -25.7701   21.1530 C   0  0  0  0  0  0
  -30.6306  -23.3574   21.0529 C   0  0  1  0  0  0
  -30.5440  -21.1697   19.9408 N   0  0  0  0  0  0
  -31.3700  -21.6580   23.5643 N   0  0  0  0  0  0
  -30.0001  -15.3281   21.3436 N   0  0  0  0  0  0
  -29.5733  -23.7310   20.0873 N   0  3  0  0  0  0
  -31.4778  -12.4165   19.1039 H   0  0  0  0  0  0
  -30.3488  -11.2748   19.7747 H   0  0  0  0  0  0
  -29.7352  -11.8102   17.4070 H   0  0  0  0  0  0
  -29.6676  -13.5140   17.7841 H   0  0  0  0  0  0
  -27.8178  -11.3218   18.7815 H   0  0  0  0  0  0
  -27.3698  -12.6827   17.7877 H   0  0  0  0  0  0
  -27.7360  -14.2501   19.6207 H   0  0  0  0  0  0
  -28.6869  -11.8680   21.2818 H   0  0  0  0  0  0
  -28.4635  -13.4626   21.9092 H   0  0  0  0  0  0
  -25.2748   -9.5708   22.4743 H   0  0  0  0  0  0
  -24.0001   -7.4650   22.7474 H   0  0  0  0  0  0
  -21.0836   -8.8768   19.8956 H   0  0  0  0  0  0
  -22.3667  -10.9677   19.6150 H   0  0  0  0  0  0
  -21.1997   -7.6146   23.9703 H   0  0  0  0  0  0
  -21.1482   -6.0522   25.9074 H   0  0  0  0  0  0
  -22.0602   -2.7603   23.2848 H   0  0  0  0  0  0
  -22.4115  -11.9928   22.4769 H   0  0  0  0  0  0
  -21.1135  -13.1317   22.2533 H   0  0  0  0  0  0
  -24.6921  -15.8551   20.5098 H   0  0  0  0  0  0
  -26.3089  -15.6089   20.0872 H   0  0  0  0  0  0
  -26.7097  -32.5561   23.1179 H   0  0  0  0  0  0
  -25.0063  -33.9796   25.0504 H   0  0  0  0  0  0
  -22.6883  -31.3072   21.4088 H   0  0  0  0  0  0
  -23.3742  -35.9661   23.3312 H   0  0  0  0  0  0
  -24.3586  -36.8922   22.2051 H   0  0  0  0  0  0
  -23.7242  -37.6537   23.6640 H   0  0  0  0  0  0
  -26.0321  -31.6087   20.5903 H   0  0  0  0  0  0
  -26.8158  -30.9005   21.9759 H   0  0  0  0  0  0
  -28.1035  -29.1350   21.1544 H   0  0  0  0  0  0
  -26.0919  -25.9801   19.0122 H   0  0  0  0  0  0
  -23.9888  -27.2840   19.0415 H   0  0  0  0  0  0
  -23.7148  -30.5926   19.4028 H   0  0  0  0  0  0
  -22.7356  -29.2351   19.8719 H   0  0  0  0  0  0
  -25.1279  -36.1995   25.0835 H   0  0  0  0  0  0
  -20.9954  -28.3221   24.1442 H   0  0  0  0  0  0
  -20.5653  -26.2270   23.3602 H   0  0  0  0  0  0
  -21.6630  -26.7440   22.1216 H   0  0  0  0  0  0
  -19.6899  -25.6299   21.1229 H   0  0  0  0  0  0
  -19.6676  -27.3201   20.6747 H   0  0  0  0  0  0
  -17.4188  -26.6672   21.4022 H   0  0  0  0  0  0
  -18.0317  -26.0055   22.9015 H   0  0  0  0  0  0
  -19.7925  -30.7243   24.2298 H   0  0  0  0  0  0
  -17.5011  -31.6264   24.5164 H   0  0  0  0  0  0
  -15.5346  -30.3000   23.7629 H   0  0  0  0  0  0
  -15.8660  -28.0834   22.7044 H   0  0  0  0  0  0
  -24.5908  -30.7053   25.7837 H   0  0  0  0  0  0
  -24.8952  -32.2849   26.4966 H   0  0  0  0  0  0
  -25.8120  -30.8853   27.0223 H   0  0  0  0  0  0
  -26.2808  -29.6821   24.1128 H   0  0  0  0  0  0
  -27.4068  -29.7264   25.4506 H   0  0  0  0  0  0
  -27.8638  -30.4373   23.9192 H   0  0  0  0  0  0
  -27.2668  -33.3599   26.2090 H   0  0  0  0  0  0
  -28.3839  -32.6889   25.0298 H   0  0  0  0  0  0
  -28.0728  -31.8414   26.5371 H   0  0  0  0  0  0
  -28.2610  -38.0105   24.7503 H   0  0  0  0  0  0
  -28.1065  -36.2636   24.6298 H   0  0  0  0  0  0
  -27.2301  -37.1480   25.8869 H   0  0  0  0  0  0
  -20.9276  -29.8783   21.6987 H   0  0  0  0  0  0
  -26.0191  -38.2882   24.1393 H   0  0  0  0  0  0
  -30.5348  -19.3422   18.9607 H   0  0  0  0  0  0
  -32.7103  -18.8533   23.5469 H   0  0  0  0  0  0
  -31.0225  -18.4368   23.9101 H   0  0  0  0  0  0
  -32.4549  -20.6277   25.0748 H   0  0  0  0  0  0
  -30.7125  -20.4123   25.1146 H   0  0  0  0  0  0
  -32.7431  -23.7499   21.3804 H   0  0  0  0  0  0
  -31.8928  -25.0974   20.6425 H   0  0  0  0  0  0
  -32.3035  -23.6731   19.6801 H   0  0  0  0  0  0
  -32.1003  -17.2344   21.5977 H   0  0  0  0  0  0
  -31.5783  -17.2903   19.9298 H   0  0  0  0  0  0
  -29.1832  -17.1075   20.6589 H   0  0  0  0  0  0
  -29.6732  -17.1160   22.3271 H   0  0  0  0  0  0
  -27.5384  -24.2702   19.8980 H   0  0  0  0  0  0
  -27.9907  -23.6814   21.4723 H   0  0  0  0  0  0
  -29.4292  -25.9103   21.6753 H   0  0  0  0  0  0
  -27.7114  -25.9648   21.9020 H   0  0  0  0  0  0
  -30.3572  -23.7074   22.0485 H   0  0  0  0  0  0
  -30.7689  -22.4064   23.9082 H   0  0  0  0  0  0
  -29.2000  -14.9169   21.8014 H   0  0  0  0  0  0
  -29.9613  -24.3318   19.3795 H   0  0  0  0  0  0
  -29.3733  -22.8415   19.6456 H   0  0  0  0  0  0
  1 25  1  0  0  0
  1 30  2  0  0  0
  1 86  1  0  0  0
  2  3  1  0  0  0
  2 25  1  0  0  0
  2 88  1  0  0  0
  2 89  1  0  0  0
  3  4  1  0  0  0
  3 90  1  0  0  0
  3 91  1  0  0  0
  4  5  1  0  0  0
  4 92  1  0  0  0
  4 93  1  0  0  0
  5  6  1  0  0  0
  5 26  1  0  0  0
  5 94  1  0  0  0
  6 25  1  0  0  0
  6 95  1  0  0  0
  6 96  1  0  0  0
  7  8  2  0  0  0
  7 26  1  0  0  0
  7 29  1  0  0  0
  8  9  1  0  0  0
  8 22  1  0  0  0
  9 10  1  0  0  0
  9 27  2  0  0  0
 10 11  2  0  0  0
 10 15  1  0  0  0
 11 12  1  0  0  0
 11 97  1  0  0  0
 12 13  2  0  0  0
 12 98  1  0  0  0
 13 14  1  0  0  0
 13 31  1  0  0  0
 14 15  2  0  0  0
 14 99  1  0  0  0
 15100  1  0  0  0
 16 17  2  0  0  0
 16 21  1  0  0  0
 16 31  1  0  0  0
 17 18  1  0  0  0
 17101  1  0  0  0
 18 19  2  0  0  0
 18102  1  0  0  0
 19 20  1  0  0  0
 19 24  1  0  0  0
 20 21  2  0  0  0
 20103  1  0  0  0
 21 23  1  0  0  0
 22 28  1  0  0  0
 22 32  2  0  0  0
 26 27  1  0  0  0
 28104  1  0  0  0
 28105  1  0  0  0
 29106  1  0  0  0
 29107  1  0  0  0
 33 34  1  0  0  0
 33 66  1  0  0  0
 33 70  2  0  0  0
 34 36  1  0  0  0
 34 59  1  0  0  0
 34108  1  0  0  0
 35 44  2  0  0  0
 35 45  1  0  0  0
 35 68  1  0  0  0
 36 56  1  0  0  0
 36109  1  0  0  0
 37 39  1  0  0  0
 37 47  1  0  0  0
 37 66  1  0  0  0
 37110  1  0  0  0
 38 43  2  0  0  0
 38 46  1  0  0  0
 38 47  1  0  0  0
 39 64  1  0  0  0
 39 67  2  0  0  0
 40 52  1  0  0  0
 40 53  2  0  0  0
 40 58  1  0  0  0
 41111  1  0  0  0
 41112  1  0  0  0
 41113  1  0  0  0
 41 48  1  0  0  0
 42 43  1  0  0  0
 42 66  1  0  0  0
 42114  1  0  0  0
 42115  1  0  0  0
 43 44  1  0  0  0
 44116  1  0  0  0
 45 46  2  0  0  0
 45117  1  0  0  0
 46118  1  0  0  0
 47119  1  0  0  0
 47120  1  0  0  0
 48 56  1  0  0  0
 48 65  1  0  0  0
 48121  1  0  0  0
 49 50  1  0  0  0
 49 53  1  0  0  0
 49 64  1  0  0  0
 49122  1  0  0  0
 50 51  1  0  0  0
 50123  1  0  0  0
 50124  1  0  0  0
 51 52  1  0  0  0
 51125  1  0  0  0
 51126  1  0  0  0
 52127  1  0  0  0
 52128  1  0  0  0
 53 54  1  0  0  0
 54 55  2  0  0  0
 54129  1  0  0  0
 55 57  1  0  0  0
 55130  1  0  0  0
 56 69  2  0  0  0
 57 58  2  0  0  0
 57131  1  0  0  0
 58132  1  0  0  0
 59 60  1  0  0  0
 59 61  1  0  0  0
 59 62  1  0  0  0
 60133  1  0  0  0
 60134  1  0  0  0
 60135  1  0  0  0
 61136  1  0  0  0
 61137  1  0  0  0
 61138  1  0  0  0
 62139  1  0  0  0
 62140  1  0  0  0
 62141  1  0  0  0
 63 65  1  0  0  0
 63142  1  0  0  0
 63143  1  0  0  0
 63144  1  0  0  0
 64145  1  0  0  0
 65146  1  0  0  0
 68 82  1  0  0  0
 71 73  2  0  0  0
 71 84  1  0  0  0
 71147  1  0  0  0
 72 73  1  0  0  0
 72 74  2  0  0  0
 72 76  1  0  0  0
 73 79  1  0  0  0
 74 75  1  0  0  0
 74 85  1  0  0  0
 75 83  1  0  0  0
 75 84  2  0  0  0
 76 77  1  0  0  0
 76148  1  0  0  0
 76149  1  0  0  0
 77 85  1  0  0  0
 77150  1  0  0  0
 77151  1  0  0  0
 78152  1  0  0  0
 78153  1  0  0  0
 78154  1  0  0  0
 78 83  1  0  0  0
 79 80  1  0  0  0
 79155  1  0  0  0
 79156  1  0  0  0
 80 86  1  0  0  0
 80157  1  0  0  0
 80158  1  0  0  0
 81 82  1  0  0  0
 81 87  1  0  0  0
 81159  1  0  0  0
 81160  1  0  0  0
 82161  1  0  0  0
 82162  1  0  0  0
 83 87  1  0  0  0
 83163  1  0  0  0
 85164  1  0  0  0
 86165  1  0  0  0
 87166  1  0  0  0
 87167  1  0  0  0
M  CHG  1  87   1
M  ISO  4   1 100  68 101  82 101  86 100
M  END
> <chiral flag>
0

> <version>
0

> <s_m_source_file>
/data/baiqing/PycharmProjects/Reinvent-master-3.2/result/LINK_invent/BTK/process_docking_weight1_custom_sum_contain_oxygen_bond_distance_aromatic_linkinvent_7_9_3/rearranged_h_0153.sdf

> <i_m_source_file_index>
65

> <r_mmod_Potential_Energy-OPLS-2005>
-355.291656494141

> <r_mmod_Stretch_Energy-OPLS-2005>
37.151424407959

> <r_mmod_Bend_Energy-OPLS-2005>
144.237106323242

> <r_mmod_Torsional_Energy-OPLS-2005>
248.832702636719

> <r_mmod_Improper_Torsional_Energy-OPLS-2005>
7.86789131164551

> <r_mmod_Van_der_Waal_Energy-OPLS-2005>
148.876876831055

> <r_mmod_Electrostatic_Energy-OPLS-2005>
-503.136383056641

> <r_mmod_Solvation_Energy-OPLS-2005>
-447.9111328125

> <b_mmod_Minimization_Converged-OPLS-2005>
0

> <r_mmod_RMS_Derivative-OPLS-2005>
1.36469089984894

$$$$
65
                    3D
 Structure written by MMmdl.
166176  0  0  1  0            999 V2000
  -30.6699  -14.6356   20.4736 C   0  0  0  0  0  0
  -30.4206  -12.3851   19.4685 C   0  0  0  0  0  0
  -29.5061  -12.4960   18.2306 C   0  0  0  0  0  0
  -28.0287  -12.3423   18.6405 C   0  0  0  0  0  0
  -27.6471  -13.2289   19.8568 C   0  0  2  0  0  0
  -28.6903  -13.1315   20.9926 C   0  0  0  0  0  0
  -25.2523  -13.8198   20.5691 C   0  0  0  0  0  0
  -24.1808  -13.0445   20.9198 C   0  0  0  0  0  0
  -24.6393  -11.6922   20.8745 C   0  0  0  0  0  0
  -23.9068  -10.4298   21.0406 C   0  0  0  0  0  0
  -24.3619   -9.4213   21.9183 C   0  0  0  0  0  0
  -23.6294   -8.2248   22.0756 C   0  0  0  0  0  0
  -22.4274   -8.0287   21.3549 C   0  0  0  0  0  0
  -21.9908   -9.0260   20.4653 C   0  0  0  0  0  0
  -22.7238  -10.2137   20.3058 C   0  0  0  0  0  0
  -21.6855   -6.0736   22.5277 C   0  0  0  0  0  0
  -21.4019   -6.5640   23.8211 C   0  0  0  0  0  0
  -21.3659   -5.6792   24.9172 C   0  0  0  0  0  0
  -21.6042   -4.3054   24.7223 C   0  0  0  0  0  0
  -21.8819   -3.8147   23.4343 C   0  0  0  0  0  0
  -21.9193   -4.6964   22.3399 C   0  0  0  0  0  0
  -22.7827  -13.5227   21.1861 C   0  0  0  0  0  0
  -22.1663   -4.2150   21.0978 F   0  0  0  0  0  0
  -21.5625   -3.4537   25.7737 F   0  0  0  0  0  0
  -30.0048  -13.4395   20.4164 N   0  0  0  0  0  0
  -26.2961  -12.9405   20.3304 N   0  0  0  0  0  0
  -25.9325  -11.6547   20.5756 N   0  0  0  0  0  0
  -22.0470  -12.8218   22.0418 N   0  0  0  0  0  0
  -25.4207  -15.1920   20.4107 N   0  0  0  0  0  0
  -31.8561  -14.7106   20.1440 O   0  0  0  0  0  0
  -21.6640   -6.8881   21.4242 O   0  0  0  0  0  0
  -22.3509  -14.5529   20.6707 O   0  0  0  0  0  0
  -24.6258  -31.8609   23.2044 C   0  0  0  0  0  0
  -25.9106  -32.4787   23.8369 C   0  0  1  0  0  0
  -27.2159  -27.3289   20.1187 C   0  0  0  0  0  0
  -25.5923  -33.8587   24.2293 N   0  0  0  0  0  0
  -23.4197  -30.4860   21.5465 C   0  0  2  0  0  0
  -24.8676  -28.9487   20.1069 C   0  0  0  0  0  0
  -22.7477  -29.4628   22.4932 C   0  0  0  0  0  0
  -18.0288  -28.1383   22.8486 C   0  0  0  0  0  0
  -24.1489  -36.7297   23.2638 C   0  0  0  0  0  0
  -25.9614  -30.7954   21.3759 C   0  0  0  0  0  0
  -26.0374  -29.4255   20.7148 C   0  0  0  0  0  0
  -27.2202  -28.6266   20.7131 C   0  0  0  0  0  0
  -26.0323  -26.9118   19.4744 C   0  0  0  0  0  0
  -24.8663  -27.6961   19.4762 C   0  0  0  0  0  0
  -23.6343  -29.8260   20.1598 C   0  0  0  0  0  0
  -25.4113  -36.3089   24.0330 C   0  0  1  0  0  0
  -20.5889  -28.3689   23.1281 C   0  0  2  0  0  0
  -20.6777  -26.9411   22.5409 C   0  0  0  0  0  0
  -19.5752  -26.6384   21.5211 C   0  0  0  0  0  0
  -18.1932  -26.7927   22.1624 C   0  0  0  0  0  0
  -19.1539  -28.8853   23.2880 C   0  0  0  0  0  0
  -18.9462  -30.1454   23.8897 C   0  0  0  0  0  0
  -17.6462  -30.6586   24.0564 C   0  0  0  0  0  0
  -25.9048  -34.9457   23.5113 C   0  0  0  0  0  0
  -16.5354  -29.9083   23.6330 C   0  0  0  0  0  0
  -16.7275  -28.6501   23.0352 C   0  0  0  0  0  0
  -26.4494  -31.6591   25.0733 C   0  0  0  0  0  0
  -25.3728  -31.3726   26.1460 C   0  0  0  0  0  0
  -27.0334  -30.3015   24.6183 C   0  0  0  0  0  0
  -27.6056  -32.4325   25.7501 C   0  0  0  0  0  0
  -27.5580  -37.1805   24.8464 C   0  0  0  0  0  0
  -21.4190  -29.3044   22.3674 N   0  0  0  0  0  0
  -26.4294  -37.3780   23.9406 N   0  0  0  0  0  0
  -24.6875  -31.0632   22.0992 N   0  0  0  0  0  0
  -23.4204  -28.8161   23.3004 O   0  0  0  0  0  0
  -28.2779  -26.4181   20.1782 O   0  0  0  0  0  0
  -26.5614  -34.8920   22.4678 O   0  0  0  0  0  0
  -23.5422  -32.1403   23.7377 O   0  0  0  0  0  0
  -28.5368  -21.4540   19.8809 C   0  0  0  0  0  0
  -29.5569  -23.3214   21.6794 C   0  0  0  0  0  0
  -28.1399  -22.8302   19.7921 C   0  0  0  0  0  0
  -28.6173  -23.7957   20.7305 C   0  0  0  0  0  0
  -29.9569  -21.9545   21.7559 C   0  0  0  0  0  0
  -29.4287  -20.9688   20.8746 C   0  0  0  0  0  0
  -27.2296  -22.6430   17.3330 C   0  0  0  0  0  0
  -27.5943  -24.0887   17.5625 C   0  0  0  0  0  0
  -29.9745  -18.6669   18.7512 C   0  0  0  0  0  0
  -30.4163  -17.2105   18.6833 C   0  0  0  0  0  0
  -27.1598  -23.2282   18.7276 C   0  0  0  0  0  0
  -29.4627  -18.4251   20.1808 C   0  0  1  0  0  0
  -30.4288  -17.1509   20.2237 C   0  0  1  0  0  0
  -30.9414  -21.5545   22.8436 C   0  0  0  0  0  0
  -27.9410  -25.2036   20.9515 C   0  0  0  0  0  0
  -29.7992  -19.5894   21.0464 N   0  0  0  0  0  0
  -29.9407  -15.7871   20.6401 N   0  0  0  0  0  0
  -31.4677  -12.4746   19.1733 H   0  0  0  0  0  0
  -30.3263  -11.4020   19.9321 H   0  0  0  0  0  0
  -29.7710  -11.7344   17.4959 H   0  0  0  0  0  0
  -29.6575  -13.4601   17.7422 H   0  0  0  0  0  0
  -27.8650  -11.2918   18.8842 H   0  0  0  0  0  0
  -27.3764  -12.5620   17.7948 H   0  0  0  0  0  0
  -27.6539  -14.2571   19.4942 H   0  0  0  0  0  0
  -28.6951  -12.1327   21.4311 H   0  0  0  0  0  0
  -28.4452  -13.8202   21.8031 H   0  0  0  0  0  0
  -25.2767   -9.5686   22.4757 H   0  0  0  0  0  0
  -24.0007   -7.4633   22.7469 H   0  0  0  0  0  0
  -21.0839   -8.8775   19.8956 H   0  0  0  0  0  0
  -22.3696  -10.9674   19.6168 H   0  0  0  0  0  0
  -21.2019   -7.6149   23.9715 H   0  0  0  0  0  0
  -21.1480   -6.0522   25.9074 H   0  0  0  0  0  0
  -22.0599   -2.7611   23.2839 H   0  0  0  0  0  0
  -22.4087  -11.9886   22.4816 H   0  0  0  0  0  0
  -21.1090  -13.1248   22.2626 H   0  0  0  0  0  0
  -24.6499  -15.8428   20.5180 H   0  0  0  0  0  0
  -26.2652  -15.6338   20.0710 H   0  0  0  0  0  0
  -26.7175  -32.5464   23.1122 H   0  0  0  0  0  0
  -25.0069  -33.9736   25.0437 H   0  0  0  0  0  0
  -22.7131  -31.3065   21.4061 H   0  0  0  0  0  0
  -23.3750  -35.9631   23.3308 H   0  0  0  0  0  0
  -24.3580  -36.8909   22.2051 H   0  0  0  0  0  0
  -23.7247  -37.6504   23.6654 H   0  0  0  0  0  0
  -26.0937  -31.5617   20.6110 H   0  0  0  0  0  0
  -26.8412  -30.8418   22.0060 H   0  0  0  0  0  0
  -28.1144  -28.9806   21.2069 H   0  0  0  0  0  0
  -25.9926  -25.9449   18.9968 H   0  0  0  0  0  0
  -23.9712  -27.3250   18.9964 H   0  0  0  0  0  0
  -23.7520  -30.6057   19.4062 H   0  0  0  0  0  0
  -22.7548  -29.2550   19.8565 H   0  0  0  0  0  0
  -25.1294  -36.1947   25.0823 H   0  0  0  0  0  0
  -20.9984  -28.3264   24.1401 H   0  0  0  0  0  0
  -20.5679  -26.2297   23.3608 H   0  0  0  0  0  0
  -21.6646  -26.7440   22.1203 H   0  0  0  0  0  0
  -19.6916  -25.6294   21.1241 H   0  0  0  0  0  0
  -19.6692  -27.3193   20.6740 H   0  0  0  0  0  0
  -17.4202  -26.6674   21.4027 H   0  0  0  0  0  0
  -18.0336  -26.0068   22.9020 H   0  0  0  0  0  0
  -19.7937  -30.7269   24.2269 H   0  0  0  0  0  0
  -17.5017  -31.6266   24.5163 H   0  0  0  0  0  0
  -15.5355  -30.2987   23.7651 H   0  0  0  0  0  0
  -15.8675  -28.0819   22.7070 H   0  0  0  0  0  0
  -24.5903  -30.7075   25.7789 H   0  0  0  0  0  0
  -24.8917  -32.2891   26.4888 H   0  0  0  0  0  0
  -25.8053  -30.8903   27.0234 H   0  0  0  0  0  0
  -26.2908  -29.6771   24.1201 H   0  0  0  0  0  0
  -27.4026  -29.7266   25.4688 H   0  0  0  0  0  0
  -27.8782  -30.4303   23.9412 H   0  0  0  0  0  0
  -27.2667  -33.3624   26.2083 H   0  0  0  0  0  0
  -28.3861  -32.6889   25.0323 H   0  0  0  0  0  0
  -28.0730  -31.8447   26.5413 H   0  0  0  0  0  0
  -28.2603  -38.0097   24.7505 H   0  0  0  0  0  0
  -28.1071  -36.2629   24.6299 H   0  0  0  0  0  0
  -27.2298  -37.1466   25.8867 H   0  0  0  0  0  0
  -20.9363  -29.8771   21.6891 H   0  0  0  0  0  0
  -26.0179  -38.2858   24.1400 H   0  0  0  0  0  0
  -28.1087  -20.7496   19.1835 H   0  0  0  0  0  0
  -29.9297  -24.0152   22.4198 H   0  0  0  0  0  0
  -28.0444  -21.9634   17.0904 H   0  0  0  0  0  0
  -26.2911  -22.4486   16.8172 H   0  0  0  0  0  0
  -26.8982  -24.8288   17.1740 H   0  0  0  0  0  0
  -28.6468  -24.3578   17.4958 H   0  0  0  0  0  0
  -29.2042  -18.9355   18.0274 H   0  0  0  0  0  0
  -30.8254  -19.3491   18.6949 H   0  0  0  0  0  0
  -31.3902  -17.0564   18.2166 H   0  0  0  0  0  0
  -29.6544  -16.5772   18.2240 H   0  0  0  0  0  0
  -26.1693  -23.3965   19.1472 H   0  0  0  0  0  0
  -28.4040  -18.1591   20.1991 H   0  0  0  0  0  0
  -31.4178  -17.4001   20.6153 H   0  0  0  0  0  0
  -31.3225  -22.4232   23.3807 H   0  0  0  0  0  0
  -31.7971  -21.0320   22.4147 H   0  0  0  0  0  0
  -30.4616  -20.8969   23.5690 H   0  0  0  0  0  0
  -28.1234  -25.4752   21.9919 H   0  0  0  0  0  0
  -26.8698  -25.0046   20.9333 H   0  0  0  0  0  0
  -30.3959  -19.3824   21.8413 H   0  0  0  0  0  0
  -28.9688  -15.6938   20.8931 H   0  0  0  0  0  0
  1 25  1  0  0  0
  1 30  2  0  0  0
  1 87  1  0  0  0
  2  3  1  0  0  0
  2 25  1  0  0  0
  2 88  1  0  0  0
  2 89  1  0  0  0
  3  4  1  0  0  0
  3 90  1  0  0  0
  3 91  1  0  0  0
  4  5  1  0  0  0
  4 92  1  0  0  0
  4 93  1  0  0  0
  5  6  1  0  0  0
  5 26  1  0  0  0
  5 94  1  0  0  0
  6 25  1  0  0  0
  6 95  1  0  0  0
  6 96  1  0  0  0
  7  8  2  0  0  0
  7 26  1  0  0  0
  7 29  1  0  0  0
  8  9  1  0  0  0
  8 22  1  0  0  0
  9 10  1  0  0  0
  9 27  2  0  0  0
 10 11  2  0  0  0
 10 15  1  0  0  0
 11 12  1  0  0  0
 11 97  1  0  0  0
 12 13  2  0  0  0
 12 98  1  0  0  0
 13 14  1  0  0  0
 13 31  1  0  0  0
 14 15  2  0  0  0
 14 99  1  0  0  0
 15100  1  0  0  0
 16 17  2  0  0  0
 16 21  1  0  0  0
 16 31  1  0  0  0
 17 18  1  0  0  0
 17101  1  0  0  0
 18 19  2  0  0  0
 18102  1  0  0  0
 19 20  1  0  0  0
 19 24  1  0  0  0
 20 21  2  0  0  0
 20103  1  0  0  0
 21 23  1  0  0  0
 22 28  1  0  0  0
 22 32  2  0  0  0
 26 27  1  0  0  0
 28104  1  0  0  0
 28105  1  0  0  0
 29106  1  0  0  0
 29107  1  0  0  0
 33 34  1  0  0  0
 33 66  1  0  0  0
 33 70  2  0  0  0
 34 36  1  0  0  0
 34 59  1  0  0  0
 34108  1  0  0  0
 35 44  2  0  0  0
 35 45  1  0  0  0
 35 68  1  0  0  0
 36 56  1  0  0  0
 36109  1  0  0  0
 37 39  1  0  0  0
 37 47  1  0  0  0
 37 66  1  0  0  0
 37110  1  0  0  0
 38 43  2  0  0  0
 38 46  1  0  0  0
 38 47  1  0  0  0
 39 64  1  0  0  0
 39 67  2  0  0  0
 40 52  1  0  0  0
 40 53  2  0  0  0
 40 58  1  0  0  0
 41111  1  0  0  0
 41112  1  0  0  0
 41113  1  0  0  0
 41 48  1  0  0  0
 42 43  1  0  0  0
 42 66  1  0  0  0
 42114  1  0  0  0
 42115  1  0  0  0
 43 44  1  0  0  0
 44116  1  0  0  0
 45 46  2  0  0  0
 45117  1  0  0  0
 46118  1  0  0  0
 47119  1  0  0  0
 47120  1  0  0  0
 48 56  1  0  0  0
 48 65  1  0  0  0
 48121  1  0  0  0
 49 50  1  0  0  0
 49 53  1  0  0  0
 49 64  1  0  0  0
 49122  1  0  0  0
 50 51  1  0  0  0
 50123  1  0  0  0
 50124  1  0  0  0
 51 52  1  0  0  0
 51125  1  0  0  0
 51126  1  0  0  0
 52127  1  0  0  0
 52128  1  0  0  0
 53 54  1  0  0  0
 54 55  2  0  0  0
 54129  1  0  0  0
 55 57  1  0  0  0
 55130  1  0  0  0
 56 69  2  0  0  0
 57 58  2  0  0  0
 57131  1  0  0  0
 58132  1  0  0  0
 59 60  1  0  0  0
 59 61  1  0  0  0
 59 62  1  0  0  0
 60133  1  0  0  0
 60134  1  0  0  0
 60135  1  0  0  0
 61136  1  0  0  0
 61137  1  0  0  0
 61138  1  0  0  0
 62139  1  0  0  0
 62140  1  0  0  0
 62141  1  0  0  0
 63 65  1  0  0  0
 63142  1  0  0  0
 63143  1  0  0  0
 63144  1  0  0  0
 64145  1  0  0  0
 65146  1  0  0  0
 68 85  1  0  0  0
 71 73  2  0  0  0
 71 76  1  0  0  0
 71147  1  0  0  0
 72 74  2  0  0  0
 72 75  1  0  0  0
 72148  1  0  0  0
 73 74  1  0  0  0
 73 81  1  0  0  0
 74 85  1  0  0  0
 75 76  2  0  0  0
 75 84  1  0  0  0
 76 86  1  0  0  0
 77 78  1  0  0  0
 77 81  1  0  0  0
 77149  1  0  0  0
 77150  1  0  0  0
 78 81  1  0  0  0
 78151  1  0  0  0
 78152  1  0  0  0
 79 80  1  0  0  0
 79 82  1  0  0  0
 79153  1  0  0  0
 79154  1  0  0  0
 80 83  1  0  0  0
 80155  1  0  0  0
 80156  1  0  0  0
 81157  1  0  0  0
 82 83  1  0  0  0
 82 86  1  0  0  0
 82158  1  0  0  0
 83 87  1  0  0  0
 83159  1  0  0  0
 84160  1  0  0  0
 84161  1  0  0  0
 84162  1  0  0  0
 85163  1  0  0  0
 85164  1  0  0  0
 86165  1  0  0  0
 87166  1  0  0  0
M  ISO  4   1 100  68 101  85 101  87 100
M  END
> <chiral flag>
0

> <version>
0

> <s_m_source_file>
/data/baiqing/PycharmProjects/Reinvent-master-3.2/result/LINK_invent/BTK/process_docking_weight1_custom_sum_contain_oxygen_bond_distance_aromatic_linkinvent_7_9_3/rearranged_h_0153.sdf

> <i_m_source_file_index>
66

> <r_mmod_Potential_Energy-OPLS-2005>
87.2665252685547

> <r_mmod_Stretch_Energy-OPLS-2005>
77.1272430419922

> <r_mmod_Bend_Energy-OPLS-2005>
171.285583496094

> <r_mmod_Torsional_Energy-OPLS-2005>
301.968627929688

> <r_mmod_Improper_Torsional_Energy-OPLS-2005>
8.79192733764648

> <r_mmod_Van_der_Waal_Energy-OPLS-2005>
139.123306274414

> <r_mmod_Electrostatic_Energy-OPLS-2005>
-455.931701660156

> <r_mmod_Solvation_Energy-OPLS-2005>
-209.727554321289

> <b_mmod_Minimization_Converged-OPLS-2005>
0

> <r_mmod_RMS_Derivative-OPLS-2005>
0.59665048122406

$$$$
66
                    3D
 Structure written by MMmdl.
173182  0  0  1  0            999 V2000
  -30.6843  -14.4819   20.5213 C   0  0  0  0  0  0
  -30.4303  -12.2877   19.4392 C   0  0  0  0  0  0
  -29.5049  -12.4555   18.2132 C   0  0  0  0  0  0
  -28.0152  -12.3834   18.6139 C   0  0  0  0  0  0
  -27.6639  -13.2004   19.8883 C   0  0  2  0  0  0
  -28.7090  -12.9862   21.0043 C   0  0  0  0  0  0
  -25.2606  -13.8137   20.5664 C   0  0  0  0  0  0
  -24.1837  -13.0436   20.9163 C   0  0  0  0  0  0
  -24.6365  -11.6886   20.8729 C   0  0  0  0  0  0
  -23.9014  -10.4280   21.0392 C   0  0  0  0  0  0
  -24.3563   -9.4209   21.9189 C   0  0  0  0  0  0
  -23.6257   -8.2223   22.0749 C   0  0  0  0  0  0
  -22.4254   -8.0247   21.3509 C   0  0  0  0  0  0
  -21.9872   -9.0230   20.4627 C   0  0  0  0  0  0
  -22.7186  -10.2120   20.3042 C   0  0  0  0  0  0
  -21.6862   -6.0712   22.5252 C   0  0  0  0  0  0
  -21.4036   -6.5616   23.8187 C   0  0  0  0  0  0
  -21.3660   -5.6763   24.9146 C   0  0  0  0  0  0
  -21.6046   -4.3021   24.7198 C   0  0  0  0  0  0
  -21.8832   -3.8117   23.4321 C   0  0  0  0  0  0
  -21.9209   -4.6941   22.3390 C   0  0  0  0  0  0
  -22.7867  -13.5270   21.1822 C   0  0  0  0  0  0
  -22.1673   -4.2132   21.0957 F   0  0  0  0  0  0
  -21.5618   -3.4506   25.7714 F   0  0  0  0  0  0
  -30.0380  -13.2869   20.4443 N   0  0  0  0  0  0
  -26.3039  -12.9268   20.3434 N   0  0  0  0  0  0
  -25.9301  -11.6438   20.5792 N   0  0  0  0  0  0
  -22.0444  -12.8268   22.0328 N   0  0  0  0  0  0
  -25.4398  -15.1852   20.4050 N   0  0  0  0  0  0
  -31.8328  -14.6563   20.1087 O   0  0  0  0  0  0
  -21.6630   -6.8840   21.4205 O   0  0  0  0  0  0
  -22.3585  -14.5606   20.6701 O   0  0  0  0  0  0
  -24.6067  -31.8713   23.2127 C   0  0  0  0  0  0
  -25.8994  -32.4836   23.8404 C   0  0  1  0  0  0
  -27.2541  -27.4823   20.1080 C   0  0  0  0  0  0
  -25.5872  -33.8633   24.2341 N   0  0  0  0  0  0
  -23.3920  -30.4928   21.5495 C   0  0  2  0  0  0
  -24.8452  -28.9641   20.1120 C   0  0  0  0  0  0
  -22.7355  -29.4662   22.4999 C   0  0  0  0  0  0
  -18.0252  -28.1360   22.8489 C   0  0  0  0  0  0
  -24.1487  -36.7337   23.2635 C   0  0  0  0  0  0
  -25.9095  -30.8594   21.3512 C   0  0  0  0  0  0
  -25.9944  -29.4914   20.7116 C   0  0  0  0  0  0
  -27.1957  -28.7598   20.7163 C   0  0  0  0  0  0
  -26.0927  -26.9691   19.4930 C   0  0  0  0  0  0
  -24.8867  -27.6984   19.4988 C   0  0  0  0  0  0
  -23.5989  -29.8185   20.1641 C   0  0  0  0  0  0
  -25.4100  -36.3123   24.0334 C   0  0  1  0  0  0
  -20.5838  -28.3640   23.1330 C   0  0  2  0  0  0
  -20.6748  -26.9385   22.5413 C   0  0  0  0  0  0
  -19.5729  -26.6384   21.5196 C   0  0  0  0  0  0
  -18.1904  -26.7921   22.1603 C   0  0  0  0  0  0
  -19.1501  -28.8811   23.2912 C   0  0  0  0  0  0
  -18.9433  -30.1418   23.8927 C   0  0  0  0  0  0
  -17.6440  -30.6576   24.0554 C   0  0  0  0  0  0
  -25.9025  -34.9482   23.5140 C   0  0  0  0  0  0
  -16.5329  -29.9079   23.6318 C   0  0  0  0  0  0
  -16.7243  -28.6491   23.0342 C   0  0  0  0  0  0
  -26.4463  -31.6567   25.0691 C   0  0  0  0  0  0
  -25.3746  -31.3599   26.1440 C   0  0  0  0  0  0
  -27.0307  -30.3037   24.5976 C   0  0  0  0  0  0
  -27.6055  -32.4245   25.7480 C   0  0  0  0  0  0
  -27.5573  -37.1829   24.8442 C   0  0  0  0  0  0
  -21.4089  -29.3025   22.3744 N   0  0  0  0  0  0
  -26.4276  -37.3808   23.9407 N   0  0  0  0  0  0
  -24.6543  -31.0859   22.0992 N   0  0  0  0  0  0
  -23.4164  -28.8220   23.3021 O   0  0  0  0  0  0
  -28.3904  -26.7043   20.0735 O   0  0  0  0  0  0
  -26.5599  -34.8929   22.4712 O   0  0  0  0  0  0
  -23.5270  -32.1434   23.7553 O   0  0  0  0  0  0
  -29.7734  -19.5714   19.6600 C   0  0  0  0  0  0
  -29.6628  -18.5615   18.6924 C   0  0  0  0  0  0
  -29.7419  -17.2021   19.0820 C   0  0  0  0  0  0
  -30.1006  -17.9109   21.4109 C   0  0  0  0  0  0
  -29.9553  -16.8684   20.4538 C   0  0  0  0  0  0
  -30.0059  -19.2759   21.0237 C   0  0  0  0  0  0
  -31.0721  -22.4404   22.6146 C   0  0  0  0  0  0
  -28.9751  -22.3530   21.3315 C   0  0  0  0  0  0
  -31.3658  -23.8476   22.0540 C   0  0  0  0  0  0
  -29.2252  -23.7726   20.7817 C   0  0  0  0  0  0
  -30.3131  -21.6272   21.5635 C   0  0  2  0  0  0
  -29.4540  -18.9788   17.2415 C   0  0  0  0  0  0
  -29.5738  -16.1202   18.0247 C   0  0  0  0  0  0
  -30.3878  -17.5457   22.8618 C   0  0  0  0  0  0
  -30.4928  -25.8945   21.0113 C   0  0  0  0  0  0
  -29.3812  -26.9553   21.0700 C   0  0  0  0  0  0
  -29.9093  -15.5115   20.9180 N   0  0  0  0  0  0
  -30.1364  -24.5884   21.6411 N   0  3  2  0  0  0
  -30.1427  -20.2671   21.9862 O   0  0  0  0  0  0
  -31.4778  -12.3832   19.1435 H   0  0  0  0  0  0
  -30.3258  -11.2852   19.8549 H   0  0  0  0  0  0
  -29.7207  -11.6754   17.4816 H   0  0  0  0  0  0
  -29.7165  -13.3934   17.7035 H   0  0  0  0  0  0
  -27.7694  -11.3328   18.7698 H   0  0  0  0  0  0
  -27.3940  -12.7212   17.7832 H   0  0  0  0  0  0
  -27.6931  -14.2520   19.6204 H   0  0  0  0  0  0
  -28.6814  -11.9548   21.3600 H   0  0  0  0  0  0
  -28.4768  -13.6033   21.8740 H   0  0  0  0  0  0
  -25.2686   -9.5733   22.4803 H   0  0  0  0  0  0
  -23.9981   -7.4630   22.7481 H   0  0  0  0  0  0
  -21.0792   -8.8738   19.8948 H   0  0  0  0  0  0
  -22.3614  -10.9653   19.6155 H   0  0  0  0  0  0
  -21.2055   -7.6130   23.9678 H   0  0  0  0  0  0
  -21.1470   -6.0495   25.9048 H   0  0  0  0  0  0
  -22.0638   -2.7587   23.2813 H   0  0  0  0  0  0
  -22.3947  -11.9870   22.4697 H   0  0  0  0  0  0
  -21.1075  -13.1364   22.2508 H   0  0  0  0  0  0
  -24.6819  -15.8509   20.5053 H   0  0  0  0  0  0
  -26.3040  -15.6145   20.0992 H   0  0  0  0  0  0
  -26.7080  -32.5594   23.1193 H   0  0  0  0  0  0
  -24.9975  -33.9805   25.0451 H   0  0  0  0  0  0
  -22.6762  -31.3059   21.4111 H   0  0  0  0  0  0
  -23.3740  -35.9672   23.3255 H   0  0  0  0  0  0
  -24.3592  -36.8995   22.2055 H   0  0  0  0  0  0
  -23.7240  -37.6530   23.6682 H   0  0  0  0  0  0
  -25.9936  -31.6214   20.5750 H   0  0  0  0  0  0
  -26.8071  -30.9334   21.9517 H   0  0  0  0  0  0
  -28.0618  -29.2047   21.1835 H   0  0  0  0  0  0
  -26.1238  -25.9994   19.0172 H   0  0  0  0  0  0
  -24.0061  -27.2846   19.0269 H   0  0  0  0  0  0
  -23.6951  -30.5902   19.3992 H   0  0  0  0  0  0
  -22.7287  -29.2254   19.8760 H   0  0  0  0  0  0
  -25.1272  -36.1991   25.0823 H   0  0  0  0  0  0
  -20.9920  -28.3221   24.1452 H   0  0  0  0  0  0
  -20.5647  -26.2248   23.3593 H   0  0  0  0  0  0
  -21.6635  -26.7455   22.1230 H   0  0  0  0  0  0
  -19.6905  -25.6305   21.1201 H   0  0  0  0  0  0
  -19.6675  -27.3220   20.6745 H   0  0  0  0  0  0
  -17.4187  -26.6662   21.3985 H   0  0  0  0  0  0
  -18.0296  -26.0044   22.8980 H   0  0  0  0  0  0
  -19.7918  -30.7196   24.2343 H   0  0  0  0  0  0
  -17.5013  -31.6276   24.5122 H   0  0  0  0  0  0
  -15.5338  -30.2989   23.7631 H   0  0  0  0  0  0
  -15.8638  -28.0820   22.7044 H   0  0  0  0  0  0
  -24.5935  -30.6947   25.7738 H   0  0  0  0  0  0
  -24.8923  -32.2719   26.4957 H   0  0  0  0  0  0
  -25.8116  -30.8704   27.0151 H   0  0  0  0  0  0
  -26.2832  -29.6786   24.1078 H   0  0  0  0  0  0
  -27.4180  -29.7262   25.4380 H   0  0  0  0  0  0
  -27.8608  -30.4399   23.9040 H   0  0  0  0  0  0
  -27.2712  -33.3536   26.2102 H   0  0  0  0  0  0
  -28.3882  -32.6787   25.0322 H   0  0  0  0  0  0
  -28.0709  -31.8316   26.5364 H   0  0  0  0  0  0
  -28.2554  -38.0166   24.7555 H   0  0  0  0  0  0
  -28.1106  -36.2701   24.6181 H   0  0  0  0  0  0
  -27.2304  -37.1382   25.8845 H   0  0  0  0  0  0
  -20.9213  -29.8737   21.6980 H   0  0  0  0  0  0
  -26.0152  -38.2876   24.1423 H   0  0  0  0  0  0
  -29.6740  -20.5890   19.3136 H   0  0  0  0  0  0
  -30.4954  -22.5097   23.5395 H   0  0  0  0  0  0
  -32.0099  -21.9437   22.8709 H   0  0  0  0  0  0
  -28.3380  -21.8010   20.6406 H   0  0  0  0  0  0
  -28.4131  -22.4098   22.2647 H   0  0  0  0  0  0
  -32.0296  -23.7552   21.1913 H   0  0  0  0  0  0
  -31.9110  -24.4278   22.8005 H   0  0  0  0  0  0
  -28.2650  -24.2784   20.6752 H   0  0  0  0  0  0
  -29.6480  -23.6967   19.7785 H   0  0  0  0  0  0
  -30.9292  -21.6540   20.6639 H   0  0  0  0  0  0
  -29.4638  -20.0635   17.1194 H   0  0  0  0  0  0
  -28.4983  -18.6139   16.8629 H   0  0  0  0  0  0
  -30.2522  -18.5769   16.6159 H   0  0  0  0  0  0
  -29.3898  -16.4879   17.0186 H   0  0  0  0  0  0
  -28.7272  -15.4894   18.2697 H   0  0  0  0  0  0
  -30.4772  -15.5175   17.9665 H   0  0  0  0  0  0
  -31.2536  -16.8838   22.9125 H   0  0  0  0  0  0
  -29.5359  -17.0224   23.2939 H   0  0  0  0  0  0
  -30.6058  -18.4116   23.4871 H   0  0  0  0  0  0
  -31.3449  -26.3124   21.5481 H   0  0  0  0  0  0
  -30.8294  -25.7536   19.9830 H   0  0  0  0  0  0
  -29.8371  -27.9280   20.8765 H   0  0  0  0  0  0
  -28.9382  -26.9903   22.0678 H   0  0  0  0  0  0
  -29.0642  -15.2450   21.3961 H   0  0  0  0  0  0
  -29.6353  -24.7952   22.4946 H   0  0  0  0  0  0
  1 25  1  0  0  0
  1 30  2  0  0  0
  1 87  1  0  0  0
  2  3  1  0  0  0
  2 25  1  0  0  0
  2 90  1  0  0  0
  2 91  1  0  0  0
  3  4  1  0  0  0
  3 92  1  0  0  0
  3 93  1  0  0  0
  4  5  1  0  0  0
  4 94  1  0  0  0
  4 95  1  0  0  0
  5  6  1  0  0  0
  5 26  1  0  0  0
  5 96  1  0  0  0
  6 25  1  0  0  0
  6 97  1  0  0  0
  6 98  1  0  0  0
  7  8  2  0  0  0
  7 26  1  0  0  0
  7 29  1  0  0  0
  8  9  1  0  0  0
  8 22  1  0  0  0
  9 10  1  0  0  0
  9 27  2  0  0  0
 10 11  2  0  0  0
 10 15  1  0  0  0
 11 12  1  0  0  0
 11 99  1  0  0  0
 12 13  2  0  0  0
 12100  1  0  0  0
 13 14  1  0  0  0
 13 31  1  0  0  0
 14 15  2  0  0  0
 14101  1  0  0  0
 15102  1  0  0  0
 16 17  2  0  0  0
 16 21  1  0  0  0
 16 31  1  0  0  0
 17 18  1  0  0  0
 17103  1  0  0  0
 18 19  2  0  0  0
 18104  1  0  0  0
 19 20  1  0  0  0
 19 24  1  0  0  0
 20 21  2  0  0  0
 20105  1  0  0  0
 21 23  1  0  0  0
 22 28  1  0  0  0
 22 32  2  0  0  0
 26 27  1  0  0  0
 28106  1  0  0  0
 28107  1  0  0  0
 29108  1  0  0  0
 29109  1  0  0  0
 33 34  1  0  0  0
 33 66  1  0  0  0
 33 70  2  0  0  0
 34 36  1  0  0  0
 34 59  1  0  0  0
 34110  1  0  0  0
 35 44  2  0  0  0
 35 45  1  0  0  0
 35 68  1  0  0  0
 36 56  1  0  0  0
 36111  1  0  0  0
 37 39  1  0  0  0
 37 47  1  0  0  0
 37 66  1  0  0  0
 37112  1  0  0  0
 38 43  2  0  0  0
 38 46  1  0  0  0
 38 47  1  0  0  0
 39 64  1  0  0  0
 39 67  2  0  0  0
 40 52  1  0  0  0
 40 53  2  0  0  0
 40 58  1  0  0  0
 41113  1  0  0  0
 41114  1  0  0  0
 41115  1  0  0  0
 41 48  1  0  0  0
 42 43  1  0  0  0
 42 66  1  0  0  0
 42116  1  0  0  0
 42117  1  0  0  0
 43 44  1  0  0  0
 44118  1  0  0  0
 45 46  2  0  0  0
 45119  1  0  0  0
 46120  1  0  0  0
 47121  1  0  0  0
 47122  1  0  0  0
 48 56  1  0  0  0
 48 65  1  0  0  0
 48123  1  0  0  0
 49 50  1  0  0  0
 49 53  1  0  0  0
 49 64  1  0  0  0
 49124  1  0  0  0
 50 51  1  0  0  0
 50125  1  0  0  0
 50126  1  0  0  0
 51 52  1  0  0  0
 51127  1  0  0  0
 51128  1  0  0  0
 52129  1  0  0  0
 52130  1  0  0  0
 53 54  1  0  0  0
 54 55  2  0  0  0
 54131  1  0  0  0
 55 57  1  0  0  0
 55132  1  0  0  0
 56 69  2  0  0  0
 57 58  2  0  0  0
 57133  1  0  0  0
 58134  1  0  0  0
 59 60  1  0  0  0
 59 61  1  0  0  0
 59 62  1  0  0  0
 60135  1  0  0  0
 60136  1  0  0  0
 60137  1  0  0  0
 61138  1  0  0  0
 61139  1  0  0  0
 61140  1  0  0  0
 62141  1  0  0  0
 62142  1  0  0  0
 62143  1  0  0  0
 63 65  1  0  0  0
 63144  1  0  0  0
 63145  1  0  0  0
 63146  1  0  0  0
 64147  1  0  0  0
 65148  1  0  0  0
 68 86  1  0  0  0
 71 72  2  0  0  0
 71 76  1  0  0  0
 71149  1  0  0  0
 72 73  1  0  0  0
 72 82  1  0  0  0
 73 75  2  0  0  0
 73 83  1  0  0  0
 74 75  1  0  0  0
 74 76  2  0  0  0
 74 84  1  0  0  0
 75 87  1  0  0  0
 76 89  1  0  0  0
 77 79  1  0  0  0
 77 81  1  0  0  0
 77150  1  0  0  0
 77151  1  0  0  0
 78 80  1  0  0  0
 78 81  1  0  0  0
 78152  1  0  0  0
 78153  1  0  0  0
 79 88  1  0  0  0
 79154  1  0  0  0
 79155  1  0  0  0
 80 88  1  0  0  0
 80156  1  0  0  0
 80157  1  0  0  0
 81 89  1  0  0  0
 81158  1  0  0  0
 82159  1  0  0  0
 82160  1  0  0  0
 82161  1  0  0  0
 83162  1  0  0  0
 83163  1  0  0  0
 83164  1  0  0  0
 84165  1  0  0  0
 84166  1  0  0  0
 84167  1  0  0  0
 85 86  1  0  0  0
 85168  1  0  0  0
 85169  1  0  0  0
 85 88  1  0  0  0
 86170  1  0  0  0
 86171  1  0  0  0
 87172  1  0  0  0
 88173  1  0  0  0
M  CHG  1  88   1
M  ISO  4   1 100  68 101  86 101  87 100
M  END
> <chiral flag>
0

> <version>
0

> <s_m_source_file>
/data/baiqing/PycharmProjects/Reinvent-master-3.2/result/LINK_invent/BTK/process_docking_weight1_custom_sum_contain_oxygen_bond_distance_aromatic_linkinvent_7_9_3/rearranged_h_0153.sdf

> <i_m_source_file_index>
67

> <r_mmod_Potential_Energy-OPLS-2005>
-115.589935302734

> <r_mmod_Stretch_Energy-OPLS-2005>
41.8567276000977

> <r_mmod_Bend_Energy-OPLS-2005>
110.805740356445

> <r_mmod_Torsional_Energy-OPLS-2005>
279.073089599609

> <r_mmod_Improper_Torsional_Energy-OPLS-2005>
5.05323171615601

> <r_mmod_Van_der_Waal_Energy-OPLS-2005>
178.07292175293

> <r_mmod_Electrostatic_Energy-OPLS-2005>
-317.042572021484

> <r_mmod_Solvation_Energy-OPLS-2005>
-425.537231445312

> <b_mmod_Minimization_Converged-OPLS-2005>
0

> <r_mmod_RMS_Derivative-OPLS-2005>
3.29537725448608

$$$$
67
                    3D
 Structure written by MMmdl.
166174  0  0  1  0            999 V2000
  -30.7396  -14.4465   20.5365 C   0  0  0  0  0  0
  -30.4148  -12.2695   19.4381 C   0  0  0  0  0  0
  -29.4949  -12.4736   18.2152 C   0  0  0  0  0  0
  -28.0175  -12.3347   18.6367 C   0  0  0  0  0  0
  -27.6657  -13.2031   19.8766 C   0  0  2  0  0  0
  -28.7152  -12.9976   20.9945 C   0  0  0  0  0  0
  -25.2592  -13.8178   20.5618 C   0  0  0  0  0  0
  -24.1851  -13.0460   20.9190 C   0  0  0  0  0  0
  -24.6387  -11.6924   20.8738 C   0  0  0  0  0  0
  -23.9026  -10.4304   21.0384 C   0  0  0  0  0  0
  -24.3579   -9.4227   21.9179 C   0  0  0  0  0  0
  -23.6280   -8.2246   22.0741 C   0  0  0  0  0  0
  -22.4271   -8.0268   21.3536 C   0  0  0  0  0  0
  -21.9889   -9.0240   20.4638 C   0  0  0  0  0  0
  -22.7173  -10.2131   20.3057 C   0  0  0  0  0  0
  -21.6867   -6.0723   22.5273 C   0  0  0  0  0  0
  -21.4001   -6.5634   23.8203 C   0  0  0  0  0  0
  -21.3652   -5.6794   24.9169 C   0  0  0  0  0  0
  -21.6061   -4.3059   24.7233 C   0  0  0  0  0  0
  -21.8824   -3.8136   23.4360 C   0  0  0  0  0  0
  -21.9185   -4.6946   22.3404 C   0  0  0  0  0  0
  -22.7843  -13.5232   21.1881 C   0  0  0  0  0  0
  -22.1672   -4.2129   21.0988 F   0  0  0  0  0  0
  -21.5622   -3.4543   25.7755 F   0  0  0  0  0  0
  -30.0434  -13.2816   20.4341 N   0  0  0  0  0  0
  -26.3033  -12.9327   20.3385 N   0  0  0  0  0  0
  -25.9345  -11.6490   20.5811 N   0  0  0  0  0  0
  -22.0503  -12.8230   22.0427 N   0  0  0  0  0  0
  -25.4331  -15.1868   20.3839 N   0  0  0  0  0  0
  -31.8956  -14.5803   20.1345 O   0  0  0  0  0  0
  -21.6640   -6.8858   21.4239 O   0  0  0  0  0  0
  -22.3529  -14.5550   20.6711 O   0  0  0  0  0  0
  -24.6113  -31.8693   23.2103 C   0  0  0  0  0  0
  -25.8998  -32.4820   23.8416 C   0  0  1  0  0  0
  -27.2457  -27.4490   20.0972 C   0  0  0  0  0  0
  -25.5870  -33.8634   24.2354 N   0  0  0  0  0  0
  -23.3990  -30.4909   21.5489 C   0  0  2  0  0  0
  -24.8478  -28.9536   20.1173 C   0  0  0  0  0  0
  -22.7385  -29.4673   22.4999 C   0  0  0  0  0  0
  -18.0277  -28.1378   22.8512 C   0  0  0  0  0  0
  -24.1485  -36.7337   23.2641 C   0  0  0  0  0  0
  -25.9248  -30.8372   21.3622 C   0  0  0  0  0  0
  -26.0024  -29.4705   20.7157 C   0  0  0  0  0  0
  -27.1971  -28.7218   20.7079 C   0  0  0  0  0  0
  -26.0705  -26.9430   19.4878 C   0  0  0  0  0  0
  -24.8759  -27.6884   19.5052 C   0  0  0  0  0  0
  -23.6088  -29.8189   20.1653 C   0  0  0  0  0  0
  -25.4095  -36.3125   24.0345 C   0  0  1  0  0  0
  -20.5874  -28.3684   23.1334 C   0  0  2  0  0  0
  -20.6770  -26.9416   22.5471 C   0  0  0  0  0  0
  -19.5764  -26.6365   21.5273 C   0  0  0  0  0  0
  -18.1915  -26.7908   22.1665 C   0  0  0  0  0  0
  -19.1524  -28.8836   23.2906 C   0  0  0  0  0  0
  -18.9427  -30.1448   23.8913 C   0  0  0  0  0  0
  -17.6445  -30.6592   24.0551 C   0  0  0  0  0  0
  -25.9012  -34.9484   23.5144 C   0  0  0  0  0  0
  -16.5334  -29.9097   23.6318 C   0  0  0  0  0  0
  -16.7260  -28.6527   23.0346 C   0  0  0  0  0  0
  -26.4453  -31.6593   25.0746 C   0  0  0  0  0  0
  -25.3749  -31.3684   26.1526 C   0  0  0  0  0  0
  -27.0262  -30.3040   24.6077 C   0  0  0  0  0  0
  -27.6038  -32.4312   25.7514 C   0  0  0  0  0  0
  -27.5571  -37.1820   24.8458 C   0  0  0  0  0  0
  -21.4126  -29.3039   22.3709 N   0  0  0  0  0  0
  -26.4278  -37.3799   23.9401 N   0  0  0  0  0  0
  -24.6624  -31.0771   22.0999 N   0  0  0  0  0  0
  -23.4154  -28.8212   23.3029 O   0  0  0  0  0  0
  -28.4473  -26.7749   20.1235 O   0  0  0  0  0  0
  -26.5588  -34.8931   22.4713 O   0  0  0  0  0  0
  -23.5326  -32.1415   23.7536 O   0  0  0  0  0  0
  -26.8757  -19.5247   21.3068 C   0  0  0  0  0  0
  -28.8993  -20.8430   21.1057 C   0  0  0  0  0  0
  -28.2824  -19.5790   21.3245 C   0  0  0  0  0  0
  -26.1461  -20.7049   21.0898 C   0  0  0  0  0  0
  -28.0755  -21.9754   20.8787 C   0  0  0  0  0  0
  -24.6347  -20.7168   21.1486 C   0  0  0  0  0  0
  -30.9710  -20.8673   22.5777 C   0  0  0  0  0  0
  -31.1639  -20.0839   20.1640 C   0  0  0  0  0  0
  -29.6418  -16.1691   21.9319 C   0  0  0  0  0  0
  -28.4896  -17.1831   21.7548 C   0  0  0  0  0  0
  -28.5381  -25.4236   19.6718 C   0  0  0  0  0  0
  -27.8395  -24.3980   20.5913 C   0  0  0  0  0  0
  -30.4243  -21.0073   21.1463 C   0  0  0  0  0  0
  -26.7284  -21.8984   20.8801 N   0  0  0  0  0  0
  -30.0111  -15.5603   20.6585 N   0  0  0  0  0  0
  -29.0756  -18.4706   21.5603 O   0  0  0  0  0  0
  -28.6483  -23.2159   20.6529 O   0  0  0  0  0  0
  -31.4662  -12.3197   19.1529 H   0  0  0  0  0  0
  -30.2746  -11.2673   19.8515 H   0  0  0  0  0  0
  -29.7343  -11.7480   17.4337 H   0  0  0  0  0  0
  -29.6755  -13.4588   17.7896 H   0  0  0  0  0  0
  -27.8448  -11.2787   18.8648 H   0  0  0  0  0  0
  -27.3648  -12.5755   17.7997 H   0  0  0  0  0  0
  -27.7058  -14.2464   19.5567 H   0  0  0  0  0  0
  -28.6883  -11.9671   21.3488 H   0  0  0  0  0  0
  -28.4916  -13.6143   21.8630 H   0  0  0  0  0  0
  -25.2712   -9.5733   22.4752 H   0  0  0  0  0  0
  -24.0010   -7.4639   22.7464 H   0  0  0  0  0  0
  -21.0810   -8.8712   19.8951 H   0  0  0  0  0  0
  -22.3588  -10.9665   19.6165 H   0  0  0  0  0  0
  -21.1987   -7.6137   23.9698 H   0  0  0  0  0  0
  -21.1479   -6.0524   25.9069 H   0  0  0  0  0  0
  -22.0606   -2.7602   23.2861 H   0  0  0  0  0  0
  -22.4098  -11.9849   22.4759 H   0  0  0  0  0  0
  -21.1147  -13.1259   22.2685 H   0  0  0  0  0  0
  -24.6423  -15.8204   20.3696 H   0  0  0  0  0  0
  -26.2622  -15.5829   19.9620 H   0  0  0  0  0  0
  -26.7075  -32.5539   23.1203 H   0  0  0  0  0  0
  -25.0000  -33.9796   25.0493 H   0  0  0  0  0  0
  -22.6896  -31.3078   21.4083 H   0  0  0  0  0  0
  -23.3717  -35.9692   23.3315 H   0  0  0  0  0  0
  -24.3585  -36.8936   22.2045 H   0  0  0  0  0  0
  -23.7253  -37.6563   23.6639 H   0  0  0  0  0  0
  -26.0287  -31.5984   20.5856 H   0  0  0  0  0  0
  -26.8183  -30.8989   21.9745 H   0  0  0  0  0  0
  -28.0885  -29.1171   21.1751 H   0  0  0  0  0  0
  -26.0585  -25.9829   18.9929 H   0  0  0  0  0  0
  -23.9882  -27.2861   19.0365 H   0  0  0  0  0  0
  -23.7203  -30.5910   19.4040 H   0  0  0  0  0  0
  -22.7346  -29.2373   19.8681 H   0  0  0  0  0  0
  -25.1268  -36.2007   25.0830 H   0  0  0  0  0  0
  -20.9956  -28.3267   24.1460 H   0  0  0  0  0  0
  -20.5694  -26.2281   23.3640 H   0  0  0  0  0  0
  -21.6620  -26.7492   22.1240 H   0  0  0  0  0  0
  -19.6908  -25.6269   21.1290 H   0  0  0  0  0  0
  -19.6674  -27.3141   20.6774 H   0  0  0  0  0  0
  -17.4191  -26.6667   21.4048 H   0  0  0  0  0  0
  -18.0305  -26.0064   22.9082 H   0  0  0  0  0  0
  -19.7898  -30.7269   24.2277 H   0  0  0  0  0  0
  -17.5004  -31.6272   24.5157 H   0  0  0  0  0  0
  -15.5345  -30.3016   23.7639 H   0  0  0  0  0  0
  -15.8660  -28.0842   22.7075 H   0  0  0  0  0  0
  -24.5924  -30.7011   25.7898 H   0  0  0  0  0  0
  -24.8951  -32.2831   26.5016 H   0  0  0  0  0  0
  -25.8163  -30.8860   27.0257 H   0  0  0  0  0  0
  -26.2783  -29.6847   24.1111 H   0  0  0  0  0  0
  -27.4012  -29.7236   25.4514 H   0  0  0  0  0  0
  -27.8635  -30.4372   23.9220 H   0  0  0  0  0  0
  -27.2634  -33.3587   26.2145 H   0  0  0  0  0  0
  -28.3830  -32.6907   25.0330 H   0  0  0  0  0  0
  -28.0714  -31.8393   26.5397 H   0  0  0  0  0  0
  -28.2602  -38.0117   24.7501 H   0  0  0  0  0  0
  -28.1069  -36.2639   24.6289 H   0  0  0  0  0  0
  -27.2296  -37.1481   25.8874 H   0  0  0  0  0  0
  -20.9285  -29.8765   21.6948 H   0  0  0  0  0  0
  -26.0181  -38.2885   24.1398 H   0  0  0  0  0  0
  -26.3431  -18.6007   21.4779 H   0  0  0  0  0  0
  -24.2097  -21.4060   20.4187 H   0  0  0  0  0  0
  -24.3125  -21.0549   22.1348 H   0  0  0  0  0  0
  -24.2128  -19.7261   20.9627 H   0  0  0  0  0  0
  -30.8267  -19.8623   22.9809 H   0  0  0  0  0  0
  -32.0380  -21.0860   22.6150 H   0  0  0  0  0  0
  -30.4940  -21.5731   23.2568 H   0  0  0  0  0  0
  -30.7795  -20.2045   19.1508 H   0  0  0  0  0  0
  -31.0722  -19.0290   20.4206 H   0  0  0  0  0  0
  -32.2338  -20.3046   20.1438 H   0  0  0  0  0  0
  -30.5211  -16.6815   22.3328 H   0  0  0  0  0  0
  -29.3895  -15.4041   22.6620 H   0  0  0  0  0  0
  -27.8723  -17.1878   22.6573 H   0  0  0  0  0  0
  -27.8394  -16.9075   20.9196 H   0  0  0  0  0  0
  -28.2188  -25.3164   18.6380 H   0  0  0  0  0  0
  -29.6067  -25.1992   19.6714 H   0  0  0  0  0  0
  -26.8230  -24.2400   20.2297 H   0  0  0  0  0  0
  -27.7588  -24.7906   21.6060 H   0  0  0  0  0  0
  -30.6734  -22.0178   20.8272 H   0  0  0  0  0  0
  -30.4032  -16.2698   20.0541 H   0  0  0  0  0  0
  1 25  1  0  0  0
  1 30  2  0  0  0
  1 85  1  0  0  0
  2  3  1  0  0  0
  2 25  1  0  0  0
  2 88  1  0  0  0
  2 89  1  0  0  0
  3  4  1  0  0  0
  3 90  1  0  0  0
  3 91  1  0  0  0
  4  5  1  0  0  0
  4 92  1  0  0  0
  4 93  1  0  0  0
  5  6  1  0  0  0
  5 26  1  0  0  0
  5 94  1  0  0  0
  6 25  1  0  0  0
  6 95  1  0  0  0
  6 96  1  0  0  0
  7  8  2  0  0  0
  7 26  1  0  0  0
  7 29  1  0  0  0
  8  9  1  0  0  0
  8 22  1  0  0  0
  9 10  1  0  0  0
  9 27  2  0  0  0
 10 11  2  0  0  0
 10 15  1  0  0  0
 11 12  1  0  0  0
 11 97  1  0  0  0
 12 13  2  0  0  0
 12 98  1  0  0  0
 13 14  1  0  0  0
 13 31  1  0  0  0
 14 15  2  0  0  0
 14 99  1  0  0  0
 15100  1  0  0  0
 16 17  2  0  0  0
 16 21  1  0  0  0
 16 31  1  0  0  0
 17 18  1  0  0  0
 17101  1  0  0  0
 18 19  2  0  0  0
 18102  1  0  0  0
 19 20  1  0  0  0
 19 24  1  0  0  0
 20 21  2  0  0  0
 20103  1  0  0  0
 21 23  1  0  0  0
 22 28  1  0  0  0
 22 32  2  0  0  0
 26 27  1  0  0  0
 28104  1  0  0  0
 28105  1  0  0  0
 29106  1  0  0  0
 29107  1  0  0  0
 33 34  1  0  0  0
 33 66  1  0  0  0
 33 70  2  0  0  0
 34 36  1  0  0  0
 34 59  1  0  0  0
 34108  1  0  0  0
 35 44  2  0  0  0
 35 45  1  0  0  0
 35 68  1  0  0  0
 36 56  1  0  0  0
 36109  1  0  0  0
 37 39  1  0  0  0
 37 47  1  0  0  0
 37 66  1  0  0  0
 37110  1  0  0  0
 38 43  2  0  0  0
 38 46  1  0  0  0
 38 47  1  0  0  0
 39 64  1  0  0  0
 39 67  2  0  0  0
 40 52  1  0  0  0
 40 53  2  0  0  0
 40 58  1  0  0  0
 41111  1  0  0  0
 41112  1  0  0  0
 41113  1  0  0  0
 41 48  1  0  0  0
 42 43  1  0  0  0
 42 66  1  0  0  0
 42114  1  0  0  0
 42115  1  0  0  0
 43 44  1  0  0  0
 44116  1  0  0  0
 45 46  2  0  0  0
 45117  1  0  0  0
 46118  1  0  0  0
 47119  1  0  0  0
 47120  1  0  0  0
 48 56  1  0  0  0
 48 65  1  0  0  0
 48121  1  0  0  0
 49 50  1  0  0  0
 49 53  1  0  0  0
 49 64  1  0  0  0
 49122  1  0  0  0
 50 51  1  0  0  0
 50123  1  0  0  0
 50124  1  0  0  0
 51 52  1  0  0  0
 51125  1  0  0  0
 51126  1  0  0  0
 52127  1  0  0  0
 52128  1  0  0  0
 53 54  1  0  0  0
 54 55  2  0  0  0
 54129  1  0  0  0
 55 57  1  0  0  0
 55130  1  0  0  0
 56 69  2  0  0  0
 57 58  2  0  0  0
 57131  1  0  0  0
 58132  1  0  0  0
 59 60  1  0  0  0
 59 61  1  0  0  0
 59 62  1  0  0  0
 60133  1  0  0  0
 60134  1  0  0  0
 60135  1  0  0  0
 61136  1  0  0  0
 61137  1  0  0  0
 61138  1  0  0  0
 62139  1  0  0  0
 62140  1  0  0  0
 62141  1  0  0  0
 63 65  1  0  0  0
 63142  1  0  0  0
 63143  1  0  0  0
 63144  1  0  0  0
 64145  1  0  0  0
 65146  1  0  0  0
 68 81  1  0  0  0
 71 73  2  0  0  0
 71 74  1  0  0  0
 71147  1  0  0  0
 72 73  1  0  0  0
 72 75  2  0  0  0
 72 83  1  0  0  0
 73 86  1  0  0  0
 74 76  1  0  0  0
 74 84  2  0  0  0
 75 84  1  0  0  0
 75 87  1  0  0  0
 76148  1  0  0  0
 76149  1  0  0  0
 76150  1  0  0  0
 77151  1  0  0  0
 77152  1  0  0  0
 77153  1  0  0  0
 77 83  1  0  0  0
 78 83  1  0  0  0
 78154  1  0  0  0
 78155  1  0  0  0
 78156  1  0  0  0
 79 80  1  0  0  0
 79 85  1  0  0  0
 79157  1  0  0  0
 79158  1  0  0  0
 80 86  1  0  0  0
 80159  1  0  0  0
 80160  1  0  0  0
 81 82  1  0  0  0
 81161  1  0  0  0
 81162  1  0  0  0
 82 87  1  0  0  0
 82163  1  0  0  0
 82164  1  0  0  0
 83165  1  0  0  0
 85166  1  0  0  0
M  ISO  4   1 100  68 101  81 101  85 100
M  END
> <chiral flag>
0

> <version>
0

> <s_m_source_file>
/data/baiqing/PycharmProjects/Reinvent-master-3.2/result/LINK_invent/BTK/process_docking_weight1_custom_sum_contain_oxygen_bond_distance_aromatic_linkinvent_7_9_3/rearranged_h_0153.sdf

> <i_m_source_file_index>
68

> <r_mmod_Potential_Energy-OPLS-2005>
-222.52082824707

> <r_mmod_Stretch_Energy-OPLS-2005>
36.8574371337891

> <r_mmod_Bend_Energy-OPLS-2005>
133.656967163086

> <r_mmod_Torsional_Energy-OPLS-2005>
247.205307006836

> <r_mmod_Improper_Torsional_Energy-OPLS-2005>
19.1014022827148

> <r_mmod_Van_der_Waal_Energy-OPLS-2005>
162.711334228516

> <r_mmod_Electrostatic_Energy-OPLS-2005>
-630.853637695312

> <r_mmod_Solvation_Energy-OPLS-2005>
-206.61474609375

> <b_mmod_Minimization_Converged-OPLS-2005>
0

> <r_mmod_RMS_Derivative-OPLS-2005>
6.92806625366211

$$$$
68
                    3D
 Structure written by MMmdl.
177187  0  0  1  0            999 V2000
  -30.7556  -14.5760   20.5423 C   0  0  0  0  0  0
  -30.4027  -12.3696   19.4635 C   0  0  0  0  0  0
  -29.4930  -12.5093   18.2272 C   0  0  0  0  0  0
  -28.0190  -12.3441   18.6382 C   0  0  0  0  0  0
  -27.6484  -13.2148   19.8668 C   0  0  2  0  0  0
  -28.6980  -13.0973   21.0037 C   0  0  0  0  0  0
  -25.2526  -13.8159   20.5699 C   0  0  0  0  0  0
  -24.1804  -13.0430   20.9210 C   0  0  0  0  0  0
  -24.6379  -11.6896   20.8779 C   0  0  0  0  0  0
  -23.9054  -10.4286   21.0439 C   0  0  0  0  0  0
  -24.3605   -9.4194   21.9211 C   0  0  0  0  0  0
  -23.6283   -8.2233   22.0768 C   0  0  0  0  0  0
  -22.4271   -8.0280   21.3554 C   0  0  0  0  0  0
  -21.9900   -9.0255   20.4660 C   0  0  0  0  0  0
  -22.7230  -10.2135   20.3081 C   0  0  0  0  0  0
  -21.6844   -6.0729   22.5276 C   0  0  0  0  0  0
  -21.4014   -6.5628   23.8207 C   0  0  0  0  0  0
  -21.3659   -5.6790   24.9172 C   0  0  0  0  0  0
  -21.6055   -4.3054   24.7232 C   0  0  0  0  0  0
  -21.8809   -3.8136   23.4348 C   0  0  0  0  0  0
  -21.9193   -4.6956   22.3404 C   0  0  0  0  0  0
  -22.7819  -13.5227   21.1851 C   0  0  0  0  0  0
  -22.1657   -4.2136   21.0987 F   0  0  0  0  0  0
  -21.5638   -3.4536   25.7741 F   0  0  0  0  0  0
  -30.0128  -13.4230   20.4334 N   0  0  0  0  0  0
  -26.2967  -12.9349   20.3377 N   0  0  0  0  0  0
  -25.9317  -11.6504   20.5825 N   0  0  0  0  0  0
  -22.0449  -12.8249   22.0414 N   0  0  0  0  0  0
  -25.4189  -15.1879   20.4057 N   0  0  0  0  0  0
  -31.9078  -14.5781   20.0950 O   0  0  0  0  0  0
  -21.6637   -6.8878   21.4242 O   0  0  0  0  0  0
  -22.3520  -14.5539   20.6694 O   0  0  0  0  0  0
  -24.6214  -31.8664   23.2132 C   0  0  0  0  0  0
  -25.9100  -32.4811   23.8411 C   0  0  1  0  0  0
  -27.2153  -27.3717   20.0855 C   0  0  0  0  0  0
  -25.5951  -33.8609   24.2346 N   0  0  0  0  0  0
  -23.4102  -30.4971   21.5537 C   0  0  2  0  0  0
  -24.8506  -28.9656   20.1113 C   0  0  0  0  0  0
  -22.7447  -29.4666   22.4963 C   0  0  0  0  0  0
  -18.0288  -28.1364   22.8469 C   0  0  0  0  0  0
  -24.1484  -36.7293   23.2637 C   0  0  0  0  0  0
  -25.9502  -30.8048   21.3836 C   0  0  0  0  0  0
  -26.0172  -29.4382   20.7232 C   0  0  0  0  0  0
  -27.1953  -28.6442   20.7212 C   0  0  0  0  0  0
  -26.0253  -26.9508   19.4448 C   0  0  0  0  0  0
  -24.8524  -27.7197   19.4722 C   0  0  0  0  0  0
  -23.6197  -29.8411   20.1654 C   0  0  0  0  0  0
  -25.4107  -36.3096   24.0338 C   0  0  1  0  0  0
  -20.5879  -28.3658   23.1282 C   0  0  2  0  0  0
  -20.6767  -26.9392   22.5399 C   0  0  0  0  0  0
  -19.5755  -26.6360   21.5195 C   0  0  0  0  0  0
  -18.1936  -26.7911   22.1613 C   0  0  0  0  0  0
  -19.1536  -28.8831   23.2874 C   0  0  0  0  0  0
  -18.9471  -30.1429   23.8889 C   0  0  0  0  0  0
  -17.6469  -30.6566   24.0555 C   0  0  0  0  0  0
  -25.9045  -34.9467   23.5125 C   0  0  0  0  0  0
  -16.5357  -29.9064   23.6333 C   0  0  0  0  0  0
  -16.7278  -28.6481   23.0351 C   0  0  0  0  0  0
  -26.4499  -31.6601   25.0755 C   0  0  0  0  0  0
  -25.3759  -31.3726   26.1503 C   0  0  0  0  0  0
  -27.0349  -30.3030   24.6192 C   0  0  0  0  0  0
  -27.6077  -32.4322   25.7507 C   0  0  0  0  0  0
  -27.5578  -37.1807   24.8464 C   0  0  0  0  0  0
  -21.4173  -29.3034   22.3692 N   0  0  0  0  0  0
  -26.4291  -37.3786   23.9406 N   0  0  0  0  0  0
  -24.6789  -31.0724   22.1063 N   0  0  0  0  0  0
  -23.4204  -28.8194   23.3012 O   0  0  0  0  0  0
  -28.3419  -26.5494   20.1536 O   0  0  0  0  0  0
  -26.5584  -34.8922   22.4670 O   0  0  0  0  0  0
  -23.5392  -32.1431   23.7500 O   0  0  0  0  0  0
  -29.0762  -21.8072   20.4658 C   0  0  0  0  0  0
  -29.3520  -23.2152   20.4801 C   0  0  0  0  0  0
  -29.9055  -23.5369   21.6909 C   0  0  0  0  0  0
  -29.4256  -21.3171   21.6959 C   0  0  0  0  0  0
  -28.5631  -17.6956   21.4155 C   0  0  0  0  0  0
  -30.8598  -18.1014   22.0654 C   0  0  0  0  0  0
  -27.6807  -24.3907   18.9429 C   0  0  0  0  0  0
  -28.9499  -16.3397   20.7396 C   0  0  0  0  0  0
  -31.3003  -16.8075   21.3371 C   0  0  0  0  0  0
  -29.1230  -24.1363   19.2746 C   0  0  1  0  0  0
  -29.6565  -18.7821   21.4010 C   0  0  0  0  0  0
  -28.5861  -25.5941   19.0862 C   0  0  2  0  0  0
  -31.6277  -21.5194   24.0486 C   0  0  0  0  0  0
  -29.2078  -21.8175   24.8349 C   0  0  0  0  0  0
  -32.7305  -24.3975   21.6108 C   0  0  0  0  0  0
  -30.4470  -24.8626   22.1583 C   0  0  0  0  0  0
  -30.3193  -22.3106   23.8930 C   0  0  0  0  0  0
  -29.8872  -22.3765   22.4870 N   0  0  0  0  0  0
  -30.2683  -15.7511   21.0963 N   0  0  0  0  0  0
  -29.2542  -19.9878   22.1525 N   0  0  0  0  0  0
  -31.7811  -24.6827   22.6300 O   0  0  0  0  0  0
  -31.4507  -12.4161   19.1630 H   0  0  0  0  0  0
  -30.2818  -11.3823   19.9111 H   0  0  0  0  0  0
  -29.7579  -11.7661   17.4746 H   0  0  0  0  0  0
  -29.6416  -13.4846   17.7611 H   0  0  0  0  0  0
  -27.8523  -11.2905   18.8644 H   0  0  0  0  0  0
  -27.3636  -12.5811   17.7992 H   0  0  0  0  0  0
  -27.6527  -14.2345   19.4887 H   0  0  0  0  0  0
  -28.7076  -12.0810   21.4003 H   0  0  0  0  0  0
  -28.4589  -13.7307   21.8580 H   0  0  0  0  0  0
  -25.2745   -9.5670   22.4790 H   0  0  0  0  0  0
  -23.9986   -7.4620   22.7483 H   0  0  0  0  0  0
  -21.0827   -8.8778   19.8965 H   0  0  0  0  0  0
  -22.3688  -10.9683   19.6196 H   0  0  0  0  0  0
  -21.2000   -7.6134   23.9697 H   0  0  0  0  0  0
  -21.1500   -6.0530   25.9077 H   0  0  0  0  0  0
  -22.0593   -2.7597   23.2853 H   0  0  0  0  0  0
  -22.4035  -11.9899   22.4808 H   0  0  0  0  0  0
  -21.1079  -13.1311   22.2621 H   0  0  0  0  0  0
  -24.6482  -15.8373   20.5206 H   0  0  0  0  0  0
  -26.2663  -15.6308   20.0764 H   0  0  0  0  0  0
  -26.7168  -32.5489   23.1157 H   0  0  0  0  0  0
  -25.0158  -33.9759   25.0537 H   0  0  0  0  0  0
  -22.6996  -31.3156   21.4202 H   0  0  0  0  0  0
  -23.3746  -35.9623   23.3309 H   0  0  0  0  0  0
  -24.3575  -36.8899   22.2050 H   0  0  0  0  0  0
  -23.7238  -37.6506   23.6634 H   0  0  0  0  0  0
  -26.0875  -31.5712   20.6193 H   0  0  0  0  0  0
  -26.8310  -30.8424   22.0126 H   0  0  0  0  0  0
  -28.0851  -28.9984   21.2223 H   0  0  0  0  0  0
  -25.9371  -26.0150   18.9252 H   0  0  0  0  0  0
  -23.9567  -27.3524   18.9904 H   0  0  0  0  0  0
  -23.7356  -30.6199   19.4112 H   0  0  0  0  0  0
  -22.7403  -29.2703   19.8636 H   0  0  0  0  0  0
  -25.1291  -36.1952   25.0832 H   0  0  0  0  0  0
  -20.9975  -28.3220   24.1400 H   0  0  0  0  0  0
  -20.5649  -26.2276   23.3596 H   0  0  0  0  0  0
  -21.6643  -26.7424   22.1215 H   0  0  0  0  0  0
  -19.6923  -25.6270   21.1230 H   0  0  0  0  0  0
  -19.6694  -27.3161   20.6718 H   0  0  0  0  0  0
  -17.4213  -26.6652   21.4009 H   0  0  0  0  0  0
  -18.0351  -26.0041   22.9002 H   0  0  0  0  0  0
  -19.7934  -30.7240   24.2271 H   0  0  0  0  0  0
  -17.5026  -31.6255   24.5135 H   0  0  0  0  0  0
  -15.5362  -30.2974   23.7650 H   0  0  0  0  0  0
  -15.8672  -28.0799   22.7089 H   0  0  0  0  0  0
  -24.5934  -30.7066   25.7845 H   0  0  0  0  0  0
  -24.8956  -32.2900   26.4924 H   0  0  0  0  0  0
  -25.8118  -30.8920   27.0276 H   0  0  0  0  0  0
  -26.2927  -29.6772   24.1218 H   0  0  0  0  0  0
  -27.4077  -29.7277   25.4684 H   0  0  0  0  0  0
  -27.8778  -30.4339   23.9394 H   0  0  0  0  0  0
  -27.2705  -33.3618   26.2096 H   0  0  0  0  0  0
  -28.3867  -32.6892   25.0315 H   0  0  0  0  0  0
  -28.0758  -31.8445   26.5417 H   0  0  0  0  0  0
  -28.2615  -38.0089   24.7514 H   0  0  0  0  0  0
  -28.1070  -36.2635   24.6290 H   0  0  0  0  0  0
  -27.2306  -37.1457   25.8872 H   0  0  0  0  0  0
  -20.9337  -29.8770   21.6918 H   0  0  0  0  0  0
  -26.0180  -38.2862   24.1399 H   0  0  0  0  0  0
  -28.6506  -21.2334   19.6530 H   0  0  0  0  0  0
  -28.2878  -17.4868   22.4511 H   0  0  0  0  0  0
  -27.6572  -18.0811   20.9449 H   0  0  0  0  0  0
  -31.7031  -18.7948   22.0939 H   0  0  0  0  0  0
  -30.6308  -17.8591   23.1046 H   0  0  0  0  0  0
  -26.9586  -24.1965   19.7336 H   0  0  0  0  0  0
  -27.3407  -24.1411   17.9397 H   0  0  0  0  0  0
  -28.9134  -16.4544   19.6551 H   0  0  0  0  0  0
  -28.1503  -15.6640   21.0135 H   0  0  0  0  0  0
  -32.1394  -16.3831   21.8936 H   0  0  0  0  0  0
  -31.7052  -17.1116   20.3697 H   0  0  0  0  0  0
  -29.7444  -23.7710   18.4594 H   0  0  0  0  0  0
  -29.9017  -19.0487   20.3707 H   0  0  0  0  0  0
  -28.8704  -26.1112   18.1709 H   0  0  0  0  0  0
  -32.0227  -21.6099   25.0615 H   0  0  0  0  0  0
  -32.3900  -21.8908   23.3635 H   0  0  0  0  0  0
  -31.4860  -20.4595   23.8435 H   0  0  0  0  0  0
  -29.5020  -21.9516   25.8763 H   0  0  0  0  0  0
  -28.9766  -20.7623   24.7013 H   0  0  0  0  0  0
  -28.2882  -22.3827   24.6816 H   0  0  0  0  0  0
  -33.7220  -24.3102   22.0546 H   0  0  0  0  0  0
  -32.7684  -25.1924   20.8653 H   0  0  0  0  0  0
  -32.5148  -23.4563   21.1043 H   0  0  0  0  0  0
  -29.8279  -25.2557   22.9654 H   0  0  0  0  0  0
  -30.4322  -25.6053   21.3608 H   0  0  0  0  0  0
  -30.5292  -23.3246   24.2265 H   0  0  0  0  0  0
  -29.4205  -19.9025   23.1493 H   0  0  0  0  0  0
  1 25  1  0  0  0
  1 30  2  0  0  0
  1 89  1  0  0  0
  2  3  1  0  0  0
  2 25  1  0  0  0
  2 92  1  0  0  0
  2 93  1  0  0  0
  3  4  1  0  0  0
  3 94  1  0  0  0
  3 95  1  0  0  0
  4  5  1  0  0  0
  4 96  1  0  0  0
  4 97  1  0  0  0
  5  6  1  0  0  0
  5 26  1  0  0  0
  5 98  1  0  0  0
  6 25  1  0  0  0
  6 99  1  0  0  0
  6100  1  0  0  0
  7  8  2  0  0  0
  7 26  1  0  0  0
  7 29  1  0  0  0
  8  9  1  0  0  0
  8 22  1  0  0  0
  9 10  1  0  0  0
  9 27  2  0  0  0
 10 11  2  0  0  0
 10 15  1  0  0  0
 11 12  1  0  0  0
 11101  1  0  0  0
 12 13  2  0  0  0
 12102  1  0  0  0
 13 14  1  0  0  0
 13 31  1  0  0  0
 14 15  2  0  0  0
 14103  1  0  0  0
 15104  1  0  0  0
 16 17  2  0  0  0
 16 21  1  0  0  0
 16 31  1  0  0  0
 17 18  1  0  0  0
 17105  1  0  0  0
 18 19  2  0  0  0
 18106  1  0  0  0
 19 20  1  0  0  0
 19 24  1  0  0  0
 20 21  2  0  0  0
 20107  1  0  0  0
 21 23  1  0  0  0
 22 28  1  0  0  0
 22 32  2  0  0  0
 26 27  1  0  0  0
 28108  1  0  0  0
 28109  1  0  0  0
 29110  1  0  0  0
 29111  1  0  0  0
 33 34  1  0  0  0
 33 66  1  0  0  0
 33 70  2  0  0  0
 34 36  1  0  0  0
 34 59  1  0  0  0
 34112  1  0  0  0
 35 44  2  0  0  0
 35 45  1  0  0  0
 35 68  1  0  0  0
 36 56  1  0  0  0
 36113  1  0  0  0
 37 39  1  0  0  0
 37 47  1  0  0  0
 37 66  1  0  0  0
 37114  1  0  0  0
 38 43  2  0  0  0
 38 46  1  0  0  0
 38 47  1  0  0  0
 39 64  1  0  0  0
 39 67  2  0  0  0
 40 52  1  0  0  0
 40 53  2  0  0  0
 40 58  1  0  0  0
 41115  1  0  0  0
 41116  1  0  0  0
 41117  1  0  0  0
 41 48  1  0  0  0
 42 43  1  0  0  0
 42 66  1  0  0  0
 42118  1  0  0  0
 42119  1  0  0  0
 43 44  1  0  0  0
 44120  1  0  0  0
 45 46  2  0  0  0
 45121  1  0  0  0
 46122  1  0  0  0
 47123  1  0  0  0
 47124  1  0  0  0
 48 56  1  0  0  0
 48 65  1  0  0  0
 48125  1  0  0  0
 49 50  1  0  0  0
 49 53  1  0  0  0
 49 64  1  0  0  0
 49126  1  0  0  0
 50 51  1  0  0  0
 50127  1  0  0  0
 50128  1  0  0  0
 51 52  1  0  0  0
 51129  1  0  0  0
 51130  1  0  0  0
 52131  1  0  0  0
 52132  1  0  0  0
 53 54  1  0  0  0
 54 55  2  0  0  0
 54133  1  0  0  0
 55 57  1  0  0  0
 55134  1  0  0  0
 56 69  2  0  0  0
 57 58  2  0  0  0
 57135  1  0  0  0
 58136  1  0  0  0
 59 60  1  0  0  0
 59 61  1  0  0  0
 59 62  1  0  0  0
 60137  1  0  0  0
 60138  1  0  0  0
 60139  1  0  0  0
 61140  1  0  0  0
 61141  1  0  0  0
 61142  1  0  0  0
 62143  1  0  0  0
 62144  1  0  0  0
 62145  1  0  0  0
 63 65  1  0  0  0
 63146  1  0  0  0
 63147  1  0  0  0
 63148  1  0  0  0
 64149  1  0  0  0
 65150  1  0  0  0
 68 82  1  0  0  0
 71 72  1  0  0  0
 71 74  2  0  0  0
 71151  1  0  0  0
 72 73  2  0  0  0
 72 80  1  0  0  0
 73 86  1  0  0  0
 73 88  1  0  0  0
 74 88  1  0  0  0
 74 90  1  0  0  0
 75 78  1  0  0  0
 75 81  1  0  0  0
 75152  1  0  0  0
 75153  1  0  0  0
 76 79  1  0  0  0
 76 81  1  0  0  0
 76154  1  0  0  0
 76155  1  0  0  0
 77 80  1  0  0  0
 77 82  1  0  0  0
 77156  1  0  0  0
 77157  1  0  0  0
 78 89  1  0  0  0
 78158  1  0  0  0
 78159  1  0  0  0
 79 89  1  0  0  0
 79160  1  0  0  0
 79161  1  0  0  0
 80 82  1  0  0  0
 80162  1  0  0  0
 81 90  1  0  0  0
 81163  1  0  0  0
 82164  1  0  0  0
 83165  1  0  0  0
 83166  1  0  0  0
 83167  1  0  0  0
 83 87  1  0  0  0
 84 87  1  0  0  0
 84168  1  0  0  0
 84169  1  0  0  0
 84170  1  0  0  0
 85 91  1  0  0  0
 85171  1  0  0  0
 85172  1  0  0  0
 85173  1  0  0  0
 86 91  1  0  0  0
 86174  1  0  0  0
 86175  1  0  0  0
 87 88  1  0  0  0
 87176  1  0  0  0
 90177  1  0  0  0
M  ISO  4   1 100  68 101  82 101  89 100
M  END
> <chiral flag>
0

> <version>
0

> <s_m_source_file>
/data/baiqing/PycharmProjects/Reinvent-master-3.2/result/LINK_invent/BTK/process_docking_weight1_custom_sum_contain_oxygen_bond_distance_aromatic_linkinvent_7_9_3/rearranged_h_0153.sdf

> <i_m_source_file_index>
69

> <r_mmod_Potential_Energy-OPLS-2005>
261.538299560547

> <r_mmod_Stretch_Energy-OPLS-2005>
62.9550399780273

> <r_mmod_Bend_Energy-OPLS-2005>
206.249145507812

> <r_mmod_Torsional_Energy-OPLS-2005>
353.781585693359

> <r_mmod_Improper_Torsional_Energy-OPLS-2005>
8.46272087097168

> <r_mmod_Van_der_Waal_Energy-OPLS-2005>
139.907608032227

> <r_mmod_Electrostatic_Energy-OPLS-2005>
-338.481170654297

> <r_mmod_Solvation_Energy-OPLS-2005>
-207.596817016602

> <b_mmod_Minimization_Converged-OPLS-2005>
0

> <r_mmod_RMS_Derivative-OPLS-2005>
2.13519191741943

$$$$
69
                    3D
 Structure written by MMmdl.
154162  0  0  1  0            999 V2000
  -30.7361  -14.4874   20.6026 C   0  0  0  0  0  0
  -30.4132  -12.3362   19.4317 C   0  0  0  0  0  0
  -29.4922  -12.5259   18.2117 C   0  0  0  0  0  0
  -28.0154  -12.3857   18.6274 C   0  0  0  0  0  0
  -27.6595  -13.2263   19.8850 C   0  0  2  0  0  0
  -28.7033  -13.0288   21.0066 C   0  0  0  0  0  0
  -25.2572  -13.8198   20.5780 C   0  0  0  0  0  0
  -24.1838  -13.0424   20.9172 C   0  0  0  0  0  0
  -24.6400  -11.6898   20.8691 C   0  0  0  0  0  0
  -23.9053  -10.4285   21.0352 C   0  0  0  0  0  0
  -24.3604   -9.4201   21.9134 C   0  0  0  0  0  0
  -23.6290   -8.2228   22.0744 C   0  0  0  0  0  0
  -22.4270   -8.0262   21.3533 C   0  0  0  0  0  0
  -21.9891   -9.0222   20.4629 C   0  0  0  0  0  0
  -22.7214  -10.2112   20.3016 C   0  0  0  0  0  0
  -21.6844   -6.0721   22.5250 C   0  0  0  0  0  0
  -21.4021   -6.5616   23.8192 C   0  0  0  0  0  0
  -21.3684   -5.6778   24.9151 C   0  0  0  0  0  0
  -21.6053   -4.3038   24.7217 C   0  0  0  0  0  0
  -21.8821   -3.8139   23.4330 C   0  0  0  0  0  0
  -21.9187   -4.6948   22.3389 C   0  0  0  0  0  0
  -22.7844  -13.5177   21.1839 C   0  0  0  0  0  0
  -22.1639   -4.2132   21.0959 F   0  0  0  0  0  0
  -21.5650   -3.4523   25.7733 F   0  0  0  0  0  0
  -30.0301  -13.3319   20.4487 N   0  0  0  0  0  0
  -26.3028  -12.9417   20.3450 N   0  0  0  0  0  0
  -25.9358  -11.6536   20.5776 N   0  0  0  0  0  0
  -22.0519  -12.8190   22.0434 N   0  0  0  0  0  0
  -25.4305  -15.1945   20.4268 N   0  0  0  0  0  0
  -31.8416  -14.6502   20.0805 O   0  0  0  0  0  0
  -21.6640   -6.8856   21.4213 O   0  0  0  0  0  0
  -22.3507  -14.5459   20.6653 O   0  0  0  0  0  0
  -24.6196  -31.8639   23.2075 C   0  0  0  0  0  0
  -25.9069  -32.4808   23.8384 C   0  0  1  0  0  0
  -27.2403  -27.4092   20.1099 C   0  0  0  0  0  0
  -25.5936  -33.8609   24.2334 N   0  0  0  0  0  0
  -23.4073  -30.4883   21.5473 C   0  0  2  0  0  0
  -24.8564  -28.9447   20.1206 C   0  0  0  0  0  0
  -22.7420  -29.4652   22.4961 C   0  0  0  0  0  0
  -18.0266  -28.1379   22.8486 C   0  0  0  0  0  0
  -24.1489  -36.7304   23.2634 C   0  0  0  0  0  0
  -25.9375  -30.8286   21.3570 C   0  0  0  0  0  0
  -26.0190  -29.4596   20.7070 C   0  0  0  0  0  0
  -27.2166  -28.7032   20.6867 C   0  0  0  0  0  0
  -26.0562  -26.9064   19.5333 C   0  0  0  0  0  0
  -24.8719  -27.6689   19.5296 C   0  0  0  0  0  0
  -23.6177  -29.8144   20.1650 C   0  0  0  0  0  0
  -25.4105  -36.3102   24.0337 C   0  0  1  0  0  0
  -20.5862  -28.3673   23.1312 C   0  0  2  0  0  0
  -20.6757  -26.9395   22.5405 C   0  0  0  0  0  0
  -19.5728  -26.6376   21.5200 C   0  0  0  0  0  0
  -18.1908  -26.7919   22.1614 C   0  0  0  0  0  0
  -19.1522  -28.8838   23.2888 C   0  0  0  0  0  0
  -18.9446  -30.1441   23.8912 C   0  0  0  0  0  0
  -17.6450  -30.6578   24.0571 C   0  0  0  0  0  0
  -25.9036  -34.9467   23.5127 C   0  0  0  0  0  0
  -16.5341  -29.9085   23.6350 C   0  0  0  0  0  0
  -16.7270  -28.6513   23.0337 C   0  0  0  0  0  0
  -26.4465  -31.6582   25.0722 C   0  0  0  0  0  0
  -25.3723  -31.3686   26.1478 C   0  0  0  0  0  0
  -27.0300  -30.3033   24.6091 C   0  0  0  0  0  0
  -27.6065  -32.4284   25.7479 C   0  0  0  0  0  0
  -27.5572  -37.1802   24.8463 C   0  0  0  0  0  0
  -21.4142  -29.3055   22.3719 N   0  0  0  0  0  0
  -26.4286  -37.3787   23.9416 N   0  0  0  0  0  0
  -24.6736  -31.0733   22.0978 N   0  0  0  0  0  0
  -23.4179  -28.8197   23.3008 O   0  0  0  0  0  0
  -28.4109  -26.6722   20.1004 O   0  0  0  0  0  0
  -26.5573  -34.8927   22.4671 O   0  0  0  0  0  0
  -23.5378  -32.1361   23.7486 O   0  0  0  0  0  0
  -28.9967  -21.8513   18.7155 C   0  0  0  0  0  0
  -28.7856  -22.2621   21.0889 C   0  0  0  0  0  0
  -29.2730  -20.4902   18.9727 C   0  0  0  0  0  0
  -29.0577  -20.8892   21.3442 C   0  0  0  0  0  0
  -28.7654  -22.7700   19.7646 C   0  0  0  0  0  0
  -29.3261  -19.9783   20.2860 C   0  0  0  0  0  0
  -28.5335  -24.2578   19.3957 C   0  0  0  0  0  0
  -30.8192  -16.7859   21.5995 C   0  0  0  0  0  0
  -28.3593  -25.2940   20.5427 C   0  0  0  0  0  0
  -29.9276  -18.0646   21.7045 C   0  0  0  0  0  0
  -30.1550  -15.4945   21.2914 N   0  0  0  0  0  0
  -29.6271  -18.6242   20.4188 O   0  0  0  0  0  0
  -31.4614  -12.4162   19.1369 H   0  0  0  0  0  0
  -30.3033  -11.3288   19.8341 H   0  0  0  0  0  0
  -29.7335  -11.7931   17.4408 H   0  0  0  0  0  0
  -29.6623  -13.5096   17.7685 H   0  0  0  0  0  0
  -27.8190  -11.3302   18.8208 H   0  0  0  0  0  0
  -27.3639  -12.6680   17.8002 H   0  0  0  0  0  0
  -27.6960  -14.2743   19.5832 H   0  0  0  0  0  0
  -28.6831  -11.9986   21.3641 H   0  0  0  0  0  0
  -28.4701  -13.6456   21.8752 H   0  0  0  0  0  0
  -25.2746   -9.5694   22.4693 H   0  0  0  0  0  0
  -24.0008   -7.4608   22.7455 H   0  0  0  0  0  0
  -21.0829   -8.8695   19.8922 H   0  0  0  0  0  0
  -22.3632  -10.9618   19.6116 H   0  0  0  0  0  0
  -21.2008   -7.6119   23.9695 H   0  0  0  0  0  0
  -21.1519   -6.0498   25.9055 H   0  0  0  0  0  0
  -22.0603   -2.7602   23.2817 H   0  0  0  0  0  0
  -22.4154  -11.9847   22.4807 H   0  0  0  0  0  0
  -21.1102  -13.1169   22.2591 H   0  0  0  0  0  0
  -24.6772  -15.8596   20.5672 H   0  0  0  0  0  0
  -26.3033  -15.6360   20.1686 H   0  0  0  0  0  0
  -26.7155  -32.5511   23.1161 H   0  0  0  0  0  0
  -25.0175  -33.9745   25.0545 H   0  0  0  0  0  0
  -22.7012  -31.3088   21.4047 H   0  0  0  0  0  0
  -23.3760  -35.9630   23.3300 H   0  0  0  0  0  0
  -24.3570  -36.8895   22.2043 H   0  0  0  0  0  0
  -23.7241  -37.6509   23.6644 H   0  0  0  0  0  0
  -26.0418  -31.5942   20.5863 H   0  0  0  0  0  0
  -26.8284  -30.8871   21.9707 H   0  0  0  0  0  0
  -28.1177  -29.1003   21.1304 H   0  0  0  0  0  0
  -26.0388  -25.9226   19.0895 H   0  0  0  0  0  0
  -23.9740  -27.2627   19.0860 H   0  0  0  0  0  0
  -23.7280  -30.5854   19.4023 H   0  0  0  0  0  0
  -22.7414  -29.2334   19.8716 H   0  0  0  0  0  0
  -25.1270  -36.1956   25.0825 H   0  0  0  0  0  0
  -20.9957  -28.3217   24.1425 H   0  0  0  0  0  0
  -20.5660  -26.2253   23.3580 H   0  0  0  0  0  0
  -21.6628  -26.7431   22.1183 H   0  0  0  0  0  0
  -19.6879  -25.6286   21.1229 H   0  0  0  0  0  0
  -19.6690  -27.3192   20.6746 H   0  0  0  0  0  0
  -17.4172  -26.6701   21.4013 H   0  0  0  0  0  0
  -18.0308  -26.0049   22.8997 H   0  0  0  0  0  0
  -19.7923  -30.7260   24.2268 H   0  0  0  0  0  0
  -17.5009  -31.6251   24.5177 H   0  0  0  0  0  0
  -15.5340  -30.2991   23.7671 H   0  0  0  0  0  0
  -15.8661  -28.0854   22.7036 H   0  0  0  0  0  0
  -24.5992  -30.6903   25.7851 H   0  0  0  0  0  0
  -24.8799  -32.2814   26.4849 H   0  0  0  0  0  0
  -25.8085  -30.8975   27.0297 H   0  0  0  0  0  0
  -26.2848  -29.6803   24.1149 H   0  0  0  0  0  0
  -27.4066  -29.7260   25.4538 H   0  0  0  0  0  0
  -27.8673  -30.4349   23.9241 H   0  0  0  0  0  0
  -27.2763  -33.3641   26.2011 H   0  0  0  0  0  0
  -28.3924  -32.6731   25.0318 H   0  0  0  0  0  0
  -28.0689  -31.8418   26.5424 H   0  0  0  0  0  0
  -28.2599  -38.0088   24.7514 H   0  0  0  0  0  0
  -28.1054  -36.2623   24.6301 H   0  0  0  0  0  0
  -27.2278  -37.1455   25.8858 H   0  0  0  0  0  0
  -20.9299  -29.8794   21.6949 H   0  0  0  0  0  0
  -26.0172  -38.2856   24.1443 H   0  0  0  0  0  0
  -28.9762  -22.1920   17.6888 H   0  0  0  0  0  0
  -28.5972  -22.9124   21.9319 H   0  0  0  0  0  0
  -29.4598  -19.8280   18.1383 H   0  0  0  0  0  0
  -29.0536  -20.5496   22.3701 H   0  0  0  0  0  0
  -27.6728  -24.3153   18.7285 H   0  0  0  0  0  0
  -29.3917  -24.5707   18.7972 H   0  0  0  0  0  0
  -31.6221  -16.9948   20.8929 H   0  0  0  0  0  0
  -31.3118  -16.6445   22.5614 H   0  0  0  0  0  0
  -29.1901  -25.1744   21.2394 H   0  0  0  0  0  0
  -27.4554  -25.0858   21.1186 H   0  0  0  0  0  0
  -30.5081  -18.7977   22.2697 H   0  0  0  0  0  0
  -29.0151  -17.8821   22.2715 H   0  0  0  0  0  0
  -29.2532  -15.3176   21.7116 H   0  0  0  0  0  0
  1 25  1  0  0  0
  1 30  2  0  0  0
  1 81  1  0  0  0
  2  3  1  0  0  0
  2 25  1  0  0  0
  2 83  1  0  0  0
  2 84  1  0  0  0
  3  4  1  0  0  0
  3 85  1  0  0  0
  3 86  1  0  0  0
  4  5  1  0  0  0
  4 87  1  0  0  0
  4 88  1  0  0  0
  5  6  1  0  0  0
  5 26  1  0  0  0
  5 89  1  0  0  0
  6 25  1  0  0  0
  6 90  1  0  0  0
  6 91  1  0  0  0
  7  8  2  0  0  0
  7 26  1  0  0  0
  7 29  1  0  0  0
  8  9  1  0  0  0
  8 22  1  0  0  0
  9 10  1  0  0  0
  9 27  2  0  0  0
 10 11  2  0  0  0
 10 15  1  0  0  0
 11 12  1  0  0  0
 11 92  1  0  0  0
 12 13  2  0  0  0
 12 93  1  0  0  0
 13 14  1  0  0  0
 13 31  1  0  0  0
 14 15  2  0  0  0
 14 94  1  0  0  0
 15 95  1  0  0  0
 16 17  2  0  0  0
 16 21  1  0  0  0
 16 31  1  0  0  0
 17 18  1  0  0  0
 17 96  1  0  0  0
 18 19  2  0  0  0
 18 97  1  0  0  0
 19 20  1  0  0  0
 19 24  1  0  0  0
 20 21  2  0  0  0
 20 98  1  0  0  0
 21 23  1  0  0  0
 22 28  1  0  0  0
 22 32  2  0  0  0
 26 27  1  0  0  0
 28 99  1  0  0  0
 28100  1  0  0  0
 29101  1  0  0  0
 29102  1  0  0  0
 33 34  1  0  0  0
 33 66  1  0  0  0
 33 70  2  0  0  0
 34 36  1  0  0  0
 34 59  1  0  0  0
 34103  1  0  0  0
 35 44  2  0  0  0
 35 45  1  0  0  0
 35 68  1  0  0  0
 36 56  1  0  0  0
 36104  1  0  0  0
 37 39  1  0  0  0
 37 47  1  0  0  0
 37 66  1  0  0  0
 37105  1  0  0  0
 38 43  2  0  0  0
 38 46  1  0  0  0
 38 47  1  0  0  0
 39 64  1  0  0  0
 39 67  2  0  0  0
 40 52  1  0  0  0
 40 53  2  0  0  0
 40 58  1  0  0  0
 41106  1  0  0  0
 41107  1  0  0  0
 41108  1  0  0  0
 41 48  1  0  0  0
 42 43  1  0  0  0
 42 66  1  0  0  0
 42109  1  0  0  0
 42110  1  0  0  0
 43 44  1  0  0  0
 44111  1  0  0  0
 45 46  2  0  0  0
 45112  1  0  0  0
 46113  1  0  0  0
 47114  1  0  0  0
 47115  1  0  0  0
 48 56  1  0  0  0
 48 65  1  0  0  0
 48116  1  0  0  0
 49 50  1  0  0  0
 49 53  1  0  0  0
 49 64  1  0  0  0
 49117  1  0  0  0
 50 51  1  0  0  0
 50118  1  0  0  0
 50119  1  0  0  0
 51 52  1  0  0  0
 51120  1  0  0  0
 51121  1  0  0  0
 52122  1  0  0  0
 52123  1  0  0  0
 53 54  1  0  0  0
 54 55  2  0  0  0
 54124  1  0  0  0
 55 57  1  0  0  0
 55125  1  0  0  0
 56 69  2  0  0  0
 57 58  2  0  0  0
 57126  1  0  0  0
 58127  1  0  0  0
 59 60  1  0  0  0
 59 61  1  0  0  0
 59 62  1  0  0  0
 60128  1  0  0  0
 60129  1  0  0  0
 60130  1  0  0  0
 61131  1  0  0  0
 61132  1  0  0  0
 61133  1  0  0  0
 62134  1  0  0  0
 62135  1  0  0  0
 62136  1  0  0  0
 63 65  1  0  0  0
 63137  1  0  0  0
 63138  1  0  0  0
 63139  1  0  0  0
 64140  1  0  0  0
 65141  1  0  0  0
 68 79  1  0  0  0
 71 73  2  0  0  0
 71 75  1  0  0  0
 71142  1  0  0  0
 72 74  1  0  0  0
 72 75  2  0  0  0
 72143  1  0  0  0
 73 76  1  0  0  0
 73144  1  0  0  0
 74 76  2  0  0  0
 74145  1  0  0  0
 75 77  1  0  0  0
 76 82  1  0  0  0
 77 79  1  0  0  0
 77146  1  0  0  0
 77147  1  0  0  0
 78 80  1  0  0  0
 78 81  1  0  0  0
 78148  1  0  0  0
 78149  1  0  0  0
 79150  1  0  0  0
 79151  1  0  0  0
 80 82  1  0  0  0
 80152  1  0  0  0
 80153  1  0  0  0
 81154  1  0  0  0
M  ISO  4   1 100  68 101  79 101  81 100
M  END
> <chiral flag>
0

> <version>
0

> <s_m_source_file>
/data/baiqing/PycharmProjects/Reinvent-master-3.2/result/LINK_invent/BTK/process_docking_weight1_custom_sum_contain_oxygen_bond_distance_aromatic_linkinvent_7_9_3/rearranged_h_0153.sdf

> <i_m_source_file_index>
70

> <r_mmod_Potential_Energy-OPLS-2005>
-79.9328689575195

> <r_mmod_Stretch_Energy-OPLS-2005>
45.480396270752

> <r_mmod_Bend_Energy-OPLS-2005>
120.028930664062

> <r_mmod_Torsional_Energy-OPLS-2005>
210.249465942383

> <r_mmod_Improper_Torsional_Energy-OPLS-2005>
1.98455858230591

> <r_mmod_Van_der_Waal_Energy-OPLS-2005>
149.292999267578

> <r_mmod_Electrostatic_Energy-OPLS-2005>
-409.587524414062

> <r_mmod_Solvation_Energy-OPLS-2005>
-212.621704101562

> <b_mmod_Minimization_Converged-OPLS-2005>
0

> <r_mmod_RMS_Derivative-OPLS-2005>
3.88758873939514

$$$$
70
                    3D
 Structure written by MMmdl.
192202  0  0  1  0            999 V2000
  -30.7702  -14.3962   20.5960 C   0  0  0  0  0  0
  -30.4021  -12.2774   19.4068 C   0  0  0  0  0  0
  -29.4817  -12.4977   18.1905 C   0  0  0  0  0  0
  -27.9996  -12.3784   18.6004 C   0  0  0  0  0  0
  -27.6547  -13.2088   19.8661 C   0  0  2  0  0  0
  -28.6951  -12.9540   20.9734 C   0  0  0  0  0  0
  -25.2517  -13.8138   20.5618 C   0  0  0  0  0  0
  -24.1802  -13.0421   20.9165 C   0  0  0  0  0  0
  -24.6374  -11.6891   20.8737 C   0  0  0  0  0  0
  -23.9050  -10.4284   21.0411 C   0  0  0  0  0  0
  -24.3605   -9.4201   21.9187 C   0  0  0  0  0  0
  -23.6289   -8.2236   22.0752 C   0  0  0  0  0  0
  -22.4272   -8.0272   21.3542 C   0  0  0  0  0  0
  -21.9905   -9.0237   20.4644 C   0  0  0  0  0  0
  -22.7224  -10.2124   20.3057 C   0  0  0  0  0  0
  -21.6842   -6.0736   22.5276 C   0  0  0  0  0  0
  -21.4018   -6.5643   23.8209 C   0  0  0  0  0  0
  -21.3657   -5.6796   24.9169 C   0  0  0  0  0  0
  -21.6039   -4.3056   24.7223 C   0  0  0  0  0  0
  -21.8820   -3.8150   23.4343 C   0  0  0  0  0  0
  -21.9195   -4.6968   22.3399 C   0  0  0  0  0  0
  -22.7832  -13.5217   21.1850 C   0  0  0  0  0  0
  -22.1657   -4.2154   21.0977 F   0  0  0  0  0  0
  -21.5630   -3.4537   25.7736 F   0  0  0  0  0  0
  -30.0206  -13.2727   20.4228 N   0  0  0  0  0  0
  -26.2974  -12.9342   20.3322 N   0  0  0  0  0  0
  -25.9299  -11.6494   20.5751 N   0  0  0  0  0  0
  -22.0479  -12.8211   22.0414 N   0  0  0  0  0  0
  -25.4174  -15.1836   20.3925 N   0  0  0  0  0  0
  -31.9522  -14.4290   20.2377 O   0  0  0  0  0  0
  -21.6629   -6.8874   21.4236 O   0  0  0  0  0  0
  -22.3513  -14.5522   20.6697 O   0  0  0  0  0  0
  -24.6103  -31.8755   23.2129 C   0  0  0  0  0  0
  -25.9007  -32.4860   23.8428 C   0  0  1  0  0  0
  -27.2179  -27.4848   20.0745 C   0  0  0  0  0  0
  -25.5873  -33.8658   24.2338 N   0  0  0  0  0  0
  -23.3952  -30.5038   21.5545 C   0  0  2  0  0  0
  -24.8335  -28.9768   20.1292 C   0  0  0  0  0  0
  -22.7381  -29.4718   22.4988 C   0  0  0  0  0  0
  -18.0275  -28.1390   22.8491 C   0  0  0  0  0  0
  -24.1492  -36.7362   23.2630 C   0  0  0  0  0  0
  -25.9212  -30.8639   21.3507 C   0  0  0  0  0  0
  -26.0003  -29.4998   20.7028 C   0  0  0  0  0  0
  -27.2055  -28.7662   20.6662 C   0  0  0  0  0  0
  -26.0147  -26.9383   19.5939 C   0  0  0  0  0  0
  -24.8306  -27.6867   19.5810 C   0  0  0  0  0  0
  -23.5985  -29.8432   20.1690 C   0  0  0  0  0  0
  -25.4100  -36.3120   24.0332 C   0  0  1  0  0  0
  -20.5855  -28.3683   23.1308 C   0  0  2  0  0  0
  -20.6767  -26.9420   22.5406 C   0  0  0  0  0  0
  -19.5752  -26.6402   21.5203 C   0  0  0  0  0  0
  -18.1925  -26.7934   22.1616 C   0  0  0  0  0  0
  -19.1516  -28.8844   23.2907 C   0  0  0  0  0  0
  -18.9437  -30.1444   23.8942 C   0  0  0  0  0  0
  -17.6450  -30.6601   24.0557 C   0  0  0  0  0  0
  -25.9033  -34.9500   23.5124 C   0  0  0  0  0  0
  -16.5342  -29.9107   23.6330 C   0  0  0  0  0  0
  -16.7263  -28.6511   23.0358 C   0  0  0  0  0  0
  -26.4460  -31.6616   25.0731 C   0  0  0  0  0  0
  -25.3745  -31.3680   26.1476 C   0  0  0  0  0  0
  -27.0308  -30.3076   24.6080 C   0  0  0  0  0  0
  -27.6061  -32.4323   25.7478 C   0  0  0  0  0  0
  -27.5585  -37.1820   24.8462 C   0  0  0  0  0  0
  -21.4112  -29.3075   22.3736 N   0  0  0  0  0  0
  -26.4286  -37.3800   23.9415 N   0  0  0  0  0  0
  -24.6619  -31.0926   22.0991 N   0  0  0  0  0  0
  -23.4175  -28.8244   23.2996 O   0  0  0  0  0  0
  -28.3767  -26.7672   19.9352 O   0  0  0  0  0  0
  -26.5589  -34.8945   22.4689 O   0  0  0  0  0  0
  -23.5296  -32.1483   23.7546 O   0  0  0  0  0  0
  -27.6043  -21.2720   19.5420 C   0  0  0  0  0  0
  -27.7950  -21.6646   20.9070 C   0  0  0  0  0  0
  -27.5308  -19.9016   19.5353 C   0  0  0  0  0  0
  -28.1773  -20.5437   21.5869 C   0  0  0  0  0  0
  -29.7042  -17.7720   19.6279 C   0  0  0  0  0  0
  -28.3477  -17.0987   21.6286 C   0  0  0  0  0  0
  -26.5258  -23.2695   18.3089 C   0  0  0  0  0  0
  -29.0861  -22.7245   18.2094 C   0  0  0  0  0  0
  -30.7317  -16.7122   19.9827 C   0  0  0  0  0  0
  -29.4482  -16.0477   21.9411 C   0  0  0  0  0  0
  -26.8834  -24.4156   17.3440 C   0  0  0  0  0  0
  -29.2497  -23.9886   17.3610 C   0  0  0  0  0  0
  -27.6287  -22.1840   18.3278 C   0  0  1  0  0  0
  -29.0078  -18.2747   20.8941 C   0  0  0  0  0  0
  -27.7330  -23.0544   21.5015 C   0  0  0  0  0  0
  -28.6350  -20.4068   23.0103 C   0  0  0  0  0  0
  -27.7052  -18.8711   17.1645 C   0  0  0  0  0  0
  -25.4718  -19.2240   18.2843 C   0  0  0  0  0  0
  -30.5663  -26.7389   18.9872 C   0  0  0  0  0  0
  -28.4847  -26.3766   17.4880 C   0  0  0  0  0  0
  -26.9634  -18.9382   18.5152 C   0  0  0  0  0  0
  -29.0961  -27.0805   18.7332 C   0  0  1  0  0  0
  -28.2281  -19.4987   20.6762 N   0  0  0  0  0  0
  -30.1101  -15.5788   20.7037 N   0  0  0  0  0  0
  -28.2035  -24.9467   17.7662 N   0  3  1  0  0  0
  -31.4475  -12.3460   19.1014 H   0  0  0  0  0  0
  -30.2813  -11.2666   19.7994 H   0  0  0  0  0  0
  -29.7103  -11.7719   17.4085 H   0  0  0  0  0  0
  -29.6680  -13.4821   17.7578 H   0  0  0  0  0  0
  -27.7943  -11.3237   18.7857 H   0  0  0  0  0  0
  -27.3534  -12.6697   17.7718 H   0  0  0  0  0  0
  -27.7082  -14.2623   19.5894 H   0  0  0  0  0  0
  -28.6692  -11.9033   21.2663 H   0  0  0  0  0  0
  -28.4402  -13.4830   21.8817 H   0  0  0  0  0  0
  -25.2741   -9.5678   22.4768 H   0  0  0  0  0  0
  -23.9987   -7.4628   22.7476 H   0  0  0  0  0  0
  -21.0837   -8.8757   19.8950 H   0  0  0  0  0  0
  -22.3674  -10.9667   19.6177 H   0  0  0  0  0  0
  -21.2012   -7.6152   23.9717 H   0  0  0  0  0  0
  -21.1479   -6.0523   25.9073 H   0  0  0  0  0  0
  -22.0606   -2.7615   23.2838 H   0  0  0  0  0  0
  -22.4100  -11.9866   22.4786 H   0  0  0  0  0  0
  -21.1106  -13.1248   22.2644 H   0  0  0  0  0  0
  -24.6510  -15.8381   20.4987 H   0  0  0  0  0  0
  -26.2701  -15.6143   20.0627 H   0  0  0  0  0  0
  -26.7084  -32.5600   23.1210 H   0  0  0  0  0  0
  -24.9990  -33.9866   25.0451 H   0  0  0  0  0  0
  -22.6809  -31.3178   21.4155 H   0  0  0  0  0  0
  -23.3742  -35.9712   23.3306 H   0  0  0  0  0  0
  -24.3565  -36.8992   22.2041 H   0  0  0  0  0  0
  -23.7297  -37.6587   23.6664 H   0  0  0  0  0  0
  -26.0123  -31.6258   20.5756 H   0  0  0  0  0  0
  -26.8169  -30.9239   21.9573 H   0  0  0  0  0  0
  -28.1167  -29.1873   21.0675 H   0  0  0  0  0  0
  -25.9755  -25.9269   19.2457 H   0  0  0  0  0  0
  -23.9187  -27.2594   19.1866 H   0  0  0  0  0  0
  -23.7090  -30.6229   19.4123 H   0  0  0  0  0  0
  -22.7223  -29.2646   19.8724 H   0  0  0  0  0  0
  -25.1269  -36.1946   25.0821 H   0  0  0  0  0  0
  -20.9970  -28.3244   24.1417 H   0  0  0  0  0  0
  -20.5672  -26.2294   23.3595 H   0  0  0  0  0  0
  -21.6635  -26.7470   22.1190 H   0  0  0  0  0  0
  -19.6942  -25.6316   21.1237 H   0  0  0  0  0  0
  -19.6699  -27.3206   20.6720 H   0  0  0  0  0  0
  -17.4186  -26.6668   21.4024 H   0  0  0  0  0  0
  -18.0341  -26.0063   22.8999 H   0  0  0  0  0  0
  -19.7906  -30.7227   24.2378 H   0  0  0  0  0  0
  -17.5002  -31.6297   24.5125 H   0  0  0  0  0  0
  -15.5352  -30.3014   23.7661 H   0  0  0  0  0  0
  -15.8644  -28.0860   22.7084 H   0  0  0  0  0  0
  -24.5924  -30.7022   25.7804 H   0  0  0  0  0  0
  -24.8920  -32.2814   26.4968 H   0  0  0  0  0  0
  -25.8109  -30.8812   27.0207 H   0  0  0  0  0  0
  -26.2865  -29.6776   24.1198 H   0  0  0  0  0  0
  -27.4179  -29.7339   25.4517 H   0  0  0  0  0  0
  -27.8628  -30.4459   23.9181 H   0  0  0  0  0  0
  -27.2744  -33.3631   26.2110 H   0  0  0  0  0  0
  -28.3854  -32.6880   25.0281 H   0  0  0  0  0  0
  -28.0772  -31.8406   26.5351 H   0  0  0  0  0  0
  -28.2576  -38.0132   24.7482 H   0  0  0  0  0  0
  -28.1099  -36.2660   24.6294 H   0  0  0  0  0  0
  -27.2301  -37.1478   25.8860 H   0  0  0  0  0  0
  -20.9251  -29.8818   21.6991 H   0  0  0  0  0  0
  -26.0173  -38.2877   24.1397 H   0  0  0  0  0  0
  -29.0042  -17.3061   18.9406 H   0  0  0  0  0  0
  -30.1909  -18.5966   19.1062 H   0  0  0  0  0  0
  -27.8741  -17.4272   22.5528 H   0  0  0  0  0  0
  -27.5624  -16.6630   21.0157 H   0  0  0  0  0  0
  -25.5752  -22.8211   18.0201 H   0  0  0  0  0  0
  -26.3634  -23.6808   19.3025 H   0  0  0  0  0  0
  -29.4793  -22.9636   19.1963 H   0  0  0  0  0  0
  -29.7403  -21.9365   17.8350 H   0  0  0  0  0  0
  -31.5346  -17.1428   20.5852 H   0  0  0  0  0  0
  -31.1865  -16.3938   19.0410 H   0  0  0  0  0  0
  -29.0433  -15.2587   22.5630 H   0  0  0  0  0  0
  -30.2135  -16.5034   22.5728 H   0  0  0  0  0  0
  -26.1021  -25.1742   17.3296 H   0  0  0  0  0  0
  -26.9287  -24.0485   16.3170 H   0  0  0  0  0  0
  -29.1714  -23.7611   16.2962 H   0  0  0  0  0  0
  -30.2489  -24.3970   17.5061 H   0  0  0  0  0  0
  -27.4560  -21.5923   17.4355 H   0  0  0  0  0  0
  -29.8299  -18.5980   21.5337 H   0  0  0  0  0  0
  -28.1277  -23.8125   20.8287 H   0  0  0  0  0  0
  -28.3120  -23.1116   22.4224 H   0  0  0  0  0  0
  -26.7011  -23.3120   21.7408 H   0  0  0  0  0  0
  -28.1049  -21.1030   23.6601 H   0  0  0  0  0  0
  -29.7018  -20.6140   23.0957 H   0  0  0  0  0  0
  -28.4534  -19.4104   23.4091 H   0  0  0  0  0  0
  -28.7865  -18.8524   17.2806 H   0  0  0  0  0  0
  -27.4664  -19.7023   16.5049 H   0  0  0  0  0  0
  -27.4207  -17.9663   16.6268 H   0  0  0  0  0  0
  -24.9178  -19.1720   19.2227 H   0  0  0  0  0  0
  -25.0244  -18.4992   17.6033 H   0  0  0  0  0  0
  -25.3135  -20.2185   17.8664 H   0  0  0  0  0  0
  -31.1710  -26.9130   18.0982 H   0  0  0  0  0  0
  -30.6969  -25.7030   19.2954 H   0  0  0  0  0  0
  -30.9670  -27.3667   19.7838 H   0  0  0  0  0  0
  -29.1276  -26.4890   16.6153 H   0  0  0  0  0  0
  -27.5577  -26.8877   17.2298 H   0  0  0  0  0  0
  -26.9761  -17.9408   18.9518 H   0  0  0  0  0  0
  -29.0568  -28.1579   18.5548 H   0  0  0  0  0  0
  -28.1854  -24.9261   18.7771 H   0  0  0  0  0  0
  1 25  1  0  0  0
  1 30  2  0  0  0
  1 94  1  0  0  0
  2  3  1  0  0  0
  2 25  1  0  0  0
  2 96  1  0  0  0
  2 97  1  0  0  0
  3  4  1  0  0  0
  3 98  1  0  0  0
  3 99  1  0  0  0
  4  5  1  0  0  0
  4100  1  0  0  0
  4101  1  0  0  0
  5  6  1  0  0  0
  5 26  1  0  0  0
  5102  1  0  0  0
  6 25  1  0  0  0
  6103  1  0  0  0
  6104  1  0  0  0
  7  8  2  0  0  0
  7 26  1  0  0  0
  7 29  1  0  0  0
  8  9  1  0  0  0
  8 22  1  0  0  0
  9 10  1  0  0  0
  9 27  2  0  0  0
 10 11  2  0  0  0
 10 15  1  0  0  0
 11 12  1  0  0  0
 11105  1  0  0  0
 12 13  2  0  0  0
 12106  1  0  0  0
 13 14  1  0  0  0
 13 31  1  0  0  0
 14 15  2  0  0  0
 14107  1  0  0  0
 15108  1  0  0  0
 16 17  2  0  0  0
 16 21  1  0  0  0
 16 31  1  0  0  0
 17 18  1  0  0  0
 17109  1  0  0  0
 18 19  2  0  0  0
 18110  1  0  0  0
 19 20  1  0  0  0
 19 24  1  0  0  0
 20 21  2  0  0  0
 20111  1  0  0  0
 21 23  1  0  0  0
 22 28  1  0  0  0
 22 32  2  0  0  0
 26 27  1  0  0  0
 28112  1  0  0  0
 28113  1  0  0  0
 29114  1  0  0  0
 29115  1  0  0  0
 33 34  1  0  0  0
 33 66  1  0  0  0
 33 70  2  0  0  0
 34 36  1  0  0  0
 34 59  1  0  0  0
 34116  1  0  0  0
 35 44  2  0  0  0
 35 45  1  0  0  0
 35 68  1  0  0  0
 36 56  1  0  0  0
 36117  1  0  0  0
 37 39  1  0  0  0
 37 47  1  0  0  0
 37 66  1  0  0  0
 37118  1  0  0  0
 38 43  2  0  0  0
 38 46  1  0  0  0
 38 47  1  0  0  0
 39 64  1  0  0  0
 39 67  2  0  0  0
 40 52  1  0  0  0
 40 53  2  0  0  0
 40 58  1  0  0  0
 41119  1  0  0  0
 41120  1  0  0  0
 41121  1  0  0  0
 41 48  1  0  0  0
 42 43  1  0  0  0
 42 66  1  0  0  0
 42122  1  0  0  0
 42123  1  0  0  0
 43 44  1  0  0  0
 44124  1  0  0  0
 45 46  2  0  0  0
 45125  1  0  0  0
 46126  1  0  0  0
 47127  1  0  0  0
 47128  1  0  0  0
 48 56  1  0  0  0
 48 65  1  0  0  0
 48129  1  0  0  0
 49 50  1  0  0  0
 49 53  1  0  0  0
 49 64  1  0  0  0
 49130  1  0  0  0
 50 51  1  0  0  0
 50131  1  0  0  0
 50132  1  0  0  0
 51 52  1  0  0  0
 51133  1  0  0  0
 51134  1  0  0  0
 52135  1  0  0  0
 52136  1  0  0  0
 53 54  1  0  0  0
 54 55  2  0  0  0
 54137  1  0  0  0
 55 57  1  0  0  0
 55138  1  0  0  0
 56 69  2  0  0  0
 57 58  2  0  0  0
 57139  1  0  0  0
 58140  1  0  0  0
 59 60  1  0  0  0
 59 61  1  0  0  0
 59 62  1  0  0  0
 60141  1  0  0  0
 60142  1  0  0  0
 60143  1  0  0  0
 61144  1  0  0  0
 61145  1  0  0  0
 61146  1  0  0  0
 62147  1  0  0  0
 62148  1  0  0  0
 62149  1  0  0  0
 63 65  1  0  0  0
 63150  1  0  0  0
 63151  1  0  0  0
 63152  1  0  0  0
 64153  1  0  0  0
 65154  1  0  0  0
 68 92  1  0  0  0
 71 72  1  0  0  0
 71 73  2  0  0  0
 71 83  1  0  0  0
 72 74  2  0  0  0
 72 85  1  0  0  0
 73 91  1  0  0  0
 73 93  1  0  0  0
 74 86  1  0  0  0
 74 93  1  0  0  0
 75 79  1  0  0  0
 75 84  1  0  0  0
 75155  1  0  0  0
 75156  1  0  0  0
 76 80  1  0  0  0
 76 84  1  0  0  0
 76157  1  0  0  0
 76158  1  0  0  0
 77 81  1  0  0  0
 77 83  1  0  0  0
 77159  1  0  0  0
 77160  1  0  0  0
 78 82  1  0  0  0
 78 83  1  0  0  0
 78161  1  0  0  0
 78162  1  0  0  0
 79 94  1  0  0  0
 79163  1  0  0  0
 79164  1  0  0  0
 80 94  1  0  0  0
 80165  1  0  0  0
 80166  1  0  0  0
 81 95  1  0  0  0
 81167  1  0  0  0
 81168  1  0  0  0
 82 95  1  0  0  0
 82169  1  0  0  0
 82170  1  0  0  0
 83171  1  0  0  0
 84 93  1  0  0  0
 84172  1  0  0  0
 85173  1  0  0  0
 85174  1  0  0  0
 85175  1  0  0  0
 86176  1  0  0  0
 86177  1  0  0  0
 86178  1  0  0  0
 87179  1  0  0  0
 87180  1  0  0  0
 87181  1  0  0  0
 87 91  1  0  0  0
 88 91  1  0  0  0
 88182  1  0  0  0
 88183  1  0  0  0
 88184  1  0  0  0
 89185  1  0  0  0
 89186  1  0  0  0
 89187  1  0  0  0
 89 92  1  0  0  0
 90 92  1  0  0  0
 90188  1  0  0  0
 90189  1  0  0  0
 90 95  1  0  0  0
 91190  1  0  0  0
 92191  1  0  0  0
 95192  1  0  0  0
M  CHG  1  95   1
M  ISO  4   1 100  68 101  92 101  94 100
M  END
> <chiral flag>
0

> <version>
0

> <s_m_source_file>
/data/baiqing/PycharmProjects/Reinvent-master-3.2/result/LINK_invent/BTK/process_docking_weight1_custom_sum_contain_oxygen_bond_distance_aromatic_linkinvent_7_9_3/rearranged_h_0153.sdf

> <i_m_source_file_index>
71

> <r_mmod_Potential_Energy-OPLS-2005>
210.926177978516

> <r_mmod_Stretch_Energy-OPLS-2005>
39.8377990722656

> <r_mmod_Bend_Energy-OPLS-2005>
151.995162963867

> <r_mmod_Torsional_Energy-OPLS-2005>
497.619354248047

> <r_mmod_Improper_Torsional_Energy-OPLS-2005>
19.7182312011719

> <r_mmod_Van_der_Waal_Energy-OPLS-2005>
145.847427368164

> <r_mmod_Electrostatic_Energy-OPLS-2005>
-295.593933105469

> <r_mmod_Solvation_Energy-OPLS-2005>
-371.034759521484

> <b_mmod_Minimization_Converged-OPLS-2005>
0

> <r_mmod_RMS_Derivative-OPLS-2005>
2.31270837783813

$$$$
71
                    3D
 Structure written by MMmdl.
161169  0  0  1  0            999 V2000
  -30.6106  -14.7299   20.4736 C   0  0  0  0  0  0
  -30.4358  -12.4492   19.4655 C   0  0  0  0  0  0
  -29.5095  -12.5059   18.2310 C   0  0  0  0  0  0
  -28.0356  -12.3312   18.6467 C   0  0  0  0  0  0
  -27.6433  -13.2279   19.8506 C   0  0  2  0  0  0
  -28.6885  -13.1517   20.9838 C   0  0  0  0  0  0
  -25.2529  -13.8196   20.5708 C   0  0  0  0  0  0
  -24.1817  -13.0433   20.9215 C   0  0  0  0  0  0
  -24.6406  -11.6915   20.8748 C   0  0  0  0  0  0
  -23.9074  -10.4294   21.0413 C   0  0  0  0  0  0
  -24.3625   -9.4209   21.9187 C   0  0  0  0  0  0
  -23.6296   -8.2247   22.0761 C   0  0  0  0  0  0
  -22.4278   -8.0288   21.3552 C   0  0  0  0  0  0
  -21.9917   -9.0259   20.4648 C   0  0  0  0  0  0
  -22.7248  -10.2138   20.3057 C   0  0  0  0  0  0
  -21.6853   -6.0744   22.5279 C   0  0  0  0  0  0
  -21.4017   -6.5648   23.8212 C   0  0  0  0  0  0
  -21.3653   -5.6799   24.9171 C   0  0  0  0  0  0
  -21.6042   -4.3062   24.7221 C   0  0  0  0  0  0
  -21.8816   -3.8156   23.4340 C   0  0  0  0  0  0
  -21.9193   -4.6974   22.3398 C   0  0  0  0  0  0
  -22.7835  -13.5224   21.1853 C   0  0  0  0  0  0
  -22.1662   -4.2164   21.0974 F   0  0  0  0  0  0
  -21.5620   -3.4537   25.7729 F   0  0  0  0  0  0
  -29.9879  -13.5054   20.4008 N   0  0  0  0  0  0
  -26.2948  -12.9394   20.3277 N   0  0  0  0  0  0
  -25.9336  -11.6539   20.5751 N   0  0  0  0  0  0
  -22.0467  -12.8223   22.0411 N   0  0  0  0  0  0
  -25.4196  -15.1924   20.4150 N   0  0  0  0  0  0
  -31.8004  -14.8376   20.1651 O   0  0  0  0  0  0
  -21.6640   -6.8888   21.4245 O   0  0  0  0  0  0
  -22.3524  -14.5526   20.6692 O   0  0  0  0  0  0
  -24.6296  -31.8563   23.1991 C   0  0  0  0  0  0
  -25.9127  -32.4761   23.8339 C   0  0  1  0  0  0
  -27.2200  -27.2716   20.1375 C   0  0  0  0  0  0
  -25.5927  -33.8562   24.2256 N   0  0  0  0  0  0
  -23.4269  -30.4778   21.5441 C   0  0  2  0  0  0
  -24.8757  -28.9246   20.1141 C   0  0  0  0  0  0
  -22.7496  -29.4593   22.4933 C   0  0  0  0  0  0
  -18.0289  -28.1371   22.8479 C   0  0  0  0  0  0
  -24.1498  -36.7286   23.2639 C   0  0  0  0  0  0
  -25.9717  -30.7741   21.3780 C   0  0  0  0  0  0
  -26.0471  -29.3971   20.7202 C   0  0  0  0  0  0
  -27.2270  -28.5851   20.7153 C   0  0  0  0  0  0
  -26.0261  -26.8622   19.5083 C   0  0  0  0  0  0
  -24.8699  -27.6651   19.4951 C   0  0  0  0  0  0
  -23.6456  -29.8100   20.1609 C   0  0  0  0  0  0
  -25.4125  -36.3069   24.0326 C   0  0  1  0  0  0
  -20.5890  -28.3690   23.1276 C   0  0  2  0  0  0
  -20.6775  -26.9412   22.5409 C   0  0  0  0  0  0
  -19.5753  -26.6378   21.5209 C   0  0  0  0  0  0
  -18.1936  -26.7916   22.1620 C   0  0  0  0  0  0
  -19.1541  -28.8849   23.2864 C   0  0  0  0  0  0
  -18.9463  -30.1446   23.8889 C   0  0  0  0  0  0
  -17.6465  -30.6577   24.0559 C   0  0  0  0  0  0
  -25.9056  -34.9440   23.5090 C   0  0  0  0  0  0
  -16.5353  -29.9074   23.6332 C   0  0  0  0  0  0
  -16.7277  -28.6488   23.0356 C   0  0  0  0  0  0
  -26.4497  -31.6574   25.0725 C   0  0  0  0  0  0
  -25.3711  -31.3712   26.1434 C   0  0  0  0  0  0
  -27.0356  -30.2997   24.6202 C   0  0  0  0  0  0
  -27.6055  -32.4316   25.7492 C   0  0  0  0  0  0
  -27.5588  -37.1785   24.8456 C   0  0  0  0  0  0
  -21.4206  -29.3035   22.3676 N   0  0  0  0  0  0
  -26.4297  -37.3771   23.9407 N   0  0  0  0  0  0
  -24.6949  -31.0530   22.0976 N   0  0  0  0  0  0
  -23.4203  -28.8139   23.3027 O   0  0  0  0  0  0
  -28.3085  -26.3727   20.1484 O   0  0  0  0  0  0
  -26.5641  -34.8922   22.4669 O   0  0  0  0  0  0
  -23.5443  -32.1389   23.7278 O   0  0  0  0  0  0
  -29.4344  -21.2651   18.7719 C   0  0  0  0  0  0
  -28.6287  -23.6504   20.0468 C   0  0  0  0  0  0
  -29.1709  -21.1495   20.1536 C   0  0  0  0  0  0
  -28.7324  -22.3951   20.7751 C   0  0  0  0  0  0
  -28.9366  -23.5581   18.6696 C   0  0  0  0  0  0
  -28.8319  -24.7494   17.7389 C   0  0  0  0  0  0
  -25.9501  -22.2051   21.8478 C   0  0  0  0  0  0
  -28.0777  -24.9985   20.7125 C   0  0  0  0  0  0
  -29.2398  -18.4868   20.2940 C   0  0  0  0  0  0
  -30.2461  -17.3217   20.7967 C   0  0  0  0  0  0
  -27.2426  -21.6738   22.4891 C   0  0  0  0  0  0
  -29.3225  -22.4110   18.0632 N   0  0  0  0  0  0
  -29.4043  -19.8921   20.8494 N   0  0  0  0  0  0
  -29.8342  -15.8542   20.7023 N   0  0  0  0  0  0
  -28.3971  -22.4235   22.1087 O   0  0  0  0  0  0
  -31.4759  -12.5810   19.1618 H   0  0  0  0  0  0
  -30.3852  -11.4697   19.9430 H   0  0  0  0  0  0
  -29.7887  -11.7354   17.5112 H   0  0  0  0  0  0
  -29.6367  -13.4612   17.7196 H   0  0  0  0  0  0
  -27.8910  -11.2826   18.9080 H   0  0  0  0  0  0
  -27.3774  -12.5255   17.7995 H   0  0  0  0  0  0
  -27.6407  -14.2501   19.4729 H   0  0  0  0  0  0
  -28.7248  -12.1512   21.4159 H   0  0  0  0  0  0
  -28.4285  -13.8274   21.8002 H   0  0  0  0  0  0
  -25.2762   -9.5689   22.4769 H   0  0  0  0  0  0
  -23.9993   -7.4646   22.7498 H   0  0  0  0  0  0
  -21.0835   -8.8783   19.8964 H   0  0  0  0  0  0
  -22.3698  -10.9681   19.6173 H   0  0  0  0  0  0
  -21.2019   -7.6157   23.9722 H   0  0  0  0  0  0
  -21.1474   -6.0525   25.9075 H   0  0  0  0  0  0
  -22.0604   -2.7620   23.2830 H   0  0  0  0  0  0
  -22.4064  -11.9875   22.4794 H   0  0  0  0  0  0
  -21.1090  -13.1275   22.2613 H   0  0  0  0  0  0
  -24.6461  -15.8391   20.5266 H   0  0  0  0  0  0
  -26.2586  -15.6380   20.0665 H   0  0  0  0  0  0
  -26.7199  -32.5428   23.1087 H   0  0  0  0  0  0
  -25.0019  -33.9698   25.0366 H   0  0  0  0  0  0
  -22.7204  -31.2977   21.3983 H   0  0  0  0  0  0
  -23.3766  -35.9607   23.3282 H   0  0  0  0  0  0
  -24.3569  -36.8935   22.2051 H   0  0  0  0  0  0
  -23.7247  -37.6479   23.6687 H   0  0  0  0  0  0
  -26.1046  -31.5366   20.6093 H   0  0  0  0  0  0
  -26.8492  -30.8245   22.0113 H   0  0  0  0  0  0
  -28.1278  -28.9423   21.1941 H   0  0  0  0  0  0
  -25.9734  -25.8928   19.0349 H   0  0  0  0  0  0
  -23.9727  -27.2969   19.0171 H   0  0  0  0  0  0
  -23.7687  -30.5840   19.4033 H   0  0  0  0  0  0
  -22.7643  -29.2401   19.8606 H   0  0  0  0  0  0
  -25.1302  -36.1911   25.0817 H   0  0  0  0  0  0
  -20.9959  -28.3260   24.1404 H   0  0  0  0  0  0
  -20.5667  -26.2295   23.3607 H   0  0  0  0  0  0
  -21.6650  -26.7430   22.1210 H   0  0  0  0  0  0
  -19.6919  -25.6286   21.1240 H   0  0  0  0  0  0
  -19.6700  -27.3179   20.6732 H   0  0  0  0  0  0
  -17.4211  -26.6663   21.4021 H   0  0  0  0  0  0
  -18.0337  -26.0056   22.9006 H   0  0  0  0  0  0
  -19.7945  -30.7258   24.2255 H   0  0  0  0  0  0
  -17.5032  -31.6263   24.5156 H   0  0  0  0  0  0
  -15.5353  -30.2983   23.7663 H   0  0  0  0  0  0
  -15.8672  -28.0807   22.7080 H   0  0  0  0  0  0
  -24.5914  -30.7038   25.7736 H   0  0  0  0  0  0
  -24.8880  -32.2878   26.4825 H   0  0  0  0  0  0
  -25.8033  -30.8905   27.0219 H   0  0  0  0  0  0
  -26.2950  -29.6720   24.1238 H   0  0  0  0  0  0
  -27.4050  -29.7275   25.4716 H   0  0  0  0  0  0
  -27.8813  -30.4271   23.9447 H   0  0  0  0  0  0
  -27.2685  -33.3639   26.2029 H   0  0  0  0  0  0
  -28.3888  -32.6819   25.0329 H   0  0  0  0  0  0
  -28.0703  -31.8465   26.5436 H   0  0  0  0  0  0
  -28.2568  -38.0117   24.7539 H   0  0  0  0  0  0
  -28.1125  -36.2643   24.6247 H   0  0  0  0  0  0
  -27.2299  -37.1385   25.8855 H   0  0  0  0  0  0
  -20.9393  -29.8758   21.6877 H   0  0  0  0  0  0
  -26.0172  -38.2832   24.1440 H   0  0  0  0  0  0
  -29.7827  -20.4128   18.2061 H   0  0  0  0  0  0
  -27.8406  -25.1936   17.7940 H   0  0  0  0  0  0
  -29.0037  -24.4644   16.7003 H   0  0  0  0  0  0
  -29.5677  -25.5083   18.0031 H   0  0  0  0  0  0
  -25.0824  -21.6704   22.2340 H   0  0  0  0  0  0
  -25.9561  -22.0750   20.7652 H   0  0  0  0  0  0
  -25.8047  -23.2631   22.0633 H   0  0  0  0  0  0
  -28.4962  -25.0322   21.7186 H   0  0  0  0  0  0
  -27.0116  -24.8423   20.8723 H   0  0  0  0  0  0
  -28.2281  -18.1826   20.5680 H   0  0  0  0  0  0
  -29.2416  -18.5072   19.2040 H   0  0  0  0  0  0
  -30.4618  -17.4916   21.8516 H   0  0  0  0  0  0
  -31.2024  -17.4480   20.2856 H   0  0  0  0  0  0
  -27.3552  -20.6122   22.2771 H   0  0  0  0  0  0
  -27.1544  -21.7507   23.5726 H   0  0  0  0  0  0
  -29.3333  -19.9563   21.8622 H   0  0  0  0  0  0
  -28.8602  -15.6663   20.8854 H   0  0  0  0  0  0
  1 25  1  0  0  0
  1 30  2  0  0  0
  1 84  1  0  0  0
  2  3  1  0  0  0
  2 25  1  0  0  0
  2 86  1  0  0  0
  2 87  1  0  0  0
  3  4  1  0  0  0
  3 88  1  0  0  0
  3 89  1  0  0  0
  4  5  1  0  0  0
  4 90  1  0  0  0
  4 91  1  0  0  0
  5  6  1  0  0  0
  5 26  1  0  0  0
  5 92  1  0  0  0
  6 25  1  0  0  0
  6 93  1  0  0  0
  6 94  1  0  0  0
  7  8  2  0  0  0
  7 26  1  0  0  0
  7 29  1  0  0  0
  8  9  1  0  0  0
  8 22  1  0  0  0
  9 10  1  0  0  0
  9 27  2  0  0  0
 10 11  2  0  0  0
 10 15  1  0  0  0
 11 12  1  0  0  0
 11 95  1  0  0  0
 12 13  2  0  0  0
 12 96  1  0  0  0
 13 14  1  0  0  0
 13 31  1  0  0  0
 14 15  2  0  0  0
 14 97  1  0  0  0
 15 98  1  0  0  0
 16 17  2  0  0  0
 16 21  1  0  0  0
 16 31  1  0  0  0
 17 18  1  0  0  0
 17 99  1  0  0  0
 18 19  2  0  0  0
 18100  1  0  0  0
 19 20  1  0  0  0
 19 24  1  0  0  0
 20 21  2  0  0  0
 20101  1  0  0  0
 21 23  1  0  0  0
 22 28  1  0  0  0
 22 32  2  0  0  0
 26 27  1  0  0  0
 28102  1  0  0  0
 28103  1  0  0  0
 29104  1  0  0  0
 29105  1  0  0  0
 33 34  1  0  0  0
 33 66  1  0  0  0
 33 70  2  0  0  0
 34 36  1  0  0  0
 34 59  1  0  0  0
 34106  1  0  0  0
 35 44  2  0  0  0
 35 45  1  0  0  0
 35 68  1  0  0  0
 36 56  1  0  0  0
 36107  1  0  0  0
 37 39  1  0  0  0
 37 47  1  0  0  0
 37 66  1  0  0  0
 37108  1  0  0  0
 38 43  2  0  0  0
 38 46  1  0  0  0
 38 47  1  0  0  0
 39 64  1  0  0  0
 39 67  2  0  0  0
 40 52  1  0  0  0
 40 53  2  0  0  0
 40 58  1  0  0  0
 41109  1  0  0  0
 41110  1  0  0  0
 41111  1  0  0  0
 41 48  1  0  0  0
 42 43  1  0  0  0
 42 66  1  0  0  0
 42112  1  0  0  0
 42113  1  0  0  0
 43 44  1  0  0  0
 44114  1  0  0  0
 45 46  2  0  0  0
 45115  1  0  0  0
 46116  1  0  0  0
 47117  1  0  0  0
 47118  1  0  0  0
 48 56  1  0  0  0
 48 65  1  0  0  0
 48119  1  0  0  0
 49 50  1  0  0  0
 49 53  1  0  0  0
 49 64  1  0  0  0
 49120  1  0  0  0
 50 51  1  0  0  0
 50121  1  0  0  0
 50122  1  0  0  0
 51 52  1  0  0  0
 51123  1  0  0  0
 51124  1  0  0  0
 52125  1  0  0  0
 52126  1  0  0  0
 53 54  1  0  0  0
 54 55  2  0  0  0
 54127  1  0  0  0
 55 57  1  0  0  0
 55128  1  0  0  0
 56 69  2  0  0  0
 57 58  2  0  0  0
 57129  1  0  0  0
 58130  1  0  0  0
 59 60  1  0  0  0
 59 61  1  0  0  0
 59 62  1  0  0  0
 60131  1  0  0  0
 60132  1  0  0  0
 60133  1  0  0  0
 61134  1  0  0  0
 61135  1  0  0  0
 61136  1  0  0  0
 62137  1  0  0  0
 62138  1  0  0  0
 62139  1  0  0  0
 63 65  1  0  0  0
 63140  1  0  0  0
 63141  1  0  0  0
 63142  1  0  0  0
 64143  1  0  0  0
 65144  1  0  0  0
 68 78  1  0  0  0
 71 73  2  0  0  0
 71 82  1  0  0  0
 71145  1  0  0  0
 72 74  2  0  0  0
 72 75  1  0  0  0
 72 78  1  0  0  0
 73 74  1  0  0  0
 73 83  1  0  0  0
 74 85  1  0  0  0
 75 76  1  0  0  0
 75 82  2  0  0  0
 76146  1  0  0  0
 76147  1  0  0  0
 76148  1  0  0  0
 77 81  1  0  0  0
 77149  1  0  0  0
 77150  1  0  0  0
 77151  1  0  0  0
 78152  1  0  0  0
 78153  1  0  0  0
 79 80  1  0  0  0
 79 83  1  0  0  0
 79154  1  0  0  0
 79155  1  0  0  0
 80 84  1  0  0  0
 80156  1  0  0  0
 80157  1  0  0  0
 81 85  1  0  0  0
 81158  1  0  0  0
 81159  1  0  0  0
 83160  1  0  0  0
 84161  1  0  0  0
M  ISO  4   1 100  68 101  78 101  84 100
M  END
> <chiral flag>
0

> <version>
0

> <s_m_source_file>
/data/baiqing/PycharmProjects/Reinvent-master-3.2/result/LINK_invent/BTK/process_docking_weight1_custom_sum_contain_oxygen_bond_distance_aromatic_linkinvent_7_9_3/rearranged_h_0153.sdf

> <i_m_source_file_index>
72

> <r_mmod_Potential_Energy-OPLS-2005>
41.0100860595703

> <r_mmod_Stretch_Energy-OPLS-2005>
118.196044921875

> <r_mmod_Bend_Energy-OPLS-2005>
169.560836791992

> <r_mmod_Torsional_Energy-OPLS-2005>
249.410675048828

> <r_mmod_Improper_Torsional_Energy-OPLS-2005>
6.10482978820801

> <r_mmod_Van_der_Waal_Energy-OPLS-2005>
137.637588500977

> <r_mmod_Electrostatic_Energy-OPLS-2005>
-487.864898681641

> <r_mmod_Solvation_Energy-OPLS-2005>
-231.394317626953

> <b_mmod_Minimization_Converged-OPLS-2005>
0

> <r_mmod_RMS_Derivative-OPLS-2005>
1.88387751579285

$$$$
73
                    3D
 Structure written by MMmdl.
176186  0  0  1  0            999 V2000
  -30.8501  -14.2344   20.7468 C   0  0  0  0  0  0
  -30.3971  -12.2552   19.3693 C   0  0  0  0  0  0
  -29.4682  -12.5321   18.1782 C   0  0  0  0  0  0
  -27.9975  -12.3865   18.6025 C   0  0  0  0  0  0
  -27.6666  -13.2034   19.8779 C   0  0  2  0  0  0
  -28.7028  -12.9434   20.9937 C   0  0  0  0  0  0
  -25.2608  -13.8173   20.5677 C   0  0  0  0  0  0
  -24.1849  -13.0456   20.9157 C   0  0  0  0  0  0
  -24.6390  -11.6916   20.8718 C   0  0  0  0  0  0
  -23.9052  -10.4304   21.0398 C   0  0  0  0  0  0
  -24.3605   -9.4222   21.9181 C   0  0  0  0  0  0
  -23.6283   -8.2257   22.0757 C   0  0  0  0  0  0
  -22.4268   -8.0288   21.3544 C   0  0  0  0  0  0
  -21.9900   -9.0260   20.4647 C   0  0  0  0  0  0
  -22.7222  -10.2142   20.3052 C   0  0  0  0  0  0
  -21.6855   -6.0734   22.5274 C   0  0  0  0  0  0
  -21.4014   -6.5636   23.8206 C   0  0  0  0  0  0
  -21.3661   -5.6790   24.9167 C   0  0  0  0  0  0
  -21.6045   -4.3052   24.7219 C   0  0  0  0  0  0
  -21.8820   -3.8143   23.4339 C   0  0  0  0  0  0
  -21.9194   -4.6961   22.3395 C   0  0  0  0  0  0
  -22.7872  -13.5256   21.1824 C   0  0  0  0  0  0
  -22.1662   -4.2146   21.0974 F   0  0  0  0  0  0
  -21.5630   -3.4538   25.7734 F   0  0  0  0  0  0
  -30.0570  -13.1782   20.4590 N   0  0  0  0  0  0
  -26.3050  -12.9341   20.3378 N   0  0  0  0  0  0
  -25.9316  -11.6500   20.5747 N   0  0  0  0  0  0
  -22.0503  -12.8254   22.0377 N   0  0  0  0  0  0
  -25.4364  -15.1888   20.4093 N   0  0  0  0  0  0
  -31.7906  -14.5887   20.0292 O   0  0  0  0  0  0
  -21.6639   -6.8880   21.4237 O   0  0  0  0  0  0
  -22.3559  -14.5562   20.6670 O   0  0  0  0  0  0
  -24.6066  -31.8715   23.2143 C   0  0  0  0  0  0
  -25.8992  -32.4839   23.8413 C   0  0  1  0  0  0
  -27.2375  -27.4990   20.0784 C   0  0  0  0  0  0
  -25.5883  -33.8643   24.2347 N   0  0  0  0  0  0
  -23.3893  -30.4945   21.5536 C   0  0  2  0  0  0
  -24.8326  -28.9617   20.1189 C   0  0  0  0  0  0
  -22.7348  -29.4676   22.5031 C   0  0  0  0  0  0
  -18.0258  -28.1364   22.8509 C   0  0  0  0  0  0
  -24.1487  -36.7329   23.2638 C   0  0  0  0  0  0
  -25.9097  -30.8545   21.3562 C   0  0  0  0  0  0
  -25.9862  -29.4924   20.7070 C   0  0  0  0  0  0
  -27.1884  -28.7656   20.6852 C   0  0  0  0  0  0
  -26.0682  -26.9616   19.4917 C   0  0  0  0  0  0
  -24.8638  -27.6911   19.5148 C   0  0  0  0  0  0
  -23.5922  -29.8216   20.1689 C   0  0  0  0  0  0
  -25.4109  -36.3132   24.0340 C   0  0  1  0  0  0
  -20.5837  -28.3644   23.1350 C   0  0  2  0  0  0
  -20.6749  -26.9393   22.5432 C   0  0  0  0  0  0
  -19.5732  -26.6387   21.5220 C   0  0  0  0  0  0
  -18.1906  -26.7919   22.1625 C   0  0  0  0  0  0
  -19.1505  -28.8818   23.2925 C   0  0  0  0  0  0
  -18.9442  -30.1428   23.8927 C   0  0  0  0  0  0
  -17.6449  -30.6579   24.0569 C   0  0  0  0  0  0
  -25.9028  -34.9492   23.5143 C   0  0  0  0  0  0
  -16.5338  -29.9088   23.6321 C   0  0  0  0  0  0
  -16.7250  -28.6497   23.0357 C   0  0  0  0  0  0
  -26.4455  -31.6598   25.0715 C   0  0  0  0  0  0
  -25.3756  -31.3663   26.1489 C   0  0  0  0  0  0
  -27.0290  -30.3061   24.6035 C   0  0  0  0  0  0
  -27.6046  -32.4305   25.7465 C   0  0  0  0  0  0
  -27.5584  -37.1819   24.8466 C   0  0  0  0  0  0
  -21.4089  -29.3022   22.3763 N   0  0  0  0  0  0
  -26.4300  -37.3814   23.9413 N   0  0  0  0  0  0
  -24.6535  -31.0867   22.1009 N   0  0  0  0  0  0
  -23.4153  -28.8221   23.3047 O   0  0  0  0  0  0
  -28.4570  -26.8777   20.0601 O   0  0  0  0  0  0
  -26.5586  -34.8931   22.4701 O   0  0  0  0  0  0
  -23.5283  -32.1443   23.7584 O   0  0  0  0  0  0
  -29.4320  -20.7234   19.8221 C   0  0  0  0  0  0
  -31.8201  -21.1706   20.0101 C   0  0  0  0  0  0
  -30.5066  -21.6327   19.8151 C   0  0  0  0  0  0
  -29.6550  -19.3564   20.0476 C   0  0  0  0  0  0
  -32.0626  -19.8084   20.2599 C   0  0  0  0  0  0
  -30.9748  -18.8988   20.2918 C   0  0  0  0  0  0
  -29.7975  -23.6074   21.1214 C   0  0  0  0  0  0
  -29.2399  -23.5098   18.6308 C   0  0  0  0  0  0
  -29.5370  -25.1099   21.1191 C   0  0  0  0  0  0
  -28.9721  -25.0179   18.6460 C   0  0  0  0  0  0
  -31.7778  -15.5681   24.0453 C   0  0  0  0  0  0
  -32.8604  -15.4888   22.9925 C   0  0  0  0  0  0
  -30.2488  -23.1196   19.7341 C   0  0  2  0  0  0
  -28.5120  -25.4704   20.0406 C   0  0  2  0  0  0
  -31.4321  -15.7843   22.5888 C   0  0  0  0  0  0
  -28.4507  -18.4240   20.0573 C   0  0  0  0  0  0
  -33.4921  -19.3603   20.5254 C   0  0  0  0  0  0
  -31.2132  -17.4465   20.6389 C   0  0  0  0  0  0
  -31.0184  -17.1794   22.1423 C   0  0  0  0  0  0
  -30.6484  -14.7618   21.9612 N   0  0  0  0  0  0
  -31.4410  -12.3357   19.0601 H   0  0  0  0  0  0
  -30.2724  -11.2278   19.7146 H   0  0  0  0  0  0
  -29.6901  -11.8457   17.3600 H   0  0  0  0  0  0
  -29.6466  -13.5376   17.7931 H   0  0  0  0  0  0
  -27.8026  -11.3276   18.7766 H   0  0  0  0  0  0
  -27.3399  -12.6855   17.7853 H   0  0  0  0  0  0
  -27.7288  -14.2584   19.6097 H   0  0  0  0  0  0
  -28.6373  -11.9110   21.3399 H   0  0  0  0  0  0
  -28.4614  -13.5632   21.8576 H   0  0  0  0  0  0
  -25.2756   -9.5700   22.4747 H   0  0  0  0  0  0
  -23.9992   -7.4656   22.7486 H   0  0  0  0  0  0
  -21.0829   -8.8775   19.8961 H   0  0  0  0  0  0
  -22.3679  -10.9676   19.6156 H   0  0  0  0  0  0
  -21.2003   -7.6145   23.9703 H   0  0  0  0  0  0
  -21.1484   -6.0522   25.9070 H   0  0  0  0  0  0
  -22.0597   -2.7606   23.2838 H   0  0  0  0  0  0
  -22.4111  -11.9909   22.4762 H   0  0  0  0  0  0
  -21.1124  -13.1295   22.2579 H   0  0  0  0  0  0
  -24.6769  -15.8509   20.5222 H   0  0  0  0  0  0
  -26.2993  -15.6232   20.1076 H   0  0  0  0  0  0
  -26.7057  -32.5571   23.1179 H   0  0  0  0  0  0
  -25.0062  -33.9822   25.0509 H   0  0  0  0  0  0
  -22.6758  -31.3095   21.4154 H   0  0  0  0  0  0
  -23.3752  -35.9660   23.3322 H   0  0  0  0  0  0
  -24.3571  -36.8927   22.2047 H   0  0  0  0  0  0
  -23.7239  -37.6542   23.6634 H   0  0  0  0  0  0
  -26.0101  -31.6204   20.5857 H   0  0  0  0  0  0
  -26.8029  -30.9110   21.9670 H   0  0  0  0  0  0
  -28.0846  -29.1770   21.1281 H   0  0  0  0  0  0
  -26.0796  -26.0007   18.9973 H   0  0  0  0  0  0
  -23.9748  -27.2761   19.0595 H   0  0  0  0  0  0
  -23.6941  -30.5930   19.4048 H   0  0  0  0  0  0
  -22.7181  -29.2354   19.8786 H   0  0  0  0  0  0
  -25.1282  -36.2010   25.0832 H   0  0  0  0  0  0
  -20.9923  -28.3209   24.1472 H   0  0  0  0  0  0
  -20.5665  -26.2252   23.3610 H   0  0  0  0  0  0
  -21.6621  -26.7455   22.1219 H   0  0  0  0  0  0
  -19.6900  -25.6309   21.1218 H   0  0  0  0  0  0
  -19.6666  -27.3222   20.6770 H   0  0  0  0  0  0
  -17.4182  -26.6690   21.4013 H   0  0  0  0  0  0
  -18.0291  -26.0041   22.8996 H   0  0  0  0  0  0
  -19.7922  -30.7231   24.2306 H   0  0  0  0  0  0
  -17.5011  -31.6262   24.5171 H   0  0  0  0  0  0
  -15.5342  -30.3006   23.7623 H   0  0  0  0  0  0
  -15.8649  -28.0819   22.7071 H   0  0  0  0  0  0
  -24.5928  -30.7003   25.7836 H   0  0  0  0  0  0
  -24.8943  -32.2800   26.4983 H   0  0  0  0  0  0
  -25.8151  -30.8809   27.0214 H   0  0  0  0  0  0
  -26.2809  -29.6809   24.1147 H   0  0  0  0  0  0
  -27.4166  -29.7295   25.4446 H   0  0  0  0  0  0
  -27.8587  -30.4421   23.9095 H   0  0  0  0  0  0
  -27.2678  -33.3587   26.2092 H   0  0  0  0  0  0
  -28.3824  -32.6895   25.0268 H   0  0  0  0  0  0
  -28.0750  -31.8399   26.5339 H   0  0  0  0  0  0
  -28.2612  -38.0106   24.7519 H   0  0  0  0  0  0
  -28.1071  -36.2642   24.6292 H   0  0  0  0  0  0
  -27.2295  -37.1472   25.8865 H   0  0  0  0  0  0
  -20.9232  -29.8742   21.6994 H   0  0  0  0  0  0
  -26.0196  -38.2894   24.1425 H   0  0  0  0  0  0
  -28.4179  -21.0747   19.7013 H   0  0  0  0  0  0
  -32.6412  -21.8745   20.0198 H   0  0  0  0  0  0
  -28.8916  -23.0823   21.4289 H   0  0  0  0  0  0
  -30.5585  -23.3701   21.8664 H   0  0  0  0  0  0
  -29.6169  -23.2074   17.6532 H   0  0  0  0  0  0
  -28.2871  -23.0007   18.7673 H   0  0  0  0  0  0
  -30.4719  -25.6434   20.9422 H   0  0  0  0  0  0
  -29.1778  -25.4277   22.0985 H   0  0  0  0  0  0
  -28.2204  -25.2730   17.8984 H   0  0  0  0  0  0
  -29.8827  -25.5492   18.3659 H   0  0  0  0  0  0
  -31.7897  -16.4348   24.7041 H   0  0  0  0  0  0
  -31.4776  -14.6340   24.5167 H   0  0  0  0  0  0
  -33.2653  -14.5063   22.7558 H   0  0  0  0  0  0
  -33.5774  -16.3071   22.9481 H   0  0  0  0  0  0
  -31.1945  -23.6107   19.4954 H   0  0  0  0  0  0
  -27.5650  -24.9998   20.3080 H   0  0  0  0  0  0
  -27.5329  -18.9593   19.8114 H   0  0  0  0  0  0
  -28.3069  -17.9758   21.0393 H   0  0  0  0  0  0
  -28.5626  -17.6278   19.3215 H   0  0  0  0  0  0
  -34.1751  -20.2080   20.5858 H   0  0  0  0  0  0
  -33.8441  -18.7087   19.7256 H   0  0  0  0  0  0
  -33.5621  -18.8177   21.4686 H   0  0  0  0  0  0
  -32.2110  -17.1386   20.3301 H   0  0  0  0  0  0
  -30.5359  -16.8408   20.0426 H   0  0  0  0  0  0
  -31.6087  -17.9035   22.7055 H   0  0  0  0  0  0
  -29.9832  -17.3522   22.4352 H   0  0  0  0  0  0
  -29.8898  -14.3658   22.4968 H   0  0  0  0  0  0
  1 25  1  0  0  0
  1 30  2  0  0  0
  1 90  1  0  0  0
  2  3  1  0  0  0
  2 25  1  0  0  0
  2 91  1  0  0  0
  2 92  1  0  0  0
  3  4  1  0  0  0
  3 93  1  0  0  0
  3 94  1  0  0  0
  4  5  1  0  0  0
  4 95  1  0  0  0
  4 96  1  0  0  0
  5  6  1  0  0  0
  5 26  1  0  0  0
  5 97  1  0  0  0
  6 25  1  0  0  0
  6 98  1  0  0  0
  6 99  1  0  0  0
  7  8  2  0  0  0
  7 26  1  0  0  0
  7 29  1  0  0  0
  8  9  1  0  0  0
  8 22  1  0  0  0
  9 10  1  0  0  0
  9 27  2  0  0  0
 10 11  2  0  0  0
 10 15  1  0  0  0
 11 12  1  0  0  0
 11100  1  0  0  0
 12 13  2  0  0  0
 12101  1  0  0  0
 13 14  1  0  0  0
 13 31  1  0  0  0
 14 15  2  0  0  0
 14102  1  0  0  0
 15103  1  0  0  0
 16 17  2  0  0  0
 16 21  1  0  0  0
 16 31  1  0  0  0
 17 18  1  0  0  0
 17104  1  0  0  0
 18 19  2  0  0  0
 18105  1  0  0  0
 19 20  1  0  0  0
 19 24  1  0  0  0
 20 21  2  0  0  0
 20106  1  0  0  0
 21 23  1  0  0  0
 22 28  1  0  0  0
 22 32  2  0  0  0
 26 27  1  0  0  0
 28107  1  0  0  0
 28108  1  0  0  0
 29109  1  0  0  0
 29110  1  0  0  0
 33 34  1  0  0  0
 33 66  1  0  0  0
 33 70  2  0  0  0
 34 36  1  0  0  0
 34 59  1  0  0  0
 34111  1  0  0  0
 35 44  2  0  0  0
 35 45  1  0  0  0
 35 68  1  0  0  0
 36 56  1  0  0  0
 36112  1  0  0  0
 37 39  1  0  0  0
 37 47  1  0  0  0
 37 66  1  0  0  0
 37113  1  0  0  0
 38 43  2  0  0  0
 38 46  1  0  0  0
 38 47  1  0  0  0
 39 64  1  0  0  0
 39 67  2  0  0  0
 40 52  1  0  0  0
 40 53  2  0  0  0
 40 58  1  0  0  0
 41114  1  0  0  0
 41115  1  0  0  0
 41116  1  0  0  0
 41 48  1  0  0  0
 42 43  1  0  0  0
 42 66  1  0  0  0
 42117  1  0  0  0
 42118  1  0  0  0
 43 44  1  0  0  0
 44119  1  0  0  0
 45 46  2  0  0  0
 45120  1  0  0  0
 46121  1  0  0  0
 47122  1  0  0  0
 47123  1  0  0  0
 48 56  1  0  0  0
 48 65  1  0  0  0
 48124  1  0  0  0
 49 50  1  0  0  0
 49 53  1  0  0  0
 49 64  1  0  0  0
 49125  1  0  0  0
 50 51  1  0  0  0
 50126  1  0  0  0
 50127  1  0  0  0
 51 52  1  0  0  0
 51128  1  0  0  0
 51129  1  0  0  0
 52130  1  0  0  0
 52131  1  0  0  0
 53 54  1  0  0  0
 54 55  2  0  0  0
 54132  1  0  0  0
 55 57  1  0  0  0
 55133  1  0  0  0
 56 69  2  0  0  0
 57 58  2  0  0  0
 57134  1  0  0  0
 58135  1  0  0  0
 59 60  1  0  0  0
 59 61  1  0  0  0
 59 62  1  0  0  0
 60136  1  0  0  0
 60137  1  0  0  0
 60138  1  0  0  0
 61139  1  0  0  0
 61140  1  0  0  0
 61141  1  0  0  0
 62142  1  0  0  0
 62143  1  0  0  0
 62144  1  0  0  0
 63 65  1  0  0  0
 63145  1  0  0  0
 63146  1  0  0  0
 63147  1  0  0  0
 64148  1  0  0  0
 65149  1  0  0  0
 68 84  1  0  0  0
 71 73  2  0  0  0
 71 74  1  0  0  0
 71150  1  0  0  0
 72 73  1  0  0  0
 72 75  2  0  0  0
 72151  1  0  0  0
 73 83  1  0  0  0
 74 76  2  0  0  0
 74 86  1  0  0  0
 75 76  1  0  0  0
 75 87  1  0  0  0
 76 88  1  0  0  0
 77 79  1  0  0  0
 77 83  1  0  0  0
 77152  1  0  0  0
 77153  1  0  0  0
 78 80  1  0  0  0
 78 83  1  0  0  0
 78154  1  0  0  0
 78155  1  0  0  0
 79 84  1  0  0  0
 79156  1  0  0  0
 79157  1  0  0  0
 80 84  1  0  0  0
 80158  1  0  0  0
 80159  1  0  0  0
 81 82  1  0  0  0
 81 85  1  0  0  0
 81160  1  0  0  0
 81161  1  0  0  0
 82 85  1  0  0  0
 82162  1  0  0  0
 82163  1  0  0  0
 83164  1  0  0  0
 84165  1  0  0  0
 85 89  1  0  0  0
 85 90  1  0  0  0
 86166  1  0  0  0
 86167  1  0  0  0
 86168  1  0  0  0
 87169  1  0  0  0
 87170  1  0  0  0
 87171  1  0  0  0
 88 89  1  0  0  0
 88172  1  0  0  0
 88173  1  0  0  0
 89174  1  0  0  0
 89175  1  0  0  0
 90176  1  0  0  0
M  ISO  4   1 100  68 101  84 101  90 100
M  END
> <chiral flag>
0

> <version>
0

> <s_m_source_file>
/data/baiqing/PycharmProjects/Reinvent-master-3.2/result/LINK_invent/BTK/process_docking_weight1_custom_sum_contain_oxygen_bond_distance_aromatic_linkinvent_7_9_3/rearranged_h_0153.sdf

> <i_m_source_file_index>
73

> <r_mmod_Potential_Energy-OPLS-2005>
20.7781047821045

> <r_mmod_Stretch_Energy-OPLS-2005>
30.1626605987549

> <r_mmod_Bend_Energy-OPLS-2005>
97.0795059204102

> <r_mmod_Torsional_Energy-OPLS-2005>
302.389801025391

> <r_mmod_Improper_Torsional_Energy-OPLS-2005>
3.85333514213562

> <r_mmod_Van_der_Waal_Energy-OPLS-2005>
166.670379638672

> <r_mmod_Electrostatic_Energy-OPLS-2005>
-398.853332519531

> <r_mmod_Solvation_Energy-OPLS-2005>
-192.65771484375

> <b_mmod_Minimization_Converged-OPLS-2005>
0

> <r_mmod_RMS_Derivative-OPLS-2005>
0.960086107254028

$$$$
74
                    3D
 Structure written by MMmdl.
173182  0  0  1  0            999 V2000
  -30.7401  -14.3766   20.6334 C   0  0  0  0  0  0
  -30.4163  -12.2744   19.3971 C   0  0  0  0  0  0
  -29.4810  -12.5022   18.1938 C   0  0  0  0  0  0
  -28.0055  -12.3638   18.6131 C   0  0  0  0  0  0
  -27.6639  -13.1941   19.8797 C   0  0  2  0  0  0
  -28.7028  -12.9359   20.9932 C   0  0  0  0  0  0
  -25.2575  -13.8127   20.5606 C   0  0  0  0  0  0
  -24.1833  -13.0418   20.9165 C   0  0  0  0  0  0
  -24.6383  -11.6884   20.8753 C   0  0  0  0  0  0
  -23.9046  -10.4280   21.0421 C   0  0  0  0  0  0
  -24.3604   -9.4202   21.9196 C   0  0  0  0  0  0
  -23.6287   -8.2236   22.0757 C   0  0  0  0  0  0
  -22.4271   -8.0279   21.3541 C   0  0  0  0  0  0
  -21.9913   -9.0246   20.4639 C   0  0  0  0  0  0
  -22.7228  -10.2132   20.3060 C   0  0  0  0  0  0
  -21.6848   -6.0746   22.5279 C   0  0  0  0  0  0
  -21.4004   -6.5647   23.8210 C   0  0  0  0  0  0
  -21.3651   -5.6796   24.9171 C   0  0  0  0  0  0
  -21.6044   -4.3060   24.7216 C   0  0  0  0  0  0
  -21.8823   -3.8154   23.4337 C   0  0  0  0  0  0
  -21.9189   -4.6978   22.3393 C   0  0  0  0  0  0
  -22.7865  -13.5238   21.1834 C   0  0  0  0  0  0
  -22.1659   -4.2164   21.0975 F   0  0  0  0  0  0
  -21.5626   -3.4541   25.7730 F   0  0  0  0  0  0
  -30.0410  -13.2282   20.4485 N   0  0  0  0  0  0
  -26.3014  -12.9281   20.3370 N   0  0  0  0  0  0
  -25.9304  -11.6451   20.5788 N   0  0  0  0  0  0
  -22.0517  -12.8208   22.0392 N   0  0  0  0  0  0
  -25.4236  -15.1825   20.3884 N   0  0  0  0  0  0
  -31.8408  -14.5896   20.1195 O   0  0  0  0  0  0
  -21.6632   -6.8887   21.4239 O   0  0  0  0  0  0
  -22.3558  -14.5564   20.6724 O   0  0  0  0  0  0
  -24.6123  -31.8705   23.2127 C   0  0  0  0  0  0
  -25.9044  -32.4824   23.8404 C   0  0  1  0  0  0
  -27.2382  -27.4762   20.0736 C   0  0  0  0  0  0
  -25.5931  -33.8620   24.2357 N   0  0  0  0  0  0
  -23.3966  -30.4949   21.5516 C   0  0  2  0  0  0
  -24.8400  -28.9568   20.1191 C   0  0  0  0  0  0
  -22.7357  -29.4709   22.5017 C   0  0  0  0  0  0
  -18.0259  -28.1382   22.8494 C   0  0  0  0  0  0
  -24.1488  -36.7289   23.2644 C   0  0  0  0  0  0
  -25.9175  -30.8459   21.3556 C   0  0  0  0  0  0
  -25.9942  -29.4756   20.7192 C   0  0  0  0  0  0
  -27.1918  -28.7320   20.7127 C   0  0  0  0  0  0
  -26.0644  -26.9510   19.4899 C   0  0  0  0  0  0
  -24.8655  -27.6884   19.5114 C   0  0  0  0  0  0
  -23.6015  -29.8216   20.1673 C   0  0  0  0  0  0
  -25.4094  -36.3093   24.0366 C   0  0  1  0  0  0
  -20.5839  -28.3672   23.1339 C   0  0  2  0  0  0
  -20.6737  -26.9416   22.5442 C   0  0  0  0  0  0
  -19.5749  -26.6391   21.5209 C   0  0  0  0  0  0
  -18.1901  -26.7949   22.1569 C   0  0  0  0  0  0
  -19.1505  -28.8843   23.2908 C   0  0  0  0  0  0
  -18.9432  -30.1436   23.8933 C   0  0  0  0  0  0
  -17.6439  -30.6585   24.0584 C   0  0  0  0  0  0
  -25.9047  -34.9475   23.5144 C   0  0  0  0  0  0
  -16.5334  -29.9090   23.6340 C   0  0  0  0  0  0
  -16.7244  -28.6507   23.0363 C   0  0  0  0  0  0
  -26.4516  -31.6563   25.0682 C   0  0  0  0  0  0
  -25.3841  -31.3563   26.1455 C   0  0  0  0  0  0
  -27.0362  -30.3044   24.5968 C   0  0  0  0  0  0
  -27.6127  -32.4262   25.7408 C   0  0  0  0  0  0
  -27.5626  -37.1720   24.8417 C   0  0  0  0  0  0
  -21.4095  -29.3043   22.3729 N   0  0  0  0  0  0
  -26.4237  -37.3821   23.9516 N   0  0  0  0  0  0
  -24.6610  -31.0846   22.1002 N   0  0  0  0  0  0
  -23.4117  -28.8282   23.3098 O   0  0  0  0  0  0
  -28.4347  -26.8056   20.0315 O   0  0  0  0  0  0
  -26.5581  -34.8943   22.4689 O   0  0  0  0  0  0
  -23.5327  -32.1447   23.7548 O   0  0  0  0  0  0
  -29.3858  -22.5662   19.7462 C   0  0  0  0  0  0
  -29.3648  -23.9678   19.8004 C   0  0  0  0  0  0
  -28.7897  -21.8642   18.6831 C   0  0  0  0  0  0
  -28.1615  -22.5838   17.6324 C   0  0  0  0  0  0
  -28.2050  -24.0084   17.6366 C   0  0  0  0  0  0
  -28.7678  -24.7065   18.7458 C   0  0  0  0  0  0
  -28.1706  -19.6168   19.8089 C   0  0  0  0  0  0
  -29.2858  -17.4289   22.2572 C   0  0  0  0  0  0
  -30.7798  -17.4587   20.2222 C   0  0  0  0  0  0
  -28.0787  -17.6352   21.3108 C   0  0  0  0  0  0
  -29.5182  -17.5613   19.3524 C   0  0  0  0  0  0
  -30.4605  -16.7160   21.5446 C   0  0  0  0  0  0
  -30.0225  -24.6283   21.0038 C   0  0  0  0  0  0
  -27.4597  -21.8335   16.4995 C   0  0  0  0  0  0
  -27.6794  -24.7935   16.4324 C   0  0  0  0  0  0
  -28.9392  -20.3410   18.6827 C   0  0  0  0  0  0
  -28.8103  -26.2390   18.7754 C   0  0  0  0  0  0
  -28.5227  -18.3406   20.0988 N   0  0  0  0  0  0
  -30.0890  -15.3132   21.3348 N   0  0  0  0  0  0
  -27.2919  -20.2152   20.4414 O   0  0  0  0  0  0
  -31.4579  -12.3774   19.0868 H   0  0  0  0  0  0
  -30.3188  -11.2544   19.7721 H   0  0  0  0  0  0
  -29.7088  -11.7882   17.4013 H   0  0  0  0  0  0
  -29.6483  -13.4933   17.7718 H   0  0  0  0  0  0
  -27.8147  -11.3064   18.7999 H   0  0  0  0  0  0
  -27.3483  -12.6445   17.7896 H   0  0  0  0  0  0
  -27.7238  -14.2464   19.6025 H   0  0  0  0  0  0
  -28.6638  -11.8921   21.3110 H   0  0  0  0  0  0
  -28.4614  -13.5119   21.8873 H   0  0  0  0  0  0
  -25.2758   -9.5676   22.4767 H   0  0  0  0  0  0
  -24.0003   -7.4627   22.7477 H   0  0  0  0  0  0
  -21.0855   -8.8756   19.8938 H   0  0  0  0  0  0
  -22.3695  -10.9668   19.6165 H   0  0  0  0  0  0
  -21.2003   -7.6160   23.9718 H   0  0  0  0  0  0
  -21.1462   -6.0526   25.9073 H   0  0  0  0  0  0
  -22.0614   -2.7617   23.2828 H   0  0  0  0  0  0
  -22.4149  -11.9845   22.4715 H   0  0  0  0  0  0
  -21.1145  -13.1219   22.2641 H   0  0  0  0  0  0
  -24.6452  -15.8266   20.4749 H   0  0  0  0  0  0
  -26.2552  -15.6141   20.0081 H   0  0  0  0  0  0
  -26.7105  -32.5593   23.1168 H   0  0  0  0  0  0
  -25.0154  -33.9790   25.0554 H   0  0  0  0  0  0
  -22.6853  -31.3117   21.4122 H   0  0  0  0  0  0
  -23.3857  -35.9494   23.3030 H   0  0  0  0  0  0
  -24.3674  -36.9188   22.2122 H   0  0  0  0  0  0
  -23.7060  -37.6328   23.6840 H   0  0  0  0  0  0
  -26.0050  -31.6019   20.5730 H   0  0  0  0  0  0
  -26.8156  -30.9197   21.9558 H   0  0  0  0  0  0
  -28.0872  -29.1303   21.1697 H   0  0  0  0  0  0
  -26.0744  -25.9764   19.0213 H   0  0  0  0  0  0
  -23.9760  -27.2763   19.0561 H   0  0  0  0  0  0
  -23.7046  -30.5943   19.4047 H   0  0  0  0  0  0
  -22.7259  -29.2374   19.8772 H   0  0  0  0  0  0
  -25.1224  -36.1912   25.0843 H   0  0  0  0  0  0
  -20.9912  -28.3252   24.1465 H   0  0  0  0  0  0
  -20.5606  -26.2300   23.3622 H   0  0  0  0  0  0
  -21.6622  -26.7444   22.1302 H   0  0  0  0  0  0
  -19.6932  -25.6302   21.1244 H   0  0  0  0  0  0
  -19.6728  -27.3192   20.6735 H   0  0  0  0  0  0
  -17.4211  -26.6776   21.3914 H   0  0  0  0  0  0
  -18.0234  -26.0040   22.8891 H   0  0  0  0  0  0
  -19.7907  -30.7228   24.2337 H   0  0  0  0  0  0
  -17.5006  -31.6276   24.5167 H   0  0  0  0  0  0
  -15.5337  -30.3006   23.7652 H   0  0  0  0  0  0
  -15.8640  -28.0829   22.7077 H   0  0  0  0  0  0
  -24.6158  -30.6719   25.7828 H   0  0  0  0  0  0
  -24.8855  -32.2638   26.4861 H   0  0  0  0  0  0
  -25.8299  -30.8848   27.0224 H   0  0  0  0  0  0
  -26.2816  -29.6667   24.1345 H   0  0  0  0  0  0
  -27.4541  -29.7398   25.4311 H   0  0  0  0  0  0
  -27.8456  -30.4406   23.8795 H   0  0  0  0  0  0
  -27.2811  -33.3588   26.1981 H   0  0  0  0  0  0
  -28.3912  -32.6752   25.0183 H   0  0  0  0  0  0
  -28.0823  -31.8379   26.5299 H   0  0  0  0  0  0
  -28.2411  -38.0242   24.7817 H   0  0  0  0  0  0
  -28.1335  -36.2813   24.5733 H   0  0  0  0  0  0
  -27.2452  -37.0761   25.8819 H   0  0  0  0  0  0
  -20.9238  -29.8729   21.6929 H   0  0  0  0  0  0
  -26.0100  -38.2831   24.1754 H   0  0  0  0  0  0
  -29.8699  -22.0140   20.5415 H   0  0  0  0  0  0
  -28.9811  -16.8773   23.1468 H   0  0  0  0  0  0
  -29.6227  -18.4027   22.6144 H   0  0  0  0  0  0
  -31.1460  -18.4617   20.4498 H   0  0  0  0  0  0
  -31.5906  -16.9889   19.6674 H   0  0  0  0  0  0
  -27.2817  -18.1635   21.8356 H   0  0  0  0  0  0
  -27.6577  -16.6720   21.0283 H   0  0  0  0  0  0
  -29.1152  -16.5704   19.1402 H   0  0  0  0  0  0
  -29.7652  -17.9687   18.3727 H   0  0  0  0  0  0
  -31.3411  -16.7327   22.1897 H   0  0  0  0  0  0
  -30.8054  -23.9939   21.4191 H   0  0  0  0  0  0
  -29.2830  -24.7993   21.7878 H   0  0  0  0  0  0
  -30.4871  -25.5819   20.7552 H   0  0  0  0  0  0
  -27.0667  -20.8685   16.8125 H   0  0  0  0  0  0
  -28.1384  -21.6790   15.6599 H   0  0  0  0  0  0
  -26.5838  -22.3726   16.1398 H   0  0  0  0  0  0
  -27.5706  -24.1947   15.5306 H   0  0  0  0  0  0
  -28.3746  -25.5831   16.1462 H   0  0  0  0  0  0
  -26.7127  -25.2458   16.6561 H   0  0  0  0  0  0
  -30.0044  -20.1542   18.8229 H   0  0  0  0  0  0
  -28.6945  -19.8860   17.7263 H   0  0  0  0  0  0
  -28.2286  -26.7005   17.9805 H   0  0  0  0  0  0
  -29.8383  -26.5360   18.5697 H   0  0  0  0  0  0
  -29.1984  -15.0240   21.7057 H   0  0  0  0  0  0
  1 25  1  0  0  0
  1 30  2  0  0  0
  1 89  1  0  0  0
  2  3  1  0  0  0
  2 25  1  0  0  0
  2 91  1  0  0  0
  2 92  1  0  0  0
  3  4  1  0  0  0
  3 93  1  0  0  0
  3 94  1  0  0  0
  4  5  1  0  0  0
  4 95  1  0  0  0
  4 96  1  0  0  0
  5  6  1  0  0  0
  5 26  1  0  0  0
  5 97  1  0  0  0
  6 25  1  0  0  0
  6 98  1  0  0  0
  6 99  1  0  0  0
  7  8  2  0  0  0
  7 26  1  0  0  0
  7 29  1  0  0  0
  8  9  1  0  0  0
  8 22  1  0  0  0
  9 10  1  0  0  0
  9 27  2  0  0  0
 10 11  2  0  0  0
 10 15  1  0  0  0
 11 12  1  0  0  0
 11100  1  0  0  0
 12 13  2  0  0  0
 12101  1  0  0  0
 13 14  1  0  0  0
 13 31  1  0  0  0
 14 15  2  0  0  0
 14102  1  0  0  0
 15103  1  0  0  0
 16 17  2  0  0  0
 16 21  1  0  0  0
 16 31  1  0  0  0
 17 18  1  0  0  0
 17104  1  0  0  0
 18 19  2  0  0  0
 18105  1  0  0  0
 19 20  1  0  0  0
 19 24  1  0  0  0
 20 21  2  0  0  0
 20106  1  0  0  0
 21 23  1  0  0  0
 22 28  1  0  0  0
 22 32  2  0  0  0
 26 27  1  0  0  0
 28107  1  0  0  0
 28108  1  0  0  0
 29109  1  0  0  0
 29110  1  0  0  0
 33 34  1  0  0  0
 33 66  1  0  0  0
 33 70  2  0  0  0
 34 36  1  0  0  0
 34 59  1  0  0  0
 34111  1  0  0  0
 35 44  2  0  0  0
 35 45  1  0  0  0
 35 68  1  0  0  0
 36 56  1  0  0  0
 36112  1  0  0  0
 37 39  1  0  0  0
 37 47  1  0  0  0
 37 66  1  0  0  0
 37113  1  0  0  0
 38 43  2  0  0  0
 38 46  1  0  0  0
 38 47  1  0  0  0
 39 64  1  0  0  0
 39 67  2  0  0  0
 40 52  1  0  0  0
 40 53  2  0  0  0
 40 58  1  0  0  0
 41114  1  0  0  0
 41115  1  0  0  0
 41116  1  0  0  0
 41 48  1  0  0  0
 42 43  1  0  0  0
 42 66  1  0  0  0
 42117  1  0  0  0
 42118  1  0  0  0
 43 44  1  0  0  0
 44119  1  0  0  0
 45 46  2  0  0  0
 45120  1  0  0  0
 46121  1  0  0  0
 47122  1  0  0  0
 47123  1  0  0  0
 48 56  1  0  0  0
 48 65  1  0  0  0
 48124  1  0  0  0
 49 50  1  0  0  0
 49 53  1  0  0  0
 49 64  1  0  0  0
 49125  1  0  0  0
 50 51  1  0  0  0
 50126  1  0  0  0
 50127  1  0  0  0
 51 52  1  0  0  0
 51128  1  0  0  0
 51129  1  0  0  0
 52130  1  0  0  0
 52131  1  0  0  0
 53 54  1  0  0  0
 54 55  2  0  0  0
 54132  1  0  0  0
 55 57  1  0  0  0
 55133  1  0  0  0
 56 69  2  0  0  0
 57 58  2  0  0  0
 57134  1  0  0  0
 58135  1  0  0  0
 59 60  1  0  0  0
 59 61  1  0  0  0
 59 62  1  0  0  0
 60136  1  0  0  0
 60137  1  0  0  0
 60138  1  0  0  0
 61139  1  0  0  0
 61140  1  0  0  0
 61141  1  0  0  0
 62142  1  0  0  0
 62143  1  0  0  0
 62144  1  0  0  0
 63 65  1  0  0  0
 63145  1  0  0  0
 63146  1  0  0  0
 63147  1  0  0  0
 64148  1  0  0  0
 65149  1  0  0  0
 68 87  1  0  0  0
 71 72  2  0  0  0
 71 73  1  0  0  0
 71150  1  0  0  0
 72 76  1  0  0  0
 72 83  1  0  0  0
 73 74  2  0  0  0
 73 86  1  0  0  0
 74 75  1  0  0  0
 74 84  1  0  0  0
 75 76  2  0  0  0
 75 85  1  0  0  0
 76 87  1  0  0  0
 77 86  1  0  0  0
 77 88  1  0  0  0
 77 90  2  0  0  0
 78 80  1  0  0  0
 78 82  1  0  0  0
 78151  1  0  0  0
 78152  1  0  0  0
 79 81  1  0  0  0
 79 82  1  0  0  0
 79153  1  0  0  0
 79154  1  0  0  0
 80 88  1  0  0  0
 80155  1  0  0  0
 80156  1  0  0  0
 81 88  1  0  0  0
 81157  1  0  0  0
 81158  1  0  0  0
 82 89  1  0  0  0
 82159  1  0  0  0
 83160  1  0  0  0
 83161  1  0  0  0
 83162  1  0  0  0
 84163  1  0  0  0
 84164  1  0  0  0
 84165  1  0  0  0
 85166  1  0  0  0
 85167  1  0  0  0
 85168  1  0  0  0
 86169  1  0  0  0
 86170  1  0  0  0
 87171  1  0  0  0
 87172  1  0  0  0
 89173  1  0  0  0
M  ISO  4   1 100  68 101  87 101  89 100
M  END
> <chiral flag>
0

> <version>
0

> <s_m_source_file>
/data/baiqing/PycharmProjects/Reinvent-master-3.2/result/LINK_invent/BTK/process_docking_weight1_custom_sum_contain_oxygen_bond_distance_aromatic_linkinvent_7_9_3/rearranged_h_0153.sdf

> <i_m_source_file_index>
74

> <r_mmod_Potential_Energy-OPLS-2005>
46.1245384216309

> <r_mmod_Stretch_Energy-OPLS-2005>
39.5978775024414

> <r_mmod_Bend_Energy-OPLS-2005>
106.277549743652

> <r_mmod_Torsional_Energy-OPLS-2005>
268.860046386719

> <r_mmod_Improper_Torsional_Energy-OPLS-2005>
3.49816513061523

> <r_mmod_Van_der_Waal_Energy-OPLS-2005>
187.110900878906

> <r_mmod_Electrostatic_Energy-OPLS-2005>
-340.322906494141

> <r_mmod_Solvation_Energy-OPLS-2005>
-227.484573364258

> <b_mmod_Minimization_Converged-OPLS-2005>
0

> <r_mmod_RMS_Derivative-OPLS-2005>
2.47356271743774

$$$$
75
                    3D
 Structure written by MMmdl.
161170  0  0  1  0            999 V2000
  -30.5857  -14.7700   20.4505 C   0  0  0  0  0  0
  -30.4397  -12.4572   19.5091 C   0  0  0  0  0  0
  -29.5351  -12.5182   18.2550 C   0  0  0  0  0  0
  -28.0501  -12.3624   18.6456 C   0  0  0  0  0  0
  -27.6501  -13.2452   19.8601 C   0  0  2  0  0  0
  -28.6870  -13.1641   21.0052 C   0  0  0  0  0  0
  -25.2533  -13.8221   20.5750 C   0  0  0  0  0  0
  -24.1809  -13.0462   20.9223 C   0  0  0  0  0  0
  -24.6411  -11.6936   20.8712 C   0  0  0  0  0  0
  -23.9083  -10.4304   21.0358 C   0  0  0  0  0  0
  -24.3621   -9.4221   21.9168 C   0  0  0  0  0  0
  -23.6295   -8.2242   22.0744 C   0  0  0  0  0  0
  -22.4265   -8.0286   21.3550 C   0  0  0  0  0  0
  -21.9904   -9.0263   20.4654 C   0  0  0  0  0  0
  -22.7234  -10.2145   20.3026 C   0  0  0  0  0  0
  -21.6859   -6.0731   22.5284 C   0  0  0  0  0  0
  -21.4037   -6.5636   23.8224 C   0  0  0  0  0  0
  -21.3648   -5.6787   24.9179 C   0  0  0  0  0  0
  -21.6009   -4.3036   24.7238 C   0  0  0  0  0  0
  -21.8812   -3.8145   23.4359 C   0  0  0  0  0  0
  -21.9201   -4.6969   22.3412 C   0  0  0  0  0  0
  -22.7823  -13.5233   21.1835 C   0  0  0  0  0  0
  -22.1658   -4.2150   21.0994 F   0  0  0  0  0  0
  -21.5626   -3.4518   25.7743 F   0  0  0  0  0  0
  -29.9969  -13.5184   20.4440 N   0  0  0  0  0  0
  -26.2986  -12.9460   20.3298 N   0  0  0  0  0  0
  -25.9357  -11.6583   20.5711 N   0  0  0  0  0  0
  -22.0420  -12.8264   22.0393 N   0  0  0  0  0  0
  -25.4213  -15.1940   20.4169 N   0  0  0  0  0  0
  -31.7348  -14.9041   20.0263 O   0  0  0  0  0  0
  -21.6637   -6.8869   21.4227 O   0  0  0  0  0  0
  -22.3501  -14.5537   20.6664 O   0  0  0  0  0  0
  -24.6325  -31.8544   23.2004 C   0  0  0  0  0  0
  -25.9149  -32.4761   23.8346 C   0  0  1  0  0  0
  -27.2190  -27.2451   20.1373 C   0  0  0  0  0  0
  -25.5937  -33.8573   24.2256 N   0  0  0  0  0  0
  -23.4327  -30.4789   21.5418 C   0  0  2  0  0  0
  -24.8809  -28.9236   20.1124 C   0  0  0  0  0  0
  -22.7518  -29.4601   22.4886 C   0  0  0  0  0  0
  -18.0302  -28.1392   22.8481 C   0  0  0  0  0  0
  -24.1486  -36.7278   23.2636 C   0  0  0  0  0  0
  -25.9797  -30.7635   21.3823 C   0  0  0  0  0  0
  -26.0529  -29.3819   20.7280 C   0  0  0  0  0  0
  -27.2220  -28.5534   20.7328 C   0  0  0  0  0  0
  -26.0235  -26.8654   19.4834 C   0  0  0  0  0  0
  -24.8721  -27.6719   19.4822 C   0  0  0  0  0  0
  -23.6553  -29.8180   20.1559 C   0  0  0  0  0  0
  -25.4111  -36.3070   24.0323 C   0  0  1  0  0  0
  -20.5914  -28.3698   23.1260 C   0  0  2  0  0  0
  -20.6804  -26.9408   22.5407 C   0  0  0  0  0  0
  -19.5776  -26.6378   21.5216 C   0  0  0  0  0  0
  -18.1948  -26.7942   22.1617 C   0  0  0  0  0  0
  -19.1570  -28.8858   23.2879 C   0  0  0  0  0  0
  -18.9480  -30.1443   23.8901 C   0  0  0  0  0  0
  -17.6485  -30.6594   24.0553 C   0  0  0  0  0  0
  -25.9055  -34.9442   23.5090 C   0  0  0  0  0  0
  -16.5369  -29.9085   23.6319 C   0  0  0  0  0  0
  -16.7297  -28.6496   23.0354 C   0  0  0  0  0  0
  -26.4516  -31.6608   25.0752 C   0  0  0  0  0  0
  -25.3734  -31.3778   26.1475 C   0  0  0  0  0  0
  -27.0357  -30.3027   24.6223 C   0  0  0  0  0  0
  -27.6061  -32.4348   25.7531 C   0  0  0  0  0  0
  -27.5576  -37.1790   24.8450 C   0  0  0  0  0  0
  -21.4230  -29.3043   22.3634 N   0  0  0  0  0  0
  -26.4272  -37.3774   23.9414 N   0  0  0  0  0  0
  -24.7014  -31.0507   22.0975 N   0  0  0  0  0  0
  -23.4215  -28.8118   23.2999 O   0  0  0  0  0  0
  -28.2994  -26.3286   20.2164 O   0  0  0  0  0  0
  -26.5610  -34.8909   22.4645 O   0  0  0  0  0  0
  -23.5467  -32.1347   23.7275 O   0  0  0  0  0  0
  -29.2899  -19.1935   22.4167 C   0  0  0  0  0  0
  -28.7878  -21.3864   23.3739 C   0  0  0  0  0  0
  -29.1388  -21.1628   20.9629 C   0  0  0  0  0  0
  -28.9758  -19.9995   23.5320 C   0  0  0  0  0  0
  -29.3996  -19.7131   21.1025 C   0  0  0  0  0  0
  -28.8748  -21.9527   22.0922 C   0  0  0  0  0  0
  -28.9984  -22.1896   19.8034 C   0  0  1  0  0  0
  -29.0157  -23.6524   20.4952 C   0  0  1  0  0  0
  -28.8744  -19.3787   24.9126 C   0  0  0  0  0  0
  -30.0062  -22.0382   18.6506 C   0  0  0  0  0  0
  -29.9278  -18.6682   20.0391 C   0  0  0  0  0  0
  -28.0542  -24.8556   19.9676 C   0  0  0  0  0  0
  -29.4625  -17.1041   19.8930 C   0  0  0  0  0  0
  -29.8057  -15.8787   20.7572 N   0  0  0  0  0  0
  -28.6991  -23.3036   21.8582 O   0  0  0  0  0  0
  -31.4885  -12.5694   19.2302 H   0  0  0  0  0  0
  -30.3724  -11.4822   19.9930 H   0  0  0  0  0  0
  -29.8246  -11.7370   17.5514 H   0  0  0  0  0  0
  -29.6894  -13.4658   17.7342 H   0  0  0  0  0  0
  -27.8723  -11.3144   18.8814 H   0  0  0  0  0  0
  -27.4141  -12.5886   17.7867 H   0  0  0  0  0  0
  -27.6514  -14.2733   19.4982 H   0  0  0  0  0  0
  -28.7178  -12.1616   21.4286 H   0  0  0  0  0  0
  -28.4161  -13.8293   21.8256 H   0  0  0  0  0  0
  -25.2751   -9.5715   22.4773 H   0  0  0  0  0  0
  -24.0000   -7.4630   22.7477 H   0  0  0  0  0  0
  -21.0823   -8.8780   19.8987 H   0  0  0  0  0  0
  -22.3655  -10.9684   19.6152 H   0  0  0  0  0  0
  -21.2027   -7.6146   23.9736 H   0  0  0  0  0  0
  -21.1475   -6.0511   25.9088 H   0  0  0  0  0  0
  -22.0598   -2.7611   23.2858 H   0  0  0  0  0  0
  -22.3978  -11.9985   22.4899 H   0  0  0  0  0  0
  -21.1033  -13.1341   22.2512 H   0  0  0  0  0  0
  -24.6514  -15.8468   20.5218 H   0  0  0  0  0  0
  -26.2690  -15.6295   20.0786 H   0  0  0  0  0  0
  -26.7214  -32.5412   23.1076 H   0  0  0  0  0  0
  -25.0134  -33.9716   25.0441 H   0  0  0  0  0  0
  -22.7278  -31.3003   21.3956 H   0  0  0  0  0  0
  -23.3765  -35.9588   23.3255 H   0  0  0  0  0  0
  -24.3585  -36.8946   22.2058 H   0  0  0  0  0  0
  -23.7209  -37.6453   23.6690 H   0  0  0  0  0  0
  -26.1176  -31.5209   20.6088 H   0  0  0  0  0  0
  -26.8573  -30.8158   22.0151 H   0  0  0  0  0  0
  -28.1121  -28.8929   21.2417 H   0  0  0  0  0  0
  -25.9459  -25.9173   18.9777 H   0  0  0  0  0  0
  -23.9780  -27.3141   18.9909 H   0  0  0  0  0  0
  -23.7881  -30.5964   19.4034 H   0  0  0  0  0  0
  -22.7729  -29.2586   19.8419 H   0  0  0  0  0  0
  -25.1292  -36.1901   25.0811 H   0  0  0  0  0  0
  -21.0022  -28.3286   24.1386 H   0  0  0  0  0  0
  -20.5729  -26.2299   23.3619 H   0  0  0  0  0  0
  -21.6669  -26.7455   22.1187 H   0  0  0  0  0  0
  -19.6945  -25.6282   21.1252 H   0  0  0  0  0  0
  -19.6725  -27.3179   20.6743 H   0  0  0  0  0  0
  -17.4229  -26.6684   21.4004 H   0  0  0  0  0  0
  -18.0341  -26.0082   22.9015 H   0  0  0  0  0  0
  -19.7950  -30.7260   24.2291 H   0  0  0  0  0  0
  -17.5032  -31.6276   24.5148 H   0  0  0  0  0  0
  -15.5366  -30.2991   23.7656 H   0  0  0  0  0  0
  -15.8690  -28.0818   22.7087 H   0  0  0  0  0  0
  -24.5867  -30.7176   25.7807 H   0  0  0  0  0  0
  -24.8984  -32.2971   26.4912 H   0  0  0  0  0  0
  -25.8049  -30.8932   27.0238 H   0  0  0  0  0  0
  -26.2936  -29.6789   24.1219 H   0  0  0  0  0  0
  -27.4029  -29.7283   25.4735 H   0  0  0  0  0  0
  -27.8823  -30.4331   23.9475 H   0  0  0  0  0  0
  -27.2660  -33.3638   26.2103 H   0  0  0  0  0  0
  -28.3879  -32.6914   25.0381 H   0  0  0  0  0  0
  -28.0702  -31.8474   26.5450 H   0  0  0  0  0  0
  -28.2562  -38.0123   24.7542 H   0  0  0  0  0  0
  -28.1106  -36.2652   24.6213 H   0  0  0  0  0  0
  -27.2306  -37.1364   25.8857 H   0  0  0  0  0  0
  -20.9413  -29.8746   21.6812 H   0  0  0  0  0  0
  -26.0145  -38.2828   24.1478 H   0  0  0  0  0  0
  -29.4864  -18.1431   22.5782 H   0  0  0  0  0  0
  -28.5775  -22.0076   24.2345 H   0  0  0  0  0  0
  -27.9986  -22.0345   19.3954 H   0  0  0  0  0  0
  -30.0466  -24.0094   20.5000 H   0  0  0  0  0  0
  -28.6056  -18.3223   24.8540 H   0  0  0  0  0  0
  -28.1158  -19.8808   25.5152 H   0  0  0  0  0  0
  -29.8284  -19.4526   25.4354 H   0  0  0  0  0  0
  -31.0376  -22.1219   18.9882 H   0  0  0  0  0  0
  -29.8420  -22.8102   17.8963 H   0  0  0  0  0  0
  -29.8936  -21.0811   18.1457 H   0  0  0  0  0  0
  -31.0156  -18.7052   20.0767 H   0  0  0  0  0  0
  -29.6619  -19.1195   19.0843 H   0  0  0  0  0  0
  -27.0579  -24.5925   20.3323 H   0  0  0  0  0  0
  -28.0100  -24.7550   18.8810 H   0  0  0  0  0  0
  -29.7953  -16.8183   18.8930 H   0  0  0  0  0  0
  -28.3759  -17.1096   19.8090 H   0  0  0  0  0  0
  -29.0286  -15.6250   21.3489 H   0  0  0  0  0  0
  1 25  1  0  0  0
  1 30  2  0  0  0
  1 84  1  0  0  0
  2  3  1  0  0  0
  2 25  1  0  0  0
  2 86  1  0  0  0
  2 87  1  0  0  0
  3  4  1  0  0  0
  3 88  1  0  0  0
  3 89  1  0  0  0
  4  5  1  0  0  0
  4 90  1  0  0  0
  4 91  1  0  0  0
  5  6  1  0  0  0
  5 26  1  0  0  0
  5 92  1  0  0  0
  6 25  1  0  0  0
  6 93  1  0  0  0
  6 94  1  0  0  0
  7  8  2  0  0  0
  7 26  1  0  0  0
  7 29  1  0  0  0
  8  9  1  0  0  0
  8 22  1  0  0  0
  9 10  1  0  0  0
  9 27  2  0  0  0
 10 11  2  0  0  0
 10 15  1  0  0  0
 11 12  1  0  0  0
 11 95  1  0  0  0
 12 13  2  0  0  0
 12 96  1  0  0  0
 13 14  1  0  0  0
 13 31  1  0  0  0
 14 15  2  0  0  0
 14 97  1  0  0  0
 15 98  1  0  0  0
 16 17  2  0  0  0
 16 21  1  0  0  0
 16 31  1  0  0  0
 17 18  1  0  0  0
 17 99  1  0  0  0
 18 19  2  0  0  0
 18100  1  0  0  0
 19 20  1  0  0  0
 19 24  1  0  0  0
 20 21  2  0  0  0
 20101  1  0  0  0
 21 23  1  0  0  0
 22 28  1  0  0  0
 22 32  2  0  0  0
 26 27  1  0  0  0
 28102  1  0  0  0
 28103  1  0  0  0
 29104  1  0  0  0
 29105  1  0  0  0
 33 34  1  0  0  0
 33 66  1  0  0  0
 33 70  2  0  0  0
 34 36  1  0  0  0
 34 59  1  0  0  0
 34106  1  0  0  0
 35 44  2  0  0  0
 35 45  1  0  0  0
 35 68  1  0  0  0
 36 56  1  0  0  0
 36107  1  0  0  0
 37 39  1  0  0  0
 37 47  1  0  0  0
 37 66  1  0  0  0
 37108  1  0  0  0
 38 43  2  0  0  0
 38 46  1  0  0  0
 38 47  1  0  0  0
 39 64  1  0  0  0
 39 67  2  0  0  0
 40 52  1  0  0  0
 40 53  2  0  0  0
 40 58  1  0  0  0
 41109  1  0  0  0
 41110  1  0  0  0
 41111  1  0  0  0
 41 48  1  0  0  0
 42 43  1  0  0  0
 42 66  1  0  0  0
 42112  1  0  0  0
 42113  1  0  0  0
 43 44  1  0  0  0
 44114  1  0  0  0
 45 46  2  0  0  0
 45115  1  0  0  0
 46116  1  0  0  0
 47117  1  0  0  0
 47118  1  0  0  0
 48 56  1  0  0  0
 48 65  1  0  0  0
 48119  1  0  0  0
 49 50  1  0  0  0
 49 53  1  0  0  0
 49 64  1  0  0  0
 49120  1  0  0  0
 50 51  1  0  0  0
 50121  1  0  0  0
 50122  1  0  0  0
 51 52  1  0  0  0
 51123  1  0  0  0
 51124  1  0  0  0
 52125  1  0  0  0
 52126  1  0  0  0
 53 54  1  0  0  0
 54 55  2  0  0  0
 54127  1  0  0  0
 55 57  1  0  0  0
 55128  1  0  0  0
 56 69  2  0  0  0
 57 58  2  0  0  0
 57129  1  0  0  0
 58130  1  0  0  0
 59 60  1  0  0  0
 59 61  1  0  0  0
 59 62  1  0  0  0
 60131  1  0  0  0
 60132  1  0  0  0
 60133  1  0  0  0
 61134  1  0  0  0
 61135  1  0  0  0
 61136  1  0  0  0
 62137  1  0  0  0
 62138  1  0  0  0
 62139  1  0  0  0
 63 65  1  0  0  0
 63140  1  0  0  0
 63141  1  0  0  0
 63142  1  0  0  0
 64143  1  0  0  0
 65144  1  0  0  0
 68 82  1  0  0  0
 71 74  2  0  0  0
 71 75  1  0  0  0
 71145  1  0  0  0
 72 74  1  0  0  0
 72 76  2  0  0  0
 72146  1  0  0  0
 73 75  2  0  0  0
 73 76  1  0  0  0
 73 77  1  0  0  0
 74 79  1  0  0  0
 75 81  1  0  0  0
 76 85  1  0  0  0
 77 78  1  0  0  0
 77 80  1  0  0  0
 77147  1  0  0  0
 78 82  1  0  0  0
 78 85  1  0  0  0
 78148  1  0  0  0
 79149  1  0  0  0
 79150  1  0  0  0
 79151  1  0  0  0
 80152  1  0  0  0
 80153  1  0  0  0
 80154  1  0  0  0
 81 83  1  0  0  0
 81155  1  0  0  0
 81156  1  0  0  0
 82157  1  0  0  0
 82158  1  0  0  0
 83 84  1  0  0  0
 83159  1  0  0  0
 83160  1  0  0  0
 84161  1  0  0  0
M  ISO  4   1 100  68 101  82 101  84 100
M  END
> <chiral flag>
0

> <version>
0

> <s_m_source_file>
/data/baiqing/PycharmProjects/Reinvent-master-3.2/result/LINK_invent/BTK/process_docking_weight1_custom_sum_contain_oxygen_bond_distance_aromatic_linkinvent_7_9_3/rearranged_h_0153.sdf

> <i_m_source_file_index>
75

> <r_mmod_Potential_Energy-OPLS-2005>
302.849578857422

> <r_mmod_Stretch_Energy-OPLS-2005>
136.553253173828

> <r_mmod_Bend_Energy-OPLS-2005>
276.594940185547

> <r_mmod_Torsional_Energy-OPLS-2005>
244.264938354492

> <r_mmod_Improper_Torsional_Energy-OPLS-2005>
7.88921594619751

> <r_mmod_Van_der_Waal_Energy-OPLS-2005>
129.073440551758

> <r_mmod_Electrostatic_Energy-OPLS-2005>
-365.002380371094

> <r_mmod_Solvation_Energy-OPLS-2005>
-224.820327758789

> <b_mmod_Minimization_Converged-OPLS-2005>
0

> <r_mmod_RMS_Derivative-OPLS-2005>
4.48812580108643

$$$$
76
                    3D
 Structure written by MMmdl.
176185  0  0  1  0            999 V2000
  -30.7787  -14.3156   20.7082 C   0  0  0  0  0  0
  -30.4127  -12.2762   19.3781 C   0  0  0  0  0  0
  -29.4777  -12.5271   18.1819 C   0  0  0  0  0  0
  -28.0023  -12.3840   18.6016 C   0  0  0  0  0  0
  -27.6662  -13.1981   19.8783 C   0  0  2  0  0  0
  -28.7022  -12.9185   20.9879 C   0  0  0  0  0  0
  -25.2605  -13.8153   20.5664 C   0  0  0  0  0  0
  -24.1846  -13.0450   20.9156 C   0  0  0  0  0  0
  -24.6381  -11.6902   20.8707 C   0  0  0  0  0  0
  -23.9043  -10.4298   21.0392 C   0  0  0  0  0  0
  -24.3598   -9.4216   21.9176 C   0  0  0  0  0  0
  -23.6280   -8.2251   22.0754 C   0  0  0  0  0  0
  -22.4265   -8.0286   21.3549 C   0  0  0  0  0  0
  -21.9898   -9.0247   20.4645 C   0  0  0  0  0  0
  -22.7213  -10.2129   20.3047 C   0  0  0  0  0  0
  -21.6846   -6.0734   22.5276 C   0  0  0  0  0  0
  -21.4010   -6.5637   23.8212 C   0  0  0  0  0  0
  -21.3654   -5.6785   24.9173 C   0  0  0  0  0  0
  -21.6047   -4.3052   24.7225 C   0  0  0  0  0  0
  -21.8817   -3.8142   23.4347 C   0  0  0  0  0  0
  -21.9200   -4.6960   22.3403 C   0  0  0  0  0  0
  -22.7866  -13.5247   21.1826 C   0  0  0  0  0  0
  -22.1658   -4.2143   21.0980 F   0  0  0  0  0  0
  -21.5638   -3.4542   25.7743 F   0  0  0  0  0  0
  -30.0491  -13.2035   20.4560 N   0  0  0  0  0  0
  -26.3042  -12.9304   20.3362 N   0  0  0  0  0  0
  -25.9304  -11.6468   20.5737 N   0  0  0  0  0  0
  -22.0514  -12.8253   22.0388 N   0  0  0  0  0  0
  -25.4369  -15.1876   20.4096 N   0  0  0  0  0  0
  -31.7720  -14.6506   20.0572 O   0  0  0  0  0  0
  -21.6640   -6.8877   21.4240 O   0  0  0  0  0  0
  -22.3563  -14.5562   20.6681 O   0  0  0  0  0  0
  -24.6097  -31.8691   23.2119 C   0  0  0  0  0  0
  -25.9005  -32.4810   23.8393 C   0  0  1  0  0  0
  -27.2480  -27.4930   20.0719 C   0  0  0  0  0  0
  -25.5864  -33.8606   24.2308 N   0  0  0  0  0  0
  -23.3955  -30.4919   21.5533 C   0  0  2  0  0  0
  -24.8434  -28.9601   20.1192 C   0  0  0  0  0  0
  -22.7382  -29.4681   22.5047 C   0  0  0  0  0  0
  -18.0273  -28.1407   22.8514 C   0  0  0  0  0  0
  -24.1479  -36.7356   23.2644 C   0  0  0  0  0  0
  -25.9173  -30.8514   21.3581 C   0  0  0  0  0  0
  -25.9987  -29.4876   20.7103 C   0  0  0  0  0  0
  -27.2041  -28.7573   20.6932 C   0  0  0  0  0  0
  -26.0753  -26.9540   19.5054 C   0  0  0  0  0  0
  -24.8738  -27.6890   19.5159 C   0  0  0  0  0  0
  -23.5976  -29.8143   20.1710 C   0  0  0  0  0  0
  -25.4099  -36.3108   24.0325 C   0  0  1  0  0  0
  -20.5852  -28.3694   23.1346 C   0  0  2  0  0  0
  -20.6751  -26.9434   22.5438 C   0  0  0  0  0  0
  -19.5729  -26.6407   21.5237 C   0  0  0  0  0  0
  -18.1906  -26.7960   22.1638 C   0  0  0  0  0  0
  -19.1516  -28.8874   23.2916 C   0  0  0  0  0  0
  -18.9428  -30.1482   23.8916 C   0  0  0  0  0  0
  -17.6424  -30.6605   24.0591 C   0  0  0  0  0  0
  -25.9027  -34.9462   23.5120 C   0  0  0  0  0  0
  -16.5322  -29.9110   23.6330 C   0  0  0  0  0  0
  -16.7257  -28.6532   23.0348 C   0  0  0  0  0  0
  -26.4433  -31.6594   25.0723 C   0  0  0  0  0  0
  -25.3691  -31.3706   26.1473 C   0  0  0  0  0  0
  -27.0269  -30.3022   24.6136 C   0  0  0  0  0  0
  -27.6026  -32.4318   25.7455 C   0  0  0  0  0  0
  -27.5571  -37.1816   24.8453 C   0  0  0  0  0  0
  -21.4118  -29.3047   22.3752 N   0  0  0  0  0  0
  -26.4284  -37.3789   23.9395 N   0  0  0  0  0  0
  -24.6587  -31.0837   22.0999 N   0  0  0  0  0  0
  -23.4177  -28.8227   23.3073 O   0  0  0  0  0  0
  -28.4130  -26.7753   20.0104 O   0  0  0  0  0  0
  -26.5612  -34.8905   22.4696 O   0  0  0  0  0  0
  -23.5301  -32.1435   23.7533 O   0  0  0  0  0  0
  -28.7624  -20.9523   19.8183 C   0  0  0  0  0  0
  -29.7519  -18.5626   18.7380 C   0  0  0  0  0  0
  -29.2392  -20.9400   18.4855 C   0  0  0  0  0  0
  -28.8017  -19.7930   20.6161 C   0  0  0  0  0  0
  -29.7092  -19.7200   17.9332 C   0  0  0  0  0  0
  -29.3367  -18.6057   20.0835 C   0  0  0  0  0  0
  -27.9967  -23.0308   17.6652 C   0  0  0  0  0  0
  -30.4638  -23.1187   18.3532 C   0  0  0  0  0  0
  -28.1683  -24.4567   17.1110 C   0  0  0  0  0  0
  -30.5155  -24.5417   17.7814 C   0  0  0  0  0  0
  -29.3392  -22.2646   17.7261 C   0  0  1  0  0  0
  -28.3351  -19.8428   22.0588 C   0  0  0  0  0  0
  -30.2204  -19.6291   16.5047 C   0  0  0  0  0  0
  -30.9950  -16.2173   22.2969 C   0  0  0  0  0  0
  -29.1987  -26.6518   17.7408 C   0  0  0  0  0  0
  -30.8658  -17.3810   21.3046 C   0  0  0  0  0  0
  -29.3921  -27.3128   19.1157 C   0  0  0  0  0  0
  -30.3887  -14.9941   21.7879 N   0  0  0  0  0  0
  -29.1855  -25.1798   17.9108 N   0  3  1  0  0  0
  -29.5097  -17.5184   20.8939 O   0  0  0  0  0  0
  -31.4557  -12.3787   19.0735 H   0  0  0  0  0  0
  -30.3102  -11.2496   19.7324 H   0  0  0  0  0  0
  -29.7055  -11.8294   17.3741 H   0  0  0  0  0  0
  -29.6501  -13.5271   17.7809 H   0  0  0  0  0  0
  -27.8048  -11.3249   18.7729 H   0  0  0  0  0  0
  -27.3480  -12.6853   17.7828 H   0  0  0  0  0  0
  -27.7317  -14.2546   19.6167 H   0  0  0  0  0  0
  -28.6589  -11.8708   21.2891 H   0  0  0  0  0  0
  -28.4466  -13.4834   21.8846 H   0  0  0  0  0  0
  -25.2738   -9.5710   22.4750 H   0  0  0  0  0  0
  -23.9995   -7.4655   22.7476 H   0  0  0  0  0  0
  -21.0836   -8.8755   19.8945 H   0  0  0  0  0  0
  -22.3664  -10.9666   19.6160 H   0  0  0  0  0  0
  -21.1980   -7.6143   23.9712 H   0  0  0  0  0  0
  -21.1480   -6.0519   25.9079 H   0  0  0  0  0  0
  -22.0601   -2.7609   23.2848 H   0  0  0  0  0  0
  -22.4120  -11.9903   22.4756 H   0  0  0  0  0  0
  -21.1144  -13.1292   22.2600 H   0  0  0  0  0  0
  -24.6792  -15.8507   20.5311 H   0  0  0  0  0  0
  -26.3072  -15.6244   20.1306 H   0  0  0  0  0  0
  -26.7097  -32.5545   23.1188 H   0  0  0  0  0  0
  -24.9862  -33.9747   25.0342 H   0  0  0  0  0  0
  -22.6835  -31.3077   21.4124 H   0  0  0  0  0  0
  -23.3708  -35.9729   23.3283 H   0  0  0  0  0  0
  -24.3552  -36.9018   22.2064 H   0  0  0  0  0  0
  -23.7261  -37.6557   23.6698 H   0  0  0  0  0  0
  -26.0157  -31.6152   20.5859 H   0  0  0  0  0  0
  -26.8081  -30.9086   21.9714 H   0  0  0  0  0  0
  -28.0983  -29.1645   21.1457 H   0  0  0  0  0  0
  -26.0939  -25.9782   19.0420 H   0  0  0  0  0  0
  -23.9838  -27.2750   19.0606 H   0  0  0  0  0  0
  -23.6848  -30.5798   19.3995 H   0  0  0  0  0  0
  -22.7258  -29.2186   19.8933 H   0  0  0  0  0  0
  -25.1271  -36.1971   25.0820 H   0  0  0  0  0  0
  -20.9926  -28.3272   24.1475 H   0  0  0  0  0  0
  -20.5677  -26.2303   23.3620 H   0  0  0  0  0  0
  -21.6618  -26.7495   22.1216 H   0  0  0  0  0  0
  -19.6878  -25.6315   21.1272 H   0  0  0  0  0  0
  -19.6675  -27.3217   20.6766 H   0  0  0  0  0  0
  -17.4177  -26.6751   21.4035 H   0  0  0  0  0  0
  -18.0278  -26.0103   22.9030 H   0  0  0  0  0  0
  -19.7890  -30.7311   24.2293 H   0  0  0  0  0  0
  -17.4969  -31.6272   24.5220 H   0  0  0  0  0  0
  -15.5315  -30.3005   23.7657 H   0  0  0  0  0  0
  -15.8662  -28.0855   22.7041 H   0  0  0  0  0  0
  -24.5801  -30.7156   25.7761 H   0  0  0  0  0  0
  -24.8960  -32.2877   26.4998 H   0  0  0  0  0  0
  -25.8001  -30.8753   27.0182 H   0  0  0  0  0  0
  -26.2819  -29.6751   24.1220 H   0  0  0  0  0  0
  -27.4029  -29.7299   25.4629 H   0  0  0  0  0  0
  -27.8662  -30.4302   23.9293 H   0  0  0  0  0  0
  -27.2664  -33.3620   26.2048 H   0  0  0  0  0  0
  -28.3795  -32.6872   25.0236 H   0  0  0  0  0  0
  -28.0742  -31.8435   26.5335 H   0  0  0  0  0  0
  -28.2589  -38.0104   24.7456 H   0  0  0  0  0  0
  -28.1050  -36.2620   24.6323 H   0  0  0  0  0  0
  -27.2274  -37.1540   25.8852 H   0  0  0  0  0  0
  -20.9296  -29.8739   21.6935 H   0  0  0  0  0  0
  -26.0171  -38.2874   24.1378 H   0  0  0  0  0  0
  -28.4125  -21.8738   20.2613 H   0  0  0  0  0  0
  -30.1474  -17.6396   18.3372 H   0  0  0  0  0  0
  -27.2845  -22.4797   17.0496 H   0  0  0  0  0  0
  -27.5425  -23.1085   18.6522 H   0  0  0  0  0  0
  -30.3341  -23.1838   19.4351 H   0  0  0  0  0  0
  -31.4249  -22.6259   18.2002 H   0  0  0  0  0  0
  -27.2074  -24.9703   17.1564 H   0  0  0  0  0  0
  -28.4630  -24.4348   16.0605 H   0  0  0  0  0  0
  -30.8232  -24.5266   16.7344 H   0  0  0  0  0  0
  -31.2718  -25.1166   18.3171 H   0  0  0  0  0  0
  -29.6200  -22.0843   16.6905 H   0  0  0  0  0  0
  -27.5917  -20.6255   22.2077 H   0  0  0  0  0  0
  -29.1785  -20.0349   22.7221 H   0  0  0  0  0  0
  -27.8823  -18.8955   22.3525 H   0  0  0  0  0  0
  -30.5240  -18.6129   16.2519 H   0  0  0  0  0  0
  -31.0862  -20.2770   16.3635 H   0  0  0  0  0  0
  -29.4430  -19.9246   15.7995 H   0  0  0  0  0  0
  -30.5030  -16.4786   23.2341 H   0  0  0  0  0  0
  -32.0458  -16.0396   22.5316 H   0  0  0  0  0  0
  -29.9816  -26.9602   17.0454 H   0  0  0  0  0  0
  -28.2567  -26.9970   17.3142 H   0  0  0  0  0  0
  -31.5111  -17.2211   20.4395 H   0  0  0  0  0  0
  -31.2086  -18.3007   21.7826 H   0  0  0  0  0  0
  -29.3371  -28.3994   19.0286 H   0  0  0  0  0  0
  -30.3815  -27.0871   19.5146 H   0  0  0  0  0  0
  -29.5839  -14.6368   22.2801 H   0  0  0  0  0  0
  -28.8983  -25.0650   18.8748 H   0  0  0  0  0  0
  1 25  1  0  0  0
  1 30  2  0  0  0
  1 88  1  0  0  0
  2  3  1  0  0  0
  2 25  1  0  0  0
  2 91  1  0  0  0
  2 92  1  0  0  0
  3  4  1  0  0  0
  3 93  1  0  0  0
  3 94  1  0  0  0
  4  5  1  0  0  0
  4 95  1  0  0  0
  4 96  1  0  0  0
  5  6  1  0  0  0
  5 26  1  0  0  0
  5 97  1  0  0  0
  6 25  1  0  0  0
  6 98  1  0  0  0
  6 99  1  0  0  0
  7  8  2  0  0  0
  7 26  1  0  0  0
  7 29  1  0  0  0
  8  9  1  0  0  0
  8 22  1  0  0  0
  9 10  1  0  0  0
  9 27  2  0  0  0
 10 11  2  0  0  0
 10 15  1  0  0  0
 11 12  1  0  0  0
 11100  1  0  0  0
 12 13  2  0  0  0
 12101  1  0  0  0
 13 14  1  0  0  0
 13 31  1  0  0  0
 14 15  2  0  0  0
 14102  1  0  0  0
 15103  1  0  0  0
 16 17  2  0  0  0
 16 21  1  0  0  0
 16 31  1  0  0  0
 17 18  1  0  0  0
 17104  1  0  0  0
 18 19  2  0  0  0
 18105  1  0  0  0
 19 20  1  0  0  0
 19 24  1  0  0  0
 20 21  2  0  0  0
 20106  1  0  0  0
 21 23  1  0  0  0
 22 28  1  0  0  0
 22 32  2  0  0  0
 26 27  1  0  0  0
 28107  1  0  0  0
 28108  1  0  0  0
 29109  1  0  0  0
 29110  1  0  0  0
 33 34  1  0  0  0
 33 66  1  0  0  0
 33 70  2  0  0  0
 34 36  1  0  0  0
 34 59  1  0  0  0
 34111  1  0  0  0
 35 44  2  0  0  0
 35 45  1  0  0  0
 35 68  1  0  0  0
 36 56  1  0  0  0
 36112  1  0  0  0
 37 39  1  0  0  0
 37 47  1  0  0  0
 37 66  1  0  0  0
 37113  1  0  0  0
 38 43  2  0  0  0
 38 46  1  0  0  0
 38 47  1  0  0  0
 39 64  1  0  0  0
 39 67  2  0  0  0
 40 52  1  0  0  0
 40 53  2  0  0  0
 40 58  1  0  0  0
 41114  1  0  0  0
 41115  1  0  0  0
 41116  1  0  0  0
 41 48  1  0  0  0
 42 43  1  0  0  0
 42 66  1  0  0  0
 42117  1  0  0  0
 42118  1  0  0  0
 43 44  1  0  0  0
 44119  1  0  0  0
 45 46  2  0  0  0
 45120  1  0  0  0
 46121  1  0  0  0
 47122  1  0  0  0
 47123  1  0  0  0
 48 56  1  0  0  0
 48 65  1  0  0  0
 48124  1  0  0  0
 49 50  1  0  0  0
 49 53  1  0  0  0
 49 64  1  0  0  0
 49125  1  0  0  0
 50 51  1  0  0  0
 50126  1  0  0  0
 50127  1  0  0  0
 51 52  1  0  0  0
 51128  1  0  0  0
 51129  1  0  0  0
 52130  1  0  0  0
 52131  1  0  0  0
 53 54  1  0  0  0
 54 55  2  0  0  0
 54132  1  0  0  0
 55 57  1  0  0  0
 55133  1  0  0  0
 56 69  2  0  0  0
 57 58  2  0  0  0
 57134  1  0  0  0
 58135  1  0  0  0
 59 60  1  0  0  0
 59 61  1  0  0  0
 59 62  1  0  0  0
 60136  1  0  0  0
 60137  1  0  0  0
 60138  1  0  0  0
 61139  1  0  0  0
 61140  1  0  0  0
 61141  1  0  0  0
 62142  1  0  0  0
 62143  1  0  0  0
 62144  1  0  0  0
 63 65  1  0  0  0
 63145  1  0  0  0
 63146  1  0  0  0
 63147  1  0  0  0
 64148  1  0  0  0
 65149  1  0  0  0
 68 87  1  0  0  0
 71 73  2  0  0  0
 71 74  1  0  0  0
 71150  1  0  0  0
 72 75  2  0  0  0
 72 76  1  0  0  0
 72151  1  0  0  0
 73 75  1  0  0  0
 73 81  1  0  0  0
 74 76  2  0  0  0
 74 82  1  0  0  0
 75 83  1  0  0  0
 76 90  1  0  0  0
 77 79  1  0  0  0
 77 81  1  0  0  0
 77152  1  0  0  0
 77153  1  0  0  0
 78 80  1  0  0  0
 78 81  1  0  0  0
 78154  1  0  0  0
 78155  1  0  0  0
 79 89  1  0  0  0
 79156  1  0  0  0
 79157  1  0  0  0
 80 89  1  0  0  0
 80158  1  0  0  0
 80159  1  0  0  0
 81160  1  0  0  0
 82161  1  0  0  0
 82162  1  0  0  0
 82163  1  0  0  0
 83164  1  0  0  0
 83165  1  0  0  0
 83166  1  0  0  0
 84 86  1  0  0  0
 84 88  1  0  0  0
 84167  1  0  0  0
 84168  1  0  0  0
 85 87  1  0  0  0
 85169  1  0  0  0
 85170  1  0  0  0
 85 89  1  0  0  0
 86 90  1  0  0  0
 86171  1  0  0  0
 86172  1  0  0  0
 87173  1  0  0  0
 87174  1  0  0  0
 88175  1  0  0  0
 89176  1  0  0  0
M  CHG  1  89   1
M  ISO  4   1 100  68 101  87 101  88 100
M  END
> <chiral flag>
0

> <version>
0

> <s_m_source_file>
/data/baiqing/PycharmProjects/Reinvent-master-3.2/result/LINK_invent/BTK/process_docking_weight1_custom_sum_contain_oxygen_bond_distance_aromatic_linkinvent_7_9_3/rearranged_h_0153.sdf

> <i_m_source_file_index>
76

> <r_mmod_Potential_Energy-OPLS-2005>
-187.187286376953

> <r_mmod_Stretch_Energy-OPLS-2005>
32.0726280212402

> <r_mmod_Bend_Energy-OPLS-2005>
91.2008972167969

> <r_mmod_Torsional_Energy-OPLS-2005>
299.589477539062

> <r_mmod_Improper_Torsional_Energy-OPLS-2005>
2.64699506759644

> <r_mmod_Van_der_Waal_Energy-OPLS-2005>
158.983184814453

> <r_mmod_Electrostatic_Energy-OPLS-2005>
-367.826599121094

> <r_mmod_Solvation_Energy-OPLS-2005>
-410.346771240234

> <b_mmod_Minimization_Converged-OPLS-2005>
0

> <r_mmod_RMS_Derivative-OPLS-2005>
2.10397148132324

$$$$
77
                    3D
 Structure written by MMmdl.
175185  0  0  1  0            999 V2000
  -30.6992  -14.6751   20.5016 C   0  0  0  0  0  0
  -30.4103  -12.4224   19.4720 C   0  0  0  0  0  0
  -29.4996  -12.5063   18.2313 C   0  0  0  0  0  0
  -28.0274  -12.3316   18.6460 C   0  0  0  0  0  0
  -27.6381  -13.2308   19.8498 C   0  0  2  0  0  0
  -28.6837  -13.1737   20.9876 C   0  0  0  0  0  0
  -25.2481  -13.8203   20.5699 C   0  0  0  0  0  0
  -24.1785  -13.0441   20.9217 C   0  0  0  0  0  0
  -24.6386  -11.6919   20.8775 C   0  0  0  0  0  0
  -23.9076  -10.4293   21.0431 C   0  0  0  0  0  0
  -24.3625   -9.4204   21.9203 C   0  0  0  0  0  0
  -23.6298   -8.2240   22.0761 C   0  0  0  0  0  0
  -22.4281   -8.0280   21.3549 C   0  0  0  0  0  0
  -21.9921   -9.0258   20.4656 C   0  0  0  0  0  0
  -22.7255  -10.2134   20.3068 C   0  0  0  0  0  0
  -21.6850   -6.0738   22.5285 C   0  0  0  0  0  0
  -21.4016   -6.5642   23.8221 C   0  0  0  0  0  0
  -21.3656   -5.6791   24.9182 C   0  0  0  0  0  0
  -21.6043   -4.3055   24.7230 C   0  0  0  0  0  0
  -21.8815   -3.8149   23.4352 C   0  0  0  0  0  0
  -21.9192   -4.6967   22.3410 C   0  0  0  0  0  0
  -22.7805  -13.5224   21.1865 C   0  0  0  0  0  0
  -22.1659   -4.2155   21.0983 F   0  0  0  0  0  0
  -21.5628   -3.4534   25.7744 F   0  0  0  0  0  0
  -29.9912  -13.4973   20.4046 N   0  0  0  0  0  0
  -26.2915  -12.9410   20.3300 N   0  0  0  0  0  0
  -25.9318  -11.6555   20.5788 N   0  0  0  0  0  0
  -22.0435  -12.8225   22.0418 N   0  0  0  0  0  0
  -25.4128  -15.1924   20.4088 N   0  0  0  0  0  0
  -31.8722  -14.6956   20.1155 O   0  0  0  0  0  0
  -21.6638   -6.8880   21.4244 O   0  0  0  0  0  0
  -22.3499  -14.5528   20.6708 O   0  0  0  0  0  0
  -24.6247  -31.8591   23.2018 C   0  0  0  0  0  0
  -25.9090  -32.4773   23.8357 C   0  0  1  0  0  0
  -27.2153  -27.2991   20.1345 C   0  0  0  0  0  0
  -25.5912  -33.8573   24.2286 N   0  0  0  0  0  0
  -23.4188  -30.4842   21.5423 C   0  0  2  0  0  0
  -24.8643  -28.9313   20.1167 C   0  0  0  0  0  0
  -22.7462  -29.4630   22.4911 C   0  0  0  0  0  0
  -18.0286  -28.1391   22.8494 C   0  0  0  0  0  0
  -24.1478  -36.7298   23.2645 C   0  0  0  0  0  0
  -25.9609  -30.7828   21.3758 C   0  0  0  0  0  0
  -26.0321  -29.4046   20.7296 C   0  0  0  0  0  0
  -27.2102  -28.5996   20.7314 C   0  0  0  0  0  0
  -26.0367  -26.8958   19.4738 C   0  0  0  0  0  0
  -24.8688  -27.6807   19.4810 C   0  0  0  0  0  0
  -23.6355  -29.8163   20.1585 C   0  0  0  0  0  0
  -25.4103  -36.3080   24.0337 C   0  0  1  0  0  0
  -20.5885  -28.3694   23.1271 C   0  0  2  0  0  0
  -20.6769  -26.9416   22.5398 C   0  0  0  0  0  0
  -19.5740  -26.6390   21.5201 C   0  0  0  0  0  0
  -18.1926  -26.7937   22.1622 C   0  0  0  0  0  0
  -19.1541  -28.8859   23.2882 C   0  0  0  0  0  0
  -18.9470  -30.1463   23.8897 C   0  0  0  0  0  0
  -17.6472  -30.6597   24.0573 C   0  0  0  0  0  0
  -25.9040  -34.9453   23.5111 C   0  0  0  0  0  0
  -16.5362  -29.9103   23.6332 C   0  0  0  0  0  0
  -16.7276  -28.6519   23.0357 C   0  0  0  0  0  0
  -26.4483  -31.6577   25.0724 C   0  0  0  0  0  0
  -25.3725  -31.3709   26.1455 C   0  0  0  0  0  0
  -27.0336  -30.3010   24.6161 C   0  0  0  0  0  0
  -27.6050  -32.4304   25.7490 C   0  0  0  0  0  0
  -27.5572  -37.1811   24.8474 C   0  0  0  0  0  0
  -21.4174  -29.3061   22.3671 N   0  0  0  0  0  0
  -26.4281  -37.3783   23.9418 N   0  0  0  0  0  0
  -24.6868  -31.0606   22.0959 N   0  0  0  0  0  0
  -23.4189  -28.8162   23.2981 O   0  0  0  0  0  0
  -28.3463  -26.4706   20.1066 O   0  0  0  0  0  0
  -26.5615  -34.8926   22.4680 O   0  0  0  0  0  0
  -23.5406  -32.1385   23.7347 O   0  0  0  0  0  0
  -28.3913  -20.7137   25.0180 C   0  0  0  0  0  0
  -28.2281  -22.2881   23.2278 C   0  0  0  0  0  0
  -28.9346  -19.9659   22.6880 C   0  0  0  0  0  0
  -28.0773  -21.9938   24.5805 C   0  0  0  0  0  0
  -28.8193  -19.7268   24.1124 C   0  0  0  0  0  0
  -28.6731  -21.3514   22.2499 C   0  0  0  0  0  0
  -28.7748  -18.1251   20.5534 C   0  0  0  0  0  0
  -30.8183  -18.2346   21.8748 C   0  0  0  0  0  0
  -27.4249  -23.9860   19.9278 C   0  0  0  0  0  0
  -29.7216  -24.4207   20.4356 C   0  0  0  0  0  0
  -28.9361  -16.5364   20.4249 C   0  0  0  0  0  0
  -30.9924  -16.6806   21.9136 C   0  0  0  0  0  0
  -27.5281  -22.5030   20.4594 C   0  0  0  0  0  0
  -29.9433  -22.9866   21.0430 C   0  0  0  0  0  0
  -29.3415  -18.6459   21.8846 C   0  0  0  0  0  0
  -28.3210  -25.0628   20.6087 C   0  0  0  0  0  0
  -27.6157  -23.0610   25.5541 C   0  0  0  0  0  0
  -29.1518  -18.3958   24.7952 C   0  0  0  0  0  0
  -28.8332  -21.9907   20.9713 N   0  0  0  0  0  0
  -30.1390  -15.8434   21.0136 N   0  0  0  0  0  0
  -31.4566  -12.5003   19.1711 H   0  0  0  0  0  0
  -30.3162  -11.4473   19.9527 H   0  0  0  0  0  0
  -29.7781  -11.7432   17.5033 H   0  0  0  0  0  0
  -29.6376  -13.4684   17.7353 H   0  0  0  0  0  0
  -27.8816  -11.2830   18.9058 H   0  0  0  0  0  0
  -27.3696  -12.5263   17.7981 H   0  0  0  0  0  0
  -27.6259  -14.2463   19.4600 H   0  0  0  0  0  0
  -28.7079  -12.1847   21.4472 H   0  0  0  0  0  0
  -28.4235  -13.8730   21.7839 H   0  0  0  0  0  0
  -25.2764   -9.5680   22.4787 H   0  0  0  0  0  0
  -24.0006   -7.4627   22.7479 H   0  0  0  0  0  0
  -21.0852   -8.8785   19.8965 H   0  0  0  0  0  0
  -22.3724  -10.9674   19.6180 H   0  0  0  0  0  0
  -21.2009   -7.6151   23.9731 H   0  0  0  0  0  0
  -21.1480   -6.0520   25.9085 H   0  0  0  0  0  0
  -22.0596   -2.7611   23.2850 H   0  0  0  0  0  0
  -22.4031  -11.9885   22.4824 H   0  0  0  0  0  0
  -21.1054  -13.1265   22.2595 H   0  0  0  0  0  0
  -24.6429  -15.8418   20.5255 H   0  0  0  0  0  0
  -26.2603  -15.6378   20.0823 H   0  0  0  0  0  0
  -26.7154  -32.5448   23.1104 H   0  0  0  0  0  0
  -25.0061  -33.9720   25.0431 H   0  0  0  0  0  0
  -22.7140  -31.3054   21.3967 H   0  0  0  0  0  0
  -23.3737  -35.9633   23.3297 H   0  0  0  0  0  0
  -24.3573  -36.8916   22.2061 H   0  0  0  0  0  0
  -23.7228  -37.6504   23.6662 H   0  0  0  0  0  0
  -26.0912  -31.5363   20.5977 H   0  0  0  0  0  0
  -26.8431  -30.8377   22.0012 H   0  0  0  0  0  0
  -28.1088  -28.9610   21.2111 H   0  0  0  0  0  0
  -26.0100  -25.9751   18.9146 H   0  0  0  0  0  0
  -23.9815  -27.3225   18.9778 H   0  0  0  0  0  0
  -23.7636  -30.5906   19.4008 H   0  0  0  0  0  0
  -22.7540  -29.2486   19.8533 H   0  0  0  0  0  0
  -25.1274  -36.1938   25.0829 H   0  0  0  0  0  0
  -20.9999  -28.3270   24.1382 H   0  0  0  0  0  0
  -20.5649  -26.2310   23.3600 H   0  0  0  0  0  0
  -21.6643  -26.7429   22.1200 H   0  0  0  0  0  0
  -19.6890  -25.6298   21.1229 H   0  0  0  0  0  0
  -19.6679  -27.3214   20.6738 H   0  0  0  0  0  0
  -17.4189  -26.6694   21.4026 H   0  0  0  0  0  0
  -18.0331  -26.0081   22.9018 H   0  0  0  0  0  0
  -19.7948  -30.7286   24.2261 H   0  0  0  0  0  0
  -17.5031  -31.6279   24.5183 H   0  0  0  0  0  0
  -15.5368  -30.3015   23.7655 H   0  0  0  0  0  0
  -15.8667  -28.0844   22.7066 H   0  0  0  0  0  0
  -24.5907  -30.7040   25.7796 H   0  0  0  0  0  0
  -24.8909  -32.2872   26.4886 H   0  0  0  0  0  0
  -25.8066  -30.8901   27.0227 H   0  0  0  0  0  0
  -26.2914  -29.6753   24.1188 H   0  0  0  0  0  0
  -27.4064  -29.7265   25.4650 H   0  0  0  0  0  0
  -27.8762  -30.4321   23.9365 H   0  0  0  0  0  0
  -27.2676  -33.3616   26.2054 H   0  0  0  0  0  0
  -28.3878  -32.6831   25.0323 H   0  0  0  0  0  0
  -28.0687  -31.8420   26.5416 H   0  0  0  0  0  0
  -28.2602  -38.0099   24.7513 H   0  0  0  0  0  0
  -28.1050  -36.2634   24.6296 H   0  0  0  0  0  0
  -27.2296  -37.1456   25.8880 H   0  0  0  0  0  0
  -20.9332  -29.8823   21.6934 H   0  0  0  0  0  0
  -26.0153  -38.2852   24.1426 H   0  0  0  0  0  0
  -28.3017  -20.4877   26.0726 H   0  0  0  0  0  0
  -28.0134  -23.3067   22.9433 H   0  0  0  0  0  0
  -27.7164  -18.3780   20.4753 H   0  0  0  0  0  0
  -29.2630  -18.6301   19.7196 H   0  0  0  0  0  0
  -31.3121  -18.6548   20.9980 H   0  0  0  0  0  0
  -31.3399  -18.6675   22.7278 H   0  0  0  0  0  0
  -26.3768  -24.2586   20.0298 H   0  0  0  0  0  0
  -27.6331  -23.9872   18.8573 H   0  0  0  0  0  0
  -29.9471  -24.3790   19.3692 H   0  0  0  0  0  0
  -30.4744  -25.0894   20.8557 H   0  0  0  0  0  0
  -28.8464  -16.2642   19.3722 H   0  0  0  0  0  0
  -28.0760  -16.0917   20.9237 H   0  0  0  0  0  0
  -30.7789  -16.3349   22.9254 H   0  0  0  0  0  0
  -32.0555  -16.4763   21.7720 H   0  0  0  0  0  0
  -27.2230  -21.8362   19.6520 H   0  0  0  0  0  0
  -26.7431  -22.3736   21.2066 H   0  0  0  0  0  0
  -30.2886  -23.1218   22.0700 H   0  0  0  0  0  0
  -30.8039  -22.5415   20.5417 H   0  0  0  0  0  0
  -28.8410  -17.8978   22.4879 H   0  0  0  0  0  0
  -28.0750  -25.1170   21.6687 H   0  0  0  0  0  0
  -27.4355  -22.6449   26.5456 H   0  0  0  0  0  0
  -26.6890  -23.5212   25.2099 H   0  0  0  0  0  0
  -28.3707  -23.8420   25.6473 H   0  0  0  0  0  0
  -29.2284  -18.5047   25.8779 H   0  0  0  0  0  0
  -30.1115  -17.9950   24.4789 H   0  0  0  0  0  0
  -28.3744  -17.6535   24.6123 H   0  0  0  0  0  0
  1 25  1  0  0  0
  1 30  2  0  0  0
  1 90  1  0  0  0
  2  3  1  0  0  0
  2 25  1  0  0  0
  2 91  1  0  0  0
  2 92  1  0  0  0
  3  4  1  0  0  0
  3 93  1  0  0  0
  3 94  1  0  0  0
  4  5  1  0  0  0
  4 95  1  0  0  0
  4 96  1  0  0  0
  5  6  1  0  0  0
  5 26  1  0  0  0
  5 97  1  0  0  0
  6 25  1  0  0  0
  6 98  1  0  0  0
  6 99  1  0  0  0
  7  8  2  0  0  0
  7 26  1  0  0  0
  7 29  1  0  0  0
  8  9  1  0  0  0
  8 22  1  0  0  0
  9 10  1  0  0  0
  9 27  2  0  0  0
 10 11  2  0  0  0
 10 15  1  0  0  0
 11 12  1  0  0  0
 11100  1  0  0  0
 12 13  2  0  0  0
 12101  1  0  0  0
 13 14  1  0  0  0
 13 31  1  0  0  0
 14 15  2  0  0  0
 14102  1  0  0  0
 15103  1  0  0  0
 16 17  2  0  0  0
 16 21  1  0  0  0
 16 31  1  0  0  0
 17 18  1  0  0  0
 17104  1  0  0  0
 18 19  2  0  0  0
 18105  1  0  0  0
 19 20  1  0  0  0
 19 24  1  0  0  0
 20 21  2  0  0  0
 20106  1  0  0  0
 21 23  1  0  0  0
 22 28  1  0  0  0
 22 32  2  0  0  0
 26 27  1  0  0  0
 28107  1  0  0  0
 28108  1  0  0  0
 29109  1  0  0  0
 29110  1  0  0  0
 33 34  1  0  0  0
 33 66  1  0  0  0
 33 70  2  0  0  0
 34 36  1  0  0  0
 34 59  1  0  0  0
 34111  1  0  0  0
 35 44  2  0  0  0
 35 45  1  0  0  0
 35 68  1  0  0  0
 36 56  1  0  0  0
 36112  1  0  0  0
 37 39  1  0  0  0
 37 47  1  0  0  0
 37 66  1  0  0  0
 37113  1  0  0  0
 38 43  2  0  0  0
 38 46  1  0  0  0
 38 47  1  0  0  0
 39 64  1  0  0  0
 39 67  2  0  0  0
 40 52  1  0  0  0
 40 53  2  0  0  0
 40 58  1  0  0  0
 41114  1  0  0  0
 41115  1  0  0  0
 41116  1  0  0  0
 41 48  1  0  0  0
 42 43  1  0  0  0
 42 66  1  0  0  0
 42117  1  0  0  0
 42118  1  0  0  0
 43 44  1  0  0  0
 44119  1  0  0  0
 45 46  2  0  0  0
 45120  1  0  0  0
 46121  1  0  0  0
 47122  1  0  0  0
 47123  1  0  0  0
 48 56  1  0  0  0
 48 65  1  0  0  0
 48124  1  0  0  0
 49 50  1  0  0  0
 49 53  1  0  0  0
 49 64  1  0  0  0
 49125  1  0  0  0
 50 51  1  0  0  0
 50126  1  0  0  0
 50127  1  0  0  0
 51 52  1  0  0  0
 51128  1  0  0  0
 51129  1  0  0  0
 52130  1  0  0  0
 52131  1  0  0  0
 53 54  1  0  0  0
 54 55  2  0  0  0
 54132  1  0  0  0
 55 57  1  0  0  0
 55133  1  0  0  0
 56 69  2  0  0  0
 57 58  2  0  0  0
 57134  1  0  0  0
 58135  1  0  0  0
 59 60  1  0  0  0
 59 61  1  0  0  0
 59 62  1  0  0  0
 60136  1  0  0  0
 60137  1  0  0  0
 60138  1  0  0  0
 61139  1  0  0  0
 61140  1  0  0  0
 61141  1  0  0  0
 62142  1  0  0  0
 62143  1  0  0  0
 62144  1  0  0  0
 63 65  1  0  0  0
 63145  1  0  0  0
 63146  1  0  0  0
 63147  1  0  0  0
 64148  1  0  0  0
 65149  1  0  0  0
 68 86  1  0  0  0
 71 74  2  0  0  0
 71 75  1  0  0  0
 71150  1  0  0  0
 72 74  1  0  0  0
 72 76  2  0  0  0
 72151  1  0  0  0
 73 75  2  0  0  0
 73 76  1  0  0  0
 73 85  1  0  0  0
 74 87  1  0  0  0
 75 88  1  0  0  0
 76 89  1  0  0  0
 77 81  1  0  0  0
 77 85  1  0  0  0
 77152  1  0  0  0
 77153  1  0  0  0
 78 82  1  0  0  0
 78 85  1  0  0  0
 78154  1  0  0  0
 78155  1  0  0  0
 79 83  1  0  0  0
 79 86  1  0  0  0
 79156  1  0  0  0
 79157  1  0  0  0
 80 84  1  0  0  0
 80 86  1  0  0  0
 80158  1  0  0  0
 80159  1  0  0  0
 81 90  1  0  0  0
 81160  1  0  0  0
 81161  1  0  0  0
 82 90  1  0  0  0
 82162  1  0  0  0
 82163  1  0  0  0
 83 89  1  0  0  0
 83164  1  0  0  0
 83165  1  0  0  0
 84 89  1  0  0  0
 84166  1  0  0  0
 84167  1  0  0  0
 85168  1  0  0  0
 86169  1  0  0  0
 87170  1  0  0  0
 87171  1  0  0  0
 87172  1  0  0  0
 88173  1  0  0  0
 88174  1  0  0  0
 88175  1  0  0  0
M  ISO  4   1 100  68 101  86 101  90 100
M  END
> <chiral flag>
0

> <version>
0

> <s_m_source_file>
/data/baiqing/PycharmProjects/Reinvent-master-3.2/result/LINK_invent/BTK/process_docking_weight1_custom_sum_contain_oxygen_bond_distance_aromatic_linkinvent_7_9_3/rearranged_h_0153.sdf

> <i_m_source_file_index>
77

> <r_mmod_Potential_Energy-OPLS-2005>
550.407043457031

> <r_mmod_Stretch_Energy-OPLS-2005>
116.711906433105

> <r_mmod_Bend_Energy-OPLS-2005>
272.831634521484

> <r_mmod_Torsional_Energy-OPLS-2005>
417.540161132812

> <r_mmod_Improper_Torsional_Energy-OPLS-2005>
7.65841770172119

> <r_mmod_Van_der_Waal_Energy-OPLS-2005>
176.775543212891

> <r_mmod_Electrostatic_Energy-OPLS-2005>
-291.096343994141

> <r_mmod_Solvation_Energy-OPLS-2005>
-208.205001831055

> <b_mmod_Minimization_Converged-OPLS-2005>
0

> <r_mmod_RMS_Derivative-OPLS-2005>
1.50970184803009

$$$$
78
                    3D
 Structure written by MMmdl.
171180  0  0  1  0            999 V2000
  -30.7520  -14.4687   20.5619 C   0  0  0  0  0  0
  -30.4026  -12.3104   19.4201 C   0  0  0  0  0  0
  -29.4806  -12.5232   18.2039 C   0  0  0  0  0  0
  -28.0048  -12.3500   18.6124 C   0  0  0  0  0  0
  -27.6444  -13.1975   19.8602 C   0  0  2  0  0  0
  -28.6960  -13.0422   20.9874 C   0  0  0  0  0  0
  -25.2521  -13.8140   20.5679 C   0  0  0  0  0  0
  -24.1785  -13.0432   20.9220 C   0  0  0  0  0  0
  -24.6350  -11.6900   20.8760 C   0  0  0  0  0  0
  -23.9025  -10.4303   21.0409 C   0  0  0  0  0  0
  -24.3621   -9.4232   21.9205 C   0  0  0  0  0  0
  -23.6338   -8.2259   22.0773 C   0  0  0  0  0  0
  -22.4323   -8.0269   21.3560 C   0  0  0  0  0  0
  -21.9937   -9.0191   20.4663 C   0  0  0  0  0  0
  -22.7207  -10.2101   20.3053 C   0  0  0  0  0  0
  -21.6842   -6.0752   22.5298 C   0  0  0  0  0  0
  -21.3981   -6.5667   23.8231 C   0  0  0  0  0  0
  -21.3650   -5.6824   24.9195 C   0  0  0  0  0  0
  -21.6063   -4.3096   24.7246 C   0  0  0  0  0  0
  -21.8805   -3.8165   23.4383 C   0  0  0  0  0  0
  -21.9198   -4.6985   22.3438 C   0  0  0  0  0  0
  -22.7819  -13.5229   21.1857 C   0  0  0  0  0  0
  -22.1661   -4.2162   21.1014 F   0  0  0  0  0  0
  -21.5650   -3.4581   25.7783 F   0  0  0  0  0  0
  -30.0278  -13.3182   20.4285 N   0  0  0  0  0  0
  -26.2935  -12.9277   20.3346 N   0  0  0  0  0  0
  -25.9273  -11.6470   20.5791 N   0  0  0  0  0  0
  -22.0455  -12.8186   22.0391 N   0  0  0  0  0  0
  -25.4296  -15.1855   20.4024 N   0  0  0  0  0  0
  -31.9055  -14.5632   20.1359 O   0  0  0  0  0  0
  -21.6683   -6.8862   21.4254 O   0  0  0  0  0  0
  -22.3501  -14.5539   20.6734 O   0  0  0  0  0  0
  -24.6083  -31.8700   23.2104 C   0  0  0  0  0  0
  -25.9001  -32.4833   23.8405 C   0  0  1  0  0  0
  -27.2458  -27.4691   20.0894 C   0  0  0  0  0  0
  -25.5855  -33.8616   24.2341 N   0  0  0  0  0  0
  -23.3958  -30.4874   21.5525 C   0  0  2  0  0  0
  -24.8477  -28.9531   20.1186 C   0  0  0  0  0  0
  -22.7380  -29.4641   22.5049 C   0  0  0  0  0  0
  -18.0241  -28.1377   22.8498 C   0  0  0  0  0  0
  -24.1455  -36.7318   23.2639 C   0  0  0  0  0  0
  -25.9200  -30.8428   21.3598 C   0  0  0  0  0  0
  -26.0041  -29.4779   20.7107 C   0  0  0  0  0  0
  -27.2074  -28.7418   20.6984 C   0  0  0  0  0  0
  -26.0780  -26.9485   19.5011 C   0  0  0  0  0  0
  -24.8755  -27.6837   19.5155 C   0  0  0  0  0  0
  -23.6015  -29.8076   20.1712 C   0  0  0  0  0  0
  -25.4093  -36.3127   24.0335 C   0  0  1  0  0  0
  -20.5832  -28.3641   23.1322 C   0  0  2  0  0  0
  -20.6737  -26.9366   22.5424 C   0  0  0  0  0  0
  -19.5710  -26.6368   21.5220 C   0  0  0  0  0  0
  -18.1878  -26.7927   22.1596 C   0  0  0  0  0  0
  -19.1501  -28.8813   23.2905 C   0  0  0  0  0  0
  -18.9437  -30.1461   23.8884 C   0  0  0  0  0  0
  -17.6448  -30.6595   24.0535 C   0  0  0  0  0  0
  -25.9015  -34.9489   23.5129 C   0  0  0  0  0  0
  -16.5324  -29.9064   23.6361 C   0  0  0  0  0  0
  -16.7242  -28.6490   23.0378 C   0  0  0  0  0  0
  -26.4446  -31.6585   25.0727 C   0  0  0  0  0  0
  -25.3729  -31.3659   26.1474 C   0  0  0  0  0  0
  -27.0281  -30.3017   24.6107 C   0  0  0  0  0  0
  -27.6022  -32.4286   25.7515 C   0  0  0  0  0  0
  -27.5574  -37.1800   24.8471 C   0  0  0  0  0  0
  -21.4104  -29.3025   22.3774 N   0  0  0  0  0  0
  -26.4288  -37.3823   23.9410 N   0  0  0  0  0  0
  -24.6612  -31.0806   22.1010 N   0  0  0  0  0  0
  -23.4176  -28.8182   23.3087 O   0  0  0  0  0  0
  -28.4031  -26.7353   20.0485 O   0  0  0  0  0  0
  -26.5606  -34.8933   22.4724 O   0  0  0  0  0  0
  -23.5299  -32.1453   23.7539 O   0  0  0  0  0  0
  -30.3099  -21.8917   20.0926 C   0  0  0  0  0  0
  -29.0861  -22.2914   18.0524 C   0  0  0  0  0  0
  -30.7923  -20.6855   19.5268 C   0  0  0  0  0  0
  -29.4230  -22.7110   19.3529 C   0  0  0  0  0  0
  -30.3996  -20.3871   18.1979 C   0  0  0  0  0  0
  -29.5550  -17.7077   20.1080 C   0  0  0  0  0  0
  -29.1251  -16.2497   20.2436 C   0  0  0  0  0  0
  -30.9154  -16.6201   21.7653 C   0  0  0  0  0  0
  -30.2518  -17.9732   21.4312 C   0  0  1  0  0  0
  -33.0561  -20.5122   20.6593 C   0  0  0  0  0  0
  -30.3888  -18.9356   16.2738 C   0  0  0  0  0  0
  -29.4768  -24.7107   20.8604 C   0  0  0  0  0  0
  -28.6029  -25.9302   21.2078 C   0  0  0  0  0  0
  -31.7509  -19.7661   20.3138 C   0  0  1  0  0  0
  -29.5609  -21.1696   17.4869 N   0  0  0  0  0  0
  -30.1302  -15.5626   21.0784 N   0  0  0  0  0  0
  -28.8394  -23.8961   19.8318 N   0  0  0  0  0  0
  -31.1421  -19.1710   21.5427 N   0  3  0  0  0  0
  -30.8940  -19.2632   17.5681 O   0  0  0  0  0  0
  -31.4488  -12.3775   19.1160 H   0  0  0  0  0  0
  -30.2709  -11.3026   19.8210 H   0  0  0  0  0  0
  -29.7337  -11.8309   17.4005 H   0  0  0  0  0  0
  -29.6349  -13.5247   17.8005 H   0  0  0  0  0  0
  -27.8251  -11.2925   18.8116 H   0  0  0  0  0  0
  -27.3503  -12.6134   17.7798 H   0  0  0  0  0  0
  -27.6439  -14.2251   19.5157 H   0  0  0  0  0  0
  -28.6758  -12.0285   21.3857 H   0  0  0  0  0  0
  -28.4668  -13.7030   21.8261 H   0  0  0  0  0  0
  -25.2747   -9.5787   22.4794 H   0  0  0  0  0  0
  -24.0077   -7.4683   22.7510 H   0  0  0  0  0  0
  -21.0868   -8.8666   19.8965 H   0  0  0  0  0  0
  -22.3627  -10.9640   19.6177 H   0  0  0  0  0  0
  -21.1910   -7.6167   23.9734 H   0  0  0  0  0  0
  -21.1485   -6.0562   25.9096 H   0  0  0  0  0  0
  -22.0581   -2.7629   23.2889 H   0  0  0  0  0  0
  -22.4050  -11.9826   22.4760 H   0  0  0  0  0  0
  -21.1043  -13.1168   22.2593 H   0  0  0  0  0  0
  -24.6718  -15.8493   20.5204 H   0  0  0  0  0  0
  -26.2829  -15.6117   20.0685 H   0  0  0  0  0  0
  -26.7064  -32.5542   23.1175 H   0  0  0  0  0  0
  -24.9974  -33.9797   25.0462 H   0  0  0  0  0  0
  -22.6825  -31.3011   21.4058 H   0  0  0  0  0  0
  -23.3747  -35.9610   23.3278 H   0  0  0  0  0  0
  -24.3546  -36.8994   22.2058 H   0  0  0  0  0  0
  -23.7158  -37.6483   23.6700 H   0  0  0  0  0  0
  -26.0232  -31.6097   20.5909 H   0  0  0  0  0  0
  -26.8087  -30.9043   21.9749 H   0  0  0  0  0  0
  -28.1030  -29.1482   21.1450 H   0  0  0  0  0  0
  -26.0972  -25.9751   19.0331 H   0  0  0  0  0  0
  -23.9824  -27.2693   19.0691 H   0  0  0  0  0  0
  -23.6871  -30.5728   19.3978 H   0  0  0  0  0  0
  -22.7353  -29.2071   19.8887 H   0  0  0  0  0  0
  -25.1276  -36.2003   25.0831 H   0  0  0  0  0  0
  -20.9887  -28.3176   24.1456 H   0  0  0  0  0  0
  -20.5638  -26.2228   23.3612 H   0  0  0  0  0  0
  -21.6595  -26.7422   22.1180 H   0  0  0  0  0  0
  -19.6838  -25.6267   21.1263 H   0  0  0  0  0  0
  -19.6684  -27.3169   20.6748 H   0  0  0  0  0  0
  -17.4171  -26.6748   21.3964 H   0  0  0  0  0  0
  -18.0213  -26.0055   22.8959 H   0  0  0  0  0  0
  -19.7923  -30.7303   24.2205 H   0  0  0  0  0  0
  -17.4986  -31.6299   24.5091 H   0  0  0  0  0  0
  -15.5320  -30.2952   23.7733 H   0  0  0  0  0  0
  -15.8616  -28.0801   22.7110 H   0  0  0  0  0  0
  -24.5878  -30.7051   25.7805 H   0  0  0  0  0  0
  -24.8962  -32.2799   26.5003 H   0  0  0  0  0  0
  -25.8085  -30.8759   27.0185 H   0  0  0  0  0  0
  -26.2830  -29.6748   24.1183 H   0  0  0  0  0  0
  -27.4065  -29.7276   25.4584 H   0  0  0  0  0  0
  -27.8657  -30.4327   23.9242 H   0  0  0  0  0  0
  -27.2633  -33.3577   26.2111 H   0  0  0  0  0  0
  -28.3847  -32.6843   25.0357 H   0  0  0  0  0  0
  -28.0640  -31.8368   26.5435 H   0  0  0  0  0  0
  -28.2593  -38.0106   24.7547 H   0  0  0  0  0  0
  -28.1081  -36.2633   24.6276 H   0  0  0  0  0  0
  -27.2285  -37.1413   25.8880 H   0  0  0  0  0  0
  -20.9262  -29.8744   21.6975 H   0  0  0  0  0  0
  -26.0176  -38.2895   24.1467 H   0  0  0  0  0  0
  -30.6119  -22.1733   21.0902 H   0  0  0  0  0  0
  -28.4219  -22.8845   17.4427 H   0  0  0  0  0  0
  -28.7296  -18.3929   19.8998 H   0  0  0  0  0  0
  -30.2479  -17.7433   19.2748 H   0  0  0  0  0  0
  -29.0443  -15.8258   19.2402 H   0  0  0  0  0  0
  -28.1515  -16.1788   20.7291 H   0  0  0  0  0  0
  -30.9146  -16.4459   22.8449 H   0  0  0  0  0  0
  -31.9610  -16.6214   21.4498 H   0  0  0  0  0  0
  -29.4679  -18.1359   22.1748 H   0  0  0  0  0  0
  -33.4886  -20.9601   19.7627 H   0  0  0  0  0  0
  -33.8085  -19.8354   21.0711 H   0  0  0  0  0  0
  -32.8950  -21.3096   21.3853 H   0  0  0  0  0  0
  -30.8853  -18.0438   15.8988 H   0  0  0  0  0  0
  -30.5744  -19.7347   15.5554 H   0  0  0  0  0  0
  -29.3177  -18.7300   16.3066 H   0  0  0  0  0  0
  -29.6284  -24.1194   21.7641 H   0  0  0  0  0  0
  -30.4578  -25.0442   20.5208 H   0  0  0  0  0  0
  -29.0913  -26.5297   21.9772 H   0  0  0  0  0  0
  -27.6500  -25.5949   21.6231 H   0  0  0  0  0  0
  -32.0699  -18.9448   19.6739 H   0  0  0  0  0  0
  -28.2862  -24.4330   19.1645 H   0  0  0  0  0  0
  -31.8951  -18.9008   22.1571 H   0  0  0  0  0  0
  -30.6351  -19.8888   22.0400 H   0  0  0  0  0  0
  1 25  1  0  0  0
  1 30  2  0  0  0
  1 86  1  0  0  0
  2  3  1  0  0  0
  2 25  1  0  0  0
  2 90  1  0  0  0
  2 91  1  0  0  0
  3  4  1  0  0  0
  3 92  1  0  0  0
  3 93  1  0  0  0
  4  5  1  0  0  0
  4 94  1  0  0  0
  4 95  1  0  0  0
  5  6  1  0  0  0
  5 26  1  0  0  0
  5 96  1  0  0  0
  6 25  1  0  0  0
  6 97  1  0  0  0
  6 98  1  0  0  0
  7  8  2  0  0  0
  7 26  1  0  0  0
  7 29  1  0  0  0
  8  9  1  0  0  0
  8 22  1  0  0  0
  9 10  1  0  0  0
  9 27  2  0  0  0
 10 11  2  0  0  0
 10 15  1  0  0  0
 11 12  1  0  0  0
 11 99  1  0  0  0
 12 13  2  0  0  0
 12100  1  0  0  0
 13 14  1  0  0  0
 13 31  1  0  0  0
 14 15  2  0  0  0
 14101  1  0  0  0
 15102  1  0  0  0
 16 17  2  0  0  0
 16 21  1  0  0  0
 16 31  1  0  0  0
 17 18  1  0  0  0
 17103  1  0  0  0
 18 19  2  0  0  0
 18104  1  0  0  0
 19 20  1  0  0  0
 19 24  1  0  0  0
 20 21  2  0  0  0
 20105  1  0  0  0
 21 23  1  0  0  0
 22 28  1  0  0  0
 22 32  2  0  0  0
 26 27  1  0  0  0
 28106  1  0  0  0
 28107  1  0  0  0
 29108  1  0  0  0
 29109  1  0  0  0
 33 34  1  0  0  0
 33 66  1  0  0  0
 33 70  2  0  0  0
 34 36  1  0  0  0
 34 59  1  0  0  0
 34110  1  0  0  0
 35 44  2  0  0  0
 35 45  1  0  0  0
 35 68  1  0  0  0
 36 56  1  0  0  0
 36111  1  0  0  0
 37 39  1  0  0  0
 37 47  1  0  0  0
 37 66  1  0  0  0
 37112  1  0  0  0
 38 43  2  0  0  0
 38 46  1  0  0  0
 38 47  1  0  0  0
 39 64  1  0  0  0
 39 67  2  0  0  0
 40 52  1  0  0  0
 40 53  2  0  0  0
 40 58  1  0  0  0
 41113  1  0  0  0
 41114  1  0  0  0
 41115  1  0  0  0
 41 48  1  0  0  0
 42 43  1  0  0  0
 42 66  1  0  0  0
 42116  1  0  0  0
 42117  1  0  0  0
 43 44  1  0  0  0
 44118  1  0  0  0
 45 46  2  0  0  0
 45119  1  0  0  0
 46120  1  0  0  0
 47121  1  0  0  0
 47122  1  0  0  0
 48 56  1  0  0  0
 48 65  1  0  0  0
 48123  1  0  0  0
 49 50  1  0  0  0
 49 53  1  0  0  0
 49 64  1  0  0  0
 49124  1  0  0  0
 50 51  1  0  0  0
 50125  1  0  0  0
 50126  1  0  0  0
 51 52  1  0  0  0
 51127  1  0  0  0
 51128  1  0  0  0
 52129  1  0  0  0
 52130  1  0  0  0
 53 54  1  0  0  0
 54 55  2  0  0  0
 54131  1  0  0  0
 55 57  1  0  0  0
 55132  1  0  0  0
 56 69  2  0  0  0
 57 58  2  0  0  0
 57133  1  0  0  0
 58134  1  0  0  0
 59 60  1  0  0  0
 59 61  1  0  0  0
 59 62  1  0  0  0
 60135  1  0  0  0
 60136  1  0  0  0
 60137  1  0  0  0
 61138  1  0  0  0
 61139  1  0  0  0
 61140  1  0  0  0
 62141  1  0  0  0
 62142  1  0  0  0
 62143  1  0  0  0
 63 65  1  0  0  0
 63144  1  0  0  0
 63145  1  0  0  0
 63146  1  0  0  0
 64147  1  0  0  0
 65148  1  0  0  0
 68 83  1  0  0  0
 71 73  2  0  0  0
 71 74  1  0  0  0
 71149  1  0  0  0
 72 74  2  0  0  0
 72 85  1  0  0  0
 72150  1  0  0  0
 73 75  1  0  0  0
 73 84  1  0  0  0
 74 87  1  0  0  0
 75 85  2  0  0  0
 75 89  1  0  0  0
 76 77  1  0  0  0
 76 79  1  0  0  0
 76151  1  0  0  0
 76152  1  0  0  0
 77 86  1  0  0  0
 77153  1  0  0  0
 77154  1  0  0  0
 78 79  1  0  0  0
 78 86  1  0  0  0
 78155  1  0  0  0
 78156  1  0  0  0
 79 88  1  0  0  0
 79157  1  0  0  0
 80158  1  0  0  0
 80159  1  0  0  0
 80160  1  0  0  0
 80 84  1  0  0  0
 81 89  1  0  0  0
 81161  1  0  0  0
 81162  1  0  0  0
 81163  1  0  0  0
 82 83  1  0  0  0
 82 87  1  0  0  0
 82164  1  0  0  0
 82165  1  0  0  0
 83166  1  0  0  0
 83167  1  0  0  0
 84 88  1  0  0  0
 84168  1  0  0  0
 87169  1  0  0  0
 88170  1  0  0  0
 88171  1  0  0  0
M  CHG  1  88   1
M  ISO  4   1 100  68 101  83 101  86 100
M  END
> <chiral flag>
0

> <version>
0

> <s_m_source_file>
/data/baiqing/PycharmProjects/Reinvent-master-3.2/result/LINK_invent/BTK/process_docking_weight1_custom_sum_contain_oxygen_bond_distance_aromatic_linkinvent_7_9_3/rearranged_h_0153.sdf

> <i_m_source_file_index>
78

> <r_mmod_Potential_Energy-OPLS-2005>
-53.3492889404297

> <r_mmod_Stretch_Energy-OPLS-2005>
41.9690780639648

> <r_mmod_Bend_Energy-OPLS-2005>
149.470352172852

> <r_mmod_Torsional_Energy-OPLS-2005>
351.282653808594

> <r_mmod_Improper_Torsional_Energy-OPLS-2005>
9.37329196929932

> <r_mmod_Van_der_Waal_Energy-OPLS-2005>
159.486709594727

> <r_mmod_Electrostatic_Energy-OPLS-2005>
-317.174041748047

> <r_mmod_Solvation_Energy-OPLS-2005>
-462.15673828125

> <b_mmod_Minimization_Converged-OPLS-2005>
0

> <r_mmod_RMS_Derivative-OPLS-2005>
5.00449752807617

$$$$
79
                    3D
 Structure written by MMmdl.
170179  0  0  1  0            999 V2000
  -30.6337  -14.6160   20.5261 C   0  0  0  0  0  0
  -30.4335  -12.3900   19.4308 C   0  0  0  0  0  0
  -29.4916  -12.5224   18.2130 C   0  0  0  0  0  0
  -28.0127  -12.3769   18.6352 C   0  0  0  0  0  0
  -27.6567  -13.2153   19.8912 C   0  0  2  0  0  0
  -28.7122  -12.9951   20.9966 C   0  0  0  0  0  0
  -25.2547  -13.8125   20.5791 C   0  0  0  0  0  0
  -24.1798  -13.0375   20.9218 C   0  0  0  0  0  0
  -24.6388  -11.6871   20.8777 C   0  0  0  0  0  0
  -23.9075  -10.4263   21.0425 C   0  0  0  0  0  0
  -24.3619   -9.4192   21.9207 C   0  0  0  0  0  0
  -23.6291   -8.2234   22.0750 C   0  0  0  0  0  0
  -22.4276   -8.0283   21.3542 C   0  0  0  0  0  0
  -21.9918   -9.0264   20.4650 C   0  0  0  0  0  0
  -22.7253  -10.2137   20.3072 C   0  0  0  0  0  0
  -21.6863   -6.0734   22.5272 C   0  0  0  0  0  0
  -21.4021   -6.5629   23.8206 C   0  0  0  0  0  0
  -21.3651   -5.6786   24.9171 C   0  0  0  0  0  0
  -21.6047   -4.3050   24.7226 C   0  0  0  0  0  0
  -21.8814   -3.8138   23.4346 C   0  0  0  0  0  0
  -21.9200   -4.6959   22.3405 C   0  0  0  0  0  0
  -22.7835  -13.5192   21.1860 C   0  0  0  0  0  0
  -22.1665   -4.2136   21.0991 F   0  0  0  0  0  0
  -21.5644   -3.4539   25.7741 F   0  0  0  0  0  0
  -30.0093  -13.3946   20.4310 N   0  0  0  0  0  0
  -26.3030  -12.9346   20.3563 N   0  0  0  0  0  0
  -25.9348  -11.6486   20.5904 N   0  0  0  0  0  0
  -22.0477  -12.8211   22.0441 N   0  0  0  0  0  0
  -25.4087  -15.1835   20.4254 N   0  0  0  0  0  0
  -31.7919  -14.7418   20.1087 O   0  0  0  0  0  0
  -21.6637   -6.8881   21.4235 O   0  0  0  0  0  0
  -22.3529  -14.5496   20.6701 O   0  0  0  0  0  0
  -24.6282  -31.8558   23.1990 C   0  0  0  0  0  0
  -25.9118  -32.4758   23.8327 C   0  0  1  0  0  0
  -27.2350  -27.3134   20.1269 C   0  0  0  0  0  0
  -25.5924  -33.8556   24.2253 N   0  0  0  0  0  0
  -23.4226  -30.4758   21.5431 C   0  0  2  0  0  0
  -24.8697  -28.9201   20.1180 C   0  0  0  0  0  0
  -22.7476  -29.4597   22.4947 C   0  0  0  0  0  0
  -18.0289  -28.1403   22.8494 C   0  0  0  0  0  0
  -24.1476  -36.7293   23.2634 C   0  0  0  0  0  0
  -25.9600  -30.7878   21.3652 C   0  0  0  0  0  0
  -26.0390  -29.4108   20.7136 C   0  0  0  0  0  0
  -27.2260  -28.6222   20.6994 C   0  0  0  0  0  0
  -26.0436  -26.8642   19.5175 C   0  0  0  0  0  0
  -24.8745  -27.6533   19.5094 C   0  0  0  0  0  0
  -23.6372  -29.7999   20.1625 C   0  0  0  0  0  0
  -25.4106  -36.3067   24.0316 C   0  0  1  0  0  0
  -20.5873  -28.3689   23.1294 C   0  0  2  0  0  0
  -20.6769  -26.9411   22.5414 C   0  0  0  0  0  0
  -19.5754  -26.6397   21.5210 C   0  0  0  0  0  0
  -18.1937  -26.7947   22.1621 C   0  0  0  0  0  0
  -19.1534  -28.8869   23.2891 C   0  0  0  0  0  0
  -18.9450  -30.1470   23.8909 C   0  0  0  0  0  0
  -17.6441  -30.6596   24.0564 C   0  0  0  0  0  0
  -25.9046  -34.9434   23.5090 C   0  0  0  0  0  0
  -16.5333  -29.9094   23.6334 C   0  0  0  0  0  0
  -16.7268  -28.6517   23.0356 C   0  0  0  0  0  0
  -26.4510  -31.6579   25.0701 C   0  0  0  0  0  0
  -25.3761  -31.3707   26.1445 C   0  0  0  0  0  0
  -27.0323  -30.2996   24.6139 C   0  0  0  0  0  0
  -27.6053  -32.4324   25.7489 C   0  0  0  0  0  0
  -27.5568  -37.1809   24.8469 C   0  0  0  0  0  0
  -21.4178  -29.3036   22.3685 N   0  0  0  0  0  0
  -26.4286  -37.3764   23.9394 N   0  0  0  0  0  0
  -24.6898  -31.0556   22.0945 N   0  0  0  0  0  0
  -23.4187  -28.8143   23.3037 O   0  0  0  0  0  0
  -28.3730  -26.4963   20.1207 O   0  0  0  0  0  0
  -26.5603  -34.8916   22.4649 O   0  0  0  0  0  0
  -23.5438  -32.1335   23.7332 O   0  0  0  0  0  0
  -29.8837  -22.1095   21.2646 C   0  0  0  0  0  0
  -28.6369  -21.3777   19.3629 C   0  0  0  0  0  0
  -29.1205  -22.4733   20.1296 C   0  0  0  0  0  0
  -30.1149  -20.7321   21.5799 C   0  0  0  0  0  0
  -29.6040  -19.7153   20.7265 C   0  0  0  0  0  0
  -30.0840  -17.0748   20.0665 C   0  0  0  0  0  0
  -28.9973  -16.0016   21.8876 C   0  0  0  0  0  0
  -29.8126  -18.1975   21.1161 C   0  0  2  0  0  0
  -28.8445  -17.5322   22.1156 C   0  0  2  0  0  0
  -33.0173  -21.1010   22.2683 C   0  0  0  0  0  0
  -27.1128  -19.3652   22.8074 C   0  0  0  0  0  0
  -28.9558  -23.9722   19.6527 C   0  0  0  0  0  0
  -31.8318  -21.1006   23.2406 C   0  0  0  0  0  0
  -28.2654  -25.0822   20.5590 C   0  0  0  0  0  0
  -27.3581  -17.9887   22.1749 C   0  0  1  0  0  0
  -28.8642  -20.0591   19.6404 N   0  0  0  0  0  0
  -29.8547  -15.7440   20.7167 N   0  0  0  0  0  0
  -26.7392  -17.9469   20.9062 O   0  0  0  0  0  0
  -30.7716  -20.3156   22.7192 O   0  0  0  0  0  0
  -31.4704  -12.5164   19.1163 H   0  0  0  0  0  0
  -30.3782  -11.3848   19.8510 H   0  0  0  0  0  0
  -29.7401  -11.7773   17.4544 H   0  0  0  0  0  0
  -29.6395  -13.4967   17.7453 H   0  0  0  0  0  0
  -27.8281  -11.3227   18.8396 H   0  0  0  0  0  0
  -27.3525  -12.6511   17.8117 H   0  0  0  0  0  0
  -27.6907  -14.2637   19.5955 H   0  0  0  0  0  0
  -28.7398  -11.9407   21.2768 H   0  0  0  0  0  0
  -28.4729  -13.4983   21.9288 H   0  0  0  0  0  0
  -25.2754   -9.5673   22.4796 H   0  0  0  0  0  0
  -24.0002   -7.4616   22.7454 H   0  0  0  0  0  0
  -21.0858   -8.8801   19.8946 H   0  0  0  0  0  0
  -22.3728  -10.9696   19.6195 H   0  0  0  0  0  0
  -21.1996   -7.6130   23.9708 H   0  0  0  0  0  0
  -21.1483   -6.0517   25.9077 H   0  0  0  0  0  0
  -22.0593   -2.7598   23.2859 H   0  0  0  0  0  0
  -22.4108  -11.9897   22.4859 H   0  0  0  0  0  0
  -21.1091  -13.1251   22.2610 H   0  0  0  0  0  0
  -24.6147  -15.8027   20.5389 H   0  0  0  0  0  0
  -26.2686  -15.6858   20.2287 H   0  0  0  0  0  0
  -26.7177  -32.5420   23.1069 H   0  0  0  0  0  0
  -25.0083  -33.9688   25.0412 H   0  0  0  0  0  0
  -22.7175  -31.2965   21.3963 H   0  0  0  0  0  0
  -23.3722  -35.9650   23.3332 H   0  0  0  0  0  0
  -24.3545  -36.8886   22.2041 H   0  0  0  0  0  0
  -23.7285  -37.6523   23.6644 H   0  0  0  0  0  0
  -26.0791  -31.5474   20.5903 H   0  0  0  0  0  0
  -26.8461  -30.8459   21.9874 H   0  0  0  0  0  0
  -28.1292  -29.0018   21.1544 H   0  0  0  0  0  0
  -26.0114  -25.8920   19.0432 H   0  0  0  0  0  0
  -23.9771  -27.2753   19.0394 H   0  0  0  0  0  0
  -23.7524  -30.5712   19.3998 H   0  0  0  0  0  0
  -22.7587  -29.2248   19.8656 H   0  0  0  0  0  0
  -25.1299  -36.1909   25.0812 H   0  0  0  0  0  0
  -20.9964  -28.3275   24.1413 H   0  0  0  0  0  0
  -20.5669  -26.2286   23.3605 H   0  0  0  0  0  0
  -21.6641  -26.7447   22.1201 H   0  0  0  0  0  0
  -19.6897  -25.6315   21.1245 H   0  0  0  0  0  0
  -19.6714  -27.3199   20.6735 H   0  0  0  0  0  0
  -17.4191  -26.6693   21.4028 H   0  0  0  0  0  0
  -18.0349  -26.0099   22.9027 H   0  0  0  0  0  0
  -19.7917  -30.7302   24.2275 H   0  0  0  0  0  0
  -17.4989  -31.6281   24.5164 H   0  0  0  0  0  0
  -15.5339  -30.2987   23.7668 H   0  0  0  0  0  0
  -15.8668  -28.0836   22.7056 H   0  0  0  0  0  0
  -24.5940  -30.7039   25.7801 H   0  0  0  0  0  0
  -24.8948  -32.2854   26.4899 H   0  0  0  0  0  0
  -25.8118  -30.8889   27.0202 H   0  0  0  0  0  0
  -26.2856  -29.6781   24.1173 H   0  0  0  0  0  0
  -27.4011  -29.7235   25.4636 H   0  0  0  0  0  0
  -27.8743  -30.4265   23.9330 H   0  0  0  0  0  0
  -27.2634  -33.3616   26.2062 H   0  0  0  0  0  0
  -28.3876  -32.6905   25.0339 H   0  0  0  0  0  0
  -28.0703  -31.8455   26.5421 H   0  0  0  0  0  0
  -28.2608  -38.0076   24.7447 H   0  0  0  0  0  0
  -28.1027  -36.2600   24.6374 H   0  0  0  0  0  0
  -27.2255  -37.1559   25.8863 H   0  0  0  0  0  0
  -20.9364  -29.8720   21.6861 H   0  0  0  0  0  0
  -26.0159  -38.2830   24.1408 H   0  0  0  0  0  0
  -30.2840  -22.8926   21.8896 H   0  0  0  0  0  0
  -28.0629  -21.5549   18.4665 H   0  0  0  0  0  0
  -31.0872  -17.1661   19.6501 H   0  0  0  0  0  0
  -29.3804  -17.1582   19.2379 H   0  0  0  0  0  0
  -28.0126  -15.5640   21.7293 H   0  0  0  0  0  0
  -29.4264  -15.5307   22.7740 H   0  0  0  0  0  0
  -30.7733  -18.2099   21.6331 H   0  0  0  0  0  0
  -29.2413  -17.7458   23.1102 H   0  0  0  0  0  0
  -33.3179  -20.0823   22.0191 H   0  0  0  0  0  0
  -33.8785  -21.6091   22.7012 H   0  0  0  0  0  0
  -32.7734  -21.6061   21.3338 H   0  0  0  0  0  0
  -27.6141  -19.4531   23.7728 H   0  0  0  0  0  0
  -26.0476  -19.5230   22.9794 H   0  0  0  0  0  0
  -27.4536  -20.1822   22.1754 H   0  0  0  0  0  0
  -28.4297  -23.9581   18.6983 H   0  0  0  0  0  0
  -29.9613  -24.3204   19.4147 H   0  0  0  0  0  0
  -31.5097  -22.1046   23.5121 H   0  0  0  0  0  0
  -32.1430  -20.6238   24.1717 H   0  0  0  0  0  0
  -28.7396  -25.0475   21.5413 H   0  0  0  0  0  0
  -27.2279  -24.8011   20.7365 H   0  0  0  0  0  0
  -26.8277  -17.2706   22.8035 H   0  0  0  0  0  0
  -25.8151  -18.1441   21.0246 H   0  0  0  0  0  0
  1 25  1  0  0  0
  1 30  2  0  0  0
  1 87  1  0  0  0
  2  3  1  0  0  0
  2 25  1  0  0  0
  2 90  1  0  0  0
  2 91  1  0  0  0
  3  4  1  0  0  0
  3 92  1  0  0  0
  3 93  1  0  0  0
  4  5  1  0  0  0
  4 94  1  0  0  0
  4 95  1  0  0  0
  5  6  1  0  0  0
  5 26  1  0  0  0
  5 96  1  0  0  0
  6 25  1  0  0  0
  6 97  1  0  0  0
  6 98  1  0  0  0
  7  8  2  0  0  0
  7 26  1  0  0  0
  7 29  1  0  0  0
  8  9  1  0  0  0
  8 22  1  0  0  0
  9 10  1  0  0  0
  9 27  2  0  0  0
 10 11  2  0  0  0
 10 15  1  0  0  0
 11 12  1  0  0  0
 11 99  1  0  0  0
 12 13  2  0  0  0
 12100  1  0  0  0
 13 14  1  0  0  0
 13 31  1  0  0  0
 14 15  2  0  0  0
 14101  1  0  0  0
 15102  1  0  0  0
 16 17  2  0  0  0
 16 21  1  0  0  0
 16 31  1  0  0  0
 17 18  1  0  0  0
 17103  1  0  0  0
 18 19  2  0  0  0
 18104  1  0  0  0
 19 20  1  0  0  0
 19 24  1  0  0  0
 20 21  2  0  0  0
 20105  1  0  0  0
 21 23  1  0  0  0
 22 28  1  0  0  0
 22 32  2  0  0  0
 26 27  1  0  0  0
 28106  1  0  0  0
 28107  1  0  0  0
 29108  1  0  0  0
 29109  1  0  0  0
 33 34  1  0  0  0
 33 66  1  0  0  0
 33 70  2  0  0  0
 34 36  1  0  0  0
 34 59  1  0  0  0
 34110  1  0  0  0
 35 44  2  0  0  0
 35 45  1  0  0  0
 35 68  1  0  0  0
 36 56  1  0  0  0
 36111  1  0  0  0
 37 39  1  0  0  0
 37 47  1  0  0  0
 37 66  1  0  0  0
 37112  1  0  0  0
 38 43  2  0  0  0
 38 46  1  0  0  0
 38 47  1  0  0  0
 39 64  1  0  0  0
 39 67  2  0  0  0
 40 52  1  0  0  0
 40 53  2  0  0  0
 40 58  1  0  0  0
 41113  1  0  0  0
 41114  1  0  0  0
 41115  1  0  0  0
 41 48  1  0  0  0
 42 43  1  0  0  0
 42 66  1  0  0  0
 42116  1  0  0  0
 42117  1  0  0  0
 43 44  1  0  0  0
 44118  1  0  0  0
 45 46  2  0  0  0
 45119  1  0  0  0
 46120  1  0  0  0
 47121  1  0  0  0
 47122  1  0  0  0
 48 56  1  0  0  0
 48 65  1  0  0  0
 48123  1  0  0  0
 49 50  1  0  0  0
 49 53  1  0  0  0
 49 64  1  0  0  0
 49124  1  0  0  0
 50 51  1  0  0  0
 50125  1  0  0  0
 50126  1  0  0  0
 51 52  1  0  0  0
 51127  1  0  0  0
 51128  1  0  0  0
 52129  1  0  0  0
 52130  1  0  0  0
 53 54  1  0  0  0
 54 55  2  0  0  0
 54131  1  0  0  0
 55 57  1  0  0  0
 55132  1  0  0  0
 56 69  2  0  0  0
 57 58  2  0  0  0
 57133  1  0  0  0
 58134  1  0  0  0
 59 60  1  0  0  0
 59 61  1  0  0  0
 59 62  1  0  0  0
 60135  1  0  0  0
 60136  1  0  0  0
 60137  1  0  0  0
 61138  1  0  0  0
 61139  1  0  0  0
 61140  1  0  0  0
 62141  1  0  0  0
 62142  1  0  0  0
 62143  1  0  0  0
 63 65  1  0  0  0
 63144  1  0  0  0
 63145  1  0  0  0
 63146  1  0  0  0
 64147  1  0  0  0
 65148  1  0  0  0
 68 84  1  0  0  0
 71 73  2  0  0  0
 71 74  1  0  0  0
 71149  1  0  0  0
 72 73  1  0  0  0
 72 86  2  0  0  0
 72150  1  0  0  0
 73 82  1  0  0  0
 74 75  2  0  0  0
 74 89  1  0  0  0
 75 86  1  0  0  0
 75 78  1  0  0  0
 76 78  1  0  0  0
 76 87  1  0  0  0
 76151  1  0  0  0
 76152  1  0  0  0
 77 87  1  0  0  0
 77153  1  0  0  0
 77154  1  0  0  0
 77 79  1  0  0  0
 78 79  1  0  0  0
 78155  1  0  0  0
 79 85  1  0  0  0
 79156  1  0  0  0
 80 83  1  0  0  0
 80157  1  0  0  0
 80158  1  0  0  0
 80159  1  0  0  0
 81160  1  0  0  0
 81161  1  0  0  0
 81162  1  0  0  0
 81 85  1  0  0  0
 82 84  1  0  0  0
 82163  1  0  0  0
 82164  1  0  0  0
 83 89  1  0  0  0
 83165  1  0  0  0
 83166  1  0  0  0
 84167  1  0  0  0
 84168  1  0  0  0
 85 88  1  0  0  0
 85169  1  0  0  0
 88170  1  0  0  0
M  ISO  4   1 100  68 101  84 101  87 100
M  END
> <chiral flag>
0

> <version>
0

> <s_m_source_file>
/data/baiqing/PycharmProjects/Reinvent-master-3.2/result/LINK_invent/BTK/process_docking_weight1_custom_sum_contain_oxygen_bond_distance_aromatic_linkinvent_7_9_3/rearranged_h_0153.sdf

> <i_m_source_file_index>
79

> <r_mmod_Potential_Energy-OPLS-2005>
151.988388061523

> <r_mmod_Stretch_Energy-OPLS-2005>
82.3179702758789

> <r_mmod_Bend_Energy-OPLS-2005>
190.521438598633

> <r_mmod_Torsional_Energy-OPLS-2005>
348.543731689453

> <r_mmod_Improper_Torsional_Energy-OPLS-2005>
12.5966863632202

> <r_mmod_Van_der_Waal_Energy-OPLS-2005>
137.11897277832

> <r_mmod_Electrostatic_Energy-OPLS-2005>
-440.08642578125

> <r_mmod_Solvation_Energy-OPLS-2005>
-219.377212524414

> <b_mmod_Minimization_Converged-OPLS-2005>
0

> <r_mmod_RMS_Derivative-OPLS-2005>
3.39994740486145

$$$$
80
                    3D
 Structure written by MMmdl.
175185  0  0  1  0            999 V2000
  -30.7116  -14.4420   20.5836 C   0  0  0  0  0  0
  -30.4209  -12.2882   19.4197 C   0  0  0  0  0  0
  -29.4933  -12.5022   18.2057 C   0  0  0  0  0  0
  -28.0143  -12.3549   18.6157 C   0  0  0  0  0  0
  -27.6598  -13.1936   19.8709 C   0  0  2  0  0  0
  -28.7022  -12.9816   20.9923 C   0  0  0  0  0  0
  -25.2600  -13.8120   20.5675 C   0  0  0  0  0  0
  -24.1838  -13.0420   20.9176 C   0  0  0  0  0  0
  -24.6376  -11.6885   20.8739 C   0  0  0  0  0  0
  -23.9040  -10.4281   21.0408 C   0  0  0  0  0  0
  -24.3601   -9.4201   21.9184 C   0  0  0  0  0  0
  -23.6283   -8.2237   22.0755 C   0  0  0  0  0  0
  -22.4265   -8.0272   21.3543 C   0  0  0  0  0  0
  -21.9895   -9.0246   20.4648 C   0  0  0  0  0  0
  -22.7218  -10.2126   20.3056 C   0  0  0  0  0  0
  -21.6849   -6.0731   22.5280 C   0  0  0  0  0  0
  -21.4011   -6.5637   23.8213 C   0  0  0  0  0  0
  -21.3658   -5.6791   24.9175 C   0  0  0  0  0  0
  -21.6045   -4.3053   24.7227 C   0  0  0  0  0  0
  -21.8819   -3.8146   23.4347 C   0  0  0  0  0  0
  -21.9192   -4.6961   22.3404 C   0  0  0  0  0  0
  -22.7864  -13.5234   21.1843 C   0  0  0  0  0  0
  -22.1661   -4.2149   21.0979 F   0  0  0  0  0  0
  -21.5630   -3.4537   25.7740 F   0  0  0  0  0  0
  -30.0394  -13.2676   20.4480 N   0  0  0  0  0  0
  -26.3014  -12.9262   20.3350 N   0  0  0  0  0  0
  -25.9294  -11.6437   20.5759 N   0  0  0  0  0  0
  -22.0505  -12.8234   22.0403 N   0  0  0  0  0  0
  -25.4338  -15.1839   20.4085 N   0  0  0  0  0  0
  -31.8353  -14.6160   20.1031 O   0  0  0  0  0  0
  -21.6630   -6.8871   21.4239 O   0  0  0  0  0  0
  -22.3558  -14.5548   20.6696 O   0  0  0  0  0  0
  -24.6087  -31.8717   23.2119 C   0  0  0  0  0  0
  -25.9007  -32.4843   23.8410 C   0  0  1  0  0  0
  -27.2562  -27.4786   20.1081 C   0  0  0  0  0  0
  -25.5898  -33.8638   24.2361 N   0  0  0  0  0  0
  -23.3951  -30.4902   21.5513 C   0  0  2  0  0  0
  -24.8469  -28.9588   20.1168 C   0  0  0  0  0  0
  -22.7388  -29.4649   22.5026 C   0  0  0  0  0  0
  -18.0266  -28.1360   22.8490 C   0  0  0  0  0  0
  -24.1491  -36.7320   23.2640 C   0  0  0  0  0  0
  -25.9143  -30.8534   21.3560 C   0  0  0  0  0  0
  -25.9967  -29.4870   20.7139 C   0  0  0  0  0  0
  -27.2001  -28.7576   20.7128 C   0  0  0  0  0  0
  -26.0940  -26.9625   19.4975 C   0  0  0  0  0  0
  -24.8873  -27.6921   19.5055 C   0  0  0  0  0  0
  -23.6023  -29.8166   20.1661 C   0  0  0  0  0  0
  -25.4111  -36.3126   24.0344 C   0  0  1  0  0  0
  -20.5851  -28.3634   23.1342 C   0  0  2  0  0  0
  -20.6763  -26.9378   22.5420 C   0  0  0  0  0  0
  -19.5747  -26.6374   21.5203 C   0  0  0  0  0  0
  -18.1920  -26.7908   22.1608 C   0  0  0  0  0  0
  -19.1517  -28.8813   23.2907 C   0  0  0  0  0  0
  -18.9448  -30.1431   23.8903 C   0  0  0  0  0  0
  -17.6451  -30.6575   24.0551 C   0  0  0  0  0  0
  -25.9029  -34.9486   23.5146 C   0  0  0  0  0  0
  -16.5347  -29.9072   23.6314 C   0  0  0  0  0  0
  -16.7258  -28.6487   23.0336 C   0  0  0  0  0  0
  -26.4456  -31.6602   25.0712 C   0  0  0  0  0  0
  -25.3743  -31.3696   26.1480 C   0  0  0  0  0  0
  -27.0285  -30.3067   24.6021 C   0  0  0  0  0  0
  -27.6045  -32.4311   25.7468 C   0  0  0  0  0  0
  -27.5584  -37.1817   24.8468 C   0  0  0  0  0  0
  -21.4124  -29.3007   22.3765 N   0  0  0  0  0  0
  -26.4307  -37.3801   23.9401 N   0  0  0  0  0  0
  -24.6571  -31.0853   22.0994 N   0  0  0  0  0  0
  -23.4188  -28.8207   23.3060 O   0  0  0  0  0  0
  -28.3944  -26.7016   20.0693 O   0  0  0  0  0  0
  -26.5570  -34.8939   22.4694 O   0  0  0  0  0  0
  -23.5297  -32.1443   23.7551 O   0  0  0  0  0  0
  -30.7765  -19.6107   23.5459 C   0  0  0  0  0  0
  -29.4390  -20.5834   21.7701 C   0  0  0  0  0  0
  -30.0701  -20.7113   23.0220 C   0  0  0  0  0  0
  -30.2320  -18.2726   21.5650 C   0  0  0  0  0  0
  -30.8691  -18.4016   22.8251 C   0  0  0  0  0  0
  -29.5174  -19.3770   21.0324 C   0  0  0  0  0  0
  -30.9961  -23.0726   23.1289 C   0  0  0  0  0  0
  -28.6343  -22.6119   24.0327 C   0  0  0  0  0  0
  -29.0903  -16.3564   20.2381 C   0  0  0  0  0  0
  -30.4637  -24.5076   23.2400 C   0  0  0  0  0  0
  -28.1236  -23.6641   23.0156 C   0  0  0  0  0  0
  -30.0503  -22.0402   23.7764 C   0  0  1  0  0  0
  -30.3469  -17.0124   20.7386 C   0  0  2  0  0  0
  -29.9787  -15.5982   21.2008 C   0  0  2  0  0  0
  -31.6880  -17.2654   23.4148 C   0  0  0  0  0  0
  -28.1554  -20.2823   19.2574 C   0  0  0  0  0  0
  -28.6854  -26.0340   22.4172 C   0  0  0  0  0  0
  -29.2871  -26.7594   21.1881 C   0  0  0  0  0  0
  -29.1616  -24.6269   22.5340 N   0  3  1  0  0  0
  -28.9484  -19.2256   19.7837 O   0  0  0  0  0  0
  -31.4661  -12.3787   19.1187 H   0  0  0  0  0  0
  -30.3120  -11.2754   19.8115 H   0  0  0  0  0  0
  -29.7345  -11.7883   17.4173 H   0  0  0  0  0  0
  -29.6610  -13.4938   17.7827 H   0  0  0  0  0  0
  -27.8269  -11.2984   18.8111 H   0  0  0  0  0  0
  -27.3636  -12.6288   17.7843 H   0  0  0  0  0  0
  -27.6924  -14.2342   19.5608 H   0  0  0  0  0  0
  -28.6707  -11.9498   21.3453 H   0  0  0  0  0  0
  -28.4614  -13.5914   21.8625 H   0  0  0  0  0  0
  -25.2750   -9.5678   22.4755 H   0  0  0  0  0  0
  -23.9997   -7.4624   22.7469 H   0  0  0  0  0  0
  -21.0830   -8.8760   19.8952 H   0  0  0  0  0  0
  -22.3679  -10.9664   19.6164 H   0  0  0  0  0  0
  -21.2000   -7.6147   23.9716 H   0  0  0  0  0  0
  -21.1480   -6.0521   25.9079 H   0  0  0  0  0  0
  -22.0600   -2.7608   23.2847 H   0  0  0  0  0  0
  -22.4112  -11.9888   22.4787 H   0  0  0  0  0  0
  -21.1126  -13.1267   22.2611 H   0  0  0  0  0  0
  -24.6720  -15.8433   20.5226 H   0  0  0  0  0  0
  -26.2945  -15.6203   20.1052 H   0  0  0  0  0  0
  -26.7091  -32.5581   23.1197 H   0  0  0  0  0  0
  -25.0101  -33.9824   25.0541 H   0  0  0  0  0  0
  -22.6807  -31.3033   21.4115 H   0  0  0  0  0  0
  -23.3750  -35.9656   23.3316 H   0  0  0  0  0  0
  -24.3598  -36.8907   22.2055 H   0  0  0  0  0  0
  -23.7247  -37.6533   23.6633 H   0  0  0  0  0  0
  -26.0125  -31.6175   20.5834 H   0  0  0  0  0  0
  -26.8072  -30.9193   21.9651 H   0  0  0  0  0  0
  -28.0698  -29.2093   21.1647 H   0  0  0  0  0  0
  -26.1222  -25.9894   19.0269 H   0  0  0  0  0  0
  -24.0041  -27.2770   19.0396 H   0  0  0  0  0  0
  -23.7017  -30.5885   19.4016 H   0  0  0  0  0  0
  -22.7309  -29.2266   19.8768 H   0  0  0  0  0  0
  -25.1282  -36.2001   25.0838 H   0  0  0  0  0  0
  -20.9933  -28.3190   24.1464 H   0  0  0  0  0  0
  -20.5681  -26.2238   23.3601 H   0  0  0  0  0  0
  -21.6635  -26.7438   22.1203 H   0  0  0  0  0  0
  -19.6916  -25.6285   21.1224 H   0  0  0  0  0  0
  -19.6692  -27.3199   20.6744 H   0  0  0  0  0  0
  -17.4198  -26.6662   21.4006 H   0  0  0  0  0  0
  -18.0299  -26.0055   22.9003 H   0  0  0  0  0  0
  -19.7938  -30.7227   24.2284 H   0  0  0  0  0  0
  -17.5016  -31.6261   24.5147 H   0  0  0  0  0  0
  -15.5348  -30.2968   23.7647 H   0  0  0  0  0  0
  -15.8657  -28.0814   22.7033 H   0  0  0  0  0  0
  -24.5906  -30.7049   25.7820 H   0  0  0  0  0  0
  -24.8948  -32.2856   26.4946 H   0  0  0  0  0  0
  -25.8124  -30.8854   27.0219 H   0  0  0  0  0  0
  -26.2809  -29.6837   24.1102 H   0  0  0  0  0  0
  -27.4125  -29.7284   25.4431 H   0  0  0  0  0  0
  -27.8605  -30.4414   23.9107 H   0  0  0  0  0  0
  -27.2663  -33.3595   26.2080 H   0  0  0  0  0  0
  -28.3835  -32.6900   25.0282 H   0  0  0  0  0  0
  -28.0729  -31.8413   26.5354 H   0  0  0  0  0  0
  -28.2609  -38.0106   24.7506 H   0  0  0  0  0  0
  -28.1072  -36.2638   24.6302 H   0  0  0  0  0  0
  -27.2301  -37.1472   25.8874 H   0  0  0  0  0  0
  -20.9292  -29.8734   21.6992 H   0  0  0  0  0  0
  -26.0201  -38.2883   24.1398 H   0  0  0  0  0  0
  -31.2762  -19.7028   24.5010 H   0  0  0  0  0  0
  -28.9193  -21.4382   21.3720 H   0  0  0  0  0  0
  -31.9882  -22.9975   23.5763 H   0  0  0  0  0  0
  -31.1366  -22.8449   22.0718 H   0  0  0  0  0  0
  -27.9063  -21.8095   24.1610 H   0  0  0  0  0  0
  -28.6631  -23.1149   25.0008 H   0  0  0  0  0  0
  -29.0830  -16.0632   19.1894 H   0  0  0  0  0  0
  -28.1341  -16.6930   20.6320 H   0  0  0  0  0  0
  -31.1901  -25.1951   22.8056 H   0  0  0  0  0  0
  -30.3576  -24.7972   24.2870 H   0  0  0  0  0  0
  -27.2950  -24.1956   23.4856 H   0  0  0  0  0  0
  -27.6939  -23.1718   22.1438 H   0  0  0  0  0  0
  -30.4519  -21.8299   24.7699 H   0  0  0  0  0  0
  -31.1568  -17.1273   20.0202 H   0  0  0  0  0  0
  -29.6377  -15.4814   22.2265 H   0  0  0  0  0  0
  -32.3423  -17.6210   24.2115 H   0  0  0  0  0  0
  -32.3218  -16.8015   22.6584 H   0  0  0  0  0  0
  -31.0363  -16.5020   23.8388 H   0  0  0  0  0  0
  -27.7514  -19.9836   18.2902 H   0  0  0  0  0  0
  -28.7451  -21.1863   19.0992 H   0  0  0  0  0  0
  -27.3097  -20.5097   19.9081 H   0  0  0  0  0  0
  -27.5971  -26.0737   22.3587 H   0  0  0  0  0  0
  -28.9441  -26.5726   23.3294 H   0  0  0  0  0  0
  -30.2274  -26.2957   20.8881 H   0  0  0  0  0  0
  -29.5634  -27.7817   21.4399 H   0  0  0  0  0  0
  -29.3419  -24.3391   21.5819 H   0  0  0  0  0  0
  1 25  1  0  0  0
  1 30  2  0  0  0
  1 84  1  0  0  0
  2  3  1  0  0  0
  2 25  1  0  0  0
  2 91  1  0  0  0
  2 92  1  0  0  0
  3  4  1  0  0  0
  3 93  1  0  0  0
  3 94  1  0  0  0
  4  5  1  0  0  0
  4 95  1  0  0  0
  4 96  1  0  0  0
  5  6  1  0  0  0
  5 26  1  0  0  0
  5 97  1  0  0  0
  6 25  1  0  0  0
  6 98  1  0  0  0
  6 99  1  0  0  0
  7  8  2  0  0  0
  7 26  1  0  0  0
  7 29  1  0  0  0
  8  9  1  0  0  0
  8 22  1  0  0  0
  9 10  1  0  0  0
  9 27  2  0  0  0
 10 11  2  0  0  0
 10 15  1  0  0  0
 11 12  1  0  0  0
 11100  1  0  0  0
 12 13  2  0  0  0
 12101  1  0  0  0
 13 14  1  0  0  0
 13 31  1  0  0  0
 14 15  2  0  0  0
 14102  1  0  0  0
 15103  1  0  0  0
 16 17  2  0  0  0
 16 21  1  0  0  0
 16 31  1  0  0  0
 17 18  1  0  0  0
 17104  1  0  0  0
 18 19  2  0  0  0
 18105  1  0  0  0
 19 20  1  0  0  0
 19 24  1  0  0  0
 20 21  2  0  0  0
 20106  1  0  0  0
 21 23  1  0  0  0
 22 28  1  0  0  0
 22 32  2  0  0  0
 26 27  1  0  0  0
 28107  1  0  0  0
 28108  1  0  0  0
 29109  1  0  0  0
 29110  1  0  0  0
 33 34  1  0  0  0
 33 66  1  0  0  0
 33 70  2  0  0  0
 34 36  1  0  0  0
 34 59  1  0  0  0
 34111  1  0  0  0
 35 44  2  0  0  0
 35 45  1  0  0  0
 35 68  1  0  0  0
 36 56  1  0  0  0
 36112  1  0  0  0
 37 39  1  0  0  0
 37 47  1  0  0  0
 37 66  1  0  0  0
 37113  1  0  0  0
 38 43  2  0  0  0
 38 46  1  0  0  0
 38 47  1  0  0  0
 39 64  1  0  0  0
 39 67  2  0  0  0
 40 52  1  0  0  0
 40 53  2  0  0  0
 40 58  1  0  0  0
 41114  1  0  0  0
 41115  1  0  0  0
 41116  1  0  0  0
 41 48  1  0  0  0
 42 43  1  0  0  0
 42 66  1  0  0  0
 42117  1  0  0  0
 42118  1  0  0  0
 43 44  1  0  0  0
 44119  1  0  0  0
 45 46  2  0  0  0
 45120  1  0  0  0
 46121  1  0  0  0
 47122  1  0  0  0
 47123  1  0  0  0
 48 56  1  0  0  0
 48 65  1  0  0  0
 48124  1  0  0  0
 49 50  1  0  0  0
 49 53  1  0  0  0
 49 64  1  0  0  0
 49125  1  0  0  0
 50 51  1  0  0  0
 50126  1  0  0  0
 50127  1  0  0  0
 51 52  1  0  0  0
 51128  1  0  0  0
 51129  1  0  0  0
 52130  1  0  0  0
 52131  1  0  0  0
 53 54  1  0  0  0
 54 55  2  0  0  0
 54132  1  0  0  0
 55 57  1  0  0  0
 55133  1  0  0  0
 56 69  2  0  0  0
 57 58  2  0  0  0
 57134  1  0  0  0
 58135  1  0  0  0
 59 60  1  0  0  0
 59 61  1  0  0  0
 59 62  1  0  0  0
 60136  1  0  0  0
 60137  1  0  0  0
 60138  1  0  0  0
 61139  1  0  0  0
 61140  1  0  0  0
 61141  1  0  0  0
 62142  1  0  0  0
 62143  1  0  0  0
 62144  1  0  0  0
 63 65  1  0  0  0
 63145  1  0  0  0
 63146  1  0  0  0
 63147  1  0  0  0
 64148  1  0  0  0
 65149  1  0  0  0
 68 88  1  0  0  0
 71 73  2  0  0  0
 71 75  1  0  0  0
 71150  1  0  0  0
 72 73  1  0  0  0
 72 76  2  0  0  0
 72151  1  0  0  0
 73 82  1  0  0  0
 74 75  2  0  0  0
 74 76  1  0  0  0
 74 83  1  0  0  0
 75 85  1  0  0  0
 76 90  1  0  0  0
 77 80  1  0  0  0
 77 82  1  0  0  0
 77152  1  0  0  0
 77153  1  0  0  0
 78 81  1  0  0  0
 78 82  1  0  0  0
 78154  1  0  0  0
 78155  1  0  0  0
 79 83  1  0  0  0
 79 84  1  0  0  0
 79156  1  0  0  0
 79157  1  0  0  0
 80 89  1  0  0  0
 80158  1  0  0  0
 80159  1  0  0  0
 81 89  1  0  0  0
 81160  1  0  0  0
 81161  1  0  0  0
 82162  1  0  0  0
 83 84  1  0  0  0
 83163  1  0  0  0
 84164  1  0  0  0
 85165  1  0  0  0
 85166  1  0  0  0
 85167  1  0  0  0
 86 90  1  0  0  0
 86168  1  0  0  0
 86169  1  0  0  0
 86170  1  0  0  0
 87 88  1  0  0  0
 87171  1  0  0  0
 87172  1  0  0  0
 87 89  1  0  0  0
 88173  1  0  0  0
 88174  1  0  0  0
 89175  1  0  0  0
M  CHG  1  89   1
M  ISO  4   1 100  68 101  84 100  88 101
M  END
> <chiral flag>
0

> <version>
0

> <s_m_source_file>
/data/baiqing/PycharmProjects/Reinvent-master-3.2/result/LINK_invent/BTK/process_docking_weight1_custom_sum_contain_oxygen_bond_distance_aromatic_linkinvent_7_9_3/rearranged_h_0153.sdf

> <i_m_source_file_index>
80

> <r_mmod_Potential_Energy-OPLS-2005>
-42.1256408691406

> <r_mmod_Stretch_Energy-OPLS-2005>
38.1768188476562

> <r_mmod_Bend_Energy-OPLS-2005>
111.318801879883

> <r_mmod_Torsional_Energy-OPLS-2005>
275.327270507812

> <r_mmod_Improper_Torsional_Energy-OPLS-2005>
3.47586584091187

> <r_mmod_Van_der_Waal_Energy-OPLS-2005>
166.389358520508

> <r_mmod_Electrostatic_Energy-OPLS-2005>
-236.650665283203

> <r_mmod_Solvation_Energy-OPLS-2005>
-409.256225585938

> <b_mmod_Minimization_Converged-OPLS-2005>
0

> <r_mmod_RMS_Derivative-OPLS-2005>
1.28584420681

$$$$
81
                    3D
 Structure written by MMmdl.
164173  0  0  1  0            999 V2000
  -27.7398  -17.2370   20.9690 C   0  0  0  0  0  0
  -29.4870  -14.7564   19.8036 C   0  0  0  0  0  0
  -29.3631  -13.4840   18.7447 C   0  0  0  0  0  0
  -28.2435  -12.5080   19.0862 C   0  0  0  0  0  0
  -27.3361  -13.4026   19.9067 C   0  0  2  0  0  0
  -27.9176  -14.2100   21.1109 C   0  0  0  0  0  0
  -25.0543  -13.8022   20.5502 C   0  0  0  0  0  0
  -24.0482  -13.0002   20.9451 C   0  0  0  0  0  0
  -24.5598  -11.6644   20.8943 C   0  0  0  0  0  0
  -23.8662  -10.4008   21.0556 C   0  0  0  0  0  0
  -24.3396   -9.4008   21.9281 C   0  0  0  0  0  0
  -23.6167   -8.2013   22.0775 C   0  0  0  0  0  0
  -22.4145   -8.0065   21.3550 C   0  0  0  0  0  0
  -21.9705   -8.9979   20.4642 C   0  0  0  0  0  0
  -22.6944  -10.1876   20.3096 C   0  0  0  0  0  0
  -21.6773   -6.0634   22.5326 C   0  0  0  0  0  0
  -21.3953   -6.5585   23.8244 C   0  0  0  0  0  0
  -21.3624   -5.6751   24.9215 C   0  0  0  0  0  0
  -21.6025   -4.3018   24.7269 C   0  0  0  0  0  0
  -21.8817   -3.8089   23.4402 C   0  0  0  0  0  0
  -21.9167   -4.6891   22.3449 C   0  0  0  0  0  0
  -22.6673  -13.4805   21.2197 C   0  0  0  0  0  0
  -22.1646   -4.2083   21.1031 F   0  0  0  0  0  0
  -21.5629   -3.4502   25.7796 F   0  0  0  0  0  0
  -28.1875  -15.6057   20.5576 N   0  0  0  0  0  0
  -26.0920  -12.9390   20.3025 N   0  0  0  0  0  0
  -25.8443  -11.6456   20.5645 N   0  0  0  0  0  0
  -21.9466  -12.7877   22.0892 N   0  0  0  0  0  0
  -25.1575  -15.1850   20.3612 N   0  0  0  0  0  0
  -29.0872  -17.2545   20.9101 O   0  0  0  0  0  0
  -21.6512   -6.8699   21.4258 O   0  0  0  0  0  0
  -22.2513  -14.5162   20.7025 O   0  0  0  0  0  0
  -24.6379  -31.9203   23.2353 C   0  0  0  0  0  0
  -25.9286  -32.5033   23.8738 C   0  0  1  0  0  0
  -26.8749  -27.4399   19.9626 C   0  0  0  0  0  0
  -25.6180  -33.8825   24.2618 N   0  0  0  0  0  0
  -23.4542  -30.5618   21.5705 C   0  0  2  0  0  0
  -24.9575  -29.3587   19.8263 C   0  0  0  0  0  0
  -23.0315  -29.4095   22.5195 C   0  0  0  0  0  0
  -19.0957  -26.3914   22.9779 C   0  0  0  0  0  0
  -24.1507  -36.7355   23.2593 C   0  0  0  0  0  0
  -25.9932  -30.8563   21.4653 C   0  0  0  0  0  0
  -26.0173  -29.5666   20.6930 C   0  0  0  0  0  0
  -27.0409  -28.5968   20.7678 C   0  0  0  0  0  0
  -26.1978  -27.5408   18.7725 C   0  0  0  0  0  0
  -25.1318  -28.4435   18.7732 C   0  0  0  0  0  0
  -23.6754  -30.1443   20.0771 C   0  0  0  0  0  0
  -25.4112  -36.3211   24.0340 C   0  0  1  0  0  0
  -21.6209  -27.5539   23.1799 C   0  0  2  0  0  0
  -22.7216  -26.1088   22.3586 C   0  0  0  0  0  0
  -21.9990  -24.7094   20.5047 C   0  0  0  0  0  0
  -19.9350  -24.3315   20.8090 C   0  0  0  0  0  0
  -19.9493  -27.6436   23.3946 C   0  0  0  0  0  0
  -19.4750  -29.0298   23.8164 C   0  0  0  0  0  0
  -18.1590  -29.5588   23.8479 C   0  0  0  0  0  0
  -25.9082  -34.9591   23.5215 C   0  0  0  0  0  0
  -17.2438  -28.5748   23.4784 C   0  0  0  0  0  0
  -17.7031  -27.1937   23.1246 C   0  0  0  0  0  0
  -26.4519  -31.6724   25.1084 C   0  0  0  0  0  0
  -25.3643  -31.3887   26.1687 C   0  0  0  0  0  0
  -27.0385  -30.3103   24.6695 C   0  0  0  0  0  0
  -27.6059  -32.4447   25.7889 C   0  0  0  0  0  0
  -27.5628  -37.1832   24.8438 C   0  0  0  0  0  0
  -21.8396  -28.8515   22.4655 N   0  0  0  0  0  0
  -26.4292  -37.3898   23.9456 N   0  0  0  0  0  0
  -24.7002  -31.1705   22.1091 N   0  0  0  0  0  0
  -23.8294  -28.9504   23.3311 O   0  0  0  0  0  0
  -26.3072  -26.3364   20.5202 O   0  0  0  0  0  0
  -26.5482  -34.8975   22.4686 O   0  0  0  0  0  0
  -23.5528  -32.1795   23.7726 O   0  0  0  0  0  0
  -19.7784  -23.8258   23.1256 C   0  0  0  0  0  0
  -18.2648  -24.1930   22.4512 C   0  0  0  0  0  0
  -21.3039  -24.2099   22.5834 C   0  0  0  0  0  0
  -17.8874  -25.3191   21.2214 C   0  0  0  0  0  0
  -19.0733  -26.4387   20.6689 C   0  0  0  0  0  0
  -20.6875  -26.2498   21.3845 C   0  0  0  0  0  0
  -23.3268  -20.5613   21.2465 C   0  0  0  0  0  0
  -24.6762  -19.2232   20.8151 C   0  0  0  0  0  0
  -25.1497  -20.5831   22.0660 C   0  0  0  0  0  0
  -23.1717  -22.2153   22.0445 C   0  0  2  0  0  0
  -16.5369  -25.1926   20.5384 C   0  0  0  0  0  0
  -18.8149  -27.3343   19.4771 C   0  0  0  0  0  0
  -24.7330  -25.9766   20.2581 C   0  0  0  0  0  0
  -23.2323  -26.9375   20.0263 C   0  0  0  0  0  0
  -26.2218  -18.7067   21.3415 N   0  0  0  0  0  0
  -21.6381  -27.0501   20.4637 O   0  0  0  0  0  0
  -29.9609  -15.5406   19.2072 H   0  0  0  0  0  0
  -30.2584  -14.5480   20.5498 H   0  0  0  0  0  0
  -30.3249  -12.9755   18.6541 H   0  0  0  0  0  0
  -29.1552  -13.9074   17.7624 H   0  0  0  0  0  0
  -28.6064  -11.6843   19.7000 H   0  0  0  0  0  0
  -27.7606  -12.1056   18.1952 H   0  0  0  0  0  0
  -27.0523  -14.1229   19.1337 H   0  0  0  0  0  0
  -28.7052  -13.6887   21.6622 H   0  0  0  0  0  0
  -27.1865  -14.3873   21.8984 H   0  0  0  0  0  0
  -25.2522   -9.5540   22.4860 H   0  0  0  0  0  0
  -23.9874   -7.4387   22.7474 H   0  0  0  0  0  0
  -21.0621   -8.8460   19.8959 H   0  0  0  0  0  0
  -22.3405  -10.9416   19.6202 H   0  0  0  0  0  0
  -21.1927   -7.6082   23.9739 H   0  0  0  0  0  0
  -21.1461   -6.0484   25.9118 H   0  0  0  0  0  0
  -22.0640   -2.7557   23.2935 H   0  0  0  0  0  0
  -22.3090  -11.9556   22.5278 H   0  0  0  0  0  0
  -21.0124  -13.0941   22.3212 H   0  0  0  0  0  0
  -24.2814  -15.6950   20.3120 H   0  0  0  0  0  0
  -25.8309  -15.5090   19.6851 H   0  0  0  0  0  0
  -26.7421  -32.5623   23.1539 H   0  0  0  0  0  0
  -25.0521  -34.0044   25.0889 H   0  0  0  0  0  0
  -22.6516  -31.2995   21.5777 H   0  0  0  0  0  0
  -23.3802  -35.9646   23.3177 H   0  0  0  0  0  0
  -24.3676  -36.9018   22.2034 H   0  0  0  0  0  0
  -23.7181  -37.6533   23.6598 H   0  0  0  0  0  0
  -26.2587  -31.6757   20.7901 H   0  0  0  0  0  0
  -26.8062  -30.7538   22.1657 H   0  0  0  0  0  0
  -27.7862  -28.6384   21.5474 H   0  0  0  0  0  0
  -26.1613  -26.7270   18.0533 H   0  0  0  0  0  0
  -24.4254  -28.4230   17.9554 H   0  0  0  0  0  0
  -23.7279  -31.0508   19.4672 H   0  0  0  0  0  0
  -22.8072  -29.6043   19.7084 H   0  0  0  0  0  0
  -25.1223  -36.2115   25.0815 H   0  0  0  0  0  0
  -21.9926  -27.6472   24.2030 H   0  0  0  0  0  0
  -23.0364  -25.5079   23.2154 H   0  0  0  0  0  0
  -23.7154  -26.5509   22.3304 H   0  0  0  0  0  0
  -22.5549  -23.8084   20.3001 H   0  0  0  0  0  0
  -22.0076  -25.0585   19.4664 H   0  0  0  0  0  0
  -19.5215  -24.3617   19.7824 H   0  0  0  0  0  0
  -19.8088  -23.2371   20.8868 H   0  0  0  0  0  0
  -20.2394  -29.7367   24.1111 H   0  0  0  0  0  0
  -17.9049  -30.5680   24.1440 H   0  0  0  0  0  0
  -16.1865  -28.8074   23.4646 H   0  0  0  0  0  0
  -16.8223  -26.6159   22.8895 H   0  0  0  0  0  0
  -24.5908  -30.7137   25.7979 H   0  0  0  0  0  0
  -24.8712  -32.3057   26.4950 H   0  0  0  0  0  0
  -25.7875  -30.9217   27.0583 H   0  0  0  0  0  0
  -26.3075  -29.6837   24.1572 H   0  0  0  0  0  0
  -27.3754  -29.7420   25.5367 H   0  0  0  0  0  0
  -27.9092  -30.4266   24.0229 H   0  0  0  0  0  0
  -27.2629  -33.3709   26.2512 H   0  0  0  0  0  0
  -28.3876  -32.7073   25.0749 H   0  0  0  0  0  0
  -28.0699  -31.8559   26.5807 H   0  0  0  0  0  0
  -28.2497  -38.0276   24.7735 H   0  0  0  0  0  0
  -28.1273  -36.2845   24.5925 H   0  0  0  0  0  0
  -27.2395  -37.1063   25.8835 H   0  0  0  0  0  0
  -21.1464  -29.1491   21.7901 H   0  0  0  0  0  0
  -26.0171  -38.2936   24.1619 H   0  0  0  0  0  0
  -19.7410  -22.9634   23.7710 H   0  0  0  0  0  0
  -17.4510  -23.5679   22.7967 H   0  0  0  0  0  0
  -22.5916  -19.9736   21.7971 H   0  0  0  0  0  0
  -22.8411  -20.7185   20.2834 H   0  0  0  0  0  0
  -24.8234  -19.3240   19.7365 H   0  0  0  0  0  0
  -24.1205  -18.2863   20.8931 H   0  0  0  0  0  0
  -25.1586  -20.3319   23.1305 H   0  0  0  0  0  0
  -25.9809  -21.2896   21.9924 H   0  0  0  0  0  0
  -23.8238  -22.9277   21.5419 H   0  0  0  0  0  0
  -15.9503  -24.3819   20.9750 H   0  0  0  0  0  0
  -16.6743  -24.9355   19.4882 H   0  0  0  0  0  0
  -15.9528  -26.1076   20.6035 H   0  0  0  0  0  0
  -17.8945  -27.0453   18.9719 H   0  0  0  0  0  0
  -19.6182  -27.2211   18.7489 H   0  0  0  0  0  0
  -18.7422  -28.3793   19.7719 H   0  0  0  0  0  0
  -24.7521  -25.3672   19.3496 H   0  0  0  0  0  0
  -24.5711  -25.1737   20.9820 H   0  0  0  0  0  0
  -23.1419  -27.1292   18.9622 H   0  0  0  0  0  0
  -23.4893  -27.7757   20.6131 H   0  0  0  0  0  0
  1 25  1  0  0  0
  1 30  2  0  0  0
  1 85  1  0  0  0
  2  3  1  0  0  0
  2 25  1  0  0  0
  2 87  1  0  0  0
  2 88  1  0  0  0
  3  4  1  0  0  0
  3 89  1  0  0  0
  3 90  1  0  0  0
  4  5  1  0  0  0
  4 91  1  0  0  0
  4 92  1  0  0  0
  5  6  1  0  0  0
  5 26  1  0  0  0
  5 93  1  0  0  0
  6 25  1  0  0  0
  6 94  1  0  0  0
  6 95  1  0  0  0
  7  8  2  0  0  0
  7 26  1  0  0  0
  7 29  1  0  0  0
  8  9  1  0  0  0
  8 22  1  0  0  0
  9 10  1  0  0  0
  9 27  2  0  0  0
 10 11  2  0  0  0
 10 15  1  0  0  0
 11 12  1  0  0  0
 11 96  1  0  0  0
 12 13  2  0  0  0
 12 97  1  0  0  0
 13 14  1  0  0  0
 13 31  1  0  0  0
 14 15  2  0  0  0
 14 98  1  0  0  0
 15 99  1  0  0  0
 16 17  2  0  0  0
 16 21  1  0  0  0
 16 31  1  0  0  0
 17 18  1  0  0  0
 17100  1  0  0  0
 18 19  2  0  0  0
 18101  1  0  0  0
 19 20  1  0  0  0
 19 24  1  0  0  0
 20 21  2  0  0  0
 20102  1  0  0  0
 21 23  1  0  0  0
 22 28  1  0  0  0
 22 32  2  0  0  0
 26 27  1  0  0  0
 28103  1  0  0  0
 28104  1  0  0  0
 29105  1  0  0  0
 29106  1  0  0  0
 33 34  1  0  0  0
 33 66  1  0  0  0
 33 70  2  0  0  0
 34 36  1  0  0  0
 34 59  1  0  0  0
 34107  1  0  0  0
 35 44  2  0  0  0
 35 45  1  0  0  0
 35 68  1  0  0  0
 36 56  1  0  0  0
 36108  1  0  0  0
 37 39  1  0  0  0
 37 47  1  0  0  0
 37 66  1  0  0  0
 37109  1  0  0  0
 38 43  2  0  0  0
 38 46  1  0  0  0
 38 47  1  0  0  0
 39 64  1  0  0  0
 39 67  2  0  0  0
 40 52  1  0  0  0
 40 53  2  0  0  0
 40 58  1  0  0  0
 41110  1  0  0  0
 41111  1  0  0  0
 41112  1  0  0  0
 41 48  1  0  0  0
 42 43  1  0  0  0
 42 66  1  0  0  0
 42113  1  0  0  0
 42114  1  0  0  0
 43 44  1  0  0  0
 44115  1  0  0  0
 45 46  2  0  0  0
 45116  1  0  0  0
 46117  1  0  0  0
 47118  1  0  0  0
 47119  1  0  0  0
 48 56  1  0  0  0
 48 65  1  0  0  0
 48120  1  0  0  0
 49 50  1  0  0  0
 49 53  1  0  0  0
 49 64  1  0  0  0
 49121  1  0  0  0
 50 51  1  0  0  0
 50122  1  0  0  0
 50123  1  0  0  0
 51 52  1  0  0  0
 51124  1  0  0  0
 51125  1  0  0  0
 52126  1  0  0  0
 52127  1  0  0  0
 53 54  1  0  0  0
 54 55  2  0  0  0
 54128  1  0  0  0
 55 57  1  0  0  0
 55129  1  0  0  0
 56 69  2  0  0  0
 57 58  2  0  0  0
 57130  1  0  0  0
 58131  1  0  0  0
 59 60  1  0  0  0
 59 61  1  0  0  0
 59 62  1  0  0  0
 60132  1  0  0  0
 60133  1  0  0  0
 60134  1  0  0  0
 61135  1  0  0  0
 61136  1  0  0  0
 61137  1  0  0  0
 62138  1  0  0  0
 62139  1  0  0  0
 62140  1  0  0  0
 63 65  1  0  0  0
 63141  1  0  0  0
 63142  1  0  0  0
 63143  1  0  0  0
 64144  1  0  0  0
 65145  1  0  0  0
 68 83  1  0  0  0
 71 72  2  0  0  0
 71 73  1  0  0  0
 71146  1  0  0  0
 72 74  1  0  0  0
 72147  1  0  0  0
 73 76  2  0  0  0
 73 80  1  0  0  0
 74 75  2  0  0  0
 74 81  1  0  0  0
 75 76  1  0  0  0
 75 82  1  0  0  0
 76 86  1  0  0  0
 77 78  1  0  0  0
 77 80  1  0  0  0
 77148  1  0  0  0
 77149  1  0  0  0
 78 85  1  0  0  0
 78150  1  0  0  0
 78151  1  0  0  0
 79 80  1  0  0  0
 79 85  1  0  0  0
 79152  1  0  0  0
 79153  1  0  0  0
 80154  1  0  0  0
 81155  1  0  0  0
 81156  1  0  0  0
 81157  1  0  0  0
 82158  1  0  0  0
 82159  1  0  0  0
 82160  1  0  0  0
 83 84  1  0  0  0
 83161  1  0  0  0
 83162  1  0  0  0
 84 86  1  0  0  0
 84163  1  0  0  0
 84164  1  0  0  0
M  ISO  4   1 100  68 101  83 101  85 100
M  END
> <chiral flag>
0

> <version>
0

> <s_m_source_file>
/data/baiqing/PycharmProjects/Reinvent-master-3.2/result/LINK_invent/BTK/process_docking_weight1_custom_sum_contain_oxygen_bond_distance_aromatic_linkinvent_7_9_3/rearranged_h_0153.sdf

> <i_m_source_file_index>
81

> <r_mmod_Potential_Energy-OPLS-2005>
32192.935546875

> <r_mmod_Stretch_Energy-OPLS-2005>
15212.07421875

> <r_mmod_Bend_Energy-OPLS-2005>
2698.83276367188

> <r_mmod_Torsional_Energy-OPLS-2005>
693.369934082031

> <r_mmod_Improper_Torsional_Energy-OPLS-2005>
72.4288635253906

> <r_mmod_Van_der_Waal_Energy-OPLS-2005>
3635.900390625

> <r_mmod_Electrostatic_Energy-OPLS-2005>
-328.404144287109

> <r_mmod_Solvation_Energy-OPLS-2005>
-220.644500732422

> <b_mmod_Minimization_Converged-OPLS-2005>
0

> <r_mmod_RMS_Derivative-OPLS-2005>
12.2885971069336

$$$$
82
                    3D
 Structure written by MMmdl.
157165  0  0  1  0            999 V2000
  -30.6021  -14.8144   20.4410 C   0  0  0  0  0  0
  -30.4318  -12.5035   19.4814 C   0  0  0  0  0  0
  -29.5053  -12.5060   18.2473 C   0  0  0  0  0  0
  -28.0402  -12.3023   18.6757 C   0  0  0  0  0  0
  -27.6367  -13.2319   19.8501 C   0  0  2  0  0  0
  -28.6846  -13.2230   20.9847 C   0  0  0  0  0  0
  -25.2505  -13.8196   20.5714 C   0  0  0  0  0  0
  -24.1797  -13.0455   20.9224 C   0  0  0  0  0  0
  -24.6383  -11.6918   20.8796 C   0  0  0  0  0  0
  -23.9055  -10.4320   21.0455 C   0  0  0  0  0  0
  -24.3612   -9.4227   21.9221 C   0  0  0  0  0  0
  -23.6298   -8.2262   22.0757 C   0  0  0  0  0  0
  -22.4280   -8.0305   21.3552 C   0  0  0  0  0  0
  -21.9925   -9.0268   20.4639 C   0  0  0  0  0  0
  -22.7241  -10.2156   20.3079 C   0  0  0  0  0  0
  -21.6843   -6.0772   22.5273 C   0  0  0  0  0  0
  -21.4030   -6.5668   23.8212 C   0  0  0  0  0  0
  -21.3641   -5.6802   24.9170 C   0  0  0  0  0  0
  -21.6029   -4.3068   24.7201 C   0  0  0  0  0  0
  -21.8818   -3.8177   23.4323 C   0  0  0  0  0  0
  -21.9191   -4.7010   22.3388 C   0  0  0  0  0  0
  -22.7844  -13.5247   21.1853 C   0  0  0  0  0  0
  -22.1663   -4.2200   21.0974 F   0  0  0  0  0  0
  -21.5607   -3.4544   25.7721 F   0  0  0  0  0  0
  -29.9728  -13.5850   20.3857 N   0  0  0  0  0  0
  -26.2915  -12.9388   20.3330 N   0  0  0  0  0  0
  -25.9312  -11.6530   20.5816 N   0  0  0  0  0  0
  -22.0470  -12.8266   22.0411 N   0  0  0  0  0  0
  -25.4282  -15.1915   20.4133 N   0  0  0  0  0  0
  -31.7974  -14.8854   20.1593 O   0  0  0  0  0  0
  -21.6631   -6.8917   21.4235 O   0  0  0  0  0  0
  -22.3564  -14.5584   20.6722 O   0  0  0  0  0  0
  -24.6420  -31.8459   23.1830 C   0  0  0  0  0  0
  -25.9220  -32.4654   23.8210 C   0  0  1  0  0  0
  -27.2513  -27.2126   20.1385 C   0  0  0  0  0  0
  -25.6000  -33.8440   24.2180 N   0  0  0  0  0  0
  -23.4441  -30.4614   21.5253 C   0  0  2  0  0  0
  -24.8985  -28.8870   20.1173 C   0  0  0  0  0  0
  -22.7559  -29.4569   22.4812 C   0  0  0  0  0  0
  -18.0324  -28.1383   22.8424 C   0  0  0  0  0  0
  -24.1516  -36.7258   23.2649 C   0  0  0  0  0  0
  -25.9906  -30.7475   21.3654 C   0  0  0  0  0  0
  -26.0715  -29.3583   20.7214 C   0  0  0  0  0  0
  -27.2528  -28.5348   20.7170 C   0  0  0  0  0  0
  -26.0502  -26.8091   19.5237 C   0  0  0  0  0  0
  -24.8936  -27.6182   19.5098 C   0  0  0  0  0  0
  -23.6672  -29.7788   20.1479 C   0  0  0  0  0  0
  -25.4136  -36.2989   24.0334 C   0  0  1  0  0  0
  -20.5934  -28.3723   23.1197 C   0  0  2  0  0  0
  -20.6821  -26.9411   22.5379 C   0  0  0  0  0  0
  -19.5792  -26.6381   21.5186 C   0  0  0  0  0  0
  -18.1960  -26.7906   22.1586 C   0  0  0  0  0  0
  -19.1585  -28.8860   23.2796 C   0  0  0  0  0  0
  -18.9504  -30.1438   23.8842 C   0  0  0  0  0  0
  -17.6503  -30.6570   24.0546 C   0  0  0  0  0  0
  -25.9084  -34.9370   23.5062 C   0  0  0  0  0  0
  -16.5384  -29.9071   23.6313 C   0  0  0  0  0  0
  -16.7313  -28.6507   23.0301 C   0  0  0  0  0  0
  -26.4562  -31.6495   25.0615 C   0  0  0  0  0  0
  -25.3760  -31.3635   26.1314 C   0  0  0  0  0  0
  -27.0429  -30.2910   24.6083 C   0  0  0  0  0  0
  -27.6066  -32.4296   25.7425 C   0  0  0  0  0  0
  -27.5578  -37.1763   24.8471 C   0  0  0  0  0  0
  -21.4271  -29.3053   22.3565 N   0  0  0  0  0  0
  -26.4280  -37.3704   23.9443 N   0  0  0  0  0  0
  -24.7110  -31.0383   22.0807 N   0  0  0  0  0  0
  -23.4199  -28.8144   23.2992 O   0  0  0  0  0  0
  -28.3544  -26.3136   20.0522 O   0  0  0  0  0  0
  -26.5642  -34.8881   22.4611 O   0  0  0  0  0  0
  -23.5571  -32.1317   23.7116 O   0  0  0  0  0  0
  -27.8444  -21.6741   19.9094 C   0  0  0  0  0  0
  -29.2097  -21.3987   20.2360 C   0  0  0  0  0  0
  -29.6803  -22.7117   20.4603 C   0  0  0  0  0  0
  -32.0143  -23.0515   19.5248 C   0  0  0  0  0  0
  -31.7267  -22.2746   21.9101 C   0  0  0  0  0  0
  -30.3217  -17.4593   20.5166 C   0  0  0  0  0  0
  -29.3173  -18.7534   20.3420 C   0  0  0  0  0  0
  -28.4224  -25.1250   20.9388 C   0  0  0  0  0  0
  -31.1085  -23.1139   20.7757 C   0  0  0  0  0  0
  -27.5068  -22.9754   20.0043 N   0  0  0  0  0  0
  -28.6115  -23.6801   20.3813 N   0  0  0  0  0  0
  -29.8508  -15.9834   20.5913 N   0  0  0  0  0  0
  -29.9187  -20.1383   20.2862 O   0  0  0  0  0  0
  -31.4687  -12.6401   19.1752 H   0  0  0  0  0  0
  -30.3948  -11.5467   19.9998 H   0  0  0  0  0  0
  -29.8017  -11.7246   17.5474 H   0  0  0  0  0  0
  -29.5979  -13.4544   17.7160 H   0  0  0  0  0  0
  -27.9262  -11.2619   18.9811 H   0  0  0  0  0  0
  -27.3672  -12.4434   17.8280 H   0  0  0  0  0  0
  -27.6153  -14.2393   19.4345 H   0  0  0  0  0  0
  -28.7430  -12.2458   21.4648 H   0  0  0  0  0  0
  -28.4106  -13.9333   21.7661 H   0  0  0  0  0  0
  -25.2752   -9.5718   22.4798 H   0  0  0  0  0  0
  -23.9983   -7.4675   22.7509 H   0  0  0  0  0  0
  -21.0843   -8.8808   19.8959 H   0  0  0  0  0  0
  -22.3700  -10.9715   19.6199 H   0  0  0  0  0  0
  -21.2039   -7.6180   23.9738 H   0  0  0  0  0  0
  -21.1456   -6.0539   25.9075 H   0  0  0  0  0  0
  -22.0609   -2.7648   23.2806 H   0  0  0  0  0  0
  -22.4015  -11.9831   22.4670 H   0  0  0  0  0  0
  -21.1142  -13.1400   22.2707 H   0  0  0  0  0  0
  -24.6620  -15.8511   20.4984 H   0  0  0  0  0  0
  -26.2789  -15.6171   20.0687 H   0  0  0  0  0  0
  -26.7297  -32.5338   23.0963 H   0  0  0  0  0  0
  -25.0163  -33.9487   25.0342 H   0  0  0  0  0  0
  -22.7437  -31.2828   21.3621 H   0  0  0  0  0  0
  -23.3717  -35.9634   23.3279 H   0  0  0  0  0  0
  -24.3632  -36.8932   22.2063 H   0  0  0  0  0  0
  -23.7299  -37.6467   23.6710 H   0  0  0  0  0  0
  -26.1223  -31.4977   20.5823 H   0  0  0  0  0  0
  -26.8686  -30.8112   21.9954 H   0  0  0  0  0  0
  -28.1593  -28.8954   21.1827 H   0  0  0  0  0  0
  -26.0056  -25.8343   19.0589 H   0  0  0  0  0  0
  -24.0011  -27.2465   19.0310 H   0  0  0  0  0  0
  -23.7879  -30.5456   19.3800 H   0  0  0  0  0  0
  -22.7856  -29.2069   19.8528 H   0  0  0  0  0  0
  -25.1270  -36.1801   25.0814 H   0  0  0  0  0  0
  -21.0023  -28.3363   24.1328 H   0  0  0  0  0  0
  -20.5782  -26.2313   23.3601 H   0  0  0  0  0  0
  -21.6675  -26.7487   22.1117 H   0  0  0  0  0  0
  -19.6982  -25.6300   21.1219 H   0  0  0  0  0  0
  -19.6748  -27.3186   20.6696 H   0  0  0  0  0  0
  -17.4227  -26.6641   21.3981 H   0  0  0  0  0  0
  -18.0363  -26.0046   22.8993 H   0  0  0  0  0  0
  -19.7991  -30.7221   24.2232 H   0  0  0  0  0  0
  -17.5075  -31.6250   24.5149 H   0  0  0  0  0  0
  -15.5382  -30.2947   23.7682 H   0  0  0  0  0  0
  -15.8712  -28.0838   22.7003 H   0  0  0  0  0  0
  -24.5997  -30.6912   25.7647 H   0  0  0  0  0  0
  -24.8853  -32.2763   26.4688 H   0  0  0  0  0  0
  -25.8068  -30.8871   27.0135 H   0  0  0  0  0  0
  -26.3020  -29.6596   24.1150 H   0  0  0  0  0  0
  -27.4169  -29.7201   25.4606 H   0  0  0  0  0  0
  -27.8858  -30.4161   23.9280 H   0  0  0  0  0  0
  -27.2658  -33.3681   26.1836 H   0  0  0  0  0  0
  -28.3955  -32.6755   25.0292 H   0  0  0  0  0  0
  -28.0637  -31.8522   26.5482 H   0  0  0  0  0  0
  -28.2506  -38.0128   24.7523 H   0  0  0  0  0  0
  -28.1141  -36.2632   24.6267 H   0  0  0  0  0  0
  -27.2287  -37.1367   25.8863 H   0  0  0  0  0  0
  -20.9503  -29.8759   21.6721 H   0  0  0  0  0  0
  -26.0131  -38.2763   24.1428 H   0  0  0  0  0  0
  -27.0770  -20.9658   19.6332 H   0  0  0  0  0  0
  -31.6439  -23.6925   18.7229 H   0  0  0  0  0  0
  -32.0718  -22.0391   19.1194 H   0  0  0  0  0  0
  -33.0342  -23.3686   19.7478 H   0  0  0  0  0  0
  -31.1688  -22.3860   22.8420 H   0  0  0  0  0  0
  -32.7571  -22.5731   22.1090 H   0  0  0  0  0  0
  -31.7404  -21.2152   21.6606 H   0  0  0  0  0  0
  -30.8916  -17.6328   21.4304 H   0  0  0  0  0  0
  -31.0557  -17.5144   19.7127 H   0  0  0  0  0  0
  -28.6011  -18.7382   21.1623 H   0  0  0  0  0  0
  -28.7324  -18.6102   19.4323 H   0  0  0  0  0  0
  -29.2436  -25.3065   21.6321 H   0  0  0  0  0  0
  -27.5236  -25.1099   21.5564 H   0  0  0  0  0  0
  -31.1236  -24.1516   21.1161 H   0  0  0  0  0  0
  -28.8688  -15.8417   20.7716 H   0  0  0  0  0  0
  1 25  1  0  0  0
  1 30  2  0  0  0
  1 82  1  0  0  0
  2  3  1  0  0  0
  2 25  1  0  0  0
  2 84  1  0  0  0
  2 85  1  0  0  0
  3  4  1  0  0  0
  3 86  1  0  0  0
  3 87  1  0  0  0
  4  5  1  0  0  0
  4 88  1  0  0  0
  4 89  1  0  0  0
  5  6  1  0  0  0
  5 26  1  0  0  0
  5 90  1  0  0  0
  6 25  1  0  0  0
  6 91  1  0  0  0
  6 92  1  0  0  0
  7  8  2  0  0  0
  7 26  1  0  0  0
  7 29  1  0  0  0
  8  9  1  0  0  0
  8 22  1  0  0  0
  9 10  1  0  0  0
  9 27  2  0  0  0
 10 11  2  0  0  0
 10 15  1  0  0  0
 11 12  1  0  0  0
 11 93  1  0  0  0
 12 13  2  0  0  0
 12 94  1  0  0  0
 13 14  1  0  0  0
 13 31  1  0  0  0
 14 15  2  0  0  0
 14 95  1  0  0  0
 15 96  1  0  0  0
 16 17  2  0  0  0
 16 21  1  0  0  0
 16 31  1  0  0  0
 17 18  1  0  0  0
 17 97  1  0  0  0
 18 19  2  0  0  0
 18 98  1  0  0  0
 19 20  1  0  0  0
 19 24  1  0  0  0
 20 21  2  0  0  0
 20 99  1  0  0  0
 21 23  1  0  0  0
 22 28  1  0  0  0
 22 32  2  0  0  0
 26 27  1  0  0  0
 28100  1  0  0  0
 28101  1  0  0  0
 29102  1  0  0  0
 29103  1  0  0  0
 33 34  1  0  0  0
 33 66  1  0  0  0
 33 70  2  0  0  0
 34 36  1  0  0  0
 34 59  1  0  0  0
 34104  1  0  0  0
 35 44  2  0  0  0
 35 45  1  0  0  0
 35 68  1  0  0  0
 36 56  1  0  0  0
 36105  1  0  0  0
 37 39  1  0  0  0
 37 47  1  0  0  0
 37 66  1  0  0  0
 37106  1  0  0  0
 38 43  2  0  0  0
 38 46  1  0  0  0
 38 47  1  0  0  0
 39 64  1  0  0  0
 39 67  2  0  0  0
 40 52  1  0  0  0
 40 53  2  0  0  0
 40 58  1  0  0  0
 41107  1  0  0  0
 41108  1  0  0  0
 41109  1  0  0  0
 41 48  1  0  0  0
 42 43  1  0  0  0
 42 66  1  0  0  0
 42110  1  0  0  0
 42111  1  0  0  0
 43 44  1  0  0  0
 44112  1  0  0  0
 45 46  2  0  0  0
 45113  1  0  0  0
 46114  1  0  0  0
 47115  1  0  0  0
 47116  1  0  0  0
 48 56  1  0  0  0
 48 65  1  0  0  0
 48117  1  0  0  0
 49 50  1  0  0  0
 49 53  1  0  0  0
 49 64  1  0  0  0
 49118  1  0  0  0
 50 51  1  0  0  0
 50119  1  0  0  0
 50120  1  0  0  0
 51 52  1  0  0  0
 51121  1  0  0  0
 51122  1  0  0  0
 52123  1  0  0  0
 52124  1  0  0  0
 53 54  1  0  0  0
 54 55  2  0  0  0
 54125  1  0  0  0
 55 57  1  0  0  0
 55126  1  0  0  0
 56 69  2  0  0  0
 57 58  2  0  0  0
 57127  1  0  0  0
 58128  1  0  0  0
 59 60  1  0  0  0
 59 61  1  0  0  0
 59 62  1  0  0  0
 60129  1  0  0  0
 60130  1  0  0  0
 60131  1  0  0  0
 61132  1  0  0  0
 61133  1  0  0  0
 61134  1  0  0  0
 62135  1  0  0  0
 62136  1  0  0  0
 62137  1  0  0  0
 63 65  1  0  0  0
 63138  1  0  0  0
 63139  1  0  0  0
 63140  1  0  0  0
 64141  1  0  0  0
 65142  1  0  0  0
 68 78  1  0  0  0
 71 72  1  0  0  0
 71 80  2  0  0  0
 71143  1  0  0  0
 72 73  2  0  0  0
 72 83  1  0  0  0
 73 79  1  0  0  0
 73 81  1  0  0  0
 74144  1  0  0  0
 74145  1  0  0  0
 74146  1  0  0  0
 74 79  1  0  0  0
 75 79  1  0  0  0
 75147  1  0  0  0
 75148  1  0  0  0
 75149  1  0  0  0
 76 77  1  0  0  0
 76 82  1  0  0  0
 76150  1  0  0  0
 76151  1  0  0  0
 77 83  1  0  0  0
 77152  1  0  0  0
 77153  1  0  0  0
 78 81  1  0  0  0
 78154  1  0  0  0
 78155  1  0  0  0
 79156  1  0  0  0
 80 81  1  0  0  0
 82157  1  0  0  0
M  ISO  4   1 100  68 101  78 101  82 100
M  END
> <chiral flag>
0

> <version>
0

> <s_m_source_file>
/data/baiqing/PycharmProjects/Reinvent-master-3.2/result/LINK_invent/BTK/process_docking_weight1_custom_sum_contain_oxygen_bond_distance_aromatic_linkinvent_7_9_3/rearranged_h_0153.sdf

> <i_m_source_file_index>
82

> <r_mmod_Potential_Energy-OPLS-2005>
251.213409423828

> <r_mmod_Stretch_Energy-OPLS-2005>
162.016952514648

> <r_mmod_Bend_Energy-OPLS-2005>
208.101425170898

> <r_mmod_Torsional_Energy-OPLS-2005>
251.487747192383

> <r_mmod_Improper_Torsional_Energy-OPLS-2005>
7.0367283821106

> <r_mmod_Van_der_Waal_Energy-OPLS-2005>
105.828590393066

> <r_mmod_Electrostatic_Energy-OPLS-2005>
-372.239379882812

> <r_mmod_Solvation_Energy-OPLS-2005>
-227.108337402344

> <b_mmod_Minimization_Converged-OPLS-2005>
0

> <r_mmod_RMS_Derivative-OPLS-2005>
5.05526638031006

$$$$
83
                    3D
 Structure written by MMmdl.
166176  0  0  1  0            999 V2000
  -30.6162  -14.6264   20.5160 C   0  0  0  0  0  0
  -30.4365  -12.3916   19.4385 C   0  0  0  0  0  0
  -29.5016  -12.5036   18.2142 C   0  0  0  0  0  0
  -28.0248  -12.3397   18.6286 C   0  0  0  0  0  0
  -27.6483  -13.2100   19.8572 C   0  0  2  0  0  0
  -28.6929  -13.0582   20.9846 C   0  0  0  0  0  0
  -25.2545  -13.8153   20.5663 C   0  0  0  0  0  0
  -24.1816  -13.0430   20.9199 C   0  0  0  0  0  0
  -24.6367  -11.6896   20.8737 C   0  0  0  0  0  0
  -23.9036  -10.4287   21.0406 C   0  0  0  0  0  0
  -24.3595   -9.4209   21.9184 C   0  0  0  0  0  0
  -23.6282   -8.2241   22.0755 C   0  0  0  0  0  0
  -22.4267   -8.0266   21.3543 C   0  0  0  0  0  0
  -21.9891   -9.0234   20.4645 C   0  0  0  0  0  0
  -22.7208  -10.2124   20.3054 C   0  0  0  0  0  0
  -21.6851   -6.0723   22.5279 C   0  0  0  0  0  0
  -21.4010   -6.5633   23.8210 C   0  0  0  0  0  0
  -21.3658   -5.6790   24.9174 C   0  0  0  0  0  0
  -21.6045   -4.3052   24.7230 C   0  0  0  0  0  0
  -21.8819   -3.8140   23.4351 C   0  0  0  0  0  0
  -21.9192   -4.6952   22.3405 C   0  0  0  0  0  0
  -22.7843  -13.5239   21.1854 C   0  0  0  0  0  0
  -22.1662   -4.2135   21.0982 F   0  0  0  0  0  0
  -21.5630   -3.4536   25.7744 F   0  0  0  0  0  0
  -30.0051  -13.4059   20.4189 N   0  0  0  0  0  0
  -26.2951  -12.9316   20.3275 N   0  0  0  0  0  0
  -25.9289  -11.6480   20.5742 N   0  0  0  0  0  0
  -22.0470  -12.8234   22.0399 N   0  0  0  0  0  0
  -25.4266  -15.1873   20.4036 N   0  0  0  0  0  0
  -31.7861  -14.7977   20.1611 O   0  0  0  0  0  0
  -21.6636   -6.8860   21.4236 O   0  0  0  0  0  0
  -22.3533  -14.5549   20.6695 O   0  0  0  0  0  0
  -24.6245  -31.8602   23.2017 C   0  0  0  0  0  0
  -25.9097  -32.4783   23.8343 C   0  0  1  0  0  0
  -27.2279  -27.3368   20.1325 C   0  0  0  0  0  0
  -25.5916  -33.8583   24.2286 N   0  0  0  0  0  0
  -23.4175  -30.4814   21.5448 C   0  0  2  0  0  0
  -24.8642  -28.9255   20.1243 C   0  0  0  0  0  0
  -22.7462  -29.4628   22.4957 C   0  0  0  0  0  0
  -18.0294  -28.1394   22.8496 C   0  0  0  0  0  0
  -24.1487  -36.7289   23.2634 C   0  0  0  0  0  0
  -25.9541  -30.7967   21.3675 C   0  0  0  0  0  0
  -26.0293  -29.4179   20.7274 C   0  0  0  0  0  0
  -27.2174  -28.6322   20.7255 C   0  0  0  0  0  0
  -26.0465  -26.8805   19.5170 C   0  0  0  0  0  0
  -24.8703  -27.6590   19.5143 C   0  0  0  0  0  0
  -23.6325  -29.8077   20.1638 C   0  0  0  0  0  0
  -25.4112  -36.3079   24.0329 C   0  0  1  0  0  0
  -20.5892  -28.3682   23.1308 C   0  0  2  0  0  0
  -20.6791  -26.9409   22.5422 C   0  0  0  0  0  0
  -19.5763  -26.6393   21.5224 C   0  0  0  0  0  0
  -18.1938  -26.7952   22.1622 C   0  0  0  0  0  0
  -19.1546  -28.8856   23.2899 C   0  0  0  0  0  0
  -18.9465  -30.1469   23.8900 C   0  0  0  0  0  0
  -17.6463  -30.6588   24.0576 C   0  0  0  0  0  0
  -25.9045  -34.9452   23.5107 C   0  0  0  0  0  0
  -16.5355  -29.9094   23.6331 C   0  0  0  0  0  0
  -16.7281  -28.6518   23.0336 C   0  0  0  0  0  0
  -26.4491  -31.6576   25.0695 C   0  0  0  0  0  0
  -25.3727  -31.3720   26.1422 C   0  0  0  0  0  0
  -27.0307  -30.3001   24.6100 C   0  0  0  0  0  0
  -27.6062  -32.4292   25.7477 C   0  0  0  0  0  0
  -27.5583  -37.1797   24.8463 C   0  0  0  0  0  0
  -21.4178  -29.3035   22.3703 N   0  0  0  0  0  0
  -26.4293  -37.3768   23.9413 N   0  0  0  0  0  0
  -24.6840  -31.0624   22.0960 N   0  0  0  0  0  0
  -23.4190  -28.8173   23.3028 O   0  0  0  0  0  0
  -28.3673  -26.5409   20.0335 O   0  0  0  0  0  0
  -26.5609  -34.8919   22.4670 O   0  0  0  0  0  0
  -23.5417  -32.1389   23.7364 O   0  0  0  0  0  0
  -26.8470  -23.7416   21.2383 C   0  0  0  0  0  0
  -28.1540  -24.0259   20.8160 C   0  0  0  0  0  0
  -28.9502  -22.8931   20.3916 C   0  0  0  0  0  0
  -28.3872  -21.5550   20.3946 C   0  0  0  0  0  0
  -27.0441  -21.4495   20.8446 C   0  0  0  0  0  0
  -25.8025  -19.4606   19.6491 C   0  0  0  0  0  0
  -24.7983  -20.0961   20.5673 C   0  0  0  0  0  0
  -28.9063  -18.1048   21.2280 C   0  0  0  0  0  0
  -30.3466  -18.0530   19.8213 C   0  0  0  0  0  0
  -26.2752  -20.1576   20.9107 C   0  0  0  0  0  0
  -30.1105  -17.1409   21.0421 C   0  0  2  0  0  0
  -30.3836  -23.1059   19.9194 C   0  0  0  0  0  0
  -29.0917  -20.2768   19.7651 C   0  0  0  0  0  0
  -28.6316  -25.5084   21.0346 C   0  0  0  0  0  0
  -26.3207  -22.5060   21.2709 N   0  0  0  0  0  0
  -29.8042  -15.6774   20.8464 N   0  0  0  0  0  0
  -29.7289  -19.1717   20.5986 N   0  3  1  0  0  0
  -31.4753  -12.5286   19.1329 H   0  0  0  0  0  0
  -30.3810  -11.3939   19.8763 H   0  0  0  0  0  0
  -29.7662  -11.7534   17.4676 H   0  0  0  0  0  0
  -29.6393  -13.4733   17.7340 H   0  0  0  0  0  0
  -27.8616  -11.2861   18.8585 H   0  0  0  0  0  0
  -27.3682  -12.5694   17.7886 H   0  0  0  0  0  0
  -27.6683  -14.2452   19.5168 H   0  0  0  0  0  0
  -28.7057  -12.0329   21.3581 H   0  0  0  0  0  0
  -28.4384  -13.6829   21.8421 H   0  0  0  0  0  0
  -25.2740   -9.5692   22.4752 H   0  0  0  0  0  0
  -23.9994   -7.4632   22.7474 H   0  0  0  0  0  0
  -21.0824   -8.8739   19.8948 H   0  0  0  0  0  0
  -22.3658  -10.9651   19.6157 H   0  0  0  0  0  0
  -21.1997   -7.6142   23.9706 H   0  0  0  0  0  0
  -21.1483   -6.0524   25.9078 H   0  0  0  0  0  0
  -22.0597   -2.7598   23.2858 H   0  0  0  0  0  0
  -22.4067  -11.9890   22.4796 H   0  0  0  0  0  0
  -21.1075  -13.1243   22.2575 H   0  0  0  0  0  0
  -24.6472  -15.8312   20.4848 H   0  0  0  0  0  0
  -26.2520  -15.6120   20.0038 H   0  0  0  0  0  0
  -26.7171  -32.5465   23.1098 H   0  0  0  0  0  0
  -25.0080  -33.9732   25.0448 H   0  0  0  0  0  0
  -22.7104  -31.3007   21.4001 H   0  0  0  0  0  0
  -23.3749  -35.9617   23.3281 H   0  0  0  0  0  0
  -24.3584  -36.8918   22.2049 H   0  0  0  0  0  0
  -23.7250  -37.6494   23.6659 H   0  0  0  0  0  0
  -26.0734  -31.5516   20.5888 H   0  0  0  0  0  0
  -26.8414  -30.8585   21.9867 H   0  0  0  0  0  0
  -28.1217  -29.0158   21.1775 H   0  0  0  0  0  0
  -26.0390  -25.9138   19.0320 H   0  0  0  0  0  0
  -23.9773  -27.2766   19.0386 H   0  0  0  0  0  0
  -23.7540  -30.5796   19.4033 H   0  0  0  0  0  0
  -22.7515  -29.2366   19.8654 H   0  0  0  0  0  0
  -25.1299  -36.1913   25.0823 H   0  0  0  0  0  0
  -20.9995  -28.3249   24.1422 H   0  0  0  0  0  0
  -20.5710  -26.2279   23.3609 H   0  0  0  0  0  0
  -21.6656  -26.7461   22.1197 H   0  0  0  0  0  0
  -19.6917  -25.6307   21.1242 H   0  0  0  0  0  0
  -19.6711  -27.3225   20.6771 H   0  0  0  0  0  0
  -17.4220  -26.6717   21.4006 H   0  0  0  0  0  0
  -18.0310  -26.0109   22.9023 H   0  0  0  0  0  0
  -19.7937  -30.7301   24.2250 H   0  0  0  0  0  0
  -17.5010  -31.6268   24.5187 H   0  0  0  0  0  0
  -15.5352  -30.2988   23.7656 H   0  0  0  0  0  0
  -15.8687  -28.0846   22.7014 H   0  0  0  0  0  0
  -24.5934  -30.7020   25.7766 H   0  0  0  0  0  0
  -24.8877  -32.2887   26.4783 H   0  0  0  0  0  0
  -25.8062  -30.8960   27.0227 H   0  0  0  0  0  0
  -26.2854  -29.6774   24.1139 H   0  0  0  0  0  0
  -27.4045  -29.7219   25.4559 H   0  0  0  0  0  0
  -27.8702  -30.4296   23.9271 H   0  0  0  0  0  0
  -27.2695  -33.3622   26.2014 H   0  0  0  0  0  0
  -28.3909  -32.6801   25.0323 H   0  0  0  0  0  0
  -28.0680  -31.8426   26.5429 H   0  0  0  0  0  0
  -28.2587  -38.0103   24.7504 H   0  0  0  0  0  0
  -28.1091  -36.2636   24.6288 H   0  0  0  0  0  0
  -27.2300  -37.1440   25.8863 H   0  0  0  0  0  0
  -20.9338  -29.8726   21.6904 H   0  0  0  0  0  0
  -26.0162  -38.2836   24.1417 H   0  0  0  0  0  0
  -26.2111  -24.5320   21.6101 H   0  0  0  0  0  0
  -25.9741  -19.9548   18.6948 H   0  0  0  0  0  0
  -25.8183  -18.3734   19.6246 H   0  0  0  0  0  0
  -24.1755  -19.4271   21.1566 H   0  0  0  0  0  0
  -24.3100  -21.0049   20.2224 H   0  0  0  0  0  0
  -28.6472  -18.3103   22.2672 H   0  0  0  0  0  0
  -28.0257  -17.8279   20.6452 H   0  0  0  0  0  0
  -29.7737  -17.7657   18.9357 H   0  0  0  0  0  0
  -31.3952  -18.2224   19.5752 H   0  0  0  0  0  0
  -26.5874  -19.5615   21.7643 H   0  0  0  0  0  0
  -30.8725  -17.2988   21.8096 H   0  0  0  0  0  0
  -30.8632  -23.9621   20.3878 H   0  0  0  0  0  0
  -30.4080  -23.2555   18.8395 H   0  0  0  0  0  0
  -31.0131  -22.2507   20.1607 H   0  0  0  0  0  0
  -29.8706  -20.6280   19.0895 H   0  0  0  0  0  0
  -28.3831  -19.8054   19.0861 H   0  0  0  0  0  0
  -29.7012  -25.5224   21.2302 H   0  0  0  0  0  0
  -28.2020  -25.8485   21.9793 H   0  0  0  0  0  0
  -28.8590  -15.3977   21.0622 H   0  0  0  0  0  0
  -30.4024  -19.5415   21.2519 H   0  0  0  0  0  0
  1 25  1  0  0  0
  1 30  2  0  0  0
  1 86  1  0  0  0
  2  3  1  0  0  0
  2 25  1  0  0  0
  2 88  1  0  0  0
  2 89  1  0  0  0
  3  4  1  0  0  0
  3 90  1  0  0  0
  3 91  1  0  0  0
  4  5  1  0  0  0
  4 92  1  0  0  0
  4 93  1  0  0  0
  5  6  1  0  0  0
  5 26  1  0  0  0
  5 94  1  0  0  0
  6 25  1  0  0  0
  6 95  1  0  0  0
  6 96  1  0  0  0
  7  8  2  0  0  0
  7 26  1  0  0  0
  7 29  1  0  0  0
  8  9  1  0  0  0
  8 22  1  0  0  0
  9 10  1  0  0  0
  9 27  2  0  0  0
 10 11  2  0  0  0
 10 15  1  0  0  0
 11 12  1  0  0  0
 11 97  1  0  0  0
 12 13  2  0  0  0
 12 98  1  0  0  0
 13 14  1  0  0  0
 13 31  1  0  0  0
 14 15  2  0  0  0
 14 99  1  0  0  0
 15100  1  0  0  0
 16 17  2  0  0  0
 16 21  1  0  0  0
 16 31  1  0  0  0
 17 18  1  0  0  0
 17101  1  0  0  0
 18 19  2  0  0  0
 18102  1  0  0  0
 19 20  1  0  0  0
 19 24  1  0  0  0
 20 21  2  0  0  0
 20103  1  0  0  0
 21 23  1  0  0  0
 22 28  1  0  0  0
 22 32  2  0  0  0
 26 27  1  0  0  0
 28104  1  0  0  0
 28105  1  0  0  0
 29106  1  0  0  0
 29107  1  0  0  0
 33 34  1  0  0  0
 33 66  1  0  0  0
 33 70  2  0  0  0
 34 36  1  0  0  0
 34 59  1  0  0  0
 34108  1  0  0  0
 35 44  2  0  0  0
 35 45  1  0  0  0
 35 68  1  0  0  0
 36 56  1  0  0  0
 36109  1  0  0  0
 37 39  1  0  0  0
 37 47  1  0  0  0
 37 66  1  0  0  0
 37110  1  0  0  0
 38 43  2  0  0  0
 38 46  1  0  0  0
 38 47  1  0  0  0
 39 64  1  0  0  0
 39 67  2  0  0  0
 40 52  1  0  0  0
 40 53  2  0  0  0
 40 58  1  0  0  0
 41111  1  0  0  0
 41112  1  0  0  0
 41113  1  0  0  0
 41 48  1  0  0  0
 42 43  1  0  0  0
 42 66  1  0  0  0
 42114  1  0  0  0
 42115  1  0  0  0
 43 44  1  0  0  0
 44116  1  0  0  0
 45 46  2  0  0  0
 45117  1  0  0  0
 46118  1  0  0  0
 47119  1  0  0  0
 47120  1  0  0  0
 48 56  1  0  0  0
 48 65  1  0  0  0
 48121  1  0  0  0
 49 50  1  0  0  0
 49 53  1  0  0  0
 49 64  1  0  0  0
 49122  1  0  0  0
 50 51  1  0  0  0
 50123  1  0  0  0
 50124  1  0  0  0
 51 52  1  0  0  0
 51125  1  0  0  0
 51126  1  0  0  0
 52127  1  0  0  0
 52128  1  0  0  0
 53 54  1  0  0  0
 54 55  2  0  0  0
 54129  1  0  0  0
 55 57  1  0  0  0
 55130  1  0  0  0
 56 69  2  0  0  0
 57 58  2  0  0  0
 57131  1  0  0  0
 58132  1  0  0  0
 59 60  1  0  0  0
 59 61  1  0  0  0
 59 62  1  0  0  0
 60133  1  0  0  0
 60134  1  0  0  0
 60135  1  0  0  0
 61136  1  0  0  0
 61137  1  0  0  0
 61138  1  0  0  0
 62139  1  0  0  0
 62140  1  0  0  0
 62141  1  0  0  0
 63 65  1  0  0  0
 63142  1  0  0  0
 63143  1  0  0  0
 63144  1  0  0  0
 64145  1  0  0  0
 65146  1  0  0  0
 68 84  1  0  0  0
 71 72  2  0  0  0
 71 85  1  0  0  0
 71147  1  0  0  0
 72 73  1  0  0  0
 72 84  1  0  0  0
 73 74  2  0  0  0
 73 82  1  0  0  0
 74 75  1  0  0  0
 74 83  1  0  0  0
 75 85  2  0  0  0
 75 80  1  0  0  0
 76 77  1  0  0  0
 76 80  1  0  0  0
 76148  1  0  0  0
 76149  1  0  0  0
 77 80  1  0  0  0
 77150  1  0  0  0
 77151  1  0  0  0
 78 81  1  0  0  0
 78 87  1  0  0  0
 78152  1  0  0  0
 78153  1  0  0  0
 79 81  1  0  0  0
 79 87  1  0  0  0
 79154  1  0  0  0
 79155  1  0  0  0
 80156  1  0  0  0
 81 86  1  0  0  0
 81157  1  0  0  0
 82158  1  0  0  0
 82159  1  0  0  0
 82160  1  0  0  0
 83161  1  0  0  0
 83162  1  0  0  0
 83 87  1  0  0  0
 84163  1  0  0  0
 84164  1  0  0  0
 86165  1  0  0  0
 87166  1  0  0  0
M  CHG  1  87   1
M  ISO  4   1 100  68 101  84 101  86 100
M  END
> <chiral flag>
0

> <version>
0

> <s_m_source_file>
/data/baiqing/PycharmProjects/Reinvent-master-3.2/result/LINK_invent/BTK/process_docking_weight1_custom_sum_contain_oxygen_bond_distance_aromatic_linkinvent_7_9_3/rearranged_h_0153.sdf

> <i_m_source_file_index>
83

> <r_mmod_Potential_Energy-OPLS-2005>
-143.236907958984

> <r_mmod_Stretch_Energy-OPLS-2005>
80.4445190429688

> <r_mmod_Bend_Energy-OPLS-2005>
180.150543212891

> <r_mmod_Torsional_Energy-OPLS-2005>
287.520935058594

> <r_mmod_Improper_Torsional_Energy-OPLS-2005>
6.21719789505005

> <r_mmod_Van_der_Waal_Energy-OPLS-2005>
133.590545654297

> <r_mmod_Electrostatic_Energy-OPLS-2005>
-387.387329101562

> <r_mmod_Solvation_Energy-OPLS-2005>
-484.032653808594

> <b_mmod_Minimization_Converged-OPLS-2005>
0

> <r_mmod_RMS_Derivative-OPLS-2005>
1.48047018051147

$$$$
84
                    3D
 Structure written by MMmdl.
172181  0  0  1  0            999 V2000
  -30.7016  -14.4642   20.6247 C   0  0  0  0  0  0
  -30.4331  -12.3225   19.4129 C   0  0  0  0  0  0
  -29.4951  -12.5170   18.2028 C   0  0  0  0  0  0
  -28.0177  -12.3642   18.6166 C   0  0  0  0  0  0
  -27.6632  -13.1982   19.8751 C   0  0  2  0  0  0
  -28.7050  -12.9621   20.9930 C   0  0  0  0  0  0
  -25.2567  -13.8113   20.5645 C   0  0  0  0  0  0
  -24.1827  -13.0403   20.9176 C   0  0  0  0  0  0
  -24.6381  -11.6875   20.8733 C   0  0  0  0  0  0
  -23.9045  -10.4273   21.0405 C   0  0  0  0  0  0
  -24.3603   -9.4193   21.9183 C   0  0  0  0  0  0
  -23.6281   -8.2228   22.0751 C   0  0  0  0  0  0
  -22.4264   -8.0269   21.3543 C   0  0  0  0  0  0
  -21.9896   -9.0240   20.4645 C   0  0  0  0  0  0
  -22.7220  -10.2119   20.3054 C   0  0  0  0  0  0
  -21.6848   -6.0724   22.5277 C   0  0  0  0  0  0
  -21.4010   -6.5630   23.8210 C   0  0  0  0  0  0
  -21.3660   -5.6785   24.9173 C   0  0  0  0  0  0
  -21.6044   -4.3050   24.7224 C   0  0  0  0  0  0
  -21.8821   -3.8140   23.4348 C   0  0  0  0  0  0
  -21.9191   -4.6953   22.3401 C   0  0  0  0  0  0
  -22.7854  -13.5217   21.1846 C   0  0  0  0  0  0
  -22.1661   -4.2139   21.0981 F   0  0  0  0  0  0
  -21.5630   -3.4536   25.7739 F   0  0  0  0  0  0
  -30.0407  -13.2854   20.4537 N   0  0  0  0  0  0
  -26.3021  -12.9286   20.3347 N   0  0  0  0  0  0
  -25.9307  -11.6455   20.5759 N   0  0  0  0  0  0
  -22.0492  -12.8221   22.0409 N   0  0  0  0  0  0
  -25.4212  -15.1823   20.3996 N   0  0  0  0  0  0
  -31.7837  -14.7214   20.0908 O   0  0  0  0  0  0
  -21.6633   -6.8866   21.4239 O   0  0  0  0  0  0
  -22.3546  -14.5527   20.6696 O   0  0  0  0  0  0
  -24.6144  -31.8675   23.2098 C   0  0  0  0  0  0
  -25.9035  -32.4827   23.8402 C   0  0  1  0  0  0
  -27.2421  -27.4331   20.1045 C   0  0  0  0  0  0
  -25.5887  -33.8623   24.2330 N   0  0  0  0  0  0
  -23.4053  -30.4892   21.5484 C   0  0  2  0  0  0
  -24.8579  -28.9530   20.1172 C   0  0  0  0  0  0
  -22.7423  -29.4647   22.4969 C   0  0  0  0  0  0
  -18.0277  -28.1389   22.8497 C   0  0  0  0  0  0
  -24.1485  -36.7312   23.2634 C   0  0  0  0  0  0
  -25.9337  -30.8320   21.3652 C   0  0  0  0  0  0
  -26.0161  -29.4635   20.7182 C   0  0  0  0  0  0
  -27.2133  -28.7093   20.7143 C   0  0  0  0  0  0
  -26.0717  -26.9371   19.4961 C   0  0  0  0  0  0
  -24.8797  -27.6877   19.5038 C   0  0  0  0  0  0
  -23.6186  -29.8203   20.1638 C   0  0  0  0  0  0
  -25.4105  -36.3109   24.0338 C   0  0  1  0  0  0
  -20.5872  -28.3666   23.1318 C   0  0  2  0  0  0
  -20.6760  -26.9396   22.5428 C   0  0  0  0  0  0
  -19.5744  -26.6390   21.5218 C   0  0  0  0  0  0
  -18.1919  -26.7939   22.1627 C   0  0  0  0  0  0
  -19.1530  -28.8844   23.2910 C   0  0  0  0  0  0
  -18.9454  -30.1452   23.8918 C   0  0  0  0  0  0
  -17.6456  -30.6597   24.0570 C   0  0  0  0  0  0
  -25.9031  -34.9475   23.5135 C   0  0  0  0  0  0
  -16.5344  -29.9102   23.6331 C   0  0  0  0  0  0
  -16.7269  -28.6519   23.0354 C   0  0  0  0  0  0
  -26.4466  -31.6604   25.0727 C   0  0  0  0  0  0
  -25.3735  -31.3731   26.1482 C   0  0  0  0  0  0
  -27.0282  -30.3042   24.6097 C   0  0  0  0  0  0
  -27.6045  -32.4318   25.7488 C   0  0  0  0  0  0
  -27.5584  -37.1806   24.8460 C   0  0  0  0  0  0
  -21.4147  -29.3037   22.3723 N   0  0  0  0  0  0
  -26.4288  -37.3794   23.9413 N   0  0  0  0  0  0
  -24.6690  -31.0770   22.1000 N   0  0  0  0  0  0
  -23.4187  -28.8173   23.3005 O   0  0  0  0  0  0
  -28.3781  -26.6550   20.0713 O   0  0  0  0  0  0
  -26.5589  -34.8922   22.4693 O   0  0  0  0  0  0
  -23.5338  -32.1421   23.7488 O   0  0  0  0  0  0
  -28.8698  -23.7942   19.7403 C   0  0  0  0  0  0
  -30.0821  -22.3156   21.7840 C   0  0  0  0  0  0
  -29.2632  -22.4530   19.5013 C   0  0  0  0  0  0
  -29.6747  -23.6496   22.0245 C   0  0  0  0  0  0
  -29.0711  -24.4149   20.9925 C   0  0  0  0  0  0
  -29.8873  -21.6897   20.5305 C   0  0  0  0  0  0
  -27.3711  -18.2496   21.3795 C   0  0  0  0  0  0
  -28.1284  -17.4108   20.3645 C   0  0  0  0  0  0
  -28.1503  -19.5588   21.3428 C   0  0  0  0  0  0
  -29.6043  -17.7842   20.6018 C   0  0  2  0  0  0
  -28.9950  -21.8676   18.1230 C   0  0  0  0  0  0
  -29.8946  -24.2361   23.4098 C   0  0  0  0  0  0
  -31.8646  -20.0797   20.5891 C   0  0  0  0  0  0
  -28.5853  -25.8561   21.2471 C   0  0  0  0  0  0
  -30.3316  -16.8057   21.5834 C   0  0  0  0  0  0
  -30.3536  -20.2182   20.3241 C   0  0  1  0  0  0
  -30.0364  -15.3777   21.3516 N   0  0  0  0  0  0
  -29.5776  -19.2018   21.1124 N   0  3  1  0  0  0
  -31.4739  -12.4438   19.1079 H   0  0  0  0  0  0
  -30.3542  -11.3051   19.7990 H   0  0  0  0  0  0
  -29.7391  -11.7985   17.4191 H   0  0  0  0  0  0
  -29.6539  -13.5061   17.7700 H   0  0  0  0  0  0
  -27.8345  -11.3067   18.8108 H   0  0  0  0  0  0
  -27.3641  -12.6374   17.7872 H   0  0  0  0  0  0
  -27.7110  -14.2452   19.5802 H   0  0  0  0  0  0
  -28.6863  -11.9173   21.3066 H   0  0  0  0  0  0
  -28.4488  -13.5296   21.8884 H   0  0  0  0  0  0
  -25.2749   -9.5668   22.4754 H   0  0  0  0  0  0
  -23.9990   -7.4618   22.7469 H   0  0  0  0  0  0
  -21.0827   -8.8755   19.8954 H   0  0  0  0  0  0
  -22.3679  -10.9655   19.6161 H   0  0  0  0  0  0
  -21.2002   -7.6140   23.9708 H   0  0  0  0  0  0
  -21.1480   -6.0518   25.9074 H   0  0  0  0  0  0
  -22.0600   -2.7601   23.2849 H   0  0  0  0  0  0
  -22.4101  -11.9879   22.4795 H   0  0  0  0  0  0
  -21.1116  -13.1257   22.2617 H   0  0  0  0  0  0
  -24.6447  -15.8275   20.4949 H   0  0  0  0  0  0
  -26.2572  -15.6186   20.0369 H   0  0  0  0  0  0
  -26.7105  -32.5544   23.1169 H   0  0  0  0  0  0
  -25.0049  -33.9781   25.0484 H   0  0  0  0  0  0
  -22.6946  -31.3062   21.4078 H   0  0  0  0  0  0
  -23.3742  -35.9649   23.3304 H   0  0  0  0  0  0
  -24.3575  -36.8923   22.2045 H   0  0  0  0  0  0
  -23.7238  -37.6519   23.6647 H   0  0  0  0  0  0
  -26.0440  -31.5951   20.5931 H   0  0  0  0  0  0
  -26.8215  -30.8898   21.9828 H   0  0  0  0  0  0
  -28.1085  -29.1013   21.1777 H   0  0  0  0  0  0
  -26.0848  -25.9650   19.0234 H   0  0  0  0  0  0
  -23.9896  -27.2898   19.0363 H   0  0  0  0  0  0
  -23.7294  -30.5954   19.4046 H   0  0  0  0  0  0
  -22.7434  -29.2412   19.8655 H   0  0  0  0  0  0
  -25.1282  -36.1970   25.0830 H   0  0  0  0  0  0
  -20.9977  -28.3230   24.1435 H   0  0  0  0  0  0
  -20.5654  -26.2271   23.3616 H   0  0  0  0  0  0
  -21.6632  -26.7437   22.1218 H   0  0  0  0  0  0
  -19.6891  -25.6303   21.1243 H   0  0  0  0  0  0
  -19.6689  -27.3206   20.6752 H   0  0  0  0  0  0
  -17.4194  -26.6710   21.4018 H   0  0  0  0  0  0
  -18.0305  -26.0080   22.9020 H   0  0  0  0  0  0
  -19.7925  -30.7272   24.2294 H   0  0  0  0  0  0
  -17.5008  -31.6277   24.5173 H   0  0  0  0  0  0
  -15.5347  -30.3012   23.7639 H   0  0  0  0  0  0
  -15.8670  -28.0846   22.7057 H   0  0  0  0  0  0
  -24.5887  -30.7098   25.7828 H   0  0  0  0  0  0
  -24.8949  -32.2902   26.4934 H   0  0  0  0  0  0
  -25.8085  -30.8895   27.0238 H   0  0  0  0  0  0
  -26.2825  -29.6825   24.1128 H   0  0  0  0  0  0
  -27.4023  -29.7255   25.4551 H   0  0  0  0  0  0
  -27.8676  -30.4356   23.9263 H   0  0  0  0  0  0
  -27.2671  -33.3612   26.2092 H   0  0  0  0  0  0
  -28.3846  -32.6895   25.0312 H   0  0  0  0  0  0
  -28.0724  -31.8426   26.5386 H   0  0  0  0  0  0
  -28.2603  -38.0103   24.7515 H   0  0  0  0  0  0
  -28.1081  -36.2636   24.6277 H   0  0  0  0  0  0
  -27.2305  -37.1449   25.8863 H   0  0  0  0  0  0
  -20.9295  -29.8788   21.6976 H   0  0  0  0  0  0
  -26.0180  -38.2871   24.1424 H   0  0  0  0  0  0
  -28.3935  -24.3595   18.9512 H   0  0  0  0  0  0
  -30.5469  -21.7595   22.5860 H   0  0  0  0  0  0
  -27.4297  -17.7947   22.3696 H   0  0  0  0  0  0
  -26.3178  -18.3775   21.1276 H   0  0  0  0  0  0
  -27.8352  -17.7086   19.3564 H   0  0  0  0  0  0
  -27.9057  -16.3526   20.4552 H   0  0  0  0  0  0
  -28.0200  -20.1453   22.2529 H   0  0  0  0  0  0
  -27.7635  -20.1491   20.5110 H   0  0  0  0  0  0
  -30.1236  -17.7291   19.6437 H   0  0  0  0  0  0
  -28.4729  -22.5766   17.4788 H   0  0  0  0  0  0
  -28.3718  -20.9754   18.1917 H   0  0  0  0  0  0
  -29.9294  -21.6044   17.6267 H   0  0  0  0  0  0
  -30.1877  -23.4683   24.1266 H   0  0  0  0  0  0
  -28.9843  -24.7024   23.7878 H   0  0  0  0  0  0
  -30.6842  -24.9871   23.3858 H   0  0  0  0  0  0
  -32.4283  -20.7822   19.9748 H   0  0  0  0  0  0
  -32.2268  -19.0815   20.3440 H   0  0  0  0  0  0
  -32.1205  -20.2770   21.6301 H   0  0  0  0  0  0
  -29.3199  -26.3797   21.8591 H   0  0  0  0  0  0
  -27.6751  -25.7913   21.8469 H   0  0  0  0  0  0
  -30.0271  -17.0202   22.6086 H   0  0  0  0  0  0
  -31.4100  -16.9722   21.5491 H   0  0  0  0  0  0
  -30.2059  -19.9664   19.2758 H   0  0  0  0  0  0
  -29.1780  -15.0375   21.7594 H   0  0  0  0  0  0
  -29.9973  -19.1818   22.0292 H   0  0  0  0  0  0
  1 25  1  0  0  0
  1 30  2  0  0  0
  1 87  1  0  0  0
  2  3  1  0  0  0
  2 25  1  0  0  0
  2 89  1  0  0  0
  2 90  1  0  0  0
  3  4  1  0  0  0
  3 91  1  0  0  0
  3 92  1  0  0  0
  4  5  1  0  0  0
  4 93  1  0  0  0
  4 94  1  0  0  0
  5  6  1  0  0  0
  5 26  1  0  0  0
  5 95  1  0  0  0
  6 25  1  0  0  0
  6 96  1  0  0  0
  6 97  1  0  0  0
  7  8  2  0  0  0
  7 26  1  0  0  0
  7 29  1  0  0  0
  8  9  1  0  0  0
  8 22  1  0  0  0
  9 10  1  0  0  0
  9 27  2  0  0  0
 10 11  2  0  0  0
 10 15  1  0  0  0
 11 12  1  0  0  0
 11 98  1  0  0  0
 12 13  2  0  0  0
 12 99  1  0  0  0
 13 14  1  0  0  0
 13 31  1  0  0  0
 14 15  2  0  0  0
 14100  1  0  0  0
 15101  1  0  0  0
 16 17  2  0  0  0
 16 21  1  0  0  0
 16 31  1  0  0  0
 17 18  1  0  0  0
 17102  1  0  0  0
 18 19  2  0  0  0
 18103  1  0  0  0
 19 20  1  0  0  0
 19 24  1  0  0  0
 20 21  2  0  0  0
 20104  1  0  0  0
 21 23  1  0  0  0
 22 28  1  0  0  0
 22 32  2  0  0  0
 26 27  1  0  0  0
 28105  1  0  0  0
 28106  1  0  0  0
 29107  1  0  0  0
 29108  1  0  0  0
 33 34  1  0  0  0
 33 66  1  0  0  0
 33 70  2  0  0  0
 34 36  1  0  0  0
 34 59  1  0  0  0
 34109  1  0  0  0
 35 44  2  0  0  0
 35 45  1  0  0  0
 35 68  1  0  0  0
 36 56  1  0  0  0
 36110  1  0  0  0
 37 39  1  0  0  0
 37 47  1  0  0  0
 37 66  1  0  0  0
 37111  1  0  0  0
 38 43  2  0  0  0
 38 46  1  0  0  0
 38 47  1  0  0  0
 39 64  1  0  0  0
 39 67  2  0  0  0
 40 52  1  0  0  0
 40 53  2  0  0  0
 40 58  1  0  0  0
 41112  1  0  0  0
 41113  1  0  0  0
 41114  1  0  0  0
 41 48  1  0  0  0
 42 43  1  0  0  0
 42 66  1  0  0  0
 42115  1  0  0  0
 42116  1  0  0  0
 43 44  1  0  0  0
 44117  1  0  0  0
 45 46  2  0  0  0
 45118  1  0  0  0
 46119  1  0  0  0
 47120  1  0  0  0
 47121  1  0  0  0
 48 56  1  0  0  0
 48 65  1  0  0  0
 48122  1  0  0  0
 49 50  1  0  0  0
 49 53  1  0  0  0
 49 64  1  0  0  0
 49123  1  0  0  0
 50 51  1  0  0  0
 50124  1  0  0  0
 50125  1  0  0  0
 51 52  1  0  0  0
 51126  1  0  0  0
 51127  1  0  0  0
 52128  1  0  0  0
 52129  1  0  0  0
 53 54  1  0  0  0
 54 55  2  0  0  0
 54130  1  0  0  0
 55 57  1  0  0  0
 55131  1  0  0  0
 56 69  2  0  0  0
 57 58  2  0  0  0
 57132  1  0  0  0
 58133  1  0  0  0
 59 60  1  0  0  0
 59 61  1  0  0  0
 59 62  1  0  0  0
 60134  1  0  0  0
 60135  1  0  0  0
 60136  1  0  0  0
 61137  1  0  0  0
 61138  1  0  0  0
 61139  1  0  0  0
 62140  1  0  0  0
 62141  1  0  0  0
 62142  1  0  0  0
 63 65  1  0  0  0
 63143  1  0  0  0
 63144  1  0  0  0
 63145  1  0  0  0
 64146  1  0  0  0
 65147  1  0  0  0
 68 84  1  0  0  0
 71 73  2  0  0  0
 71 75  1  0  0  0
 71148  1  0  0  0
 72 74  1  0  0  0
 72 76  2  0  0  0
 72149  1  0  0  0
 73 76  1  0  0  0
 73 81  1  0  0  0
 74 75  2  0  0  0
 74 82  1  0  0  0
 75 84  1  0  0  0
 76 86  1  0  0  0
 77 78  1  0  0  0
 77 79  1  0  0  0
 77150  1  0  0  0
 77151  1  0  0  0
 78 80  1  0  0  0
 78152  1  0  0  0
 78153  1  0  0  0
 79154  1  0  0  0
 79155  1  0  0  0
 79 88  1  0  0  0
 80 85  1  0  0  0
 80 88  1  0  0  0
 80156  1  0  0  0
 81157  1  0  0  0
 81158  1  0  0  0
 81159  1  0  0  0
 82160  1  0  0  0
 82161  1  0  0  0
 82162  1  0  0  0
 83163  1  0  0  0
 83164  1  0  0  0
 83165  1  0  0  0
 83 86  1  0  0  0
 84166  1  0  0  0
 84167  1  0  0  0
 85 87  1  0  0  0
 85168  1  0  0  0
 85169  1  0  0  0
 86 88  1  0  0  0
 86170  1  0  0  0
 87171  1  0  0  0
 88172  1  0  0  0
M  CHG  1  88   1
M  ISO  4   1 100  68 101  84 101  87 100
M  END
> <chiral flag>
0

> <version>
0

> <s_m_source_file>
/data/baiqing/PycharmProjects/Reinvent-master-3.2/result/LINK_invent/BTK/process_docking_weight1_custom_sum_contain_oxygen_bond_distance_aromatic_linkinvent_7_9_3/rearranged_h_0153.sdf

> <i_m_source_file_index>
84

> <r_mmod_Potential_Energy-OPLS-2005>
-98.9400634765625

> <r_mmod_Stretch_Energy-OPLS-2005>
46.437686920166

> <r_mmod_Bend_Energy-OPLS-2005>
124.832626342773

> <r_mmod_Torsional_Energy-OPLS-2005>
296.943725585938

> <r_mmod_Improper_Torsional_Energy-OPLS-2005>
2.68904829025269

> <r_mmod_Van_der_Waal_Energy-OPLS-2005>
143.982406616211

> <r_mmod_Electrostatic_Energy-OPLS-2005>
-295.729614257812

> <r_mmod_Solvation_Energy-OPLS-2005>
-429.56494140625

> <b_mmod_Minimization_Converged-OPLS-2005>
0

> <r_mmod_RMS_Derivative-OPLS-2005>
1.05672323703766

$$$$
85
                    3D
 Structure written by MMmdl.
162171  0  0  1  0            999 V2000
  -30.6415  -14.7689   20.4602 C   0  0  0  0  0  0
  -30.4191  -12.4783   19.4732 C   0  0  0  0  0  0
  -29.5023  -12.5014   18.2326 C   0  0  0  0  0  0
  -28.0306  -12.3263   18.6507 C   0  0  0  0  0  0
  -27.6328  -13.2402   19.8413 C   0  0  2  0  0  0
  -28.6783  -13.2050   20.9740 C   0  0  0  0  0  0
  -25.2484  -13.8220   20.5715 C   0  0  0  0  0  0
  -24.1782  -13.0451   20.9211 C   0  0  0  0  0  0
  -24.6387  -11.6931   20.8751 C   0  0  0  0  0  0
  -23.9077  -10.4301   21.0408 C   0  0  0  0  0  0
  -24.3632   -9.4214   21.9182 C   0  0  0  0  0  0
  -23.6306   -8.2246   22.0754 C   0  0  0  0  0  0
  -22.4284   -8.0286   21.3547 C   0  0  0  0  0  0
  -21.9923   -9.0259   20.4645 C   0  0  0  0  0  0
  -22.7253  -10.2136   20.3055 C   0  0  0  0  0  0
  -21.6855   -6.0741   22.5282 C   0  0  0  0  0  0
  -21.4012   -6.5644   23.8216 C   0  0  0  0  0  0
  -21.3657   -5.6794   24.9178 C   0  0  0  0  0  0
  -21.6045   -4.3058   24.7223 C   0  0  0  0  0  0
  -21.8821   -3.8153   23.4344 C   0  0  0  0  0  0
  -21.9192   -4.6970   22.3403 C   0  0  0  0  0  0
  -22.7803  -13.5223   21.1872 C   0  0  0  0  0  0
  -22.1663   -4.2160   21.0980 F   0  0  0  0  0  0
  -21.5627   -3.4541   25.7735 F   0  0  0  0  0  0
  -29.9660  -13.5676   20.3743 N   0  0  0  0  0  0
  -26.2901  -12.9439   20.3268 N   0  0  0  0  0  0
  -25.9318  -11.6572   20.5754 N   0  0  0  0  0  0
  -22.0462  -12.8198   22.0427 N   0  0  0  0  0  0
  -25.4191  -15.1944   20.4167 N   0  0  0  0  0  0
  -31.8473  -14.7683   20.1862 O   0  0  0  0  0  0
  -21.6641   -6.8887   21.4246 O   0  0  0  0  0  0
  -22.3475  -14.5522   20.6714 O   0  0  0  0  0  0
  -24.6319  -31.8542   23.1956 C   0  0  0  0  0  0
  -25.9135  -32.4750   23.8311 C   0  0  1  0  0  0
  -27.2121  -27.2428   20.1425 C   0  0  0  0  0  0
  -25.5934  -33.8556   24.2246 N   0  0  0  0  0  0
  -23.4286  -30.4757   21.5392 C   0  0  2  0  0  0
  -24.8744  -28.9126   20.1159 C   0  0  0  0  0  0
  -22.7493  -29.4600   22.4896 C   0  0  0  0  0  0
  -18.0296  -28.1381   22.8466 C   0  0  0  0  0  0
  -24.1500  -36.7281   23.2643 C   0  0  0  0  0  0
  -25.9750  -30.7594   21.3789 C   0  0  0  0  0  0
  -26.0448  -29.3767   20.7298 C   0  0  0  0  0  0
  -27.2162  -28.5530   20.7337 C   0  0  0  0  0  0
  -26.0226  -26.8456   19.4974 C   0  0  0  0  0  0
  -24.8684  -27.6544   19.4907 C   0  0  0  0  0  0
  -23.6484  -29.8065   20.1566 C   0  0  0  0  0  0
  -25.4126  -36.3064   24.0327 C   0  0  1  0  0  0
  -20.5897  -28.3696   23.1259 C   0  0  2  0  0  0
  -20.6789  -26.9413   22.5406 C   0  0  0  0  0  0
  -19.5771  -26.6375   21.5206 C   0  0  0  0  0  0
  -18.1945  -26.7925   22.1605 C   0  0  0  0  0  0
  -19.1551  -28.8850   23.2856 C   0  0  0  0  0  0
  -18.9472  -30.1451   23.8872 C   0  0  0  0  0  0
  -17.6474  -30.6579   24.0554 C   0  0  0  0  0  0
  -25.9064  -34.9440   23.5092 C   0  0  0  0  0  0
  -16.5360  -29.9078   23.6334 C   0  0  0  0  0  0
  -16.7280  -28.6498   23.0344 C   0  0  0  0  0  0
  -26.4495  -31.6577   25.0710 C   0  0  0  0  0  0
  -25.3705  -31.3734   26.1425 C   0  0  0  0  0  0
  -27.0355  -30.2997   24.6202 C   0  0  0  0  0  0
  -27.6049  -32.4318   25.7477 C   0  0  0  0  0  0
  -27.5580  -37.1793   24.8464 C   0  0  0  0  0  0
  -21.4202  -29.3044   22.3636 N   0  0  0  0  0  0
  -26.4289  -37.3773   23.9410 N   0  0  0  0  0  0
  -24.6980  -31.0488   22.0943 N   0  0  0  0  0  0
  -23.4188  -28.8148   23.3006 O   0  0  0  0  0  0
  -28.3229  -26.3674   20.1268 O   0  0  0  0  0  0
  -26.5642  -34.8908   22.4663 O   0  0  0  0  0  0
  -23.5462  -32.1388   23.7226 O   0  0  0  0  0  0
  -27.4435  -24.2424   21.1944 C   0  0  0  0  0  0
  -29.0718  -22.7989   19.5466 C   0  0  0  0  0  0
  -27.4520  -22.8101   21.2844 C   0  0  0  0  0  0
  -28.2722  -22.0036   20.4208 C   0  0  0  0  0  0
  -28.2407  -24.9375   20.2551 C   0  0  0  0  0  0
  -29.6450  -18.3779   19.2851 C   0  0  0  0  0  0
  -28.5578  -18.0087   21.4032 C   0  0  0  0  0  0
  -30.5299  -17.0935   19.5671 C   0  0  0  0  0  0
  -29.4458  -16.7025   21.6317 C   0  0  0  0  0  0
  -29.1363  -19.1901   20.5293 C   0  0  0  0  0  0
  -26.5096  -22.1739   22.2944 C   0  0  0  0  0  0
  -27.2589  -20.1704   18.9665 C   0  0  0  0  0  0
  -28.0572  -20.4061   20.2594 C   0  0  2  0  0  0
  -29.0717  -24.1796   19.4766 N   0  0  0  0  0  0
  -29.9519  -15.9984   20.4174 N   0  0  0  0  0  0
  -31.4598  -12.5889   19.1643 H   0  0  0  0  0  0
  -30.3622  -11.5140   19.9802 H   0  0  0  0  0  0
  -29.7894  -11.7133   17.5351 H   0  0  0  0  0  0
  -29.6246  -13.4444   17.6974 H   0  0  0  0  0  0
  -27.8937  -11.2802   18.9274 H   0  0  0  0  0  0
  -27.3707  -12.5033   17.8005 H   0  0  0  0  0  0
  -27.6171  -14.2564   19.4462 H   0  0  0  0  0  0
  -28.7281  -12.2152   21.4295 H   0  0  0  0  0  0
  -28.4044  -13.8943   21.7713 H   0  0  0  0  0  0
  -25.2776   -9.5682   22.4758 H   0  0  0  0  0  0
  -24.0013   -7.4633   22.7468 H   0  0  0  0  0  0
  -21.0857   -8.8780   19.8945 H   0  0  0  0  0  0
  -22.3719  -10.9677   19.6164 H   0  0  0  0  0  0
  -21.2006   -7.6154   23.9725 H   0  0  0  0  0  0
  -21.1475   -6.0524   25.9081 H   0  0  0  0  0  0
  -22.0601   -2.7619   23.2841 H   0  0  0  0  0  0
  -22.4100  -11.9871   22.4817 H   0  0  0  0  0  0
  -21.1072  -13.1199   22.2636 H   0  0  0  0  0  0
  -24.6568  -15.8528   20.5351 H   0  0  0  0  0  0
  -26.2825  -15.6342   20.1246 H   0  0  0  0  0  0
  -26.7190  -32.5400   23.1034 H   0  0  0  0  0  0
  -25.0101  -33.9705   25.0400 H   0  0  0  0  0  0
  -22.7272  -31.2993   21.3884 H   0  0  0  0  0  0
  -23.3770  -35.9605   23.3302 H   0  0  0  0  0  0
  -24.3601  -36.8910   22.2061 H   0  0  0  0  0  0
  -23.7246  -37.6474   23.6670 H   0  0  0  0  0  0
  -26.1177  -31.5132   20.6033 H   0  0  0  0  0  0
  -26.8524  -30.8120   22.0117 H   0  0  0  0  0  0
  -28.1172  -28.9064   21.2150 H   0  0  0  0  0  0
  -25.9762  -25.8834   19.0065 H   0  0  0  0  0  0
  -23.9733  -27.2965   19.0018 H   0  0  0  0  0  0
  -23.7793  -30.5814   19.4003 H   0  0  0  0  0  0
  -22.7645  -29.2451   19.8480 H   0  0  0  0  0  0
  -25.1308  -36.1906   25.0819 H   0  0  0  0  0  0
  -20.9991  -28.3279   24.1380 H   0  0  0  0  0  0
  -20.5695  -26.2302   23.3612 H   0  0  0  0  0  0
  -21.6657  -26.7448   22.1189 H   0  0  0  0  0  0
  -19.6953  -25.6287   21.1239 H   0  0  0  0  0  0
  -19.6714  -27.3179   20.6731 H   0  0  0  0  0  0
  -17.4221  -26.6662   21.4002 H   0  0  0  0  0  0
  -18.0330  -26.0073   22.9003 H   0  0  0  0  0  0
  -19.7954  -30.7266   24.2220 H   0  0  0  0  0  0
  -17.5038  -31.6258   24.5165 H   0  0  0  0  0  0
  -15.5365  -30.2974   23.7678 H   0  0  0  0  0  0
  -15.8678  -28.0817   22.7068 H   0  0  0  0  0  0
  -24.5911  -30.7047   25.7754 H   0  0  0  0  0  0
  -24.8860  -32.2905   26.4789 H   0  0  0  0  0  0
  -25.8023  -30.8964   27.0237 H   0  0  0  0  0  0
  -26.2945  -29.6732   24.1229 H   0  0  0  0  0  0
  -27.4056  -29.7264   25.4713 H   0  0  0  0  0  0
  -27.8806  -30.4294   23.9442 H   0  0  0  0  0  0
  -27.2680  -33.3651   26.1999 H   0  0  0  0  0  0
  -28.3882  -32.6825   25.0312 H   0  0  0  0  0  0
  -28.0690  -31.8478   26.5434 H   0  0  0  0  0  0
  -28.2579  -38.0105   24.7527 H   0  0  0  0  0  0
  -28.1086  -36.2633   24.6262 H   0  0  0  0  0  0
  -27.2300  -37.1413   25.8866 H   0  0  0  0  0  0
  -20.9381  -29.8761   21.6841 H   0  0  0  0  0  0
  -26.0166  -38.2842   24.1418 H   0  0  0  0  0  0
  -26.8033  -24.8217   21.8464 H   0  0  0  0  0  0
  -29.6959  -22.3066   18.8152 H   0  0  0  0  0  0
  -28.7983  -18.0376   18.6903 H   0  0  0  0  0  0
  -30.2009  -19.0533   18.6340 H   0  0  0  0  0  0
  -28.2878  -18.4086   22.3819 H   0  0  0  0  0  0
  -27.6136  -17.6882   20.9601 H   0  0  0  0  0  0
  -31.4733  -17.4137   20.0147 H   0  0  0  0  0  0
  -30.7988  -16.6622   18.6005 H   0  0  0  0  0  0
  -28.8755  -16.0023   22.2392 H   0  0  0  0  0  0
  -30.3102  -16.9714   22.2414 H   0  0  0  0  0  0
  -29.9935  -19.6080   21.0580 H   0  0  0  0  0  0
  -26.0550  -22.9204   22.9462 H   0  0  0  0  0  0
  -27.0419  -21.4664   22.9310 H   0  0  0  0  0  0
  -25.7020  -21.6449   21.7880 H   0  0  0  0  0  0
  -26.3886  -20.8260   18.9147 H   0  0  0  0  0  0
  -26.8788  -19.1499   18.9109 H   0  0  0  0  0  0
  -27.8667  -20.3575   18.0813 H   0  0  0  0  0  0
  -27.3216  -20.1835   21.0267 H   0  0  0  0  0  0
  1 25  1  0  0  0
  1 30  2  0  0  0
  1 85  1  0  0  0
  2  3  1  0  0  0
  2 25  1  0  0  0
  2 86  1  0  0  0
  2 87  1  0  0  0
  3  4  1  0  0  0
  3 88  1  0  0  0
  3 89  1  0  0  0
  4  5  1  0  0  0
  4 90  1  0  0  0
  4 91  1  0  0  0
  5  6  1  0  0  0
  5 26  1  0  0  0
  5 92  1  0  0  0
  6 25  1  0  0  0
  6 93  1  0  0  0
  6 94  1  0  0  0
  7  8  2  0  0  0
  7 26  1  0  0  0
  7 29  1  0  0  0
  8  9  1  0  0  0
  8 22  1  0  0  0
  9 10  1  0  0  0
  9 27  2  0  0  0
 10 11  2  0  0  0
 10 15  1  0  0  0
 11 12  1  0  0  0
 11 95  1  0  0  0
 12 13  2  0  0  0
 12 96  1  0  0  0
 13 14  1  0  0  0
 13 31  1  0  0  0
 14 15  2  0  0  0
 14 97  1  0  0  0
 15 98  1  0  0  0
 16 17  2  0  0  0
 16 21  1  0  0  0
 16 31  1  0  0  0
 17 18  1  0  0  0
 17 99  1  0  0  0
 18 19  2  0  0  0
 18100  1  0  0  0
 19 20  1  0  0  0
 19 24  1  0  0  0
 20 21  2  0  0  0
 20101  1  0  0  0
 21 23  1  0  0  0
 22 28  1  0  0  0
 22 32  2  0  0  0
 26 27  1  0  0  0
 28102  1  0  0  0
 28103  1  0  0  0
 29104  1  0  0  0
 29105  1  0  0  0
 33 34  1  0  0  0
 33 66  1  0  0  0
 33 70  2  0  0  0
 34 36  1  0  0  0
 34 59  1  0  0  0
 34106  1  0  0  0
 35 44  2  0  0  0
 35 45  1  0  0  0
 35 68  1  0  0  0
 36 56  1  0  0  0
 36107  1  0  0  0
 37 39  1  0  0  0
 37 47  1  0  0  0
 37 66  1  0  0  0
 37108  1  0  0  0
 38 43  2  0  0  0
 38 46  1  0  0  0
 38 47  1  0  0  0
 39 64  1  0  0  0
 39 67  2  0  0  0
 40 52  1  0  0  0
 40 53  2  0  0  0
 40 58  1  0  0  0
 41109  1  0  0  0
 41110  1  0  0  0
 41111  1  0  0  0
 41 48  1  0  0  0
 42 43  1  0  0  0
 42 66  1  0  0  0
 42112  1  0  0  0
 42113  1  0  0  0
 43 44  1  0  0  0
 44114  1  0  0  0
 45 46  2  0  0  0
 45115  1  0  0  0
 46116  1  0  0  0
 47117  1  0  0  0
 47118  1  0  0  0
 48 56  1  0  0  0
 48 65  1  0  0  0
 48119  1  0  0  0
 49 50  1  0  0  0
 49 53  1  0  0  0
 49 64  1  0  0  0
 49120  1  0  0  0
 50 51  1  0  0  0
 50121  1  0  0  0
 50122  1  0  0  0
 51 52  1  0  0  0
 51123  1  0  0  0
 51124  1  0  0  0
 52125  1  0  0  0
 52126  1  0  0  0
 53 54  1  0  0  0
 54 55  2  0  0  0
 54127  1  0  0  0
 55 57  1  0  0  0
 55128  1  0  0  0
 56 69  2  0  0  0
 57 58  2  0  0  0
 57129  1  0  0  0
 58130  1  0  0  0
 59 60  1  0  0  0
 59 61  1  0  0  0
 59 62  1  0  0  0
 60131  1  0  0  0
 60132  1  0  0  0
 60133  1  0  0  0
 61134  1  0  0  0
 61135  1  0  0  0
 61136  1  0  0  0
 62137  1  0  0  0
 62138  1  0  0  0
 62139  1  0  0  0
 63 65  1  0  0  0
 63140  1  0  0  0
 63141  1  0  0  0
 63142  1  0  0  0
 64143  1  0  0  0
 65144  1  0  0  0
 68 75  1  0  0  0
 71 73  2  0  0  0
 71 75  1  0  0  0
 71145  1  0  0  0
 72 74  2  0  0  0
 72 84  1  0  0  0
 72146  1  0  0  0
 73 74  1  0  0  0
 73 81  1  0  0  0
 74 83  1  0  0  0
 75 84  2  0  0  0
 76 78  1  0  0  0
 76147  1  0  0  0
 76148  1  0  0  0
 76 80  1  0  0  0
 77 79  1  0  0  0
 77 80  1  0  0  0
 77149  1  0  0  0
 77150  1  0  0  0
 78 85  1  0  0  0
 78151  1  0  0  0
 78152  1  0  0  0
 79 85  1  0  0  0
 79153  1  0  0  0
 79154  1  0  0  0
 80 83  1  0  0  0
 80155  1  0  0  0
 81156  1  0  0  0
 81157  1  0  0  0
 81158  1  0  0  0
 82159  1  0  0  0
 82160  1  0  0  0
 82161  1  0  0  0
 82 83  1  0  0  0
 83162  1  0  0  0
M  ISO  4   1 100  68 101  75 101  85 100
M  END
> <chiral flag>
0

> <version>
0

> <s_m_source_file>
/data/baiqing/PycharmProjects/Reinvent-master-3.2/result/LINK_invent/BTK/process_docking_weight1_custom_sum_contain_oxygen_bond_distance_aromatic_linkinvent_7_9_3/rearranged_h_0153.sdf

> <i_m_source_file_index>
85

> <r_mmod_Potential_Energy-OPLS-2005>
328.159149169922

> <r_mmod_Stretch_Energy-OPLS-2005>
130.237777709961

> <r_mmod_Bend_Energy-OPLS-2005>
213.251037597656

> <r_mmod_Torsional_Energy-OPLS-2005>
331.900817871094

> <r_mmod_Improper_Torsional_Energy-OPLS-2005>
19.0310230255127

> <r_mmod_Van_der_Waal_Energy-OPLS-2005>
145.22102355957

> <r_mmod_Electrostatic_Energy-OPLS-2005>
-406.350158691406

> <r_mmod_Solvation_Energy-OPLS-2005>
-199.37077331543

> <b_mmod_Minimization_Converged-OPLS-2005>
0

> <r_mmod_RMS_Derivative-OPLS-2005>
1.29933071136475

$$$$
86
                    3D
 Structure written by MMmdl.
165174  0  0  1  0            999 V2000
  -30.7077  -14.6240   20.5104 C   0  0  0  0  0  0
  -30.4119  -12.3996   19.4437 C   0  0  0  0  0  0
  -29.4887  -12.5061   18.2138 C   0  0  0  0  0  0
  -28.0149  -12.3443   18.6309 C   0  0  0  0  0  0
  -27.6448  -13.2136   19.8603 C   0  0  2  0  0  0
  -28.6996  -13.0755   20.9846 C   0  0  0  0  0  0
  -25.2518  -13.8165   20.5677 C   0  0  0  0  0  0
  -24.1806  -13.0434   20.9230 C   0  0  0  0  0  0
  -24.6389  -11.6905   20.8803 C   0  0  0  0  0  0
  -23.9061  -10.4286   21.0451 C   0  0  0  0  0  0
  -24.3616   -9.4192   21.9212 C   0  0  0  0  0  0
  -23.6303   -8.2223   22.0763 C   0  0  0  0  0  0
  -22.4281   -8.0279   21.3557 C   0  0  0  0  0  0
  -21.9924   -9.0253   20.4652 C   0  0  0  0  0  0
  -22.7248  -10.2132   20.3081 C   0  0  0  0  0  0
  -21.6849   -6.0740   22.5279 C   0  0  0  0  0  0
  -21.4016   -6.5645   23.8213 C   0  0  0  0  0  0
  -21.3655   -5.6794   24.9170 C   0  0  0  0  0  0
  -21.6053   -4.3058   24.7226 C   0  0  0  0  0  0
  -21.8822   -3.8152   23.4344 C   0  0  0  0  0  0
  -21.9198   -4.6972   22.3403 C   0  0  0  0  0  0
  -22.7822  -13.5211   21.1872 C   0  0  0  0  0  0
  -22.1663   -4.2161   21.0980 F   0  0  0  0  0  0
  -21.5632   -3.4546   25.7740 F   0  0  0  0  0  0
  -29.9904  -13.4531   20.3968 N   0  0  0  0  0  0
  -26.2950  -12.9338   20.3349 N   0  0  0  0  0  0
  -25.9319  -11.6500   20.5831 N   0  0  0  0  0  0
  -22.0465  -12.8193   22.0417 N   0  0  0  0  0  0
  -25.4171  -15.1885   20.4027 N   0  0  0  0  0  0
  -31.8985  -14.6057   20.1819 O   0  0  0  0  0  0
  -21.6643   -6.8886   21.4245 O   0  0  0  0  0  0
  -22.3493  -14.5503   20.6701 O   0  0  0  0  0  0
  -24.6239  -31.8611   23.2028 C   0  0  0  0  0  0
  -25.9086  -32.4777   23.8368 C   0  0  1  0  0  0
  -27.2226  -27.3525   20.1184 C   0  0  0  0  0  0
  -25.5902  -33.8585   24.2294 N   0  0  0  0  0  0
  -23.4183  -30.4840   21.5442 C   0  0  2  0  0  0
  -24.8650  -28.9427   20.1099 C   0  0  0  0  0  0
  -22.7470  -29.4625   22.4935 C   0  0  0  0  0  0
  -18.0287  -28.1392   22.8486 C   0  0  0  0  0  0
  -24.1480  -36.7312   23.2640 C   0  0  0  0  0  0
  -25.9545  -30.8019   21.3693 C   0  0  0  0  0  0
  -26.0313  -29.4312   20.7146 C   0  0  0  0  0  0
  -27.2185  -28.6468   20.7109 C   0  0  0  0  0  0
  -26.0430  -26.9074   19.4874 C   0  0  0  0  0  0
  -24.8705  -27.6839   19.4877 C   0  0  0  0  0  0
  -23.6320  -29.8201   20.1581 C   0  0  0  0  0  0
  -25.4102  -36.3099   24.0331 C   0  0  1  0  0  0
  -20.5882  -28.3688   23.1278 C   0  0  2  0  0  0
  -20.6762  -26.9406   22.5414 C   0  0  0  0  0  0
  -19.5738  -26.6384   21.5216 C   0  0  0  0  0  0
  -18.1921  -26.7934   22.1628 C   0  0  0  0  0  0
  -19.1539  -28.8852   23.2882 C   0  0  0  0  0  0
  -18.9467  -30.1458   23.8897 C   0  0  0  0  0  0
  -17.6463  -30.6586   24.0568 C   0  0  0  0  0  0
  -25.9038  -34.9462   23.5114 C   0  0  0  0  0  0
  -16.5355  -29.9091   23.6330 C   0  0  0  0  0  0
  -16.7273  -28.6518   23.0333 C   0  0  0  0  0  0
  -26.4461  -31.6582   25.0742 C   0  0  0  0  0  0
  -25.3709  -31.3731   26.1488 C   0  0  0  0  0  0
  -27.0286  -30.3002   24.6182 C   0  0  0  0  0  0
  -27.6009  -32.4320   25.7524 C   0  0  0  0  0  0
  -27.5577  -37.1813   24.8460 C   0  0  0  0  0  0
  -21.4181  -29.3048   22.3674 N   0  0  0  0  0  0
  -26.4282  -37.3791   23.9406 N   0  0  0  0  0  0
  -24.6844  -31.0653   22.0962 N   0  0  0  0  0  0
  -23.4198  -28.8161   23.3005 O   0  0  0  0  0  0
  -28.3146  -26.4898   20.1549 O   0  0  0  0  0  0
  -26.5618  -34.8924   22.4688 O   0  0  0  0  0  0
  -23.5401  -32.1395   23.7365 O   0  0  0  0  0  0
  -29.0813  -21.3494   21.0847 C   0  0  0  0  0  0
  -29.0183  -20.1820   21.9234 C   0  0  0  0  0  0
  -28.7291  -22.6613   21.5746 C   0  0  0  0  0  0
  -28.5780  -20.4056   23.2503 C   0  0  0  0  0  0
  -28.2972  -22.7052   22.9307 C   0  0  0  0  0  0
  -28.3642  -17.6669   21.4114 C   0  0  0  0  0  0
  -30.3112  -18.5038   20.2755 C   0  0  0  0  0  0
  -28.8928  -16.1973   21.4469 C   0  0  0  0  0  0
  -30.9292  -17.0640   20.2454 C   0  0  0  0  0  0
  -29.4751  -18.7281   21.5355 C   0  0  0  0  0  0
  -28.4942  -19.3204   24.3158 C   0  0  0  0  0  0
  -27.9080  -23.9496   23.7093 C   0  0  0  0  0  0
  -28.9114  -23.9451   20.6661 C   0  0  0  0  0  0
  -28.0889  -25.2765   20.9492 C   0  0  0  0  0  0
  -28.2217  -21.6133   23.7091 N   0  0  0  0  0  0
  -30.0927  -15.8720   20.6300 N   0  0  0  0  0  0
  -31.4530  -12.4890   19.1312 H   0  0  0  0  0  0
  -30.3325  -11.4120   19.8999 H   0  0  0  0  0  0
  -29.7537  -11.7530   17.4711 H   0  0  0  0  0  0
  -29.6283  -13.4762   17.7346 H   0  0  0  0  0  0
  -27.8503  -11.2904   18.8565 H   0  0  0  0  0  0
  -27.3577  -12.5818   17.7943 H   0  0  0  0  0  0
  -27.6548  -14.2404   19.4960 H   0  0  0  0  0  0
  -28.7347  -12.0441   21.3390 H   0  0  0  0  0  0
  -28.4585  -13.6536   21.8741 H   0  0  0  0  0  0
  -25.2768   -9.5670   22.4772 H   0  0  0  0  0  0
  -24.0034   -7.4609   22.7464 H   0  0  0  0  0  0
  -21.0866   -8.8769   19.8943 H   0  0  0  0  0  0
  -22.3721  -10.9682   19.6190 H   0  0  0  0  0  0
  -21.1996   -7.6152   23.9719 H   0  0  0  0  0  0
  -21.1479   -6.0521   25.9072 H   0  0  0  0  0  0
  -22.0606   -2.7618   23.2840 H   0  0  0  0  0  0
  -22.4105  -11.9874   22.4831 H   0  0  0  0  0  0
  -21.1084  -13.1209   22.2618 H   0  0  0  0  0  0
  -24.6506  -15.8405   20.5236 H   0  0  0  0  0  0
  -26.2614  -15.6290   20.0623 H   0  0  0  0  0  0
  -26.7166  -32.5462   23.1134 H   0  0  0  0  0  0
  -25.0003  -33.9717   25.0403 H   0  0  0  0  0  0
  -22.7136  -31.3045   21.3992 H   0  0  0  0  0  0
  -23.3735  -35.9652   23.3302 H   0  0  0  0  0  0
  -24.3584  -36.8936   22.2061 H   0  0  0  0  0  0
  -23.7238  -37.6510   23.6667 H   0  0  0  0  0  0
  -26.0810  -31.5636   20.5993 H   0  0  0  0  0  0
  -26.8360  -30.8508   21.9968 H   0  0  0  0  0  0
  -28.1146  -29.0121   21.1940 H   0  0  0  0  0  0
  -26.0214  -25.9361   19.0133 H   0  0  0  0  0  0
  -23.9779  -27.3000   19.0129 H   0  0  0  0  0  0
  -23.7509  -30.5961   19.4001 H   0  0  0  0  0  0
  -22.7527  -29.2476   19.8566 H   0  0  0  0  0  0
  -25.1283  -36.1955   25.0821 H   0  0  0  0  0  0
  -20.9983  -28.3263   24.1391 H   0  0  0  0  0  0
  -20.5638  -26.2310   23.3625 H   0  0  0  0  0  0
  -21.6633  -26.7408   22.1224 H   0  0  0  0  0  0
  -19.6888  -25.6297   21.1243 H   0  0  0  0  0  0
  -19.6673  -27.3197   20.6750 H   0  0  0  0  0  0
  -17.4188  -26.6685   21.4030 H   0  0  0  0  0  0
  -18.0315  -26.0085   22.9035 H   0  0  0  0  0  0
  -19.7937  -30.7284   24.2259 H   0  0  0  0  0  0
  -17.5015  -31.6261   24.5177 H   0  0  0  0  0  0
  -15.5356  -30.2990   23.7648 H   0  0  0  0  0  0
  -15.8684  -28.0850   22.7014 H   0  0  0  0  0  0
  -24.5877  -30.7070   25.7854 H   0  0  0  0  0  0
  -24.8915  -32.2902   26.4929 H   0  0  0  0  0  0
  -25.8056  -30.8925   27.0260 H   0  0  0  0  0  0
  -26.2857  -29.6804   24.1150 H   0  0  0  0  0  0
  -27.3911  -29.7213   25.4687 H   0  0  0  0  0  0
  -27.8758  -30.4282   23.9441 H   0  0  0  0  0  0
  -27.2583  -33.3597   26.2123 H   0  0  0  0  0  0
  -28.3816  -32.6925   25.0367 H   0  0  0  0  0  0
  -28.0685  -31.8454   26.5442 H   0  0  0  0  0  0
  -28.2583  -38.0119   24.7502 H   0  0  0  0  0  0
  -28.1073  -36.2649   24.6270 H   0  0  0  0  0  0
  -27.2302  -37.1454   25.8864 H   0  0  0  0  0  0
  -20.9358  -29.8831   21.6937 H   0  0  0  0  0  0
  -26.0166  -38.2855   24.1421 H   0  0  0  0  0  0
  -29.4385  -21.2460   20.0708 H   0  0  0  0  0  0
  -27.6227  -17.7701   22.1992 H   0  0  0  0  0  0
  -27.8046  -17.8357   20.4901 H   0  0  0  0  0  0
  -29.7069  -18.6806   19.3835 H   0  0  0  0  0  0
  -31.1246  -19.2298   20.2357 H   0  0  0  0  0  0
  -28.0469  -15.5961   21.1417 H   0  0  0  0  0  0
  -29.1143  -15.9249   22.4801 H   0  0  0  0  0  0
  -31.7889  -17.0743   20.9194 H   0  0  0  0  0  0
  -31.3430  -16.9075   19.2468 H   0  0  0  0  0  0
  -30.1273  -18.4215   22.3529 H   0  0  0  0  0  0
  -27.6478  -18.6593   24.1415 H   0  0  0  0  0  0
  -28.3466  -19.7519   25.3069 H   0  0  0  0  0  0
  -29.4063  -18.7275   24.3700 H   0  0  0  0  0  0
  -28.7402  -24.6490   23.7814 H   0  0  0  0  0  0
  -27.6271  -23.7025   24.7338 H   0  0  0  0  0  0
  -27.0342  -24.4315   23.2748 H   0  0  0  0  0  0
  -28.7114  -23.6446   19.6373 H   0  0  0  0  0  0
  -29.9724  -24.1927   20.6883 H   0  0  0  0  0  0
  -28.3280  -25.6408   21.9400 H   0  0  0  0  0  0
  -27.0324  -25.0068   20.9644 H   0  0  0  0  0  0
  1 25  1  0  0  0
  1 30  2  0  0  0
  1 86  1  0  0  0
  2  3  1  0  0  0
  2 25  1  0  0  0
  2 87  1  0  0  0
  2 88  1  0  0  0
  3  4  1  0  0  0
  3 89  1  0  0  0
  3 90  1  0  0  0
  4  5  1  0  0  0
  4 91  1  0  0  0
  4 92  1  0  0  0
  5  6  1  0  0  0
  5 26  1  0  0  0
  5 93  1  0  0  0
  6 25  1  0  0  0
  6 94  1  0  0  0
  6 95  1  0  0  0
  7  8  2  0  0  0
  7 26  1  0  0  0
  7 29  1  0  0  0
  8  9  1  0  0  0
  8 22  1  0  0  0
  9 10  1  0  0  0
  9 27  2  0  0  0
 10 11  2  0  0  0
 10 15  1  0  0  0
 11 12  1  0  0  0
 11 96  1  0  0  0
 12 13  2  0  0  0
 12 97  1  0  0  0
 13 14  1  0  0  0
 13 31  1  0  0  0
 14 15  2  0  0  0
 14 98  1  0  0  0
 15 99  1  0  0  0
 16 17  2  0  0  0
 16 21  1  0  0  0
 16 31  1  0  0  0
 17 18  1  0  0  0
 17100  1  0  0  0
 18 19  2  0  0  0
 18101  1  0  0  0
 19 20  1  0  0  0
 19 24  1  0  0  0
 20 21  2  0  0  0
 20102  1  0  0  0
 21 23  1  0  0  0
 22 28  1  0  0  0
 22 32  2  0  0  0
 26 27  1  0  0  0
 28103  1  0  0  0
 28104  1  0  0  0
 29105  1  0  0  0
 29106  1  0  0  0
 33 34  1  0  0  0
 33 66  1  0  0  0
 33 70  2  0  0  0
 34 36  1  0  0  0
 34 59  1  0  0  0
 34107  1  0  0  0
 35 44  2  0  0  0
 35 45  1  0  0  0
 35 68  1  0  0  0
 36 56  1  0  0  0
 36108  1  0  0  0
 37 39  1  0  0  0
 37 47  1  0  0  0
 37 66  1  0  0  0
 37109  1  0  0  0
 38 43  2  0  0  0
 38 46  1  0  0  0
 38 47  1  0  0  0
 39 64  1  0  0  0
 39 67  2  0  0  0
 40 52  1  0  0  0
 40 53  2  0  0  0
 40 58  1  0  0  0
 41110  1  0  0  0
 41111  1  0  0  0
 41112  1  0  0  0
 41 48  1  0  0  0
 42 43  1  0  0  0
 42 66  1  0  0  0
 42113  1  0  0  0
 42114  1  0  0  0
 43 44  1  0  0  0
 44115  1  0  0  0
 45 46  2  0  0  0
 45116  1  0  0  0
 46117  1  0  0  0
 47118  1  0  0  0
 47119  1  0  0  0
 48 56  1  0  0  0
 48 65  1  0  0  0
 48120  1  0  0  0
 49 50  1  0  0  0
 49 53  1  0  0  0
 49 64  1  0  0  0
 49121  1  0  0  0
 50 51  1  0  0  0
 50122  1  0  0  0
 50123  1  0  0  0
 51 52  1  0  0  0
 51124  1  0  0  0
 51125  1  0  0  0
 52126  1  0  0  0
 52127  1  0  0  0
 53 54  1  0  0  0
 54 55  2  0  0  0
 54128  1  0  0  0
 55 57  1  0  0  0
 55129  1  0  0  0
 56 69  2  0  0  0
 57 58  2  0  0  0
 57130  1  0  0  0
 58131  1  0  0  0
 59 60  1  0  0  0
 59 61  1  0  0  0
 59 62  1  0  0  0
 60132  1  0  0  0
 60133  1  0  0  0
 60134  1  0  0  0
 61135  1  0  0  0
 61136  1  0  0  0
 61137  1  0  0  0
 62138  1  0  0  0
 62139  1  0  0  0
 62140  1  0  0  0
 63 65  1  0  0  0
 63141  1  0  0  0
 63142  1  0  0  0
 63143  1  0  0  0
 64144  1  0  0  0
 65145  1  0  0  0
 68 84  1  0  0  0
 71 72  2  0  0  0
 71 73  1  0  0  0
 71146  1  0  0  0
 72 74  1  0  0  0
 72 80  1  0  0  0
 73 75  2  0  0  0
 73 83  1  0  0  0
 74 81  1  0  0  0
 74 85  2  0  0  0
 75 82  1  0  0  0
 75 85  1  0  0  0
 76 78  1  0  0  0
 76 80  1  0  0  0
 76147  1  0  0  0
 76148  1  0  0  0
 77 79  1  0  0  0
 77 80  1  0  0  0
 77149  1  0  0  0
 77150  1  0  0  0
 78 86  1  0  0  0
 78151  1  0  0  0
 78152  1  0  0  0
 79 86  1  0  0  0
 79153  1  0  0  0
 79154  1  0  0  0
 80155  1  0  0  0
 81156  1  0  0  0
 81157  1  0  0  0
 81158  1  0  0  0
 82159  1  0  0  0
 82160  1  0  0  0
 82161  1  0  0  0
 83 84  1  0  0  0
 83162  1  0  0  0
 83163  1  0  0  0
 84164  1  0  0  0
 84165  1  0  0  0
M  ISO  4   1 100  68 101  84 101  86 100
M  END
> <chiral flag>
0

> <version>
0

> <s_m_source_file>
/data/baiqing/PycharmProjects/Reinvent-master-3.2/result/LINK_invent/BTK/process_docking_weight1_custom_sum_contain_oxygen_bond_distance_aromatic_linkinvent_7_9_3/rearranged_h_0153.sdf

> <i_m_source_file_index>
86

> <r_mmod_Potential_Energy-OPLS-2005>
148.087677001953

> <r_mmod_Stretch_Energy-OPLS-2005>
82.730354309082

> <r_mmod_Bend_Energy-OPLS-2005>
186.900436401367

> <r_mmod_Torsional_Energy-OPLS-2005>
317.986694335938

> <r_mmod_Improper_Torsional_Energy-OPLS-2005>
10.5824766159058

> <r_mmod_Van_der_Waal_Energy-OPLS-2005>
176.297912597656

> <r_mmod_Electrostatic_Energy-OPLS-2005>
-459.820770263672

> <r_mmod_Solvation_Energy-OPLS-2005>
-212.209869384766

> <b_mmod_Minimization_Converged-OPLS-2005>
0

> <r_mmod_RMS_Derivative-OPLS-2005>
1.91938996315002

$$$$
87
                    3D
 Structure written by MMmdl.
164173  0  0  1  0            999 V2000
  -30.6592  -14.6285   20.5178 C   0  0  0  0  0  0
  -30.4313  -12.3883   19.4583 C   0  0  0  0  0  0
  -29.5037  -12.4956   18.2285 C   0  0  0  0  0  0
  -28.0273  -12.3410   18.6415 C   0  0  0  0  0  0
  -27.6528  -13.2177   19.8659 C   0  0  2  0  0  0
  -28.6980  -13.0690   20.9921 C   0  0  0  0  0  0
  -25.2569  -13.8186   20.5704 C   0  0  0  0  0  0
  -24.1827  -13.0443   20.9197 C   0  0  0  0  0  0
  -24.6398  -11.6912   20.8747 C   0  0  0  0  0  0
  -23.9066  -10.4294   21.0415 C   0  0  0  0  0  0
  -24.3616   -9.4210   21.9191 C   0  0  0  0  0  0
  -23.6298   -8.2242   22.0760 C   0  0  0  0  0  0
  -22.4277   -8.0288   21.3549 C   0  0  0  0  0  0
  -21.9916   -9.0259   20.4644 C   0  0  0  0  0  0
  -22.7246  -10.2141   20.3059 C   0  0  0  0  0  0
  -21.6855   -6.0739   22.5277 C   0  0  0  0  0  0
  -21.4015   -6.5643   23.8209 C   0  0  0  0  0  0
  -21.3654   -5.6802   24.9176 C   0  0  0  0  0  0
  -21.6049   -4.3059   24.7228 C   0  0  0  0  0  0
  -21.8816   -3.8150   23.4347 C   0  0  0  0  0  0
  -21.9191   -4.6969   22.3405 C   0  0  0  0  0  0
  -22.7848  -13.5243   21.1850 C   0  0  0  0  0  0
  -22.1661   -4.2157   21.0978 F   0  0  0  0  0  0
  -21.5628   -3.4539   25.7736 F   0  0  0  0  0  0
  -30.0087  -13.4218   20.4283 N   0  0  0  0  0  0
  -26.2987  -12.9357   20.3344 N   0  0  0  0  0  0
  -25.9323  -11.6507   20.5780 N   0  0  0  0  0  0
  -22.0485  -12.8223   22.0401 N   0  0  0  0  0  0
  -25.4319  -15.1910   20.4146 N   0  0  0  0  0  0
  -31.8096  -14.7491   20.0814 O   0  0  0  0  0  0
  -21.6638   -6.8887   21.4240 O   0  0  0  0  0  0
  -22.3527  -14.5546   20.6707 O   0  0  0  0  0  0
  -24.6245  -31.8623   23.2030 C   0  0  0  0  0  0
  -25.9105  -32.4785   23.8343 C   0  0  1  0  0  0
  -27.2366  -27.3459   20.1198 C   0  0  0  0  0  0
  -25.5943  -33.8585   24.2289 N   0  0  0  0  0  0
  -23.4172  -30.4831   21.5460 C   0  0  2  0  0  0
  -24.8663  -28.9403   20.1126 C   0  0  0  0  0  0
  -22.7467  -29.4629   22.4968 C   0  0  0  0  0  0
  -18.0287  -28.1381   22.8485 C   0  0  0  0  0  0
  -24.1487  -36.7290   23.2641 C   0  0  0  0  0  0
  -25.9532  -30.8025   21.3682 C   0  0  0  0  0  0
  -26.0312  -29.4302   20.7142 C   0  0  0  0  0  0
  -27.2192  -28.6462   20.7058 C   0  0  0  0  0  0
  -26.0454  -26.8962   19.5032 C   0  0  0  0  0  0
  -24.8748  -27.6783   19.4966 C   0  0  0  0  0  0
  -23.6299  -29.8140   20.1608 C   0  0  0  0  0  0
  -25.4115  -36.3094   24.0347 C   0  0  1  0  0  0
  -20.5883  -28.3675   23.1290 C   0  0  2  0  0  0
  -20.6772  -26.9410   22.5392 C   0  0  0  0  0  0
  -19.5749  -26.6403   21.5190 C   0  0  0  0  0  0
  -18.1931  -26.7925   22.1613 C   0  0  0  0  0  0
  -19.1539  -28.8847   23.2880 C   0  0  0  0  0  0
  -18.9466  -30.1447   23.8896 C   0  0  0  0  0  0
  -17.6459  -30.6583   24.0563 C   0  0  0  0  0  0
  -25.9055  -34.9462   23.5108 C   0  0  0  0  0  0
  -16.5351  -29.9085   23.6328 C   0  0  0  0  0  0
  -16.7275  -28.6503   23.0347 C   0  0  0  0  0  0
  -26.4484  -31.6588   25.0702 C   0  0  0  0  0  0
  -25.3709  -31.3727   26.1427 C   0  0  0  0  0  0
  -27.0337  -30.3031   24.6118 C   0  0  0  0  0  0
  -27.6080  -32.4298   25.7449 C   0  0  0  0  0  0
  -27.5590  -37.1800   24.8471 C   0  0  0  0  0  0
  -21.4187  -29.3038   22.3707 N   0  0  0  0  0  0
  -26.4297  -37.3785   23.9428 N   0  0  0  0  0  0
  -24.6838  -31.0652   22.0965 N   0  0  0  0  0  0
  -23.4200  -28.8187   23.3046 O   0  0  0  0  0  0
  -28.3784  -26.5374   20.1637 O   0  0  0  0  0  0
  -26.5614  -34.8932   22.4663 O   0  0  0  0  0  0
  -23.5427  -32.1404   23.7381 O   0  0  0  0  0  0
  -28.1638  -21.9333   20.7053 C   0  0  0  0  0  0
  -30.5182  -21.8263   20.2581 C   0  0  0  0  0  0
  -29.2913  -19.6994   20.6379 C   0  0  0  0  0  0
  -29.3616  -22.6283   20.4385 C   0  0  0  0  0  0
  -28.1212  -20.5126   20.8074 C   0  0  0  0  0  0
  -30.5077  -20.3952   20.3692 C   0  0  0  0  0  0
  -29.5263  -17.6612   22.2641 C   0  0  0  0  0  0
  -29.5192  -16.1206   22.1570 C   0  0  0  0  0  0
  -30.0094  -17.0558   20.0376 C   0  0  0  0  0  0
  -29.2083  -18.1313   20.8542 C   0  0  2  0  0  0
  -26.7733  -19.8987   21.1617 C   0  0  0  0  0  0
  -32.8794  -20.2896   19.9423 C   0  0  0  0  0  0
  -29.4703  -24.1950   20.4371 C   0  0  0  0  0  0
  -28.2014  -25.0770   20.1187 C   0  0  0  0  0  0
  -29.9074  -15.7549   20.7844 N   0  0  0  0  0  0
  -31.6560  -19.6397   20.2690 O   0  0  0  0  0  0
  -31.4734  -12.5002   19.1533 H   0  0  0  0  0  0
  -30.3635  -11.3969   19.9092 H   0  0  0  0  0  0
  -29.7664  -11.7338   17.4924 H   0  0  0  0  0  0
  -29.6498  -13.4590   17.7376 H   0  0  0  0  0  0
  -27.8641  -11.2900   18.8806 H   0  0  0  0  0  0
  -27.3710  -12.5623   17.7990 H   0  0  0  0  0  0
  -27.6744  -14.2537   19.5254 H   0  0  0  0  0  0
  -28.7111  -12.0444   21.3656 H   0  0  0  0  0  0
  -28.4365  -13.6801   21.8507 H   0  0  0  0  0  0
  -25.2758   -9.5686   22.4765 H   0  0  0  0  0  0
  -24.0003   -7.4637   22.7478 H   0  0  0  0  0  0
  -21.0846   -8.8779   19.8950 H   0  0  0  0  0  0
  -22.3707  -10.9677   19.6167 H   0  0  0  0  0  0
  -21.2005   -7.6150   23.9724 H   0  0  0  0  0  0
  -21.1481   -6.0523   25.9085 H   0  0  0  0  0  0
  -22.0600   -2.7613   23.2842 H   0  0  0  0  0  0
  -22.4092  -11.9874   22.4758 H   0  0  0  0  0  0
  -21.1116  -13.1259   22.2623 H   0  0  0  0  0  0
  -24.6731  -15.8535   20.5349 H   0  0  0  0  0  0
  -26.2982  -15.6243   20.1179 H   0  0  0  0  0  0
  -26.7175  -32.5469   23.1105 H   0  0  0  0  0  0
  -25.0103  -33.9690   25.0449 H   0  0  0  0  0  0
  -22.7101  -31.3033   21.4006 H   0  0  0  0  0  0
  -23.3749  -35.9613   23.3309 H   0  0  0  0  0  0
  -24.3586  -36.8894   22.2050 H   0  0  0  0  0  0
  -23.7214  -37.6496   23.6641 H   0  0  0  0  0  0
  -26.0734  -31.5668   20.5988 H   0  0  0  0  0  0
  -26.8387  -30.8566   21.9901 H   0  0  0  0  0  0
  -28.1129  -29.0198   21.1854 H   0  0  0  0  0  0
  -25.9952  -25.9288   19.0269 H   0  0  0  0  0  0
  -23.9817  -27.2953   19.0215 H   0  0  0  0  0  0
  -23.7404  -30.5855   19.3999 H   0  0  0  0  0  0
  -22.7515  -29.2366   19.8640 H   0  0  0  0  0  0
  -25.1278  -36.1959   25.0838 H   0  0  0  0  0  0
  -20.9954  -28.3224   24.1424 H   0  0  0  0  0  0
  -20.5669  -26.2279   23.3578 H   0  0  0  0  0  0
  -21.6641  -26.7449   22.1186 H   0  0  0  0  0  0
  -19.6913  -25.6325   21.1202 H   0  0  0  0  0  0
  -19.6684  -27.3225   20.6725 H   0  0  0  0  0  0
  -17.4198  -26.6678   21.4021 H   0  0  0  0  0  0
  -18.0342  -26.0052   22.8998 H   0  0  0  0  0  0
  -19.7948  -30.7256   24.2274 H   0  0  0  0  0  0
  -17.5030  -31.6261   24.5173 H   0  0  0  0  0  0
  -15.5360  -30.2983   23.7668 H   0  0  0  0  0  0
  -15.8676  -28.0830   22.7058 H   0  0  0  0  0  0
  -24.5869  -30.7100   25.7732 H   0  0  0  0  0  0
  -24.8903  -32.2898   26.4856 H   0  0  0  0  0  0
  -25.8015  -30.8879   27.0200 H   0  0  0  0  0  0
  -26.2907  -29.6777   24.1161 H   0  0  0  0  0  0
  -27.4096  -29.7291   25.4601 H   0  0  0  0  0  0
  -27.8742  -30.4357   23.9296 H   0  0  0  0  0  0
  -27.2731  -33.3599   26.2059 H   0  0  0  0  0  0
  -28.3863  -32.6866   25.0239 H   0  0  0  0  0  0
  -28.0782  -31.8388   26.5324 H   0  0  0  0  0  0
  -28.2606  -38.0095   24.7546 H   0  0  0  0  0  0
  -28.1087  -36.2648   24.6264 H   0  0  0  0  0  0
  -27.2323  -37.1400   25.8868 H   0  0  0  0  0  0
  -20.9393  -29.8766   21.6914 H   0  0  0  0  0  0
  -26.0195  -38.2869   24.1413 H   0  0  0  0  0  0
  -27.2599  -22.5016   20.8712 H   0  0  0  0  0  0
  -31.4414  -22.3531   20.0667 H   0  0  0  0  0  0
  -30.5189  -18.0132   22.5524 H   0  0  0  0  0  0
  -28.8176  -18.0336   23.0042 H   0  0  0  0  0  0
  -28.5065  -15.7685   22.3462 H   0  0  0  0  0  0
  -30.1746  -15.6711   22.9052 H   0  0  0  0  0  0
  -31.0628  -17.3180   19.9476 H   0  0  0  0  0  0
  -29.6153  -16.9523   19.0260 H   0  0  0  0  0  0
  -28.1730  -17.8537   20.6593 H   0  0  0  0  0  0
  -26.0064  -20.6598   21.3099 H   0  0  0  0  0  0
  -26.8423  -19.3273   22.0871 H   0  0  0  0  0  0
  -26.4173  -19.2433   20.3664 H   0  0  0  0  0  0
  -33.6853  -19.5566   19.9066 H   0  0  0  0  0  0
  -33.1607  -21.0359   20.6874 H   0  0  0  0  0  0
  -32.8168  -20.7615   18.9599 H   0  0  0  0  0  0
  -30.2611  -24.4734   19.7388 H   0  0  0  0  0  0
  -29.8477  -24.4820   21.4189 H   0  0  0  0  0  0
  -27.8517  -24.7914   19.1268 H   0  0  0  0  0  0
  -27.4158  -24.8152   20.8285 H   0  0  0  0  0  0
  1 25  1  0  0  0
  1 30  2  0  0  0
  1 85  1  0  0  0
  2  3  1  0  0  0
  2 25  1  0  0  0
  2 87  1  0  0  0
  2 88  1  0  0  0
  3  4  1  0  0  0
  3 89  1  0  0  0
  3 90  1  0  0  0
  4  5  1  0  0  0
  4 91  1  0  0  0
  4 92  1  0  0  0
  5  6  1  0  0  0
  5 26  1  0  0  0
  5 93  1  0  0  0
  6 25  1  0  0  0
  6 94  1  0  0  0
  6 95  1  0  0  0
  7  8  2  0  0  0
  7 26  1  0  0  0
  7 29  1  0  0  0
  8  9  1  0  0  0
  8 22  1  0  0  0
  9 10  1  0  0  0
  9 27  2  0  0  0
 10 11  2  0  0  0
 10 15  1  0  0  0
 11 12  1  0  0  0
 11 96  1  0  0  0
 12 13  2  0  0  0
 12 97  1  0  0  0
 13 14  1  0  0  0
 13 31  1  0  0  0
 14 15  2  0  0  0
 14 98  1  0  0  0
 15 99  1  0  0  0
 16 17  2  0  0  0
 16 21  1  0  0  0
 16 31  1  0  0  0
 17 18  1  0  0  0
 17100  1  0  0  0
 18 19  2  0  0  0
 18101  1  0  0  0
 19 20  1  0  0  0
 19 24  1  0  0  0
 20 21  2  0  0  0
 20102  1  0  0  0
 21 23  1  0  0  0
 22 28  1  0  0  0
 22 32  2  0  0  0
 26 27  1  0  0  0
 28103  1  0  0  0
 28104  1  0  0  0
 29105  1  0  0  0
 29106  1  0  0  0
 33 34  1  0  0  0
 33 66  1  0  0  0
 33 70  2  0  0  0
 34 36  1  0  0  0
 34 59  1  0  0  0
 34107  1  0  0  0
 35 44  2  0  0  0
 35 45  1  0  0  0
 35 68  1  0  0  0
 36 56  1  0  0  0
 36108  1  0  0  0
 37 39  1  0  0  0
 37 47  1  0  0  0
 37 66  1  0  0  0
 37109  1  0  0  0
 38 43  2  0  0  0
 38 46  1  0  0  0
 38 47  1  0  0  0
 39 64  1  0  0  0
 39 67  2  0  0  0
 40 52  1  0  0  0
 40 53  2  0  0  0
 40 58  1  0  0  0
 41110  1  0  0  0
 41111  1  0  0  0
 41112  1  0  0  0
 41 48  1  0  0  0
 42 43  1  0  0  0
 42 66  1  0  0  0
 42113  1  0  0  0
 42114  1  0  0  0
 43 44  1  0  0  0
 44115  1  0  0  0
 45 46  2  0  0  0
 45116  1  0  0  0
 46117  1  0  0  0
 47118  1  0  0  0
 47119  1  0  0  0
 48 56  1  0  0  0
 48 65  1  0  0  0
 48120  1  0  0  0
 49 50  1  0  0  0
 49 53  1  0  0  0
 49 64  1  0  0  0
 49121  1  0  0  0
 50 51  1  0  0  0
 50122  1  0  0  0
 50123  1  0  0  0
 51 52  1  0  0  0
 51124  1  0  0  0
 51125  1  0  0  0
 52126  1  0  0  0
 52127  1  0  0  0
 53 54  1  0  0  0
 54 55  2  0  0  0
 54128  1  0  0  0
 55 57  1  0  0  0
 55129  1  0  0  0
 56 69  2  0  0  0
 57 58  2  0  0  0
 57130  1  0  0  0
 58131  1  0  0  0
 59 60  1  0  0  0
 59 61  1  0  0  0
 59 62  1  0  0  0
 60132  1  0  0  0
 60133  1  0  0  0
 60134  1  0  0  0
 61135  1  0  0  0
 61136  1  0  0  0
 61137  1  0  0  0
 62138  1  0  0  0
 62139  1  0  0  0
 62140  1  0  0  0
 63 65  1  0  0  0
 63141  1  0  0  0
 63142  1  0  0  0
 63143  1  0  0  0
 64144  1  0  0  0
 65145  1  0  0  0
 68 84  1  0  0  0
 71 74  2  0  0  0
 71 75  1  0  0  0
 71146  1  0  0  0
 72 74  1  0  0  0
 72 76  2  0  0  0
 72147  1  0  0  0
 73 75  2  0  0  0
 73 76  1  0  0  0
 73 80  1  0  0  0
 74 83  1  0  0  0
 75 81  1  0  0  0
 76 86  1  0  0  0
 77 78  1  0  0  0
 77 80  1  0  0  0
 77148  1  0  0  0
 77149  1  0  0  0
 78 85  1  0  0  0
 78150  1  0  0  0
 78151  1  0  0  0
 79 80  1  0  0  0
 79 85  1  0  0  0
 79152  1  0  0  0
 79153  1  0  0  0
 80154  1  0  0  0
 81155  1  0  0  0
 81156  1  0  0  0
 81157  1  0  0  0
 82 86  1  0  0  0
 82158  1  0  0  0
 82159  1  0  0  0
 82160  1  0  0  0
 83 84  1  0  0  0
 83161  1  0  0  0
 83162  1  0  0  0
 84163  1  0  0  0
 84164  1  0  0  0
M  ISO  4   1 100  68 101  84 101  85 100
M  END
> <chiral flag>
0

> <version>
0

> <s_m_source_file>
/data/baiqing/PycharmProjects/Reinvent-master-3.2/result/LINK_invent/BTK/process_docking_weight1_custom_sum_contain_oxygen_bond_distance_aromatic_linkinvent_7_9_3/rearranged_h_0153.sdf

> <i_m_source_file_index>
87

> <r_mmod_Potential_Energy-OPLS-2005>
268.081878662109

> <r_mmod_Stretch_Energy-OPLS-2005>
77.1929016113281

> <r_mmod_Bend_Energy-OPLS-2005>
170.913772583008

> <r_mmod_Torsional_Energy-OPLS-2005>
313.671722412109

> <r_mmod_Improper_Torsional_Energy-OPLS-2005>
11.5919790267944

> <r_mmod_Van_der_Waal_Energy-OPLS-2005>
148.863098144531

> <r_mmod_Electrostatic_Energy-OPLS-2005>
-293.738250732422

> <r_mmod_Solvation_Energy-OPLS-2005>
-199.879837036133

> <b_mmod_Minimization_Converged-OPLS-2005>
0

> <r_mmod_RMS_Derivative-OPLS-2005>
3.01286506652832

$$$$
88
                    3D
 Structure written by MMmdl.
170179  0  0  1  0            999 V2000
  -29.6769  -16.5756   20.4490 C   0  0  0  0  0  0
  -30.2357  -13.8437   19.6061 C   0  0  0  0  0  0
  -29.5418  -12.9751   18.4713 C   0  0  0  0  0  0
  -28.2194  -12.3620   18.9350 C   0  0  0  0  0  0
  -27.5382  -13.3923   19.8482 C   0  0  2  0  0  0
  -28.4265  -14.0530   20.9493 C   0  0  0  0  0  0
  -25.1962  -13.8388   20.5909 C   0  0  0  0  0  0
  -24.1483  -13.0421   20.9335 C   0  0  0  0  0  0
  -24.6345  -11.6971   20.8786 C   0  0  0  0  0  0
  -23.9112  -10.4298   21.0383 C   0  0  0  0  0  0
  -24.3655   -9.4233   21.9184 C   0  0  0  0  0  0
  -23.6330   -8.2263   22.0757 C   0  0  0  0  0  0
  -22.4309   -8.0299   21.3546 C   0  0  0  0  0  0
  -21.9953   -9.0258   20.4628 C   0  0  0  0  0  0
  -22.7282  -10.2132   20.3041 C   0  0  0  0  0  0
  -21.6872   -6.0748   22.5285 C   0  0  0  0  0  0
  -21.4031   -6.5655   23.8218 C   0  0  0  0  0  0
  -21.3654   -5.6799   24.9171 C   0  0  0  0  0  0
  -21.6049   -4.3066   24.7214 C   0  0  0  0  0  0
  -21.8815   -3.8158   23.4336 C   0  0  0  0  0  0
  -21.9199   -4.6974   22.3398 C   0  0  0  0  0  0
  -22.7500  -13.5104   21.1938 C   0  0  0  0  0  0
  -22.1669   -4.2180   21.0968 F   0  0  0  0  0  0
  -21.5613   -3.4543   25.7712 F   0  0  0  0  0  0
  -29.3734  -15.0269   20.2795 N   0  0  0  0  0  0
  -26.2457  -12.9846   20.3451 N   0  0  0  0  0  0
  -25.9319  -11.6822   20.5758 N   0  0  0  0  0  0
  -22.0238  -12.8059   22.0513 N   0  0  0  0  0  0
  -25.3447  -15.2130   20.4324 N   0  0  0  0  0  0
  -30.9447  -16.4179   20.3590 O   0  0  0  0  0  0
  -21.6660   -6.8905   21.4254 O   0  0  0  0  0  0
  -22.3180  -14.5426   20.6812 O   0  0  0  0  0  0
  -24.6602  -31.7320   23.1699 C   0  0  0  0  0  0
  -25.9191  -32.4087   23.8042 C   0  0  1  0  0  0
  -27.9851  -26.9371   19.5890 C   0  0  0  0  0  0
  -25.5874  -33.8060   24.1783 N   0  0  0  0  0  0
  -23.4875  -30.1519   21.6677 C   0  0  2  0  0  0
  -24.7396  -27.7674   20.6544 C   0  0  0  0  0  0
  -22.7048  -29.3813   22.6880 C   0  0  0  0  0  0
  -18.0014  -28.1368   22.8848 C   0  0  0  0  0  0
  -24.1515  -36.6980   23.2664 C   0  0  0  0  0  0
  -25.9979  -30.1007   21.6842 C   0  0  0  0  0  0
  -26.0599  -28.4825   21.4295 C   0  0  0  0  0  0
  -27.5562  -28.0000   20.8589 C   0  0  0  0  0  0
  -27.1608  -26.6703   18.5502 C   0  0  0  0  0  0
  -25.7228  -26.5521   18.8859 C   0  0  0  0  0  0
  -23.6845  -29.0718   20.5570 C   0  0  0  0  0  0
  -25.4168  -36.2735   24.0279 C   0  0  1  0  0  0
  -20.5396  -28.3329   23.1775 C   0  0  2  0  0  0
  -20.6327  -26.9259   22.5423 C   0  0  0  0  0  0
  -19.5286  -26.6541   21.5213 C   0  0  0  0  0  0
  -18.1673  -26.7860   22.2051 C   0  0  0  0  0  0
  -19.1262  -28.8793   23.3227 C   0  0  0  0  0  0
  -18.9382  -30.1522   23.9064 C   0  0  0  0  0  0
  -17.6440  -30.6840   24.0538 C   0  0  0  0  0  0
  -25.9113  -34.9096   23.4870 C   0  0  0  0  0  0
  -16.5303  -29.9261   23.6434 C   0  0  0  0  0  0
  -16.7051  -28.6557   23.0640 C   0  0  0  0  0  0
  -26.4471  -31.6491   25.0867 C   0  0  0  0  0  0
  -25.3517  -31.3908   26.1484 C   0  0  0  0  0  0
  -27.0607  -30.2770   24.7380 C   0  0  0  0  0  0
  -27.5825  -32.4615   25.7546 C   0  0  0  0  0  0
  -27.5602  -37.1605   24.8460 C   0  0  0  0  0  0
  -21.3912  -29.2777   22.4778 N   0  0  0  0  0  0
  -26.4300  -37.3504   23.9411 N   0  0  0  0  0  0
  -24.7478  -30.7236   22.2171 N   0  0  0  0  0  0
  -23.3095  -28.7753   23.5701 O   0  0  0  0  0  0
  -27.6541  -25.4537   18.9784 O   0  0  0  0  0  0
  -26.5767  -34.8717   22.4491 O   0  0  0  0  0  0
  -23.5636  -32.1316   23.5913 O   0  0  0  0  0  0
  -23.5129  -25.7468   19.6777 C   0  0  0  0  0  0
  -24.6923  -25.3236   20.7197 C   0  0  0  0  0  0
  -25.9936  -28.6048   19.1330 C   0  0  0  0  0  0
  -23.5237  -26.6956   18.3709 C   0  0  0  0  0  0
  -24.3899  -28.2516   18.2042 C   0  0  0  0  0  0
  -26.1673  -26.0602   20.8899 C   0  0  0  0  0  0
  -24.2645  -28.5632   16.7265 C   0  0  0  0  0  0
  -24.6060  -27.3287   15.7609 C   0  0  0  0  0  0
  -24.3582  -25.3346   17.4067 C   0  0  2  0  0  0
  -22.6646  -25.0548   14.1278 C   0  0  0  0  0  0
  -21.6862  -26.8524   15.6016 C   0  0  0  0  0  0
  -26.2846  -24.5906   17.8372 C   0  0  0  0  0  0
  -28.5285  -20.2614   20.8325 C   0  0  0  0  0  0
  -27.3649  -22.3357   20.7491 C   0  0  0  0  0  0
  -22.6680  -25.6519   15.5454 C   0  0  0  0  0  0
  -28.8663  -18.1740   20.5512 N   0  0  0  0  0  0
  -24.0784  -25.9150   16.0311 N   0  3  1  0  0  0
  -27.1264  -24.4335   20.9985 O   0  0  0  0  0  0
  -31.1017  -14.3038   19.1325 H   0  0  0  0  0  0
  -30.6719  -13.2011   20.3746 H   0  0  0  0  0  0
  -30.2213  -12.2002   18.1184 H   0  0  0  0  0  0
  -29.3395  -13.6286   17.6195 H   0  0  0  0  0  0
  -28.4250  -11.4446   19.4949 H   0  0  0  0  0  0
  -27.5842  -12.0982   18.0851 H   0  0  0  0  0  0
  -27.3142  -14.2041   19.1520 H   0  0  0  0  0  0
  -28.9036  -13.3079   21.5924 H   0  0  0  0  0  0
  -27.8012  -14.6411   21.6255 H   0  0  0  0  0  0
  -25.2798   -9.5725   22.4768 H   0  0  0  0  0  0
  -24.0036   -7.4672   22.7502 H   0  0  0  0  0  0
  -21.0888   -8.8767   19.8937 H   0  0  0  0  0  0
  -22.3749  -10.9651   19.6138 H   0  0  0  0  0  0
  -21.2050   -7.6173   23.9730 H   0  0  0  0  0  0
  -21.1470   -6.0527   25.9072 H   0  0  0  0  0  0
  -22.0596   -2.7632   23.2809 H   0  0  0  0  0  0
  -22.3938  -11.9731   22.4837 H   0  0  0  0  0  0
  -21.0851  -13.0979   22.2802 H   0  0  0  0  0  0
  -24.5702  -15.8528   20.5622 H   0  0  0  0  0  0
  -26.1935  -15.6704   20.1294 H   0  0  0  0  0  0
  -26.7062  -32.4255   23.0552 H   0  0  0  0  0  0
  -25.0255  -33.9227   25.0081 H   0  0  0  0  0  0
  -22.8743  -30.9619   21.2657 H   0  0  0  0  0  0
  -23.3904  -35.9185   23.3185 H   0  0  0  0  0  0
  -24.3671  -36.8753   22.2130 H   0  0  0  0  0  0
  -23.7122  -37.6036   23.6819 H   0  0  0  0  0  0
  -26.1539  -30.6047   20.7301 H   0  0  0  0  0  0
  -26.8841  -30.3814   22.2331 H   0  0  0  0  0  0
  -28.3859  -28.5913   21.2221 H   0  0  0  0  0  0
  -27.5703  -26.8860   17.5422 H   0  0  0  0  0  0
  -25.8123  -26.7689   17.8290 H   0  0  0  0  0  0
  -23.9652  -29.8165   19.8133 H   0  0  0  0  0  0
  -22.7100  -28.7092   20.2188 H   0  0  0  0  0  0
  -25.1399  -36.1527   25.0783 H   0  0  0  0  0  0
  -20.9076  -28.2372   24.1991 H   0  0  0  0  0  0
  -20.4910  -26.1879   23.3375 H   0  0  0  0  0  0
  -21.6193  -26.7393   22.1110 H   0  0  0  0  0  0
  -19.6394  -25.6600   21.0900 H   0  0  0  0  0  0
  -19.5882  -27.3574   20.6942 H   0  0  0  0  0  0
  -17.3585  -26.6233   21.4911 H   0  0  0  0  0  0
  -18.0825  -26.0082   22.9629 H   0  0  0  0  0  0
  -19.7940  -30.7266   24.2398 H   0  0  0  0  0  0
  -17.5126  -31.6647   24.4973 H   0  0  0  0  0  0
  -15.5339  -30.3193   23.7705 H   0  0  0  0  0  0
  -15.8439  -28.0775   22.7482 H   0  0  0  0  0  0
  -24.5805  -30.7066   25.7908 H   0  0  0  0  0  0
  -24.8574  -32.3126   26.4570 H   0  0  0  0  0  0
  -25.7740  -30.9417   27.0489 H   0  0  0  0  0  0
  -26.3347  -29.5800   24.3178 H   0  0  0  0  0  0
  -27.4377  -29.7965   25.6420 H   0  0  0  0  0  0
  -27.9176  -30.3650   24.0705 H   0  0  0  0  0  0
  -27.2211  -33.3982   26.1819 H   0  0  0  0  0  0
  -28.3686  -32.7082   25.0393 H   0  0  0  0  0  0
  -28.0455  -31.9086   26.5731 H   0  0  0  0  0  0
  -28.2462  -38.0046   24.7628 H   0  0  0  0  0  0
  -28.1250  -36.2558   24.6152 H   0  0  0  0  0  0
  -27.2326  -37.1032   25.8852 H   0  0  0  0  0  0
  -20.9621  -29.8136   21.7364 H   0  0  0  0  0  0
  -26.0142  -38.2565   24.1362 H   0  0  0  0  0  0
  -22.6972  -25.0334   19.6780 H   0  0  0  0  0  0
  -24.5367  -24.3943   21.2486 H   0  0  0  0  0  0
  -26.7980  -29.2449   18.7684 H   0  0  0  0  0  0
  -24.9395  -29.3939   16.5268 H   0  0  0  0  0  0
  -23.2551  -28.9351   16.5546 H   0  0  0  0  0  0
  -25.6900  -27.2286   15.7192 H   0  0  0  0  0  0
  -24.3356  -27.6258   14.7460 H   0  0  0  0  0  0
  -23.7448  -24.4441   17.5203 H   0  0  0  0  0  0
  -21.6679  -24.6855   13.8816 H   0  0  0  0  0  0
  -23.3419  -24.2070   14.0354 H   0  0  0  0  0  0
  -22.9380  -25.7791   13.3608 H   0  0  0  0  0  0
  -20.6782  -26.5442   15.3076 H   0  0  0  0  0  0
  -21.9698  -27.6561   14.9238 H   0  0  0  0  0  0
  -21.5890  -27.2700   16.6013 H   0  0  0  0  0  0
  -26.7818  -24.3471   16.8953 H   0  0  0  0  0  0
  -26.1153  -23.6133   18.2947 H   0  0  0  0  0  0
  -28.7869  -20.2775   21.8943 H   0  0  0  0  0  0
  -29.4493  -20.5836   20.3491 H   0  0  0  0  0  0
  -26.4620  -22.0580   21.2901 H   0  0  0  0  0  0
  -27.0635  -22.2841   19.7088 H   0  0  0  0  0  0
  -22.2191  -24.8675   16.1621 H   0  0  0  0  0  0
  -29.7743  -18.4751   20.2297 H   0  0  0  0  0  0
  -24.6120  -25.3332   15.4046 H   0  0  0  0  0  0
  1 25  1  0  0  0
  1 30  2  0  0  0
  1 86  1  0  0  0
  2  3  1  0  0  0
  2 25  1  0  0  0
  2 89  1  0  0  0
  2 90  1  0  0  0
  3  4  1  0  0  0
  3 91  1  0  0  0
  3 92  1  0  0  0
  4  5  1  0  0  0
  4 93  1  0  0  0
  4 94  1  0  0  0
  5  6  1  0  0  0
  5 26  1  0  0  0
  5 95  1  0  0  0
  6 25  1  0  0  0
  6 96  1  0  0  0
  6 97  1  0  0  0
  7  8  2  0  0  0
  7 26  1  0  0  0
  7 29  1  0  0  0
  8  9  1  0  0  0
  8 22  1  0  0  0
  9 10  1  0  0  0
  9 27  2  0  0  0
 10 11  2  0  0  0
 10 15  1  0  0  0
 11 12  1  0  0  0
 11 98  1  0  0  0
 12 13  2  0  0  0
 12 99  1  0  0  0
 13 14  1  0  0  0
 13 31  1  0  0  0
 14 15  2  0  0  0
 14100  1  0  0  0
 15101  1  0  0  0
 16 17  2  0  0  0
 16 21  1  0  0  0
 16 31  1  0  0  0
 17 18  1  0  0  0
 17102  1  0  0  0
 18 19  2  0  0  0
 18103  1  0  0  0
 19 20  1  0  0  0
 19 24  1  0  0  0
 20 21  2  0  0  0
 20104  1  0  0  0
 21 23  1  0  0  0
 22 28  1  0  0  0
 22 32  2  0  0  0
 26 27  1  0  0  0
 28105  1  0  0  0
 28106  1  0  0  0
 29107  1  0  0  0
 29108  1  0  0  0
 33 34  1  0  0  0
 33 66  1  0  0  0
 33 70  2  0  0  0
 34 36  1  0  0  0
 34 59  1  0  0  0
 34109  1  0  0  0
 35 44  2  0  0  0
 35 45  1  0  0  0
 35 68  1  0  0  0
 36 56  1  0  0  0
 36110  1  0  0  0
 37 39  1  0  0  0
 37 47  1  0  0  0
 37 66  1  0  0  0
 37111  1  0  0  0
 38 43  2  0  0  0
 38 46  1  0  0  0
 38 47  1  0  0  0
 39 64  1  0  0  0
 39 67  2  0  0  0
 40 52  1  0  0  0
 40 53  2  0  0  0
 40 58  1  0  0  0
 41112  1  0  0  0
 41113  1  0  0  0
 41114  1  0  0  0
 41 48  1  0  0  0
 42 43  1  0  0  0
 42 66  1  0  0  0
 42115  1  0  0  0
 42116  1  0  0  0
 43 44  1  0  0  0
 44117  1  0  0  0
 45 46  2  0  0  0
 45118  1  0  0  0
 46119  1  0  0  0
 47120  1  0  0  0
 47121  1  0  0  0
 48 56  1  0  0  0
 48 65  1  0  0  0
 48122  1  0  0  0
 49 50  1  0  0  0
 49 53  1  0  0  0
 49 64  1  0  0  0
 49123  1  0  0  0
 50 51  1  0  0  0
 50124  1  0  0  0
 50125  1  0  0  0
 51 52  1  0  0  0
 51126  1  0  0  0
 51127  1  0  0  0
 52128  1  0  0  0
 52129  1  0  0  0
 53 54  1  0  0  0
 54 55  2  0  0  0
 54130  1  0  0  0
 55 57  1  0  0  0
 55131  1  0  0  0
 56 69  2  0  0  0
 57 58  2  0  0  0
 57132  1  0  0  0
 58133  1  0  0  0
 59 60  1  0  0  0
 59 61  1  0  0  0
 59 62  1  0  0  0
 60134  1  0  0  0
 60135  1  0  0  0
 60136  1  0  0  0
 61137  1  0  0  0
 61138  1  0  0  0
 61139  1  0  0  0
 62140  1  0  0  0
 62141  1  0  0  0
 62142  1  0  0  0
 63 65  1  0  0  0
 63143  1  0  0  0
 63144  1  0  0  0
 63145  1  0  0  0
 64146  1  0  0  0
 65147  1  0  0  0
 68 82  1  0  0  0
 71 72  2  0  0  0
 71 74  1  0  0  0
 71148  1  0  0  0
 72 76  1  0  0  0
 72149  1  0  0  0
 73 75  1  0  0  0
 73 76  2  0  0  0
 73150  1  0  0  0
 74 75  2  0  0  0
 74 79  1  0  0  0
 75 77  1  0  0  0
 76 88  1  0  0  0
 77 78  1  0  0  0
 77151  1  0  0  0
 77152  1  0  0  0
 78153  1  0  0  0
 78154  1  0  0  0
 78 87  1  0  0  0
 79 82  1  0  0  0
 79 87  1  0  0  0
 79155  1  0  0  0
 80156  1  0  0  0
 80157  1  0  0  0
 80158  1  0  0  0
 80 85  1  0  0  0
 81 85  1  0  0  0
 81159  1  0  0  0
 81160  1  0  0  0
 81161  1  0  0  0
 82162  1  0  0  0
 82163  1  0  0  0
 83 84  1  0  0  0
 83 86  1  0  0  0
 83164  1  0  0  0
 83165  1  0  0  0
 84 88  1  0  0  0
 84166  1  0  0  0
 84167  1  0  0  0
 85 87  1  0  0  0
 85168  1  0  0  0
 86169  1  0  0  0
 87170  1  0  0  0
M  CHG  1  87   1
M  ISO  4   1 100  68 101  82 101  86 100
M  END
> <chiral flag>
0

> <version>
0

> <s_m_source_file>
/data/baiqing/PycharmProjects/Reinvent-master-3.2/result/LINK_invent/BTK/process_docking_weight1_custom_sum_contain_oxygen_bond_distance_aromatic_linkinvent_7_9_3/rearranged_h_0153.sdf

> <i_m_source_file_index>
88

> <r_mmod_Potential_Energy-OPLS-2005>
23962.90234375

> <r_mmod_Stretch_Energy-OPLS-2005>
13599.763671875

> <r_mmod_Bend_Energy-OPLS-2005>
2271.33862304688

> <r_mmod_Torsional_Energy-OPLS-2005>
807.751159667969

> <r_mmod_Improper_Torsional_Energy-OPLS-2005>
154.522979736328

> <r_mmod_Van_der_Waal_Energy-OPLS-2005>
4546.50634765625

> <r_mmod_Electrostatic_Energy-OPLS-2005>
-254.515884399414

> <r_mmod_Solvation_Energy-OPLS-2005>
-479.695678710938

> <b_mmod_Minimization_Converged-OPLS-2005>
0

> <r_mmod_RMS_Derivative-OPLS-2005>
23.0564517974854

$$$$
89
                    3D
 Structure written by MMmdl.
177187  0  0  1  0            999 V2000
  -30.7667  -14.4474   20.5920 C   0  0  0  0  0  0
  -30.4049  -12.3031   19.4372 C   0  0  0  0  0  0
  -29.4908  -12.4971   18.2117 C   0  0  0  0  0  0
  -28.0118  -12.3454   18.6155 C   0  0  0  0  0  0
  -27.6550  -13.1893   19.8648 C   0  0  2  0  0  0
  -28.6983  -12.9853   20.9963 C   0  0  0  0  0  0
  -25.2557  -13.8123   20.5627 C   0  0  0  0  0  0
  -24.1818  -13.0424   20.9189 C   0  0  0  0  0  0
  -24.6368  -11.6891   20.8757 C   0  0  0  0  0  0
  -23.9042  -10.4287   21.0428 C   0  0  0  0  0  0
  -24.3617   -9.4208   21.9195 C   0  0  0  0  0  0
  -23.6301   -8.2240   22.0757 C   0  0  0  0  0  0
  -22.4271   -8.0276   21.3568 C   0  0  0  0  0  0
  -21.9906   -9.0237   20.4657 C   0  0  0  0  0  0
  -22.7226  -10.2119   20.3063 C   0  0  0  0  0  0
  -21.6859   -6.0736   22.5293 C   0  0  0  0  0  0
  -21.4018   -6.5640   23.8223 C   0  0  0  0  0  0
  -21.3657   -5.6791   24.9181 C   0  0  0  0  0  0
  -21.6041   -4.3055   24.7231 C   0  0  0  0  0  0
  -21.8828   -3.8151   23.4353 C   0  0  0  0  0  0
  -21.9197   -4.6967   22.3411 C   0  0  0  0  0  0
  -22.7848  -13.5236   21.1833 C   0  0  0  0  0  0
  -22.1649   -4.2160   21.0986 F   0  0  0  0  0  0
  -21.5620   -3.4536   25.7744 F   0  0  0  0  0  0
  -30.0258  -13.3061   20.4551 N   0  0  0  0  0  0
  -26.2973  -12.9262   20.3303 N   0  0  0  0  0  0
  -25.9280  -11.6450   20.5771 N   0  0  0  0  0  0
  -22.0493  -12.8238   22.0402 N   0  0  0  0  0  0
  -25.4221  -15.1833   20.3938 N   0  0  0  0  0  0
  -31.8828  -14.5426   20.0746 O   0  0  0  0  0  0
  -21.6641   -6.8870   21.4254 O   0  0  0  0  0  0
  -22.3538  -14.5542   20.6664 O   0  0  0  0  0  0
  -24.6153  -31.8703   23.2137 C   0  0  0  0  0  0
  -25.9054  -32.4834   23.8418 C   0  0  1  0  0  0
  -27.2250  -27.4424   20.0763 C   0  0  0  0  0  0
  -25.5910  -33.8632   24.2349 N   0  0  0  0  0  0
  -23.3992  -30.4987   21.5568 C   0  0  2  0  0  0
  -24.8387  -28.9725   20.1167 C   0  0  0  0  0  0
  -22.7400  -29.4683   22.5018 C   0  0  0  0  0  0
  -18.0269  -28.1373   22.8497 C   0  0  0  0  0  0
  -24.1487  -36.7319   23.2635 C   0  0  0  0  0  0
  -25.9302  -30.8384   21.3642 C   0  0  0  0  0  0
  -26.0031  -29.4757   20.7081 C   0  0  0  0  0  0
  -27.1984  -28.7189   20.6842 C   0  0  0  0  0  0
  -26.0278  -26.9545   19.4932 C   0  0  0  0  0  0
  -24.8450  -27.7094   19.5096 C   0  0  0  0  0  0
  -23.6028  -29.8386   20.1689 C   0  0  0  0  0  0
  -25.4108  -36.3124   24.0337 C   0  0  1  0  0  0
  -20.5857  -28.3660   23.1325 C   0  0  2  0  0  0
  -20.6767  -26.9396   22.5416 C   0  0  0  0  0  0
  -19.5743  -26.6383   21.5214 C   0  0  0  0  0  0
  -18.1920  -26.7922   22.1626 C   0  0  0  0  0  0
  -19.1517  -28.8834   23.2911 C   0  0  0  0  0  0
  -18.9445  -30.1439   23.8916 C   0  0  0  0  0  0
  -17.6443  -30.6580   24.0566 C   0  0  0  0  0  0
  -25.9033  -34.9485   23.5139 C   0  0  0  0  0  0
  -16.5337  -29.9077   23.6326 C   0  0  0  0  0  0
  -16.7256  -28.6497   23.0351 C   0  0  0  0  0  0
  -26.4471  -31.6601   25.0737 C   0  0  0  0  0  0
  -25.3739  -31.3691   26.1480 C   0  0  0  0  0  0
  -27.0287  -30.3047   24.6093 C   0  0  0  0  0  0
  -27.6057  -32.4302   25.7498 C   0  0  0  0  0  0
  -27.5581  -37.1821   24.8461 C   0  0  0  0  0  0
  -21.4128  -29.3037   22.3742 N   0  0  0  0  0  0
  -26.4295  -37.3804   23.9402 N   0  0  0  0  0  0
  -24.6671  -31.0821   22.1033 N   0  0  0  0  0  0
  -23.4189  -28.8213   23.3036 O   0  0  0  0  0  0
  -28.4088  -26.7219   20.0752 O   0  0  0  0  0  0
  -26.5592  -34.8925   22.4700 O   0  0  0  0  0  0
  -23.5350  -32.1449   23.7540 O   0  0  0  0  0  0
  -28.2002  -23.6676   17.8401 C   0  0  0  0  0  0
  -29.3227  -23.0230   20.0321 C   0  0  0  0  0  0
  -28.4285  -25.1435   18.1951 C   0  0  0  0  0  0
  -29.4937  -24.5273   20.3495 C   0  0  0  0  0  0
  -30.8898  -17.4522   19.7548 C   0  0  0  0  0  0
  -28.9129  -16.0085   21.5955 C   0  0  0  0  0  0
  -29.3634  -17.6418   19.7298 C   0  0  1  0  0  0
  -29.2260  -22.7060   18.5083 C   0  0  1  0  0  0
  -29.0001  -17.5002   21.2401 C   0  0  2  0  0  0
  -28.3524  -25.3350   19.7179 C   0  0  1  0  0  0
  -31.0586  -16.8896   21.1765 C   0  0  2  0  0  0
  -30.6181  -20.6243   16.4160 C   0  0  0  0  0  0
  -27.2484  -18.7847   18.9262 C   0  0  0  0  0  0
  -29.1430  -20.9182   16.7549 C   0  0  0  0  0  0
  -29.3523  -20.2313   19.1687 C   0  0  0  0  0  0
  -28.7914  -18.8074   18.8813 C   0  0  1  0  0  0
  -30.3016  -15.5928   21.2972 N   0  0  0  0  0  0
  -28.8849  -21.2723   18.1895 N   0  3  1  0  0  0
  -30.2434  -17.7702   21.8820 O   0  0  0  0  0  0
  -31.4513  -12.3660   19.1344 H   0  0  0  0  0  0
  -30.2889  -11.2965   19.8427 H   0  0  0  0  0  0
  -29.7432  -11.7711   17.4372 H   0  0  0  0  0  0
  -29.6581  -13.4829   17.7755 H   0  0  0  0  0  0
  -27.8242  -11.2891   18.8134 H   0  0  0  0  0  0
  -27.3633  -12.6168   17.7806 H   0  0  0  0  0  0
  -27.6858  -14.2159   19.5114 H   0  0  0  0  0  0
  -28.6885  -11.9441   21.3220 H   0  0  0  0  0  0
  -28.4609  -13.5431   21.8991 H   0  0  0  0  0  0
  -25.2773   -9.5680   22.4752 H   0  0  0  0  0  0
  -24.0039   -7.4627   22.7451 H   0  0  0  0  0  0
  -21.0848   -8.8732   19.8952 H   0  0  0  0  0  0
  -22.3692  -10.9642   19.6150 H   0  0  0  0  0  0
  -21.2012   -7.6147   23.9729 H   0  0  0  0  0  0
  -21.1461   -6.0518   25.9080 H   0  0  0  0  0  0
  -22.0614   -2.7618   23.2849 H   0  0  0  0  0  0
  -22.4128  -11.9903   22.4787 H   0  0  0  0  0  0
  -21.1087  -13.1208   22.2568 H   0  0  0  0  0  0
  -24.6474  -15.8303   20.4916 H   0  0  0  0  0  0
  -26.2543  -15.6159   20.0186 H   0  0  0  0  0  0
  -26.7127  -32.5538   23.1186 H   0  0  0  0  0  0
  -25.0078  -33.9805   25.0505 H   0  0  0  0  0  0
  -22.6883  -31.3166   21.4232 H   0  0  0  0  0  0
  -23.3744  -35.9655   23.3308 H   0  0  0  0  0  0
  -24.3585  -36.8924   22.2047 H   0  0  0  0  0  0
  -23.7239  -37.6528   23.6638 H   0  0  0  0  0  0
  -26.0423  -31.6067   20.5979 H   0  0  0  0  0  0
  -26.8195  -30.8893   21.9800 H   0  0  0  0  0  0
  -28.0988  -29.1091   21.1379 H   0  0  0  0  0  0
  -25.9667  -25.9919   19.0111 H   0  0  0  0  0  0
  -23.9487  -27.3133   19.0526 H   0  0  0  0  0  0
  -23.7114  -30.6165   19.4121 H   0  0  0  0  0  0
  -22.7258  -29.2599   19.8722 H   0  0  0  0  0  0
  -25.1289  -36.1997   25.0830 H   0  0  0  0  0  0
  -20.9951  -28.3215   24.1445 H   0  0  0  0  0  0
  -20.5676  -26.2265   23.3602 H   0  0  0  0  0  0
  -21.6639  -26.7451   22.1200 H   0  0  0  0  0  0
  -19.6902  -25.6299   21.1234 H   0  0  0  0  0  0
  -19.6681  -27.3209   20.6759 H   0  0  0  0  0  0
  -17.4193  -26.6678   21.4021 H   0  0  0  0  0  0
  -18.0310  -26.0052   22.9012 H   0  0  0  0  0  0
  -19.7918  -30.7258   24.2295 H   0  0  0  0  0  0
  -17.4993  -31.6263   24.5160 H   0  0  0  0  0  0
  -15.5338  -30.2986   23.7636 H   0  0  0  0  0  0
  -15.8658  -28.0817   22.7060 H   0  0  0  0  0  0
  -24.5921  -30.7034   25.7807 H   0  0  0  0  0  0
  -24.8923  -32.2838   26.4948 H   0  0  0  0  0  0
  -25.8097  -30.8842   27.0226 H   0  0  0  0  0  0
  -26.2826  -29.6823   24.1137 H   0  0  0  0  0  0
  -27.4051  -29.7265   25.4544 H   0  0  0  0  0  0
  -27.8668  -30.4366   23.9244 H   0  0  0  0  0  0
  -27.2697  -33.3601   26.2095 H   0  0  0  0  0  0
  -28.3862  -32.6855   25.0318 H   0  0  0  0  0  0
  -28.0719  -31.8402   26.5397 H   0  0  0  0  0  0
  -28.2604  -38.0115   24.7510 H   0  0  0  0  0  0
  -28.1078  -36.2650   24.6290 H   0  0  0  0  0  0
  -27.2299  -37.1473   25.8866 H   0  0  0  0  0  0
  -20.9282  -29.8776   21.6987 H   0  0  0  0  0  0
  -26.0186  -38.2884   24.1400 H   0  0  0  0  0  0
  -28.2282  -23.6000   16.7550 H   0  0  0  0  0  0
  -27.1862  -23.3907   18.1335 H   0  0  0  0  0  0
  -28.4249  -22.6695   20.5410 H   0  0  0  0  0  0
  -30.1647  -22.4889   20.4734 H   0  0  0  0  0  0
  -27.6939  -25.7574   17.6753 H   0  0  0  0  0  0
  -29.3998  -25.4741   17.8228 H   0  0  0  0  0  0
  -30.4567  -24.8852   19.9845 H   0  0  0  0  0  0
  -29.4975  -24.6745   21.4298 H   0  0  0  0  0  0
  -31.4493  -18.3838   19.6933 H   0  0  0  0  0  0
  -31.2634  -16.7785   18.9838 H   0  0  0  0  0  0
  -28.1303  -15.5492   21.0123 H   0  0  0  0  0  0
  -28.6910  -15.8611   22.6527 H   0  0  0  0  0  0
  -28.9616  -16.7551   19.2343 H   0  0  0  0  0  0
  -30.2102  -22.9189   18.0894 H   0  0  0  0  0  0
  -28.1600  -18.0996   21.5926 H   0  0  0  0  0  0
  -27.4355  -24.8944   20.1147 H   0  0  0  0  0  0
  -32.0741  -16.7451   21.5559 H   0  0  0  0  0  0
  -30.7224  -20.4328   15.3475 H   0  0  0  0  0  0
  -30.9950  -19.7415   16.9320 H   0  0  0  0  0  0
  -31.2701  -21.4634   16.6562 H   0  0  0  0  0  0
  -26.8632  -17.7781   18.7629 H   0  0  0  0  0  0
  -26.8037  -19.4152   18.1571 H   0  0  0  0  0  0
  -26.8678  -19.1265   19.8887 H   0  0  0  0  0  0
  -28.5312  -20.0626   16.4700 H   0  0  0  0  0  0
  -28.7900  -21.6991   16.0858 H   0  0  0  0  0  0
  -30.4407  -20.2363   19.1740 H   0  0  0  0  0  0
  -29.0463  -20.4840   20.1826 H   0  0  0  0  0  0
  -29.0844  -18.5289   17.8700 H   0  0  0  0  0  0
  -27.8798  -21.2427   18.2812 H   0  0  0  0  0  0
  1 25  1  0  0  0
  1 30  2  0  0  0
  1 87  1  0  0  0
  2  3  1  0  0  0
  2 25  1  0  0  0
  2 90  1  0  0  0
  2 91  1  0  0  0
  3  4  1  0  0  0
  3 92  1  0  0  0
  3 93  1  0  0  0
  4  5  1  0  0  0
  4 94  1  0  0  0
  4 95  1  0  0  0
  5  6  1  0  0  0
  5 26  1  0  0  0
  5 96  1  0  0  0
  6 25  1  0  0  0
  6 97  1  0  0  0
  6 98  1  0  0  0
  7  8  2  0  0  0
  7 26  1  0  0  0
  7 29  1  0  0  0
  8  9  1  0  0  0
  8 22  1  0  0  0
  9 10  1  0  0  0
  9 27  2  0  0  0
 10 11  2  0  0  0
 10 15  1  0  0  0
 11 12  1  0  0  0
 11 99  1  0  0  0
 12 13  2  0  0  0
 12100  1  0  0  0
 13 14  1  0  0  0
 13 31  1  0  0  0
 14 15  2  0  0  0
 14101  1  0  0  0
 15102  1  0  0  0
 16 17  2  0  0  0
 16 21  1  0  0  0
 16 31  1  0  0  0
 17 18  1  0  0  0
 17103  1  0  0  0
 18 19  2  0  0  0
 18104  1  0  0  0
 19 20  1  0  0  0
 19 24  1  0  0  0
 20 21  2  0  0  0
 20105  1  0  0  0
 21 23  1  0  0  0
 22 28  1  0  0  0
 22 32  2  0  0  0
 26 27  1  0  0  0
 28106  1  0  0  0
 28107  1  0  0  0
 29108  1  0  0  0
 29109  1  0  0  0
 33 34  1  0  0  0
 33 66  1  0  0  0
 33 70  2  0  0  0
 34 36  1  0  0  0
 34 59  1  0  0  0
 34110  1  0  0  0
 35 44  2  0  0  0
 35 45  1  0  0  0
 35 68  1  0  0  0
 36 56  1  0  0  0
 36111  1  0  0  0
 37 39  1  0  0  0
 37 47  1  0  0  0
 37 66  1  0  0  0
 37112  1  0  0  0
 38 43  2  0  0  0
 38 46  1  0  0  0
 38 47  1  0  0  0
 39 64  1  0  0  0
 39 67  2  0  0  0
 40 52  1  0  0  0
 40 53  2  0  0  0
 40 58  1  0  0  0
 41113  1  0  0  0
 41114  1  0  0  0
 41115  1  0  0  0
 41 48  1  0  0  0
 42 43  1  0  0  0
 42 66  1  0  0  0
 42116  1  0  0  0
 42117  1  0  0  0
 43 44  1  0  0  0
 44118  1  0  0  0
 45 46  2  0  0  0
 45119  1  0  0  0
 46120  1  0  0  0
 47121  1  0  0  0
 47122  1  0  0  0
 48 56  1  0  0  0
 48 65  1  0  0  0
 48123  1  0  0  0
 49 50  1  0  0  0
 49 53  1  0  0  0
 49 64  1  0  0  0
 49124  1  0  0  0
 50 51  1  0  0  0
 50125  1  0  0  0
 50126  1  0  0  0
 51 52  1  0  0  0
 51127  1  0  0  0
 51128  1  0  0  0
 52129  1  0  0  0
 52130  1  0  0  0
 53 54  1  0  0  0
 54 55  2  0  0  0
 54131  1  0  0  0
 55 57  1  0  0  0
 55132  1  0  0  0
 56 69  2  0  0  0
 57 58  2  0  0  0
 57133  1  0  0  0
 58134  1  0  0  0
 59 60  1  0  0  0
 59 61  1  0  0  0
 59 62  1  0  0  0
 60135  1  0  0  0
 60136  1  0  0  0
 60137  1  0  0  0
 61138  1  0  0  0
 61139  1  0  0  0
 61140  1  0  0  0
 62141  1  0  0  0
 62142  1  0  0  0
 62143  1  0  0  0
 63 65  1  0  0  0
 63144  1  0  0  0
 63145  1  0  0  0
 63146  1  0  0  0
 64147  1  0  0  0
 65148  1  0  0  0
 68 80  1  0  0  0
 71 73  1  0  0  0
 71149  1  0  0  0
 71150  1  0  0  0
 71 78  1  0  0  0
 72 74  1  0  0  0
 72 78  1  0  0  0
 72151  1  0  0  0
 72152  1  0  0  0
 73 80  1  0  0  0
 73153  1  0  0  0
 73154  1  0  0  0
 74 80  1  0  0  0
 74155  1  0  0  0
 74156  1  0  0  0
 75157  1  0  0  0
 75158  1  0  0  0
 75 77  1  0  0  0
 75 81  1  0  0  0
 76 87  1  0  0  0
 76159  1  0  0  0
 76160  1  0  0  0
 76 79  1  0  0  0
 77 79  1  0  0  0
 77 86  1  0  0  0
 77161  1  0  0  0
 78 88  1  0  0  0
 78162  1  0  0  0
 79 89  1  0  0  0
 79163  1  0  0  0
 80164  1  0  0  0
 81 87  1  0  0  0
 81 89  1  0  0  0
 81165  1  0  0  0
 82 84  1  0  0  0
 82166  1  0  0  0
 82167  1  0  0  0
 82168  1  0  0  0
 83169  1  0  0  0
 83170  1  0  0  0
 83171  1  0  0  0
 83 86  1  0  0  0
 84172  1  0  0  0
 84173  1  0  0  0
 84 88  1  0  0  0
 85 86  1  0  0  0
 85 88  1  0  0  0
 85174  1  0  0  0
 85175  1  0  0  0
 86176  1  0  0  0
 88177  1  0  0  0
M  CHG  1  88   1
M  ISO  4   1 100  68 101  80 101  87 100
M  END
> <chiral flag>
0

> <version>
0

> <s_m_source_file>
/data/baiqing/PycharmProjects/Reinvent-master-3.2/result/LINK_invent/BTK/process_docking_weight1_custom_sum_contain_oxygen_bond_distance_aromatic_linkinvent_7_9_3/rearranged_h_0153.sdf

> <i_m_source_file_index>
89

> <r_mmod_Potential_Energy-OPLS-2005>
226.748489379883

> <r_mmod_Stretch_Energy-OPLS-2005>
46.1089897155762

> <r_mmod_Bend_Energy-OPLS-2005>
256.262817382812

> <r_mmod_Torsional_Energy-OPLS-2005>
350.604949951172

> <r_mmod_Improper_Torsional_Energy-OPLS-2005>
4.67960405349731

> <r_mmod_Van_der_Waal_Energy-OPLS-2005>
168.420974731445

> <r_mmod_Electrostatic_Energy-OPLS-2005>
-187.794647216797

> <r_mmod_Solvation_Energy-OPLS-2005>
-425.691375732422

> <b_mmod_Minimization_Converged-OPLS-2005>
0

> <r_mmod_RMS_Derivative-OPLS-2005>
1.57963812351227

$$$$
90
                    3D
 Structure written by MMmdl.
173183  0  0  1  0            999 V2000
  -30.6637  -14.5337   20.5764 C   0  0  0  0  0  0
  -30.4248  -12.3541   19.4246 C   0  0  0  0  0  0
  -29.4867  -12.5013   18.2063 C   0  0  0  0  0  0
  -28.0082  -12.3537   18.6244 C   0  0  0  0  0  0
  -27.6530  -13.1977   19.8782 C   0  0  2  0  0  0
  -28.6990  -12.9511   20.9881 C   0  0  0  0  0  0
  -25.2539  -13.8130   20.5721 C   0  0  0  0  0  0
  -24.1791  -13.0420   20.9196 C   0  0  0  0  0  0
  -24.6350  -11.6883   20.8770 C   0  0  0  0  0  0
  -23.9039  -10.4279   21.0438 C   0  0  0  0  0  0
  -24.3594   -9.4185   21.9206 C   0  0  0  0  0  0
  -23.6273   -8.2220   22.0757 C   0  0  0  0  0  0
  -22.4253   -8.0269   21.3537 C   0  0  0  0  0  0
  -21.9903   -9.0247   20.4641 C   0  0  0  0  0  0
  -22.7225  -10.2127   20.3073 C   0  0  0  0  0  0
  -21.6831   -6.0722   22.5276 C   0  0  0  0  0  0
  -21.4005   -6.5629   23.8216 C   0  0  0  0  0  0
  -21.3667   -5.6782   24.9179 C   0  0  0  0  0  0
  -21.6048   -4.3045   24.7229 C   0  0  0  0  0  0
  -21.8816   -3.8133   23.4352 C   0  0  0  0  0  0
  -21.9185   -4.6949   22.3399 C   0  0  0  0  0  0
  -22.7815  -13.5214   21.1860 C   0  0  0  0  0  0
  -22.1640   -4.2133   21.0972 F   0  0  0  0  0  0
  -21.5651   -3.4535   25.7753 F   0  0  0  0  0  0
  -29.9989  -13.3457   20.4353 N   0  0  0  0  0  0
  -26.2966  -12.9287   20.3414 N   0  0  0  0  0  0
  -25.9263  -11.6455   20.5797 N   0  0  0  0  0  0
  -22.0441  -12.8229   22.0427 N   0  0  0  0  0  0
  -25.4243  -15.1855   20.4122 N   0  0  0  0  0  0
  -31.8381  -14.6109   20.1937 O   0  0  0  0  0  0
  -21.6612   -6.8862   21.4236 O   0  0  0  0  0  0
  -22.3507  -14.5510   20.6684 O   0  0  0  0  0  0
  -24.6097  -31.8703   23.2124 C   0  0  0  0  0  0
  -25.9014  -32.4834   23.8396 C   0  0  1  0  0  0
  -27.2337  -27.4643   20.0903 C   0  0  0  0  0  0
  -25.5908  -33.8640   24.2316 N   0  0  0  0  0  0
  -23.3935  -30.4929   21.5520 C   0  0  2  0  0  0
  -24.8422  -28.9569   20.1179 C   0  0  0  0  0  0
  -22.7357  -29.4680   22.5025 C   0  0  0  0  0  0
  -18.0233  -28.1367   22.8469 C   0  0  0  0  0  0
  -24.1486  -36.7327   23.2634 C   0  0  0  0  0  0
  -25.9181  -30.8418   21.3631 C   0  0  0  0  0  0
  -25.9982  -29.4753   20.7154 C   0  0  0  0  0  0
  -27.1977  -28.7312   20.7135 C   0  0  0  0  0  0
  -26.0701  -26.9526   19.4851 C   0  0  0  0  0  0
  -24.8693  -27.6880   19.5084 C   0  0  0  0  0  0
  -23.5994  -29.8189   20.1684 C   0  0  0  0  0  0
  -25.4109  -36.3131   24.0342 C   0  0  1  0  0  0
  -20.5816  -28.3658   23.1327 C   0  0  2  0  0  0
  -20.6749  -26.9404   22.5436 C   0  0  0  0  0  0
  -19.5765  -26.6381   21.5197 C   0  0  0  0  0  0
  -18.1902  -26.7922   22.1567 C   0  0  0  0  0  0
  -19.1491  -28.8828   23.2883 C   0  0  0  0  0  0
  -18.9438  -30.1411   23.8933 C   0  0  0  0  0  0
  -17.6467  -30.6600   24.0553 C   0  0  0  0  0  0
  -25.9054  -34.9490   23.5127 C   0  0  0  0  0  0
  -16.5346  -29.9107   23.6324 C   0  0  0  0  0  0
  -16.7232  -28.6501   23.0377 C   0  0  0  0  0  0
  -26.4447  -31.6606   25.0719 C   0  0  0  0  0  0
  -25.3716  -31.3723   26.1475 C   0  0  0  0  0  0
  -27.0268  -30.3049   24.6090 C   0  0  0  0  0  0
  -27.6027  -32.4319   25.7470 C   0  0  0  0  0  0
  -27.5589  -37.1800   24.8445 C   0  0  0  0  0  0
  -21.4099  -29.3029   22.3754 N   0  0  0  0  0  0
  -26.4291  -37.3811   23.9416 N   0  0  0  0  0  0
  -24.6566  -31.0815   22.1020 N   0  0  0  0  0  0
  -23.4135  -28.8244   23.3082 O   0  0  0  0  0  0
  -28.3968  -26.7448   20.0095 O   0  0  0  0  0  0
  -26.5614  -34.8949   22.4692 O   0  0  0  0  0  0
  -23.5314  -32.1464   23.7566 O   0  0  0  0  0  0
  -28.8786  -20.0358   23.7219 C   0  0  0  0  0  0
  -29.3482  -21.0102   21.5594 C   0  0  0  0  0  0
  -29.2488  -19.8536   22.3733 C   0  0  0  0  0  0
  -28.9489  -22.4822   23.4918 C   0  0  0  0  0  0
  -28.6995  -21.3223   24.2723 C   0  0  0  0  0  0
  -29.2025  -22.3150   22.1011 C   0  0  0  0  0  0
  -30.2253  -24.7289   24.0608 C   0  0  0  0  0  0
  -29.8217  -24.1360   25.3778 C   0  0  0  0  0  0
  -28.5035  -17.3922   22.1105 C   0  0  0  0  0  0
  -29.9481  -18.3068   20.3927 C   0  0  0  0  0  0
  -28.9523  -15.9335   21.8307 C   0  0  0  0  0  0
  -30.3715  -16.8835   19.9425 C   0  0  0  0  0  0
  -29.6049  -18.4298   21.8809 C   0  0  0  0  0  0
  -28.9854  -23.8529   24.1420 C   0  0  0  0  0  0
  -28.2590  -21.4134   25.7245 C   0  0  0  0  0  0
  -29.4210  -23.5200   21.1755 C   0  0  0  0  0  0
  -28.2734  -24.5642   21.1196 C   0  0  0  0  0  0
  -28.7531  -26.0351   21.1906 C   0  0  0  0  0  0
  -29.9288  -15.6971   20.7329 N   0  0  0  0  0  0
  -31.4610  -12.4796   19.1091 H   0  0  0  0  0  0
  -30.3717  -11.3456   19.8325 H   0  0  0  0  0  0
  -29.7356  -11.7552   17.4494 H   0  0  0  0  0  0
  -29.6378  -13.4741   17.7338 H   0  0  0  0  0  0
  -27.8284  -11.2972   18.8294 H   0  0  0  0  0  0
  -27.3544  -12.6148   17.7915 H   0  0  0  0  0  0
  -27.6974  -14.2444   19.5762 H   0  0  0  0  0  0
  -28.7114  -11.8911   21.2464 H   0  0  0  0  0  0
  -28.4666  -13.4292   21.9346 H   0  0  0  0  0  0
  -25.2739   -9.5654   22.4783 H   0  0  0  0  0  0
  -23.9973   -7.4605   22.7484 H   0  0  0  0  0  0
  -21.0833   -8.8768   19.8941 H   0  0  0  0  0  0
  -22.3691  -10.9670   19.6187 H   0  0  0  0  0  0
  -21.1982   -7.6141   23.9713 H   0  0  0  0  0  0
  -21.1501   -6.0515   25.9083 H   0  0  0  0  0  0
  -22.0591   -2.7596   23.2855 H   0  0  0  0  0  0
  -22.4016  -11.9897   22.4855 H   0  0  0  0  0  0
  -21.1047  -13.1260   22.2591 H   0  0  0  0  0  0
  -24.6616  -15.8412   20.5432 H   0  0  0  0  0  0
  -26.2843  -15.6297   20.1192 H   0  0  0  0  0  0
  -26.7085  -32.5550   23.1153 H   0  0  0  0  0  0
  -25.0027  -33.9779   25.0437 H   0  0  0  0  0  0
  -22.6825  -31.3092   21.4131 H   0  0  0  0  0  0
  -23.3767  -35.9633   23.3281 H   0  0  0  0  0  0
  -24.3575  -36.8983   22.2052 H   0  0  0  0  0  0
  -23.7218  -37.6518   23.6672 H   0  0  0  0  0  0
  -26.0245  -31.6085   20.5956 H   0  0  0  0  0  0
  -26.8063  -30.8973   21.9781 H   0  0  0  0  0  0
  -28.0912  -29.1284   21.1726 H   0  0  0  0  0  0
  -26.0993  -25.9902   18.9925 H   0  0  0  0  0  0
  -23.9785  -27.2777   19.0512 H   0  0  0  0  0  0
  -23.6968  -30.5935   19.4063 H   0  0  0  0  0  0
  -22.7231  -29.2345   19.8817 H   0  0  0  0  0  0
  -25.1262  -36.1997   25.0834 H   0  0  0  0  0  0
  -20.9843  -28.3272   24.1476 H   0  0  0  0  0  0
  -20.5649  -26.2289   23.3632 H   0  0  0  0  0  0
  -21.6629  -26.7486   22.1252 H   0  0  0  0  0  0
  -19.6983  -25.6291   21.1240 H   0  0  0  0  0  0
  -19.6755  -27.3192   20.6730 H   0  0  0  0  0  0
  -17.4198  -26.6670   21.3935 H   0  0  0  0  0  0
  -18.0273  -26.0033   22.8932 H   0  0  0  0  0  0
  -19.7946  -30.7130   24.2386 H   0  0  0  0  0  0
  -17.5072  -31.6308   24.5118 H   0  0  0  0  0  0
  -15.5369  -30.3055   23.7662 H   0  0  0  0  0  0
  -15.8593  -28.0842   22.7149 H   0  0  0  0  0  0
  -24.5959  -30.6954   25.7862 H   0  0  0  0  0  0
  -24.8790  -32.2868   26.4810 H   0  0  0  0  0  0
  -25.8081  -30.9039   27.0304 H   0  0  0  0  0  0
  -26.2809  -29.6828   24.1127 H   0  0  0  0  0  0
  -27.4016  -29.7277   25.4551 H   0  0  0  0  0  0
  -27.8655  -30.4345   23.9240 H   0  0  0  0  0  0
  -27.2640  -33.3611   26.2058 H   0  0  0  0  0  0
  -28.3822  -32.6893   25.0285 H   0  0  0  0  0  0
  -28.0697  -31.8432   26.5376 H   0  0  0  0  0  0
  -28.2571  -38.0123   24.7545 H   0  0  0  0  0  0
  -28.1108  -36.2675   24.6174 H   0  0  0  0  0  0
  -27.2322  -37.1350   25.8842 H   0  0  0  0  0  0
  -20.9280  -29.8725   21.6944 H   0  0  0  0  0  0
  -26.0206  -38.2876   24.1486 H   0  0  0  0  0  0
  -28.7613  -19.1745   24.3638 H   0  0  0  0  0  0
  -29.5961  -20.9116   20.5123 H   0  0  0  0  0  0
  -31.1297  -24.3252   23.6122 H   0  0  0  0  0  0
  -30.0969  -25.8036   23.9530 H   0  0  0  0  0  0
  -29.4395  -24.8347   26.1197 H   0  0  0  0  0  0
  -30.4511  -23.3384   25.7663 H   0  0  0  0  0  0
  -28.1209  -17.4370   23.1301 H   0  0  0  0  0  0
  -27.6495  -17.6431   21.4794 H   0  0  0  0  0  0
  -29.0946  -18.6270   19.7929 H   0  0  0  0  0  0
  -30.7584  -18.9947   20.1460 H   0  0  0  0  0  0
  -28.0218  -15.4135   21.6132 H   0  0  0  0  0  0
  -29.3531  -15.5050   22.7526 H   0  0  0  0  0  0
  -31.4577  -16.9153   19.8593 H   0  0  0  0  0  0
  -30.0167  -16.7273   18.9233 H   0  0  0  0  0  0
  -30.4829  -18.1327   22.4602 H   0  0  0  0  0  0
  -28.0121  -24.3399   24.0992 H   0  0  0  0  0  0
  -27.5885  -20.5905   25.9701 H   0  0  0  0  0  0
  -27.7115  -22.3342   25.9254 H   0  0  0  0  0  0
  -29.1169  -21.3662   26.3945 H   0  0  0  0  0  0
  -29.6026  -23.1767   20.1565 H   0  0  0  0  0  0
  -30.3592  -23.9830   21.4719 H   0  0  0  0  0  0
  -27.5518  -24.4037   21.9175 H   0  0  0  0  0  0
  -27.6897  -24.4059   20.2127 H   0  0  0  0  0  0
  -29.8383  -26.0948   21.2660 H   0  0  0  0  0  0
  -28.3699  -26.5204   22.0904 H   0  0  0  0  0  0
  1 25  1  0  0  0
  1 30  2  0  0  0
  1 89  1  0  0  0
  2  3  1  0  0  0
  2 25  1  0  0  0
  2 90  1  0  0  0
  2 91  1  0  0  0
  3  4  1  0  0  0
  3 92  1  0  0  0
  3 93  1  0  0  0
  4  5  1  0  0  0
  4 94  1  0  0  0
  4 95  1  0  0  0
  5  6  1  0  0  0
  5 26  1  0  0  0
  5 96  1  0  0  0
  6 25  1  0  0  0
  6 97  1  0  0  0
  6 98  1  0  0  0
  7  8  2  0  0  0
  7 26  1  0  0  0
  7 29  1  0  0  0
  8  9  1  0  0  0
  8 22  1  0  0  0
  9 10  1  0  0  0
  9 27  2  0  0  0
 10 11  2  0  0  0
 10 15  1  0  0  0
 11 12  1  0  0  0
 11 99  1  0  0  0
 12 13  2  0  0  0
 12100  1  0  0  0
 13 14  1  0  0  0
 13 31  1  0  0  0
 14 15  2  0  0  0
 14101  1  0  0  0
 15102  1  0  0  0
 16 17  2  0  0  0
 16 21  1  0  0  0
 16 31  1  0  0  0
 17 18  1  0  0  0
 17103  1  0  0  0
 18 19  2  0  0  0
 18104  1  0  0  0
 19 20  1  0  0  0
 19 24  1  0  0  0
 20 21  2  0  0  0
 20105  1  0  0  0
 21 23  1  0  0  0
 22 28  1  0  0  0
 22 32  2  0  0  0
 26 27  1  0  0  0
 28106  1  0  0  0
 28107  1  0  0  0
 29108  1  0  0  0
 29109  1  0  0  0
 33 34  1  0  0  0
 33 66  1  0  0  0
 33 70  2  0  0  0
 34 36  1  0  0  0
 34 59  1  0  0  0
 34110  1  0  0  0
 35 44  2  0  0  0
 35 45  1  0  0  0
 35 68  1  0  0  0
 36 56  1  0  0  0
 36111  1  0  0  0
 37 39  1  0  0  0
 37 47  1  0  0  0
 37 66  1  0  0  0
 37112  1  0  0  0
 38 43  2  0  0  0
 38 46  1  0  0  0
 38 47  1  0  0  0
 39 64  1  0  0  0
 39 67  2  0  0  0
 40 52  1  0  0  0
 40 53  2  0  0  0
 40 58  1  0  0  0
 41113  1  0  0  0
 41114  1  0  0  0
 41115  1  0  0  0
 41 48  1  0  0  0
 42 43  1  0  0  0
 42 66  1  0  0  0
 42116  1  0  0  0
 42117  1  0  0  0
 43 44  1  0  0  0
 44118  1  0  0  0
 45 46  2  0  0  0
 45119  1  0  0  0
 46120  1  0  0  0
 47121  1  0  0  0
 47122  1  0  0  0
 48 56  1  0  0  0
 48 65  1  0  0  0
 48123  1  0  0  0
 49 50  1  0  0  0
 49 53  1  0  0  0
 49 64  1  0  0  0
 49124  1  0  0  0
 50 51  1  0  0  0
 50125  1  0  0  0
 50126  1  0  0  0
 51 52  1  0  0  0
 51127  1  0  0  0
 51128  1  0  0  0
 52129  1  0  0  0
 52130  1  0  0  0
 53 54  1  0  0  0
 54 55  2  0  0  0
 54131  1  0  0  0
 55 57  1  0  0  0
 55132  1  0  0  0
 56 69  2  0  0  0
 57 58  2  0  0  0
 57133  1  0  0  0
 58134  1  0  0  0
 59 60  1  0  0  0
 59 61  1  0  0  0
 59 62  1  0  0  0
 60135  1  0  0  0
 60136  1  0  0  0
 60137  1  0  0  0
 61138  1  0  0  0
 61139  1  0  0  0
 61140  1  0  0  0
 62141  1  0  0  0
 62142  1  0  0  0
 62143  1  0  0  0
 63 65  1  0  0  0
 63144  1  0  0  0
 63145  1  0  0  0
 63146  1  0  0  0
 64147  1  0  0  0
 65148  1  0  0  0
 68 88  1  0  0  0
 71 73  2  0  0  0
 71 75  1  0  0  0
 71149  1  0  0  0
 72 73  1  0  0  0
 72 76  2  0  0  0
 72150  1  0  0  0
 73 83  1  0  0  0
 74 75  2  0  0  0
 74 76  1  0  0  0
 74 84  1  0  0  0
 75 85  1  0  0  0
 76 86  1  0  0  0
 77 78  1  0  0  0
 77 84  1  0  0  0
 77151  1  0  0  0
 77152  1  0  0  0
 78 84  1  0  0  0
 78153  1  0  0  0
 78154  1  0  0  0
 79 81  1  0  0  0
 79 83  1  0  0  0
 79155  1  0  0  0
 79156  1  0  0  0
 80 82  1  0  0  0
 80 83  1  0  0  0
 80157  1  0  0  0
 80158  1  0  0  0
 81 89  1  0  0  0
 81159  1  0  0  0
 81160  1  0  0  0
 82 89  1  0  0  0
 82161  1  0  0  0
 82162  1  0  0  0
 83163  1  0  0  0
 84164  1  0  0  0
 85165  1  0  0  0
 85166  1  0  0  0
 85167  1  0  0  0
 86 87  1  0  0  0
 86168  1  0  0  0
 86169  1  0  0  0
 87 88  1  0  0  0
 87170  1  0  0  0
 87171  1  0  0  0
 88172  1  0  0  0
 88173  1  0  0  0
M  ISO  4   1 100  68 101  88 101  89 100
M  END
> <chiral flag>
0

> <version>
0

> <s_m_source_file>
/data/baiqing/PycharmProjects/Reinvent-master-3.2/result/LINK_invent/BTK/process_docking_weight1_custom_sum_contain_oxygen_bond_distance_aromatic_linkinvent_7_9_3/rearranged_h_0153.sdf

> <i_m_source_file_index>
90

> <r_mmod_Potential_Energy-OPLS-2005>
272.391296386719

> <r_mmod_Stretch_Energy-OPLS-2005>
49.960636138916

> <r_mmod_Bend_Energy-OPLS-2005>
132.026229858398

> <r_mmod_Torsional_Energy-OPLS-2005>
394.884094238281

> <r_mmod_Improper_Torsional_Energy-OPLS-2005>
13.0439357757568

> <r_mmod_Van_der_Waal_Energy-OPLS-2005>
169.44709777832

> <r_mmod_Electrostatic_Energy-OPLS-2005>
-314.477722167969

> <r_mmod_Solvation_Energy-OPLS-2005>
-189.804580688477

> <b_mmod_Minimization_Converged-OPLS-2005>
0

> <r_mmod_RMS_Derivative-OPLS-2005>
3.73688435554504

$$$$
91
                    3D
 Structure written by MMmdl.
166174  0  0  1  0            999 V2000
  -30.6956  -14.6233   20.4941 C   0  0  0  0  0  0
  -30.4177  -12.3836   19.4654 C   0  0  0  0  0  0
  -29.5012  -12.4961   18.2297 C   0  0  0  0  0  0
  -28.0253  -12.3431   18.6429 C   0  0  0  0  0  0
  -27.6471  -13.2321   19.8579 C   0  0  2  0  0  0
  -28.6937  -13.1356   20.9915 C   0  0  0  0  0  0
  -25.2513  -13.8211   20.5711 C   0  0  0  0  0  0
  -24.1798  -13.0445   20.9200 C   0  0  0  0  0  0
  -24.6393  -11.6926   20.8746 C   0  0  0  0  0  0
  -23.9068  -10.4299   21.0403 C   0  0  0  0  0  0
  -24.3615   -9.4208   21.9174 C   0  0  0  0  0  0
  -23.6298   -8.2242   22.0732 C   0  0  0  0  0  0
  -22.4281   -8.0279   21.3530 C   0  0  0  0  0  0
  -21.9921   -9.0247   20.4624 C   0  0  0  0  0  0
  -22.7245  -10.2132   20.3043 C   0  0  0  0  0  0
  -21.6846   -6.0737   22.5273 C   0  0  0  0  0  0
  -21.4011   -6.5634   23.8211 C   0  0  0  0  0  0
  -21.3664   -5.6783   24.9173 C   0  0  0  0  0  0
  -21.6054   -4.3049   24.7223 C   0  0  0  0  0  0
  -21.8813   -3.8143   23.4342 C   0  0  0  0  0  0
  -21.9190   -4.6965   22.3401 C   0  0  0  0  0  0
  -22.7821  -13.5211   21.1897 C   0  0  0  0  0  0
  -22.1658   -4.2152   21.0979 F   0  0  0  0  0  0
  -21.5636   -3.4531   25.7737 F   0  0  0  0  0  0
  -30.0103  -13.4396   20.4145 N   0  0  0  0  0  0
  -26.2966  -12.9425   20.3339 N   0  0  0  0  0  0
  -25.9332  -11.6565   20.5773 N   0  0  0  0  0  0
  -22.0502  -12.8171   22.0460 N   0  0  0  0  0  0
  -25.4227  -15.1932   20.4117 N   0  0  0  0  0  0
  -31.8697  -14.7031   20.1324 O   0  0  0  0  0  0
  -21.6636   -6.8882   21.4236 O   0  0  0  0  0  0
  -22.3486  -14.5524   20.6765 O   0  0  0  0  0  0
  -24.6292  -31.8592   23.2058 C   0  0  0  0  0  0
  -25.9133  -32.4786   23.8383 C   0  0  1  0  0  0
  -27.2203  -27.2994   20.1129 C   0  0  0  0  0  0
  -25.5940  -33.8590   24.2269 N   0  0  0  0  0  0
  -23.4231  -30.4887   21.5475 C   0  0  2  0  0  0
  -24.8719  -28.9557   20.1094 C   0  0  0  0  0  0
  -22.7487  -29.4636   22.4913 C   0  0  0  0  0  0
  -18.0281  -28.1400   22.8484 C   0  0  0  0  0  0
  -24.1478  -36.7290   23.2642 C   0  0  0  0  0  0
  -25.9721  -30.7830   21.3881 C   0  0  0  0  0  0
  -26.0453  -29.4143   20.7205 C   0  0  0  0  0  0
  -27.2219  -28.5993   20.7171 C   0  0  0  0  0  0
  -26.0214  -26.9240   19.4529 C   0  0  0  0  0  0
  -24.8639  -27.7146   19.4666 C   0  0  0  0  0  0
  -23.6399  -29.8350   20.1604 C   0  0  0  0  0  0
  -25.4110  -36.3077   24.0320 C   0  0  1  0  0  0
  -20.5886  -28.3708   23.1257 C   0  0  2  0  0  0
  -20.6783  -26.9424   22.5391 C   0  0  0  0  0  0
  -19.5746  -26.6369   21.5212 C   0  0  0  0  0  0
  -18.1917  -26.7941   22.1615 C   0  0  0  0  0  0
  -19.1542  -28.8875   23.2856 C   0  0  0  0  0  0
  -18.9477  -30.1478   23.8869 C   0  0  0  0  0  0
  -17.6485  -30.6609   24.0563 C   0  0  0  0  0  0
  -25.9053  -34.9457   23.5084 C   0  0  0  0  0  0
  -16.5371  -29.9099   23.6360 C   0  0  0  0  0  0
  -16.7273  -28.6520   23.0376 C   0  0  0  0  0  0
  -26.4507  -31.6645   25.0784 C   0  0  0  0  0  0
  -25.3716  -31.3815   26.1500 C   0  0  0  0  0  0
  -27.0397  -30.3062   24.6309 C   0  0  0  0  0  0
  -27.6004  -32.4466   25.7566 C   0  0  0  0  0  0
  -27.5570  -37.1789   24.8454 C   0  0  0  0  0  0
  -21.4195  -29.3066   22.3663 N   0  0  0  0  0  0
  -26.4278  -37.3773   23.9420 N   0  0  0  0  0  0
  -24.6933  -31.0601   22.1029 N   0  0  0  0  0  0
  -23.4205  -28.8145   23.2979 O   0  0  0  0  0  0
  -28.2991  -26.3863   20.1959 O   0  0  0  0  0  0
  -26.5597  -34.8922   22.4638 O   0  0  0  0  0  0
  -23.5446  -32.1417   23.7360 O   0  0  0  0  0  0
  -28.9719  -22.7168   19.1834 C   0  0  0  0  0  0
  -28.8137  -23.6837   20.2138 C   0  0  0  0  0  0
  -29.4655  -21.4002   19.4037 C   0  0  0  0  0  0
  -29.2298  -23.2678   21.5155 C   0  0  0  0  0  0
  -29.7817  -21.9500   21.7362 C   0  0  0  0  0  0
  -29.8372  -20.9634   20.7012 C   0  0  0  0  0  0
  -29.6396  -20.4878   18.2030 C   0  0  0  0  0  0
  -29.0540  -24.2263   22.6872 C   0  0  0  0  0  0
  -30.1383  -20.3068   25.2851 C   0  0  0  0  0  0
  -30.3821  -21.5771   23.0928 C   0  0  0  0  0  0
  -27.9572  -24.9700   19.8783 C   0  0  0  0  0  0
  -29.4421  -20.7617   23.9944 C   0  0  0  0  0  0
  -30.6052  -17.1580   20.7192 C   0  0  0  0  0  0
  -29.6589  -18.4357   20.7667 C   0  0  0  0  0  0
  -30.0104  -15.7716   20.7803 N   0  0  0  0  0  0
  -30.4002  -19.6921   20.9434 O   0  0  0  0  0  0
  -31.4641  -12.4658   19.1670 H   0  0  0  0  0  0
  -30.3169  -11.4023   19.9318 H   0  0  0  0  0  0
  -29.7639  -11.7348   17.4941 H   0  0  0  0  0  0
  -29.6502  -13.4606   17.7420 H   0  0  0  0  0  0
  -27.8617  -11.2938   18.8903 H   0  0  0  0  0  0
  -27.3704  -12.5596   17.7984 H   0  0  0  0  0  0
  -27.6534  -14.2604   19.4964 H   0  0  0  0  0  0
  -28.6972  -12.1371   21.4298 H   0  0  0  0  0  0
  -28.4501  -13.8232   21.8031 H   0  0  0  0  0  0
  -25.2758   -9.5679   22.4744 H   0  0  0  0  0  0
  -24.0011   -7.4628   22.7438 H   0  0  0  0  0  0
  -21.0861   -8.8761   19.8924 H   0  0  0  0  0  0
  -22.3705  -10.9664   19.6151 H   0  0  0  0  0  0
  -21.1990   -7.6135   23.9717 H   0  0  0  0  0  0
  -21.1501   -6.0511   25.9078 H   0  0  0  0  0  0
  -22.0590   -2.7608   23.2839 H   0  0  0  0  0  0
  -22.4151  -11.9818   22.4799 H   0  0  0  0  0  0
  -21.1128  -13.1160   22.2733 H   0  0  0  0  0  0
  -24.6556  -15.8503   20.5056 H   0  0  0  0  0  0
  -26.2759  -15.6282   20.0838 H   0  0  0  0  0  0
  -26.7213  -32.5453   23.1139 H   0  0  0  0  0  0
  -25.0185  -33.9759   25.0482 H   0  0  0  0  0  0
  -22.7179  -31.3109   21.4054 H   0  0  0  0  0  0
  -23.3747  -35.9613   23.3299 H   0  0  0  0  0  0
  -24.3560  -36.8929   22.2055 H   0  0  0  0  0  0
  -23.7241  -37.6486   23.6698 H   0  0  0  0  0  0
  -26.1193  -31.5514   20.6287 H   0  0  0  0  0  0
  -26.8450  -30.8190   22.0287 H   0  0  0  0  0  0
  -28.1149  -28.9427   21.2207 H   0  0  0  0  0  0
  -25.9170  -25.9914   18.9234 H   0  0  0  0  0  0
  -23.9698  -27.3564   18.9756 H   0  0  0  0  0  0
  -23.7619  -30.6162   19.4091 H   0  0  0  0  0  0
  -22.7614  -29.2656   19.8516 H   0  0  0  0  0  0
  -25.1293  -36.1905   25.0811 H   0  0  0  0  0  0
  -20.9968  -28.3284   24.1384 H   0  0  0  0  0  0
  -20.5712  -26.2310   23.3593 H   0  0  0  0  0  0
  -21.6643  -26.7459   22.1166 H   0  0  0  0  0  0
  -19.6906  -25.6261   21.1286 H   0  0  0  0  0  0
  -19.6701  -27.3140   20.6713 H   0  0  0  0  0  0
  -17.4186  -26.6710   21.4004 H   0  0  0  0  0  0
  -18.0296  -26.0078   22.9002 H   0  0  0  0  0  0
  -19.7960  -30.7296   24.2211 H   0  0  0  0  0  0
  -17.5050  -31.6299   24.5150 H   0  0  0  0  0  0
  -15.5376  -30.3005   23.7718 H   0  0  0  0  0  0
  -15.8657  -28.0842   22.7121 H   0  0  0  0  0  0
  -24.5842  -30.7228   25.7830 H   0  0  0  0  0  0
  -24.8980  -32.3009   26.4957 H   0  0  0  0  0  0
  -25.8012  -30.8955   27.0265 H   0  0  0  0  0  0
  -26.3026  -29.6791   24.1287 H   0  0  0  0  0  0
  -27.4023  -29.7365   25.4878 H   0  0  0  0  0  0
  -27.8904  -30.4350   23.9611 H   0  0  0  0  0  0
  -27.2533  -33.3766   26.2097 H   0  0  0  0  0  0
  -28.3820  -32.7077   25.0419 H   0  0  0  0  0  0
  -28.0667  -31.8668   26.5543 H   0  0  0  0  0  0
  -28.2547  -38.0120   24.7556 H   0  0  0  0  0  0
  -28.1108  -36.2662   24.6219 H   0  0  0  0  0  0
  -27.2289  -37.1347   25.8849 H   0  0  0  0  0  0
  -20.9382  -29.8840   21.6908 H   0  0  0  0  0  0
  -26.0144  -38.2829   24.1474 H   0  0  0  0  0  0
  -28.6658  -22.9766   18.1794 H   0  0  0  0  0  0
  -29.9178  -21.0619   17.3191 H   0  0  0  0  0  0
  -28.7145  -19.9545   17.9849 H   0  0  0  0  0  0
  -30.4305  -19.7567   18.3719 H   0  0  0  0  0  0
  -28.3414  -25.0213   22.4735 H   0  0  0  0  0  0
  -30.0039  -24.6927   22.9488 H   0  0  0  0  0  0
  -28.6755  -23.7041   23.5657 H   0  0  0  0  0  0
  -29.4585  -19.7372   25.9189 H   0  0  0  0  0  0
  -30.5008  -21.1570   25.8651 H   0  0  0  0  0  0
  -30.9954  -19.6692   25.0651 H   0  0  0  0  0  0
  -30.7287  -22.4675   23.6181 H   0  0  0  0  0  0
  -31.2916  -21.0029   22.9122 H   0  0  0  0  0  0
  -27.0048  -24.7348   20.3564 H   0  0  0  0  0  0
  -27.7881  -24.9401   18.8010 H   0  0  0  0  0  0
  -28.5559  -21.3479   24.2367 H   0  0  0  0  0  0
  -29.0888  -19.8806   23.4582 H   0  0  0  0  0  0
  -31.3175  -17.2327   21.5411 H   0  0  0  0  0  0
  -31.2053  -17.2335   19.8106 H   0  0  0  0  0  0
  -28.9701  -18.3344   21.6053 H   0  0  0  0  0  0
  -29.0407  -18.4667   19.8703 H   0  0  0  0  0  0
  -29.0343  -15.6867   21.0206 H   0  0  0  0  0  0
  1 25  1  0  0  0
  1 30  2  0  0  0
  1 85  1  0  0  0
  2  3  1  0  0  0
  2 25  1  0  0  0
  2 87  1  0  0  0
  2 88  1  0  0  0
  3  4  1  0  0  0
  3 89  1  0  0  0
  3 90  1  0  0  0
  4  5  1  0  0  0
  4 91  1  0  0  0
  4 92  1  0  0  0
  5  6  1  0  0  0
  5 26  1  0  0  0
  5 93  1  0  0  0
  6 25  1  0  0  0
  6 94  1  0  0  0
  6 95  1  0  0  0
  7  8  2  0  0  0
  7 26  1  0  0  0
  7 29  1  0  0  0
  8  9  1  0  0  0
  8 22  1  0  0  0
  9 10  1  0  0  0
  9 27  2  0  0  0
 10 11  2  0  0  0
 10 15  1  0  0  0
 11 12  1  0  0  0
 11 96  1  0  0  0
 12 13  2  0  0  0
 12 97  1  0  0  0
 13 14  1  0  0  0
 13 31  1  0  0  0
 14 15  2  0  0  0
 14 98  1  0  0  0
 15 99  1  0  0  0
 16 17  2  0  0  0
 16 21  1  0  0  0
 16 31  1  0  0  0
 17 18  1  0  0  0
 17100  1  0  0  0
 18 19  2  0  0  0
 18101  1  0  0  0
 19 20  1  0  0  0
 19 24  1  0  0  0
 20 21  2  0  0  0
 20102  1  0  0  0
 21 23  1  0  0  0
 22 28  1  0  0  0
 22 32  2  0  0  0
 26 27  1  0  0  0
 28103  1  0  0  0
 28104  1  0  0  0
 29105  1  0  0  0
 29106  1  0  0  0
 33 34  1  0  0  0
 33 66  1  0  0  0
 33 70  2  0  0  0
 34 36  1  0  0  0
 34 59  1  0  0  0
 34107  1  0  0  0
 35 44  2  0  0  0
 35 45  1  0  0  0
 35 68  1  0  0  0
 36 56  1  0  0  0
 36108  1  0  0  0
 37 39  1  0  0  0
 37 47  1  0  0  0
 37 66  1  0  0  0
 37109  1  0  0  0
 38 43  2  0  0  0
 38 46  1  0  0  0
 38 47  1  0  0  0
 39 64  1  0  0  0
 39 67  2  0  0  0
 40 52  1  0  0  0
 40 53  2  0  0  0
 40 58  1  0  0  0
 41110  1  0  0  0
 41111  1  0  0  0
 41112  1  0  0  0
 41 48  1  0  0  0
 42 43  1  0  0  0
 42 66  1  0  0  0
 42113  1  0  0  0
 42114  1  0  0  0
 43 44  1  0  0  0
 44115  1  0  0  0
 45 46  2  0  0  0
 45116  1  0  0  0
 46117  1  0  0  0
 47118  1  0  0  0
 47119  1  0  0  0
 48 56  1  0  0  0
 48 65  1  0  0  0
 48120  1  0  0  0
 49 50  1  0  0  0
 49 53  1  0  0  0
 49 64  1  0  0  0
 49121  1  0  0  0
 50 51  1  0  0  0
 50122  1  0  0  0
 50123  1  0  0  0
 51 52  1  0  0  0
 51124  1  0  0  0
 51125  1  0  0  0
 52126  1  0  0  0
 52127  1  0  0  0
 53 54  1  0  0  0
 54 55  2  0  0  0
 54128  1  0  0  0
 55 57  1  0  0  0
 55129  1  0  0  0
 56 69  2  0  0  0
 57 58  2  0  0  0
 57130  1  0  0  0
 58131  1  0  0  0
 59 60  1  0  0  0
 59 61  1  0  0  0
 59 62  1  0  0  0
 60132  1  0  0  0
 60133  1  0  0  0
 60134  1  0  0  0
 61135  1  0  0  0
 61136  1  0  0  0
 61137  1  0  0  0
 62138  1  0  0  0
 62139  1  0  0  0
 62140  1  0  0  0
 63 65  1  0  0  0
 63141  1  0  0  0
 63142  1  0  0  0
 63143  1  0  0  0
 64144  1  0  0  0
 65145  1  0  0  0
 68 81  1  0  0  0
 71 72  2  0  0  0
 71 73  1  0  0  0
 71146  1  0  0  0
 72 74  1  0  0  0
 72 81  1  0  0  0
 73 76  2  0  0  0
 73 77  1  0  0  0
 74 75  2  0  0  0
 74 78  1  0  0  0
 75 76  1  0  0  0
 75 80  1  0  0  0
 76 86  1  0  0  0
 77147  1  0  0  0
 77148  1  0  0  0
 77149  1  0  0  0
 78150  1  0  0  0
 78151  1  0  0  0
 78152  1  0  0  0
 79 82  1  0  0  0
 79153  1  0  0  0
 79154  1  0  0  0
 79155  1  0  0  0
 80 82  1  0  0  0
 80156  1  0  0  0
 80157  1  0  0  0
 81158  1  0  0  0
 81159  1  0  0  0
 82160  1  0  0  0
 82161  1  0  0  0
 83 84  1  0  0  0
 83 85  1  0  0  0
 83162  1  0  0  0
 83163  1  0  0  0
 84 86  1  0  0  0
 84164  1  0  0  0
 84165  1  0  0  0
 85166  1  0  0  0
M  ISO  4   1 100  68 101  81 101  85 100
M  END
> <chiral flag>
0

> <version>
0

> <s_m_source_file>
/data/baiqing/PycharmProjects/Reinvent-master-3.2/result/LINK_invent/BTK/process_docking_weight1_custom_sum_contain_oxygen_bond_distance_aromatic_linkinvent_7_9_3/rearranged_h_0153.sdf

> <i_m_source_file_index>
91

> <r_mmod_Potential_Energy-OPLS-2005>
83.9524078369141

> <r_mmod_Stretch_Energy-OPLS-2005>
87.7104873657227

> <r_mmod_Bend_Energy-OPLS-2005>
158.606292724609

> <r_mmod_Torsional_Energy-OPLS-2005>
239.672393798828

> <r_mmod_Improper_Torsional_Energy-OPLS-2005>
7.01099109649658

> <r_mmod_Van_der_Waal_Energy-OPLS-2005>
155.288177490234

> <r_mmod_Electrostatic_Energy-OPLS-2005>
-415.502716064453

> <r_mmod_Solvation_Energy-OPLS-2005>
-207.525573730469

> <b_mmod_Minimization_Converged-OPLS-2005>
0

> <r_mmod_RMS_Derivative-OPLS-2005>
2.09823608398438

$$$$
92
                    3D
 Structure written by MMmdl.
170179  0  0  1  0            999 V2000
  -30.7213  -14.4641   20.5527 C   0  0  0  0  0  0
  -30.4120  -12.2906   19.4425 C   0  0  0  0  0  0
  -29.4985  -12.4817   18.2154 C   0  0  0  0  0  0
  -28.0188  -12.3493   18.6241 C   0  0  0  0  0  0
  -27.6568  -13.2095   19.8660 C   0  0  2  0  0  0
  -28.6942  -13.0276   20.9957 C   0  0  0  0  0  0
  -25.2584  -13.8170   20.5683 C   0  0  0  0  0  0
  -24.1836  -13.0457   20.9184 C   0  0  0  0  0  0
  -24.6381  -11.6917   20.8736 C   0  0  0  0  0  0
  -23.9043  -10.4305   21.0402 C   0  0  0  0  0  0
  -24.3601   -9.4222   21.9181 C   0  0  0  0  0  0
  -23.6282   -8.2253   22.0756 C   0  0  0  0  0  0
  -22.4265   -8.0285   21.3544 C   0  0  0  0  0  0
  -21.9898   -9.0254   20.4641 C   0  0  0  0  0  0
  -22.7219  -10.2135   20.3048 C   0  0  0  0  0  0
  -21.6853   -6.0737   22.5280 C   0  0  0  0  0  0
  -21.4012   -6.5643   23.8217 C   0  0  0  0  0  0
  -21.3655   -5.6795   24.9181 C   0  0  0  0  0  0
  -21.6048   -4.3056   24.7233 C   0  0  0  0  0  0
  -21.8815   -3.8148   23.4354 C   0  0  0  0  0  0
  -21.9194   -4.6965   22.3407 C   0  0  0  0  0  0
  -22.7856  -13.5258   21.1839 C   0  0  0  0  0  0
  -22.1661   -4.2152   21.0983 F   0  0  0  0  0  0
  -21.5627   -3.4538   25.7745 F   0  0  0  0  0  0
  -30.0237  -13.3029   20.4361 N   0  0  0  0  0  0
  -26.3003  -12.9342   20.3319 N   0  0  0  0  0  0
  -25.9306  -11.6503   20.5747 N   0  0  0  0  0  0
  -22.0482  -12.8257   22.0386 N   0  0  0  0  0  0
  -25.4331  -15.1886   20.4093 N   0  0  0  0  0  0
  -31.8843  -14.5742   20.1487 O   0  0  0  0  0  0
  -21.6632   -6.8879   21.4242 O   0  0  0  0  0  0
  -22.3547  -14.5572   20.6691 O   0  0  0  0  0  0
  -24.6140  -31.8662   23.2112 C   0  0  0  0  0  0
  -25.9040  -32.4816   23.8407 C   0  0  1  0  0  0
  -27.2379  -27.4452   20.0992 C   0  0  0  0  0  0
  -25.5882  -33.8609   24.2333 N   0  0  0  0  0  0
  -23.4029  -30.4871   21.5507 C   0  0  2  0  0  0
  -24.8515  -28.9504   20.1202 C   0  0  0  0  0  0
  -22.7408  -29.4620   22.4986 C   0  0  0  0  0  0
  -18.0254  -28.1360   22.8470 C   0  0  0  0  0  0
  -24.1490  -36.7330   23.2640 C   0  0  0  0  0  0
  -25.9285  -30.8332   21.3662 C   0  0  0  0  0  0
  -26.0094  -29.4662   20.7174 C   0  0  0  0  0  0
  -27.2073  -28.7181   20.7099 C   0  0  0  0  0  0
  -26.0700  -26.9370   19.4975 C   0  0  0  0  0  0
  -24.8749  -27.6823   19.5103 C   0  0  0  0  0  0
  -23.6138  -29.8166   20.1663 C   0  0  0  0  0  0
  -25.4107  -36.3114   24.0334 C   0  0  1  0  0  0
  -20.5840  -28.3647   23.1302 C   0  0  2  0  0  0
  -20.6748  -26.9382   22.5408 C   0  0  0  0  0  0
  -19.5742  -26.6365   21.5195 C   0  0  0  0  0  0
  -18.1910  -26.7904   22.1596 C   0  0  0  0  0  0
  -19.1507  -28.8821   23.2879 C   0  0  0  0  0  0
  -18.9443  -30.1424   23.8889 C   0  0  0  0  0  0
  -17.6448  -30.6577   24.0552 C   0  0  0  0  0  0
  -25.9019  -34.9469   23.5138 C   0  0  0  0  0  0
  -16.5334  -29.9072   23.6319 C   0  0  0  0  0  0
  -16.7246  -28.6495   23.0328 C   0  0  0  0  0  0
  -26.4474  -31.6592   25.0732 C   0  0  0  0  0  0
  -25.3755  -31.3687   26.1493 C   0  0  0  0  0  0
  -27.0311  -30.3039   24.6100 C   0  0  0  0  0  0
  -27.6040  -32.4329   25.7488 C   0  0  0  0  0  0
  -27.5592  -37.1815   24.8454 C   0  0  0  0  0  0
  -21.4133  -29.3010   22.3726 N   0  0  0  0  0  0
  -26.4293  -37.3784   23.9412 N   0  0  0  0  0  0
  -24.6659  -31.0771   22.1014 N   0  0  0  0  0  0
  -23.4172  -28.8148   23.3018 O   0  0  0  0  0  0
  -28.3935  -26.7059   20.0573 O   0  0  0  0  0  0
  -26.5583  -34.8913   22.4700 O   0  0  0  0  0  0
  -23.5329  -32.1414   23.7511 O   0  0  0  0  0  0
  -27.0493  -21.3052   21.7556 C   0  0  0  0  0  0
  -28.3199  -21.9510   21.7750 C   0  0  0  0  0  0
  -27.2594  -19.9611   21.5780 C   0  0  0  0  0  0
  -29.2653  -20.9787   21.5671 C   0  0  0  0  0  0
  -29.1605  -17.8249   19.8980 C   0  0  0  0  0  0
  -29.0464  -17.3458   22.3398 C   0  0  0  0  0  0
  -30.0980  -16.6150   19.7188 C   0  0  0  0  0  0
  -30.0084  -16.1447   22.1481 C   0  0  0  0  0  0
  -29.3373  -18.4377   21.2938 C   0  0  0  0  0  0
  -25.7021  -21.9731   21.9182 C   0  0  0  0  0  0
  -26.2204  -18.8816   21.5221 C   0  0  0  0  0  0
  -30.7551  -21.1405   21.4685 C   0  0  0  0  0  0
  -28.5747  -23.4316   22.0293 C   0  0  0  0  0  0
  -28.3174  -24.3615   20.8236 C   0  0  0  0  0  0
  -28.5860  -25.8401   21.1774 C   0  0  0  0  0  0
  -28.6343  -19.7313   21.4798 N   0  0  0  0  0  0
  -29.9875  -15.5857   20.7805 N   0  0  0  0  0  0
  -31.4615  -12.3606   19.1520 H   0  0  0  0  0  0
  -30.2880  -11.2913   19.8630 H   0  0  0  0  0  0
  -29.7424  -11.7439   17.4503 H   0  0  0  0  0  0
  -29.6743  -13.4602   17.7670 H   0  0  0  0  0  0
  -27.8340  -11.2957   18.8390 H   0  0  0  0  0  0
  -27.3709  -12.6035   17.7847 H   0  0  0  0  0  0
  -27.6924  -14.2511   19.5474 H   0  0  0  0  0  0
  -28.6629  -12.0100   21.3856 H   0  0  0  0  0  0
  -28.4600  -13.6792   21.8379 H   0  0  0  0  0  0
  -25.2748   -9.5714   22.4752 H   0  0  0  0  0  0
  -23.9999   -7.4653   22.7483 H   0  0  0  0  0  0
  -21.0831   -8.8773   19.8942 H   0  0  0  0  0  0
  -22.3681  -10.9677   19.6153 H   0  0  0  0  0  0
  -21.1996   -7.6151   23.9729 H   0  0  0  0  0  0
  -21.1477   -6.0519   25.9087 H   0  0  0  0  0  0
  -22.0594   -2.7612   23.2854 H   0  0  0  0  0  0
  -22.4073  -11.9916   22.4798 H   0  0  0  0  0  0
  -21.1093  -13.1285   22.2546 H   0  0  0  0  0  0
  -24.6694  -15.8475   20.5144 H   0  0  0  0  0  0
  -26.2950  -15.6192   20.1008 H   0  0  0  0  0  0
  -26.7112  -32.5525   23.1179 H   0  0  0  0  0  0
  -25.0017  -33.9746   25.0477 H   0  0  0  0  0  0
  -22.6912  -31.3039   21.4110 H   0  0  0  0  0  0
  -23.3734  -35.9689   23.3293 H   0  0  0  0  0  0
  -24.3579  -36.8957   22.2059 H   0  0  0  0  0  0
  -23.7264  -37.6533   23.6660 H   0  0  0  0  0  0
  -26.0335  -31.5991   20.5956 H   0  0  0  0  0  0
  -26.8166  -30.8902   21.9839 H   0  0  0  0  0  0
  -28.1056  -29.1121   21.1663 H   0  0  0  0  0  0
  -26.0889  -25.9674   19.0196 H   0  0  0  0  0  0
  -23.9844  -27.2781   19.0491 H   0  0  0  0  0  0
  -23.7262  -30.5893   19.4042 H   0  0  0  0  0  0
  -22.7402  -29.2343   19.8696 H   0  0  0  0  0  0
  -25.1285  -36.1981   25.0824 H   0  0  0  0  0  0
  -20.9909  -28.3222   24.1432 H   0  0  0  0  0  0
  -20.5647  -26.2250   23.3594 H   0  0  0  0  0  0
  -21.6627  -26.7433   22.1217 H   0  0  0  0  0  0
  -19.6922  -25.6286   21.1209 H   0  0  0  0  0  0
  -19.6695  -27.3189   20.6743 H   0  0  0  0  0  0
  -17.4186  -26.6615   21.3995 H   0  0  0  0  0  0
  -18.0326  -26.0046   22.8991 H   0  0  0  0  0  0
  -19.7934  -30.7207   24.2274 H   0  0  0  0  0  0
  -17.5021  -31.6262   24.5154 H   0  0  0  0  0  0
  -15.5342  -30.2979   23.7671 H   0  0  0  0  0  0
  -15.8632  -28.0835   22.7043 H   0  0  0  0  0  0
  -24.5909  -30.7046   25.7842 H   0  0  0  0  0  0
  -24.8967  -32.2834   26.4989 H   0  0  0  0  0  0
  -25.8129  -30.8824   27.0219 H   0  0  0  0  0  0
  -26.2843  -29.6779   24.1190 H   0  0  0  0  0  0
  -27.4105  -29.7294   25.4554 H   0  0  0  0  0  0
  -27.8672  -30.4346   23.9228 H   0  0  0  0  0  0
  -27.2629  -33.3612   26.2083 H   0  0  0  0  0  0
  -28.3828  -32.6921   25.0304 H   0  0  0  0  0  0
  -28.0722  -31.8448   26.5380 H   0  0  0  0  0  0
  -28.2581  -38.0137   24.7502 H   0  0  0  0  0  0
  -28.1097  -36.2652   24.6264 H   0  0  0  0  0  0
  -27.2279  -37.1444   25.8844 H   0  0  0  0  0  0
  -20.9309  -29.8761   21.6975 H   0  0  0  0  0  0
  -26.0186  -38.2859   24.1431 H   0  0  0  0  0  0
  -28.1378  -17.4991   19.7280 H   0  0  0  0  0  0
  -29.3719  -18.5726   19.1332 H   0  0  0  0  0  0
  -29.1629  -17.7510   23.3461 H   0  0  0  0  0  0
  -28.0188  -16.9945   22.2623 H   0  0  0  0  0  0
  -31.1280  -16.9757   19.6700 H   0  0  0  0  0  0
  -29.8909  -16.1547   18.7505 H   0  0  0  0  0  0
  -29.7725  -15.3698   22.8793 H   0  0  0  0  0  0
  -31.0272  -16.4674   22.3763 H   0  0  0  0  0  0
  -30.4002  -18.6396   21.4033 H   0  0  0  0  0  0
  -25.7968  -23.0236   22.1856 H   0  0  0  0  0  0
  -25.1218  -21.4841   22.7021 H   0  0  0  0  0  0
  -25.1368  -21.9166   20.9868 H   0  0  0  0  0  0
  -25.2416  -19.2958   21.2812 H   0  0  0  0  0  0
  -26.1299  -18.3755   22.4828 H   0  0  0  0  0  0
  -26.4269  -18.1365   20.7608 H   0  0  0  0  0  0
  -31.0331  -22.1831   21.3142 H   0  0  0  0  0  0
  -31.1644  -20.5874   20.6231 H   0  0  0  0  0  0
  -31.2466  -20.8011   22.3811 H   0  0  0  0  0  0
  -29.5996  -23.5677   22.3733 H   0  0  0  0  0  0
  -27.9525  -23.7449   22.8687 H   0  0  0  0  0  0
  -27.2879  -24.2490   20.4836 H   0  0  0  0  0  0
  -28.9544  -24.0671   19.9897 H   0  0  0  0  0  0
  -29.6200  -25.9537   21.5069 H   0  0  0  0  0  0
  -27.9646  -26.1361   22.0256 H   0  0  0  0  0  0
  1 25  1  0  0  0
  1 30  2  0  0  0
  1 87  1  0  0  0
  2  3  1  0  0  0
  2 25  1  0  0  0
  2 88  1  0  0  0
  2 89  1  0  0  0
  3  4  1  0  0  0
  3 90  1  0  0  0
  3 91  1  0  0  0
  4  5  1  0  0  0
  4 92  1  0  0  0
  4 93  1  0  0  0
  5  6  1  0  0  0
  5 26  1  0  0  0
  5 94  1  0  0  0
  6 25  1  0  0  0
  6 95  1  0  0  0
  6 96  1  0  0  0
  7  8  2  0  0  0
  7 26  1  0  0  0
  7 29  1  0  0  0
  8  9  1  0  0  0
  8 22  1  0  0  0
  9 10  1  0  0  0
  9 27  2  0  0  0
 10 11  2  0  0  0
 10 15  1  0  0  0
 11 12  1  0  0  0
 11 97  1  0  0  0
 12 13  2  0  0  0
 12 98  1  0  0  0
 13 14  1  0  0  0
 13 31  1  0  0  0
 14 15  2  0  0  0
 14 99  1  0  0  0
 15100  1  0  0  0
 16 17  2  0  0  0
 16 21  1  0  0  0
 16 31  1  0  0  0
 17 18  1  0  0  0
 17101  1  0  0  0
 18 19  2  0  0  0
 18102  1  0  0  0
 19 20  1  0  0  0
 19 24  1  0  0  0
 20 21  2  0  0  0
 20103  1  0  0  0
 21 23  1  0  0  0
 22 28  1  0  0  0
 22 32  2  0  0  0
 26 27  1  0  0  0
 28104  1  0  0  0
 28105  1  0  0  0
 29106  1  0  0  0
 29107  1  0  0  0
 33 34  1  0  0  0
 33 66  1  0  0  0
 33 70  2  0  0  0
 34 36  1  0  0  0
 34 59  1  0  0  0
 34108  1  0  0  0
 35 44  2  0  0  0
 35 45  1  0  0  0
 35 68  1  0  0  0
 36 56  1  0  0  0
 36109  1  0  0  0
 37 39  1  0  0  0
 37 47  1  0  0  0
 37 66  1  0  0  0
 37110  1  0  0  0
 38 43  2  0  0  0
 38 46  1  0  0  0
 38 47  1  0  0  0
 39 64  1  0  0  0
 39 67  2  0  0  0
 40 52  1  0  0  0
 40 53  2  0  0  0
 40 58  1  0  0  0
 41111  1  0  0  0
 41112  1  0  0  0
 41113  1  0  0  0
 41 48  1  0  0  0
 42 43  1  0  0  0
 42 66  1  0  0  0
 42114  1  0  0  0
 42115  1  0  0  0
 43 44  1  0  0  0
 44116  1  0  0  0
 45 46  2  0  0  0
 45117  1  0  0  0
 46118  1  0  0  0
 47119  1  0  0  0
 47120  1  0  0  0
 48 56  1  0  0  0
 48 65  1  0  0  0
 48121  1  0  0  0
 49 50  1  0  0  0
 49 53  1  0  0  0
 49 64  1  0  0  0
 49122  1  0  0  0
 50 51  1  0  0  0
 50123  1  0  0  0
 50124  1  0  0  0
 51 52  1  0  0  0
 51125  1  0  0  0
 51126  1  0  0  0
 52127  1  0  0  0
 52128  1  0  0  0
 53 54  1  0  0  0
 54 55  2  0  0  0
 54129  1  0  0  0
 55 57  1  0  0  0
 55130  1  0  0  0
 56 69  2  0  0  0
 57 58  2  0  0  0
 57131  1  0  0  0
 58132  1  0  0  0
 59 60  1  0  0  0
 59 61  1  0  0  0
 59 62  1  0  0  0
 60133  1  0  0  0
 60134  1  0  0  0
 60135  1  0  0  0
 61136  1  0  0  0
 61137  1  0  0  0
 61138  1  0  0  0
 62139  1  0  0  0
 62140  1  0  0  0
 62141  1  0  0  0
 63 65  1  0  0  0
 63142  1  0  0  0
 63143  1  0  0  0
 63144  1  0  0  0
 64145  1  0  0  0
 65146  1  0  0  0
 68 85  1  0  0  0
 71 72  1  0  0  0
 71 73  2  0  0  0
 71 80  1  0  0  0
 72 74  2  0  0  0
 72 83  1  0  0  0
 73 81  1  0  0  0
 73 86  1  0  0  0
 74 82  1  0  0  0
 74 86  1  0  0  0
 75 77  1  0  0  0
 75 79  1  0  0  0
 75147  1  0  0  0
 75148  1  0  0  0
 76 78  1  0  0  0
 76 79  1  0  0  0
 76149  1  0  0  0
 76150  1  0  0  0
 77 87  1  0  0  0
 77151  1  0  0  0
 77152  1  0  0  0
 78 87  1  0  0  0
 78153  1  0  0  0
 78154  1  0  0  0
 79 86  1  0  0  0
 79155  1  0  0  0
 80156  1  0  0  0
 80157  1  0  0  0
 80158  1  0  0  0
 81159  1  0  0  0
 81160  1  0  0  0
 81161  1  0  0  0
 82162  1  0  0  0
 82163  1  0  0  0
 82164  1  0  0  0
 83 84  1  0  0  0
 83165  1  0  0  0
 83166  1  0  0  0
 84 85  1  0  0  0
 84167  1  0  0  0
 84168  1  0  0  0
 85169  1  0  0  0
 85170  1  0  0  0
M  ISO  4   1 100  68 101  85 101  87 100
M  END
> <chiral flag>
0

> <version>
0

> <s_m_source_file>
/data/baiqing/PycharmProjects/Reinvent-master-3.2/result/LINK_invent/BTK/process_docking_weight1_custom_sum_contain_oxygen_bond_distance_aromatic_linkinvent_7_9_3/rearranged_h_0153.sdf

> <i_m_source_file_index>
92

> <r_mmod_Potential_Energy-OPLS-2005>
136.951400756836

> <r_mmod_Stretch_Energy-OPLS-2005>
38.9503211975098

> <r_mmod_Bend_Energy-OPLS-2005>
112.942916870117

> <r_mmod_Torsional_Energy-OPLS-2005>
366.795562744141

> <r_mmod_Improper_Torsional_Energy-OPLS-2005>
13.5816850662231

> <r_mmod_Van_der_Waal_Energy-OPLS-2005>
123.966079711914

> <r_mmod_Electrostatic_Energy-OPLS-2005>
-341.697906494141

> <r_mmod_Solvation_Energy-OPLS-2005>
-192.376770019531

> <b_mmod_Minimization_Converged-OPLS-2005>
0

> <r_mmod_RMS_Derivative-OPLS-2005>
2.39495134353638

$$$$
93
                    3D
 Structure written by MMmdl.
166174  0  0  1  0            999 V2000
  -30.7174  -14.3888   20.6651 C   0  0  0  0  0  0
  -30.4303  -12.2971   19.3854 C   0  0  0  0  0  0
  -29.4845  -12.5328   18.1911 C   0  0  0  0  0  0
  -28.0073  -12.3906   18.6071 C   0  0  0  0  0  0
  -27.6710  -13.1943   19.8900 C   0  0  2  0  0  0
  -28.7096  -12.9016   20.9935 C   0  0  0  0  0  0
  -25.2636  -13.8151   20.5685 C   0  0  0  0  0  0
  -24.1865  -13.0452   20.9170 C   0  0  0  0  0  0
  -24.6393  -11.6912   20.8725 C   0  0  0  0  0  0
  -23.9048  -10.4310   21.0407 C   0  0  0  0  0  0
  -24.3607   -9.4212   21.9180 C   0  0  0  0  0  0
  -23.6285   -8.2244   22.0739 C   0  0  0  0  0  0
  -22.4265   -8.0292   21.3535 C   0  0  0  0  0  0
  -21.9899   -9.0269   20.4635 C   0  0  0  0  0  0
  -22.7223  -10.2151   20.3045 C   0  0  0  0  0  0
  -21.6855   -6.0738   22.5277 C   0  0  0  0  0  0
  -21.4026   -6.5641   23.8215 C   0  0  0  0  0  0
  -21.3662   -5.6791   24.9173 C   0  0  0  0  0  0
  -21.6050   -4.3054   24.7226 C   0  0  0  0  0  0
  -21.8830   -3.8150   23.4346 C   0  0  0  0  0  0
  -21.9202   -4.6969   22.3400 C   0  0  0  0  0  0
  -22.7891  -13.5250   21.1844 C   0  0  0  0  0  0
  -22.1664   -4.2152   21.0978 F   0  0  0  0  0  0
  -21.5612   -3.4530   25.7730 F   0  0  0  0  0  0
  -30.0486  -13.2246   20.4588 N   0  0  0  0  0  0
  -26.3075  -12.9294   20.3432 N   0  0  0  0  0  0
  -25.9317  -11.6462   20.5790 N   0  0  0  0  0  0
  -22.0540  -12.8241   22.0411 N   0  0  0  0  0  0
  -25.4405  -15.1853   20.4086 N   0  0  0  0  0  0
  -31.7638  -14.6954   20.0845 O   0  0  0  0  0  0
  -21.6635   -6.8878   21.4236 O   0  0  0  0  0  0
  -22.3582  -14.5581   20.6717 O   0  0  0  0  0  0
  -24.6117  -31.8702   23.2121 C   0  0  0  0  0  0
  -25.9022  -32.4836   23.8403 C   0  0  1  0  0  0
  -27.2429  -27.4705   20.0622 C   0  0  0  0  0  0
  -25.5882  -33.8633   24.2337 N   0  0  0  0  0  0
  -23.3981  -30.4927   21.5530 C   0  0  2  0  0  0
  -24.8452  -28.9574   20.1206 C   0  0  0  0  0  0
  -22.7387  -29.4667   22.5020 C   0  0  0  0  0  0
  -18.0263  -28.1373   22.8497 C   0  0  0  0  0  0
  -24.1481  -36.7320   23.2638 C   0  0  0  0  0  0
  -25.9244  -30.8384   21.3656 C   0  0  0  0  0  0
  -26.0032  -29.4723   20.7179 C   0  0  0  0  0  0
  -27.2034  -28.7282   20.7019 C   0  0  0  0  0  0
  -26.0617  -26.9501   19.4901 C   0  0  0  0  0  0
  -24.8654  -27.6900   19.5135 C   0  0  0  0  0  0
  -23.6056  -29.8209   20.1693 C   0  0  0  0  0  0
  -25.4101  -36.3128   24.0339 C   0  0  1  0  0  0
  -20.5850  -28.3649   23.1339 C   0  0  2  0  0  0
  -20.6755  -26.9393   22.5424 C   0  0  0  0  0  0
  -19.5737  -26.6381   21.5220 C   0  0  0  0  0  0
  -18.1912  -26.7921   22.1625 C   0  0  0  0  0  0
  -19.1511  -28.8827   23.2915 C   0  0  0  0  0  0
  -18.9447  -30.1435   23.8922 C   0  0  0  0  0  0
  -17.6450  -30.6579   24.0568 C   0  0  0  0  0  0
  -25.9026  -34.9488   23.5138 C   0  0  0  0  0  0
  -16.5339  -29.9083   23.6327 C   0  0  0  0  0  0
  -16.7252  -28.6500   23.0347 C   0  0  0  0  0  0
  -26.4465  -31.6614   25.0721 C   0  0  0  0  0  0
  -25.3745  -31.3709   26.1480 C   0  0  0  0  0  0
  -27.0292  -30.3056   24.6086 C   0  0  0  0  0  0
  -27.6044  -32.4330   25.7479 C   0  0  0  0  0  0
  -27.5579  -37.1817   24.8465 C   0  0  0  0  0  0
  -21.4119  -29.3022   22.3750 N   0  0  0  0  0  0
  -26.4296  -37.3802   23.9405 N   0  0  0  0  0  0
  -24.6625  -31.0807   22.1024 N   0  0  0  0  0  0
  -23.4169  -28.8214   23.3056 O   0  0  0  0  0  0
  -28.4208  -26.7660   19.9900 O   0  0  0  0  0  0
  -26.5589  -34.8934   22.4699 O   0  0  0  0  0  0
  -23.5316  -32.1448   23.7523 O   0  0  0  0  0  0
  -30.2822  -20.0538   20.7759 C   0  0  0  0  0  0
  -29.4608  -19.6811   18.5269 C   0  0  0  0  0  0
  -30.6591  -21.3679   20.4303 C   0  0  0  0  0  0
  -29.8416  -20.9889   18.1548 C   0  0  0  0  0  0
  -30.4426  -21.8513   19.1116 C   0  0  0  0  0  0
  -29.6579  -19.2011   19.8348 C   0  0  0  0  0  0
  -31.2983  -22.2344   21.5078 C   0  0  0  0  0  0
  -29.5894  -21.4292   16.7179 C   0  0  0  0  0  0
  -30.8573  -23.2759   18.7306 C   0  0  0  0  0  0
  -30.3997  -16.6141   21.7954 C   0  0  0  0  0  0
  -30.1079  -25.6382   18.6229 C   0  0  0  0  0  0
  -29.1635  -17.4689   21.4585 C   0  0  0  0  0  0
  -28.8862  -26.5694   18.6519 C   0  0  0  0  0  0
  -30.1152  -15.2066   21.5297 N   0  0  0  0  0  0
  -29.7614  -24.2384   18.9678 N   0  3  0  0  0  0
  -29.2114  -17.9223   20.1056 O   0  0  0  0  0  0
  -31.4675  -12.4296   19.0755 H   0  0  0  0  0  0
  -30.3540  -11.2701   19.7406 H   0  0  0  0  0  0
  -29.7126  -11.8337   17.3868 H   0  0  0  0  0  0
  -29.6524  -13.5318   17.7855 H   0  0  0  0  0  0
  -27.8005  -11.3311   18.7630 H   0  0  0  0  0  0
  -27.3565  -12.7063   17.7910 H   0  0  0  0  0  0
  -27.7393  -14.2530   19.6398 H   0  0  0  0  0  0
  -28.6808  -11.8463   21.2669 H   0  0  0  0  0  0
  -28.4572  -13.4323   21.9126 H   0  0  0  0  0  0
  -25.2759   -9.5683   22.4737 H   0  0  0  0  0  0
  -24.0008   -7.4633   22.7448 H   0  0  0  0  0  0
  -21.0827   -8.8790   19.8937 H   0  0  0  0  0  0
  -22.3691  -10.9687   19.6142 H   0  0  0  0  0  0
  -21.2021   -7.6158   23.9726 H   0  0  0  0  0  0
  -21.1460   -6.0510   25.9076 H   0  0  0  0  0  0
  -22.0605   -2.7615   23.2844 H   0  0  0  0  0  0
  -22.4151  -11.9876   22.4752 H   0  0  0  0  0  0
  -21.1170  -13.1262   22.2649 H   0  0  0  0  0  0
  -24.6768  -15.8449   20.5129 H   0  0  0  0  0  0
  -26.2985  -15.6201   20.0918 H   0  0  0  0  0  0
  -26.7089  -32.5559   23.1167 H   0  0  0  0  0  0
  -25.0044  -33.9806   25.0492 H   0  0  0  0  0  0
  -22.6857  -31.3082   21.4129 H   0  0  0  0  0  0
  -23.3742  -35.9657   23.3331 H   0  0  0  0  0  0
  -24.3578  -36.8902   22.2049 H   0  0  0  0  0  0
  -23.7243  -37.6534   23.6632 H   0  0  0  0  0  0
  -26.0335  -31.6029   20.5947 H   0  0  0  0  0  0
  -26.8139  -30.8951   21.9810 H   0  0  0  0  0  0
  -28.1019  -29.1269   21.1522 H   0  0  0  0  0  0
  -26.0614  -25.9773   19.0186 H   0  0  0  0  0  0
  -23.9722  -27.2845   19.0585 H   0  0  0  0  0  0
  -23.7064  -30.5917   19.4045 H   0  0  0  0  0  0
  -22.7314  -29.2342   19.8799 H   0  0  0  0  0  0
  -25.1284  -36.1997   25.0835 H   0  0  0  0  0  0
  -20.9938  -28.3207   24.1459 H   0  0  0  0  0  0
  -20.5662  -26.2252   23.3602 H   0  0  0  0  0  0
  -21.6628  -26.7442   22.1216 H   0  0  0  0  0  0
  -19.6899  -25.6300   21.1226 H   0  0  0  0  0  0
  -19.6679  -27.3212   20.6763 H   0  0  0  0  0  0
  -17.4187  -26.6674   21.4024 H   0  0  0  0  0  0
  -18.0309  -26.0051   22.9008 H   0  0  0  0  0  0
  -19.7927  -30.7245   24.2297 H   0  0  0  0  0  0
  -17.5009  -31.6267   24.5157 H   0  0  0  0  0  0
  -15.5340  -30.2996   23.7643 H   0  0  0  0  0  0
  -15.8649  -28.0829   22.7053 H   0  0  0  0  0  0
  -24.5901  -30.7078   25.7817 H   0  0  0  0  0  0
  -24.8961  -32.2866   26.4965 H   0  0  0  0  0  0
  -25.8109  -30.8846   27.0214 H   0  0  0  0  0  0
  -26.2826  -29.6818   24.1152 H   0  0  0  0  0  0
  -27.4080  -29.7291   25.4538 H   0  0  0  0  0  0
  -27.8657  -30.4378   23.9220 H   0  0  0  0  0  0
  -27.2658  -33.3607   26.2105 H   0  0  0  0  0  0
  -28.3825  -32.6931   25.0291 H   0  0  0  0  0  0
  -28.0746  -31.8431   26.5357 H   0  0  0  0  0  0
  -28.2615  -38.0095   24.7503 H   0  0  0  0  0  0
  -28.1057  -36.2633   24.6304 H   0  0  0  0  0  0
  -27.2300  -37.1483   25.8868 H   0  0  0  0  0  0
  -20.9268  -29.8741   21.6977 H   0  0  0  0  0  0
  -26.0193  -38.2884   24.1397 H   0  0  0  0  0  0
  -30.4854  -19.7211   21.7821 H   0  0  0  0  0  0
  -28.9973  -19.0287   17.7998 H   0  0  0  0  0  0
  -31.2243  -21.7703   22.4921 H   0  0  0  0  0  0
  -30.8093  -23.2056   21.5802 H   0  0  0  0  0  0
  -32.3568  -22.3915   21.2989 H   0  0  0  0  0  0
  -29.0389  -20.6712   16.1600 H   0  0  0  0  0  0
  -30.5296  -21.5970   16.1910 H   0  0  0  0  0  0
  -28.9989  -22.3445   16.6761 H   0  0  0  0  0  0
  -31.1585  -23.3141   17.6838 H   0  0  0  0  0  0
  -31.7443  -23.5793   19.2874 H   0  0  0  0  0  0
  -30.6180  -16.7038   22.8593 H   0  0  0  0  0  0
  -31.2847  -16.9747   21.2672 H   0  0  0  0  0  0
  -30.8858  -26.0108   19.2905 H   0  0  0  0  0  0
  -30.5240  -25.6565   17.6147 H   0  0  0  0  0  0
  -29.0267  -18.2754   22.1782 H   0  0  0  0  0  0
  -28.2556  -16.8731   21.5722 H   0  0  0  0  0  0
  -28.1117  -26.1756   17.9920 H   0  0  0  0  0  0
  -29.1713  -27.5404   18.2447 H   0  0  0  0  0  0
  -29.2887  -14.8279   21.9672 H   0  0  0  0  0  0
  -29.4899  -24.1953   19.9375 H   0  0  0  0  0  0
  -28.9683  -23.9417   18.4226 H   0  0  0  0  0  0
  1 25  1  0  0  0
  1 30  2  0  0  0
  1 84  1  0  0  0
  2  3  1  0  0  0
  2 25  1  0  0  0
  2 87  1  0  0  0
  2 88  1  0  0  0
  3  4  1  0  0  0
  3 89  1  0  0  0
  3 90  1  0  0  0
  4  5  1  0  0  0
  4 91  1  0  0  0
  4 92  1  0  0  0
  5  6  1  0  0  0
  5 26  1  0  0  0
  5 93  1  0  0  0
  6 25  1  0  0  0
  6 94  1  0  0  0
  6 95  1  0  0  0
  7  8  2  0  0  0
  7 26  1  0  0  0
  7 29  1  0  0  0
  8  9  1  0  0  0
  8 22  1  0  0  0
  9 10  1  0  0  0
  9 27  2  0  0  0
 10 11  2  0  0  0
 10 15  1  0  0  0
 11 12  1  0  0  0
 11 96  1  0  0  0
 12 13  2  0  0  0
 12 97  1  0  0  0
 13 14  1  0  0  0
 13 31  1  0  0  0
 14 15  2  0  0  0
 14 98  1  0  0  0
 15 99  1  0  0  0
 16 17  2  0  0  0
 16 21  1  0  0  0
 16 31  1  0  0  0
 17 18  1  0  0  0
 17100  1  0  0  0
 18 19  2  0  0  0
 18101  1  0  0  0
 19 20  1  0  0  0
 19 24  1  0  0  0
 20 21  2  0  0  0
 20102  1  0  0  0
 21 23  1  0  0  0
 22 28  1  0  0  0
 22 32  2  0  0  0
 26 27  1  0  0  0
 28103  1  0  0  0
 28104  1  0  0  0
 29105  1  0  0  0
 29106  1  0  0  0
 33 34  1  0  0  0
 33 66  1  0  0  0
 33 70  2  0  0  0
 34 36  1  0  0  0
 34 59  1  0  0  0
 34107  1  0  0  0
 35 44  2  0  0  0
 35 45  1  0  0  0
 35 68  1  0  0  0
 36 56  1  0  0  0
 36108  1  0  0  0
 37 39  1  0  0  0
 37 47  1  0  0  0
 37 66  1  0  0  0
 37109  1  0  0  0
 38 43  2  0  0  0
 38 46  1  0  0  0
 38 47  1  0  0  0
 39 64  1  0  0  0
 39 67  2  0  0  0
 40 52  1  0  0  0
 40 53  2  0  0  0
 40 58  1  0  0  0
 41110  1  0  0  0
 41111  1  0  0  0
 41112  1  0  0  0
 41 48  1  0  0  0
 42 43  1  0  0  0
 42 66  1  0  0  0
 42113  1  0  0  0
 42114  1  0  0  0
 43 44  1  0  0  0
 44115  1  0  0  0
 45 46  2  0  0  0
 45116  1  0  0  0
 46117  1  0  0  0
 47118  1  0  0  0
 47119  1  0  0  0
 48 56  1  0  0  0
 48 65  1  0  0  0
 48120  1  0  0  0
 49 50  1  0  0  0
 49 53  1  0  0  0
 49 64  1  0  0  0
 49121  1  0  0  0
 50 51  1  0  0  0
 50122  1  0  0  0
 50123  1  0  0  0
 51 52  1  0  0  0
 51124  1  0  0  0
 51125  1  0  0  0
 52126  1  0  0  0
 52127  1  0  0  0
 53 54  1  0  0  0
 54 55  2  0  0  0
 54128  1  0  0  0
 55 57  1  0  0  0
 55129  1  0  0  0
 56 69  2  0  0  0
 57 58  2  0  0  0
 57130  1  0  0  0
 58131  1  0  0  0
 59 60  1  0  0  0
 59 61  1  0  0  0
 59 62  1  0  0  0
 60132  1  0  0  0
 60133  1  0  0  0
 60134  1  0  0  0
 61135  1  0  0  0
 61136  1  0  0  0
 61137  1  0  0  0
 62138  1  0  0  0
 62139  1  0  0  0
 62140  1  0  0  0
 63 65  1  0  0  0
 63141  1  0  0  0
 63142  1  0  0  0
 63143  1  0  0  0
 64144  1  0  0  0
 65145  1  0  0  0
 68 83  1  0  0  0
 71 73  2  0  0  0
 71 76  1  0  0  0
 71146  1  0  0  0
 72 74  1  0  0  0
 72 76  2  0  0  0
 72147  1  0  0  0
 73 75  1  0  0  0
 73 77  1  0  0  0
 74 75  2  0  0  0
 74 78  1  0  0  0
 75 79  1  0  0  0
 76 86  1  0  0  0
 77148  1  0  0  0
 77149  1  0  0  0
 77150  1  0  0  0
 78151  1  0  0  0
 78152  1  0  0  0
 78153  1  0  0  0
 79 85  1  0  0  0
 79154  1  0  0  0
 79155  1  0  0  0
 80 82  1  0  0  0
 80 84  1  0  0  0
 80156  1  0  0  0
 80157  1  0  0  0
 81 83  1  0  0  0
 81 85  1  0  0  0
 81158  1  0  0  0
 81159  1  0  0  0
 82 86  1  0  0  0
 82160  1  0  0  0
 82161  1  0  0  0
 83162  1  0  0  0
 83163  1  0  0  0
 84164  1  0  0  0
 85165  1  0  0  0
 85166  1  0  0  0
M  CHG  1  85   1
M  ISO  4   1 100  68 101  83 101  84 100
M  END
> <chiral flag>
0

> <version>
0

> <s_m_source_file>
/data/baiqing/PycharmProjects/Reinvent-master-3.2/result/LINK_invent/BTK/process_docking_weight1_custom_sum_contain_oxygen_bond_distance_aromatic_linkinvent_7_9_3/rearranged_h_0153.sdf

> <i_m_source_file_index>
93

> <r_mmod_Potential_Energy-OPLS-2005>
-276.824157714844

> <r_mmod_Stretch_Energy-OPLS-2005>
34.7179794311523

> <r_mmod_Bend_Energy-OPLS-2005>
97.3069610595703

> <r_mmod_Torsional_Energy-OPLS-2005>
216.692657470703

> <r_mmod_Improper_Torsional_Energy-OPLS-2005>
2.18082427978516

> <r_mmod_Van_der_Waal_Energy-OPLS-2005>
159.512161254883

> <r_mmod_Electrostatic_Energy-OPLS-2005>
-350.708862304688

> <r_mmod_Solvation_Energy-OPLS-2005>
-444.111358642578

> <b_mmod_Minimization_Converged-OPLS-2005>
0

> <r_mmod_RMS_Derivative-OPLS-2005>
2.19790554046631

$$$$
94
                    3D
 Structure written by MMmdl.
161170  0  0  1  0            999 V2000
  -30.6650  -14.5926   20.5080 C   0  0  0  0  0  0
  -30.4252  -12.3659   19.4484 C   0  0  0  0  0  0
  -29.5018  -12.5032   18.2188 C   0  0  0  0  0  0
  -28.0227  -12.3544   18.6284 C   0  0  0  0  0  0
  -27.6516  -13.2170   19.8648 C   0  0  2  0  0  0
  -28.6964  -13.0574   20.9907 C   0  0  0  0  0  0
  -25.2551  -13.8170   20.5695 C   0  0  0  0  0  0
  -24.1815  -13.0436   20.9186 C   0  0  0  0  0  0
  -24.6383  -11.6908   20.8730 C   0  0  0  0  0  0
  -23.9048  -10.4293   21.0405 C   0  0  0  0  0  0
  -24.3601   -9.4211   21.9184 C   0  0  0  0  0  0
  -23.6284   -8.2242   22.0753 C   0  0  0  0  0  0
  -22.4267   -8.0274   21.3541 C   0  0  0  0  0  0
  -21.9897   -9.0249   20.4648 C   0  0  0  0  0  0
  -22.7218  -10.2132   20.3057 C   0  0  0  0  0  0
  -21.6854   -6.0725   22.5274 C   0  0  0  0  0  0
  -21.4016   -6.5630   23.8206 C   0  0  0  0  0  0
  -21.3663   -5.6786   24.9170 C   0  0  0  0  0  0
  -21.6047   -4.3047   24.7224 C   0  0  0  0  0  0
  -21.8820   -3.8138   23.4346 C   0  0  0  0  0  0
  -21.9194   -4.6953   22.3400 C   0  0  0  0  0  0
  -22.7840  -13.5233   21.1849 C   0  0  0  0  0  0
  -22.1664   -4.2139   21.0979 F   0  0  0  0  0  0
  -21.5630   -3.4533   25.7739 F   0  0  0  0  0  0
  -30.0091  -13.3931   20.4233 N   0  0  0  0  0  0
  -26.2979  -12.9356   20.3333 N   0  0  0  0  0  0
  -25.9312  -11.6505   20.5747 N   0  0  0  0  0  0
  -22.0482  -12.8232   22.0409 N   0  0  0  0  0  0
  -25.4266  -15.1888   20.4113 N   0  0  0  0  0  0
  -31.8416  -14.6904   20.1423 O   0  0  0  0  0  0
  -21.6637   -6.8868   21.4235 O   0  0  0  0  0  0
  -22.3529  -14.5542   20.6697 O   0  0  0  0  0  0
  -24.6216  -31.8627   23.2053 C   0  0  0  0  0  0
  -25.9082  -32.4794   23.8364 C   0  0  1  0  0  0
  -27.2267  -27.3593   20.0980 C   0  0  0  0  0  0
  -25.5909  -33.8592   24.2294 N   0  0  0  0  0  0
  -23.4122  -30.4873   21.5477 C   0  0  2  0  0  0
  -24.8556  -28.9469   20.1118 C   0  0  0  0  0  0
  -22.7444  -29.4637   22.4958 C   0  0  0  0  0  0
  -18.0279  -28.1377   22.8489 C   0  0  0  0  0  0
  -24.1487  -36.7304   23.2638 C   0  0  0  0  0  0
  -25.9492  -30.8052   21.3693 C   0  0  0  0  0  0
  -26.0217  -29.4353   20.7121 C   0  0  0  0  0  0
  -27.2056  -28.6494   20.7017 C   0  0  0  0  0  0
  -26.0267  -26.8993   19.5054 C   0  0  0  0  0  0
  -24.8571  -27.6814   19.5059 C   0  0  0  0  0  0
  -23.6229  -29.8232   20.1618 C   0  0  0  0  0  0
  -25.4109  -36.3094   24.0333 C   0  0  1  0  0  0
  -20.5874  -28.3672   23.1301 C   0  0  2  0  0  0
  -20.6768  -26.9401   22.5414 C   0  0  0  0  0  0
  -19.5747  -26.6381   21.5211 C   0  0  0  0  0  0
  -18.1924  -26.7922   22.1623 C   0  0  0  0  0  0
  -19.1528  -28.8842   23.2892 C   0  0  0  0  0  0
  -18.9454  -30.1444   23.8905 C   0  0  0  0  0  0
  -17.6455  -30.6584   24.0562 C   0  0  0  0  0  0
  -25.9043  -34.9461   23.5113 C   0  0  0  0  0  0
  -16.5346  -29.9083   23.6328 C   0  0  0  0  0  0
  -16.7267  -28.6499   23.0349 C   0  0  0  0  0  0
  -26.4484  -31.6593   25.0720 C   0  0  0  0  0  0
  -25.3735  -31.3720   26.1463 C   0  0  0  0  0  0
  -27.0314  -30.3021   24.6143 C   0  0  0  0  0  0
  -27.6054  -32.4320   25.7485 C   0  0  0  0  0  0
  -27.5581  -37.1802   24.8462 C   0  0  0  0  0  0
  -21.4166  -29.3034   22.3703 N   0  0  0  0  0  0
  -26.4291  -37.3785   23.9411 N   0  0  0  0  0  0
  -24.6798  -31.0674   22.0982 N   0  0  0  0  0  0
  -23.4194  -28.8175   23.3020 O   0  0  0  0  0  0
  -28.3852  -26.5814   20.1505 O   0  0  0  0  0  0
  -26.5609  -34.8924   22.4679 O   0  0  0  0  0  0
  -23.5394  -32.1407   23.7410 O   0  0  0  0  0  0
  -28.2455  -22.8182   19.4921 C   0  0  0  0  0  0
  -28.8131  -24.0069   20.0286 C   0  0  0  0  0  0
  -29.7435  -23.8239   21.0833 C   0  0  0  0  0  0
  -30.0534  -22.5032   21.5127 C   0  0  0  0  0  0
  -29.4527  -21.3842   20.8858 C   0  0  0  0  0  0
  -29.4637  -17.7271   22.0470 C   0  0  0  0  0  0
  -30.2839  -18.1516   19.7619 C   0  0  0  0  0  0
  -29.1288  -16.2468   21.6729 C   0  0  0  0  0  0
  -29.9001  -16.6880   19.3845 C   0  0  0  0  0  0
  -29.3993  -18.7497   20.8779 C   0  0  0  0  0  0
  -30.4408  -25.0114   21.7252 C   0  0  0  0  0  0
  -28.5522  -25.3805   19.3342 C   0  0  0  0  0  0
  -28.5449  -21.5468   19.8966 N   0  0  0  0  0  0
  -29.8833  -15.7258   20.5146 N   0  0  0  0  0  0
  -29.8500  -20.0917   21.3209 N   0  0  0  0  0  0
  -30.9505  -22.2996   22.5100 F   0  0  0  0  0  0
  -31.4694  -12.4684   19.1477 H   0  0  0  0  0  0
  -30.3386  -11.3701   19.8856 H   0  0  0  0  0  0
  -29.7588  -11.7552   17.4674 H   0  0  0  0  0  0
  -29.6571  -13.4752   17.7476 H   0  0  0  0  0  0
  -27.8472  -11.3004   18.8473 H   0  0  0  0  0  0
  -27.3719  -12.6022   17.7890 H   0  0  0  0  0  0
  -27.6732  -14.2555   19.5350 H   0  0  0  0  0  0
  -28.7011  -12.0328   21.3656 H   0  0  0  0  0  0
  -28.4459  -13.6795   21.8473 H   0  0  0  0  0  0
  -25.2751   -9.5692   22.4750 H   0  0  0  0  0  0
  -23.9997   -7.4635   22.7471 H   0  0  0  0  0  0
  -21.0826   -8.8763   19.8958 H   0  0  0  0  0  0
  -22.3674  -10.9663   19.6159 H   0  0  0  0  0  0
  -21.2008   -7.6138   23.9704 H   0  0  0  0  0  0
  -21.1488   -6.0518   25.9071 H   0  0  0  0  0  0
  -22.0598   -2.7599   23.2848 H   0  0  0  0  0  0
  -22.4092  -11.9898   22.4806 H   0  0  0  0  0  0
  -21.1101  -13.1264   22.2612 H   0  0  0  0  0  0
  -24.6621  -15.8456   20.5253 H   0  0  0  0  0  0
  -26.2823  -15.6263   20.0949 H   0  0  0  0  0  0
  -26.7148  -32.5474   23.1114 H   0  0  0  0  0  0
  -25.0056  -33.9739   25.0437 H   0  0  0  0  0  0
  -22.7038  -31.3068   21.4081 H   0  0  0  0  0  0
  -23.3749  -35.9638   23.3303 H   0  0  0  0  0  0
  -24.3585  -36.8919   22.2053 H   0  0  0  0  0  0
  -23.7242  -37.6508   23.6657 H   0  0  0  0  0  0
  -26.0743  -31.5704   20.6018 H   0  0  0  0  0  0
  -26.8324  -30.8535   21.9949 H   0  0  0  0  0  0
  -28.1033  -29.0229   21.1742 H   0  0  0  0  0  0
  -25.9406  -25.9192   19.0646 H   0  0  0  0  0  0
  -23.9556  -27.2932   19.0518 H   0  0  0  0  0  0
  -23.7392  -30.5997   19.4049 H   0  0  0  0  0  0
  -22.7434  -29.2502   19.8623 H   0  0  0  0  0  0
  -25.1286  -36.1951   25.0826 H   0  0  0  0  0  0
  -20.9963  -28.3240   24.1423 H   0  0  0  0  0  0
  -20.5667  -26.2276   23.3605 H   0  0  0  0  0  0
  -21.6639  -26.7438   22.1209 H   0  0  0  0  0  0
  -19.6906  -25.6293   21.1235 H   0  0  0  0  0  0
  -19.6685  -27.3197   20.6745 H   0  0  0  0  0  0
  -17.4193  -26.6669   21.4026 H   0  0  0  0  0  0
  -18.0327  -26.0063   22.9021 H   0  0  0  0  0  0
  -19.7931  -30.7255   24.2281 H   0  0  0  0  0  0
  -17.5013  -31.6267   24.5156 H   0  0  0  0  0  0
  -15.5346  -30.2985   23.7650 H   0  0  0  0  0  0
  -15.8669  -28.0820   22.7062 H   0  0  0  0  0  0
  -24.5902  -30.7073   25.7803 H   0  0  0  0  0  0
  -24.8936  -32.2882   26.4913 H   0  0  0  0  0  0
  -25.8076  -30.8886   27.0224 H   0  0  0  0  0  0
  -26.2867  -29.6783   24.1183 H   0  0  0  0  0  0
  -27.4042  -29.7265   25.4627 H   0  0  0  0  0  0
  -27.8729  -30.4320   23.9332 H   0  0  0  0  0  0
  -27.2669  -33.3613   26.2082 H   0  0  0  0  0  0
  -28.3852  -32.6888   25.0303 H   0  0  0  0  0  0
  -28.0738  -31.8434   26.5385 H   0  0  0  0  0  0
  -28.2595  -38.0103   24.7517 H   0  0  0  0  0  0
  -28.1078  -36.2634   24.6270 H   0  0  0  0  0  0
  -27.2305  -37.1440   25.8866 H   0  0  0  0  0  0
  -20.9328  -29.8761   21.6927 H   0  0  0  0  0  0
  -26.0175  -38.2860   24.1415 H   0  0  0  0  0  0
  -27.5500  -22.8820   18.6684 H   0  0  0  0  0  0
  -30.4662  -17.7434   22.4781 H   0  0  0  0  0  0
  -28.7940  -18.0481   22.8462 H   0  0  0  0  0  0
  -30.2209  -18.7809   18.8732 H   0  0  0  0  0  0
  -31.3302  -18.1703   20.0717 H   0  0  0  0  0  0
  -28.0651  -16.1605   21.4506 H   0  0  0  0  0  0
  -29.3120  -15.6235   22.5494 H   0  0  0  0  0  0
  -30.5648  -16.3402   18.5913 H   0  0  0  0  0  0
  -28.9027  -16.6858   18.9432 H   0  0  0  0  0  0
  -28.3700  -18.8267   20.5232 H   0  0  0  0  0  0
  -30.9186  -25.6325   20.9680 H   0  0  0  0  0  0
  -31.2128  -24.7000   22.4283 H   0  0  0  0  0  0
  -29.7216  -25.6226   22.2702 H   0  0  0  0  0  0
  -27.7997  -25.2596   18.5594 H   0  0  0  0  0  0
  -29.4565  -25.5724   18.7564 H   0  0  0  0  0  0
  -30.5368  -20.1168   22.0676 H   0  0  0  0  0  0
  1 25  1  0  0  0
  1 30  2  0  0  0
  1 84  1  0  0  0
  2  3  1  0  0  0
  2 25  1  0  0  0
  2 87  1  0  0  0
  2 88  1  0  0  0
  3  4  1  0  0  0
  3 89  1  0  0  0
  3 90  1  0  0  0
  4  5  1  0  0  0
  4 91  1  0  0  0
  4 92  1  0  0  0
  5  6  1  0  0  0
  5 26  1  0  0  0
  5 93  1  0  0  0
  6 25  1  0  0  0
  6 94  1  0  0  0
  6 95  1  0  0  0
  7  8  2  0  0  0
  7 26  1  0  0  0
  7 29  1  0  0  0
  8  9  1  0  0  0
  8 22  1  0  0  0
  9 10  1  0  0  0
  9 27  2  0  0  0
 10 11  2  0  0  0
 10 15  1  0  0  0
 11 12  1  0  0  0
 11 96  1  0  0  0
 12 13  2  0  0  0
 12 97  1  0  0  0
 13 14  1  0  0  0
 13 31  1  0  0  0
 14 15  2  0  0  0
 14 98  1  0  0  0
 15 99  1  0  0  0
 16 17  2  0  0  0
 16 21  1  0  0  0
 16 31  1  0  0  0
 17 18  1  0  0  0
 17100  1  0  0  0
 18 19  2  0  0  0
 18101  1  0  0  0
 19 20  1  0  0  0
 19 24  1  0  0  0
 20 21  2  0  0  0
 20102  1  0  0  0
 21 23  1  0  0  0
 22 28  1  0  0  0
 22 32  2  0  0  0
 26 27  1  0  0  0
 28103  1  0  0  0
 28104  1  0  0  0
 29105  1  0  0  0
 29106  1  0  0  0
 33 34  1  0  0  0
 33 66  1  0  0  0
 33 70  2  0  0  0
 34 36  1  0  0  0
 34 59  1  0  0  0
 34107  1  0  0  0
 35 44  2  0  0  0
 35 45  1  0  0  0
 35 68  1  0  0  0
 36 56  1  0  0  0
 36108  1  0  0  0
 37 39  1  0  0  0
 37 47  1  0  0  0
 37 66  1  0  0  0
 37109  1  0  0  0
 38 43  2  0  0  0
 38 46  1  0  0  0
 38 47  1  0  0  0
 39 64  1  0  0  0
 39 67  2  0  0  0
 40 52  1  0  0  0
 40 53  2  0  0  0
 40 58  1  0  0  0
 41110  1  0  0  0
 41111  1  0  0  0
 41112  1  0  0  0
 41 48  1  0  0  0
 42 43  1  0  0  0
 42 66  1  0  0  0
 42113  1  0  0  0
 42114  1  0  0  0
 43 44  1  0  0  0
 44115  1  0  0  0
 45 46  2  0  0  0
 45116  1  0  0  0
 46117  1  0  0  0
 47118  1  0  0  0
 47119  1  0  0  0
 48 56  1  0  0  0
 48 65  1  0  0  0
 48120  1  0  0  0
 49 50  1  0  0  0
 49 53  1  0  0  0
 49 64  1  0  0  0
 49121  1  0  0  0
 50 51  1  0  0  0
 50122  1  0  0  0
 50123  1  0  0  0
 51 52  1  0  0  0
 51124  1  0  0  0
 51125  1  0  0  0
 52126  1  0  0  0
 52127  1  0  0  0
 53 54  1  0  0  0
 54 55  2  0  0  0
 54128  1  0  0  0
 55 57  1  0  0  0
 55129  1  0  0  0
 56 69  2  0  0  0
 57 58  2  0  0  0
 57130  1  0  0  0
 58131  1  0  0  0
 59 60  1  0  0  0
 59 61  1  0  0  0
 59 62  1  0  0  0
 60132  1  0  0  0
 60133  1  0  0  0
 60134  1  0  0  0
 61135  1  0  0  0
 61136  1  0  0  0
 61137  1  0  0  0
 62138  1  0  0  0
 62139  1  0  0  0
 62140  1  0  0  0
 63 65  1  0  0  0
 63141  1  0  0  0
 63142  1  0  0  0
 63143  1  0  0  0
 64144  1  0  0  0
 65145  1  0  0  0
 68 82  1  0  0  0
 71 72  2  0  0  0
 71 83  1  0  0  0
 71146  1  0  0  0
 72 73  1  0  0  0
 72 82  1  0  0  0
 73 74  2  0  0  0
 73 81  1  0  0  0
 74 75  1  0  0  0
 74 86  1  0  0  0
 75 83  2  0  0  0
 75 85  1  0  0  0
 76 78  1  0  0  0
 76 80  1  0  0  0
 76147  1  0  0  0
 76148  1  0  0  0
 77 79  1  0  0  0
 77 80  1  0  0  0
 77149  1  0  0  0
 77150  1  0  0  0
 78 84  1  0  0  0
 78151  1  0  0  0
 78152  1  0  0  0
 79 84  1  0  0  0
 79153  1  0  0  0
 79154  1  0  0  0
 80 85  1  0  0  0
 80155  1  0  0  0
 81156  1  0  0  0
 81157  1  0  0  0
 81158  1  0  0  0
 82159  1  0  0  0
 82160  1  0  0  0
 85161  1  0  0  0
M  ISO  4   1 100  68 101  82 101  84 100
M  END
> <chiral flag>
0

> <version>
0

> <s_m_source_file>
/data/baiqing/PycharmProjects/Reinvent-master-3.2/result/LINK_invent/BTK/process_docking_weight1_custom_sum_contain_oxygen_bond_distance_aromatic_linkinvent_7_9_3/rearranged_h_0153.sdf

> <i_m_source_file_index>
94

> <r_mmod_Potential_Energy-OPLS-2005>
118.101608276367

> <r_mmod_Stretch_Energy-OPLS-2005>
60.2247848510742

> <r_mmod_Bend_Energy-OPLS-2005>
154.616821289062

> <r_mmod_Torsional_Energy-OPLS-2005>
319.556427001953

> <r_mmod_Improper_Torsional_Energy-OPLS-2005>
16.7729816436768

> <r_mmod_Van_der_Waal_Energy-OPLS-2005>
149.180679321289

> <r_mmod_Electrostatic_Energy-OPLS-2005>
-408.382904052734

> <r_mmod_Solvation_Energy-OPLS-2005>
-207.082260131836

> <b_mmod_Minimization_Converged-OPLS-2005>
0

> <r_mmod_RMS_Derivative-OPLS-2005>
0.674707531929016

$$$$
95
                    3D
 Structure written by MMmdl.
161170  0  0  1  0            999 V2000
  -30.5255  -15.1300   20.3888 C   0  0  0  0  0  0
  -30.4223  -12.7232   19.5041 C   0  0  0  0  0  0
  -29.5138  -12.5462   18.2677 C   0  0  0  0  0  0
  -28.0651  -12.2849   18.7076 C   0  0  0  0  0  0
  -27.6081  -13.2616   19.8202 C   0  0  2  0  0  0
  -28.6484  -13.4180   20.9501 C   0  0  0  0  0  0
  -25.2410  -13.8218   20.5742 C   0  0  0  0  0  0
  -24.1753  -13.0421   20.9256 C   0  0  0  0  0  0
  -24.6374  -11.6909   20.8793 C   0  0  0  0  0  0
  -23.9068  -10.4286   21.0435 C   0  0  0  0  0  0
  -24.3625   -9.4203   21.9200 C   0  0  0  0  0  0
  -23.6299   -8.2236   22.0768 C   0  0  0  0  0  0
  -22.4287   -8.0278   21.3548 C   0  0  0  0  0  0
  -21.9926   -9.0255   20.4650 C   0  0  0  0  0  0
  -22.7243  -10.2137   20.3068 C   0  0  0  0  0  0
  -21.6854   -6.0739   22.5276 C   0  0  0  0  0  0
  -21.4009   -6.5642   23.8206 C   0  0  0  0  0  0
  -21.3667   -5.6802   24.9168 C   0  0  0  0  0  0
  -21.6050   -4.3062   24.7227 C   0  0  0  0  0  0
  -21.8814   -3.8147   23.4345 C   0  0  0  0  0  0
  -21.9191   -4.6965   22.3401 C   0  0  0  0  0  0
  -22.7775  -13.5199   21.1905 C   0  0  0  0  0  0
  -22.1653   -4.2143   21.0983 F   0  0  0  0  0  0
  -21.5644   -3.4548   25.7745 F   0  0  0  0  0  0
  -29.8863  -13.8758   20.3070 N   0  0  0  0  0  0
  -26.2802  -12.9440   20.3231 N   0  0  0  0  0  0
  -25.9308  -11.6561   20.5771 N   0  0  0  0  0  0
  -22.0439  -12.8184   22.0451 N   0  0  0  0  0  0
  -25.4125  -15.1944   20.4162 N   0  0  0  0  0  0
  -31.7524  -15.0536   20.2247 O   0  0  0  0  0  0
  -21.6643   -6.8883   21.4236 O   0  0  0  0  0  0
  -22.3466  -14.5510   20.6765 O   0  0  0  0  0  0
  -24.6561  -31.8308   23.1740 C   0  0  0  0  0  0
  -25.9260  -32.4639   23.8190 C   0  0  1  0  0  0
  -27.2182  -27.0138   20.1563 C   0  0  0  0  0  0
  -25.5942  -33.8446   24.2099 N   0  0  0  0  0  0
  -23.4668  -30.4440   21.5208 C   0  0  2  0  0  0
  -24.9171  -28.8459   20.1033 C   0  0  0  0  0  0
  -22.7641  -29.4499   22.4803 C   0  0  0  0  0  0
  -18.0354  -28.1388   22.8459 C   0  0  0  0  0  0
  -24.1491  -36.7234   23.2644 C   0  0  0  0  0  0
  -26.0292  -30.6658   21.3879 C   0  0  0  0  0  0
  -26.0953  -29.2631   20.7338 C   0  0  0  0  0  0
  -27.2390  -28.3603   20.7437 C   0  0  0  0  0  0
  -26.0127  -26.7255   19.4800 C   0  0  0  0  0  0
  -24.8947  -27.5956   19.4612 C   0  0  0  0  0  0
  -23.6964  -29.7591   20.1454 C   0  0  0  0  0  0
  -25.4124  -36.2998   24.0307 C   0  0  1  0  0  0
  -20.5961  -28.3783   23.1229 C   0  0  2  0  0  0
  -20.6880  -26.9472   22.5411 C   0  0  0  0  0  0
  -19.5887  -26.6462   21.5178 C   0  0  0  0  0  0
  -18.2066  -26.7924   22.1609 C   0  0  0  0  0  0
  -19.1586  -28.8913   23.2823 C   0  0  0  0  0  0
  -18.9462  -30.1501   23.8843 C   0  0  0  0  0  0
  -17.6439  -30.6582   24.0511 C   0  0  0  0  0  0
  -25.9081  -34.9383   23.5032 C   0  0  0  0  0  0
  -16.5355  -29.9034   23.6303 C   0  0  0  0  0  0
  -16.7321  -28.6452   23.0322 C   0  0  0  0  0  0
  -26.4536  -31.6554   25.0688 C   0  0  0  0  0  0
  -25.3677  -31.3806   26.1358 C   0  0  0  0  0  0
  -27.0410  -30.2927   24.6376 C   0  0  0  0  0  0
  -27.6055  -32.4338   25.7491 C   0  0  0  0  0  0
  -27.5570  -37.1771   24.8461 C   0  0  0  0  0  0
  -21.4317  -29.3094   22.3591 N   0  0  0  0  0  0
  -26.4276  -37.3719   23.9418 N   0  0  0  0  0  0
  -24.7385  -31.0061   22.0815 N   0  0  0  0  0  0
  -23.4233  -28.8037   23.2984 O   0  0  0  0  0  0
  -28.2471  -25.9726   20.2877 O   0  0  0  0  0  0
  -26.5699  -34.8909   22.4628 O   0  0  0  0  0  0
  -23.5644  -32.1228   23.6870 O   0  0  0  0  0  0
  -28.4180  -18.9484   20.5491 C   0  0  0  0  0  0
  -29.4150  -21.8054   20.8612 C   0  0  0  0  0  0
  -29.1211  -17.4697   21.0596 C   0  0  0  0  0  0
  -30.4458  -17.3638   19.1156 C   0  0  0  0  0  0
  -28.3050  -22.8098   20.2282 C   0  0  2  0  0  0
  -28.2290  -21.5273   19.2338 C   0  0  2  0  0  0
  -30.9980  -18.7958   19.5795 C   0  0  1  0  0  0
  -29.0926  -20.4169   20.0619 C   0  0  2  0  0  0
  -28.6418  -21.7713   17.7811 C   0  0  0  0  0  0
  -32.3484  -19.0752   18.9115 C   0  0  0  0  0  0
  -28.3347  -24.4841   19.6789 C   0  0  0  0  0  0
  -29.8855  -16.4379   20.1590 N   0  0  0  0  0  0
  -30.1868  -19.9606   19.2194 O   0  0  0  0  0  0
  -31.4473  -12.8909   19.1702 H   0  0  0  0  0  0
  -30.4502  -11.8111   20.1030 H   0  0  0  0  0  0
  -29.8747  -11.7287   17.6430 H   0  0  0  0  0  0
  -29.5505  -13.4439   17.6498 H   0  0  0  0  0  0
  -28.0192  -11.2619   19.0835 H   0  0  0  0  0  0
  -27.3880  -12.3276   17.8545 H   0  0  0  0  0  0
  -27.5299  -14.2316   19.3270 H   0  0  0  0  0  0
  -28.7913  -12.4848   21.4967 H   0  0  0  0  0  0
  -28.3137  -14.1645   21.6719 H   0  0  0  0  0  0
  -25.2765   -9.5668   22.4785 H   0  0  0  0  0  0
  -24.0003   -7.4625   22.7494 H   0  0  0  0  0  0
  -21.0849   -8.8761   19.8958 H   0  0  0  0  0  0
  -22.3681  -10.9689   19.6195 H   0  0  0  0  0  0
  -21.1990   -7.6151   23.9697 H   0  0  0  0  0  0
  -21.1504   -6.0544   25.9075 H   0  0  0  0  0  0
  -22.0588   -2.7612   23.2847 H   0  0  0  0  0  0
  -22.4045  -11.9833   22.4830 H   0  0  0  0  0  0
  -21.1070  -13.1226   22.2661 H   0  0  0  0  0  0
  -24.6483  -15.8506   20.5266 H   0  0  0  0  0  0
  -26.2661  -15.6338   20.0974 H   0  0  0  0  0  0
  -26.7325  -32.5210   23.0909 H   0  0  0  0  0  0
  -25.0011  -33.9535   25.0198 H   0  0  0  0  0  0
  -22.7762  -31.2725   21.3522 H   0  0  0  0  0  0
  -23.3759  -35.9554   23.3278 H   0  0  0  0  0  0
  -24.3559  -36.8903   22.2060 H   0  0  0  0  0  0
  -23.7251  -37.6423   23.6704 H   0  0  0  0  0  0
  -26.1948  -31.4086   20.6056 H   0  0  0  0  0  0
  -26.8971  -30.7232   22.0341 H   0  0  0  0  0  0
  -28.1308  -28.6703   21.2687 H   0  0  0  0  0  0
  -25.8887  -25.7634   19.0077 H   0  0  0  0  0  0
  -23.9912  -27.2709   18.9629 H   0  0  0  0  0  0
  -23.8288  -30.5250   19.3798 H   0  0  0  0  0  0
  -22.8101  -29.1980   19.8453 H   0  0  0  0  0  0
  -25.1321  -36.1795   25.0796 H   0  0  0  0  0  0
  -21.0056  -28.3409   24.1352 H   0  0  0  0  0  0
  -20.5796  -26.2386   23.3626 H   0  0  0  0  0  0
  -21.6764  -26.7526   22.1251 H   0  0  0  0  0  0
  -19.7105  -25.6412   21.1127 H   0  0  0  0  0  0
  -19.6801  -27.3348   20.6758 H   0  0  0  0  0  0
  -17.4330  -26.6533   21.4051 H   0  0  0  0  0  0
  -18.0610  -26.0083   22.9050 H   0  0  0  0  0  0
  -19.7919  -30.7359   24.2190 H   0  0  0  0  0  0
  -17.4943  -31.6270   24.5082 H   0  0  0  0  0  0
  -15.5329  -30.2898   23.7605 H   0  0  0  0  0  0
  -15.8742  -28.0747   22.7043 H   0  0  0  0  0  0
  -24.5872  -30.7137   25.7685 H   0  0  0  0  0  0
  -24.8843  -32.3006   26.4648 H   0  0  0  0  0  0
  -25.7902  -30.9076   27.0226 H   0  0  0  0  0  0
  -26.3054  -29.6625   24.1372 H   0  0  0  0  0  0
  -27.3948  -29.7279   25.5009 H   0  0  0  0  0  0
  -27.8987  -30.4134   23.9760 H   0  0  0  0  0  0
  -27.2651  -33.3673   26.1985 H   0  0  0  0  0  0
  -28.3915  -32.6839   25.0353 H   0  0  0  0  0  0
  -28.0669  -31.8515   26.5480 H   0  0  0  0  0  0
  -28.2578  -38.0074   24.7495 H   0  0  0  0  0  0
  -28.1078  -36.2605   24.6293 H   0  0  0  0  0  0
  -27.2287  -37.1417   25.8862 H   0  0  0  0  0  0
  -20.9547  -29.8795   21.6736 H   0  0  0  0  0  0
  -26.0132  -38.2787   24.1392 H   0  0  0  0  0  0
  -27.7210  -19.2045   21.3473 H   0  0  0  0  0  0
  -27.7531  -18.6502   19.7385 H   0  0  0  0  0  0
  -29.3140  -21.7056   21.9418 H   0  0  0  0  0  0
  -30.4238  -22.1562   20.6350 H   0  0  0  0  0  0
  -28.2929  -16.8866   21.4654 H   0  0  0  0  0  0
  -29.7412  -17.6692   21.9335 H   0  0  0  0  0  0
  -31.2288  -16.8420   18.5634 H   0  0  0  0  0  0
  -29.6735  -17.5172   18.3615 H   0  0  0  0  0  0
  -27.4342  -22.7172   20.8784 H   0  0  0  0  0  0
  -27.1925  -21.1859   19.2393 H   0  0  0  0  0  0
  -31.2159  -18.8207   20.6477 H   0  0  0  0  0  0
  -29.6533  -22.1750   17.7230 H   0  0  0  0  0  0
  -27.9782  -22.4785   17.2826 H   0  0  0  0  0  0
  -28.6331  -20.8451   17.2037 H   0  0  0  0  0  0
  -32.2609  -19.1152   17.8263 H   0  0  0  0  0  0
  -33.0743  -18.3000   19.1622 H   0  0  0  0  0  0
  -32.7644  -20.0248   19.2492 H   0  0  0  0  0  0
  -27.6370  -24.5113   18.8436 H   0  0  0  0  0  0
  -29.2953  -24.5581   19.1697 H   0  0  0  0  0  0
  1 25  1  0  0  0
  1 30  2  0  0  0
  1 82  1  0  0  0
  2  3  1  0  0  0
  2 25  1  0  0  0
  2 84  1  0  0  0
  2 85  1  0  0  0
  3  4  1  0  0  0
  3 86  1  0  0  0
  3 87  1  0  0  0
  4  5  1  0  0  0
  4 88  1  0  0  0
  4 89  1  0  0  0
  5  6  1  0  0  0
  5 26  1  0  0  0
  5 90  1  0  0  0
  6 25  1  0  0  0
  6 91  1  0  0  0
  6 92  1  0  0  0
  7  8  2  0  0  0
  7 26  1  0  0  0
  7 29  1  0  0  0
  8  9  1  0  0  0
  8 22  1  0  0  0
  9 10  1  0  0  0
  9 27  2  0  0  0
 10 11  2  0  0  0
 10 15  1  0  0  0
 11 12  1  0  0  0
 11 93  1  0  0  0
 12 13  2  0  0  0
 12 94  1  0  0  0
 13 14  1  0  0  0
 13 31  1  0  0  0
 14 15  2  0  0  0
 14 95  1  0  0  0
 15 96  1  0  0  0
 16 17  2  0  0  0
 16 21  1  0  0  0
 16 31  1  0  0  0
 17 18  1  0  0  0
 17 97  1  0  0  0
 18 19  2  0  0  0
 18 98  1  0  0  0
 19 20  1  0  0  0
 19 24  1  0  0  0
 20 21  2  0  0  0
 20 99  1  0  0  0
 21 23  1  0  0  0
 22 28  1  0  0  0
 22 32  2  0  0  0
 26 27  1  0  0  0
 28100  1  0  0  0
 28101  1  0  0  0
 29102  1  0  0  0
 29103  1  0  0  0
 33 34  1  0  0  0
 33 66  1  0  0  0
 33 70  2  0  0  0
 34 36  1  0  0  0
 34 59  1  0  0  0
 34104  1  0  0  0
 35 44  2  0  0  0
 35 45  1  0  0  0
 35 68  1  0  0  0
 36 56  1  0  0  0
 36105  1  0  0  0
 37 39  1  0  0  0
 37 47  1  0  0  0
 37 66  1  0  0  0
 37106  1  0  0  0
 38 43  2  0  0  0
 38 46  1  0  0  0
 38 47  1  0  0  0
 39 64  1  0  0  0
 39 67  2  0  0  0
 40 52  1  0  0  0
 40 53  2  0  0  0
 40 58  1  0  0  0
 41107  1  0  0  0
 41108  1  0  0  0
 41109  1  0  0  0
 41 48  1  0  0  0
 42 43  1  0  0  0
 42 66  1  0  0  0
 42110  1  0  0  0
 42111  1  0  0  0
 43 44  1  0  0  0
 44112  1  0  0  0
 45 46  2  0  0  0
 45113  1  0  0  0
 46114  1  0  0  0
 47115  1  0  0  0
 47116  1  0  0  0
 48 56  1  0  0  0
 48 65  1  0  0  0
 48117  1  0  0  0
 49 50  1  0  0  0
 49 53  1  0  0  0
 49 64  1  0  0  0
 49118  1  0  0  0
 50 51  1  0  0  0
 50119  1  0  0  0
 50120  1  0  0  0
 51 52  1  0  0  0
 51121  1  0  0  0
 51122  1  0  0  0
 52123  1  0  0  0
 52124  1  0  0  0
 53 54  1  0  0  0
 54 55  2  0  0  0
 54125  1  0  0  0
 55 57  1  0  0  0
 55126  1  0  0  0
 56 69  2  0  0  0
 57 58  2  0  0  0
 57127  1  0  0  0
 58128  1  0  0  0
 59 60  1  0  0  0
 59 61  1  0  0  0
 59 62  1  0  0  0
 60129  1  0  0  0
 60130  1  0  0  0
 60131  1  0  0  0
 61132  1  0  0  0
 61133  1  0  0  0
 61134  1  0  0  0
 62135  1  0  0  0
 62136  1  0  0  0
 62137  1  0  0  0
 63 65  1  0  0  0
 63138  1  0  0  0
 63139  1  0  0  0
 63140  1  0  0  0
 64141  1  0  0  0
 65142  1  0  0  0
 68 81  1  0  0  0
 71 73  1  0  0  0
 71143  1  0  0  0
 71144  1  0  0  0
 71 78  1  0  0  0
 72 75  1  0  0  0
 72 78  1  0  0  0
 72145  1  0  0  0
 72146  1  0  0  0
 73 82  1  0  0  0
 73147  1  0  0  0
 73148  1  0  0  0
 74 77  1  0  0  0
 74 82  1  0  0  0
 74149  1  0  0  0
 74150  1  0  0  0
 75 76  1  0  0  0
 75 81  1  0  0  0
 75151  1  0  0  0
 76 78  1  0  0  0
 76 79  1  0  0  0
 76152  1  0  0  0
 77 80  1  0  0  0
 77 83  1  0  0  0
 77153  1  0  0  0
 78 83  1  0  0  0
 79154  1  0  0  0
 79155  1  0  0  0
 79156  1  0  0  0
 80157  1  0  0  0
 80158  1  0  0  0
 80159  1  0  0  0
 81160  1  0  0  0
 81161  1  0  0  0
M  ISO  4   1 100  68 101  81 101  82 100
M  END
> <chiral flag>
0

> <version>
0

> <s_m_source_file>
/data/baiqing/PycharmProjects/Reinvent-master-3.2/result/LINK_invent/BTK/process_docking_weight1_custom_sum_contain_oxygen_bond_distance_aromatic_linkinvent_7_9_3/rearranged_h_0153.sdf

> <i_m_source_file_index>
95

> <r_mmod_Potential_Energy-OPLS-2005>
1166.501953125

> <r_mmod_Stretch_Energy-OPLS-2005>
395.958801269531

> <r_mmod_Bend_Energy-OPLS-2005>
472.32421875

> <r_mmod_Torsional_Energy-OPLS-2005>
380.989105224609

> <r_mmod_Improper_Torsional_Energy-OPLS-2005>
18.701473236084

> <r_mmod_Van_der_Waal_Energy-OPLS-2005>
125.479377746582

> <r_mmod_Electrostatic_Energy-OPLS-2005>
-363.026947021484

> <r_mmod_Solvation_Energy-OPLS-2005>
-197.997421264648

> <b_mmod_Minimization_Converged-OPLS-2005>
0

> <r_mmod_RMS_Derivative-OPLS-2005>
2.71026206016541

$$$$
96
                    3D
 Structure written by MMmdl.
174184  0  0  1  0            999 V2000
  -30.6553  -14.6196   20.5306 C   0  0  0  0  0  0
  -30.4236  -12.3990   19.4372 C   0  0  0  0  0  0
  -29.4964  -12.5165   18.2118 C   0  0  0  0  0  0
  -28.0142  -12.3716   18.6161 C   0  0  0  0  0  0
  -27.6455  -13.2152   19.8657 C   0  0  2  0  0  0
  -28.6935  -13.0138   20.9796 C   0  0  0  0  0  0
  -25.2456  -13.8170   20.5623 C   0  0  0  0  0  0
  -24.1759  -13.0464   20.9183 C   0  0  0  0  0  0
  -24.6356  -11.6932   20.8774 C   0  0  0  0  0  0
  -23.9037  -10.4319   21.0440 C   0  0  0  0  0  0
  -24.3609   -9.4225   21.9201 C   0  0  0  0  0  0
  -23.6299   -8.2248   22.0760 C   0  0  0  0  0  0
  -22.4270   -8.0291   21.3556 C   0  0  0  0  0  0
  -21.9903   -9.0258   20.4641 C   0  0  0  0  0  0
  -22.7219  -10.2148   20.3075 C   0  0  0  0  0  0
  -21.6850   -6.0742   22.5287 C   0  0  0  0  0  0
  -21.4002   -6.5639   23.8226 C   0  0  0  0  0  0
  -21.3651   -5.6787   24.9200 C   0  0  0  0  0  0
  -21.6047   -4.3043   24.7228 C   0  0  0  0  0  0
  -21.8829   -3.8146   23.4346 C   0  0  0  0  0  0
  -21.9174   -4.6966   22.3405 C   0  0  0  0  0  0
  -22.7761  -13.5219   21.1859 C   0  0  0  0  0  0
  -22.1646   -4.2154   21.0980 F   0  0  0  0  0  0
  -21.5653   -3.4514   25.7734 F   0  0  0  0  0  0
  -29.9879  -13.4200   20.4156 N   0  0  0  0  0  0
  -26.2920  -12.9365   20.3323 N   0  0  0  0  0  0
  -25.9266  -11.6517   20.5753 N   0  0  0  0  0  0
  -22.0409  -12.8223   22.0423 N   0  0  0  0  0  0
  -25.4186  -15.1888   20.3911 N   0  0  0  0  0  0
  -31.8359  -14.6580   20.1718 O   0  0  0  0  0  0
  -21.6651   -6.8884   21.4247 O   0  0  0  0  0  0
  -22.3428  -14.5529   20.6699 O   0  0  0  0  0  0
  -24.6172  -31.8635   23.2008 C   0  0  0  0  0  0
  -25.9033  -32.4801   23.8382 C   0  0  1  0  0  0
  -27.2524  -27.3819   20.1396 C   0  0  0  0  0  0
  -25.5856  -33.8598   24.2297 N   0  0  0  0  0  0
  -23.4128  -30.4791   21.5368 C   0  0  2  0  0  0
  -24.8668  -28.9242   20.1235 C   0  0  0  0  0  0
  -22.7454  -29.4666   22.4959 C   0  0  0  0  0  0
  -18.0262  -28.1430   22.8466 C   0  0  0  0  0  0
  -24.1461  -36.7336   23.2640 C   0  0  0  0  0  0
  -25.9413  -30.8172   21.3546 C   0  0  0  0  0  0
  -26.0231  -29.4408   20.7178 C   0  0  0  0  0  0
  -27.2139  -28.6766   20.7197 C   0  0  0  0  0  0
  -26.0723  -26.8856   19.5392 C   0  0  0  0  0  0
  -24.8863  -27.6482   19.5323 C   0  0  0  0  0  0
  -23.6287  -29.7892   20.1602 C   0  0  0  0  0  0
  -25.4080  -36.3104   24.0327 C   0  0  1  0  0  0
  -20.5857  -28.3723   23.1286 C   0  0  2  0  0  0
  -20.6743  -26.9455   22.5394 C   0  0  0  0  0  0
  -19.5727  -26.6412   21.5185 C   0  0  0  0  0  0
  -18.1907  -26.7974   22.1603 C   0  0  0  0  0  0
  -19.1517  -28.8885   23.2873 C   0  0  0  0  0  0
  -18.9460  -30.1477   23.8908 C   0  0  0  0  0  0
  -17.6472  -30.6618   24.0586 C   0  0  0  0  0  0
  -25.9019  -34.9466   23.5116 C   0  0  0  0  0  0
  -16.5360  -29.9140   23.6325 C   0  0  0  0  0  0
  -16.7258  -28.6559   23.0338 C   0  0  0  0  0  0
  -26.4452  -31.6624   25.0752 C   0  0  0  0  0  0
  -25.3715  -31.3739   26.1507 C   0  0  0  0  0  0
  -27.0311  -30.3067   24.6167 C   0  0  0  0  0  0
  -27.6014  -32.4373   25.7520 C   0  0  0  0  0  0
  -27.5563  -37.1821   24.8458 C   0  0  0  0  0  0
  -21.4178  -29.3076   22.3703 N   0  0  0  0  0  0
  -26.4270  -37.3782   23.9406 N   0  0  0  0  0  0
  -24.6757  -31.0726   22.0885 N   0  0  0  0  0  0
  -23.4207  -28.8206   23.3017 O   0  0  0  0  0  0
  -28.4414  -26.6666   20.1971 O   0  0  0  0  0  0
  -26.5623  -34.8915   22.4696 O   0  0  0  0  0  0
  -23.5346  -32.1389   23.7369 O   0  0  0  0  0  0
  -31.5217  -21.6969   21.7366 C   0  0  0  0  0  0
  -30.5066  -22.5329   21.2580 C   0  0  0  0  0  0
  -29.1279  -20.5666   20.8587 C   0  0  0  0  0  0
  -31.3688  -20.2963   21.8036 C   0  0  0  0  0  0
  -30.1538  -19.6908   21.3484 C   0  0  0  0  0  0
  -29.2787  -21.9913   20.8334 C   0  0  0  0  0  0
  -32.6000  -18.8952   23.6986 C   0  0  0  0  0  0
  -33.4888  -20.0721   23.3809 C   0  0  0  0  0  0
  -28.8878  -16.0204   21.7249 C   0  0  0  0  0  0
  -32.5590  -19.5193   22.3204 C   0  0  0  0  0  0
  -29.9801  -18.1299   21.4506 C   0  0  1  0  0  0
  -28.6521  -17.5424   21.9240 C   0  0  2  0  0  0
  -30.3015  -17.2024   20.2325 C   0  0  0  0  0  0
  -28.2128  -17.9081   23.3507 C   0  0  0  0  0  0
  -31.7533  -17.4324   19.7515 C   0  0  0  0  0  0
  -29.3941  -17.5201   19.0192 C   0  0  0  0  0  0
  -28.5509  -25.2771   19.7879 C   0  0  0  0  0  0
  -28.1571  -24.1979   20.8450 C   0  0  0  0  0  0
  -29.9425  -15.8053   20.7046 N   0  0  0  0  0  0
  -28.2422  -22.8130   20.3931 O   0  0  0  0  0  0
  -31.4627  -12.5152   19.1244 H   0  0  0  0  0  0
  -30.3626  -11.4011   19.8706 H   0  0  0  0  0  0
  -29.7563  -11.7652   17.4648 H   0  0  0  0  0  0
  -29.6467  -13.4851   17.7379 H   0  0  0  0  0  0
  -27.8325  -11.3158   18.8146 H   0  0  0  0  0  0
  -27.3705  -12.6394   17.7787 H   0  0  0  0  0  0
  -27.6771  -14.2579   19.5489 H   0  0  0  0  0  0
  -28.7194  -11.9591   21.2623 H   0  0  0  0  0  0
  -28.4449  -13.5227   21.9060 H   0  0  0  0  0  0
  -25.2763   -9.5682   22.4778 H   0  0  0  0  0  0
  -24.0008   -7.4612   22.7457 H   0  0  0  0  0  0
  -21.0857   -8.8770   19.8914 H   0  0  0  0  0  0
  -22.3695  -10.9695   19.6192 H   0  0  0  0  0  0
  -21.2004   -7.6152   23.9710 H   0  0  0  0  0  0
  -21.1464   -6.0543   25.9098 H   0  0  0  0  0  0
  -22.0609   -2.7601   23.2856 H   0  0  0  0  0  0
  -22.3968  -11.9897   22.4880 H   0  0  0  0  0  0
  -21.1019  -13.1248   22.2593 H   0  0  0  0  0  0
  -24.6560  -15.8531   20.4671 H   0  0  0  0  0  0
  -26.2686  -15.6032   20.0306 H   0  0  0  0  0  0
  -26.7140  -32.5526   23.1200 H   0  0  0  0  0  0
  -24.9967  -33.9764   25.0420 H   0  0  0  0  0  0
  -22.7005  -31.2915   21.3759 H   0  0  0  0  0  0
  -23.3704  -35.9699   23.3323 H   0  0  0  0  0  0
  -24.3558  -36.8949   22.2057 H   0  0  0  0  0  0
  -23.7239  -37.6538   23.6677 H   0  0  0  0  0  0
  -26.0422  -31.5634   20.5664 H   0  0  0  0  0  0
  -26.8342  -30.8960   21.9643 H   0  0  0  0  0  0
  -28.1071  -29.0695   21.1856 H   0  0  0  0  0  0
  -26.0425  -25.9010   19.0982 H   0  0  0  0  0  0
  -23.9927  -27.2371   19.0822 H   0  0  0  0  0  0
  -23.7434  -30.5437   19.3806 H   0  0  0  0  0  0
  -22.7597  -29.1938   19.8713 H   0  0  0  0  0  0
  -25.1265  -36.1974   25.0822 H   0  0  0  0  0  0
  -20.9922  -28.3294   24.1426 H   0  0  0  0  0  0
  -20.5573  -26.2375   23.3616 H   0  0  0  0  0  0
  -21.6637  -26.7450   22.1257 H   0  0  0  0  0  0
  -19.6896  -25.6305   21.1257 H   0  0  0  0  0  0
  -19.6671  -27.3197   20.6685 H   0  0  0  0  0  0
  -17.4179  -26.6709   21.4007 H   0  0  0  0  0  0
  -18.0322  -26.0128   22.8997 H   0  0  0  0  0  0
  -19.7931  -30.7257   24.2339 H   0  0  0  0  0  0
  -17.5029  -31.6291   24.5207 H   0  0  0  0  0  0
  -15.5364  -30.3063   23.7602 H   0  0  0  0  0  0
  -15.8661  -28.0865   22.7065 H   0  0  0  0  0  0
  -24.5869  -30.7104   25.7849 H   0  0  0  0  0  0
  -24.8932  -32.2896   26.4985 H   0  0  0  0  0  0
  -25.8063  -30.8891   27.0255 H   0  0  0  0  0  0
  -26.2878  -29.6832   24.1169 H   0  0  0  0  0  0
  -27.4013  -29.7303   25.4656 H   0  0  0  0  0  0
  -27.8739  -30.4400   23.9380 H   0  0  0  0  0  0
  -27.2625  -33.3663   26.2115 H   0  0  0  0  0  0
  -28.3816  -32.6949   25.0353 H   0  0  0  0  0  0
  -28.0713  -31.8511   26.5431 H   0  0  0  0  0  0
  -28.2582  -38.0106   24.7489 H   0  0  0  0  0  0
  -28.1056  -36.2645   24.6306 H   0  0  0  0  0  0
  -27.2315  -37.1505   25.8866 H   0  0  0  0  0  0
  -20.9384  -29.8875   21.6962 H   0  0  0  0  0  0
  -26.0169  -38.2863   24.1383 H   0  0  0  0  0  0
  -32.4414  -22.1585   22.0662 H   0  0  0  0  0  0
  -30.7077  -23.5953   21.2259 H   0  0  0  0  0  0
  -28.1976  -20.1423   20.5117 H   0  0  0  0  0  0
  -31.7679  -19.0727   24.3758 H   0  0  0  0  0  0
  -33.0930  -17.9307   23.8059 H   0  0  0  0  0  0
  -34.5521  -19.8761   23.2469 H   0  0  0  0  0  0
  -33.2459  -21.0125   23.8698 H   0  0  0  0  0  0
  -27.9457  -15.5699   21.4275 H   0  0  0  0  0  0
  -29.2027  -15.5586   22.6612 H   0  0  0  0  0  0
  -33.0673  -19.0152   21.5052 H   0  0  0  0  0  0
  -30.6694  -17.8233   22.2322 H   0  0  0  0  0  0
  -27.8546  -17.8688   21.2549 H   0  0  0  0  0  0
  -28.9448  -17.5966   24.0959 H   0  0  0  0  0  0
  -27.2705  -17.4164   23.5970 H   0  0  0  0  0  0
  -28.0614  -18.9817   23.4642 H   0  0  0  0  0  0
  -31.9134  -18.4785   19.4806 H   0  0  0  0  0  0
  -31.9921  -16.8454   18.8646 H   0  0  0  0  0  0
  -32.4742  -17.1660   20.5230 H   0  0  0  0  0  0
  -29.4404  -18.5734   18.7416 H   0  0  0  0  0  0
  -28.3466  -17.2865   19.2044 H   0  0  0  0  0  0
  -29.6882  -16.9385   18.1461 H   0  0  0  0  0  0
  -28.0541  -25.1020   18.8353 H   0  0  0  0  0  0
  -29.6117  -25.1288   19.5828 H   0  0  0  0  0  0
  -27.1241  -24.3648   21.1473 H   0  0  0  0  0  0
  -28.7313  -24.3611   21.7569 H   0  0  0  0  0  0
  1 25  1  0  0  0
  1 30  2  0  0  0
  1 89  1  0  0  0
  2  3  1  0  0  0
  2 25  1  0  0  0
  2 91  1  0  0  0
  2 92  1  0  0  0
  3  4  1  0  0  0
  3 93  1  0  0  0
  3 94  1  0  0  0
  4  5  1  0  0  0
  4 95  1  0  0  0
  4 96  1  0  0  0
  5  6  1  0  0  0
  5 26  1  0  0  0
  5 97  1  0  0  0
  6 25  1  0  0  0
  6 98  1  0  0  0
  6 99  1  0  0  0
  7  8  2  0  0  0
  7 26  1  0  0  0
  7 29  1  0  0  0
  8  9  1  0  0  0
  8 22  1  0  0  0
  9 10  1  0  0  0
  9 27  2  0  0  0
 10 11  2  0  0  0
 10 15  1  0  0  0
 11 12  1  0  0  0
 11100  1  0  0  0
 12 13  2  0  0  0
 12101  1  0  0  0
 13 14  1  0  0  0
 13 31  1  0  0  0
 14 15  2  0  0  0
 14102  1  0  0  0
 15103  1  0  0  0
 16 17  2  0  0  0
 16 21  1  0  0  0
 16 31  1  0  0  0
 17 18  1  0  0  0
 17104  1  0  0  0
 18 19  2  0  0  0
 18105  1  0  0  0
 19 20  1  0  0  0
 19 24  1  0  0  0
 20 21  2  0  0  0
 20106  1  0  0  0
 21 23  1  0  0  0
 22 28  1  0  0  0
 22 32  2  0  0  0
 26 27  1  0  0  0
 28107  1  0  0  0
 28108  1  0  0  0
 29109  1  0  0  0
 29110  1  0  0  0
 33 34  1  0  0  0
 33 66  1  0  0  0
 33 70  2  0  0  0
 34 36  1  0  0  0
 34 59  1  0  0  0
 34111  1  0  0  0
 35 44  2  0  0  0
 35 45  1  0  0  0
 35 68  1  0  0  0
 36 56  1  0  0  0
 36112  1  0  0  0
 37 39  1  0  0  0
 37 47  1  0  0  0
 37 66  1  0  0  0
 37113  1  0  0  0
 38 43  2  0  0  0
 38 46  1  0  0  0
 38 47  1  0  0  0
 39 64  1  0  0  0
 39 67  2  0  0  0
 40 52  1  0  0  0
 40 53  2  0  0  0
 40 58  1  0  0  0
 41114  1  0  0  0
 41115  1  0  0  0
 41116  1  0  0  0
 41 48  1  0  0  0
 42 43  1  0  0  0
 42 66  1  0  0  0
 42117  1  0  0  0
 42118  1  0  0  0
 43 44  1  0  0  0
 44119  1  0  0  0
 45 46  2  0  0  0
 45120  1  0  0  0
 46121  1  0  0  0
 47122  1  0  0  0
 47123  1  0  0  0
 48 56  1  0  0  0
 48 65  1  0  0  0
 48124  1  0  0  0
 49 50  1  0  0  0
 49 53  1  0  0  0
 49 64  1  0  0  0
 49125  1  0  0  0
 50 51  1  0  0  0
 50126  1  0  0  0
 50127  1  0  0  0
 51 52  1  0  0  0
 51128  1  0  0  0
 51129  1  0  0  0
 52130  1  0  0  0
 52131  1  0  0  0
 53 54  1  0  0  0
 54 55  2  0  0  0
 54132  1  0  0  0
 55 57  1  0  0  0
 55133  1  0  0  0
 56 69  2  0  0  0
 57 58  2  0  0  0
 57134  1  0  0  0
 58135  1  0  0  0
 59 60  1  0  0  0
 59 61  1  0  0  0
 59 62  1  0  0  0
 60136  1  0  0  0
 60137  1  0  0  0
 60138  1  0  0  0
 61139  1  0  0  0
 61140  1  0  0  0
 61141  1  0  0  0
 62142  1  0  0  0
 62143  1  0  0  0
 62144  1  0  0  0
 63 65  1  0  0  0
 63145  1  0  0  0
 63146  1  0  0  0
 63147  1  0  0  0
 64148  1  0  0  0
 65149  1  0  0  0
 68 87  1  0  0  0
 71 72  2  0  0  0
 71 74  1  0  0  0
 71150  1  0  0  0
 72 76  1  0  0  0
 72151  1  0  0  0
 73 75  1  0  0  0
 73 76  2  0  0  0
 73152  1  0  0  0
 74 75  2  0  0  0
 74 80  1  0  0  0
 75 81  1  0  0  0
 76 90  1  0  0  0
 77 78  1  0  0  0
 77 80  1  0  0  0
 77153  1  0  0  0
 77154  1  0  0  0
 78 80  1  0  0  0
 78155  1  0  0  0
 78156  1  0  0  0
 79 82  1  0  0  0
 79 89  1  0  0  0
 79157  1  0  0  0
 79158  1  0  0  0
 80159  1  0  0  0
 81 82  1  0  0  0
 81 83  1  0  0  0
 81160  1  0  0  0
 82 84  1  0  0  0
 82161  1  0  0  0
 83 85  1  0  0  0
 83 86  1  0  0  0
 83 89  1  0  0  0
 84162  1  0  0  0
 84163  1  0  0  0
 84164  1  0  0  0
 85165  1  0  0  0
 85166  1  0  0  0
 85167  1  0  0  0
 86168  1  0  0  0
 86169  1  0  0  0
 86170  1  0  0  0
 87 88  1  0  0  0
 87171  1  0  0  0
 87172  1  0  0  0
 88 90  1  0  0  0
 88173  1  0  0  0
 88174  1  0  0  0
M  ISO  4   1 100  68 101  87 101  89 100
M  END
> <chiral flag>
0

> <version>
0

> <s_m_source_file>
/data/baiqing/PycharmProjects/Reinvent-master-3.2/result/LINK_invent/BTK/process_docking_weight1_custom_sum_contain_oxygen_bond_distance_aromatic_linkinvent_7_9_3/rearranged_h_0153.sdf

> <i_m_source_file_index>
96

> <r_mmod_Potential_Energy-OPLS-2005>
358.002044677734

> <r_mmod_Stretch_Energy-OPLS-2005>
74.8926315307617

> <r_mmod_Bend_Energy-OPLS-2005>
204.287734985352

> <r_mmod_Torsional_Energy-OPLS-2005>
345.606903076172

> <r_mmod_Improper_Torsional_Energy-OPLS-2005>
10.1724147796631

> <r_mmod_Van_der_Waal_Energy-OPLS-2005>
153.946853637695

> <r_mmod_Electrostatic_Energy-OPLS-2005>
-279.672637939453

> <r_mmod_Solvation_Energy-OPLS-2005>
-185.491775512695

> <b_mmod_Minimization_Converged-OPLS-2005>
0

> <r_mmod_RMS_Derivative-OPLS-2005>
5.17976522445679

$$$$
97
                    3D
 Structure written by MMmdl.
164173  0  0  1  0            999 V2000
  -30.7298  -14.4420   20.6420 C   0  0  0  0  0  0
  -30.4200  -12.3219   19.4116 C   0  0  0  0  0  0
  -29.4843  -12.5296   18.2033 C   0  0  0  0  0  0
  -28.0080  -12.3796   18.6166 C   0  0  0  0  0  0
  -27.6604  -13.2066   19.8815 C   0  0  2  0  0  0
  -28.7028  -12.9800   20.9998 C   0  0  0  0  0  0
  -25.2570  -13.8153   20.5654 C   0  0  0  0  0  0
  -24.1811  -13.0436   20.9181 C   0  0  0  0  0  0
  -24.6356  -11.6909   20.8723 C   0  0  0  0  0  0
  -23.9004  -10.4304   21.0370 C   0  0  0  0  0  0
  -24.3565   -9.4245   21.9161 C   0  0  0  0  0  0
  -23.6264   -8.2267   22.0742 C   0  0  0  0  0  0
  -22.4259   -8.0275   21.3523 C   0  0  0  0  0  0
  -21.9865   -9.0244   20.4636 C   0  0  0  0  0  0
  -22.7166  -10.2136   20.3038 C   0  0  0  0  0  0
  -21.6864   -6.0715   22.5278 C   0  0  0  0  0  0
  -21.4014   -6.5621   23.8208 C   0  0  0  0  0  0
  -21.3660   -5.6772   24.9170 C   0  0  0  0  0  0
  -21.6048   -4.3036   24.7222 C   0  0  0  0  0  0
  -21.8825   -3.8126   23.4346 C   0  0  0  0  0  0
  -21.9195   -4.6939   22.3399 C   0  0  0  0  0  0
  -22.7845  -13.5277   21.1831 C   0  0  0  0  0  0
  -22.1664   -4.2126   21.0974 F   0  0  0  0  0  0
  -21.5624   -3.4521   25.7732 F   0  0  0  0  0  0
  -30.0354  -13.2874   20.4539 N   0  0  0  0  0  0
  -26.3010  -12.9324   20.3414 N   0  0  0  0  0  0
  -25.9288  -11.6486   20.5770 N   0  0  0  0  0  0
  -22.0446  -12.8296   22.0393 N   0  0  0  0  0  0
  -25.4266  -15.1837   20.4002 N   0  0  0  0  0  0
  -31.8081  -14.6778   20.0928 O   0  0  0  0  0  0
  -21.6643   -6.8856   21.4236 O   0  0  0  0  0  0
  -22.3558  -14.5591   20.6692 O   0  0  0  0  0  0
  -24.6137  -31.8689   23.2114 C   0  0  0  0  0  0
  -25.9022  -32.4858   23.8374 C   0  0  1  0  0  0
  -27.2304  -27.4312   20.1050 C   0  0  0  0  0  0
  -25.5880  -33.8643   24.2308 N   0  0  0  0  0  0
  -23.4009  -30.4941   21.5542 C   0  0  2  0  0  0
  -24.8468  -28.9558   20.1184 C   0  0  0  0  0  0
  -22.7402  -29.4683   22.5030 C   0  0  0  0  0  0
  -18.0290  -28.1371   22.8512 C   0  0  0  0  0  0
  -24.1486  -36.7311   23.2642 C   0  0  0  0  0  0
  -25.9301  -30.8331   21.3642 C   0  0  0  0  0  0
  -26.0088  -29.4672   20.7117 C   0  0  0  0  0  0
  -27.2053  -28.7123   20.7016 C   0  0  0  0  0  0
  -26.0556  -26.9404   19.4946 C   0  0  0  0  0  0
  -24.8637  -27.6899   19.5065 C   0  0  0  0  0  0
  -23.6088  -29.8235   20.1706 C   0  0  0  0  0  0
  -25.4124  -36.3152   24.0345 C   0  0  1  0  0  0
  -20.5866  -28.3659   23.1347 C   0  0  2  0  0  0
  -20.6778  -26.9390   22.5436 C   0  0  0  0  0  0
  -19.5765  -26.6352   21.5227 C   0  0  0  0  0  0
  -18.1955  -26.7909   22.1653 C   0  0  0  0  0  0
  -19.1524  -28.8851   23.2927 C   0  0  0  0  0  0
  -18.9437  -30.1461   23.8922 C   0  0  0  0  0  0
  -17.6441  -30.6609   24.0569 C   0  0  0  0  0  0
  -25.9037  -34.9503   23.5131 C   0  0  0  0  0  0
  -16.5343  -29.9089   23.6341 C   0  0  0  0  0  0
  -16.7277  -28.6498   23.0366 C   0  0  0  0  0  0
  -26.4427  -31.6637   25.0696 C   0  0  0  0  0  0
  -25.3654  -31.3724   26.1409 C   0  0  0  0  0  0
  -27.0240  -30.3100   24.6022 C   0  0  0  0  0  0
  -27.6034  -32.4330   25.7428 C   0  0  0  0  0  0
  -27.5605  -37.1826   24.8475 C   0  0  0  0  0  0
  -21.4145  -29.3031   22.3746 N   0  0  0  0  0  0
  -26.4330  -37.3832   23.9403 N   0  0  0  0  0  0
  -24.6671  -31.0769   22.1035 N   0  0  0  0  0  0
  -23.4180  -28.8237   23.3090 O   0  0  0  0  0  0
  -28.3837  -26.6734   20.1162 O   0  0  0  0  0  0
  -26.5600  -34.8957   22.4690 O   0  0  0  0  0  0
  -23.5336  -32.1414   23.7540 O   0  0  0  0  0  0
  -29.5065  -21.6783   21.1804 C   0  0  0  0  0  0
  -28.0847  -19.4080   20.3785 C   0  0  0  0  0  0
  -27.7061  -20.6810   19.9469 C   0  0  0  0  0  0
  -29.8772  -20.3892   21.6630 C   0  0  0  0  0  0
  -29.1846  -19.2070   21.2500 C   0  0  0  0  0  0
  -28.4059  -21.8495   20.3070 C   0  0  0  0  0  0
  -27.1559  -18.3618   19.8116 C   0  0  0  0  0  0
  -26.4789  -20.6356   19.0747 C   0  0  0  0  0  0
  -26.0807  -19.1452   19.0357 C   0  0  0  0  0  0
  -31.0243  -20.3163   22.6578 C   0  0  0  0  0  0
  -29.5674  -17.8072   21.8052 C   0  0  0  0  0  0
  -29.5825  -16.5959   20.8282 C   0  0  0  0  0  0
  -28.2637  -25.3517   20.6890 C   0  0  0  0  0  0
  -28.7886  -24.2237   19.7657 C   0  0  0  0  0  0
  -30.1503  -15.3712   21.4185 N   0  0  0  0  0  0
  -27.9461  -23.0594   19.8126 O   0  0  0  0  0  0
  -31.4614  -12.4361   19.1027 H   0  0  0  0  0  0
  -30.3333  -11.3055   19.7981 H   0  0  0  0  0  0
  -29.7282  -11.8164   17.4161 H   0  0  0  0  0  0
  -29.6434  -13.5232   17.7782 H   0  0  0  0  0  0
  -27.8193  -11.3210   18.7959 H   0  0  0  0  0  0
  -27.3552  -12.6664   17.7903 H   0  0  0  0  0  0
  -27.7078  -14.2548   19.5916 H   0  0  0  0  0  0
  -28.6840  -11.9426   21.3346 H   0  0  0  0  0  0
  -28.4576  -13.5746   21.8798 H   0  0  0  0  0  0
  -25.2697   -9.5762   22.4742 H   0  0  0  0  0  0
  -23.9985   -7.4675   22.7461 H   0  0  0  0  0  0
  -21.0800   -8.8750   19.8951 H   0  0  0  0  0  0
  -22.3591  -10.9669   19.6160 H   0  0  0  0  0  0
  -21.2004   -7.6128   23.9708 H   0  0  0  0  0  0
  -21.1479   -6.0494   25.9072 H   0  0  0  0  0  0
  -22.0598   -2.7593   23.2845 H   0  0  0  0  0  0
  -22.4010  -11.9988   22.4871 H   0  0  0  0  0  0
  -21.1056  -13.1354   22.2534 H   0  0  0  0  0  0
  -24.6556  -15.8360   20.4924 H   0  0  0  0  0  0
  -26.2780  -15.6134   20.0677 H   0  0  0  0  0  0
  -26.7103  -32.5606   23.1150 H   0  0  0  0  0  0
  -25.0108  -33.9763   25.0504 H   0  0  0  0  0  0
  -22.6904  -31.3141   21.4187 H   0  0  0  0  0  0
  -23.3786  -35.9614   23.3340 H   0  0  0  0  0  0
  -24.3605  -36.8870   22.2058 H   0  0  0  0  0  0
  -23.7165  -37.6498   23.6616 H   0  0  0  0  0  0
  -26.0360  -31.5988   20.5946 H   0  0  0  0  0  0
  -26.8202  -30.8900   21.9785 H   0  0  0  0  0  0
  -28.0998  -29.0986   21.1704 H   0  0  0  0  0  0
  -26.0614  -25.9734   19.0121 H   0  0  0  0  0  0
  -23.9702  -27.2900   19.0455 H   0  0  0  0  0  0
  -23.7198  -30.5943   19.4075 H   0  0  0  0  0  0
  -22.7280  -29.2454   19.8825 H   0  0  0  0  0  0
  -25.1302  -36.2057   25.0847 H   0  0  0  0  0  0
  -20.9975  -28.3222   24.1456 H   0  0  0  0  0  0
  -20.5743  -26.2249   23.3627 H   0  0  0  0  0  0
  -21.6636  -26.7473   22.1205 H   0  0  0  0  0  0
  -19.6924  -25.6259   21.1244 H   0  0  0  0  0  0
  -19.6684  -27.3180   20.6764 H   0  0  0  0  0  0
  -17.4219  -26.6694   21.4063 H   0  0  0  0  0  0
  -18.0351  -26.0035   22.9035 H   0  0  0  0  0  0
  -19.7913  -30.7276   24.2296 H   0  0  0  0  0  0
  -17.4989  -31.6308   24.5138 H   0  0  0  0  0  0
  -15.5340  -30.2982   23.7656 H   0  0  0  0  0  0
  -15.8684  -28.0810   22.7060 H   0  0  0  0  0  0
  -24.5846  -30.7065   25.7691 H   0  0  0  0  0  0
  -24.8793  -32.2865   26.4843 H   0  0  0  0  0  0
  -25.7953  -30.8871   27.0169 H   0  0  0  0  0  0
  -26.2751  -29.6909   24.1060 H   0  0  0  0  0  0
  -27.4019  -29.7310   25.4451 H   0  0  0  0  0  0
  -27.8591  -30.4472   23.9149 H   0  0  0  0  0  0
  -27.2701  -33.3648   26.2015 H   0  0  0  0  0  0
  -28.3812  -32.6851   25.0200 H   0  0  0  0  0  0
  -28.0713  -31.8416   26.5303 H   0  0  0  0  0  0
  -28.2658  -38.0096   24.7558 H   0  0  0  0  0  0
  -28.1070  -36.2634   24.6298 H   0  0  0  0  0  0
  -27.2321  -37.1471   25.8878 H   0  0  0  0  0  0
  -20.9329  -29.8703   21.6904 H   0  0  0  0  0  0
  -26.0249  -38.2935   24.1368 H   0  0  0  0  0  0
  -30.0606  -22.5435   21.5176 H   0  0  0  0  0  0
  -26.7200  -17.7531   20.6080 H   0  0  0  0  0  0
  -27.7012  -17.7214   19.1182 H   0  0  0  0  0  0
  -26.7201  -21.0198   18.0822 H   0  0  0  0  0  0
  -25.6813  -21.2441   19.5030 H   0  0  0  0  0  0
  -25.1064  -18.9985   19.5040 H   0  0  0  0  0  0
  -26.0011  -18.7873   18.0083 H   0  0  0  0  0  0
  -31.3101  -21.3063   23.0147 H   0  0  0  0  0  0
  -31.9021  -19.8586   22.2015 H   0  0  0  0  0  0
  -30.7429  -19.7347   23.5355 H   0  0  0  0  0  0
  -28.8857  -17.5901   22.6285 H   0  0  0  0  0  0
  -30.5596  -17.8515   22.2514 H   0  0  0  0  0  0
  -30.1238  -16.8653   19.9186 H   0  0  0  0  0  0
  -28.5722  -16.3243   20.5400 H   0  0  0  0  0  0
  -28.8039  -25.3289   21.6345 H   0  0  0  0  0  0
  -27.2318  -25.1351   20.9678 H   0  0  0  0  0  0
  -29.8489  -24.0217   19.9230 H   0  0  0  0  0  0
  -28.7226  -24.5822   18.7382 H   0  0  0  0  0  0
  -30.7274  -15.5850   22.2199 H   0  0  0  0  0  0
  1 25  1  0  0  0
  1 30  2  0  0  0
  1 85  1  0  0  0
  2  3  1  0  0  0
  2 25  1  0  0  0
  2 87  1  0  0  0
  2 88  1  0  0  0
  3  4  1  0  0  0
  3 89  1  0  0  0
  3 90  1  0  0  0
  4  5  1  0  0  0
  4 91  1  0  0  0
  4 92  1  0  0  0
  5  6  1  0  0  0
  5 26  1  0  0  0
  5 93  1  0  0  0
  6 25  1  0  0  0
  6 94  1  0  0  0
  6 95  1  0  0  0
  7  8  2  0  0  0
  7 26  1  0  0  0
  7 29  1  0  0  0
  8  9  1  0  0  0
  8 22  1  0  0  0
  9 10  1  0  0  0
  9 27  2  0  0  0
 10 11  2  0  0  0
 10 15  1  0  0  0
 11 12  1  0  0  0
 11 96  1  0  0  0
 12 13  2  0  0  0
 12 97  1  0  0  0
 13 14  1  0  0  0
 13 31  1  0  0  0
 14 15  2  0  0  0
 14 98  1  0  0  0
 15 99  1  0  0  0
 16 17  2  0  0  0
 16 21  1  0  0  0
 16 31  1  0  0  0
 17 18  1  0  0  0
 17100  1  0  0  0
 18 19  2  0  0  0
 18101  1  0  0  0
 19 20  1  0  0  0
 19 24  1  0  0  0
 20 21  2  0  0  0
 20102  1  0  0  0
 21 23  1  0  0  0
 22 28  1  0  0  0
 22 32  2  0  0  0
 26 27  1  0  0  0
 28103  1  0  0  0
 28104  1  0  0  0
 29105  1  0  0  0
 29106  1  0  0  0
 33 34  1  0  0  0
 33 66  1  0  0  0
 33 70  2  0  0  0
 34 36  1  0  0  0
 34 59  1  0  0  0
 34107  1  0  0  0
 35 44  2  0  0  0
 35 45  1  0  0  0
 35 68  1  0  0  0
 36 56  1  0  0  0
 36108  1  0  0  0
 37 39  1  0  0  0
 37 47  1  0  0  0
 37 66  1  0  0  0
 37109  1  0  0  0
 38 43  2  0  0  0
 38 46  1  0  0  0
 38 47  1  0  0  0
 39 64  1  0  0  0
 39 67  2  0  0  0
 40 52  1  0  0  0
 40 53  2  0  0  0
 40 58  1  0  0  0
 41110  1  0  0  0
 41111  1  0  0  0
 41112  1  0  0  0
 41 48  1  0  0  0
 42 43  1  0  0  0
 42 66  1  0  0  0
 42113  1  0  0  0
 42114  1  0  0  0
 43 44  1  0  0  0
 44115  1  0  0  0
 45 46  2  0  0  0
 45116  1  0  0  0
 46117  1  0  0  0
 47118  1  0  0  0
 47119  1  0  0  0
 48 56  1  0  0  0
 48 65  1  0  0  0
 48120  1  0  0  0
 49 50  1  0  0  0
 49 53  1  0  0  0
 49 64  1  0  0  0
 49121  1  0  0  0
 50 51  1  0  0  0
 50122  1  0  0  0
 50123  1  0  0  0
 51 52  1  0  0  0
 51124  1  0  0  0
 51125  1  0  0  0
 52126  1  0  0  0
 52127  1  0  0  0
 53 54  1  0  0  0
 54 55  2  0  0  0
 54128  1  0  0  0
 55 57  1  0  0  0
 55129  1  0  0  0
 56 69  2  0  0  0
 57 58  2  0  0  0
 57130  1  0  0  0
 58131  1  0  0  0
 59 60  1  0  0  0
 59 61  1  0  0  0
 59 62  1  0  0  0
 60132  1  0  0  0
 60133  1  0  0  0
 60134  1  0  0  0
 61135  1  0  0  0
 61136  1  0  0  0
 61137  1  0  0  0
 62138  1  0  0  0
 62139  1  0  0  0
 62140  1  0  0  0
 63 65  1  0  0  0
 63141  1  0  0  0
 63142  1  0  0  0
 63143  1  0  0  0
 64144  1  0  0  0
 65145  1  0  0  0
 68 83  1  0  0  0
 71 74  2  0  0  0
 71 76  1  0  0  0
 71146  1  0  0  0
 72 73  1  0  0  0
 72 75  2  0  0  0
 72 77  1  0  0  0
 73 76  2  0  0  0
 73 78  1  0  0  0
 74 75  1  0  0  0
 74 80  1  0  0  0
 75 81  1  0  0  0
 76 86  1  0  0  0
 77 79  1  0  0  0
 77147  1  0  0  0
 77148  1  0  0  0
 78 79  1  0  0  0
 78149  1  0  0  0
 78150  1  0  0  0
 79151  1  0  0  0
 79152  1  0  0  0
 80153  1  0  0  0
 80154  1  0  0  0
 80155  1  0  0  0
 81 82  1  0  0  0
 81156  1  0  0  0
 81157  1  0  0  0
 82 85  1  0  0  0
 82158  1  0  0  0
 82159  1  0  0  0
 83 84  1  0  0  0
 83160  1  0  0  0
 83161  1  0  0  0
 84 86  1  0  0  0
 84162  1  0  0  0
 84163  1  0  0  0
 85164  1  0  0  0
M  ISO  4   1 100  68 101  83 101  85 100
M  END
> <chiral flag>
0

> <version>
0

> <s_m_source_file>
/data/baiqing/PycharmProjects/Reinvent-master-3.2/result/LINK_invent/BTK/process_docking_weight1_custom_sum_contain_oxygen_bond_distance_aromatic_linkinvent_7_9_3/rearranged_h_0153.sdf

> <i_m_source_file_index>
97

> <r_mmod_Potential_Energy-OPLS-2005>
53.4827651977539

> <r_mmod_Stretch_Energy-OPLS-2005>
42.599292755127

> <r_mmod_Bend_Energy-OPLS-2005>
150.480590820312

> <r_mmod_Torsional_Energy-OPLS-2005>
307.143615722656

> <r_mmod_Improper_Torsional_Energy-OPLS-2005>
6.82223606109619

> <r_mmod_Van_der_Waal_Energy-OPLS-2005>
149.257629394531

> <r_mmod_Electrostatic_Energy-OPLS-2005>
-403.077972412109

> <r_mmod_Solvation_Energy-OPLS-2005>
-210.720428466797

> <b_mmod_Minimization_Converged-OPLS-2005>
0

> <r_mmod_RMS_Derivative-OPLS-2005>
3.41930055618286

$$$$
