1
                    3D
 Structure written by MMmdl.
167175  0  0  1  0            999 V2000
  -30.7375  -14.5312   20.6051 C   0  0  0  0  0  0
  -30.4320  -12.3404   19.4637 C   0  0  0  0  0  0
  -29.5143  -12.5137   18.2376 C   0  0  0  0  0  0
  -28.0344  -12.3512   18.6399 C   0  0  0  0  0  0
  -27.6575  -13.2282   19.8616 C   0  0  2  0  0  0
  -28.6936  -13.0639   20.9928 C   0  0  0  0  0  0
  -25.2548  -13.8312   20.5716 C   0  0  0  0  0  0
  -24.1802  -13.0597   20.9212 C   0  0  0  0  0  0
  -24.6334  -11.7037   20.8720 C   0  0  0  0  0  0
  -23.8994  -10.4421   21.0372 C   0  0  0  0  0  0
  -24.3596   -9.4356   21.9139 C   0  0  0  0  0  0
  -23.6335   -8.2351   22.0717 C   0  0  0  0  0  0
  -22.4300   -8.0341   21.3539 C   0  0  0  0  0  0
  -21.9915   -9.0283   20.4608 C   0  0  0  0  0  0
  -22.7177  -10.2201   20.3012 C   0  0  0  0  0  0
  -21.6866   -6.0790   22.5288 C   0  0  0  0  0  0
  -21.3997   -6.5676   23.8220 C   0  0  0  0  0  0
  -21.3660   -5.6802   24.9175 C   0  0  0  0  0  0
  -21.6043   -4.3068   24.7194 C   0  0  0  0  0  0
  -21.8815   -3.8180   23.4308 C   0  0  0  0  0  0
  -21.9214   -4.7022   22.3391 C   0  0  0  0  0  0
  -22.7796  -13.5333   21.1905 C   0  0  0  0  0  0
  -22.1692   -4.2234   21.0957 F   0  0  0  0  0  0
  -21.5645   -3.4539   25.7699 F   0  0  0  0  0  0
  -30.0393  -13.3589   20.4639 N   0  0  0  0  0  0
  -26.2981  -12.9503   20.3281 N   0  0  0  0  0  0
  -25.9268  -11.6658   20.5724 N   0  0  0  0  0  0
  -22.0414  -12.8296   22.0411 N   0  0  0  0  0  0
  -25.4335  -15.2050   20.4192 N   0  0  0  0  0  0
  -31.8035  -14.7178   20.0172 O   0  0  0  0  0  0
  -21.6676   -6.8932   21.4247 O   0  0  0  0  0  0
  -22.3465  -14.5636   20.6741 O   0  0  0  0  0  0
  -24.6244  -31.8630   23.2007 C   0  0  0  0  0  0
  -25.9103  -32.4788   23.8368 C   0  0  1  0  0  0
  -27.2329  -27.3483   20.0941 C   0  0  0  0  0  0
  -25.5927  -33.8600   24.2273 N   0  0  0  0  0  0
  -23.4162  -30.4863   21.5382 C   0  0  2  0  0  0
  -24.8651  -28.9373   20.1092 C   0  0  0  0  0  0
  -22.7449  -29.4668   22.4886 C   0  0  0  0  0  0
  -18.0287  -28.1390   22.8490 C   0  0  0  0  0  0
  -24.1509  -36.7321   23.2626 C   0  0  0  0  0  0
  -25.9536  -30.7993   21.3704 C   0  0  0  0  0  0
  -26.0288  -29.4267   20.7145 C   0  0  0  0  0  0
  -27.2127  -28.6367   20.7071 C   0  0  0  0  0  0
  -26.0465  -26.9011   19.4744 C   0  0  0  0  0  0
  -24.8730  -27.6812   19.4837 C   0  0  0  0  0  0
  -23.6308  -29.8134   20.1557 C   0  0  0  0  0  0
  -25.4129  -36.3101   24.0304 C   0  0  1  0  0  0
  -20.5886  -28.3730   23.1258 C   0  0  2  0  0  0
  -20.6777  -26.9455   22.5398 C   0  0  0  0  0  0
  -19.5757  -26.6394   21.5197 C   0  0  0  0  0  0
  -18.1928  -26.7927   22.1612 C   0  0  0  0  0  0
  -19.1539  -28.8863   23.2876 C   0  0  0  0  0  0
  -18.9472  -30.1442   23.8934 C   0  0  0  0  0  0
  -17.6471  -30.6598   24.0564 C   0  0  0  0  0  0
  -25.9063  -34.9468   23.5085 C   0  0  0  0  0  0
  -16.5359  -29.9120   23.6313 C   0  0  0  0  0  0
  -16.7278  -28.6511   23.0372 C   0  0  0  0  0  0
  -26.4484  -31.6606   25.0730 C   0  0  0  0  0  0
  -25.3715  -31.3738   26.1447 C   0  0  0  0  0  0
  -27.0338  -30.3040   24.6181 C   0  0  0  0  0  0
  -27.6070  -32.4315   25.7521 C   0  0  0  0  0  0
  -27.5575  -37.1808   24.8438 C   0  0  0  0  0  0
  -21.4167  -29.3089   22.3645 N   0  0  0  0  0  0
  -26.4291  -37.3784   23.9384 N   0  0  0  0  0  0
  -24.6819  -31.0658   22.0934 N   0  0  0  0  0  0
  -23.4176  -28.8192   23.2951 O   0  0  0  0  0  0
  -28.3808  -26.5532   20.1487 O   0  0  0  0  0  0
  -26.5636  -34.8917   22.4651 O   0  0  0  0  0  0
  -23.5406  -32.1434   23.7340 O   0  0  0  0  0  0
  -30.9655  -22.7650   19.5849 C   0  0  0  0  0  0
  -30.2578  -20.7983   19.8362 C   0  0  0  0  0  0
  -28.7476  -19.0390   18.8888 C   0  0  0  0  0  0
  -31.7129  -18.1016   20.3770 C   0  0  0  0  0  0
  -30.2977  -18.6259   22.3796 C   0  0  0  0  0  0
  -30.2161  -15.4315   22.7965 C   0  0  0  0  0  0
  -27.9098  -23.9368   19.8341 C   0  0  0  0  0  0
  -28.7029  -22.8148   20.6552 C   0  0  0  0  0  0
  -29.5719  -16.7934   20.7389 C   0  0  0  0  0  0
  -28.5215  -25.3246   19.3613 C   0  0  0  0  0  0
  -29.4785  -19.4813   20.1693 C   0  0  1  0  0  0
  -30.2628  -18.2409   20.8838 C   0  0  0  0  0  0
  -31.9048  -22.0059   19.0311 N   0  0  0  0  0  0
  -31.4140  -20.7361   19.1438 N   0  0  0  0  0  0
  -29.8701  -22.1209   20.0351 N   0  0  0  0  0  0
  -30.1698  -15.5411   21.3364 N   0  0  0  0  0  0
  -31.4815  -12.4321   19.1706 H   0  0  0  0  0  0
  -30.3359  -11.3347   19.8767 H   0  0  0  0  0  0
  -29.7805  -11.7878   17.4688 H   0  0  0  0  0  0
  -29.6651  -13.5061   17.8098 H   0  0  0  0  0  0
  -27.8685  -11.3002   18.8807 H   0  0  0  0  0  0
  -27.3811  -12.5795   17.7982 H   0  0  0  0  0  0
  -27.6880  -14.2692   19.5328 H   0  0  0  0  0  0
  -28.6650  -12.0445   21.3783 H   0  0  0  0  0  0
  -28.4171  -13.7067   21.8267 H   0  0  0  0  0  0
  -25.2756   -9.5941   22.4676 H   0  0  0  0  0  0
  -24.0166   -7.4761   22.7393 H   0  0  0  0  0  0
  -21.0888   -8.8703   19.8876 H   0  0  0  0  0  0
  -22.3576  -10.9712   19.6105 H   0  0  0  0  0  0
  -21.1904   -7.6159   23.9759 H   0  0  0  0  0  0
  -21.1490   -6.0497   25.9089 H   0  0  0  0  0  0
  -22.0562   -2.7650   23.2730 H   0  0  0  0  0  0
  -22.4099  -12.0045   22.4933 H   0  0  0  0  0  0
  -21.0947  -13.1201   22.2483 H   0  0  0  0  0  0
  -24.6711  -15.8660   20.5164 H   0  0  0  0  0  0
  -26.2945  -15.6374   20.1081 H   0  0  0  0  0  0
  -26.7166  -32.5472   23.1132 H   0  0  0  0  0  0
  -25.0042  -33.9788   25.0400 H   0  0  0  0  0  0
  -22.7066  -31.3039   21.3875 H   0  0  0  0  0  0
  -23.3753  -35.9661   23.3283 H   0  0  0  0  0  0
  -24.3558  -36.8980   22.2029 H   0  0  0  0  0  0
  -23.7317  -37.6526   23.6694 H   0  0  0  0  0  0
  -26.0719  -31.5599   20.5968 H   0  0  0  0  0  0
  -26.8379  -30.8598   21.9940 H   0  0  0  0  0  0
  -28.1109  -29.0033   21.1855 H   0  0  0  0  0  0
  -25.9958  -25.9328   18.9977 H   0  0  0  0  0  0
  -23.9778  -27.3056   19.0058 H   0  0  0  0  0  0
  -23.7460  -30.5826   19.3927 H   0  0  0  0  0  0
  -22.7574  -29.2329   19.8542 H   0  0  0  0  0  0
  -25.1319  -36.1922   25.0787 H   0  0  0  0  0  0
  -20.9984  -28.3355   24.1381 H   0  0  0  0  0  0
  -20.5651  -26.2374   23.3618 H   0  0  0  0  0  0
  -21.6654  -26.7454   22.1226 H   0  0  0  0  0  0
  -19.6935  -25.6296   21.1256 H   0  0  0  0  0  0
  -19.6700  -27.3180   20.6692 H   0  0  0  0  0  0
  -17.4198  -26.6683   21.4014 H   0  0  0  0  0  0
  -18.0344  -26.0058   22.8995 H   0  0  0  0  0  0
  -19.7944  -30.7215   24.2375 H   0  0  0  0  0  0
  -17.5047  -31.6283   24.5164 H   0  0  0  0  0  0
  -15.5377  -30.3047   23.7591 H   0  0  0  0  0  0
  -15.8660  -28.0808   22.7132 H   0  0  0  0  0  0
  -24.5901  -30.7066   25.7756 H   0  0  0  0  0  0
  -24.8866  -32.2899   26.4833 H   0  0  0  0  0  0
  -25.8011  -30.8936   27.0257 H   0  0  0  0  0  0
  -26.2910  -29.6781   24.1191 H   0  0  0  0  0  0
  -27.4041  -29.7278   25.4674 H   0  0  0  0  0  0
  -27.8782  -30.4304   23.9396 H   0  0  0  0  0  0
  -27.2703  -33.3608   26.2127 H   0  0  0  0  0  0
  -28.3893  -32.6877   25.0365 H   0  0  0  0  0  0
  -28.0740  -31.8420   26.5430 H   0  0  0  0  0  0
  -28.2569  -38.0125   24.7493 H   0  0  0  0  0  0
  -28.1116  -36.2658   24.6277 H   0  0  0  0  0  0
  -27.2278  -37.1442   25.8834 H   0  0  0  0  0  0
  -20.9333  -29.8871   21.6906 H   0  0  0  0  0  0
  -26.0182  -38.2847   24.1405 H   0  0  0  0  0  0
  -31.1046  -23.8334   19.6571 H   0  0  0  0  0  0
  -28.1140  -19.8435   18.5194 H   0  0  0  0  0  0
  -28.0969  -18.1789   19.0373 H   0  0  0  0  0  0
  -29.4590  -18.7906   18.1000 H   0  0  0  0  0  0
  -32.2302  -17.2208   20.7544 H   0  0  0  0  0  0
  -32.3088  -18.9581   20.6890 H   0  0  0  0  0  0
  -31.7361  -18.0399   19.2866 H   0  0  0  0  0  0
  -31.0615  -18.0925   22.9407 H   0  0  0  0  0  0
  -29.3384  -18.4207   22.8535 H   0  0  0  0  0  0
  -30.4948  -19.6929   22.5111 H   0  0  0  0  0  0
  -31.1468  -15.8484   23.1908 H   0  0  0  0  0  0
  -30.1779  -14.3898   23.1326 H   0  0  0  0  0  0
  -29.3767  -15.9581   23.2527 H   0  0  0  0  0  0
  -26.9894  -24.1626   20.3753 H   0  0  0  0  0  0
  -27.5552  -23.4410   18.9289 H   0  0  0  0  0  0
  -27.9865  -22.0410   20.9396 H   0  0  0  0  0  0
  -29.0395  -23.2486   21.5983 H   0  0  0  0  0  0
  -29.4615  -16.5692   19.6770 H   0  0  0  0  0  0
  -28.5536  -16.8614   21.1240 H   0  0  0  0  0  0
  -28.1286  -25.5412   18.3642 H   0  0  0  0  0  0
  -29.5834  -25.1917   19.1824 H   0  0  0  0  0  0
  -28.6881  -19.7689   20.8595 H   0  0  0  0  0  0
  1 25  1  0  0  0
  1 30  2  0  0  0
  1 86  1  0  0  0
  2  3  1  0  0  0
  2 25  1  0  0  0
  2 87  1  0  0  0
  2 88  1  0  0  0
  3  4  1  0  0  0
  3 89  1  0  0  0
  3 90  1  0  0  0
  4  5  1  0  0  0
  4 91  1  0  0  0
  4 92  1  0  0  0
  5  6  1  0  0  0
  5 26  1  0  0  0
  5 93  1  0  0  0
  6 25  1  0  0  0
  6 94  1  0  0  0
  6 95  1  0  0  0
  7  8  2  0  0  0
  7 26  1  0  0  0
  7 29  1  0  0  0
  8  9  1  0  0  0
  8 22  1  0  0  0
  9 10  1  0  0  0
  9 27  2  0  0  0
 10 11  2  0  0  0
 10 15  1  0  0  0
 11 12  1  0  0  0
 11 96  1  0  0  0
 12 13  2  0  0  0
 12 97  1  0  0  0
 13 14  1  0  0  0
 13 31  1  0  0  0
 14 15  2  0  0  0
 14 98  1  0  0  0
 15 99  1  0  0  0
 16 17  2  0  0  0
 16 21  1  0  0  0
 16 31  1  0  0  0
 17 18  1  0  0  0
 17100  1  0  0  0
 18 19  2  0  0  0
 18101  1  0  0  0
 19 20  1  0  0  0
 19 24  1  0  0  0
 20 21  2  0  0  0
 20102  1  0  0  0
 21 23  1  0  0  0
 22 28  1  0  0  0
 22 32  2  0  0  0
 26 27  1  0  0  0
 28103  1  0  0  0
 28104  1  0  0  0
 29105  1  0  0  0
 29106  1  0  0  0
 33 34  1  0  0  0
 33 66  1  0  0  0
 33 70  2  0  0  0
 34 36  1  0  0  0
 34 59  1  0  0  0
 34107  1  0  0  0
 35 44  2  0  0  0
 35 45  1  0  0  0
 35 68  1  0  0  0
 36 56  1  0  0  0
 36108  1  0  0  0
 37 39  1  0  0  0
 37 47  1  0  0  0
 37 66  1  0  0  0
 37109  1  0  0  0
 38 43  2  0  0  0
 38 46  1  0  0  0
 38 47  1  0  0  0
 39 64  1  0  0  0
 39 67  2  0  0  0
 40 52  1  0  0  0
 40 53  2  0  0  0
 40 58  1  0  0  0
 41110  1  0  0  0
 41111  1  0  0  0
 41112  1  0  0  0
 41 48  1  0  0  0
 42 43  1  0  0  0
 42 66  1  0  0  0
 42113  1  0  0  0
 42114  1  0  0  0
 43 44  1  0  0  0
 44115  1  0  0  0
 45 46  2  0  0  0
 45116  1  0  0  0
 46117  1  0  0  0
 47118  1  0  0  0
 47119  1  0  0  0
 48 56  1  0  0  0
 48 65  1  0  0  0
 48120  1  0  0  0
 49 50  1  0  0  0
 49 53  1  0  0  0
 49 64  1  0  0  0
 49121  1  0  0  0
 50 51  1  0  0  0
 50122  1  0  0  0
 50123  1  0  0  0
 51 52  1  0  0  0
 51124  1  0  0  0
 51125  1  0  0  0
 52126  1  0  0  0
 52127  1  0  0  0
 53 54  1  0  0  0
 54 55  2  0  0  0
 54128  1  0  0  0
 55 57  1  0  0  0
 55129  1  0  0  0
 56 69  2  0  0  0
 57 58  2  0  0  0
 57130  1  0  0  0
 58131  1  0  0  0
 59 60  1  0  0  0
 59 61  1  0  0  0
 59 62  1  0  0  0
 60132  1  0  0  0
 60133  1  0  0  0
 60134  1  0  0  0
 61135  1  0  0  0
 61136  1  0  0  0
 61137  1  0  0  0
 62138  1  0  0  0
 62139  1  0  0  0
 62140  1  0  0  0
 63 65  1  0  0  0
 63141  1  0  0  0
 63142  1  0  0  0
 63143  1  0  0  0
 64144  1  0  0  0
 65145  1  0  0  0
 68 80  1  0  0  0
 71 83  2  0  0  0
 71 85  1  0  0  0
 71146  1  0  0  0
 72 81  1  0  0  0
 72 84  2  0  0  0
 72 85  1  0  0  0
 73147  1  0  0  0
 73148  1  0  0  0
 73149  1  0  0  0
 73 81  1  0  0  0
 74150  1  0  0  0
 74151  1  0  0  0
 74152  1  0  0  0
 74 82  1  0  0  0
 75 82  1  0  0  0
 75153  1  0  0  0
 75154  1  0  0  0
 75155  1  0  0  0
 76 86  1  0  0  0
 76156  1  0  0  0
 76157  1  0  0  0
 76158  1  0  0  0
 77 78  1  0  0  0
 77 80  1  0  0  0
 77159  1  0  0  0
 77160  1  0  0  0
 78 85  1  0  0  0
 78161  1  0  0  0
 78162  1  0  0  0
 79 82  1  0  0  0
 79 86  1  0  0  0
 79163  1  0  0  0
 79164  1  0  0  0
 80165  1  0  0  0
 80166  1  0  0  0
 81 82  1  0  0  0
 81167  1  0  0  0
 83 84  1  0  0  0
M  ISO  4   1 100  68 101  80 101  86 100
M  END
> <chiral flag>
0

> <version>
0

> <s_m_source_file>
/data/baiqing/PycharmProjects/Reinvent-master-3.2/result/LINK_invent/BTK/process_docking_weight1_custom_sum_contain_oxygen_bond_distance_aromatic_linkinvent_7_9_3/rearranged_h_0065.sdf

> <i_m_source_file_index>
1

> <r_mmod_Potential_Energy-OPLS-2005>
278.6533203125

> <r_mmod_Stretch_Energy-OPLS-2005>
95.3826141357422

> <r_mmod_Bend_Energy-OPLS-2005>
199.193786621094

> <r_mmod_Torsional_Energy-OPLS-2005>
323.750854492188

> <r_mmod_Improper_Torsional_Energy-OPLS-2005>
3.38518261909485

> <r_mmod_Van_der_Waal_Energy-OPLS-2005>
128.018478393555

> <r_mmod_Electrostatic_Energy-OPLS-2005>
-275.349182128906

> <r_mmod_Solvation_Energy-OPLS-2005>
-223.984893798828

> <b_mmod_Minimization_Converged-OPLS-2005>
0

> <r_mmod_RMS_Derivative-OPLS-2005>
6.35647535324097

$$$$
3
                    3D
 Structure written by MMmdl.
160168  0  0  1  0            999 V2000
  -30.6793  -14.6383   20.5483 C   0  0  0  0  0  0
  -30.4317  -12.4114   19.4669 C   0  0  0  0  0  0
  -29.5138  -12.5238   18.2343 C   0  0  0  0  0  0
  -28.0382  -12.3539   18.6436 C   0  0  0  0  0  0
  -27.6501  -13.2335   19.8635 C   0  0  2  0  0  0
  -28.6922  -13.1209   20.9991 C   0  0  0  0  0  0
  -25.2540  -13.8200   20.5713 C   0  0  0  0  0  0
  -24.1840  -13.0458   20.9225 C   0  0  0  0  0  0
  -24.6415  -11.6923   20.8744 C   0  0  0  0  0  0
  -23.9097  -10.4292   21.0400 C   0  0  0  0  0  0
  -24.3633   -9.4199   21.9182 C   0  0  0  0  0  0
  -23.6300   -8.2239   22.0745 C   0  0  0  0  0  0
  -22.4279   -8.0289   21.3541 C   0  0  0  0  0  0
  -21.9928   -9.0266   20.4644 C   0  0  0  0  0  0
  -22.7261  -10.2139   20.3054 C   0  0  0  0  0  0
  -21.6847   -6.0754   22.5282 C   0  0  0  0  0  0
  -21.4008   -6.5654   23.8222 C   0  0  0  0  0  0
  -21.3650   -5.6797   24.9178 C   0  0  0  0  0  0
  -21.6057   -4.3060   24.7217 C   0  0  0  0  0  0
  -21.8816   -3.8156   23.4331 C   0  0  0  0  0  0
  -21.9188   -4.6981   22.3395 C   0  0  0  0  0  0
  -22.7851  -13.5231   21.1868 C   0  0  0  0  0  0
  -22.1653   -4.2184   21.0961 F   0  0  0  0  0  0
  -21.5630   -3.4535   25.7713 F   0  0  0  0  0  0
  -30.0084  -13.4489   20.4306 N   0  0  0  0  0  0
  -26.2985  -12.9420   20.3327 N   0  0  0  0  0  0
  -25.9349  -11.6556   20.5745 N   0  0  0  0  0  0
  -22.0472  -12.8257   22.0419 N   0  0  0  0  0  0
  -25.4257  -15.1922   20.4094 N   0  0  0  0  0  0
  -31.8144  -14.7547   20.0921 O   0  0  0  0  0  0
  -21.6632   -6.8891   21.4241 O   0  0  0  0  0  0
  -22.3551  -14.5519   20.6658 O   0  0  0  0  0  0
  -24.6281  -31.8591   23.2053 C   0  0  0  0  0  0
  -25.9134  -32.4780   23.8377 C   0  0  1  0  0  0
  -27.2248  -27.3169   20.1249 C   0  0  0  0  0  0
  -25.5954  -33.8575   24.2306 N   0  0  0  0  0  0
  -23.4193  -30.4947   21.5381 C   0  0  2  0  0  0
  -24.8719  -28.9545   20.1020 C   0  0  0  0  0  0
  -22.7454  -29.4697   22.4819 C   0  0  0  0  0  0
  -18.0273  -28.1423   22.8447 C   0  0  0  0  0  0
  -24.1466  -36.7272   23.2640 C   0  0  0  0  0  0
  -25.9631  -30.7942   21.3788 C   0  0  0  0  0  0
  -26.0388  -29.4220   20.7205 C   0  0  0  0  0  0
  -27.2171  -28.6155   20.7252 C   0  0  0  0  0  0
  -26.0389  -26.9170   19.4614 C   0  0  0  0  0  0
  -24.8758  -27.7078   19.4628 C   0  0  0  0  0  0
  -23.6398  -29.8356   20.1529 C   0  0  0  0  0  0
  -25.4097  -36.3078   24.0331 C   0  0  1  0  0  0
  -20.5873  -28.3733   23.1210 C   0  0  2  0  0  0
  -20.6758  -26.9443   22.5363 C   0  0  0  0  0  0
  -19.5751  -26.6396   21.5159 C   0  0  0  0  0  0
  -18.1924  -26.7956   22.1583 C   0  0  0  0  0  0
  -19.1526  -28.8889   23.2846 C   0  0  0  0  0  0
  -18.9469  -30.1475   23.8910 C   0  0  0  0  0  0
  -17.6483  -30.6627   24.0584 C   0  0  0  0  0  0
  -25.9043  -34.9449   23.5105 C   0  0  0  0  0  0
  -16.5370  -29.9146   23.6339 C   0  0  0  0  0  0
  -16.7262  -28.6562   23.0336 C   0  0  0  0  0  0
  -26.4528  -31.6601   25.0746 C   0  0  0  0  0  0
  -25.3761  -31.3720   26.1467 C   0  0  0  0  0  0
  -27.0395  -30.3039   24.6228 C   0  0  0  0  0  0
  -27.6101  -32.4312   25.7510 C   0  0  0  0  0  0
  -27.5558  -37.1779   24.8485 C   0  0  0  0  0  0
  -21.4156  -29.3129   22.3614 N   0  0  0  0  0  0
  -26.4277  -37.3781   23.9427 N   0  0  0  0  0  0
  -24.6881  -31.0640   22.0980 N   0  0  0  0  0  0
  -23.4196  -28.8202   23.2846 O   0  0  0  0  0  0
  -28.3272  -26.4422   20.2081 O   0  0  0  0  0  0
  -26.5593  -34.8924   22.4661 O   0  0  0  0  0  0
  -23.5442  -32.1359   23.7387 O   0  0  0  0  0  0
  -29.2733  -18.6481   20.0497 C   0  0  0  0  0  0
  -30.0395  -18.3902   21.2160 C   0  0  0  0  0  0
  -30.0007  -20.7339   21.6293 C   0  0  0  0  0  0
  -29.2053  -20.9910   20.4772 C   0  0  0  0  0  0
  -30.4804  -21.8163   22.5733 C   0  0  0  0  0  0
  -29.8829  -16.8424   23.1791 C   0  0  0  0  0  0
  -28.5673  -22.3686   20.0324 C   0  0  0  0  0  0
  -29.0076  -23.8301   20.5179 C   0  0  0  0  0  0
  -28.1035  -25.0018   19.9197 C   0  0  0  0  0  0
  -30.5022  -16.9684   21.7669 C   0  0  1  0  0  0
  -32.0681  -16.9638   21.9370 C   0  0  0  0  0  0
  -28.8675  -19.9147   19.6975 N   0  0  0  0  0  0
  -30.3865  -19.4713   21.9785 N   0  0  0  0  0  0
  -30.0043  -15.7045   21.0846 N   0  0  0  0  0  0
  -32.6825  -17.1962   20.7749 F   0  0  0  0  0  0
  -32.5041  -15.8151   22.4601 F   0  0  0  0  0  0
  -32.4846  -17.9036   22.7893 F   0  0  0  0  0  0
  -31.4775  -12.5185   19.1720 H   0  0  0  0  0  0
  -30.3533  -11.4236   19.9225 H   0  0  0  0  0  0
  -29.7866  -11.7773   17.4878 H   0  0  0  0  0  0
  -29.6650  -13.4972   17.7638 H   0  0  0  0  0  0
  -27.8810  -11.3015   18.8819 H   0  0  0  0  0  0
  -27.3853  -12.5704   17.7977 H   0  0  0  0  0  0
  -27.6541  -14.2665   19.5148 H   0  0  0  0  0  0
  -28.7018  -12.1118   21.4103 H   0  0  0  0  0  0
  -28.4335  -13.7775   21.8320 H   0  0  0  0  0  0
  -25.2763   -9.5688   22.4785 H   0  0  0  0  0  0
  -23.9996   -7.4632   22.7465 H   0  0  0  0  0  0
  -21.0856   -8.8796   19.8957 H   0  0  0  0  0  0
  -22.3702  -10.9690   19.6184 H   0  0  0  0  0  0
  -21.1996   -7.6164   23.9739 H   0  0  0  0  0  0
  -21.1481   -6.0518   25.9089 H   0  0  0  0  0  0
  -22.0600   -2.7626   23.2805 H   0  0  0  0  0  0
  -22.4015  -11.9899   22.4819 H   0  0  0  0  0  0
  -21.1091  -13.1305   22.2595 H   0  0  0  0  0  0
  -24.6542  -15.8424   20.5072 H   0  0  0  0  0  0
  -26.2679  -15.6256   20.0544 H   0  0  0  0  0  0
  -26.7199  -32.5486   23.1127 H   0  0  0  0  0  0
  -25.0163  -33.9712   25.0496 H   0  0  0  0  0  0
  -22.7139  -31.3171   21.3962 H   0  0  0  0  0  0
  -23.3744  -35.9598   23.3326 H   0  0  0  0  0  0
  -24.3559  -36.8862   22.2051 H   0  0  0  0  0  0
  -23.7165  -37.6453   23.6657 H   0  0  0  0  0  0
  -26.0915  -31.5584   20.6101 H   0  0  0  0  0  0
  -26.8459  -30.8481   22.0052 H   0  0  0  0  0  0
  -28.1040  -28.9738   21.2308 H   0  0  0  0  0  0
  -25.9761  -25.9746   18.9384 H   0  0  0  0  0  0
  -23.9885  -27.3499   18.9615 H   0  0  0  0  0  0
  -23.7661  -30.6198   19.4039 H   0  0  0  0  0  0
  -22.7612  -29.2692   19.8385 H   0  0  0  0  0  0
  -25.1248  -36.1941   25.0819 H   0  0  0  0  0  0
  -20.9964  -28.3318   24.1327 H   0  0  0  0  0  0
  -20.5551  -26.2360   23.3562 H   0  0  0  0  0  0
  -21.6630  -26.7402   22.1214 H   0  0  0  0  0  0
  -19.6912  -25.6286   21.1221 H   0  0  0  0  0  0
  -19.6722  -27.3175   20.6662 H   0  0  0  0  0  0
  -17.4151  -26.6633   21.4040 H   0  0  0  0  0  0
  -18.0426  -26.0132   22.9030 H   0  0  0  0  0  0
  -19.7964  -30.7260   24.2285 H   0  0  0  0  0  0
  -17.5074  -31.6301   24.5194 H   0  0  0  0  0  0
  -15.5385  -30.3088   23.7678 H   0  0  0  0  0  0
  -15.8633  -28.0929   22.7031 H   0  0  0  0  0  0
  -24.5954  -30.7070   25.7760 H   0  0  0  0  0  0
  -24.8961  -32.2886   26.4915 H   0  0  0  0  0  0
  -25.8073  -30.8847   27.0223 H   0  0  0  0  0  0
  -26.2978  -29.6741   24.1323 H   0  0  0  0  0  0
  -27.4143  -29.7351   25.4747 H   0  0  0  0  0  0
  -27.8819  -30.4308   23.9431 H   0  0  0  0  0  0
  -27.2751  -33.3617   26.2102 H   0  0  0  0  0  0
  -28.3917  -32.6858   25.0340 H   0  0  0  0  0  0
  -28.0800  -31.8426   26.5406 H   0  0  0  0  0  0
  -28.2591  -38.0063   24.7517 H   0  0  0  0  0  0
  -28.1011  -36.2581   24.6319 H   0  0  0  0  0  0
  -27.2270  -37.1421   25.8890 H   0  0  0  0  0  0
  -20.9296  -29.8948   21.6939 H   0  0  0  0  0  0
  -26.0155  -38.2840   24.1506 H   0  0  0  0  0  0
  -28.9633  -17.8400   19.4025 H   0  0  0  0  0  0
  -31.0954  -22.5474   22.0471 H   0  0  0  0  0  0
  -31.0881  -21.3928   23.3749 H   0  0  0  0  0  0
  -29.6400  -22.3208   23.0472 H   0  0  0  0  0  0
  -30.1564  -15.9043   23.6612 H   0  0  0  0  0  0
  -28.7957  -16.8941   23.1360 H   0  0  0  0  0  0
  -30.2106  -17.6444   23.8432 H   0  0  0  0  0  0
  -27.4984  -22.2584   20.2296 H   0  0  0  0  0  0
  -28.6428  -22.3827   18.9457 H   0  0  0  0  0  0
  -30.0557  -23.9975   20.2704 H   0  0  0  0  0  0
  -28.9398  -23.8956   21.6011 H   0  0  0  0  0  0
  -27.0976  -24.7396   20.2490 H   0  0  0  0  0  0
  -28.1095  -24.9008   18.8337 H   0  0  0  0  0  0
  -29.0365  -15.5059   21.2710 H   0  0  0  0  0  0
  1 25  1  0  0  0
  1 30  2  0  0  0
  1 84  1  0  0  0
  2  3  1  0  0  0
  2 25  1  0  0  0
  2 88  1  0  0  0
  2 89  1  0  0  0
  3  4  1  0  0  0
  3 90  1  0  0  0
  3 91  1  0  0  0
  4  5  1  0  0  0
  4 92  1  0  0  0
  4 93  1  0  0  0
  5  6  1  0  0  0
  5 26  1  0  0  0
  5 94  1  0  0  0
  6 25  1  0  0  0
  6 95  1  0  0  0
  6 96  1  0  0  0
  7  8  2  0  0  0
  7 26  1  0  0  0
  7 29  1  0  0  0
  8  9  1  0  0  0
  8 22  1  0  0  0
  9 10  1  0  0  0
  9 27  2  0  0  0
 10 11  2  0  0  0
 10 15  1  0  0  0
 11 12  1  0  0  0
 11 97  1  0  0  0
 12 13  2  0  0  0
 12 98  1  0  0  0
 13 14  1  0  0  0
 13 31  1  0  0  0
 14 15  2  0  0  0
 14 99  1  0  0  0
 15100  1  0  0  0
 16 17  2  0  0  0
 16 21  1  0  0  0
 16 31  1  0  0  0
 17 18  1  0  0  0
 17101  1  0  0  0
 18 19  2  0  0  0
 18102  1  0  0  0
 19 20  1  0  0  0
 19 24  1  0  0  0
 20 21  2  0  0  0
 20103  1  0  0  0
 21 23  1  0  0  0
 22 28  1  0  0  0
 22 32  2  0  0  0
 26 27  1  0  0  0
 28104  1  0  0  0
 28105  1  0  0  0
 29106  1  0  0  0
 29107  1  0  0  0
 33 34  1  0  0  0
 33 66  1  0  0  0
 33 70  2  0  0  0
 34 36  1  0  0  0
 34 59  1  0  0  0
 34108  1  0  0  0
 35 44  2  0  0  0
 35 45  1  0  0  0
 35 68  1  0  0  0
 36 56  1  0  0  0
 36109  1  0  0  0
 37 39  1  0  0  0
 37 47  1  0  0  0
 37 66  1  0  0  0
 37110  1  0  0  0
 38 43  2  0  0  0
 38 46  1  0  0  0
 38 47  1  0  0  0
 39 64  1  0  0  0
 39 67  2  0  0  0
 40 52  1  0  0  0
 40 53  2  0  0  0
 40 58  1  0  0  0
 41111  1  0  0  0
 41112  1  0  0  0
 41113  1  0  0  0
 41 48  1  0  0  0
 42 43  1  0  0  0
 42 66  1  0  0  0
 42114  1  0  0  0
 42115  1  0  0  0
 43 44  1  0  0  0
 44116  1  0  0  0
 45 46  2  0  0  0
 45117  1  0  0  0
 46118  1  0  0  0
 47119  1  0  0  0
 47120  1  0  0  0
 48 56  1  0  0  0
 48 65  1  0  0  0
 48121  1  0  0  0
 49 50  1  0  0  0
 49 53  1  0  0  0
 49 64  1  0  0  0
 49122  1  0  0  0
 50 51  1  0  0  0
 50123  1  0  0  0
 50124  1  0  0  0
 51 52  1  0  0  0
 51125  1  0  0  0
 51126  1  0  0  0
 52127  1  0  0  0
 52128  1  0  0  0
 53 54  1  0  0  0
 54 55  2  0  0  0
 54129  1  0  0  0
 55 57  1  0  0  0
 55130  1  0  0  0
 56 69  2  0  0  0
 57 58  2  0  0  0
 57131  1  0  0  0
 58132  1  0  0  0
 59 60  1  0  0  0
 59 61  1  0  0  0
 59 62  1  0  0  0
 60133  1  0  0  0
 60134  1  0  0  0
 60135  1  0  0  0
 61136  1  0  0  0
 61137  1  0  0  0
 61138  1  0  0  0
 62139  1  0  0  0
 62140  1  0  0  0
 62141  1  0  0  0
 63 65  1  0  0  0
 63142  1  0  0  0
 63143  1  0  0  0
 63144  1  0  0  0
 64145  1  0  0  0
 65146  1  0  0  0
 68 79  1  0  0  0
 71 72  2  0  0  0
 71 82  1  0  0  0
 71147  1  0  0  0
 72 80  1  0  0  0
 72 83  1  0  0  0
 73 74  1  0  0  0
 73 75  1  0  0  0
 73 83  2  0  0  0
 74 77  1  0  0  0
 74 82  2  0  0  0
 75148  1  0  0  0
 75149  1  0  0  0
 75150  1  0  0  0
 76151  1  0  0  0
 76152  1  0  0  0
 76153  1  0  0  0
 76 80  1  0  0  0
 77 78  1  0  0  0
 77154  1  0  0  0
 77155  1  0  0  0
 78 79  1  0  0  0
 78156  1  0  0  0
 78157  1  0  0  0
 79158  1  0  0  0
 79159  1  0  0  0
 80 81  1  0  0  0
 80 84  1  0  0  0
 81 85  1  0  0  0
 81 86  1  0  0  0
 81 87  1  0  0  0
 84160  1  0  0  0
M  ISO  4   1 100  68 101  79 101  84 100
M  END
> <chiral flag>
0

> <version>
0

> <s_m_source_file>
/data/baiqing/PycharmProjects/Reinvent-master-3.2/result/LINK_invent/BTK/process_docking_weight1_custom_sum_contain_oxygen_bond_distance_aromatic_linkinvent_7_9_3/rearranged_h_0065.sdf

> <i_m_source_file_index>
2

> <r_mmod_Potential_Energy-OPLS-2005>
87.372673034668

> <r_mmod_Stretch_Energy-OPLS-2005>
96.0185623168945

> <r_mmod_Bend_Energy-OPLS-2005>
182.7783203125

> <r_mmod_Torsional_Energy-OPLS-2005>
196.449890136719

> <r_mmod_Improper_Torsional_Energy-OPLS-2005>
3.57262229919434

> <r_mmod_Van_der_Waal_Energy-OPLS-2005>
169.389007568359

> <r_mmod_Electrostatic_Energy-OPLS-2005>
-397.207366943359

> <r_mmod_Solvation_Energy-OPLS-2005>
-215.897918701172

> <b_mmod_Minimization_Converged-OPLS-2005>
0

> <r_mmod_RMS_Derivative-OPLS-2005>
3.99114584922791

$$$$
4
                    3D
 Structure written by MMmdl.
175184  0  0  1  0            999 V2000
  -30.7879  -14.5344   20.3621 C   0  0  0  0  0  0
  -30.3793  -12.3103   19.4520 C   0  0  0  0  0  0
  -29.4734  -12.4185   18.2152 C   0  0  0  0  0  0
  -27.9971  -12.3167   18.6363 C   0  0  0  0  0  0
  -27.6319  -13.2158   19.8498 C   0  0  2  0  0  0
  -28.6940  -13.1908   20.9650 C   0  0  0  0  0  0
  -25.2473  -13.8109   20.5773 C   0  0  0  0  0  0
  -24.1758  -13.0380   20.9226 C   0  0  0  0  0  0
  -24.6357  -11.6864   20.8792 C   0  0  0  0  0  0
  -23.9035  -10.4265   21.0417 C   0  0  0  0  0  0
  -24.3595   -9.4196   21.9193 C   0  0  0  0  0  0
  -23.6273   -8.2243   22.0767 C   0  0  0  0  0  0
  -22.4261   -8.0278   21.3550 C   0  0  0  0  0  0
  -21.9877   -9.0243   20.4656 C   0  0  0  0  0  0
  -22.7207  -10.2117   20.3064 C   0  0  0  0  0  0
  -21.6861   -6.0737   22.5277 C   0  0  0  0  0  0
  -21.4023   -6.5639   23.8206 C   0  0  0  0  0  0
  -21.3648   -5.6795   24.9168 C   0  0  0  0  0  0
  -21.6034   -4.3060   24.7224 C   0  0  0  0  0  0
  -21.8816   -3.8148   23.4350 C   0  0  0  0  0  0
  -21.9195   -4.6964   22.3405 C   0  0  0  0  0  0
  -22.7786  -13.5178   21.1873 C   0  0  0  0  0  0
  -22.1648   -4.2153   21.0983 F   0  0  0  0  0  0
  -21.5628   -3.4540   25.7738 F   0  0  0  0  0  0
  -30.0047  -13.4160   20.3501 N   0  0  0  0  0  0
  -26.2904  -12.9312   20.3406 N   0  0  0  0  0  0
  -25.9294  -11.6468   20.5880 N   0  0  0  0  0  0
  -22.0451  -12.8171   22.0429 N   0  0  0  0  0  0
  -25.4128  -15.1799   20.4242 N   0  0  0  0  0  0
  -32.0078  -14.3785   20.3294 O   0  0  0  0  0  0
  -21.6644   -6.8869   21.4239 O   0  0  0  0  0  0
  -22.3468  -14.5487   20.6727 O   0  0  0  0  0  0
  -24.6164  -31.8702   23.2125 C   0  0  0  0  0  0
  -25.9053  -32.4842   23.8422 C   0  0  1  0  0  0
  -27.2222  -27.4282   20.1174 C   0  0  0  0  0  0
  -25.5904  -33.8642   24.2356 N   0  0  0  0  0  0
  -23.4025  -30.4963   21.5540 C   0  0  2  0  0  0
  -24.8472  -28.9592   20.1189 C   0  0  0  0  0  0
  -22.7414  -29.4688   22.5013 C   0  0  0  0  0  0
  -18.0279  -28.1384   22.8514 C   0  0  0  0  0  0
  -24.1476  -36.7320   23.2648 C   0  0  0  0  0  0
  -25.9314  -30.8355   21.3644 C   0  0  0  0  0  0
  -26.0070  -29.4670   20.7194 C   0  0  0  0  0  0
  -27.1999  -28.7084   20.7168 C   0  0  0  0  0  0
  -26.0581  -26.9467   19.4861 C   0  0  0  0  0  0
  -24.8673  -27.6984   19.4982 C   0  0  0  0  0  0
  -23.6079  -29.8278   20.1692 C   0  0  0  0  0  0
  -25.4095  -36.3133   24.0361 C   0  0  1  0  0  0
  -20.5866  -28.3667   23.1329 C   0  0  2  0  0  0
  -20.6761  -26.9402   22.5434 C   0  0  0  0  0  0
  -19.5731  -26.6388   21.5238 C   0  0  0  0  0  0
  -18.1907  -26.7934   22.1632 C   0  0  0  0  0  0
  -19.1528  -28.8841   23.2922 C   0  0  0  0  0  0
  -18.9457  -30.1449   23.8916 C   0  0  0  0  0  0
  -17.6455  -30.6586   24.0568 C   0  0  0  0  0  0
  -25.9030  -34.9495   23.5154 C   0  0  0  0  0  0
  -16.5348  -29.9086   23.6340 C   0  0  0  0  0  0
  -16.7269  -28.6508   23.0359 C   0  0  0  0  0  0
  -26.4472  -31.6619   25.0752 C   0  0  0  0  0  0
  -25.3744  -31.3689   26.1506 C   0  0  0  0  0  0
  -27.0313  -30.3057   24.6145 C   0  0  0  0  0  0
  -27.6070  -32.4334   25.7480 C   0  0  0  0  0  0
  -27.5572  -37.1814   24.8476 C   0  0  0  0  0  0
  -21.4142  -29.3042   22.3739 N   0  0  0  0  0  0
  -26.4278  -37.3813   23.9430 N   0  0  0  0  0  0
  -24.6688  -31.0824   22.1012 N   0  0  0  0  0  0
  -23.4183  -28.8253   23.3070 O   0  0  0  0  0  0
  -28.3633  -26.6571   20.1229 O   0  0  0  0  0  0
  -26.5599  -34.8935   22.4713 O   0  0  0  0  0  0
  -23.5356  -32.1450   23.7532 O   0  0  0  0  0  0
  -26.9220  -17.8173   19.6850 C   0  0  0  0  0  0
  -26.9710  -18.4499   20.9301 C   0  0  0  0  0  0
  -26.7773  -23.0358   22.8037 C   0  0  0  0  0  0
  -27.1522  -21.8757   23.4221 C   0  0  0  0  0  0
  -27.9237  -16.8884   19.3241 C   0  0  0  0  0  0
  -27.9960  -18.0998   21.8138 C   0  0  0  0  0  0
  -27.6992  -23.1853   21.7300 C   0  0  0  0  0  0
  -28.9599  -16.5882   20.2734 C   0  0  0  0  0  0
  -27.8117  -16.3473   17.8996 C   0  0  0  0  0  0
  -31.4258  -16.9788   20.5792 C   0  0  0  0  0  0
  -30.7503  -16.1385   18.4311 C   0  0  0  0  0  0
  -30.2573  -20.0225   22.1513 C   0  0  0  0  0  0
  -29.6168  -20.3825   24.5202 C   0  0  0  0  0  0
  -28.1678  -18.8587   23.1303 C   0  0  0  0  0  0
  -27.7144  -24.2763   20.6741 C   0  0  0  0  0  0
  -28.3874  -25.6055   21.1145 C   0  0  0  0  0  0
  -30.3787  -16.0049   19.9359 C   0  0  0  0  0  0
  -29.0458  -20.1646   23.1016 C   0  0  0  0  0  0
  -28.8974  -17.1352   21.5191 N   0  0  0  0  0  0
  -28.5822  -22.1882   21.7165 N   0  0  0  0  0  0
  -28.2440  -21.3618   22.7498 N   0  0  0  0  0  0
  -31.4265  -12.3286   19.1449 H   0  0  0  0  0  0
  -30.2350  -11.3527   19.9531 H   0  0  0  0  0  0
  -29.7119  -11.6221   17.5090 H   0  0  0  0  0  0
  -29.6540  -13.3495   17.6833 H   0  0  0  0  0  0
  -27.8099  -11.2721   18.8864 H   0  0  0  0  0  0
  -27.3461  -12.5438   17.7919 H   0  0  0  0  0  0
  -27.6069  -14.2312   19.4844 H   0  0  0  0  0  0
  -28.6874  -12.2346   21.4915 H   0  0  0  0  0  0
  -28.4869  -13.9619   21.7092 H   0  0  0  0  0  0
  -25.2743   -9.5693   22.4758 H   0  0  0  0  0  0
  -23.9991   -7.4645   22.7480 H   0  0  0  0  0  0
  -21.0804   -8.8746   19.8968 H   0  0  0  0  0  0
  -22.3652  -10.9654   19.6175 H   0  0  0  0  0  0
  -21.2022   -7.6156   23.9694 H   0  0  0  0  0  0
  -21.1454   -6.0550   25.9063 H   0  0  0  0  0  0
  -22.0604   -2.7618   23.2862 H   0  0  0  0  0  0
  -22.4074  -11.9819   22.4784 H   0  0  0  0  0  0
  -21.1095  -13.1225   22.2696 H   0  0  0  0  0  0
  -24.6588  -15.8396   20.5780 H   0  0  0  0  0  0
  -26.2881  -15.6271   20.1685 H   0  0  0  0  0  0
  -26.7138  -32.5551   23.1199 H   0  0  0  0  0  0
  -25.0071  -33.9814   25.0511 H   0  0  0  0  0  0
  -22.6938  -31.3155   21.4173 H   0  0  0  0  0  0
  -23.3745  -35.9637   23.3321 H   0  0  0  0  0  0
  -24.3572  -36.8931   22.2058 H   0  0  0  0  0  0
  -23.7202  -37.6520   23.6651 H   0  0  0  0  0  0
  -26.0429  -31.5957   20.5899 H   0  0  0  0  0  0
  -26.8194  -30.8920   21.9827 H   0  0  0  0  0  0
  -28.0951  -29.0995   21.1813 H   0  0  0  0  0  0
  -26.0669  -25.9942   18.9810 H   0  0  0  0  0  0
  -23.9788  -27.3082   19.0208 H   0  0  0  0  0  0
  -23.7171  -30.6032   19.4105 H   0  0  0  0  0  0
  -22.7274  -29.2534   19.8752 H   0  0  0  0  0  0
  -25.1256  -36.2009   25.0852 H   0  0  0  0  0  0
  -20.9963  -28.3237   24.1445 H   0  0  0  0  0  0
  -20.5673  -26.2284   23.3628 H   0  0  0  0  0  0
  -21.6630  -26.7457   22.1214 H   0  0  0  0  0  0
  -19.6890  -25.6307   21.1255 H   0  0  0  0  0  0
  -19.6660  -27.3212   20.6777 H   0  0  0  0  0  0
  -17.4195  -26.6740   21.4017 H   0  0  0  0  0  0
  -18.0261  -26.0053   22.8993 H   0  0  0  0  0  0
  -19.7934  -30.7273   24.2273 H   0  0  0  0  0  0
  -17.5012  -31.6263   24.5164 H   0  0  0  0  0  0
  -15.5344  -30.2978   23.7661 H   0  0  0  0  0  0
  -15.8683  -28.0829   22.7050 H   0  0  0  0  0  0
  -24.5974  -30.6960   25.7861 H   0  0  0  0  0  0
  -24.8843  -32.2802   26.4945 H   0  0  0  0  0  0
  -25.8121  -30.8905   27.0280 H   0  0  0  0  0  0
  -26.2866  -29.6774   24.1246 H   0  0  0  0  0  0
  -27.4124  -29.7336   25.4621 H   0  0  0  0  0  0
  -27.8675  -30.4375   23.9272 H   0  0  0  0  0  0
  -27.2768  -33.3692   26.1994 H   0  0  0  0  0  0
  -28.3888  -32.6801   25.0287 H   0  0  0  0  0  0
  -28.0715  -31.8482   26.5428 H   0  0  0  0  0  0
  -28.2627  -38.0086   24.7525 H   0  0  0  0  0  0
  -28.1042  -36.2626   24.6297 H   0  0  0  0  0  0
  -27.2303  -37.1471   25.8886 H   0  0  0  0  0  0
  -20.9309  -29.8750   21.6946 H   0  0  0  0  0  0
  -26.0185  -38.2898   24.1408 H   0  0  0  0  0  0
  -26.1352  -18.0781   18.9932 H   0  0  0  0  0  0
  -26.2518  -19.2154   21.1889 H   0  0  0  0  0  0
  -25.9564  -23.6834   23.0795 H   0  0  0  0  0  0
  -26.7416  -21.3830   24.2921 H   0  0  0  0  0  0
  -26.7689  -16.3295   17.5769 H   0  0  0  0  0  0
  -28.1714  -15.3295   17.7814 H   0  0  0  0  0  0
  -28.3441  -16.9911   17.1995 H   0  0  0  0  0  0
  -31.2223  -18.0113   20.2971 H   0  0  0  0  0  0
  -32.4537  -16.7812   20.2746 H   0  0  0  0  0  0
  -31.4222  -16.9225   21.6681 H   0  0  0  0  0  0
  -30.5424  -17.1386   18.0527 H   0  0  0  0  0  0
  -30.2564  -15.4157   17.7938 H   0  0  0  0  0  0
  -31.8124  -15.9621   18.2595 H   0  0  0  0  0  0
  -30.8683  -19.1641   22.4299 H   0  0  0  0  0  0
  -30.9004  -20.9025   22.1911 H   0  0  0  0  0  0
  -29.9445  -19.8895   21.1154 H   0  0  0  0  0  0
  -30.3240  -19.5976   24.7933 H   0  0  0  0  0  0
  -28.8299  -20.3768   25.2748 H   0  0  0  0  0  0
  -30.1440  -21.3338   24.5985 H   0  0  0  0  0  0
  -28.6291  -18.1477   23.8186 H   0  0  0  0  0  0
  -27.1843  -19.0569   23.5570 H   0  0  0  0  0  0
  -26.6794  -24.4639   20.4002 H   0  0  0  0  0  0
  -28.1956  -23.9141   19.7652 H   0  0  0  0  0  0
  -29.4314  -25.4020   21.3509 H   0  0  0  0  0  0
  -27.9437  -25.9609   22.0447 H   0  0  0  0  0  0
  1 25  1  0  0  0
  1 30  2  0  0  0
  1 87  1  0  0  0
  2  3  1  0  0  0
  2 25  1  0  0  0
  2 92  1  0  0  0
  2 93  1  0  0  0
  3  4  1  0  0  0
  3 94  1  0  0  0
  3 95  1  0  0  0
  4  5  1  0  0  0
  4 96  1  0  0  0
  4 97  1  0  0  0
  5  6  1  0  0  0
  5 26  1  0  0  0
  5 98  1  0  0  0
  6 25  1  0  0  0
  6 99  1  0  0  0
  6100  1  0  0  0
  7  8  2  0  0  0
  7 26  1  0  0  0
  7 29  1  0  0  0
  8  9  1  0  0  0
  8 22  1  0  0  0
  9 10  1  0  0  0
  9 27  2  0  0  0
 10 11  2  0  0  0
 10 15  1  0  0  0
 11 12  1  0  0  0
 11101  1  0  0  0
 12 13  2  0  0  0
 12102  1  0  0  0
 13 14  1  0  0  0
 13 31  1  0  0  0
 14 15  2  0  0  0
 14103  1  0  0  0
 15104  1  0  0  0
 16 17  2  0  0  0
 16 21  1  0  0  0
 16 31  1  0  0  0
 17 18  1  0  0  0
 17105  1  0  0  0
 18 19  2  0  0  0
 18106  1  0  0  0
 19 20  1  0  0  0
 19 24  1  0  0  0
 20 21  2  0  0  0
 20107  1  0  0  0
 21 23  1  0  0  0
 22 28  1  0  0  0
 22 32  2  0  0  0
 26 27  1  0  0  0
 28108  1  0  0  0
 28109  1  0  0  0
 29110  1  0  0  0
 29111  1  0  0  0
 33 34  1  0  0  0
 33 66  1  0  0  0
 33 70  2  0  0  0
 34 36  1  0  0  0
 34 59  1  0  0  0
 34112  1  0  0  0
 35 44  2  0  0  0
 35 45  1  0  0  0
 35 68  1  0  0  0
 36 56  1  0  0  0
 36113  1  0  0  0
 37 39  1  0  0  0
 37 47  1  0  0  0
 37 66  1  0  0  0
 37114  1  0  0  0
 38 43  2  0  0  0
 38 46  1  0  0  0
 38 47  1  0  0  0
 39 64  1  0  0  0
 39 67  2  0  0  0
 40 52  1  0  0  0
 40 53  2  0  0  0
 40 58  1  0  0  0
 41115  1  0  0  0
 41116  1  0  0  0
 41117  1  0  0  0
 41 48  1  0  0  0
 42 43  1  0  0  0
 42 66  1  0  0  0
 42118  1  0  0  0
 42119  1  0  0  0
 43 44  1  0  0  0
 44120  1  0  0  0
 45 46  2  0  0  0
 45121  1  0  0  0
 46122  1  0  0  0
 47123  1  0  0  0
 47124  1  0  0  0
 48 56  1  0  0  0
 48 65  1  0  0  0
 48125  1  0  0  0
 49 50  1  0  0  0
 49 53  1  0  0  0
 49 64  1  0  0  0
 49126  1  0  0  0
 50 51  1  0  0  0
 50127  1  0  0  0
 50128  1  0  0  0
 51 52  1  0  0  0
 51129  1  0  0  0
 51130  1  0  0  0
 52131  1  0  0  0
 52132  1  0  0  0
 53 54  1  0  0  0
 54 55  2  0  0  0
 54133  1  0  0  0
 55 57  1  0  0  0
 55134  1  0  0  0
 56 69  2  0  0  0
 57 58  2  0  0  0
 57135  1  0  0  0
 58136  1  0  0  0
 59 60  1  0  0  0
 59 61  1  0  0  0
 59 62  1  0  0  0
 60137  1  0  0  0
 60138  1  0  0  0
 60139  1  0  0  0
 61140  1  0  0  0
 61141  1  0  0  0
 61142  1  0  0  0
 62143  1  0  0  0
 62144  1  0  0  0
 62145  1  0  0  0
 63 65  1  0  0  0
 63146  1  0  0  0
 63147  1  0  0  0
 63148  1  0  0  0
 64149  1  0  0  0
 65150  1  0  0  0
 68 86  1  0  0  0
 71 72  2  0  0  0
 71 75  1  0  0  0
 71151  1  0  0  0
 72 76  1  0  0  0
 72152  1  0  0  0
 73 74  2  0  0  0
 73 77  1  0  0  0
 73153  1  0  0  0
 74 91  1  0  0  0
 74154  1  0  0  0
 75 78  2  0  0  0
 75 79  1  0  0  0
 76 84  1  0  0  0
 76 89  2  0  0  0
 77 85  1  0  0  0
 77 90  2  0  0  0
 78 87  1  0  0  0
 78 89  1  0  0  0
 79155  1  0  0  0
 79156  1  0  0  0
 79157  1  0  0  0
 80158  1  0  0  0
 80159  1  0  0  0
 80160  1  0  0  0
 80 87  1  0  0  0
 81 87  1  0  0  0
 81161  1  0  0  0
 81162  1  0  0  0
 81163  1  0  0  0
 82164  1  0  0  0
 82165  1  0  0  0
 82166  1  0  0  0
 82 88  1  0  0  0
 83 88  1  0  0  0
 83167  1  0  0  0
 83168  1  0  0  0
 83169  1  0  0  0
 84 88  1  0  0  0
 84170  1  0  0  0
 84171  1  0  0  0
 85 86  1  0  0  0
 85172  1  0  0  0
 85173  1  0  0  0
 86174  1  0  0  0
 86175  1  0  0  0
 88 91  1  0  0  0
 90 91  1  0  0  0
M  ISO  4   1 100  68 101  86 101  87 100
M  END
> <chiral flag>
0

> <version>
0

> <s_m_source_file>
/data/baiqing/PycharmProjects/Reinvent-master-3.2/result/LINK_invent/BTK/process_docking_weight1_custom_sum_contain_oxygen_bond_distance_aromatic_linkinvent_7_9_3/rearranged_h_0065.sdf

> <i_m_source_file_index>
3

> <r_mmod_Potential_Energy-OPLS-2005>
100.880294799805

> <r_mmod_Stretch_Energy-OPLS-2005>
55.4592437744141

> <r_mmod_Bend_Energy-OPLS-2005>
168.066009521484

> <r_mmod_Torsional_Energy-OPLS-2005>
277.898284912109

> <r_mmod_Improper_Torsional_Energy-OPLS-2005>
15.6082897186279

> <r_mmod_Van_der_Waal_Energy-OPLS-2005>
164.999740600586

> <r_mmod_Electrostatic_Energy-OPLS-2005>
-446.796997070312

> <r_mmod_Solvation_Energy-OPLS-2005>
-191.809097290039

> <b_mmod_Minimization_Converged-OPLS-2005>
0

> <r_mmod_RMS_Derivative-OPLS-2005>
2.93230175971985

$$$$
5
                    3D
 Structure written by MMmdl.
175183  0  0  1  0            999 V2000
  -30.7197  -14.4878   20.5606 C   0  0  0  0  0  0
  -30.4249  -12.3131   19.4488 C   0  0  0  0  0  0
  -29.5060  -12.4993   18.2229 C   0  0  0  0  0  0
  -28.0280  -12.3489   18.6310 C   0  0  0  0  0  0
  -27.6604  -13.2153   19.8690 C   0  0  2  0  0  0
  -28.6991  -13.0384   21.0022 C   0  0  0  0  0  0
  -25.2561  -13.8190   20.5611 C   0  0  0  0  0  0
  -24.1832  -13.0470   20.9135 C   0  0  0  0  0  0
  -24.6420  -11.6942   20.8754 C   0  0  0  0  0  0
  -23.9118  -10.4327   21.0418 C   0  0  0  0  0  0
  -24.3645   -9.4247   21.9224 C   0  0  0  0  0  0
  -23.6300   -8.2286   22.0765 C   0  0  0  0  0  0
  -22.4280   -8.0336   21.3555 C   0  0  0  0  0  0
  -21.9959   -9.0316   20.4635 C   0  0  0  0  0  0
  -22.7306  -10.2175   20.3056 C   0  0  0  0  0  0
  -21.6878   -6.0770   22.5286 C   0  0  0  0  0  0
  -21.4026   -6.5650   23.8229 C   0  0  0  0  0  0
  -21.3649   -5.6779   24.9165 C   0  0  0  0  0  0
  -21.6054   -4.3052   24.7207 C   0  0  0  0  0  0
  -21.8822   -3.8163   23.4315 C   0  0  0  0  0  0
  -21.9223   -4.6997   22.3382 C   0  0  0  0  0  0
  -22.7839  -13.5272   21.1814 C   0  0  0  0  0  0
  -22.1686   -4.2195   21.0962 F   0  0  0  0  0  0
  -21.5637   -3.4517   25.7701 F   0  0  0  0  0  0
  -30.0328  -13.3181   20.4475 N   0  0  0  0  0  0
  -26.3018  -12.9386   20.3346 N   0  0  0  0  0  0
  -25.9354  -11.6543   20.5808 N   0  0  0  0  0  0
  -22.0435  -12.8281   22.0328 N   0  0  0  0  0  0
  -25.4218  -15.1889   20.3928 N   0  0  0  0  0  0
  -31.8601  -14.6336   20.1140 O   0  0  0  0  0  0
  -21.6661   -6.8925   21.4253 O   0  0  0  0  0  0
  -22.3548  -14.5601   20.6663 O   0  0  0  0  0  0
  -24.6155  -31.8689   23.2114 C   0  0  0  0  0  0
  -25.9047  -32.4825   23.8407 C   0  0  1  0  0  0
  -27.2305  -27.4407   20.1032 C   0  0  0  0  0  0
  -25.5928  -33.8624   24.2350 N   0  0  0  0  0  0
  -23.4039  -30.4940   21.5512 C   0  0  2  0  0  0
  -24.8496  -28.9642   20.1158 C   0  0  0  0  0  0
  -22.7420  -29.4670   22.5000 C   0  0  0  0  0  0
  -18.0271  -28.1392   22.8495 C   0  0  0  0  0  0
  -24.1492  -36.7292   23.2640 C   0  0  0  0  0  0
  -25.9323  -30.8399   21.3631 C   0  0  0  0  0  0
  -26.0115  -29.4780   20.7054 C   0  0  0  0  0  0
  -27.2095  -28.7261   20.6890 C   0  0  0  0  0  0
  -26.0500  -26.9424   19.5070 C   0  0  0  0  0  0
  -24.8642  -27.6961   19.5121 C   0  0  0  0  0  0
  -23.6112  -29.8281   20.1659 C   0  0  0  0  0  0
  -25.4115  -36.3105   24.0341 C   0  0  1  0  0  0
  -20.5858  -28.3660   23.1330 C   0  0  2  0  0  0
  -20.6770  -26.9402   22.5419 C   0  0  0  0  0  0
  -19.5749  -26.6391   21.5221 C   0  0  0  0  0  0
  -18.1925  -26.7941   22.1625 C   0  0  0  0  0  0
  -19.1517  -28.8846   23.2909 C   0  0  0  0  0  0
  -18.9444  -30.1453   23.8925 C   0  0  0  0  0  0
  -17.6450  -30.6600   24.0567 C   0  0  0  0  0  0
  -25.9034  -34.9469   23.5128 C   0  0  0  0  0  0
  -16.5340  -29.9105   23.6333 C   0  0  0  0  0  0
  -16.7261  -28.6518   23.0359 C   0  0  0  0  0  0
  -26.4456  -31.6615   25.0747 C   0  0  0  0  0  0
  -25.3703  -31.3738   26.1485 C   0  0  0  0  0  0
  -27.0302  -30.3074   24.6113 C   0  0  0  0  0  0
  -27.6044  -32.4326   25.7520 C   0  0  0  0  0  0
  -27.5580  -37.1808   24.8472 C   0  0  0  0  0  0
  -21.4145  -29.3041   22.3744 N   0  0  0  0  0  0
  -26.4303  -37.3785   23.9402 N   0  0  0  0  0  0
  -24.6683  -31.0796   22.1005 N   0  0  0  0  0  0
  -23.4193  -28.8196   23.3027 O   0  0  0  0  0  0
  -28.3826  -26.6846   20.1364 O   0  0  0  0  0  0
  -26.5567  -34.8912   22.4674 O   0  0  0  0  0  0
  -23.5346  -32.1437   23.7516 O   0  0  0  0  0  0
  -26.9028  -20.2738   22.0841 C   0  0  0  0  0  0
  -26.8910  -18.8967   22.3098 C   0  0  0  0  0  0
  -28.1414  -20.8671   21.8052 C   0  0  0  0  0  0
  -29.1633  -18.8107   22.0523 C   0  0  0  0  0  0
  -25.6018  -18.1506   22.5644 C   0  0  0  0  0  0
  -28.4153  -24.6108   18.2013 C   0  0  0  0  0  0
  -31.7011  -18.7873   21.8668 C   0  0  0  0  0  0
  -30.5861  -17.1273   23.3166 C   0  0  0  0  0  0
  -26.3113  -22.9572   19.9307 C   0  0  0  0  0  0
  -28.2649  -21.7340   19.0030 C   0  0  0  0  0  0
  -28.2427  -22.3640   21.4859 C   0  0  0  0  0  0
  -30.3651  -16.9648   20.7458 C   0  0  0  0  0  0
  -28.2208  -25.3552   20.6694 C   0  0  0  0  0  0
  -28.5611  -24.1904   19.6837 C   0  0  1  0  0  0
  -30.4278  -17.9111   21.9937 C   0  0  0  0  0  0
  -27.8531  -22.8197   20.0310 C   0  0  0  0  0  0
  -28.0220  -18.1762   22.2975 N   0  0  0  0  0  0
  -29.2666  -20.1197   21.7853 N   0  0  0  0  0  0
  -30.0142  -15.5452   20.9950 N   0  0  0  0  0  0
  -31.4721  -12.4013   19.1530 H   0  0  0  0  0  0
  -30.3215  -11.3126   19.8734 H   0  0  0  0  0  0
  -29.7580  -11.7763   17.4490 H   0  0  0  0  0  0
  -29.6671  -13.4858   17.7853 H   0  0  0  0  0  0
  -27.8559  -11.2957   18.8531 H   0  0  0  0  0  0
  -27.3773  -12.5951   17.7886 H   0  0  0  0  0  0
  -27.6931  -14.2548   19.5387 H   0  0  0  0  0  0
  -28.6741  -12.0187   21.3896 H   0  0  0  0  0  0
  -28.4614  -13.6799   21.8530 H   0  0  0  0  0  0
  -25.2764   -9.5743   22.4843 H   0  0  0  0  0  0
  -23.9997   -7.4679   22.7485 H   0  0  0  0  0  0
  -21.0939   -8.8875   19.8849 H   0  0  0  0  0  0
  -22.3839  -10.9740   19.6135 H   0  0  0  0  0  0
  -21.1994   -7.6152   23.9770 H   0  0  0  0  0  0
  -21.1462   -6.0458   25.9082 H   0  0  0  0  0  0
  -22.0591   -2.7634   23.2780 H   0  0  0  0  0  0
  -22.4033  -11.9981   22.4813 H   0  0  0  0  0  0
  -21.1042  -13.1307   22.2504 H   0  0  0  0  0  0
  -24.6375  -15.8299   20.4513 H   0  0  0  0  0  0
  -26.2723  -15.6262   20.0588 H   0  0  0  0  0  0
  -26.7128  -32.5520   23.1184 H   0  0  0  0  0  0
  -25.0177  -33.9787   25.0563 H   0  0  0  0  0  0
  -22.6924  -31.3108   21.4148 H   0  0  0  0  0  0
  -23.3757  -35.9622   23.3333 H   0  0  0  0  0  0
  -24.3582  -36.8872   22.2046 H   0  0  0  0  0  0
  -23.7243  -37.6508   23.6629 H   0  0  0  0  0  0
  -26.0439  -31.6121   20.6014 H   0  0  0  0  0  0
  -26.8197  -30.8899   21.9808 H   0  0  0  0  0  0
  -28.1066  -29.1165   21.1469 H   0  0  0  0  0  0
  -26.0317  -25.9652   19.0486 H   0  0  0  0  0  0
  -23.9650  -27.2959   19.0610 H   0  0  0  0  0  0
  -23.7199  -30.6032   19.4068 H   0  0  0  0  0  0
  -22.7373  -29.2462   19.8680 H   0  0  0  0  0  0
  -25.1297  -36.1975   25.0836 H   0  0  0  0  0  0
  -20.9936  -28.3218   24.1456 H   0  0  0  0  0  0
  -20.5704  -26.2259   23.3592 H   0  0  0  0  0  0
  -21.6636  -26.7483   22.1191 H   0  0  0  0  0  0
  -19.6907  -25.6301   21.1254 H   0  0  0  0  0  0
  -19.6700  -27.3199   20.6746 H   0  0  0  0  0  0
  -17.4199  -26.6694   21.4026 H   0  0  0  0  0  0
  -18.0323  -26.0087   22.9019 H   0  0  0  0  0  0
  -19.7913  -30.7260   24.2321 H   0  0  0  0  0  0
  -17.5002  -31.6282   24.5148 H   0  0  0  0  0  0
  -15.5340  -30.3016   23.7646 H   0  0  0  0  0  0
  -15.8657  -28.0841   22.7082 H   0  0  0  0  0  0
  -24.5857  -30.7121   25.7795 H   0  0  0  0  0  0
  -24.8899  -32.2908   26.4914 H   0  0  0  0  0  0
  -25.8007  -30.8888   27.0257 H   0  0  0  0  0  0
  -26.2837  -29.6829   24.1187 H   0  0  0  0  0  0
  -27.4129  -29.7319   25.4552 H   0  0  0  0  0  0
  -27.8641  -30.4435   23.9223 H   0  0  0  0  0  0
  -27.2672  -33.3611   26.2142 H   0  0  0  0  0  0
  -28.3829  -32.6914   25.0333 H   0  0  0  0  0  0
  -28.0741  -31.8425   26.5403 H   0  0  0  0  0  0
  -28.2627  -38.0076   24.7503 H   0  0  0  0  0  0
  -28.1049  -36.2613   24.6341 H   0  0  0  0  0  0
  -27.2287  -37.1505   25.8871 H   0  0  0  0  0  0
  -20.9307  -29.8742   21.6948 H   0  0  0  0  0  0
  -26.0200  -38.2871   24.1380 H   0  0  0  0  0  0
  -25.9878  -20.8478   22.0941 H   0  0  0  0  0  0
  -25.7774  -17.0847   22.7072 H   0  0  0  0  0  0
  -24.9208  -18.2709   21.7220 H   0  0  0  0  0  0
  -25.1161  -18.5412   23.4577 H   0  0  0  0  0  0
  -28.8971  -25.5699   18.0163 H   0  0  0  0  0  0
  -27.3793  -24.6966   17.8821 H   0  0  0  0  0  0
  -28.9047  -23.9074   17.5302 H   0  0  0  0  0  0
  -31.6963  -19.3646   20.9417 H   0  0  0  0  0  0
  -32.6123  -18.1876   21.8664 H   0  0  0  0  0  0
  -31.7832  -19.4951   22.6930 H   0  0  0  0  0  0
  -29.7324  -16.4759   23.5091 H   0  0  0  0  0  0
  -31.4795  -16.5054   23.2941 H   0  0  0  0  0  0
  -30.6785  -17.8090   24.1631 H   0  0  0  0  0  0
  -25.8202  -21.9909   20.0331 H   0  0  0  0  0  0
  -25.9919  -23.3573   18.9685 H   0  0  0  0  0  0
  -25.8857  -23.5965   20.7034 H   0  0  0  0  0  0
  -27.7986  -20.7713   19.2169 H   0  0  0  0  0  0
  -29.3422  -21.5742   18.9919 H   0  0  0  0  0  0
  -27.9444  -21.9794   17.9901 H   0  0  0  0  0  0
  -29.2754  -22.6552   21.6848 H   0  0  0  0  0  0
  -27.6539  -22.9095   22.2254 H   0  0  0  0  0  0
  -29.6376  -17.3627   20.0349 H   0  0  0  0  0  0
  -31.3107  -17.0184   20.2048 H   0  0  0  0  0  0
  -28.8939  -25.2830   21.5239 H   0  0  0  0  0  0
  -27.2349  -25.2330   21.1143 H   0  0  0  0  0  0
  -29.6334  -24.0216   19.8007 H   0  0  0  0  0  0
  -29.0817  -15.3666   21.3377 H   0  0  0  0  0  0
  1 25  1  0  0  0
  1 30  2  0  0  0
  1 89  1  0  0  0
  2  3  1  0  0  0
  2 25  1  0  0  0
  2 90  1  0  0  0
  2 91  1  0  0  0
  3  4  1  0  0  0
  3 92  1  0  0  0
  3 93  1  0  0  0
  4  5  1  0  0  0
  4 94  1  0  0  0
  4 95  1  0  0  0
  5  6  1  0  0  0
  5 26  1  0  0  0
  5 96  1  0  0  0
  6 25  1  0  0  0
  6 97  1  0  0  0
  6 98  1  0  0  0
  7  8  2  0  0  0
  7 26  1  0  0  0
  7 29  1  0  0  0
  8  9  1  0  0  0
  8 22  1  0  0  0
  9 10  1  0  0  0
  9 27  2  0  0  0
 10 11  2  0  0  0
 10 15  1  0  0  0
 11 12  1  0  0  0
 11 99  1  0  0  0
 12 13  2  0  0  0
 12100  1  0  0  0
 13 14  1  0  0  0
 13 31  1  0  0  0
 14 15  2  0  0  0
 14101  1  0  0  0
 15102  1  0  0  0
 16 17  2  0  0  0
 16 21  1  0  0  0
 16 31  1  0  0  0
 17 18  1  0  0  0
 17103  1  0  0  0
 18 19  2  0  0  0
 18104  1  0  0  0
 19 20  1  0  0  0
 19 24  1  0  0  0
 20 21  2  0  0  0
 20105  1  0  0  0
 21 23  1  0  0  0
 22 28  1  0  0  0
 22 32  2  0  0  0
 26 27  1  0  0  0
 28106  1  0  0  0
 28107  1  0  0  0
 29108  1  0  0  0
 29109  1  0  0  0
 33 34  1  0  0  0
 33 66  1  0  0  0
 33 70  2  0  0  0
 34 36  1  0  0  0
 34 59  1  0  0  0
 34110  1  0  0  0
 35 44  2  0  0  0
 35 45  1  0  0  0
 35 68  1  0  0  0
 36 56  1  0  0  0
 36111  1  0  0  0
 37 39  1  0  0  0
 37 47  1  0  0  0
 37 66  1  0  0  0
 37112  1  0  0  0
 38 43  2  0  0  0
 38 46  1  0  0  0
 38 47  1  0  0  0
 39 64  1  0  0  0
 39 67  2  0  0  0
 40 52  1  0  0  0
 40 53  2  0  0  0
 40 58  1  0  0  0
 41113  1  0  0  0
 41114  1  0  0  0
 41115  1  0  0  0
 41 48  1  0  0  0
 42 43  1  0  0  0
 42 66  1  0  0  0
 42116  1  0  0  0
 42117  1  0  0  0
 43 44  1  0  0  0
 44118  1  0  0  0
 45 46  2  0  0  0
 45119  1  0  0  0
 46120  1  0  0  0
 47121  1  0  0  0
 47122  1  0  0  0
 48 56  1  0  0  0
 48 65  1  0  0  0
 48123  1  0  0  0
 49 50  1  0  0  0
 49 53  1  0  0  0
 49 64  1  0  0  0
 49124  1  0  0  0
 50 51  1  0  0  0
 50125  1  0  0  0
 50126  1  0  0  0
 51 52  1  0  0  0
 51127  1  0  0  0
 51128  1  0  0  0
 52129  1  0  0  0
 52130  1  0  0  0
 53 54  1  0  0  0
 54 55  2  0  0  0
 54131  1  0  0  0
 55 57  1  0  0  0
 55132  1  0  0  0
 56 69  2  0  0  0
 57 58  2  0  0  0
 57133  1  0  0  0
 58134  1  0  0  0
 59 60  1  0  0  0
 59 61  1  0  0  0
 59 62  1  0  0  0
 60135  1  0  0  0
 60136  1  0  0  0
 60137  1  0  0  0
 61138  1  0  0  0
 61139  1  0  0  0
 61140  1  0  0  0
 62141  1  0  0  0
 62142  1  0  0  0
 62143  1  0  0  0
 63 65  1  0  0  0
 63144  1  0  0  0
 63145  1  0  0  0
 63146  1  0  0  0
 64147  1  0  0  0
 65148  1  0  0  0
 68 83  1  0  0  0
 71 72  2  0  0  0
 71 73  1  0  0  0
 71149  1  0  0  0
 72 75  1  0  0  0
 72 87  1  0  0  0
 73 81  1  0  0  0
 73 88  2  0  0  0
 74 85  1  0  0  0
 74 87  2  0  0  0
 74 88  1  0  0  0
 75150  1  0  0  0
 75151  1  0  0  0
 75152  1  0  0  0
 76153  1  0  0  0
 76154  1  0  0  0
 76155  1  0  0  0
 76 84  1  0  0  0
 77156  1  0  0  0
 77157  1  0  0  0
 77158  1  0  0  0
 77 85  1  0  0  0
 78 85  1  0  0  0
 78159  1  0  0  0
 78160  1  0  0  0
 78161  1  0  0  0
 79162  1  0  0  0
 79163  1  0  0  0
 79164  1  0  0  0
 79 86  1  0  0  0
 80 86  1  0  0  0
 80165  1  0  0  0
 80166  1  0  0  0
 80167  1  0  0  0
 81 86  1  0  0  0
 81168  1  0  0  0
 81169  1  0  0  0
 82 85  1  0  0  0
 82 89  1  0  0  0
 82170  1  0  0  0
 82171  1  0  0  0
 83 84  1  0  0  0
 83172  1  0  0  0
 83173  1  0  0  0
 84 86  1  0  0  0
 84174  1  0  0  0
 89175  1  0  0  0
M  ISO  4   1 100  68 101  83 101  89 100
M  END
> <chiral flag>
0

> <version>
0

> <s_m_source_file>
/data/baiqing/PycharmProjects/Reinvent-master-3.2/result/LINK_invent/BTK/process_docking_weight1_custom_sum_contain_oxygen_bond_distance_aromatic_linkinvent_7_9_3/rearranged_h_0065.sdf

> <i_m_source_file_index>
4

> <r_mmod_Potential_Energy-OPLS-2005>
-344.049011230469

> <r_mmod_Stretch_Energy-OPLS-2005>
47.4919319152832

> <r_mmod_Bend_Energy-OPLS-2005>
117.537307739258

> <r_mmod_Torsional_Energy-OPLS-2005>
253.257843017578

> <r_mmod_Improper_Torsional_Energy-OPLS-2005>
5.38150024414062

> <r_mmod_Van_der_Waal_Energy-OPLS-2005>
176.523315429688

> <r_mmod_Electrostatic_Energy-OPLS-2005>
-760.135803222656

> <r_mmod_Solvation_Energy-OPLS-2005>
-200.182357788086

> <b_mmod_Minimization_Converged-OPLS-2005>
0

> <r_mmod_RMS_Derivative-OPLS-2005>
4.18958902359009

$$$$
6
                    3D
 Structure written by MMmdl.
164172  0  0  1  0            999 V2000
  -30.5463  -14.9127   20.3942 C   0  0  0  0  0  0
  -30.4247  -12.5654   19.4750 C   0  0  0  0  0  0
  -29.4774  -12.5429   18.2459 C   0  0  0  0  0  0
  -28.0184  -12.2885   18.6674 C   0  0  0  0  0  0
  -27.6125  -13.2089   19.8373 C   0  0  2  0  0  0
  -28.6737  -13.1784   20.9549 C   0  0  0  0  0  0
  -25.2319  -13.8057   20.5673 C   0  0  0  0  0  0
  -24.1686  -13.0354   20.9298 C   0  0  0  0  0  0
  -24.6308  -11.6825   20.8874 C   0  0  0  0  0  0
  -23.9000  -10.4229   21.0503 C   0  0  0  0  0  0
  -24.3537   -9.4148   21.9285 C   0  0  0  0  0  0
  -23.6232   -8.2181   22.0818 C   0  0  0  0  0  0
  -22.4240   -8.0199   21.3556 C   0  0  0  0  0  0
  -21.9857   -9.0197   20.4671 C   0  0  0  0  0  0
  -22.7180  -10.2091   20.3130 C   0  0  0  0  0  0
  -21.6867   -6.0691   22.5281 C   0  0  0  0  0  0
  -21.4059   -6.5637   23.8194 C   0  0  0  0  0  0
  -21.3671   -5.6782   24.9160 C   0  0  0  0  0  0
  -21.6022   -4.3036   24.7210 C   0  0  0  0  0  0
  -21.8812   -3.8125   23.4337 C   0  0  0  0  0  0
  -21.9215   -4.6941   22.3384 C   0  0  0  0  0  0
  -22.7696  -13.5136   21.1928 C   0  0  0  0  0  0
  -22.1697   -4.2163   21.0965 F   0  0  0  0  0  0
  -21.5600   -3.4508   25.7716 F   0  0  0  0  0  0
  -29.9472  -13.6473   20.3804 N   0  0  0  0  0  0
  -26.2765  -12.9257   20.3352 N   0  0  0  0  0  0
  -25.9235  -11.6421   20.5956 N   0  0  0  0  0  0
  -22.0377  -12.8131   22.0475 N   0  0  0  0  0  0
  -25.3800  -15.1787   20.3904 N   0  0  0  0  0  0
  -31.7257  -14.9423   20.0271 O   0  0  0  0  0  0
  -21.6621   -6.8811   21.4226 O   0  0  0  0  0  0
  -22.3390  -14.5440   20.6716 O   0  0  0  0  0  0
  -24.6367  -31.8489   23.2015 C   0  0  0  0  0  0
  -25.9187  -32.4713   23.8361 C   0  0  1  0  0  0
  -27.2090  -27.1860   20.0974 C   0  0  0  0  0  0
  -25.5977  -33.8542   24.2280 N   0  0  0  0  0  0
  -23.4420  -30.4736   21.5448 C   0  0  2  0  0  0
  -24.8913  -28.9284   20.1033 C   0  0  0  0  0  0
  -22.7544  -29.4545   22.4872 C   0  0  0  0  0  0
  -18.0296  -28.1390   22.8490 C   0  0  0  0  0  0
  -24.1480  -36.7248   23.2646 C   0  0  0  0  0  0
  -26.0012  -30.7240   21.4129 C   0  0  0  0  0  0
  -26.0702  -29.3499   20.7374 C   0  0  0  0  0  0
  -27.2322  -28.4906   20.7292 C   0  0  0  0  0  0
  -26.0235  -26.8956   19.3893 C   0  0  0  0  0  0
  -24.8816  -27.7166   19.4118 C   0  0  0  0  0  0
  -23.6650  -29.8220   20.1611 C   0  0  0  0  0  0
  -25.4126  -36.3052   24.0320 C   0  0  1  0  0  0
  -20.5881  -28.3719   23.1237 C   0  0  2  0  0  0
  -20.6757  -26.9428   22.5402 C   0  0  0  0  0  0
  -19.5733  -26.6397   21.5190 C   0  0  0  0  0  0
  -18.1918  -26.7951   22.1613 C   0  0  0  0  0  0
  -19.1542  -28.8890   23.2844 C   0  0  0  0  0  0
  -18.9466  -30.1464   23.8870 C   0  0  0  0  0  0
  -17.6462  -30.6593   24.0558 C   0  0  0  0  0  0
  -25.9054  -34.9423   23.5096 C   0  0  0  0  0  0
  -16.5349  -29.9069   23.6354 C   0  0  0  0  0  0
  -16.7272  -28.6485   23.0396 C   0  0  0  0  0  0
  -26.4574  -31.6588   25.0807 C   0  0  0  0  0  0
  -25.3786  -31.3771   26.1518 C   0  0  0  0  0  0
  -27.0504  -30.2981   24.6484 C   0  0  0  0  0  0
  -27.6067  -32.4412   25.7594 C   0  0  0  0  0  0
  -27.5595  -37.1757   24.8465 C   0  0  0  0  0  0
  -21.4235  -29.3044   22.3619 N   0  0  0  0  0  0
  -26.4308  -37.3758   23.9416 N   0  0  0  0  0  0
  -24.7116  -31.0333   22.1070 N   0  0  0  0  0  0
  -23.4202  -28.8042   23.2986 O   0  0  0  0  0  0
  -28.2320  -26.1735   20.1203 O   0  0  0  0  0  0
  -26.5565  -34.8904   22.4644 O   0  0  0  0  0  0
  -23.5485  -32.1407   23.7205 O   0  0  0  0  0  0
  -27.6561  -22.0987   20.1982 C   0  0  0  0  0  0
  -28.1992  -20.7717   20.0847 C   0  0  0  0  0  0
  -28.4703  -23.2776   20.1410 C   0  0  0  0  0  0
  -29.5945  -20.5956   19.8896 C   0  0  0  0  0  0
  -29.3112  -16.9955   18.3368 C   0  0  0  0  0  0
  -30.8572  -19.3486   18.1165 C   0  0  0  0  0  0
  -31.6697  -19.2044   20.4419 C   0  0  0  0  0  0
  -28.5047  -16.2409   21.4809 C   0  0  0  0  0  0
  -30.7121  -16.8596   22.0201 C   0  0  0  0  0  0
  -27.7478  -24.7258   20.3495 C   0  0  0  0  0  0
  -29.6206  -17.6601   19.7093 C   0  0  2  0  0  0
  -30.3728  -19.1797   19.5936 C   0  0  0  0  0  0
  -29.8849  -16.3926   20.8108 C   0  0  0  0  0  0
  -29.8119  -23.0472   19.9639 N   0  0  0  0  0  0
  -30.3249  -21.7773   19.8346 N   0  0  0  0  0  0
  -31.4530  -12.7190   19.1513 H   0  0  0  0  0  0
  -30.4272  -11.6106   20.0021 H   0  0  0  0  0  0
  -29.7887  -11.7952   17.5192 H   0  0  0  0  0  0
  -29.5185  -13.5087   17.7457 H   0  0  0  0  0  0
  -27.9152  -11.2401   18.9527 H   0  0  0  0  0  0
  -27.3409  -12.4414   17.8279 H   0  0  0  0  0  0
  -27.5715  -14.1970   19.3911 H   0  0  0  0  0  0
  -28.7808  -12.1634   21.3405 H   0  0  0  0  0  0
  -28.3520  -13.7225   21.8267 H   0  0  0  0  0  0
  -25.2671   -9.5600   22.4886 H   0  0  0  0  0  0
  -23.9950   -7.4519   22.7478 H   0  0  0  0  0  0
  -21.0872   -8.8646   19.8860 H   0  0  0  0  0  0
  -22.3676  -10.9618   19.6195 H   0  0  0  0  0  0
  -21.2104   -7.6160   23.9685 H   0  0  0  0  0  0
  -21.1526   -6.0555   25.9065 H   0  0  0  0  0  0
  -22.0599   -2.7610   23.2819 H   0  0  0  0  0  0
  -22.4045  -11.9760   22.4705 H   0  0  0  0  0  0
  -21.1005  -13.1098   22.2834 H   0  0  0  0  0  0
  -24.5751  -15.7914   20.4579 H   0  0  0  0  0  0
  -26.1965  -15.6360   20.0064 H   0  0  0  0  0  0
  -26.7245  -32.5313   23.1058 H   0  0  0  0  0  0
  -25.0246  -33.9751   25.0509 H   0  0  0  0  0  0
  -22.7443  -31.3012   21.3987 H   0  0  0  0  0  0
  -23.3802  -35.9504   23.3258 H   0  0  0  0  0  0
  -24.3595  -36.8958   22.2073 H   0  0  0  0  0  0
  -23.7162  -37.6409   23.6723 H   0  0  0  0  0  0
  -26.1833  -31.4984   20.6663 H   0  0  0  0  0  0
  -26.8577  -30.7455   22.0752 H   0  0  0  0  0  0
  -28.1243  -28.8047   21.2547 H   0  0  0  0  0  0
  -25.9438  -26.0184   18.7681 H   0  0  0  0  0  0
  -24.0030  -27.4072   18.8656 H   0  0  0  0  0  0
  -23.7910  -30.6072   19.4159 H   0  0  0  0  0  0
  -22.7820  -29.2630   19.8444 H   0  0  0  0  0  0
  -25.1295  -36.1901   25.0803 H   0  0  0  0  0  0
  -20.9962  -28.3278   24.1345 H   0  0  0  0  0  0
  -20.5687  -26.2298   23.3612 H   0  0  0  0  0  0
  -21.6625  -26.7437   22.1170 H   0  0  0  0  0  0
  -19.6908  -25.6310   21.1221 H   0  0  0  0  0  0
  -19.6679  -27.3195   20.6714 H   0  0  0  0  0  0
  -17.4186  -26.6715   21.4000 H   0  0  0  0  0  0
  -18.0279  -26.0090   22.9014 H   0  0  0  0  0  0
  -19.7944  -30.7286   24.2233 H   0  0  0  0  0  0
  -17.5022  -31.6296   24.5147 H   0  0  0  0  0  0
  -15.5357  -30.2957   23.7742 H   0  0  0  0  0  0
  -15.8662  -28.0795   22.7143 H   0  0  0  0  0  0
  -24.5917  -30.7163   25.7869 H   0  0  0  0  0  0
  -24.9035  -32.2955   26.4966 H   0  0  0  0  0  0
  -25.8086  -30.8947   27.0304 H   0  0  0  0  0  0
  -26.3195  -29.6635   24.1461 H   0  0  0  0  0  0
  -27.4064  -29.7340   25.5129 H   0  0  0  0  0  0
  -27.9100  -30.4245   23.9901 H   0  0  0  0  0  0
  -27.2599  -33.3710   26.2109 H   0  0  0  0  0  0
  -28.3863  -32.6993   25.0423 H   0  0  0  0  0  0
  -28.0742  -31.8632   26.5573 H   0  0  0  0  0  0
  -28.2513  -38.0142   24.7601 H   0  0  0  0  0  0
  -28.1183  -36.2675   24.6162 H   0  0  0  0  0  0
  -27.2317  -37.1219   25.8866 H   0  0  0  0  0  0
  -20.9403  -29.8825   21.6889 H   0  0  0  0  0  0
  -26.0178  -38.2804   24.1542 H   0  0  0  0  0  0
  -26.5905  -22.2036   20.3309 H   0  0  0  0  0  0
  -27.5323  -19.9224   20.1254 H   0  0  0  0  0  0
  -28.9240  -17.6845   17.5839 H   0  0  0  0  0  0
  -28.5483  -16.2253   18.4422 H   0  0  0  0  0  0
  -30.1982  -16.5211   17.9187 H   0  0  0  0  0  0
  -31.5392  -20.1936   18.0160 H   0  0  0  0  0  0
  -30.0250  -19.5769   17.4450 H   0  0  0  0  0  0
  -31.3859  -18.4777   17.7197 H   0  0  0  0  0  0
  -32.3424  -20.0091   20.1471 H   0  0  0  0  0  0
  -32.2414  -18.2846   20.3338 H   0  0  0  0  0  0
  -31.4695  -19.3990   21.4938 H   0  0  0  0  0  0
  -27.7700  -15.8772   20.7800 H   0  0  0  0  0  0
  -28.1342  -17.1981   21.8495 H   0  0  0  0  0  0
  -28.5145  -15.6226   22.3749 H   0  0  0  0  0  0
  -30.3552  -17.8229   22.3838 H   0  0  0  0  0  0
  -31.7815  -16.8944   21.8193 H   0  0  0  0  0  0
  -30.5986  -16.1732   22.8518 H   0  0  0  0  0  0
  -27.4091  -24.7026   21.3828 H   0  0  0  0  0  0
  -26.8394  -24.5513   19.7818 H   0  0  0  0  0  0
  -28.6176  -18.0067   19.9441 H   0  0  0  0  0  0
  1 25  1  0  0  0
  1 30  2  0  0  0
  1 83  1  0  0  0
  2  3  1  0  0  0
  2 25  1  0  0  0
  2 86  1  0  0  0
  2 87  1  0  0  0
  3  4  1  0  0  0
  3 88  1  0  0  0
  3 89  1  0  0  0
  4  5  1  0  0  0
  4 90  1  0  0  0
  4 91  1  0  0  0
  5  6  1  0  0  0
  5 26  1  0  0  0
  5 92  1  0  0  0
  6 25  1  0  0  0
  6 93  1  0  0  0
  6 94  1  0  0  0
  7  8  2  0  0  0
  7 26  1  0  0  0
  7 29  1  0  0  0
  8  9  1  0  0  0
  8 22  1  0  0  0
  9 10  1  0  0  0
  9 27  2  0  0  0
 10 11  2  0  0  0
 10 15  1  0  0  0
 11 12  1  0  0  0
 11 95  1  0  0  0
 12 13  2  0  0  0
 12 96  1  0  0  0
 13 14  1  0  0  0
 13 31  1  0  0  0
 14 15  2  0  0  0
 14 97  1  0  0  0
 15 98  1  0  0  0
 16 17  2  0  0  0
 16 21  1  0  0  0
 16 31  1  0  0  0
 17 18  1  0  0  0
 17 99  1  0  0  0
 18 19  2  0  0  0
 18100  1  0  0  0
 19 20  1  0  0  0
 19 24  1  0  0  0
 20 21  2  0  0  0
 20101  1  0  0  0
 21 23  1  0  0  0
 22 28  1  0  0  0
 22 32  2  0  0  0
 26 27  1  0  0  0
 28102  1  0  0  0
 28103  1  0  0  0
 29104  1  0  0  0
 29105  1  0  0  0
 33 34  1  0  0  0
 33 66  1  0  0  0
 33 70  2  0  0  0
 34 36  1  0  0  0
 34 59  1  0  0  0
 34106  1  0  0  0
 35 44  2  0  0  0
 35 45  1  0  0  0
 35 68  1  0  0  0
 36 56  1  0  0  0
 36107  1  0  0  0
 37 39  1  0  0  0
 37 47  1  0  0  0
 37 66  1  0  0  0
 37108  1  0  0  0
 38 43  2  0  0  0
 38 46  1  0  0  0
 38 47  1  0  0  0
 39 64  1  0  0  0
 39 67  2  0  0  0
 40 52  1  0  0  0
 40 53  2  0  0  0
 40 58  1  0  0  0
 41109  1  0  0  0
 41110  1  0  0  0
 41111  1  0  0  0
 41 48  1  0  0  0
 42 43  1  0  0  0
 42 66  1  0  0  0
 42112  1  0  0  0
 42113  1  0  0  0
 43 44  1  0  0  0
 44114  1  0  0  0
 45 46  2  0  0  0
 45115  1  0  0  0
 46116  1  0  0  0
 47117  1  0  0  0
 47118  1  0  0  0
 48 56  1  0  0  0
 48 65  1  0  0  0
 48119  1  0  0  0
 49 50  1  0  0  0
 49 53  1  0  0  0
 49 64  1  0  0  0
 49120  1  0  0  0
 50 51  1  0  0  0
 50121  1  0  0  0
 50122  1  0  0  0
 51 52  1  0  0  0
 51123  1  0  0  0
 51124  1  0  0  0
 52125  1  0  0  0
 52126  1  0  0  0
 53 54  1  0  0  0
 54 55  2  0  0  0
 54127  1  0  0  0
 55 57  1  0  0  0
 55128  1  0  0  0
 56 69  2  0  0  0
 57 58  2  0  0  0
 57129  1  0  0  0
 58130  1  0  0  0
 59 60  1  0  0  0
 59 61  1  0  0  0
 59 62  1  0  0  0
 60131  1  0  0  0
 60132  1  0  0  0
 60133  1  0  0  0
 61134  1  0  0  0
 61135  1  0  0  0
 61136  1  0  0  0
 62137  1  0  0  0
 62138  1  0  0  0
 62139  1  0  0  0
 63 65  1  0  0  0
 63140  1  0  0  0
 63141  1  0  0  0
 63142  1  0  0  0
 64143  1  0  0  0
 65144  1  0  0  0
 68 80  1  0  0  0
 71 72  2  0  0  0
 71 73  1  0  0  0
 71145  1  0  0  0
 72 74  1  0  0  0
 72146  1  0  0  0
 73 80  1  0  0  0
 73 84  2  0  0  0
 74 82  1  0  0  0
 74 85  2  0  0  0
 75147  1  0  0  0
 75148  1  0  0  0
 75149  1  0  0  0
 75 81  1  0  0  0
 76150  1  0  0  0
 76151  1  0  0  0
 76152  1  0  0  0
 76 82  1  0  0  0
 77 82  1  0  0  0
 77153  1  0  0  0
 77154  1  0  0  0
 77155  1  0  0  0
 78156  1  0  0  0
 78157  1  0  0  0
 78158  1  0  0  0
 78 83  1  0  0  0
 79 83  1  0  0  0
 79159  1  0  0  0
 79160  1  0  0  0
 79161  1  0  0  0
 80162  1  0  0  0
 80163  1  0  0  0
 81 82  1  0  0  0
 81 83  1  0  0  0
 81164  1  0  0  0
 84 85  1  0  0  0
M  ISO  4   1 100  68 101  80 101  83 100
M  END
> <chiral flag>
0

> <version>
0

> <s_m_source_file>
/data/baiqing/PycharmProjects/Reinvent-master-3.2/result/LINK_invent/BTK/process_docking_weight1_custom_sum_contain_oxygen_bond_distance_aromatic_linkinvent_7_9_3/rearranged_h_0065.sdf

> <i_m_source_file_index>
5

> <r_mmod_Potential_Energy-OPLS-2005>
701.431884765625

> <r_mmod_Stretch_Energy-OPLS-2005>
245.975936889648

> <r_mmod_Bend_Energy-OPLS-2005>
334.255737304688

> <r_mmod_Torsional_Energy-OPLS-2005>
224.685882568359

> <r_mmod_Improper_Torsional_Energy-OPLS-2005>
2.51830101013184

> <r_mmod_Van_der_Waal_Energy-OPLS-2005>
189.92561340332

> <r_mmod_Electrostatic_Energy-OPLS-2005>
-246.726638793945

> <r_mmod_Solvation_Energy-OPLS-2005>
-212.456634521484

> <b_mmod_Minimization_Converged-OPLS-2005>
0

> <r_mmod_RMS_Derivative-OPLS-2005>
8.75906181335449

$$$$
7
                    3D
 Structure written by MMmdl.
180188  0  0  1  0            999 V2000
  -30.7211  -14.4316   20.5904 C   0  0  0  0  0  0
  -30.4152  -12.2818   19.4198 C   0  0  0  0  0  0
  -29.4917  -12.4981   18.2042 C   0  0  0  0  0  0
  -28.0121  -12.3646   18.6144 C   0  0  0  0  0  0
  -27.6615  -13.2053   19.8713 C   0  0  2  0  0  0
  -28.7027  -12.9912   20.9930 C   0  0  0  0  0  0
  -25.2601  -13.8160   20.5686 C   0  0  0  0  0  0
  -24.1848  -13.0443   20.9171 C   0  0  0  0  0  0
  -24.6394  -11.6905   20.8724 C   0  0  0  0  0  0
  -23.9057  -10.4295   21.0399 C   0  0  0  0  0  0
  -24.3605   -9.4211   21.9184 C   0  0  0  0  0  0
  -23.6282   -8.2246   22.0754 C   0  0  0  0  0  0
  -22.4268   -8.0277   21.3543 C   0  0  0  0  0  0
  -21.9903   -9.0251   20.4642 C   0  0  0  0  0  0
  -22.7227  -10.2132   20.3050 C   0  0  0  0  0  0
  -21.6852   -6.0731   22.5278 C   0  0  0  0  0  0
  -21.4013   -6.5637   23.8210 C   0  0  0  0  0  0
  -21.3657   -5.6790   24.9171 C   0  0  0  0  0  0
  -21.6043   -4.3055   24.7222 C   0  0  0  0  0  0
  -21.8824   -3.8144   23.4346 C   0  0  0  0  0  0
  -21.9194   -4.6959   22.3402 C   0  0  0  0  0  0
  -22.7873  -13.5244   21.1838 C   0  0  0  0  0  0
  -22.1664   -4.2145   21.0980 F   0  0  0  0  0  0
  -21.5625   -3.4541   25.7733 F   0  0  0  0  0  0
  -30.0370  -13.2671   20.4431 N   0  0  0  0  0  0
  -26.3031  -12.9327   20.3357 N   0  0  0  0  0  0
  -25.9318  -11.6490   20.5751 N   0  0  0  0  0  0
  -22.0514  -12.8230   22.0386 N   0  0  0  0  0  0
  -25.4347  -15.1879   20.4106 N   0  0  0  0  0  0
  -31.8482  -14.5816   20.1099 O   0  0  0  0  0  0
  -21.6636   -6.8871   21.4240 O   0  0  0  0  0  0
  -22.3555  -14.5555   20.6691 O   0  0  0  0  0  0
  -24.6107  -31.8704   23.2129 C   0  0  0  0  0  0
  -25.9020  -32.4832   23.8414 C   0  0  1  0  0  0
  -27.2398  -27.4661   20.1024 C   0  0  0  0  0  0
  -25.5887  -33.8631   24.2340 N   0  0  0  0  0  0
  -23.3976  -30.4919   21.5525 C   0  0  2  0  0  0
  -24.8472  -28.9618   20.1160 C   0  0  0  0  0  0
  -22.7390  -29.4655   22.5013 C   0  0  0  0  0  0
  -18.0265  -28.1367   22.8492 C   0  0  0  0  0  0
  -24.1481  -36.7320   23.2638 C   0  0  0  0  0  0
  -25.9209  -30.8469   21.3608 C   0  0  0  0  0  0
  -26.0009  -29.4803   20.7178 C   0  0  0  0  0  0
  -27.1996  -28.7375   20.7191 C   0  0  0  0  0  0
  -26.0787  -26.9618   19.4857 C   0  0  0  0  0  0
  -24.8786  -27.6982   19.4986 C   0  0  0  0  0  0
  -23.6052  -29.8221   20.1668 C   0  0  0  0  0  0
  -25.4103  -36.3115   24.0333 C   0  0  1  0  0  0
  -20.5853  -28.3647   23.1328 C   0  0  2  0  0  0
  -20.6750  -26.9387   22.5422 C   0  0  0  0  0  0
  -19.5731  -26.6378   21.5212 C   0  0  0  0  0  0
  -18.1910  -26.7912   22.1620 C   0  0  0  0  0  0
  -19.1516  -28.8825   23.2904 C   0  0  0  0  0  0
  -18.9448  -30.1433   23.8910 C   0  0  0  0  0  0
  -17.6450  -30.6577   24.0566 C   0  0  0  0  0  0
  -25.9030  -34.9479   23.5133 C   0  0  0  0  0  0
  -16.5342  -29.9085   23.6318 C   0  0  0  0  0  0
  -16.7254  -28.6499   23.0342 C   0  0  0  0  0  0
  -26.4472  -31.6594   25.0722 C   0  0  0  0  0  0
  -25.3751  -31.3672   26.1473 C   0  0  0  0  0  0
  -27.0310  -30.3049   24.6052 C   0  0  0  0  0  0
  -27.6047  -32.4312   25.7490 C   0  0  0  0  0  0
  -27.5574  -37.1814   24.8462 C   0  0  0  0  0  0
  -21.4120  -29.3024   22.3749 N   0  0  0  0  0  0
  -26.4287  -37.3803   23.9408 N   0  0  0  0  0  0
  -24.6611  -31.0836   22.1014 N   0  0  0  0  0  0
  -23.4177  -28.8198   23.3042 O   0  0  0  0  0  0
  -28.3690  -26.6860   20.0656 O   0  0  0  0  0  0
  -26.5599  -34.8925   22.4698 O   0  0  0  0  0  0
  -23.5308  -32.1447   23.7543 O   0  0  0  0  0  0
  -29.9833  -18.1873   20.8818 C   0  0  0  0  0  0
  -28.8331  -19.6319   19.9368 C   0  0  0  0  0  0
  -28.0146  -20.3348   18.9010 C   0  0  0  0  0  0
  -32.7824  -26.1517   23.8827 C   0  0  0  0  0  0
  -32.8914  -26.1738   21.3614 C   0  0  0  0  0  0
  -30.7070  -22.5860   20.2753 C   0  0  0  0  0  0
  -27.4313  -21.4594   22.2122 C   0  0  0  0  0  0
  -29.7522  -21.5729   23.1147 C   0  0  0  0  0  0
  -30.8319  -16.9724   21.0744 C   0  0  0  0  0  0
  -30.0323  -15.6513   21.2377 C   0  0  0  0  0  0
  -30.8288  -25.2300   22.5655 C   0  0  0  0  0  0
  -28.8610  -24.0810   21.4192 C   0  0  0  0  0  0
  -29.1161  -26.6200   21.2765 C   0  0  0  0  0  0
  -31.9686  -26.2756   22.5864 C   0  0  0  0  0  0
  -29.2802  -22.6694   20.8729 C   0  0  2  0  0  0
  -29.8677  -25.2698   21.3483 C   0  0  1  0  0  0
  -28.9233  -21.4485   21.8059 C   0  0  0  0  0  0
  -29.3052  -18.4062   19.7235 N   0  0  0  0  0  0
  -29.9074  -19.1640   21.7810 N   0  0  0  0  0  0
  -29.2017  -20.1433   21.1359 N   0  0  0  0  0  0
  -31.4615  -12.3613   19.1195 H   0  0  0  0  0  0
  -30.2972  -11.2717   19.8152 H   0  0  0  0  0  0
  -29.7269  -11.7769   17.4203 H   0  0  0  0  0  0
  -29.6693  -13.4852   17.7749 H   0  0  0  0  0  0
  -27.8159  -11.3094   18.8080 H   0  0  0  0  0  0
  -27.3648  -12.6456   17.7827 H   0  0  0  0  0  0
  -27.7045  -14.2513   19.5690 H   0  0  0  0  0  0
  -28.6659  -11.9624   21.3545 H   0  0  0  0  0  0
  -28.4722  -13.6129   21.8580 H   0  0  0  0  0  0
  -25.2750   -9.5690   22.4759 H   0  0  0  0  0  0
  -23.9992   -7.4642   22.7479 H   0  0  0  0  0  0
  -21.0836   -8.8761   19.8944 H   0  0  0  0  0  0
  -22.3683  -10.9666   19.6154 H   0  0  0  0  0  0
  -21.2006   -7.6146   23.9707 H   0  0  0  0  0  0
  -21.1474   -6.0522   25.9071 H   0  0  0  0  0  0
  -22.0607   -2.7606   23.2848 H   0  0  0  0  0  0
  -22.4121  -11.9873   22.4754 H   0  0  0  0  0  0
  -21.1133  -13.1254   22.2598 H   0  0  0  0  0  0
  -24.6751  -15.8496   20.5260 H   0  0  0  0  0  0
  -26.2956  -15.6246   20.1050 H   0  0  0  0  0  0
  -26.7096  -32.5568   23.1193 H   0  0  0  0  0  0
  -25.0034  -33.9803   25.0477 H   0  0  0  0  0  0
  -22.6836  -31.3066   21.4147 H   0  0  0  0  0  0
  -23.3737  -35.9659   23.3309 H   0  0  0  0  0  0
  -24.3574  -36.8937   22.2052 H   0  0  0  0  0  0
  -23.7236  -37.6524   23.6659 H   0  0  0  0  0  0
  -26.0226  -31.6083   20.5864 H   0  0  0  0  0  0
  -26.8130  -30.9102   21.9717 H   0  0  0  0  0  0
  -28.0865  -29.1459   21.1832 H   0  0  0  0  0  0
  -26.1039  -25.9918   19.0089 H   0  0  0  0  0  0
  -23.9933  -27.2911   19.0295 H   0  0  0  0  0  0
  -23.7065  -30.5962   19.4056 H   0  0  0  0  0  0
  -22.7320  -29.2361   19.8746 H   0  0  0  0  0  0
  -25.1276  -36.1991   25.0826 H   0  0  0  0  0  0
  -20.9938  -28.3207   24.1451 H   0  0  0  0  0  0
  -20.5659  -26.2246   23.3601 H   0  0  0  0  0  0
  -21.6623  -26.7440   22.1219 H   0  0  0  0  0  0
  -19.6891  -25.6298   21.1221 H   0  0  0  0  0  0
  -19.6663  -27.3202   20.6755 H   0  0  0  0  0  0
  -17.4182  -26.6674   21.4020 H   0  0  0  0  0  0
  -18.0304  -26.0046   22.9007 H   0  0  0  0  0  0
  -19.7932  -30.7238   24.2286 H   0  0  0  0  0  0
  -17.5017  -31.6257   24.5171 H   0  0  0  0  0  0
  -15.5344  -30.2993   23.7629 H   0  0  0  0  0  0
  -15.8655  -28.0820   22.7047 H   0  0  0  0  0  0
  -24.5912  -30.7039   25.7799 H   0  0  0  0  0  0
  -24.8956  -32.2818   26.4971 H   0  0  0  0  0  0
  -25.8116  -30.8798   27.0197 H   0  0  0  0  0  0
  -26.2842  -29.6806   24.1131 H   0  0  0  0  0  0
  -27.4139  -29.7281   25.4482 H   0  0  0  0  0  0
  -27.8647  -30.4402   23.9154 H   0  0  0  0  0  0
  -27.2670  -33.3605   26.2092 H   0  0  0  0  0  0
  -28.3847  -32.6884   25.0311 H   0  0  0  0  0  0
  -28.0724  -31.8422   26.5389 H   0  0  0  0  0  0
  -28.2588  -38.0117   24.7533 H   0  0  0  0  0  0
  -28.1075  -36.2650   24.6265 H   0  0  0  0  0  0
  -27.2294  -37.1438   25.8865 H   0  0  0  0  0  0
  -20.9273  -29.8763   21.6989 H   0  0  0  0  0  0
  -26.0169  -38.2874   24.1430 H   0  0  0  0  0  0
  -27.6332  -19.6178   18.1744 H   0  0  0  0  0  0
  -28.6299  -21.0538   18.3614 H   0  0  0  0  0  0
  -27.1591  -20.8425   19.3386 H   0  0  0  0  0  0
  -33.5510  -26.9233   23.9427 H   0  0  0  0  0  0
  -33.2778  -25.1826   23.9524 H   0  0  0  0  0  0
  -32.1449  -26.2624   24.7609 H   0  0  0  0  0  0
  -33.7189  -26.8806   21.4341 H   0  0  0  0  0  0
  -32.3615  -26.4054   20.4374 H   0  0  0  0  0  0
  -33.3155  -25.1742   21.2622 H   0  0  0  0  0  0
  -30.8469  -23.3051   19.4696 H   0  0  0  0  0  0
  -30.9097  -21.6122   19.8316 H   0  0  0  0  0  0
  -31.4825  -22.7580   21.0193 H   0  0  0  0  0  0
  -27.1845  -22.2935   22.8678 H   0  0  0  0  0  0
  -27.1693  -20.5502   22.7552 H   0  0  0  0  0  0
  -26.7648  -21.5268   21.3553 H   0  0  0  0  0  0
  -29.5653  -22.5085   23.6385 H   0  0  0  0  0  0
  -30.8236  -21.5230   22.9213 H   0  0  0  0  0  0
  -29.5113  -20.7767   23.8206 H   0  0  0  0  0  0
  -31.4755  -17.1117   21.9435 H   0  0  0  0  0  0
  -31.5040  -16.9462   20.2164 H   0  0  0  0  0  0
  -29.0694  -15.7669   20.7402 H   0  0  0  0  0  0
  -29.8208  -15.4664   22.2903 H   0  0  0  0  0  0
  -30.2352  -25.3467   23.4737 H   0  0  0  0  0  0
  -31.2726  -24.2388   22.6462 H   0  0  0  0  0  0
  -28.4981  -24.0210   22.4429 H   0  0  0  0  0  0
  -27.9655  -24.3602   20.8621 H   0  0  0  0  0  0
  -29.8081  -27.4605   21.2768 H   0  0  0  0  0  0
  -28.4731  -26.7244   22.1532 H   0  0  0  0  0  0
  -31.5366  -27.2763   22.5967 H   0  0  0  0  0  0
  -28.6403  -22.5680   20.0012 H   0  0  0  0  0  0
  -30.4424  -25.2023   20.4282 H   0  0  0  0  0  0
  1 25  1  0  0  0
  1 30  2  0  0  0
  1 80  1  0  0  0
  2  3  1  0  0  0
  2 25  1  0  0  0
  2 91  1  0  0  0
  2 92  1  0  0  0
  3  4  1  0  0  0
  3 93  1  0  0  0
  3 94  1  0  0  0
  4  5  1  0  0  0
  4 95  1  0  0  0
  4 96  1  0  0  0
  5  6  1  0  0  0
  5 26  1  0  0  0
  5 97  1  0  0  0
  6 25  1  0  0  0
  6 98  1  0  0  0
  6 99  1  0  0  0
  7  8  2  0  0  0
  7 26  1  0  0  0
  7 29  1  0  0  0
  8  9  1  0  0  0
  8 22  1  0  0  0
  9 10  1  0  0  0
  9 27  2  0  0  0
 10 11  2  0  0  0
 10 15  1  0  0  0
 11 12  1  0  0  0
 11100  1  0  0  0
 12 13  2  0  0  0
 12101  1  0  0  0
 13 14  1  0  0  0
 13 31  1  0  0  0
 14 15  2  0  0  0
 14102  1  0  0  0
 15103  1  0  0  0
 16 17  2  0  0  0
 16 21  1  0  0  0
 16 31  1  0  0  0
 17 18  1  0  0  0
 17104  1  0  0  0
 18 19  2  0  0  0
 18105  1  0  0  0
 19 20  1  0  0  0
 19 24  1  0  0  0
 20 21  2  0  0  0
 20106  1  0  0  0
 21 23  1  0  0  0
 22 28  1  0  0  0
 22 32  2  0  0  0
 26 27  1  0  0  0
 28107  1  0  0  0
 28108  1  0  0  0
 29109  1  0  0  0
 29110  1  0  0  0
 33 34  1  0  0  0
 33 66  1  0  0  0
 33 70  2  0  0  0
 34 36  1  0  0  0
 34 59  1  0  0  0
 34111  1  0  0  0
 35 44  2  0  0  0
 35 45  1  0  0  0
 35 68  1  0  0  0
 36 56  1  0  0  0
 36112  1  0  0  0
 37 39  1  0  0  0
 37 47  1  0  0  0
 37 66  1  0  0  0
 37113  1  0  0  0
 38 43  2  0  0  0
 38 46  1  0  0  0
 38 47  1  0  0  0
 39 64  1  0  0  0
 39 67  2  0  0  0
 40 52  1  0  0  0
 40 53  2  0  0  0
 40 58  1  0  0  0
 41114  1  0  0  0
 41115  1  0  0  0
 41116  1  0  0  0
 41 48  1  0  0  0
 42 43  1  0  0  0
 42 66  1  0  0  0
 42117  1  0  0  0
 42118  1  0  0  0
 43 44  1  0  0  0
 44119  1  0  0  0
 45 46  2  0  0  0
 45120  1  0  0  0
 46121  1  0  0  0
 47122  1  0  0  0
 47123  1  0  0  0
 48 56  1  0  0  0
 48 65  1  0  0  0
 48124  1  0  0  0
 49 50  1  0  0  0
 49 53  1  0  0  0
 49 64  1  0  0  0
 49125  1  0  0  0
 50 51  1  0  0  0
 50126  1  0  0  0
 50127  1  0  0  0
 51 52  1  0  0  0
 51128  1  0  0  0
 51129  1  0  0  0
 52130  1  0  0  0
 52131  1  0  0  0
 53 54  1  0  0  0
 54 55  2  0  0  0
 54132  1  0  0  0
 55 57  1  0  0  0
 55133  1  0  0  0
 56 69  2  0  0  0
 57 58  2  0  0  0
 57134  1  0  0  0
 58135  1  0  0  0
 59 60  1  0  0  0
 59 61  1  0  0  0
 59 62  1  0  0  0
 60136  1  0  0  0
 60137  1  0  0  0
 60138  1  0  0  0
 61139  1  0  0  0
 61140  1  0  0  0
 61141  1  0  0  0
 62142  1  0  0  0
 62143  1  0  0  0
 62144  1  0  0  0
 63 65  1  0  0  0
 63145  1  0  0  0
 63146  1  0  0  0
 63147  1  0  0  0
 64148  1  0  0  0
 65149  1  0  0  0
 68 83  1  0  0  0
 71 79  1  0  0  0
 71 88  1  0  0  0
 71 89  2  0  0  0
 72 73  1  0  0  0
 72 88  2  0  0  0
 72 90  1  0  0  0
 73150  1  0  0  0
 73151  1  0  0  0
 73152  1  0  0  0
 74153  1  0  0  0
 74154  1  0  0  0
 74155  1  0  0  0
 74 84  1  0  0  0
 75 84  1  0  0  0
 75156  1  0  0  0
 75157  1  0  0  0
 75158  1  0  0  0
 76159  1  0  0  0
 76160  1  0  0  0
 76161  1  0  0  0
 76 85  1  0  0  0
 77162  1  0  0  0
 77163  1  0  0  0
 77164  1  0  0  0
 77 87  1  0  0  0
 78 87  1  0  0  0
 78165  1  0  0  0
 78166  1  0  0  0
 78167  1  0  0  0
 79 80  1  0  0  0
 79168  1  0  0  0
 79169  1  0  0  0
 80170  1  0  0  0
 80171  1  0  0  0
 81 84  1  0  0  0
 81172  1  0  0  0
 81173  1  0  0  0
 81 86  1  0  0  0
 82 85  1  0  0  0
 82 86  1  0  0  0
 82174  1  0  0  0
 82175  1  0  0  0
 83 86  1  0  0  0
 83176  1  0  0  0
 83177  1  0  0  0
 84178  1  0  0  0
 85 87  1  0  0  0
 85179  1  0  0  0
 86180  1  0  0  0
 87 90  1  0  0  0
 89 90  1  0  0  0
M  ISO  4   1 100  68 101  80 100  83 101
M  END
> <chiral flag>
0

> <version>
0

> <s_m_source_file>
/data/baiqing/PycharmProjects/Reinvent-master-3.2/result/LINK_invent/BTK/process_docking_weight1_custom_sum_contain_oxygen_bond_distance_aromatic_linkinvent_7_9_3/rearranged_h_0065.sdf

> <i_m_source_file_index>
6

> <r_mmod_Potential_Energy-OPLS-2005>
-65.9230117797852

> <r_mmod_Stretch_Energy-OPLS-2005>
42.8491096496582

> <r_mmod_Bend_Energy-OPLS-2005>
123.865798950195

> <r_mmod_Torsional_Energy-OPLS-2005>
245.960327148438

> <r_mmod_Improper_Torsional_Energy-OPLS-2005>
3.18740749359131

> <r_mmod_Van_der_Waal_Energy-OPLS-2005>
145.597442626953

> <r_mmod_Electrostatic_Energy-OPLS-2005>
-448.475982666016

> <r_mmod_Solvation_Energy-OPLS-2005>
-188.812347412109

> <b_mmod_Minimization_Converged-OPLS-2005>
0

> <r_mmod_RMS_Derivative-OPLS-2005>
1.00409805774689

$$$$
8
                    3D
 Structure written by MMmdl.
188196  0  0  1  0            999 V2000
  -30.7328  -14.6982   20.3334 C   0  0  0  0  0  0
  -30.4078  -12.4108   19.4552 C   0  0  0  0  0  0
  -29.4809  -12.3849   18.2237 C   0  0  0  0  0  0
  -28.0071  -12.2763   18.6525 C   0  0  0  0  0  0
  -27.6229  -13.2185   19.8255 C   0  0  2  0  0  0
  -28.6900  -13.2634   20.9365 C   0  0  0  0  0  0
  -25.2504  -13.8172   20.5788 C   0  0  0  0  0  0
  -24.1783  -13.0437   20.9275 C   0  0  0  0  0  0
  -24.6350  -11.6906   20.8833 C   0  0  0  0  0  0
  -23.9025  -10.4291   21.0455 C   0  0  0  0  0  0
  -24.3593   -9.4200   21.9211 C   0  0  0  0  0  0
  -23.6278   -8.2231   22.0766 C   0  0  0  0  0  0
  -22.4260   -8.0268   21.3553 C   0  0  0  0  0  0
  -21.9899   -9.0241   20.4654 C   0  0  0  0  0  0
  -22.7214  -10.2128   20.3083 C   0  0  0  0  0  0
  -21.6849   -6.0723   22.5277 C   0  0  0  0  0  0
  -21.4003   -6.5635   23.8207 C   0  0  0  0  0  0
  -21.3662   -5.6794   24.9173 C   0  0  0  0  0  0
  -21.6050   -4.3056   24.7231 C   0  0  0  0  0  0
  -21.8822   -3.8144   23.4354 C   0  0  0  0  0  0
  -21.9192   -4.6952   22.3404 C   0  0  0  0  0  0
  -22.7802  -13.5224   21.1899 C   0  0  0  0  0  0
  -22.1664   -4.2133   21.0983 F   0  0  0  0  0  0
  -21.5636   -3.4544   25.7749 F   0  0  0  0  0  0
  -29.9844  -13.5441   20.3042 N   0  0  0  0  0  0
  -26.2889  -12.9339   20.3353 N   0  0  0  0  0  0
  -25.9279  -11.6507   20.5880 N   0  0  0  0  0  0
  -22.0444  -12.8210   22.0440 N   0  0  0  0  0  0
  -25.4238  -15.1897   20.4197 N   0  0  0  0  0  0
  -31.9502  -14.5521   20.4187 O   0  0  0  0  0  0
  -21.6636   -6.8859   21.4237 O   0  0  0  0  0  0
  -22.3508  -14.5531   20.6732 O   0  0  0  0  0  0
  -24.6240  -31.8616   23.2049 C   0  0  0  0  0  0
  -25.9097  -32.4785   23.8373 C   0  0  1  0  0  0
  -27.2155  -27.3347   20.1128 C   0  0  0  0  0  0
  -25.5924  -33.8588   24.2296 N   0  0  0  0  0  0
  -23.4156  -30.4873   21.5476 C   0  0  2  0  0  0
  -24.8591  -28.9481   20.1074 C   0  0  0  0  0  0
  -22.7458  -29.4633   22.4942 C   0  0  0  0  0  0
  -18.0285  -28.1380   22.8493 C   0  0  0  0  0  0
  -24.1485  -36.7297   23.2639 C   0  0  0  0  0  0
  -25.9550  -30.7961   21.3746 C   0  0  0  0  0  0
  -26.0263  -29.4259   20.7158 C   0  0  0  0  0  0
  -27.2059  -28.6284   20.7135 C   0  0  0  0  0  0
  -26.0312  -26.9149   19.4626 C   0  0  0  0  0  0
  -24.8629  -27.6979   19.4720 C   0  0  0  0  0  0
  -23.6270  -29.8259   20.1609 C   0  0  0  0  0  0
  -25.4111  -36.3091   24.0334 C   0  0  1  0  0  0
  -20.5882  -28.3684   23.1289 C   0  0  2  0  0  0
  -20.6775  -26.9407   22.5412 C   0  0  0  0  0  0
  -19.5747  -26.6382   21.5215 C   0  0  0  0  0  0
  -18.1925  -26.7923   22.1626 C   0  0  0  0  0  0
  -19.1538  -28.8849   23.2887 C   0  0  0  0  0  0
  -18.9457  -30.1455   23.8895 C   0  0  0  0  0  0
  -17.6458  -30.6583   24.0568 C   0  0  0  0  0  0
  -25.9050  -34.9458   23.5115 C   0  0  0  0  0  0
  -16.5349  -29.9082   23.6332 C   0  0  0  0  0  0
  -16.7274  -28.6501   23.0349 C   0  0  0  0  0  0
  -26.4489  -31.6587   25.0733 C   0  0  0  0  0  0
  -25.3728  -31.3699   26.1460 C   0  0  0  0  0  0
  -27.0346  -30.3022   24.6171 C   0  0  0  0  0  0
  -27.6042  -32.4322   25.7511 C   0  0  0  0  0  0
  -27.5578  -37.1809   24.8463 C   0  0  0  0  0  0
  -21.4171  -29.3043   22.3682 N   0  0  0  0  0  0
  -26.4290  -37.3786   23.9407 N   0  0  0  0  0  0
  -24.6835  -31.0648   22.0992 N   0  0  0  0  0  0
  -23.4192  -28.8168   23.3010 O   0  0  0  0  0  0
  -28.3367  -26.4994   20.1880 O   0  0  0  0  0  0
  -26.5612  -34.8921   22.4675 O   0  0  0  0  0  0
  -23.5410  -32.1409   23.7395 O   0  0  0  0  0  0
  -29.1435  -18.5059   20.2240 C   0  0  0  0  0  0
  -29.5547  -17.2335   20.6004 C   0  0  0  0  0  0
  -28.5407  -18.2784   22.3340 C   0  0  0  0  0  0
  -25.2499  -21.1957   20.8694 C   0  0  0  0  0  0
  -31.6070  -16.9087   19.3674 C   0  0  0  0  0  0
  -29.5483  -16.0340   18.4124 C   0  0  0  0  0  0
  -26.4025  -18.4105   23.7601 C   0  0  0  0  0  0
  -28.6525  -19.1920   24.7388 C   0  0  0  0  0  0
  -28.1467  -16.8293   24.3842 C   0  0  0  0  0  0
  -30.7083  -22.0329   20.8548 C   0  0  0  0  0  0
  -30.0236  -22.8110   18.6290 C   0  0  0  0  0  0
  -27.7760  -21.4060   22.4119 C   0  0  0  0  0  0
  -26.3673  -20.1457   20.6946 C   0  0  0  0  0  0
  -29.1825  -24.0795   20.6411 C   0  0  0  0  0  0
  -28.3351  -21.5346   19.9779 C   0  0  0  0  0  0
  -28.1848  -25.0592   19.9041 C   0  0  0  0  0  0
  -30.2937  -16.1597   19.7584 C   0  0  0  0  0  0
  -27.9390  -18.2378   23.7540 C   0  0  0  0  0  0
  -29.5077  -22.6136   20.0740 C   0  0  0  0  0  0
  -27.8165  -20.5413   21.1347 C   0  0  1  0  0  0
  -28.5495  -19.1770   21.2863 N   0  0  0  0  0  0
  -29.2134  -17.1827   21.9172 N   0  3  0  0  0  0
  -31.4472  -12.4907   19.1309 H   0  0  0  0  0  0
  -30.3382  -11.4754   20.0127 H   0  0  0  0  0  0
  -29.7372  -11.5342   17.5904 H   0  0  0  0  0  0
  -29.6264  -13.2593   17.5987 H   0  0  0  0  0  0
  -27.8433  -11.2394   18.9478 H   0  0  0  0  0  0
  -27.3506  -12.4513   17.7992 H   0  0  0  0  0  0
  -27.5629  -14.2079   19.3966 H   0  0  0  0  0  0
  -28.7292  -12.3180   21.4804 H   0  0  0  0  0  0
  -28.4472  -14.0370   21.6665 H   0  0  0  0  0  0
  -25.2737   -9.5676   22.4785 H   0  0  0  0  0  0
  -23.9994   -7.4622   22.7479 H   0  0  0  0  0  0
  -21.0842   -8.8751   19.8947 H   0  0  0  0  0  0
  -22.3673  -10.9673   19.6200 H   0  0  0  0  0  0
  -21.1981   -7.6143   23.9694 H   0  0  0  0  0  0
  -21.1487   -6.0534   25.9072 H   0  0  0  0  0  0
  -22.0596   -2.7605   23.2863 H   0  0  0  0  0  0
  -22.4060  -11.9858   22.4802 H   0  0  0  0  0  0
  -21.1056  -13.1222   22.2637 H   0  0  0  0  0  0
  -24.6540  -15.8415   20.5217 H   0  0  0  0  0  0
  -26.2711  -15.6272   20.0848 H   0  0  0  0  0  0
  -26.7161  -32.5460   23.1123 H   0  0  0  0  0  0
  -25.0085  -33.9740   25.0451 H   0  0  0  0  0  0
  -22.7092  -31.3086   21.4090 H   0  0  0  0  0  0
  -23.3753  -35.9623   23.3295 H   0  0  0  0  0  0
  -24.3572  -36.8927   22.2054 H   0  0  0  0  0  0
  -23.7232  -37.6496   23.6665 H   0  0  0  0  0  0
  -26.0855  -31.5598   20.6072 H   0  0  0  0  0  0
  -26.8366  -30.8430   22.0025 H   0  0  0  0  0  0
  -28.0993  -28.9858   21.2062 H   0  0  0  0  0  0
  -25.9771  -25.9698   18.9434 H   0  0  0  0  0  0
  -23.9708  -27.3320   18.9823 H   0  0  0  0  0  0
  -23.7417  -30.6041   19.4054 H   0  0  0  0  0  0
  -22.7468  -29.2547   19.8608 H   0  0  0  0  0  0
  -25.1288  -36.1955   25.0828 H   0  0  0  0  0  0
  -20.9982  -28.3259   24.1409 H   0  0  0  0  0  0
  -20.5683  -26.2287   23.3609 H   0  0  0  0  0  0
  -21.6643  -26.7438   22.1204 H   0  0  0  0  0  0
  -19.6904  -25.6296   21.1237 H   0  0  0  0  0  0
  -19.6681  -27.3199   20.6750 H   0  0  0  0  0  0
  -17.4198  -26.6688   21.4022 H   0  0  0  0  0  0
  -18.0310  -26.0063   22.9016 H   0  0  0  0  0  0
  -19.7933  -30.7276   24.2254 H   0  0  0  0  0  0
  -17.5011  -31.6262   24.5173 H   0  0  0  0  0  0
  -15.5348  -30.2983   23.7654 H   0  0  0  0  0  0
  -15.8674  -28.0825   22.7052 H   0  0  0  0  0  0
  -24.5918  -30.7030   25.7786 H   0  0  0  0  0  0
  -24.8897  -32.2852   26.4888 H   0  0  0  0  0  0
  -25.8067  -30.8882   27.0232 H   0  0  0  0  0  0
  -26.2928  -29.6764   24.1194 H   0  0  0  0  0  0
  -27.4060  -29.7278   25.4669 H   0  0  0  0  0  0
  -27.8782  -30.4324   23.9390 H   0  0  0  0  0  0
  -27.2648  -33.3623   26.2082 H   0  0  0  0  0  0
  -28.3859  -32.6878   25.0344 H   0  0  0  0  0  0
  -28.0700  -31.8448   26.5437 H   0  0  0  0  0  0
  -28.2590  -38.0112   24.7527 H   0  0  0  0  0  0
  -28.1085  -36.2646   24.6279 H   0  0  0  0  0  0
  -27.2293  -37.1443   25.8865 H   0  0  0  0  0  0
  -20.9333  -29.8781   21.6915 H   0  0  0  0  0  0
  -26.0175  -38.2862   24.1412 H   0  0  0  0  0  0
  -29.2271  -18.9568   19.2476 H   0  0  0  0  0  0
  -24.3099  -20.8137   20.4728 H   0  0  0  0  0  0
  -25.4534  -22.1305   20.3480 H   0  0  0  0  0  0
  -25.0771  -21.4306   21.9192 H   0  0  0  0  0  0
  -31.4204  -17.8545   18.8581 H   0  0  0  0  0  0
  -32.2285  -16.3250   18.6858 H   0  0  0  0  0  0
  -32.2084  -17.1461   20.2465 H   0  0  0  0  0  0
  -29.5618  -16.9691   17.8521 H   0  0  0  0  0  0
  -28.4994  -15.7927   18.5287 H   0  0  0  0  0  0
  -30.0194  -15.3037   17.7608 H   0  0  0  0  0  0
  -26.0383  -19.3597   23.3927 H   0  0  0  0  0  0
  -26.0014  -18.3138   24.7700 H   0  0  0  0  0  0
  -25.9216  -17.6417   23.1535 H   0  0  0  0  0  0
  -28.5026  -20.2458   24.5562 H   0  0  0  0  0  0
  -29.7292  -19.0198   24.7409 H   0  0  0  0  0  0
  -28.3019  -19.0279   25.7581 H   0  0  0  0  0  0
  -27.6733  -16.0390   23.7978 H   0  0  0  0  0  0
  -27.7077  -16.7708   25.3813 H   0  0  0  0  0  0
  -29.2024  -16.5797   24.5037 H   0  0  0  0  0  0
  -31.6122  -22.6198   20.6819 H   0  0  0  0  0  0
  -30.9309  -21.0094   20.5524 H   0  0  0  0  0  0
  -30.5603  -22.0356   21.9307 H   0  0  0  0  0  0
  -30.8018  -23.5744   18.5766 H   0  0  0  0  0  0
  -29.2266  -23.1097   17.9478 H   0  0  0  0  0  0
  -30.4531  -21.8929   18.2255 H   0  0  0  0  0  0
  -27.4073  -22.4052   22.1861 H   0  0  0  0  0  0
  -28.7561  -21.5288   22.8609 H   0  0  0  0  0  0
  -27.0995  -21.0539   23.1762 H   0  0  0  0  0  0
  -26.3910  -19.8454   19.6456 H   0  0  0  0  0  0
  -26.0434  -19.2435   21.2078 H   0  0  0  0  0  0
  -28.8809  -24.0120   21.6855 H   0  0  0  0  0  0
  -30.1333  -24.6135   20.6795 H   0  0  0  0  0  0
  -28.5123  -20.9248   19.0947 H   0  0  0  0  0  0
  -27.4889  -22.1353   19.6527 H   0  0  0  0  0  0
  -27.1897  -24.7090   20.1771 H   0  0  0  0  0  0
  -28.2695  -24.9441   18.8248 H   0  0  0  0  0  0
  -29.3914  -16.3997   22.5338 H   0  0  0  0  0  0
  1 25  1  0  0  0
  1 30  2  0  0  0
  1 87  1  0  0  0
  2  3  1  0  0  0
  2 25  1  0  0  0
  2 93  1  0  0  0
  2 94  1  0  0  0
  3  4  1  0  0  0
  3 95  1  0  0  0
  3 96  1  0  0  0
  4  5  1  0  0  0
  4 97  1  0  0  0
  4 98  1  0  0  0
  5  6  1  0  0  0
  5 26  1  0  0  0
  5 99  1  0  0  0
  6 25  1  0  0  0
  6100  1  0  0  0
  6101  1  0  0  0
  7  8  2  0  0  0
  7 26  1  0  0  0
  7 29  1  0  0  0
  8  9  1  0  0  0
  8 22  1  0  0  0
  9 10  1  0  0  0
  9 27  2  0  0  0
 10 11  2  0  0  0
 10 15  1  0  0  0
 11 12  1  0  0  0
 11102  1  0  0  0
 12 13  2  0  0  0
 12103  1  0  0  0
 13 14  1  0  0  0
 13 31  1  0  0  0
 14 15  2  0  0  0
 14104  1  0  0  0
 15105  1  0  0  0
 16 17  2  0  0  0
 16 21  1  0  0  0
 16 31  1  0  0  0
 17 18  1  0  0  0
 17106  1  0  0  0
 18 19  2  0  0  0
 18107  1  0  0  0
 19 20  1  0  0  0
 19 24  1  0  0  0
 20 21  2  0  0  0
 20108  1  0  0  0
 21 23  1  0  0  0
 22 28  1  0  0  0
 22 32  2  0  0  0
 26 27  1  0  0  0
 28109  1  0  0  0
 28110  1  0  0  0
 29111  1  0  0  0
 29112  1  0  0  0
 33 34  1  0  0  0
 33 66  1  0  0  0
 33 70  2  0  0  0
 34 36  1  0  0  0
 34 59  1  0  0  0
 34113  1  0  0  0
 35 44  2  0  0  0
 35 45  1  0  0  0
 35 68  1  0  0  0
 36 56  1  0  0  0
 36114  1  0  0  0
 37 39  1  0  0  0
 37 47  1  0  0  0
 37 66  1  0  0  0
 37115  1  0  0  0
 38 43  2  0  0  0
 38 46  1  0  0  0
 38 47  1  0  0  0
 39 64  1  0  0  0
 39 67  2  0  0  0
 40 52  1  0  0  0
 40 53  2  0  0  0
 40 58  1  0  0  0
 41116  1  0  0  0
 41117  1  0  0  0
 41118  1  0  0  0
 41 48  1  0  0  0
 42 43  1  0  0  0
 42 66  1  0  0  0
 42119  1  0  0  0
 42120  1  0  0  0
 43 44  1  0  0  0
 44121  1  0  0  0
 45 46  2  0  0  0
 45122  1  0  0  0
 46123  1  0  0  0
 47124  1  0  0  0
 47125  1  0  0  0
 48 56  1  0  0  0
 48 65  1  0  0  0
 48126  1  0  0  0
 49 50  1  0  0  0
 49 53  1  0  0  0
 49 64  1  0  0  0
 49127  1  0  0  0
 50 51  1  0  0  0
 50128  1  0  0  0
 50129  1  0  0  0
 51 52  1  0  0  0
 51130  1  0  0  0
 51131  1  0  0  0
 52132  1  0  0  0
 52133  1  0  0  0
 53 54  1  0  0  0
 54 55  2  0  0  0
 54134  1  0  0  0
 55 57  1  0  0  0
 55135  1  0  0  0
 56 69  2  0  0  0
 57 58  2  0  0  0
 57136  1  0  0  0
 58137  1  0  0  0
 59 60  1  0  0  0
 59 61  1  0  0  0
 59 62  1  0  0  0
 60138  1  0  0  0
 60139  1  0  0  0
 60140  1  0  0  0
 61141  1  0  0  0
 61142  1  0  0  0
 61143  1  0  0  0
 62144  1  0  0  0
 62145  1  0  0  0
 62146  1  0  0  0
 63 65  1  0  0  0
 63147  1  0  0  0
 63148  1  0  0  0
 63149  1  0  0  0
 64150  1  0  0  0
 65151  1  0  0  0
 68 86  1  0  0  0
 71 72  2  0  0  0
 71 91  1  0  0  0
 71152  1  0  0  0
 72 87  1  0  0  0
 72 92  1  0  0  0
 73 88  1  0  0  0
 73 91  1  0  0  0
 73 92  2  0  0  0
 74 83  1  0  0  0
 74153  1  0  0  0
 74154  1  0  0  0
 74155  1  0  0  0
 75156  1  0  0  0
 75157  1  0  0  0
 75158  1  0  0  0
 75 87  1  0  0  0
 76 87  1  0  0  0
 76159  1  0  0  0
 76160  1  0  0  0
 76161  1  0  0  0
 77162  1  0  0  0
 77163  1  0  0  0
 77164  1  0  0  0
 77 88  1  0  0  0
 78 88  1  0  0  0
 78165  1  0  0  0
 78166  1  0  0  0
 78167  1  0  0  0
 79 88  1  0  0  0
 79168  1  0  0  0
 79169  1  0  0  0
 79170  1  0  0  0
 80171  1  0  0  0
 80172  1  0  0  0
 80173  1  0  0  0
 80 89  1  0  0  0
 81 89  1  0  0  0
 81174  1  0  0  0
 81175  1  0  0  0
 81176  1  0  0  0
 82177  1  0  0  0
 82178  1  0  0  0
 82179  1  0  0  0
 82 90  1  0  0  0
 83 90  1  0  0  0
 83180  1  0  0  0
 83181  1  0  0  0
 84 86  1  0  0  0
 84 89  1  0  0  0
 84182  1  0  0  0
 84183  1  0  0  0
 85 89  1  0  0  0
 85 90  1  0  0  0
 85184  1  0  0  0
 85185  1  0  0  0
 86186  1  0  0  0
 86187  1  0  0  0
 90 91  1  0  0  0
 92188  1  0  0  0
M  CHG  1  92   1
M  ISO  4   1 100  68 101  86 101  87 100
M  END
> <chiral flag>
0

> <version>
0

> <s_m_source_file>
/data/baiqing/PycharmProjects/Reinvent-master-3.2/result/LINK_invent/BTK/process_docking_weight1_custom_sum_contain_oxygen_bond_distance_aromatic_linkinvent_7_9_3/rearranged_h_0065.sdf

> <i_m_source_file_index>
7

> <r_mmod_Potential_Energy-OPLS-2005>
489.427703857422

> <r_mmod_Stretch_Energy-OPLS-2005>
112.973266601562

> <r_mmod_Bend_Energy-OPLS-2005>
271.430633544922

> <r_mmod_Torsional_Energy-OPLS-2005>
328.987976074219

> <r_mmod_Improper_Torsional_Energy-OPLS-2005>
16.6647891998291

> <r_mmod_Van_der_Waal_Energy-OPLS-2005>
156.286010742188

> <r_mmod_Electrostatic_Energy-OPLS-2005>
-124.207977294922

> <r_mmod_Solvation_Energy-OPLS-2005>
-367.561828613281

> <b_mmod_Minimization_Converged-OPLS-2005>
0

> <r_mmod_RMS_Derivative-OPLS-2005>
1.34180819988251

$$$$
9
                    3D
 Structure written by MMmdl.
182191  0  0  1  0            999 V2000
  -30.6790  -14.5290   20.5047 C   0  0  0  0  0  0
  -30.4335  -12.3338   19.4212 C   0  0  0  0  0  0
  -29.4973  -12.5035   18.2062 C   0  0  0  0  0  0
  -28.0217  -12.3505   18.6234 C   0  0  0  0  0  0
  -27.6634  -13.1915   19.8792 C   0  0  2  0  0  0
  -28.7155  -13.0203   20.9998 C   0  0  0  0  0  0
  -25.2689  -13.7967   20.5648 C   0  0  0  0  0  0
  -24.1877  -13.0336   20.9163 C   0  0  0  0  0  0
  -24.6427  -11.6804   20.8728 C   0  0  0  0  0  0
  -23.9067  -10.4241   21.0409 C   0  0  0  0  0  0
  -24.3613   -9.4156   21.9204 C   0  0  0  0  0  0
  -23.6277   -8.2199   22.0763 C   0  0  0  0  0  0
  -22.4259   -8.0256   21.3545 C   0  0  0  0  0  0
  -21.9901   -9.0233   20.4657 C   0  0  0  0  0  0
  -22.7243  -10.2101   20.3066 C   0  0  0  0  0  0
  -21.6838   -6.0739   22.5280 C   0  0  0  0  0  0
  -21.4022   -6.5638   23.8221 C   0  0  0  0  0  0
  -21.3657   -5.6787   24.9173 C   0  0  0  0  0  0
  -21.6041   -4.3053   24.7239 C   0  0  0  0  0  0
  -21.8807   -3.8156   23.4350 C   0  0  0  0  0  0
  -21.9197   -4.6970   22.3405 C   0  0  0  0  0  0
  -22.7922  -13.5229   21.1816 C   0  0  0  0  0  0
  -22.1658   -4.2156   21.0980 F   0  0  0  0  0  0
  -21.5617   -3.4528   25.7752 F   0  0  0  0  0  0
  -30.0332  -13.3321   20.4242 N   0  0  0  0  0  0
  -26.3106  -12.9114   20.3438 N   0  0  0  0  0  0
  -25.9374  -11.6328   20.5839 N   0  0  0  0  0  0
  -22.0538  -12.8255   22.0347 N   0  0  0  0  0  0
  -25.4537  -15.1584   20.3990 N   0  0  0  0  0  0
  -31.8355  -14.6696   20.1035 O   0  0  0  0  0  0
  -21.6617   -6.8853   21.4231 O   0  0  0  0  0  0
  -22.3642  -14.5571   20.6687 O   0  0  0  0  0  0
  -24.6090  -31.8694   23.2124 C   0  0  0  0  0  0
  -25.9010  -32.4835   23.8395 C   0  0  1  0  0  0
  -27.2330  -27.4673   20.1011 C   0  0  0  0  0  0
  -25.5876  -33.8630   24.2325 N   0  0  0  0  0  0
  -23.3944  -30.4929   21.5501 C   0  0  2  0  0  0
  -24.8431  -28.9640   20.1089 C   0  0  0  0  0  0
  -22.7372  -29.4648   22.4984 C   0  0  0  0  0  0
  -18.0269  -28.1386   22.8496 C   0  0  0  0  0  0
  -24.1479  -36.7315   23.2632 C   0  0  0  0  0  0
  -25.9154  -30.8486   21.3566 C   0  0  0  0  0  0
  -25.9975  -29.4853   20.7067 C   0  0  0  0  0  0
  -27.1964  -28.7440   20.7046 C   0  0  0  0  0  0
  -26.0744  -26.9621   19.4813 C   0  0  0  0  0  0
  -24.8745  -27.7001   19.4913 C   0  0  0  0  0  0
  -23.6008  -29.8240   20.1641 C   0  0  0  0  0  0
  -25.4104  -36.3121   24.0333 C   0  0  1  0  0  0
  -20.5848  -28.3651   23.1322 C   0  0  2  0  0  0
  -20.6753  -26.9384   22.5425 C   0  0  0  0  0  0
  -19.5734  -26.6380   21.5221 C   0  0  0  0  0  0
  -18.1914  -26.7942   22.1613 C   0  0  0  0  0  0
  -19.1517  -28.8838   23.2912 C   0  0  0  0  0  0
  -18.9444  -30.1445   23.8922 C   0  0  0  0  0  0
  -17.6450  -30.6591   24.0577 C   0  0  0  0  0  0
  -25.9019  -34.9489   23.5126 C   0  0  0  0  0  0
  -16.5338  -29.9095   23.6334 C   0  0  0  0  0  0
  -16.7255  -28.6517   23.0340 C   0  0  0  0  0  0
  -26.4465  -31.6603   25.0711 C   0  0  0  0  0  0
  -25.3774  -31.3702   26.1491 C   0  0  0  0  0  0
  -27.0275  -30.3046   24.6048 C   0  0  0  0  0  0
  -27.6050  -32.4312   25.7472 C   0  0  0  0  0  0
  -27.5576  -37.1815   24.8461 C   0  0  0  0  0  0
  -21.4105  -29.3034   22.3743 N   0  0  0  0  0  0
  -26.4288  -37.3813   23.9410 N   0  0  0  0  0  0
  -24.6582  -31.0821   22.1006 N   0  0  0  0  0  0
  -23.4177  -28.8186   23.2992 O   0  0  0  0  0  0
  -28.3591  -26.6844   20.1311 O   0  0  0  0  0  0
  -26.5584  -34.8925   22.4685 O   0  0  0  0  0  0
  -23.5307  -32.1425   23.7559 O   0  0  0  0  0  0
  -29.4670  -22.1988   19.7827 C   0  0  0  0  0  0
  -26.8111  -18.2132   19.7222 C   0  0  0  0  0  0
  -29.7253  -23.5415   19.7768 C   0  0  0  0  0  0
  -29.2303  -22.9398   21.8757 C   0  0  0  0  0  0
  -29.2103  -21.7883   21.1272 C   0  0  0  0  0  0
  -25.9852  -19.0444   20.5317 C   0  0  0  0  0  0
  -28.1077  -18.5066   20.0681 C   0  0  0  0  0  0
  -31.6232  -17.4426   20.9962 C   0  0  0  0  0  0
  -23.7730  -18.5404   19.4240 C   0  0  0  0  0  0
  -23.9095  -20.3842   21.0920 C   0  0  0  0  0  0
  -24.1268  -18.0320   21.8657 C   0  0  0  0  0  0
  -30.2993  -18.8687   18.9093 C   0  0  0  0  0  0
  -29.0693  -16.8218   18.4546 C   0  0  0  0  0  0
  -29.0243  -20.3709   21.6636 C   0  0  0  0  0  0
  -29.9136  -25.3581   21.5204 C   0  0  0  0  0  0
  -28.7411  -26.3470   21.4679 C   0  0  0  0  0  0
  -30.1349  -17.0549   20.7948 C   0  0  1  0  0  0
  -24.4719  -18.9994   20.7212 C   0  0  0  0  0  0
  -29.3972  -17.8167   19.5982 C   0  0  0  0  0  0
  -26.7243  -19.8472   21.2770 N   0  0  0  0  0  0
  -29.6043  -24.0038   21.0709 N   0  0  0  0  0  0
  -28.0129  -19.5792   20.9655 N   0  0  0  0  0  0
  -29.9001  -15.5795   20.8585 N   0  0  0  0  0  0
  -31.4732  -12.4464   19.1096 H   0  0  0  0  0  0
  -30.3559  -11.3287   19.8385 H   0  0  0  0  0  0
  -29.7432  -11.7754   17.4313 H   0  0  0  0  0  0
  -29.6498  -13.4860   17.7587 H   0  0  0  0  0  0
  -27.8394  -11.2932   18.8198 H   0  0  0  0  0  0
  -27.3684  -12.6231   17.7924 H   0  0  0  0  0  0
  -27.6864  -14.2289   19.5680 H   0  0  0  0  0  0
  -28.7196  -11.9956   21.3734 H   0  0  0  0  0  0
  -28.4838  -13.6509   21.8589 H   0  0  0  0  0  0
  -25.2764   -9.5624   22.4794 H   0  0  0  0  0  0
  -23.9968   -7.4608   22.7490 H   0  0  0  0  0  0
  -21.0834   -8.8769   19.8994 H   0  0  0  0  0  0
  -22.3709  -10.9654   19.6181 H   0  0  0  0  0  0
  -21.2007   -7.6154   23.9719 H   0  0  0  0  0  0
  -21.1484   -6.0526   25.9070 H   0  0  0  0  0  0
  -22.0603   -2.7634   23.2843 H   0  0  0  0  0  0
  -22.4100  -11.9825   22.4632 H   0  0  0  0  0  0
  -21.1191  -13.1327   22.2614 H   0  0  0  0  0  0
  -24.6982  -15.8063   20.5818 H   0  0  0  0  0  0
  -26.3384  -15.6179   20.2328 H   0  0  0  0  0  0
  -26.7072  -32.5556   23.1154 H   0  0  0  0  0  0
  -25.0102  -33.9832   25.0523 H   0  0  0  0  0  0
  -22.6809  -31.3084   21.4124 H   0  0  0  0  0  0
  -23.3767  -35.9617   23.3279 H   0  0  0  0  0  0
  -24.3585  -36.8956   22.2048 H   0  0  0  0  0  0
  -23.7187  -37.6487   23.6673 H   0  0  0  0  0  0
  -26.0153  -31.6150   20.5878 H   0  0  0  0  0  0
  -26.8049  -30.9082   21.9714 H   0  0  0  0  0  0
  -28.0827  -29.1507   21.1708 H   0  0  0  0  0  0
  -26.0954  -25.9874   19.0150 H   0  0  0  0  0  0
  -23.9868  -27.2932   19.0247 H   0  0  0  0  0  0
  -23.7013  -30.5988   19.4032 H   0  0  0  0  0  0
  -22.7275  -29.2390   19.8712 H   0  0  0  0  0  0
  -25.1289  -36.1980   25.0833 H   0  0  0  0  0  0
  -20.9947  -28.3203   24.1432 H   0  0  0  0  0  0
  -20.5621  -26.2262   23.3615 H   0  0  0  0  0  0
  -21.6616  -26.7418   22.1205 H   0  0  0  0  0  0
  -19.6878  -25.6294   21.1244 H   0  0  0  0  0  0
  -19.6695  -27.3191   20.6759 H   0  0  0  0  0  0
  -17.4188  -26.6715   21.4004 H   0  0  0  0  0  0
  -18.0278  -26.0066   22.8979 H   0  0  0  0  0  0
  -19.7933  -30.7263   24.2264 H   0  0  0  0  0  0
  -17.5015  -31.6284   24.5161 H   0  0  0  0  0  0
  -15.5337  -30.3003   23.7665 H   0  0  0  0  0  0
  -15.8651  -28.0858   22.7015 H   0  0  0  0  0  0
  -24.5890  -30.7121   25.7811 H   0  0  0  0  0  0
  -24.9071  -32.2882   26.5025 H   0  0  0  0  0  0
  -25.8156  -30.8776   27.0185 H   0  0  0  0  0  0
  -26.2795  -29.6793   24.1159 H   0  0  0  0  0  0
  -27.4101  -29.7278   25.4471 H   0  0  0  0  0  0
  -27.8603  -30.4334   23.9139 H   0  0  0  0  0  0
  -27.2686  -33.3634   26.2015 H   0  0  0  0  0  0
  -28.3904  -32.6815   25.0335 H   0  0  0  0  0  0
  -28.0658  -31.8448   26.5430 H   0  0  0  0  0  0
  -28.2582  -38.0123   24.7530 H   0  0  0  0  0  0
  -28.1089  -36.2658   24.6271 H   0  0  0  0  0  0
  -27.2322  -37.1440   25.8873 H   0  0  0  0  0  0
  -20.9229  -29.8807   21.7040 H   0  0  0  0  0  0
  -26.0174  -38.2879   24.1452 H   0  0  0  0  0  0
  -29.5121  -21.5693   18.9072 H   0  0  0  0  0  0
  -26.4785  -17.4570   19.0280 H   0  0  0  0  0  0
  -30.0147  -24.2092   18.9739 H   0  0  0  0  0  0
  -29.0759  -23.0832   22.9382 H   0  0  0  0  0  0
  -31.7515  -18.5052   21.1916 H   0  0  0  0  0  0
  -32.2253  -17.2030   20.1190 H   0  0  0  0  0  0
  -32.0624  -16.9267   21.8473 H   0  0  0  0  0  0
  -23.9432  -19.2502   18.6121 H   0  0  0  0  0  0
  -22.6939  -18.4594   19.5629 H   0  0  0  0  0  0
  -24.1249  -17.5643   19.0874 H   0  0  0  0  0  0
  -24.1293  -21.1266   20.3258 H   0  0  0  0  0  0
  -24.3328  -20.7396   22.0324 H   0  0  0  0  0  0
  -22.8279  -20.3414   21.2262 H   0  0  0  0  0  0
  -24.4413  -17.0202   21.6506 H   0  0  0  0  0  0
  -23.0547  -17.9930   22.0474 H   0  0  0  0  0  0
  -24.6192  -18.3173   22.7944 H   0  0  0  0  0  0
  -29.7463  -19.4106   18.1400 H   0  0  0  0  0  0
  -31.1495  -18.4045   18.4133 H   0  0  0  0  0  0
  -30.6954  -19.6195   19.5855 H   0  0  0  0  0  0
  -28.6737  -17.3312   17.5744 H   0  0  0  0  0  0
  -28.3173  -16.0956   18.7468 H   0  0  0  0  0  0
  -29.9541  -16.2710   18.1352 H   0  0  0  0  0  0
  -28.7352  -20.4349   22.7141 H   0  0  0  0  0  0
  -29.9775  -19.8520   21.6577 H   0  0  0  0  0  0
  -30.2755  -25.2948   22.5491 H   0  0  0  0  0  0
  -30.7456  -25.7422   20.9299 H   0  0  0  0  0  0
  -29.0441  -27.2465   22.0052 H   0  0  0  0  0  0
  -27.8887  -25.9347   22.0115 H   0  0  0  0  0  0
  -29.6608  -17.4126   21.7110 H   0  0  0  0  0  0
  -28.9675  -15.3161   21.1375 H   0  0  0  0  0  0
  1 25  1  0  0  0
  1 30  2  0  0  0
  1 93  1  0  0  0
  2  3  1  0  0  0
  2 25  1  0  0  0
  2 94  1  0  0  0
  2 95  1  0  0  0
  3  4  1  0  0  0
  3 96  1  0  0  0
  3 97  1  0  0  0
  4  5  1  0  0  0
  4 98  1  0  0  0
  4 99  1  0  0  0
  5  6  1  0  0  0
  5 26  1  0  0  0
  5100  1  0  0  0
  6 25  1  0  0  0
  6101  1  0  0  0
  6102  1  0  0  0
  7  8  2  0  0  0
  7 26  1  0  0  0
  7 29  1  0  0  0
  8  9  1  0  0  0
  8 22  1  0  0  0
  9 10  1  0  0  0
  9 27  2  0  0  0
 10 11  2  0  0  0
 10 15  1  0  0  0
 11 12  1  0  0  0
 11103  1  0  0  0
 12 13  2  0  0  0
 12104  1  0  0  0
 13 14  1  0  0  0
 13 31  1  0  0  0
 14 15  2  0  0  0
 14105  1  0  0  0
 15106  1  0  0  0
 16 17  2  0  0  0
 16 21  1  0  0  0
 16 31  1  0  0  0
 17 18  1  0  0  0
 17107  1  0  0  0
 18 19  2  0  0  0
 18108  1  0  0  0
 19 20  1  0  0  0
 19 24  1  0  0  0
 20 21  2  0  0  0
 20109  1  0  0  0
 21 23  1  0  0  0
 22 28  1  0  0  0
 22 32  2  0  0  0
 26 27  1  0  0  0
 28110  1  0  0  0
 28111  1  0  0  0
 29112  1  0  0  0
 29113  1  0  0  0
 33 34  1  0  0  0
 33 66  1  0  0  0
 33 70  2  0  0  0
 34 36  1  0  0  0
 34 59  1  0  0  0
 34114  1  0  0  0
 35 44  2  0  0  0
 35 45  1  0  0  0
 35 68  1  0  0  0
 36 56  1  0  0  0
 36115  1  0  0  0
 37 39  1  0  0  0
 37 47  1  0  0  0
 37 66  1  0  0  0
 37116  1  0  0  0
 38 43  2  0  0  0
 38 46  1  0  0  0
 38 47  1  0  0  0
 39 64  1  0  0  0
 39 67  2  0  0  0
 40 52  1  0  0  0
 40 53  2  0  0  0
 40 58  1  0  0  0
 41117  1  0  0  0
 41118  1  0  0  0
 41119  1  0  0  0
 41 48  1  0  0  0
 42 43  1  0  0  0
 42 66  1  0  0  0
 42120  1  0  0  0
 42121  1  0  0  0
 43 44  1  0  0  0
 44122  1  0  0  0
 45 46  2  0  0  0
 45123  1  0  0  0
 46124  1  0  0  0
 47125  1  0  0  0
 47126  1  0  0  0
 48 56  1  0  0  0
 48 65  1  0  0  0
 48127  1  0  0  0
 49 50  1  0  0  0
 49 53  1  0  0  0
 49 64  1  0  0  0
 49128  1  0  0  0
 50 51  1  0  0  0
 50129  1  0  0  0
 50130  1  0  0  0
 51 52  1  0  0  0
 51131  1  0  0  0
 51132  1  0  0  0
 52133  1  0  0  0
 52134  1  0  0  0
 53 54  1  0  0  0
 54 55  2  0  0  0
 54135  1  0  0  0
 55 57  1  0  0  0
 55136  1  0  0  0
 56 69  2  0  0  0
 57 58  2  0  0  0
 57137  1  0  0  0
 58138  1  0  0  0
 59 60  1  0  0  0
 59 61  1  0  0  0
 59 62  1  0  0  0
 60139  1  0  0  0
 60140  1  0  0  0
 60141  1  0  0  0
 61142  1  0  0  0
 61143  1  0  0  0
 61144  1  0  0  0
 62145  1  0  0  0
 62146  1  0  0  0
 62147  1  0  0  0
 63 65  1  0  0  0
 63148  1  0  0  0
 63149  1  0  0  0
 63150  1  0  0  0
 64151  1  0  0  0
 65152  1  0  0  0
 68 86  1  0  0  0
 71 73  2  0  0  0
 71 75  1  0  0  0
 71153  1  0  0  0
 72 76  1  0  0  0
 72 77  2  0  0  0
 72154  1  0  0  0
 73 91  1  0  0  0
 73155  1  0  0  0
 74 75  2  0  0  0
 74 91  1  0  0  0
 74156  1  0  0  0
 75 84  1  0  0  0
 76 88  1  0  0  0
 76 90  2  0  0  0
 77 89  1  0  0  0
 77 92  1  0  0  0
 78157  1  0  0  0
 78158  1  0  0  0
 78159  1  0  0  0
 78 87  1  0  0  0
 79160  1  0  0  0
 79161  1  0  0  0
 79162  1  0  0  0
 79 88  1  0  0  0
 80 88  1  0  0  0
 80163  1  0  0  0
 80164  1  0  0  0
 80165  1  0  0  0
 81 88  1  0  0  0
 81166  1  0  0  0
 81167  1  0  0  0
 81168  1  0  0  0
 82169  1  0  0  0
 82170  1  0  0  0
 82171  1  0  0  0
 82 89  1  0  0  0
 83 89  1  0  0  0
 83172  1  0  0  0
 83173  1  0  0  0
 83174  1  0  0  0
 84 92  1  0  0  0
 84175  1  0  0  0
 84176  1  0  0  0
 85 86  1  0  0  0
 85 91  1  0  0  0
 85177  1  0  0  0
 85178  1  0  0  0
 86179  1  0  0  0
 86180  1  0  0  0
 87 89  1  0  0  0
 87 93  1  0  0  0
 87181  1  0  0  0
 90 92  1  0  0  0
 93182  1  0  0  0
M  ISO  4   1 100  68 101  86 101  93 100
M  END
> <chiral flag>
0

> <version>
0

> <s_m_source_file>
/data/baiqing/PycharmProjects/Reinvent-master-3.2/result/LINK_invent/BTK/process_docking_weight1_custom_sum_contain_oxygen_bond_distance_aromatic_linkinvent_7_9_3/rearranged_h_0065.sdf

> <i_m_source_file_index>
8

> <r_mmod_Potential_Energy-OPLS-2005>
-37.2413139343262

> <r_mmod_Stretch_Energy-OPLS-2005>
46.8490982055664

> <r_mmod_Bend_Energy-OPLS-2005>
127.763854980469

> <r_mmod_Torsional_Energy-OPLS-2005>
269.820465087891

> <r_mmod_Improper_Torsional_Energy-OPLS-2005>
5.79403924942017

> <r_mmod_Van_der_Waal_Energy-OPLS-2005>
126.316383361816

> <r_mmod_Electrostatic_Energy-OPLS-2005>
-422.943511962891

> <r_mmod_Solvation_Energy-OPLS-2005>
-208.886901855469

> <b_mmod_Minimization_Converged-OPLS-2005>
0

> <r_mmod_RMS_Derivative-OPLS-2005>
4.74668025970459

$$$$
10
                    3D
 Structure written by MMmdl.
184192  0  0  1  0            999 V2000
  -30.8393  -14.3246   20.6722 C   0  0  0  0  0  0
  -30.4011  -12.2665   19.3988 C   0  0  0  0  0  0
  -29.4822  -12.5148   18.1892 C   0  0  0  0  0  0
  -28.0074  -12.3787   18.6007 C   0  0  0  0  0  0
  -27.6669  -13.2088   19.8661 C   0  0  2  0  0  0
  -28.7047  -12.9836   20.9894 C   0  0  0  0  0  0
  -25.2617  -13.8172   20.5614 C   0  0  0  0  0  0
  -24.1857  -13.0451   20.9126 C   0  0  0  0  0  0
  -24.6411  -11.6920   20.8696 C   0  0  0  0  0  0
  -23.9082  -10.4296   21.0378 C   0  0  0  0  0  0
  -24.3632   -9.4219   21.9164 C   0  0  0  0  0  0
  -23.6293   -8.2266   22.0763 C   0  0  0  0  0  0
  -22.4273   -8.0298   21.3557 C   0  0  0  0  0  0
  -21.9911   -9.0269   20.4657 C   0  0  0  0  0  0
  -22.7252  -10.2137   20.3043 C   0  0  0  0  0  0
  -21.6859   -6.0737   22.5280 C   0  0  0  0  0  0
  -21.4012   -6.5636   23.8212 C   0  0  0  0  0  0
  -21.3656   -5.6790   24.9178 C   0  0  0  0  0  0
  -21.6055   -4.3050   24.7229 C   0  0  0  0  0  0
  -21.8824   -3.8145   23.4345 C   0  0  0  0  0  0
  -21.9190   -4.6966   22.3402 C   0  0  0  0  0  0
  -22.7882  -13.5269   21.1786 C   0  0  0  0  0  0
  -22.1660   -4.2155   21.0977 F   0  0  0  0  0  0
  -21.5637   -3.4533   25.7739 F   0  0  0  0  0  0
  -30.0611  -13.2285   20.4611 N   0  0  0  0  0  0
  -26.3061  -12.9354   20.3304 N   0  0  0  0  0  0
  -25.9345  -11.6508   20.5715 N   0  0  0  0  0  0
  -22.0519  -12.8270   22.0343 N   0  0  0  0  0  0
  -25.4328  -15.1881   20.4029 N   0  0  0  0  0  0
  -31.8094  -14.5735   19.9571 O   0  0  0  0  0  0
  -21.6641   -6.8889   21.4245 O   0  0  0  0  0  0
  -22.3576  -14.5579   20.6644 O   0  0  0  0  0  0
  -24.6033  -31.8736   23.2168 C   0  0  0  0  0  0
  -25.8958  -32.4863   23.8423 C   0  0  1  0  0  0
  -27.2339  -27.5219   20.0699 C   0  0  0  0  0  0
  -25.5863  -33.8655   24.2369 N   0  0  0  0  0  0
  -23.3848  -30.4983   21.5576 C   0  0  2  0  0  0
  -24.8300  -28.9669   20.1237 C   0  0  0  0  0  0
  -22.7325  -29.4689   22.5043 C   0  0  0  0  0  0
  -18.0242  -28.1325   22.8502 C   0  0  0  0  0  0
  -24.1492  -36.7345   23.2639 C   0  0  0  0  0  0
  -25.9031  -30.8613   21.3571 C   0  0  0  0  0  0
  -25.9851  -29.4977   20.7160 C   0  0  0  0  0  0
  -27.1912  -28.7768   20.6979 C   0  0  0  0  0  0
  -26.0714  -26.9741   19.4924 C   0  0  0  0  0  0
  -24.8623  -27.6945   19.5228 C   0  0  0  0  0  0
  -23.5872  -29.8272   20.1722 C   0  0  0  0  0  0
  -25.4111  -36.3145   24.0342 C   0  0  1  0  0  0
  -20.5823  -28.3607   23.1349 C   0  0  2  0  0  0
  -20.6738  -26.9358   22.5419 C   0  0  0  0  0  0
  -19.5734  -26.6362   21.5201 C   0  0  0  0  0  0
  -18.1909  -26.7878   22.1606 C   0  0  0  0  0  0
  -19.1488  -28.8782   23.2930 C   0  0  0  0  0  0
  -18.9434  -30.1396   23.8934 C   0  0  0  0  0  0
  -17.6440  -30.6567   24.0557 C   0  0  0  0  0  0
  -25.9016  -34.9497   23.5155 C   0  0  0  0  0  0
  -16.5331  -29.9073   23.6319 C   0  0  0  0  0  0
  -16.7235  -28.6474   23.0360 C   0  0  0  0  0  0
  -26.4421  -31.6596   25.0707 C   0  0  0  0  0  0
  -25.3733  -31.3636   26.1488 C   0  0  0  0  0  0
  -27.0236  -30.3067   24.5982 C   0  0  0  0  0  0
  -27.6027  -32.4284   25.7443 C   0  0  0  0  0  0
  -27.5585  -37.1818   24.8459 C   0  0  0  0  0  0
  -21.4056  -29.3004   22.3776 N   0  0  0  0  0  0
  -26.4303  -37.3825   23.9401 N   0  0  0  0  0  0
  -24.6487  -31.0891   22.1038 N   0  0  0  0  0  0
  -23.4138  -28.8233   23.3050 O   0  0  0  0  0  0
  -28.4262  -26.8849   19.9276 O   0  0  0  0  0  0
  -26.5585  -34.8909   22.4715 O   0  0  0  0  0  0
  -23.5252  -32.1469   23.7613 O   0  0  0  0  0  0
  -29.0769  -20.2891   19.8232 C   0  0  0  0  0  0
  -30.1273  -21.0972   20.1636 C   0  0  0  0  0  0
  -30.5743  -19.0100   20.8607 C   0  0  0  0  0  0
  -31.5513  -21.8414   17.6697 C   0  0  0  0  0  0
  -32.3364  -21.3993   22.6584 C   0  0  0  0  0  0
  -31.7667  -17.8388   22.7813 C   0  0  0  0  0  0
  -32.3648  -17.3619   20.3715 C   0  0  0  0  0  0
  -27.8088  -23.2130   19.9854 C   0  0  0  0  0  0
  -29.2139  -23.2400   22.0704 C   0  0  0  0  0  0
  -30.5944  -14.7939   23.0577 C   0  0  0  0  0  0
  -30.4988  -22.7515   18.3250 C   0  0  0  0  0  0
  -29.6309  -24.9438   20.2837 C   0  0  0  0  0  0
  -32.3820  -20.7151   21.2851 C   0  0  0  0  0  0
  -30.1041  -16.5801   21.3461 C   0  0  0  0  0  0
  -28.7693  -26.0107   20.9732 C   0  0  0  0  0  0
  -30.3222  -22.5591   19.8602 C   0  0  1  0  0  0
  -31.2138  -17.7064   21.3432 C   0  0  0  0  0  0
  -29.2368  -23.4729   20.5389 C   0  0  0  0  0  0
  -31.0520  -20.2805   20.7965 N   0  0  0  0  0  0
  -29.3742  -19.0460   20.2723 N   0  3  0  0  0  0
  -30.4666  -15.1789   21.6488 N   0  0  0  0  0  0
  -31.4469  -12.3245   19.0905 H   0  0  0  0  0  0
  -30.2683  -11.2505   19.7735 H   0  0  0  0  0  0
  -29.7147  -11.8076   17.3916 H   0  0  0  0  0  0
  -29.6605  -13.5099   17.7791 H   0  0  0  0  0  0
  -27.8038  -11.3221   18.7772 H   0  0  0  0  0  0
  -27.3626  -12.6733   17.7723 H   0  0  0  0  0  0
  -27.7146  -14.2586   19.5749 H   0  0  0  0  0  0
  -28.6514  -11.9597   21.3611 H   0  0  0  0  0  0
  -28.4428  -13.6231   21.8306 H   0  0  0  0  0  0
  -25.2792   -9.5698   22.4715 H   0  0  0  0  0  0
  -24.0005   -7.4674   22.7505 H   0  0  0  0  0  0
  -21.0840   -8.8797   19.8968 H   0  0  0  0  0  0
  -22.3726  -10.9669   19.6134 H   0  0  0  0  0  0
  -21.1995   -7.6141   23.9723 H   0  0  0  0  0  0
  -21.1477   -6.0510   25.9082 H   0  0  0  0  0  0
  -22.0600   -2.7609   23.2843 H   0  0  0  0  0  0
  -22.4136  -11.9946   22.4749 H   0  0  0  0  0  0
  -21.1132  -13.1304   22.2519 H   0  0  0  0  0  0
  -24.6663  -15.8431   20.5129 H   0  0  0  0  0  0
  -26.2922  -15.6279   20.1010 H   0  0  0  0  0  0
  -26.7024  -32.5603   23.1188 H   0  0  0  0  0  0
  -25.0000  -33.9839   25.0501 H   0  0  0  0  0  0
  -22.6718  -31.3131   21.4238 H   0  0  0  0  0  0
  -23.3748  -35.9685   23.3332 H   0  0  0  0  0  0
  -24.3597  -36.8941   22.2053 H   0  0  0  0  0  0
  -23.7237  -37.6551   23.6636 H   0  0  0  0  0  0
  -25.9926  -31.6243   20.5820 H   0  0  0  0  0  0
  -26.7984  -30.9271   21.9631 H   0  0  0  0  0  0
  -28.0911  -29.1934   21.1295 H   0  0  0  0  0  0
  -26.1126  -26.0127   19.0004 H   0  0  0  0  0  0
  -23.9719  -27.2790   19.0698 H   0  0  0  0  0  0
  -23.6786  -30.6000   19.4075 H   0  0  0  0  0  0
  -22.7127  -29.2382   19.8893 H   0  0  0  0  0  0
  -25.1281  -36.2042   25.0838 H   0  0  0  0  0  0
  -20.9915  -28.3153   24.1474 H   0  0  0  0  0  0
  -20.5634  -26.2206   23.3577 H   0  0  0  0  0  0
  -21.6620  -26.7417   22.1232 H   0  0  0  0  0  0
  -19.6911  -25.6289   21.1201 H   0  0  0  0  0  0
  -19.6685  -27.3191   20.6751 H   0  0  0  0  0  0
  -17.4182  -26.6622   21.4004 H   0  0  0  0  0  0
  -18.0329  -25.9987   22.8972 H   0  0  0  0  0  0
  -19.7918  -30.7180   24.2340 H   0  0  0  0  0  0
  -17.5011  -31.6268   24.5116 H   0  0  0  0  0  0
  -15.5335  -30.2992   23.7632 H   0  0  0  0  0  0
  -15.8617  -28.0807   22.7074 H   0  0  0  0  0  0
  -24.5938  -30.6931   25.7846 H   0  0  0  0  0  0
  -24.8863  -32.2749   26.4964 H   0  0  0  0  0  0
  -25.8146  -30.8815   27.0227 H   0  0  0  0  0  0
  -26.2733  -29.6838   24.1105 H   0  0  0  0  0  0
  -27.4131  -29.7277   25.4365 H   0  0  0  0  0  0
  -27.8502  -30.4434   23.9015 H   0  0  0  0  0  0
  -27.2697  -33.3589   26.2052 H   0  0  0  0  0  0
  -28.3820  -32.6837   25.0252 H   0  0  0  0  0  0
  -28.0702  -31.8372   26.5332 H   0  0  0  0  0  0
  -28.2613  -38.0110   24.7543 H   0  0  0  0  0  0
  -28.1082  -36.2644   24.6279 H   0  0  0  0  0  0
  -27.2298  -37.1479   25.8861 H   0  0  0  0  0  0
  -20.9167  -29.8748   21.7050 H   0  0  0  0  0  0
  -26.0213  -38.2905   24.1418 H   0  0  0  0  0  0
  -28.1604  -20.5010   19.2902 H   0  0  0  0  0  0
  -31.6465  -22.0786   16.6102 H   0  0  0  0  0  0
  -31.2895  -20.7848   17.7372 H   0  0  0  0  0  0
  -32.5329  -21.9798   18.1230 H   0  0  0  0  0  0
  -33.3465  -21.5706   23.0298 H   0  0  0  0  0  0
  -31.8057  -20.7996   23.3986 H   0  0  0  0  0  0
  -31.8553  -22.3711   22.6006 H   0  0  0  0  0  0
  -32.5432  -18.5876   22.8895 H   0  0  0  0  0  0
  -32.2309  -16.9148   23.1164 H   0  0  0  0  0  0
  -30.9779  -18.0825   23.4924 H   0  0  0  0  0  0
  -33.0579  -18.1759   20.1933 H   0  0  0  0  0  0
  -31.9791  -17.0903   19.3881 H   0  0  0  0  0  0
  -32.9829  -16.5491   20.7510 H   0  0  0  0  0  0
  -27.0961  -23.9744   20.2943 H   0  0  0  0  0  0
  -27.3937  -22.2774   20.3538 H   0  0  0  0  0  0
  -27.7710  -23.2020   18.8976 H   0  0  0  0  0  0
  -28.3690  -23.7345   22.5483 H   0  0  0  0  0  0
  -30.1060  -23.6431   22.5478 H   0  0  0  0  0  0
  -29.1368  -22.1859   22.3360 H   0  0  0  0  0  0
  -30.0960  -15.5019   23.7204 H   0  0  0  0  0  0
  -31.6463  -14.7475   23.3428 H   0  0  0  0  0  0
  -30.1734  -13.8073   23.2521 H   0  0  0  0  0  0
  -29.5553  -22.5837   17.8071 H   0  0  0  0  0  0
  -30.7864  -23.7779   18.0988 H   0  0  0  0  0  0
  -30.6740  -25.1165   20.5518 H   0  0  0  0  0  0
  -29.5855  -25.1250   19.2103 H   0  0  0  0  0  0
  -33.0677  -19.8811   21.3249 H   0  0  0  0  0  0
  -32.8259  -21.3766   20.5427 H   0  0  0  0  0  0
  -29.6322  -16.5405   20.3620 H   0  0  0  0  0  0
  -29.3045  -16.8657   22.0319 H   0  0  0  0  0  0
  -29.3353  -26.5463   21.7345 H   0  0  0  0  0  0
  -27.8803  -25.6110   21.4603 H   0  0  0  0  0  0
  -31.2689  -22.8662   20.2993 H   0  0  0  0  0  0
  -28.7724  -18.2408   20.1514 H   0  0  0  0  0  0
  1 25  1  0  0  0
  1 30  2  0  0  0
  1 91  1  0  0  0
  2  3  1  0  0  0
  2 25  1  0  0  0
  2 92  1  0  0  0
  2 93  1  0  0  0
  3  4  1  0  0  0
  3 94  1  0  0  0
  3 95  1  0  0  0
  4  5  1  0  0  0
  4 96  1  0  0  0
  4 97  1  0  0  0
  5  6  1  0  0  0
  5 26  1  0  0  0
  5 98  1  0  0  0
  6 25  1  0  0  0
  6 99  1  0  0  0
  6100  1  0  0  0
  7  8  2  0  0  0
  7 26  1  0  0  0
  7 29  1  0  0  0
  8  9  1  0  0  0
  8 22  1  0  0  0
  9 10  1  0  0  0
  9 27  2  0  0  0
 10 11  2  0  0  0
 10 15  1  0  0  0
 11 12  1  0  0  0
 11101  1  0  0  0
 12 13  2  0  0  0
 12102  1  0  0  0
 13 14  1  0  0  0
 13 31  1  0  0  0
 14 15  2  0  0  0
 14103  1  0  0  0
 15104  1  0  0  0
 16 17  2  0  0  0
 16 21  1  0  0  0
 16 31  1  0  0  0
 17 18  1  0  0  0
 17105  1  0  0  0
 18 19  2  0  0  0
 18106  1  0  0  0
 19 20  1  0  0  0
 19 24  1  0  0  0
 20 21  2  0  0  0
 20107  1  0  0  0
 21 23  1  0  0  0
 22 28  1  0  0  0
 22 32  2  0  0  0
 26 27  1  0  0  0
 28108  1  0  0  0
 28109  1  0  0  0
 29110  1  0  0  0
 29111  1  0  0  0
 33 34  1  0  0  0
 33 66  1  0  0  0
 33 70  2  0  0  0
 34 36  1  0  0  0
 34 59  1  0  0  0
 34112  1  0  0  0
 35 44  2  0  0  0
 35 45  1  0  0  0
 35 68  1  0  0  0
 36 56  1  0  0  0
 36113  1  0  0  0
 37 39  1  0  0  0
 37 47  1  0  0  0
 37 66  1  0  0  0
 37114  1  0  0  0
 38 43  2  0  0  0
 38 46  1  0  0  0
 38 47  1  0  0  0
 39 64  1  0  0  0
 39 67  2  0  0  0
 40 52  1  0  0  0
 40 53  2  0  0  0
 40 58  1  0  0  0
 41115  1  0  0  0
 41116  1  0  0  0
 41117  1  0  0  0
 41 48  1  0  0  0
 42 43  1  0  0  0
 42 66  1  0  0  0
 42118  1  0  0  0
 42119  1  0  0  0
 43 44  1  0  0  0
 44120  1  0  0  0
 45 46  2  0  0  0
 45121  1  0  0  0
 46122  1  0  0  0
 47123  1  0  0  0
 47124  1  0  0  0
 48 56  1  0  0  0
 48 65  1  0  0  0
 48125  1  0  0  0
 49 50  1  0  0  0
 49 53  1  0  0  0
 49 64  1  0  0  0
 49126  1  0  0  0
 50 51  1  0  0  0
 50127  1  0  0  0
 50128  1  0  0  0
 51 52  1  0  0  0
 51129  1  0  0  0
 51130  1  0  0  0
 52131  1  0  0  0
 52132  1  0  0  0
 53 54  1  0  0  0
 54 55  2  0  0  0
 54133  1  0  0  0
 55 57  1  0  0  0
 55134  1  0  0  0
 56 69  2  0  0  0
 57 58  2  0  0  0
 57135  1  0  0  0
 58136  1  0  0  0
 59 60  1  0  0  0
 59 61  1  0  0  0
 59 62  1  0  0  0
 60137  1  0  0  0
 60138  1  0  0  0
 60139  1  0  0  0
 61140  1  0  0  0
 61141  1  0  0  0
 61142  1  0  0  0
 62143  1  0  0  0
 62144  1  0  0  0
 62145  1  0  0  0
 63 65  1  0  0  0
 63146  1  0  0  0
 63147  1  0  0  0
 63148  1  0  0  0
 64149  1  0  0  0
 65150  1  0  0  0
 68 85  1  0  0  0
 71 72  2  0  0  0
 71 90  1  0  0  0
 71151  1  0  0  0
 72 86  1  0  0  0
 72 89  1  0  0  0
 73 87  1  0  0  0
 73 89  1  0  0  0
 73 90  2  0  0  0
 74 81  1  0  0  0
 74152  1  0  0  0
 74153  1  0  0  0
 74154  1  0  0  0
 75 83  1  0  0  0
 75155  1  0  0  0
 75156  1  0  0  0
 75157  1  0  0  0
 76158  1  0  0  0
 76159  1  0  0  0
 76160  1  0  0  0
 76 87  1  0  0  0
 77 87  1  0  0  0
 77161  1  0  0  0
 77162  1  0  0  0
 77163  1  0  0  0
 78164  1  0  0  0
 78165  1  0  0  0
 78166  1  0  0  0
 78 88  1  0  0  0
 79 88  1  0  0  0
 79167  1  0  0  0
 79168  1  0  0  0
 79169  1  0  0  0
 80 91  1  0  0  0
 80170  1  0  0  0
 80171  1  0  0  0
 80172  1  0  0  0
 81173  1  0  0  0
 81174  1  0  0  0
 81 86  1  0  0  0
 82 85  1  0  0  0
 82 88  1  0  0  0
 82175  1  0  0  0
 82176  1  0  0  0
 83 89  1  0  0  0
 83177  1  0  0  0
 83178  1  0  0  0
 84 87  1  0  0  0
 84 91  1  0  0  0
 84179  1  0  0  0
 84180  1  0  0  0
 85181  1  0  0  0
 85182  1  0  0  0
 86 88  1  0  0  0
 86183  1  0  0  0
 90184  1  0  0  0
M  CHG  1  90   1
M  ISO  4   1 100  68 101  85 101  91 100
M  END
> <chiral flag>
0

> <version>
0

> <s_m_source_file>
/data/baiqing/PycharmProjects/Reinvent-master-3.2/result/LINK_invent/BTK/process_docking_weight1_custom_sum_contain_oxygen_bond_distance_aromatic_linkinvent_7_9_3/rearranged_h_0065.sdf

> <i_m_source_file_index>
9

> <r_mmod_Potential_Energy-OPLS-2005>
200.238708496094

> <r_mmod_Stretch_Energy-OPLS-2005>
43.8843612670898

> <r_mmod_Bend_Energy-OPLS-2005>
128.269485473633

> <r_mmod_Torsional_Energy-OPLS-2005>
395.929016113281

> <r_mmod_Improper_Torsional_Energy-OPLS-2005>
2.99697136878967

> <r_mmod_Van_der_Waal_Energy-OPLS-2005>
160.763153076172

> <r_mmod_Electrostatic_Energy-OPLS-2005>
-168.125473022461

> <r_mmod_Solvation_Energy-OPLS-2005>
-375.099853515625

> <b_mmod_Minimization_Converged-OPLS-2005>
0

> <r_mmod_RMS_Derivative-OPLS-2005>
2.65673184394836

$$$$
11
                    3D
 Structure written by MMmdl.
157165  0  0  1  0            999 V2000
  -30.5832  -14.8790   20.4877 C   0  0  0  0  0  0
  -30.4367  -12.5478   19.5065 C   0  0  0  0  0  0
  -29.5268  -12.5461   18.2568 C   0  0  0  0  0  0
  -28.0510  -12.3467   18.6517 C   0  0  0  0  0  0
  -27.6375  -13.2448   19.8471 C   0  0  2  0  0  0
  -28.6739  -13.2066   20.9880 C   0  0  0  0  0  0
  -25.2487  -13.8205   20.5676 C   0  0  0  0  0  0
  -24.1792  -13.0440   20.9195 C   0  0  0  0  0  0
  -24.6394  -11.6925   20.8718 C   0  0  0  0  0  0
  -23.9069  -10.4296   21.0392 C   0  0  0  0  0  0
  -24.3623   -9.4213   21.9171 C   0  0  0  0  0  0
  -23.6299   -8.2245   22.0748 C   0  0  0  0  0  0
  -22.4276   -8.0277   21.3538 C   0  0  0  0  0  0
  -21.9906   -9.0252   20.4639 C   0  0  0  0  0  0
  -22.7239  -10.2134   20.3046 C   0  0  0  0  0  0
  -21.6857   -6.0732   22.5275 C   0  0  0  0  0  0
  -21.4023   -6.5631   23.8211 C   0  0  0  0  0  0
  -21.3668   -5.6787   24.9176 C   0  0  0  0  0  0
  -21.6049   -4.3050   24.7219 C   0  0  0  0  0  0
  -21.8824   -3.8137   23.4346 C   0  0  0  0  0  0
  -21.9196   -4.6955   22.3401 C   0  0  0  0  0  0
  -22.7817  -13.5218   21.1877 C   0  0  0  0  0  0
  -22.1654   -4.2138   21.0980 F   0  0  0  0  0  0
  -21.5643   -3.4539   25.7734 F   0  0  0  0  0  0
  -29.9663  -13.6274   20.4234 N   0  0  0  0  0  0
  -26.2912  -12.9436   20.3229 N   0  0  0  0  0  0
  -25.9331  -11.6564   20.5704 N   0  0  0  0  0  0
  -22.0463  -12.8212   22.0435 N   0  0  0  0  0  0
  -25.4178  -15.1929   20.4114 N   0  0  0  0  0  0
  -31.7320  -14.9607   20.0389 O   0  0  0  0  0  0
  -21.6643   -6.8868   21.4232 O   0  0  0  0  0  0
  -22.3496  -14.5522   20.6726 O   0  0  0  0  0  0
  -24.6410  -31.8472   23.1922 C   0  0  0  0  0  0
  -25.9193  -32.4714   23.8302 C   0  0  1  0  0  0
  -27.2098  -27.1635   20.1431 C   0  0  0  0  0  0
  -25.5946  -33.8523   24.2215 N   0  0  0  0  0  0
  -23.4440  -30.4691   21.5376 C   0  0  2  0  0  0
  -24.8934  -28.9060   20.1092 C   0  0  0  0  0  0
  -22.7558  -29.4568   22.4876 C   0  0  0  0  0  0
  -18.0300  -28.1401   22.8482 C   0  0  0  0  0  0
  -24.1484  -36.7261   23.2642 C   0  0  0  0  0  0
  -26.0001  -30.7269   21.3925 C   0  0  0  0  0  0
  -26.0705  -29.3423   20.7320 C   0  0  0  0  0  0
  -27.2336  -28.4856   20.7364 C   0  0  0  0  0  0
  -26.0184  -26.8393   19.4580 C   0  0  0  0  0  0
  -24.8785  -27.6667   19.4558 C   0  0  0  0  0  0
  -23.6687  -29.8039   20.1554 C   0  0  0  0  0  0
  -25.4118  -36.3048   24.0320 C   0  0  1  0  0  0
  -20.5918  -28.3725   23.1237 C   0  0  2  0  0  0
  -20.6790  -26.9431   22.5406 C   0  0  0  0  0  0
  -19.5761  -26.6381   21.5218 C   0  0  0  0  0  0
  -18.1943  -26.7938   22.1629 C   0  0  0  0  0  0
  -19.1562  -28.8880   23.2854 C   0  0  0  0  0  0
  -18.9477  -30.1476   23.8877 C   0  0  0  0  0  0
  -17.6479  -30.6597   24.0562 C   0  0  0  0  0  0
  -25.9072  -34.9422   23.5078 C   0  0  0  0  0  0
  -16.5366  -29.9095   23.6336 C   0  0  0  0  0  0
  -16.7290  -28.6513   23.0357 C   0  0  0  0  0  0
  -26.4510  -31.6582   25.0743 C   0  0  0  0  0  0
  -25.3684  -31.3782   26.1430 C   0  0  0  0  0  0
  -27.0381  -30.2978   24.6332 C   0  0  0  0  0  0
  -27.6039  -32.4353   25.7522 C   0  0  0  0  0  0
  -27.5575  -37.1787   24.8462 C   0  0  0  0  0  0
  -21.4255  -29.3054   22.3611 N   0  0  0  0  0  0
  -26.4285  -37.3758   23.9411 N   0  0  0  0  0  0
  -24.7147  -31.0349   22.0951 N   0  0  0  0  0  0
  -23.4212  -28.8113   23.3010 O   0  0  0  0  0  0
  -28.2297  -26.1494   20.2001 O   0  0  0  0  0  0
  -26.5658  -34.8911   22.4656 O   0  0  0  0  0  0
  -23.5531  -32.1354   23.7137 O   0  0  0  0  0  0
  -30.1529  -21.5818   20.7776 C   0  0  0  0  0  0
  -27.6286  -22.1238   20.1448 C   0  0  0  0  0  0
  -29.2888  -20.4429   20.5623 C   0  0  0  0  0  0
  -28.4737  -23.2640   20.4040 C   0  0  0  0  0  0
  -27.6892  -24.8999   22.2243 C   0  0  0  0  0  0
  -30.4975  -17.6378   18.8985 C   0  0  0  0  0  0
  -29.5026  -16.1308   22.2868 C   0  0  0  0  0  0
  -29.6525  -18.9133   21.0485 C   0  0  0  0  0  0
  -27.8113  -24.7448   20.7003 C   0  0  1  0  0  0
  -29.6728  -17.4797   20.1853 C   0  0  1  0  0  0
  -28.0036  -20.7845   20.2256 N   0  0  0  0  0  0
  -29.7721  -22.9268   20.7132 N   0  0  0  0  0  0
  -29.8686  -16.0564   20.8673 N   0  0  0  0  0  0
  -31.4776  -12.6830   19.2092 H   0  0  0  0  0  0
  -30.4027  -11.5770   20.0064 H   0  0  0  0  0  0
  -29.8392  -11.7663   17.5613 H   0  0  0  0  0  0
  -29.6370  -13.4918   17.7246 H   0  0  0  0  0  0
  -27.9179  -11.2955   18.9098 H   0  0  0  0  0  0
  -27.4013  -12.5368   17.7962 H   0  0  0  0  0  0
  -27.6217  -14.2664   19.4659 H   0  0  0  0  0  0
  -28.7430  -12.2045   21.4145 H   0  0  0  0  0  0
  -28.3449  -13.8511   21.7984 H   0  0  0  0  0  0
  -25.2764   -9.5706   22.4756 H   0  0  0  0  0  0
  -24.0016   -7.4635   22.7471 H   0  0  0  0  0  0
  -21.0840   -8.8762   19.8949 H   0  0  0  0  0  0
  -22.3675  -10.9672   19.6166 H   0  0  0  0  0  0
  -21.2005   -7.6136   23.9714 H   0  0  0  0  0  0
  -21.1500   -6.0513   25.9084 H   0  0  0  0  0  0
  -22.0593   -2.7596   23.2842 H   0  0  0  0  0  0
  -22.4057  -11.9861   22.4819 H   0  0  0  0  0  0
  -21.1077  -13.1238   22.2639 H   0  0  0  0  0  0
  -24.6569  -15.8514   20.5378 H   0  0  0  0  0  0
  -26.2747  -15.6300   20.0981 H   0  0  0  0  0  0
  -26.7264  -32.5329   23.1038 H   0  0  0  0  0  0
  -25.0044  -33.9649   25.0328 H   0  0  0  0  0  0
  -22.7458  -31.2949   21.3868 H   0  0  0  0  0  0
  -23.3760  -35.9580   23.3293 H   0  0  0  0  0  0
  -24.3563  -36.8902   22.2057 H   0  0  0  0  0  0
  -23.7223  -37.6448   23.6684 H   0  0  0  0  0  0
  -26.1603  -31.4840   20.6236 H   0  0  0  0  0  0
  -26.8690  -30.7701   22.0378 H   0  0  0  0  0  0
  -28.1279  -28.8099   21.2501 H   0  0  0  0  0  0
  -25.9415  -25.9032   18.9235 H   0  0  0  0  0  0
  -23.9858  -27.3350   18.9437 H   0  0  0  0  0  0
  -23.8019  -30.5808   19.4019 H   0  0  0  0  0  0
  -22.7844  -29.2438   19.8454 H   0  0  0  0  0  0
  -25.1303  -36.1883   25.0813 H   0  0  0  0  0  0
  -21.0010  -28.3319   24.1359 H   0  0  0  0  0  0
  -20.5687  -26.2342   23.3630 H   0  0  0  0  0  0
  -21.6655  -26.7444   22.1199 H   0  0  0  0  0  0
  -19.6923  -25.6285   21.1264 H   0  0  0  0  0  0
  -19.6695  -27.3176   20.6735 H   0  0  0  0  0  0
  -17.4211  -26.6683   21.4035 H   0  0  0  0  0  0
  -18.0346  -26.0091   22.9033 H   0  0  0  0  0  0
  -19.7954  -30.7297   24.2245 H   0  0  0  0  0  0
  -17.5030  -31.6277   24.5166 H   0  0  0  0  0  0
  -15.5367  -30.2992   23.7668 H   0  0  0  0  0  0
  -15.8687  -28.0820   22.7089 H   0  0  0  0  0  0
  -24.5835  -30.7175   25.7728 H   0  0  0  0  0  0
  -24.8908  -32.2976   26.4828 H   0  0  0  0  0  0
  -25.7937  -30.8942   27.0230 H   0  0  0  0  0  0
  -26.3016  -29.6702   24.1301 H   0  0  0  0  0  0
  -27.3946  -29.7275   25.4919 H   0  0  0  0  0  0
  -27.8941  -30.4213   23.9697 H   0  0  0  0  0  0
  -27.2624  -33.3659   26.2068 H   0  0  0  0  0  0
  -28.3861  -32.6909   25.0364 H   0  0  0  0  0  0
  -28.0700  -31.8510   26.5464 H   0  0  0  0  0  0
  -28.2585  -38.0092   24.7519 H   0  0  0  0  0  0
  -28.1081  -36.2623   24.6279 H   0  0  0  0  0  0
  -27.2295  -37.1422   25.8865 H   0  0  0  0  0  0
  -20.9471  -29.8762   21.6789 H   0  0  0  0  0  0
  -26.0155  -38.2829   24.1415 H   0  0  0  0  0  0
  -31.1672  -21.4134   21.1109 H   0  0  0  0  0  0
  -26.5759  -22.2854   19.9634 H   0  0  0  0  0  0
  -27.2140  -24.0233   22.6661 H   0  0  0  0  0  0
  -27.0889  -25.7664   22.4998 H   0  0  0  0  0  0
  -28.6725  -25.0113   22.6802 H   0  0  0  0  0  0
  -31.5609  -17.7425   19.1167 H   0  0  0  0  0  0
  -30.1809  -18.5266   18.3473 H   0  0  0  0  0  0
  -30.3736  -16.7864   18.2296 H   0  0  0  0  0  0
  -29.7053  -15.2110   22.8371 H   0  0  0  0  0  0
  -28.4435  -16.3643   22.4011 H   0  0  0  0  0  0
  -30.0855  -16.8999   22.7932 H   0  0  0  0  0  0
  -28.9855  -18.7592   21.8977 H   0  0  0  0  0  0
  -30.6421  -19.0009   21.4989 H   0  0  0  0  0  0
  -26.7940  -24.5853   20.3516 H   0  0  0  0  0  0
  -28.6446  -17.3989   19.8278 H   0  0  0  0  0  0
  1 25  1  0  0  0
  1 30  2  0  0  0
  1 83  1  0  0  0
  2  3  1  0  0  0
  2 25  1  0  0  0
  2 84  1  0  0  0
  2 85  1  0  0  0
  3  4  1  0  0  0
  3 86  1  0  0  0
  3 87  1  0  0  0
  4  5  1  0  0  0
  4 88  1  0  0  0
  4 89  1  0  0  0
  5  6  1  0  0  0
  5 26  1  0  0  0
  5 90  1  0  0  0
  6 25  1  0  0  0
  6 91  1  0  0  0
  6 92  1  0  0  0
  7  8  2  0  0  0
  7 26  1  0  0  0
  7 29  1  0  0  0
  8  9  1  0  0  0
  8 22  1  0  0  0
  9 10  1  0  0  0
  9 27  2  0  0  0
 10 11  2  0  0  0
 10 15  1  0  0  0
 11 12  1  0  0  0
 11 93  1  0  0  0
 12 13  2  0  0  0
 12 94  1  0  0  0
 13 14  1  0  0  0
 13 31  1  0  0  0
 14 15  2  0  0  0
 14 95  1  0  0  0
 15 96  1  0  0  0
 16 17  2  0  0  0
 16 21  1  0  0  0
 16 31  1  0  0  0
 17 18  1  0  0  0
 17 97  1  0  0  0
 18 19  2  0  0  0
 18 98  1  0  0  0
 19 20  1  0  0  0
 19 24  1  0  0  0
 20 21  2  0  0  0
 20 99  1  0  0  0
 21 23  1  0  0  0
 22 28  1  0  0  0
 22 32  2  0  0  0
 26 27  1  0  0  0
 28100  1  0  0  0
 28101  1  0  0  0
 29102  1  0  0  0
 29103  1  0  0  0
 33 34  1  0  0  0
 33 66  1  0  0  0
 33 70  2  0  0  0
 34 36  1  0  0  0
 34 59  1  0  0  0
 34104  1  0  0  0
 35 44  2  0  0  0
 35 45  1  0  0  0
 35 68  1  0  0  0
 36 56  1  0  0  0
 36105  1  0  0  0
 37 39  1  0  0  0
 37 47  1  0  0  0
 37 66  1  0  0  0
 37106  1  0  0  0
 38 43  2  0  0  0
 38 46  1  0  0  0
 38 47  1  0  0  0
 39 64  1  0  0  0
 39 67  2  0  0  0
 40 52  1  0  0  0
 40 53  2  0  0  0
 40 58  1  0  0  0
 41107  1  0  0  0
 41108  1  0  0  0
 41109  1  0  0  0
 41 48  1  0  0  0
 42 43  1  0  0  0
 42 66  1  0  0  0
 42110  1  0  0  0
 42111  1  0  0  0
 43 44  1  0  0  0
 44112  1  0  0  0
 45 46  2  0  0  0
 45113  1  0  0  0
 46114  1  0  0  0
 47115  1  0  0  0
 47116  1  0  0  0
 48 56  1  0  0  0
 48 65  1  0  0  0
 48117  1  0  0  0
 49 50  1  0  0  0
 49 53  1  0  0  0
 49 64  1  0  0  0
 49118  1  0  0  0
 50 51  1  0  0  0
 50119  1  0  0  0
 50120  1  0  0  0
 51 52  1  0  0  0
 51121  1  0  0  0
 51122  1  0  0  0
 52123  1  0  0  0
 52124  1  0  0  0
 53 54  1  0  0  0
 54 55  2  0  0  0
 54125  1  0  0  0
 55 57  1  0  0  0
 55126  1  0  0  0
 56 69  2  0  0  0
 57 58  2  0  0  0
 57127  1  0  0  0
 58128  1  0  0  0
 59 60  1  0  0  0
 59 61  1  0  0  0
 59 62  1  0  0  0
 60129  1  0  0  0
 60130  1  0  0  0
 60131  1  0  0  0
 61132  1  0  0  0
 61133  1  0  0  0
 61134  1  0  0  0
 62135  1  0  0  0
 62136  1  0  0  0
 62137  1  0  0  0
 63 65  1  0  0  0
 63138  1  0  0  0
 63139  1  0  0  0
 63140  1  0  0  0
 64141  1  0  0  0
 65142  1  0  0  0
 68 79  1  0  0  0
 71 73  2  0  0  0
 71 82  1  0  0  0
 71143  1  0  0  0
 72 74  1  0  0  0
 72 81  2  0  0  0
 72144  1  0  0  0
 73 78  1  0  0  0
 73 81  1  0  0  0
 74 79  1  0  0  0
 74 82  2  0  0  0
 75145  1  0  0  0
 75146  1  0  0  0
 75147  1  0  0  0
 75 79  1  0  0  0
 76148  1  0  0  0
 76149  1  0  0  0
 76150  1  0  0  0
 76 80  1  0  0  0
 77 83  1  0  0  0
 77151  1  0  0  0
 77152  1  0  0  0
 77153  1  0  0  0
 78 80  1  0  0  0
 78154  1  0  0  0
 78155  1  0  0  0
 79156  1  0  0  0
 80 83  1  0  0  0
 80157  1  0  0  0
M  ISO  4   1 100  68 101  79 101  83 100
M  END
> <chiral flag>
0

> <version>
0

> <s_m_source_file>
/data/baiqing/PycharmProjects/Reinvent-master-3.2/result/LINK_invent/BTK/process_docking_weight1_custom_sum_contain_oxygen_bond_distance_aromatic_linkinvent_7_9_3/rearranged_h_0065.sdf

> <i_m_source_file_index>
10

> <r_mmod_Potential_Energy-OPLS-2005>
712.935729980469

> <r_mmod_Stretch_Energy-OPLS-2005>
231.727340698242

> <r_mmod_Bend_Energy-OPLS-2005>
265.157958984375

> <r_mmod_Torsional_Energy-OPLS-2005>
299.791534423828

> <r_mmod_Improper_Torsional_Energy-OPLS-2005>
9.75461196899414

> <r_mmod_Van_der_Waal_Energy-OPLS-2005>
141.767562866211

> <r_mmod_Electrostatic_Energy-OPLS-2005>
-183.683547973633

> <r_mmod_Solvation_Energy-OPLS-2005>
-209.695068359375

> <b_mmod_Minimization_Converged-OPLS-2005>
0

> <r_mmod_RMS_Derivative-OPLS-2005>
1.89007997512817

$$$$
12
                    3D
 Structure written by MMmdl.
164172  0  0  1  0            999 V2000
  -30.7169  -14.7097   20.3058 C   0  0  0  0  0  0
  -30.4061  -12.4120   19.4487 C   0  0  0  0  0  0
  -29.4778  -12.3801   18.2196 C   0  0  0  0  0  0
  -28.0028  -12.2817   18.6464 C   0  0  0  0  0  0
  -27.6188  -13.2166   19.8254 C   0  0  2  0  0  0
  -28.6896  -13.2626   20.9313 C   0  0  0  0  0  0
  -25.2479  -13.8160   20.5763 C   0  0  0  0  0  0
  -24.1757  -13.0425   20.9246 C   0  0  0  0  0  0
  -24.6329  -11.6888   20.8818 C   0  0  0  0  0  0
  -23.9023  -10.4278   21.0468 C   0  0  0  0  0  0
  -24.3588   -9.4180   21.9216 C   0  0  0  0  0  0
  -23.6258   -8.2214   22.0779 C   0  0  0  0  0  0
  -22.4246   -8.0267   21.3562 C   0  0  0  0  0  0
  -21.9894   -9.0235   20.4665 C   0  0  0  0  0  0
  -22.7222  -10.2112   20.3088 C   0  0  0  0  0  0
  -21.6812   -6.0729   22.5289 C   0  0  0  0  0  0
  -21.3977   -6.5636   23.8218 C   0  0  0  0  0  0
  -21.3652   -5.6799   24.9188 C   0  0  0  0  0  0
  -21.6042   -4.3066   24.7239 C   0  0  0  0  0  0
  -21.8806   -3.8146   23.4363 C   0  0  0  0  0  0
  -21.9166   -4.6960   22.3414 C   0  0  0  0  0  0
  -22.7787  -13.5214   21.1901 C   0  0  0  0  0  0
  -22.1651   -4.2141   21.0996 F   0  0  0  0  0  0
  -21.5637   -3.4570   25.7764 F   0  0  0  0  0  0
  -29.9814  -13.5466   20.2940 N   0  0  0  0  0  0
  -26.2862  -12.9307   20.3358 N   0  0  0  0  0  0
  -25.9257  -11.6472   20.5876 N   0  0  0  0  0  0
  -22.0423  -12.8211   22.0443 N   0  0  0  0  0  0
  -25.4207  -15.1893   20.4170 N   0  0  0  0  0  0
  -31.9368  -14.5779   20.4036 O   0  0  0  0  0  0
  -21.6593   -6.8882   21.4261 O   0  0  0  0  0  0
  -22.3492  -14.5532   20.6760 O   0  0  0  0  0  0
  -24.6223  -31.8605   23.2013 C   0  0  0  0  0  0
  -25.9086  -32.4781   23.8347 C   0  0  1  0  0  0
  -27.2309  -27.3479   20.1141 C   0  0  0  0  0  0
  -25.5918  -33.8589   24.2271 N   0  0  0  0  0  0
  -23.4134  -30.4844   21.5407 C   0  0  2  0  0  0
  -24.8604  -28.9360   20.1131 C   0  0  0  0  0  0
  -22.7442  -29.4649   22.4912 C   0  0  0  0  0  0
  -18.0286  -28.1353   22.8475 C   0  0  0  0  0  0
  -24.1490  -36.7316   23.2632 C   0  0  0  0  0  0
  -25.9511  -30.8020   21.3650 C   0  0  0  0  0  0
  -26.0248  -29.4304   20.7108 C   0  0  0  0  0  0
  -27.2109  -28.6474   20.6991 C   0  0  0  0  0  0
  -26.0390  -26.8856   19.5116 C   0  0  0  0  0  0
  -24.8665  -27.6673   19.5084 C   0  0  0  0  0  0
  -23.6275  -29.8133   20.1586 C   0  0  0  0  0  0
  -25.4113  -36.3093   24.0316 C   0  0  1  0  0  0
  -20.5887  -28.3671   23.1262 C   0  0  2  0  0  0
  -20.6775  -26.9391   22.5398 C   0  0  0  0  0  0
  -19.5755  -26.6362   21.5192 C   0  0  0  0  0  0
  -18.1930  -26.7902   22.1601 C   0  0  0  0  0  0
  -19.1542  -28.8826   23.2866 C   0  0  0  0  0  0
  -18.9470  -30.1426   23.8877 C   0  0  0  0  0  0
  -17.6476  -30.6562   24.0553 C   0  0  0  0  0  0
  -25.9048  -34.9462   23.5095 C   0  0  0  0  0  0
  -16.5363  -29.9072   23.6319 C   0  0  0  0  0  0
  -16.7281  -28.6493   23.0340 C   0  0  0  0  0  0
  -26.4491  -31.6590   25.0707 C   0  0  0  0  0  0
  -25.3732  -31.3712   26.1439 C   0  0  0  0  0  0
  -27.0340  -30.3028   24.6130 C   0  0  0  0  0  0
  -27.6050  -32.4337   25.7477 C   0  0  0  0  0  0
  -27.5592  -37.1799   24.8446 C   0  0  0  0  0  0
  -21.4165  -29.3046   22.3663 N   0  0  0  0  0  0
  -26.4294  -37.3788   23.9402 N   0  0  0  0  0  0
  -24.6814  -31.0657   22.0936 N   0  0  0  0  0  0
  -23.4189  -28.8184   23.2973 O   0  0  0  0  0  0
  -28.3982  -26.5842   20.1597 O   0  0  0  0  0  0
  -26.5622  -34.8920   22.4660 O   0  0  0  0  0  0
  -23.5397  -32.1409   23.7357 O   0  0  0  0  0  0
  -29.9574  -19.2654   21.6307 C   0  0  0  0  0  0
  -28.8604  -19.9294   21.0361 C   0  0  0  0  0  0
  -28.0635  -19.0707   20.2458 C   0  0  0  0  0  0
  -29.5457  -17.2672   20.5025 C   0  0  0  0  0  0
  -26.8911  -19.7503   18.1003 C   0  0  0  0  0  0
  -31.5697  -16.8427   19.1446 C   0  0  0  0  0  0
  -29.5530  -15.9256   18.2892 C   0  0  0  0  0  0
  -28.5141  -21.4230   21.3796 C   0  0  0  0  0  0
  -26.7583  -19.5179   19.6099 C   0  0  0  0  0  0
  -28.6731  -22.5587   20.2880 C   0  0  0  0  0  0
  -28.3088  -24.0360   20.7495 C   0  0  0  0  0  0
  -28.4759  -25.1955   19.6894 C   0  0  0  0  0  0
  -30.2677  -16.1338   19.6559 C   0  0  0  0  0  0
  -30.2765  -17.9670   21.3815 N   0  0  0  0  0  0
  -28.4218  -17.7859   19.9863 N   0  0  0  0  0  0
  -31.4446  -12.4947   19.1248 H   0  0  0  0  0  0
  -30.3419  -11.4766   20.0071 H   0  0  0  0  0  0
  -29.7305  -11.5238   17.5948 H   0  0  0  0  0  0
  -29.6254  -13.2412   17.5779 H   0  0  0  0  0  0
  -27.8270  -11.2448   18.9335 H   0  0  0  0  0  0
  -27.3537  -12.4668   17.7907 H   0  0  0  0  0  0
  -27.5472  -14.2101   19.4097 H   0  0  0  0  0  0
  -28.7326  -12.3172   21.4747 H   0  0  0  0  0  0
  -28.4466  -14.0363   21.6614 H   0  0  0  0  0  0
  -25.2729   -9.5622   22.4799 H   0  0  0  0  0  0
  -23.9946   -7.4592   22.7484 H   0  0  0  0  0  0
  -21.0845   -8.8737   19.8953 H   0  0  0  0  0  0
  -22.3698  -10.9640   19.6195 H   0  0  0  0  0  0
  -21.1950   -7.6135   23.9727 H   0  0  0  0  0  0
  -21.1495   -6.0539   25.9090 H   0  0  0  0  0  0
  -22.0587   -2.7605   23.2866 H   0  0  0  0  0  0
  -22.3996  -11.9810   22.4730 H   0  0  0  0  0  0
  -21.1062  -13.1268   22.2720 H   0  0  0  0  0  0
  -24.6549  -15.8442   20.5261 H   0  0  0  0  0  0
  -26.2826  -15.6346   20.1229 H   0  0  0  0  0  0
  -26.7143  -32.5467   23.1091 H   0  0  0  0  0  0
  -25.0069  -33.9738   25.0420 H   0  0  0  0  0  0
  -22.7050  -31.3022   21.3924 H   0  0  0  0  0  0
  -23.3758  -35.9644   23.3270 H   0  0  0  0  0  0
  -24.3573  -36.8981   22.2051 H   0  0  0  0  0  0
  -23.7259  -37.6508   23.6687 H   0  0  0  0  0  0
  -26.0711  -31.5636   20.5939 H   0  0  0  0  0  0
  -26.8364  -30.8569   21.9872 H   0  0  0  0  0  0
  -28.1112  -29.0270   21.1611 H   0  0  0  0  0  0
  -25.9781  -25.9103   19.0544 H   0  0  0  0  0  0
  -23.9696  -27.2782   19.0447 H   0  0  0  0  0  0
  -23.7435  -30.5851   19.3973 H   0  0  0  0  0  0
  -22.7504  -29.2372   19.8588 H   0  0  0  0  0  0
  -25.1294  -36.1937   25.0813 H   0  0  0  0  0  0
  -20.9974  -28.3258   24.1385 H   0  0  0  0  0  0
  -20.5639  -26.2292   23.3603 H   0  0  0  0  0  0
  -21.6649  -26.7397   22.1212 H   0  0  0  0  0  0
  -19.6920  -25.6271   21.1231 H   0  0  0  0  0  0
  -19.6700  -27.3149   20.6703 H   0  0  0  0  0  0
  -17.4205  -26.6652   21.3991 H   0  0  0  0  0  0
  -18.0324  -26.0017   22.8971 H   0  0  0  0  0  0
  -19.7952  -30.7233   24.2243 H   0  0  0  0  0  0
  -17.5043  -31.6240   24.5152 H   0  0  0  0  0  0
  -15.5363  -30.2974   23.7643 H   0  0  0  0  0  0
  -15.8685  -28.0815   22.7050 H   0  0  0  0  0  0
  -24.5917  -30.7040   25.7788 H   0  0  0  0  0  0
  -24.8897  -32.2857   26.4878 H   0  0  0  0  0  0
  -25.8072  -30.8908   27.0214 H   0  0  0  0  0  0
  -26.2900  -29.6757   24.1206 H   0  0  0  0  0  0
  -27.4116  -29.7310   25.4617 H   0  0  0  0  0  0
  -27.8723  -30.4338   23.9285 H   0  0  0  0  0  0
  -27.2668  -33.3650   26.2040 H   0  0  0  0  0  0
  -28.3871  -32.6893   25.0312 H   0  0  0  0  0  0
  -28.0698  -31.8470   26.5410 H   0  0  0  0  0  0
  -28.2571  -38.0137   24.7560 H   0  0  0  0  0  0
  -28.1138  -36.2677   24.6198 H   0  0  0  0  0  0
  -27.2307  -37.1353   25.8844 H   0  0  0  0  0  0
  -20.9319  -29.8836   21.6948 H   0  0  0  0  0  0
  -26.0176  -38.2854   24.1446 H   0  0  0  0  0  0
  -30.6067  -19.7872   22.3186 H   0  0  0  0  0  0
  -25.9381  -20.0597   17.6713 H   0  0  0  0  0  0
  -27.2107  -18.8410   17.5905 H   0  0  0  0  0  0
  -27.6240  -20.5281   17.8892 H   0  0  0  0  0  0
  -31.3468  -17.7865   18.6453 H   0  0  0  0  0  0
  -32.1316  -16.2335   18.4355 H   0  0  0  0  0  0
  -32.2503  -17.0854   19.9611 H   0  0  0  0  0  0
  -29.4917  -16.8615   17.7312 H   0  0  0  0  0  0
  -28.5282  -15.5920   18.3636 H   0  0  0  0  0  0
  -30.1108  -15.2529   17.6432 H   0  0  0  0  0  0
  -29.1274  -21.7080   22.2359 H   0  0  0  0  0  0
  -27.4935  -21.4506   21.7643 H   0  0  0  0  0  0
  -26.3873  -20.4215   20.0887 H   0  0  0  0  0  0
  -26.0004  -18.7581   19.8024 H   0  0  0  0  0  0
  -28.0610  -22.3147   19.4202 H   0  0  0  0  0  0
  -29.7047  -22.5528   19.9348 H   0  0  0  0  0  0
  -28.9284  -24.2844   21.6115 H   0  0  0  0  0  0
  -27.2822  -24.0506   21.1148 H   0  0  0  0  0  0
  -27.8452  -25.0146   18.8202 H   0  0  0  0  0  0
  -29.4865  -25.1052   19.2895 H   0  0  0  0  0  0
  1 25  1  0  0  0
  1 30  2  0  0  0
  1 83  1  0  0  0
  2  3  1  0  0  0
  2 25  1  0  0  0
  2 86  1  0  0  0
  2 87  1  0  0  0
  3  4  1  0  0  0
  3 88  1  0  0  0
  3 89  1  0  0  0
  4  5  1  0  0  0
  4 90  1  0  0  0
  4 91  1  0  0  0
  5  6  1  0  0  0
  5 26  1  0  0  0
  5 92  1  0  0  0
  6 25  1  0  0  0
  6 93  1  0  0  0
  6 94  1  0  0  0
  7  8  2  0  0  0
  7 26  1  0  0  0
  7 29  1  0  0  0
  8  9  1  0  0  0
  8 22  1  0  0  0
  9 10  1  0  0  0
  9 27  2  0  0  0
 10 11  2  0  0  0
 10 15  1  0  0  0
 11 12  1  0  0  0
 11 95  1  0  0  0
 12 13  2  0  0  0
 12 96  1  0  0  0
 13 14  1  0  0  0
 13 31  1  0  0  0
 14 15  2  0  0  0
 14 97  1  0  0  0
 15 98  1  0  0  0
 16 17  2  0  0  0
 16 21  1  0  0  0
 16 31  1  0  0  0
 17 18  1  0  0  0
 17 99  1  0  0  0
 18 19  2  0  0  0
 18100  1  0  0  0
 19 20  1  0  0  0
 19 24  1  0  0  0
 20 21  2  0  0  0
 20101  1  0  0  0
 21 23  1  0  0  0
 22 28  1  0  0  0
 22 32  2  0  0  0
 26 27  1  0  0  0
 28102  1  0  0  0
 28103  1  0  0  0
 29104  1  0  0  0
 29105  1  0  0  0
 33 34  1  0  0  0
 33 66  1  0  0  0
 33 70  2  0  0  0
 34 36  1  0  0  0
 34 59  1  0  0  0
 34106  1  0  0  0
 35 44  2  0  0  0
 35 45  1  0  0  0
 35 68  1  0  0  0
 36 56  1  0  0  0
 36107  1  0  0  0
 37 39  1  0  0  0
 37 47  1  0  0  0
 37 66  1  0  0  0
 37108  1  0  0  0
 38 43  2  0  0  0
 38 46  1  0  0  0
 38 47  1  0  0  0
 39 64  1  0  0  0
 39 67  2  0  0  0
 40 52  1  0  0  0
 40 53  2  0  0  0
 40 58  1  0  0  0
 41109  1  0  0  0
 41110  1  0  0  0
 41111  1  0  0  0
 41 48  1  0  0  0
 42 43  1  0  0  0
 42 66  1  0  0  0
 42112  1  0  0  0
 42113  1  0  0  0
 43 44  1  0  0  0
 44114  1  0  0  0
 45 46  2  0  0  0
 45115  1  0  0  0
 46116  1  0  0  0
 47117  1  0  0  0
 47118  1  0  0  0
 48 56  1  0  0  0
 48 65  1  0  0  0
 48119  1  0  0  0
 49 50  1  0  0  0
 49 53  1  0  0  0
 49 64  1  0  0  0
 49120  1  0  0  0
 50 51  1  0  0  0
 50121  1  0  0  0
 50122  1  0  0  0
 51 52  1  0  0  0
 51123  1  0  0  0
 51124  1  0  0  0
 52125  1  0  0  0
 52126  1  0  0  0
 53 54  1  0  0  0
 54 55  2  0  0  0
 54127  1  0  0  0
 55 57  1  0  0  0
 55128  1  0  0  0
 56 69  2  0  0  0
 57 58  2  0  0  0
 57129  1  0  0  0
 58130  1  0  0  0
 59 60  1  0  0  0
 59 61  1  0  0  0
 59 62  1  0  0  0
 60131  1  0  0  0
 60132  1  0  0  0
 60133  1  0  0  0
 61134  1  0  0  0
 61135  1  0  0  0
 61136  1  0  0  0
 62137  1  0  0  0
 62138  1  0  0  0
 62139  1  0  0  0
 63 65  1  0  0  0
 63140  1  0  0  0
 63141  1  0  0  0
 63142  1  0  0  0
 64143  1  0  0  0
 65144  1  0  0  0
 68 82  1  0  0  0
 71 72  2  0  0  0
 71 84  1  0  0  0
 71145  1  0  0  0
 72 73  1  0  0  0
 72 78  1  0  0  0
 73 79  1  0  0  0
 73 85  2  0  0  0
 74 83  1  0  0  0
 74 84  2  0  0  0
 74 85  1  0  0  0
 75 79  1  0  0  0
 75146  1  0  0  0
 75147  1  0  0  0
 75148  1  0  0  0
 76149  1  0  0  0
 76150  1  0  0  0
 76151  1  0  0  0
 76 83  1  0  0  0
 77 83  1  0  0  0
 77152  1  0  0  0
 77153  1  0  0  0
 77154  1  0  0  0
 78 80  1  0  0  0
 78155  1  0  0  0
 78156  1  0  0  0
 79157  1  0  0  0
 79158  1  0  0  0
 80 81  1  0  0  0
 80159  1  0  0  0
 80160  1  0  0  0
 81 82  1  0  0  0
 81161  1  0  0  0
 81162  1  0  0  0
 82163  1  0  0  0
 82164  1  0  0  0
M  ISO  4   1 100  68 101  82 101  83 100
M  END
> <chiral flag>
0

> <version>
0

> <s_m_source_file>
/data/baiqing/PycharmProjects/Reinvent-master-3.2/result/LINK_invent/BTK/process_docking_weight1_custom_sum_contain_oxygen_bond_distance_aromatic_linkinvent_7_9_3/rearranged_h_0065.sdf

> <i_m_source_file_index>
11

> <r_mmod_Potential_Energy-OPLS-2005>
-77.6790390014648

> <r_mmod_Stretch_Energy-OPLS-2005>
84.9202651977539

> <r_mmod_Bend_Energy-OPLS-2005>
191.193161010742

> <r_mmod_Torsional_Energy-OPLS-2005>
231.301177978516

> <r_mmod_Improper_Torsional_Energy-OPLS-2005>
22.5035858154297

> <r_mmod_Van_der_Waal_Energy-OPLS-2005>
165.627639770508

> <r_mmod_Electrostatic_Energy-OPLS-2005>
-667.759704589844

> <r_mmod_Solvation_Energy-OPLS-2005>
-195.760482788086

> <b_mmod_Minimization_Converged-OPLS-2005>
0

> <r_mmod_RMS_Derivative-OPLS-2005>
2.68506240844727

$$$$
13
                    3D
 Structure written by MMmdl.
159168  0  0  1  0            999 V2000
  -30.5605  -14.9688   20.3580 C   0  0  0  0  0  0
  -30.4349  -12.5830   19.5052 C   0  0  0  0  0  0
  -29.5271  -12.4726   18.2590 C   0  0  0  0  0  0
  -28.0544  -12.2871   18.6730 C   0  0  0  0  0  0
  -27.6219  -13.2381   19.8205 C   0  0  2  0  0  0
  -28.6644  -13.3323   20.9492 C   0  0  0  0  0  0
  -25.2501  -13.8206   20.5749 C   0  0  0  0  0  0
  -24.1779  -13.0451   20.9208 C   0  0  0  0  0  0
  -24.6354  -11.6927   20.8710 C   0  0  0  0  0  0
  -23.9023  -10.4309   21.0381 C   0  0  0  0  0  0
  -24.3600   -9.4245   21.9166 C   0  0  0  0  0  0
  -23.6304   -8.2264   22.0753 C   0  0  0  0  0  0
  -22.4289   -8.0272   21.3546 C   0  0  0  0  0  0
  -21.9896   -9.0236   20.4657 C   0  0  0  0  0  0
  -22.7190  -10.2132   20.3048 C   0  0  0  0  0  0
  -21.6872   -6.0725   22.5274 C   0  0  0  0  0  0
  -21.4033   -6.5629   23.8207 C   0  0  0  0  0  0
  -21.3665   -5.6777   24.9165 C   0  0  0  0  0  0
  -21.6053   -4.3036   24.7210 C   0  0  0  0  0  0
  -21.8819   -3.8133   23.4317 C   0  0  0  0  0  0
  -21.9204   -4.6958   22.3386 C   0  0  0  0  0  0
  -22.7802  -13.5248   21.1849 C   0  0  0  0  0  0
  -22.1669   -4.2139   21.0966 F   0  0  0  0  0  0
  -21.5634   -3.4527   25.7729 F   0  0  0  0  0  0
  -29.9402  -13.7173   20.3408 N   0  0  0  0  0  0
  -26.2870  -12.9395   20.3208 N   0  0  0  0  0  0
  -25.9282  -11.6540   20.5694 N   0  0  0  0  0  0
  -22.0431  -12.8251   22.0389 N   0  0  0  0  0  0
  -25.4251  -15.1936   20.4306 N   0  0  0  0  0  0
  -31.7854  -14.9469   20.1888 O   0  0  0  0  0  0
  -21.6666   -6.8863   21.4229 O   0  0  0  0  0  0
  -22.3500  -14.5550   20.6678 O   0  0  0  0  0  0
  -24.6413  -31.8427   23.1871 C   0  0  0  0  0  0
  -25.9192  -32.4687   23.8237 C   0  0  1  0  0  0
  -27.2246  -27.1340   20.1745 C   0  0  0  0  0  0
  -25.5956  -33.8488   24.2163 N   0  0  0  0  0  0
  -23.4447  -30.4591   21.5318 C   0  0  2  0  0  0
  -24.8961  -28.8742   20.1170 C   0  0  0  0  0  0
  -22.7560  -29.4534   22.4866 C   0  0  0  0  0  0
  -18.0310  -28.1412   22.8482 C   0  0  0  0  0  0
  -24.1490  -36.7245   23.2637 C   0  0  0  0  0  0
  -25.9974  -30.7147   21.3876 C   0  0  0  0  0  0
  -26.0675  -29.3209   20.7402 C   0  0  0  0  0  0
  -27.2289  -28.4658   20.7554 C   0  0  0  0  0  0
  -26.0301  -26.7819   19.5112 C   0  0  0  0  0  0
  -24.8880  -27.6163   19.4900 C   0  0  0  0  0  0
  -23.6743  -29.7811   20.1521 C   0  0  0  0  0  0
  -25.4127  -36.3019   24.0308 C   0  0  1  0  0  0
  -20.5917  -28.3728   23.1250 C   0  0  2  0  0  0
  -20.6797  -26.9432   22.5420 C   0  0  0  0  0  0
  -19.5770  -26.6388   21.5222 C   0  0  0  0  0  0
  -18.1951  -26.7951   22.1629 C   0  0  0  0  0  0
  -19.1564  -28.8894   23.2856 C   0  0  0  0  0  0
  -18.9480  -30.1493   23.8870 C   0  0  0  0  0  0
  -17.6474  -30.6599   24.0573 C   0  0  0  0  0  0
  -25.9077  -34.9406   23.5043 C   0  0  0  0  0  0
  -16.5368  -29.9096   23.6343 C   0  0  0  0  0  0
  -16.7294  -28.6530   23.0341 C   0  0  0  0  0  0
  -26.4521  -31.6557   25.0678 C   0  0  0  0  0  0
  -25.3698  -31.3769   26.1368 C   0  0  0  0  0  0
  -27.0399  -30.2956   24.6269 C   0  0  0  0  0  0
  -27.6042  -32.4330   25.7475 C   0  0  0  0  0  0
  -27.5580  -37.1774   24.8464 C   0  0  0  0  0  0
  -21.4257  -29.3039   22.3617 N   0  0  0  0  0  0
  -26.4285  -37.3742   23.9413 N   0  0  0  0  0  0
  -24.7131  -31.0279   22.0906 N   0  0  0  0  0  0
  -23.4208  -28.8081   23.3015 O   0  0  0  0  0  0
  -28.3283  -26.2106   20.1733 O   0  0  0  0  0  0
  -26.5663  -34.8905   22.4617 O   0  0  0  0  0  0
  -23.5538  -32.1309   23.7102 O   0  0  0  0  0  0
  -27.8788  -22.4629   21.2568 C   0  0  0  0  0  0
  -30.2348  -17.5938   21.0782 C   0  0  0  0  0  0
  -27.5747  -23.8835   21.1356 C   0  0  0  0  0  0
  -29.8655  -16.4398   20.3572 C   0  0  0  0  0  0
  -28.9735  -21.8235   20.5701 C   0  0  0  0  0  0
  -29.5471  -18.8123   20.5710 C   0  0  0  0  0  0
  -28.3409  -24.7395   20.2753 C   0  0  0  0  0  0
  -26.4890  -24.4755   22.0145 C   0  0  0  0  0  0
  -29.4253  -20.3053   22.5848 C   0  0  0  0  0  0
  -31.2279  -20.6510   20.9470 C   0  0  0  0  0  0
  -28.4328  -16.4040   18.2129 C   0  0  0  0  0  0
  -29.7068  -20.3918   21.0662 C   0  0  0  0  0  0
  -29.6355  -22.7139   19.7355 N   0  0  0  0  0  0
  -28.7951  -18.3766   19.5566 N   0  0  0  0  0  0
  -29.3447  -24.0593   19.6034 N   0  0  0  0  0  0
  -29.0155  -17.0100   19.3950 N   0  0  0  0  0  0
  -31.4725  -12.7167   19.1918 H   0  0  0  0  0  0
  -30.4193  -11.6517   20.0744 H   0  0  0  0  0  0
  -29.8430  -11.6271   17.6457 H   0  0  0  0  0  0
  -29.6389  -13.3543   17.6280 H   0  0  0  0  0  0
  -27.9415  -11.2514   18.9987 H   0  0  0  0  0  0
  -27.3987  -12.4026   17.8091 H   0  0  0  0  0  0
  -27.5602  -14.2205   19.3672 H   0  0  0  0  0  0
  -28.7529  -12.3890   21.4891 H   0  0  0  0  0  0
  -28.3648  -14.0868   21.6785 H   0  0  0  0  0  0
  -25.2749   -9.5770   22.4733 H   0  0  0  0  0  0
  -24.0050   -7.4676   22.7476 H   0  0  0  0  0  0
  -21.0826   -8.8718   19.8980 H   0  0  0  0  0  0
  -22.3610  -10.9656   19.6164 H   0  0  0  0  0  0
  -21.2024   -7.6139   23.9712 H   0  0  0  0  0  0
  -21.1500   -6.0499   25.9069 H   0  0  0  0  0  0
  -22.0593   -2.7592   23.2814 H   0  0  0  0  0  0
  -22.4048  -11.9923   22.4795 H   0  0  0  0  0  0
  -21.1044  -13.1300   22.2569 H   0  0  0  0  0  0
  -24.6707  -15.8534   20.5884 H   0  0  0  0  0  0
  -26.2942  -15.6439   20.1761 H   0  0  0  0  0  0
  -26.7253  -32.5296   23.0953 H   0  0  0  0  0  0
  -25.0092  -33.9597   25.0309 H   0  0  0  0  0  0
  -22.7467  -31.2845   21.3746 H   0  0  0  0  0  0
  -23.3753  -35.9574   23.3293 H   0  0  0  0  0  0
  -24.3575  -36.8887   22.2053 H   0  0  0  0  0  0
  -23.7253  -37.6439   23.6682 H   0  0  0  0  0  0
  -26.1516  -31.4640   20.6099 H   0  0  0  0  0  0
  -26.8688  -30.7683   22.0289 H   0  0  0  0  0  0
  -28.1246  -28.8086   21.2533 H   0  0  0  0  0  0
  -25.9647  -25.8175   19.0271 H   0  0  0  0  0  0
  -23.9933  -27.2674   18.9924 H   0  0  0  0  0  0
  -23.8218  -30.5538   19.3967 H   0  0  0  0  0  0
  -22.7880  -29.2280   19.8352 H   0  0  0  0  0  0
  -25.1320  -36.1824   25.0802 H   0  0  0  0  0  0
  -21.0005  -28.3313   24.1372 H   0  0  0  0  0  0
  -20.5700  -26.2330   23.3630 H   0  0  0  0  0  0
  -21.6660  -26.7447   22.1206 H   0  0  0  0  0  0
  -19.6920  -25.6287   21.1272 H   0  0  0  0  0  0
  -19.6712  -27.3186   20.6738 H   0  0  0  0  0  0
  -17.4217  -26.6697   21.4032 H   0  0  0  0  0  0
  -18.0348  -26.0110   22.9045 H   0  0  0  0  0  0
  -19.7957  -30.7327   24.2206 H   0  0  0  0  0  0
  -17.5032  -31.6270   24.5192 H   0  0  0  0  0  0
  -15.5370  -30.2988   23.7688 H   0  0  0  0  0  0
  -15.8699  -28.0849   22.7038 H   0  0  0  0  0  0
  -24.5880  -30.7114   25.7683 H   0  0  0  0  0  0
  -24.8882  -32.2971   26.4690 H   0  0  0  0  0  0
  -25.7963  -30.9002   27.0204 H   0  0  0  0  0  0
  -26.3022  -29.6667   24.1272 H   0  0  0  0  0  0
  -27.4018  -29.7263   25.4840 H   0  0  0  0  0  0
  -27.8923  -30.4197   23.9586 H   0  0  0  0  0  0
  -27.2615  -33.3651   26.1981 H   0  0  0  0  0  0
  -28.3890  -32.6862   25.0332 H   0  0  0  0  0  0
  -28.0663  -31.8502   26.5454 H   0  0  0  0  0  0
  -28.2567  -38.0097   24.7531 H   0  0  0  0  0  0
  -28.1104  -36.2629   24.6260 H   0  0  0  0  0  0
  -27.2303  -37.1386   25.8866 H   0  0  0  0  0  0
  -20.9463  -29.8745   21.6797 H   0  0  0  0  0  0
  -26.0139  -38.2798   24.1437 H   0  0  0  0  0  0
  -27.3139  -21.8839   21.9716 H   0  0  0  0  0  0
  -30.9670  -17.5857   21.8715 H   0  0  0  0  0  0
  -26.8512  -25.3755   22.5124 H   0  0  0  0  0  0
  -26.1710  -23.7741   22.7854 H   0  0  0  0  0  0
  -25.6148  -24.7387   21.4205 H   0  0  0  0  0  0
  -28.3809  -20.0567   22.7759 H   0  0  0  0  0  0
  -29.6460  -21.2424   23.0976 H   0  0  0  0  0  0
  -30.0252  -19.5337   23.0683 H   0  0  0  0  0  0
  -31.5356  -20.6819   19.9025 H   0  0  0  0  0  0
  -31.8155  -19.8690   21.4278 H   0  0  0  0  0  0
  -31.5214  -21.5961   21.4049 H   0  0  0  0  0  0
  -28.5488  -17.0688   17.3571 H   0  0  0  0  0  0
  -27.3691  -16.2254   18.3652 H   0  0  0  0  0  0
  -28.9336  -15.4679   17.9792 H   0  0  0  0  0  0
  1 25  1  0  0  0
  1 30  2  0  0  0
  1 74  1  0  0  0
  2  3  1  0  0  0
  2 25  1  0  0  0
  2 87  1  0  0  0
  2 88  1  0  0  0
  3  4  1  0  0  0
  3 89  1  0  0  0
  3 90  1  0  0  0
  4  5  1  0  0  0
  4 91  1  0  0  0
  4 92  1  0  0  0
  5  6  1  0  0  0
  5 26  1  0  0  0
  5 93  1  0  0  0
  6 25  1  0  0  0
  6 94  1  0  0  0
  6 95  1  0  0  0
  7  8  2  0  0  0
  7 26  1  0  0  0
  7 29  1  0  0  0
  8  9  1  0  0  0
  8 22  1  0  0  0
  9 10  1  0  0  0
  9 27  2  0  0  0
 10 11  2  0  0  0
 10 15  1  0  0  0
 11 12  1  0  0  0
 11 96  1  0  0  0
 12 13  2  0  0  0
 12 97  1  0  0  0
 13 14  1  0  0  0
 13 31  1  0  0  0
 14 15  2  0  0  0
 14 98  1  0  0  0
 15 99  1  0  0  0
 16 17  2  0  0  0
 16 21  1  0  0  0
 16 31  1  0  0  0
 17 18  1  0  0  0
 17100  1  0  0  0
 18 19  2  0  0  0
 18101  1  0  0  0
 19 20  1  0  0  0
 19 24  1  0  0  0
 20 21  2  0  0  0
 20102  1  0  0  0
 21 23  1  0  0  0
 22 28  1  0  0  0
 22 32  2  0  0  0
 26 27  1  0  0  0
 28103  1  0  0  0
 28104  1  0  0  0
 29105  1  0  0  0
 29106  1  0  0  0
 33 34  1  0  0  0
 33 66  1  0  0  0
 33 70  2  0  0  0
 34 36  1  0  0  0
 34 59  1  0  0  0
 34107  1  0  0  0
 35 44  2  0  0  0
 35 45  1  0  0  0
 35 68  1  0  0  0
 36 56  1  0  0  0
 36108  1  0  0  0
 37 39  1  0  0  0
 37 47  1  0  0  0
 37 66  1  0  0  0
 37109  1  0  0  0
 38 43  2  0  0  0
 38 46  1  0  0  0
 38 47  1  0  0  0
 39 64  1  0  0  0
 39 67  2  0  0  0
 40 52  1  0  0  0
 40 53  2  0  0  0
 40 58  1  0  0  0
 41110  1  0  0  0
 41111  1  0  0  0
 41112  1  0  0  0
 41 48  1  0  0  0
 42 43  1  0  0  0
 42 66  1  0  0  0
 42113  1  0  0  0
 42114  1  0  0  0
 43 44  1  0  0  0
 44115  1  0  0  0
 45 46  2  0  0  0
 45116  1  0  0  0
 46117  1  0  0  0
 47118  1  0  0  0
 47119  1  0  0  0
 48 56  1  0  0  0
 48 65  1  0  0  0
 48120  1  0  0  0
 49 50  1  0  0  0
 49 53  1  0  0  0
 49 64  1  0  0  0
 49121  1  0  0  0
 50 51  1  0  0  0
 50122  1  0  0  0
 50123  1  0  0  0
 51 52  1  0  0  0
 51124  1  0  0  0
 51125  1  0  0  0
 52126  1  0  0  0
 52127  1  0  0  0
 53 54  1  0  0  0
 54 55  2  0  0  0
 54128  1  0  0  0
 55 57  1  0  0  0
 55129  1  0  0  0
 56 69  2  0  0  0
 57 58  2  0  0  0
 57130  1  0  0  0
 58131  1  0  0  0
 59 60  1  0  0  0
 59 61  1  0  0  0
 59 62  1  0  0  0
 60132  1  0  0  0
 60133  1  0  0  0
 60134  1  0  0  0
 61135  1  0  0  0
 61136  1  0  0  0
 61137  1  0  0  0
 62138  1  0  0  0
 62139  1  0  0  0
 62140  1  0  0  0
 63 65  1  0  0  0
 63141  1  0  0  0
 63142  1  0  0  0
 63143  1  0  0  0
 64144  1  0  0  0
 65145  1  0  0  0
 68 77  1  0  0  0
 71 73  2  0  0  0
 71 75  1  0  0  0
 71146  1  0  0  0
 72 74  2  0  0  0
 72 76  1  0  0  0
 72147  1  0  0  0
 73 77  1  0  0  0
 73 78  1  0  0  0
 74 86  1  0  0  0
 75 82  1  0  0  0
 75 83  2  0  0  0
 76 82  1  0  0  0
 76 84  2  0  0  0
 77 85  2  0  0  0
 78148  1  0  0  0
 78149  1  0  0  0
 78150  1  0  0  0
 79151  1  0  0  0
 79152  1  0  0  0
 79153  1  0  0  0
 79 82  1  0  0  0
 80 82  1  0  0  0
 80154  1  0  0  0
 80155  1  0  0  0
 80156  1  0  0  0
 81 86  1  0  0  0
 81157  1  0  0  0
 81158  1  0  0  0
 81159  1  0  0  0
 83 85  1  0  0  0
 84 86  1  0  0  0
M  ISO  4   1 100  68 101  74 100  77 101
M  END
> <chiral flag>
0

> <version>
0

> <s_m_source_file>
/data/baiqing/PycharmProjects/Reinvent-master-3.2/result/LINK_invent/BTK/process_docking_weight1_custom_sum_contain_oxygen_bond_distance_aromatic_linkinvent_7_9_3/rearranged_h_0065.sdf

> <i_m_source_file_index>
12

> <r_mmod_Potential_Energy-OPLS-2005>
701.469665527344

> <r_mmod_Stretch_Energy-OPLS-2005>
240.791046142578

> <r_mmod_Bend_Energy-OPLS-2005>
302.637084960938

> <r_mmod_Torsional_Energy-OPLS-2005>
243.885101318359

> <r_mmod_Improper_Torsional_Energy-OPLS-2005>
11.302544593811

> <r_mmod_Van_der_Waal_Energy-OPLS-2005>
124.876953125

> <r_mmod_Electrostatic_Energy-OPLS-2005>
-196.448104858398

> <r_mmod_Solvation_Energy-OPLS-2005>
-221.042373657227

> <b_mmod_Minimization_Converged-OPLS-2005>
0

> <r_mmod_RMS_Derivative-OPLS-2005>
2.57042002677917

$$$$
14
                    3D
 Structure written by MMmdl.
175183  0  0  1  0            999 V2000
  -30.6673  -14.5400   20.5271 C   0  0  0  0  0  0
  -30.4219  -12.3366   19.4390 C   0  0  0  0  0  0
  -29.4979  -12.5048   18.2144 C   0  0  0  0  0  0
  -28.0180  -12.3591   18.6232 C   0  0  0  0  0  0
  -27.6531  -13.2157   19.8647 C   0  0  2  0  0  0
  -28.6963  -13.0409   20.9909 C   0  0  0  0  0  0
  -25.2551  -13.8179   20.5686 C   0  0  0  0  0  0
  -24.1822  -13.0444   20.9171 C   0  0  0  0  0  0
  -24.6395  -11.6914   20.8740 C   0  0  0  0  0  0
  -23.9069  -10.4300   21.0410 C   0  0  0  0  0  0
  -24.3621   -9.4215   21.9191 C   0  0  0  0  0  0
  -23.6292   -8.2244   22.0759 C   0  0  0  0  0  0
  -22.4275   -8.0285   21.3549 C   0  0  0  0  0  0
  -21.9912   -9.0261   20.4647 C   0  0  0  0  0  0
  -22.7238  -10.2138   20.3060 C   0  0  0  0  0  0
  -21.6857   -6.0742   22.5278 C   0  0  0  0  0  0
  -21.4013   -6.5641   23.8214 C   0  0  0  0  0  0
  -21.3653   -5.6791   24.9175 C   0  0  0  0  0  0
  -21.6047   -4.3057   24.7220 C   0  0  0  0  0  0
  -21.8817   -3.8150   23.4345 C   0  0  0  0  0  0
  -21.9186   -4.6968   22.3402 C   0  0  0  0  0  0
  -22.7843  -13.5228   21.1856 C   0  0  0  0  0  0
  -22.1658   -4.2160   21.0981 F   0  0  0  0  0  0
  -21.5622   -3.4543   25.7732 F   0  0  0  0  0  0
  -30.0191  -13.3454   20.4317 N   0  0  0  0  0  0
  -26.2990  -12.9369   20.3328 N   0  0  0  0  0  0
  -25.9322  -11.6523   20.5760 N   0  0  0  0  0  0
  -22.0484  -12.8222   22.0410 N   0  0  0  0  0  0
  -25.4264  -15.1899   20.4114 N   0  0  0  0  0  0
  -31.8226  -14.6673   20.1120 O   0  0  0  0  0  0
  -21.6637   -6.8888   21.4247 O   0  0  0  0  0  0
  -22.3520  -14.5538   20.6710 O   0  0  0  0  0  0
  -24.6150  -31.8653   23.2069 C   0  0  0  0  0  0
  -25.9021  -32.4812   23.8373 C   0  0  1  0  0  0
  -27.2226  -27.3932   20.0743 C   0  0  0  0  0  0
  -25.5852  -33.8615   24.2297 N   0  0  0  0  0  0
  -23.4037  -30.4868   21.5506 C   0  0  2  0  0  0
  -24.8464  -28.9512   20.1040 C   0  0  0  0  0  0
  -22.7415  -29.4622   22.5002 C   0  0  0  0  0  0
  -18.0269  -28.1397   22.8487 C   0  0  0  0  0  0
  -24.1483  -36.7325   23.2641 C   0  0  0  0  0  0
  -25.9339  -30.8112   21.3668 C   0  0  0  0  0  0
  -26.0057  -29.4421   20.7144 C   0  0  0  0  0  0
  -27.1911  -28.6644   20.7062 C   0  0  0  0  0  0
  -26.0451  -26.9301   19.4501 C   0  0  0  0  0  0
  -24.8639  -27.6983   19.4676 C   0  0  0  0  0  0
  -23.6084  -29.8201   20.1642 C   0  0  0  0  0  0
  -25.4113  -36.3131   24.0344 C   0  0  1  0  0  0
  -20.5864  -28.3661   23.1357 C   0  0  2  0  0  0
  -20.6763  -26.9400   22.5449 C   0  0  0  0  0  0
  -19.5747  -26.6395   21.5232 C   0  0  0  0  0  0
  -18.1916  -26.7934   22.1629 C   0  0  0  0  0  0
  -19.1525  -28.8846   23.2903 C   0  0  0  0  0  0
  -18.9443  -30.1451   23.8917 C   0  0  0  0  0  0
  -17.6456  -30.6598   24.0574 C   0  0  0  0  0  0
  -25.9042  -34.9488   23.5143 C   0  0  0  0  0  0
  -16.5348  -29.9105   23.6346 C   0  0  0  0  0  0
  -16.7265  -28.6534   23.0349 C   0  0  0  0  0  0
  -26.4442  -31.6594   25.0702 C   0  0  0  0  0  0
  -25.3685  -31.3691   26.1441 C   0  0  0  0  0  0
  -27.0262  -30.3054   24.6042 C   0  0  0  0  0  0
  -27.6034  -32.4312   25.7444 C   0  0  0  0  0  0
  -27.5585  -37.1807   24.8464 C   0  0  0  0  0  0
  -21.4145  -29.3010   22.3756 N   0  0  0  0  0  0
  -26.4305  -37.3805   23.9405 N   0  0  0  0  0  0
  -24.6701  -31.0692   22.1007 N   0  0  0  0  0  0
  -23.4180  -28.8180   23.3068 O   0  0  0  0  0  0
  -28.4006  -26.6617   20.0996 O   0  0  0  0  0  0
  -26.5637  -34.8932   22.4722 O   0  0  0  0  0  0
  -23.5340  -32.1450   23.7445 O   0  0  0  0  0  0
  -30.5038  -19.0584   21.7087 C   0  0  0  0  0  0
  -29.9550  -20.3015   21.9027 C   0  0  0  0  0  0
  -28.9979  -20.4067   20.8335 C   0  0  0  0  0  0
  -32.1920  -22.3875   21.5932 C   0  0  0  0  0  0
  -30.2884  -16.0506   22.5081 C   0  0  0  0  0  0
  -29.5440  -16.9150   18.6969 C   0  0  0  0  0  0
  -31.3399  -20.6046   23.9942 C   0  0  0  0  0  0
  -29.0808  -21.6133   23.8660 C   0  0  0  0  0  0
  -28.0168  -21.5375   20.5024 C   0  0  0  0  0  0
  -30.9529  -22.5759   22.4874 C   0  0  0  0  0  0
  -28.5752  -22.7698   19.7224 C   0  0  0  0  0  0
  -27.9702  -24.1439   20.1680 C   0  0  0  0  0  0
  -28.5311  -25.3896   19.4205 C   0  0  0  0  0  0
  -29.9338  -15.8354   21.0218 C   0  0  1  0  0  0
  -30.1970  -17.0932   20.0861 C   0  0  2  0  0  0
  -30.3272  -21.2679   23.0311 C   0  0  0  0  0  0
  -28.9729  -19.2851   20.1031 N   0  0  0  0  0  0
  -29.8820  -18.4296   20.6567 N   0  0  0  0  0  0
  -31.4676  -12.4352   19.1423 H   0  0  0  0  0  0
  -30.3238  -11.3371   19.8638 H   0  0  0  0  0  0
  -29.7488  -11.7688   17.4503 H   0  0  0  0  0  0
  -29.6570  -13.4845   17.7604 H   0  0  0  0  0  0
  -27.8371  -11.3052   18.8354 H   0  0  0  0  0  0
  -27.3675  -12.6153   17.7855 H   0  0  0  0  0  0
  -27.6797  -14.2554   19.5390 H   0  0  0  0  0  0
  -28.6830  -12.0174   21.3675 H   0  0  0  0  0  0
  -28.4587  -13.6707   21.8493 H   0  0  0  0  0  0
  -25.2766   -9.5681   22.4768 H   0  0  0  0  0  0
  -23.9998   -7.4636   22.7483 H   0  0  0  0  0  0
  -21.0844   -8.8786   19.8954 H   0  0  0  0  0  0
  -22.3711  -10.9681   19.6170 H   0  0  0  0  0  0
  -21.2019   -7.6149   23.9722 H   0  0  0  0  0  0
  -21.1473   -6.0521   25.9075 H   0  0  0  0  0  0
  -22.0598   -2.7616   23.2839 H   0  0  0  0  0  0
  -22.4096  -11.9862   22.4771 H   0  0  0  0  0  0
  -21.1119  -13.1269   22.2664 H   0  0  0  0  0  0
  -24.6614  -15.8463   20.5255 H   0  0  0  0  0  0
  -26.2861  -15.6338   20.1138 H   0  0  0  0  0  0
  -26.7055  -32.5523   23.1103 H   0  0  0  0  0  0
  -24.9880  -33.9762   25.0361 H   0  0  0  0  0  0
  -22.6928  -31.3054   21.4132 H   0  0  0  0  0  0
  -23.3750  -35.9647   23.3340 H   0  0  0  0  0  0
  -24.3549  -36.8933   22.2044 H   0  0  0  0  0  0
  -23.7241  -37.6539   23.6648 H   0  0  0  0  0  0
  -26.0388  -31.5681   20.5888 H   0  0  0  0  0  0
  -26.8252  -30.8769   21.9787 H   0  0  0  0  0  0
  -28.0842  -29.0295   21.1913 H   0  0  0  0  0  0
  -26.0146  -25.9795   18.9371 H   0  0  0  0  0  0
  -23.9767  -27.3257   18.9734 H   0  0  0  0  0  0
  -23.7019  -30.5950   19.4019 H   0  0  0  0  0  0
  -22.7291  -29.2377   19.8807 H   0  0  0  0  0  0
  -25.1283  -36.2001   25.0836 H   0  0  0  0  0  0
  -20.9933  -28.3229   24.1488 H   0  0  0  0  0  0
  -20.5723  -26.2240   23.3619 H   0  0  0  0  0  0
  -21.6619  -26.7486   22.1198 H   0  0  0  0  0  0
  -19.6935  -25.6313   21.1246 H   0  0  0  0  0  0
  -19.6719  -27.3218   20.6773 H   0  0  0  0  0  0
  -17.4189  -26.6687   21.4023 H   0  0  0  0  0  0
  -18.0312  -26.0082   22.9036 H   0  0  0  0  0  0
  -19.7918  -30.7247   24.2294 H   0  0  0  0  0  0
  -17.5016  -31.6280   24.5163 H   0  0  0  0  0  0
  -15.5353  -30.3014   23.7668 H   0  0  0  0  0  0
  -15.8653  -28.0870   22.7059 H   0  0  0  0  0  0
  -24.5883  -30.7029   25.7761 H   0  0  0  0  0  0
  -24.8814  -32.2812   26.4884 H   0  0  0  0  0  0
  -25.7999  -30.8860   27.0209 H   0  0  0  0  0  0
  -26.2782  -29.6838   24.1116 H   0  0  0  0  0  0
  -27.4089  -29.7279   25.4456 H   0  0  0  0  0  0
  -27.8585  -30.4408   23.9138 H   0  0  0  0  0  0
  -27.2693  -33.3635   26.2012 H   0  0  0  0  0  0
  -28.3821  -32.6854   25.0235 H   0  0  0  0  0  0
  -28.0703  -31.8425   26.5348 H   0  0  0  0  0  0
  -28.2621  -38.0090   24.7520 H   0  0  0  0  0  0
  -28.1078  -36.2632   24.6298 H   0  0  0  0  0  0
  -27.2288  -37.1466   25.8863 H   0  0  0  0  0  0
  -20.9320  -29.8708   21.6945 H   0  0  0  0  0  0
  -26.0231  -38.2900   24.1396 H   0  0  0  0  0  0
  -31.2847  -18.5560   22.2585 H   0  0  0  0  0  0
  -32.4948  -23.3375   21.1524 H   0  0  0  0  0  0
  -32.0110  -21.6914   20.7728 H   0  0  0  0  0  0
  -33.0400  -22.0149   22.1685 H   0  0  0  0  0  0
  -29.6547  -16.8098   22.9666 H   0  0  0  0  0  0
  -31.3310  -16.3454   22.6319 H   0  0  0  0  0  0
  -30.1443  -15.1389   23.0884 H   0  0  0  0  0  0
  -29.8673  -15.9974   18.2067 H   0  0  0  0  0  0
  -29.8071  -17.7405   18.0338 H   0  0  0  0  0  0
  -28.4571  -16.8870   18.7775 H   0  0  0  0  0  0
  -30.9219  -19.7139   24.4660 H   0  0  0  0  0  0
  -31.6365  -21.2832   24.7945 H   0  0  0  0  0  0
  -32.2541  -20.3011   23.4836 H   0  0  0  0  0  0
  -28.5472  -20.7157   24.1836 H   0  0  0  0  0  0
  -28.3789  -22.2422   23.3251 H   0  0  0  0  0  0
  -29.3495  -22.1692   24.7647 H   0  0  0  0  0  0
  -27.5409  -21.8773   21.4171 H   0  0  0  0  0  0
  -27.1835  -21.1336   19.9242 H   0  0  0  0  0  0
  -30.2061  -23.1396   21.9342 H   0  0  0  0  0  0
  -31.2179  -23.2291   23.3201 H   0  0  0  0  0  0
  -28.4234  -22.6183   18.6526 H   0  0  0  0  0  0
  -29.6558  -22.8147   19.8458 H   0  0  0  0  0  0
  -28.1639  -24.2631   21.2332 H   0  0  0  0  0  0
  -26.8851  -24.1176   20.0590 H   0  0  0  0  0  0
  -28.1486  -25.4367   18.4002 H   0  0  0  0  0  0
  -29.6070  -25.2469   19.3092 H   0  0  0  0  0  0
  -28.8577  -15.6753   20.9857 H   0  0  0  0  0  0
  -31.2737  -17.1325   19.9084 H   0  0  0  0  0  0
  1 25  1  0  0  0
  1 30  2  0  0  0
  1 84  1  0  0  0
  2  3  1  0  0  0
  2 25  1  0  0  0
  2 89  1  0  0  0
  2 90  1  0  0  0
  3  4  1  0  0  0
  3 91  1  0  0  0
  3 92  1  0  0  0
  4  5  1  0  0  0
  4 93  1  0  0  0
  4 94  1  0  0  0
  5  6  1  0  0  0
  5 26  1  0  0  0
  5 95  1  0  0  0
  6 25  1  0  0  0
  6 96  1  0  0  0
  6 97  1  0  0  0
  7  8  2  0  0  0
  7 26  1  0  0  0
  7 29  1  0  0  0
  8  9  1  0  0  0
  8 22  1  0  0  0
  9 10  1  0  0  0
  9 27  2  0  0  0
 10 11  2  0  0  0
 10 15  1  0  0  0
 11 12  1  0  0  0
 11 98  1  0  0  0
 12 13  2  0  0  0
 12 99  1  0  0  0
 13 14  1  0  0  0
 13 31  1  0  0  0
 14 15  2  0  0  0
 14100  1  0  0  0
 15101  1  0  0  0
 16 17  2  0  0  0
 16 21  1  0  0  0
 16 31  1  0  0  0
 17 18  1  0  0  0
 17102  1  0  0  0
 18 19  2  0  0  0
 18103  1  0  0  0
 19 20  1  0  0  0
 19 24  1  0  0  0
 20 21  2  0  0  0
 20104  1  0  0  0
 21 23  1  0  0  0
 22 28  1  0  0  0
 22 32  2  0  0  0
 26 27  1  0  0  0
 28105  1  0  0  0
 28106  1  0  0  0
 29107  1  0  0  0
 29108  1  0  0  0
 33 34  1  0  0  0
 33 66  1  0  0  0
 33 70  2  0  0  0
 34 36  1  0  0  0
 34 59  1  0  0  0
 34109  1  0  0  0
 35 44  2  0  0  0
 35 45  1  0  0  0
 35 68  1  0  0  0
 36 56  1  0  0  0
 36110  1  0  0  0
 37 39  1  0  0  0
 37 47  1  0  0  0
 37 66  1  0  0  0
 37111  1  0  0  0
 38 43  2  0  0  0
 38 46  1  0  0  0
 38 47  1  0  0  0
 39 64  1  0  0  0
 39 67  2  0  0  0
 40 52  1  0  0  0
 40 53  2  0  0  0
 40 58  1  0  0  0
 41112  1  0  0  0
 41113  1  0  0  0
 41114  1  0  0  0
 41 48  1  0  0  0
 42 43  1  0  0  0
 42 66  1  0  0  0
 42115  1  0  0  0
 42116  1  0  0  0
 43 44  1  0  0  0
 44117  1  0  0  0
 45 46  2  0  0  0
 45118  1  0  0  0
 46119  1  0  0  0
 47120  1  0  0  0
 47121  1  0  0  0
 48 56  1  0  0  0
 48 65  1  0  0  0
 48122  1  0  0  0
 49 50  1  0  0  0
 49 53  1  0  0  0
 49 64  1  0  0  0
 49123  1  0  0  0
 50 51  1  0  0  0
 50124  1  0  0  0
 50125  1  0  0  0
 51 52  1  0  0  0
 51126  1  0  0  0
 51127  1  0  0  0
 52128  1  0  0  0
 52129  1  0  0  0
 53 54  1  0  0  0
 54 55  2  0  0  0
 54130  1  0  0  0
 55 57  1  0  0  0
 55131  1  0  0  0
 56 69  2  0  0  0
 57 58  2  0  0  0
 57132  1  0  0  0
 58133  1  0  0  0
 59 60  1  0  0  0
 59 61  1  0  0  0
 59 62  1  0  0  0
 60134  1  0  0  0
 60135  1  0  0  0
 60136  1  0  0  0
 61137  1  0  0  0
 61138  1  0  0  0
 61139  1  0  0  0
 62140  1  0  0  0
 62141  1  0  0  0
 62142  1  0  0  0
 63 65  1  0  0  0
 63143  1  0  0  0
 63144  1  0  0  0
 63145  1  0  0  0
 64146  1  0  0  0
 65147  1  0  0  0
 68 83  1  0  0  0
 71 72  2  0  0  0
 71 88  1  0  0  0
 71148  1  0  0  0
 72 73  1  0  0  0
 72 86  1  0  0  0
 73 79  1  0  0  0
 73 87  2  0  0  0
 74 80  1  0  0  0
 74149  1  0  0  0
 74150  1  0  0  0
 74151  1  0  0  0
 75152  1  0  0  0
 75153  1  0  0  0
 75154  1  0  0  0
 75 84  1  0  0  0
 76155  1  0  0  0
 76156  1  0  0  0
 76157  1  0  0  0
 76 85  1  0  0  0
 77158  1  0  0  0
 77159  1  0  0  0
 77160  1  0  0  0
 77 86  1  0  0  0
 78 86  1  0  0  0
 78161  1  0  0  0
 78162  1  0  0  0
 78163  1  0  0  0
 79 81  1  0  0  0
 79164  1  0  0  0
 79165  1  0  0  0
 80 86  1  0  0  0
 80166  1  0  0  0
 80167  1  0  0  0
 81 82  1  0  0  0
 81168  1  0  0  0
 81169  1  0  0  0
 82 83  1  0  0  0
 82170  1  0  0  0
 82171  1  0  0  0
 83172  1  0  0  0
 83173  1  0  0  0
 84 85  1  0  0  0
 84174  1  0  0  0
 85 88  1  0  0  0
 85175  1  0  0  0
 87 88  1  0  0  0
M  ISO  4   1 100  68 101  83 101  84 100
M  END
> <chiral flag>
0

> <version>
0

> <s_m_source_file>
/data/baiqing/PycharmProjects/Reinvent-master-3.2/result/LINK_invent/BTK/process_docking_weight1_custom_sum_contain_oxygen_bond_distance_aromatic_linkinvent_7_9_3/rearranged_h_0065.sdf

> <i_m_source_file_index>
13

> <r_mmod_Potential_Energy-OPLS-2005>
-27.0638809204102

> <r_mmod_Stretch_Energy-OPLS-2005>
52.0703430175781

> <r_mmod_Bend_Energy-OPLS-2005>
127.398712158203

> <r_mmod_Torsional_Energy-OPLS-2005>
193.815246582031

> <r_mmod_Improper_Torsional_Energy-OPLS-2005>
3.32274794578552

> <r_mmod_Van_der_Waal_Energy-OPLS-2005>
127.650825500488

> <r_mmod_Electrostatic_Energy-OPLS-2005>
-369.568817138672

> <r_mmod_Solvation_Energy-OPLS-2005>
-184.012069702148

> <b_mmod_Minimization_Converged-OPLS-2005>
0

> <r_mmod_RMS_Derivative-OPLS-2005>
2.94634938240051

$$$$
15
                    3D
 Structure written by MMmdl.
188196  0  0  1  0            999 V2000
  -30.6686  -14.6017   20.5945 C   0  0  0  0  0  0
  -30.4364  -12.3958   19.4419 C   0  0  0  0  0  0
  -29.5021  -12.5179   18.2177 C   0  0  0  0  0  0
  -28.0271  -12.3302   18.6267 C   0  0  0  0  0  0
  -27.6527  -13.1870   19.8607 C   0  0  2  0  0  0
  -28.7015  -13.0058   20.9843 C   0  0  0  0  0  0
  -25.2549  -13.8082   20.5606 C   0  0  0  0  0  0
  -24.1814  -13.0387   20.9170 C   0  0  0  0  0  0
  -24.6363  -11.6855   20.8745 C   0  0  0  0  0  0
  -23.9030  -10.4263   21.0420 C   0  0  0  0  0  0
  -24.3595   -9.4188   21.9198 C   0  0  0  0  0  0
  -23.6277   -8.2224   22.0760 C   0  0  0  0  0  0
  -22.4261   -8.0265   21.3547 C   0  0  0  0  0  0
  -21.9891   -9.0235   20.4649 C   0  0  0  0  0  0
  -22.7211  -10.2114   20.3061 C   0  0  0  0  0  0
  -21.6843   -6.0729   22.5283 C   0  0  0  0  0  0
  -21.4008   -6.5636   23.8216 C   0  0  0  0  0  0
  -21.3660   -5.6790   24.9179 C   0  0  0  0  0  0
  -21.6043   -4.3053   24.7228 C   0  0  0  0  0  0
  -21.8821   -3.8143   23.4351 C   0  0  0  0  0  0
  -21.9191   -4.6959   22.3407 C   0  0  0  0  0  0
  -22.7847  -13.5211   21.1845 C   0  0  0  0  0  0
  -22.1659   -4.2146   21.0985 F   0  0  0  0  0  0
  -21.5632   -3.4538   25.7743 F   0  0  0  0  0  0
  -30.0122  -13.3990   20.4457 N   0  0  0  0  0  0
  -26.2970  -12.9214   20.3292 N   0  0  0  0  0  0
  -25.9278  -11.6402   20.5759 N   0  0  0  0  0  0
  -22.0486  -12.8222   22.0413 N   0  0  0  0  0  0
  -25.4197  -15.1794   20.3931 N   0  0  0  0  0  0
  -31.7796  -14.7348   20.0713 O   0  0  0  0  0  0
  -21.6627   -6.8865   21.4243 O   0  0  0  0  0  0
  -22.3539  -14.5524   20.6698 O   0  0  0  0  0  0
  -24.6204  -31.8632   23.2039 C   0  0  0  0  0  0
  -25.9074  -32.4798   23.8356 C   0  0  1  0  0  0
  -27.2394  -27.3773   20.1120 C   0  0  0  0  0  0
  -25.5910  -33.8598   24.2290 N   0  0  0  0  0  0
  -23.4112  -30.4842   21.5462 C   0  0  2  0  0  0
  -24.8582  -28.9361   20.1206 C   0  0  0  0  0  0
  -22.7438  -29.4637   22.4970 C   0  0  0  0  0  0
  -18.0279  -28.1379   22.8490 C   0  0  0  0  0  0
  -24.1490  -36.7310   23.2641 C   0  0  0  0  0  0
  -25.9445  -30.8139   21.3614 C   0  0  0  0  0  0
  -26.0228  -29.4421   20.7108 C   0  0  0  0  0  0
  -27.2177  -28.6758   20.6899 C   0  0  0  0  0  0
  -26.0488  -26.8912   19.5315 C   0  0  0  0  0  0
  -24.8688  -27.6622   19.5261 C   0  0  0  0  0  0
  -23.6227  -29.8105   20.1641 C   0  0  0  0  0  0
  -25.4114  -36.3100   24.0331 C   0  0  1  0  0  0
  -20.5871  -28.3678   23.1304 C   0  0  2  0  0  0
  -20.6769  -26.9408   22.5416 C   0  0  0  0  0  0
  -19.5749  -26.6381   21.5212 C   0  0  0  0  0  0
  -18.1924  -26.7927   22.1614 C   0  0  0  0  0  0
  -19.1528  -28.8843   23.2893 C   0  0  0  0  0  0
  -18.9454  -30.1449   23.8906 C   0  0  0  0  0  0
  -17.6458  -30.6589   24.0561 C   0  0  0  0  0  0
  -25.9042  -34.9466   23.5110 C   0  0  0  0  0  0
  -16.5348  -29.9090   23.6324 C   0  0  0  0  0  0
  -16.7267  -28.6504   23.0349 C   0  0  0  0  0  0
  -26.4484  -31.6599   25.0707 C   0  0  0  0  0  0
  -25.3732  -31.3711   26.1442 C   0  0  0  0  0  0
  -27.0330  -30.3039   24.6117 C   0  0  0  0  0  0
  -27.6042  -32.4335   25.7483 C   0  0  0  0  0  0
  -27.5584  -37.1809   24.8462 C   0  0  0  0  0  0
  -21.4158  -29.3042   22.3709 N   0  0  0  0  0  0
  -26.4297  -37.3787   23.9404 N   0  0  0  0  0  0
  -24.6775  -31.0690   22.0958 N   0  0  0  0  0  0
  -23.4182  -28.8183   23.3040 O   0  0  0  0  0  0
  -28.4169  -26.6399   20.0677 O   0  0  0  0  0  0
  -26.5608  -34.8927   22.4675 O   0  0  0  0  0  0
  -23.5382  -32.1399   23.7406 O   0  0  0  0  0  0
  -30.4475  -19.7242   23.5947 C   0  0  0  0  0  0
  -29.6854  -20.7814   23.0511 C   0  0  0  0  0  0
  -29.5182  -20.7205   21.6296 C   0  0  0  0  0  0
  -30.4982  -18.5749   21.6294 C   0  0  0  0  0  0
  -31.6161  -15.4177   23.4598 C   0  0  0  0  0  0
  -29.4491  -21.5955   25.5018 C   0  0  0  0  0  0
  -27.5162  -21.7278   23.9922 C   0  0  0  0  0  0
  -29.5110  -23.2707   23.7284 C   0  0  0  0  0  0
  -28.6143  -16.1802   20.9995 C   0  0  0  0  0  0
  -30.3671  -22.0203   18.7684 C   0  0  0  0  0  0
  -31.0487  -23.2952   20.7429 C   0  0  0  0  0  0
  -29.9720  -25.0307   18.4598 C   0  0  0  0  0  0
  -27.8395  -23.7660   18.4648 C   0  0  0  0  0  0
  -28.8712  -21.8614   20.7597 C   0  0  0  0  0  0
  -30.8583  -17.2233   20.9349 C   0  0  0  0  0  0
  -30.1954  -15.6189   22.8971 C   0  0  0  0  0  0
  -28.4322  -25.2230   20.4345 C   0  0  0  0  0  0
  -29.0580  -21.8318   24.0197 C   0  0  0  0  0  0
  -30.0896  -15.8801   21.3609 C   0  0  2  0  0  0
  -29.7899  -22.8747   19.9359 C   0  0  0  0  0  0
  -29.0212  -24.1983   19.3635 C   0  0  0  0  0  0
  -30.8669  -18.6685   22.8910 N   0  0  0  0  0  0
  -29.8811  -19.5722   20.9668 N   0  0  0  0  0  0
  -31.4748  -12.5195   19.1311 H   0  0  0  0  0  0
  -30.3831  -11.3908   19.8640 H   0  0  0  0  0  0
  -29.7759  -11.7833   17.4593 H   0  0  0  0  0  0
  -29.6327  -13.4978   17.7562 H   0  0  0  0  0  0
  -27.8737  -11.2737   18.8507 H   0  0  0  0  0  0
  -27.3686  -12.5623   17.7889 H   0  0  0  0  0  0
  -27.6715  -14.2128   19.5079 H   0  0  0  0  0  0
  -28.7299  -11.9591   21.2912 H   0  0  0  0  0  0
  -28.4267  -13.5328   21.8907 H   0  0  0  0  0  0
  -25.2742   -9.5672   22.4773 H   0  0  0  0  0  0
  -23.9991   -7.4615   22.7477 H   0  0  0  0  0  0
  -21.0828   -8.8752   19.8950 H   0  0  0  0  0  0
  -22.3678  -10.9658   19.6171 H   0  0  0  0  0  0
  -21.1998   -7.6145   23.9720 H   0  0  0  0  0  0
  -21.1480   -6.0520   25.9084 H   0  0  0  0  0  0
  -22.0599   -2.7604   23.2852 H   0  0  0  0  0  0
  -22.4088  -11.9875   22.4800 H   0  0  0  0  0  0
  -21.1114  -13.1268   22.2629 H   0  0  0  0  0  0
  -24.6512  -15.8315   20.5047 H   0  0  0  0  0  0
  -26.2752  -15.6226   20.0856 H   0  0  0  0  0  0
  -26.7143  -32.5495   23.1113 H   0  0  0  0  0  0
  -25.0070  -33.9749   25.0444 H   0  0  0  0  0  0
  -22.7027  -31.3023   21.4016 H   0  0  0  0  0  0
  -23.3750  -35.9645   23.3299 H   0  0  0  0  0  0
  -24.3585  -36.8939   22.2058 H   0  0  0  0  0  0
  -23.7242  -37.6510   23.6666 H   0  0  0  0  0  0
  -26.0599  -31.5767   20.5900 H   0  0  0  0  0  0
  -26.8308  -30.8704   21.9820 H   0  0  0  0  0  0
  -28.1221  -29.0720   21.1299 H   0  0  0  0  0  0
  -26.0216  -25.9160   19.0730 H   0  0  0  0  0  0
  -23.9726  -27.2641   19.0702 H   0  0  0  0  0  0
  -23.7363  -30.5824   19.4019 H   0  0  0  0  0  0
  -22.7450  -29.2329   19.8679 H   0  0  0  0  0  0
  -25.1294  -36.1958   25.0822 H   0  0  0  0  0  0
  -20.9960  -28.3247   24.1424 H   0  0  0  0  0  0
  -20.5677  -26.2285   23.3607 H   0  0  0  0  0  0
  -21.6640  -26.7449   22.1210 H   0  0  0  0  0  0
  -19.6915  -25.6290   21.1248 H   0  0  0  0  0  0
  -19.6697  -27.3186   20.6739 H   0  0  0  0  0  0
  -17.4202  -26.6686   21.4007 H   0  0  0  0  0  0
  -18.0314  -26.0062   22.9000 H   0  0  0  0  0  0
  -19.7928  -30.7258   24.2283 H   0  0  0  0  0  0
  -17.5013  -31.6273   24.5158 H   0  0  0  0  0  0
  -15.5350  -30.2999   23.7641 H   0  0  0  0  0  0
  -15.8663  -28.0830   22.7059 H   0  0  0  0  0  0
  -24.5923  -30.7040   25.7772 H   0  0  0  0  0  0
  -24.8901  -32.2866   26.4863 H   0  0  0  0  0  0
  -25.8075  -30.8902   27.0215 H   0  0  0  0  0  0
  -26.2888  -29.6784   24.1173 H   0  0  0  0  0  0
  -27.4093  -29.7296   25.4593 H   0  0  0  0  0  0
  -27.8721  -30.4350   23.9279 H   0  0  0  0  0  0
  -27.2647  -33.3632   26.2058 H   0  0  0  0  0  0
  -28.3854  -32.6903   25.0317 H   0  0  0  0  0  0
  -28.0706  -31.8464   26.5402 H   0  0  0  0  0  0
  -28.2596  -38.0114   24.7520 H   0  0  0  0  0  0
  -28.1088  -36.2643   24.6278 H   0  0  0  0  0  0
  -27.2300  -37.1446   25.8866 H   0  0  0  0  0  0
  -20.9323  -29.8777   21.6938 H   0  0  0  0  0  0
  -26.0185  -38.2863   24.1408 H   0  0  0  0  0  0
  -30.7086  -19.6581   24.6380 H   0  0  0  0  0  0
  -31.5794  -15.2664   24.5390 H   0  0  0  0  0  0
  -32.2543  -16.2821   23.2798 H   0  0  0  0  0  0
  -32.1077  -14.5447   23.0301 H   0  0  0  0  0  0
  -29.1177  -20.6235   25.8701 H   0  0  0  0  0  0
  -28.9890  -22.3348   26.1598 H   0  0  0  0  0  0
  -30.5259  -21.6737   25.6613 H   0  0  0  0  0  0
  -27.1849  -20.7350   24.2999 H   0  0  0  0  0  0
  -27.0683  -21.9161   23.0211 H   0  0  0  0  0  0
  -27.0609  -22.4417   24.6805 H   0  0  0  0  0  0
  -30.5982  -23.3478   23.6945 H   0  0  0  0  0  0
  -29.1684  -23.9614   24.5004 H   0  0  0  0  0  0
  -29.1059  -23.6589   22.8058 H   0  0  0  0  0  0
  -28.2984  -17.1549   21.3692 H   0  0  0  0  0  0
  -27.9054  -15.4955   21.4505 H   0  0  0  0  0  0
  -28.4670  -16.2025   19.9198 H   0  0  0  0  0  0
  -30.9438  -21.1772   19.1476 H   0  0  0  0  0  0
  -31.0612  -22.5621   18.1298 H   0  0  0  0  0  0
  -29.5950  -21.5911   18.1318 H   0  0  0  0  0  0
  -31.5158  -22.4500   21.2480 H   0  0  0  0  0  0
  -30.8545  -24.0519   21.4958 H   0  0  0  0  0  0
  -31.8190  -23.7139   20.0953 H   0  0  0  0  0  0
  -29.4546  -25.8796   18.0117 H   0  0  0  0  0  0
  -30.3640  -24.4739   17.6122 H   0  0  0  0  0  0
  -30.8141  -25.4407   19.0166 H   0  0  0  0  0  0
  -27.3667  -24.6266   17.9947 H   0  0  0  0  0  0
  -27.0693  -23.2398   19.0289 H   0  0  0  0  0  0
  -28.1464  -23.1224   17.6426 H   0  0  0  0  0  0
  -28.1920  -22.4482   21.3611 H   0  0  0  0  0  0
  -28.1961  -21.3632   20.0632 H   0  0  0  0  0  0
  -31.9313  -17.0866   21.0713 H   0  0  0  0  0  0
  -30.7382  -17.3674   19.8601 H   0  0  0  0  0  0
  -29.7107  -16.4269   23.4437 H   0  0  0  0  0  0
  -29.6179  -14.7396   23.1730 H   0  0  0  0  0  0
  -29.0636  -25.2200   21.3164 H   0  0  0  0  0  0
  -27.4583  -24.8895   20.7958 H   0  0  0  0  0  0
  1 25  1  0  0  0
  1 30  2  0  0  0
  1 89  1  0  0  0
  2  3  1  0  0  0
  2 25  1  0  0  0
  2 94  1  0  0  0
  2 95  1  0  0  0
  3  4  1  0  0  0
  3 96  1  0  0  0
  3 97  1  0  0  0
  4  5  1  0  0  0
  4 98  1  0  0  0
  4 99  1  0  0  0
  5  6  1  0  0  0
  5 26  1  0  0  0
  5100  1  0  0  0
  6 25  1  0  0  0
  6101  1  0  0  0
  6102  1  0  0  0
  7  8  2  0  0  0
  7 26  1  0  0  0
  7 29  1  0  0  0
  8  9  1  0  0  0
  8 22  1  0  0  0
  9 10  1  0  0  0
  9 27  2  0  0  0
 10 11  2  0  0  0
 10 15  1  0  0  0
 11 12  1  0  0  0
 11103  1  0  0  0
 12 13  2  0  0  0
 12104  1  0  0  0
 13 14  1  0  0  0
 13 31  1  0  0  0
 14 15  2  0  0  0
 14105  1  0  0  0
 15106  1  0  0  0
 16 17  2  0  0  0
 16 21  1  0  0  0
 16 31  1  0  0  0
 17 18  1  0  0  0
 17107  1  0  0  0
 18 19  2  0  0  0
 18108  1  0  0  0
 19 20  1  0  0  0
 19 24  1  0  0  0
 20 21  2  0  0  0
 20109  1  0  0  0
 21 23  1  0  0  0
 22 28  1  0  0  0
 22 32  2  0  0  0
 26 27  1  0  0  0
 28110  1  0  0  0
 28111  1  0  0  0
 29112  1  0  0  0
 29113  1  0  0  0
 33 34  1  0  0  0
 33 66  1  0  0  0
 33 70  2  0  0  0
 34 36  1  0  0  0
 34 59  1  0  0  0
 34114  1  0  0  0
 35 44  2  0  0  0
 35 45  1  0  0  0
 35 68  1  0  0  0
 36 56  1  0  0  0
 36115  1  0  0  0
 37 39  1  0  0  0
 37 47  1  0  0  0
 37 66  1  0  0  0
 37116  1  0  0  0
 38 43  2  0  0  0
 38 46  1  0  0  0
 38 47  1  0  0  0
 39 64  1  0  0  0
 39 67  2  0  0  0
 40 52  1  0  0  0
 40 53  2  0  0  0
 40 58  1  0  0  0
 41117  1  0  0  0
 41118  1  0  0  0
 41119  1  0  0  0
 41 48  1  0  0  0
 42 43  1  0  0  0
 42 66  1  0  0  0
 42120  1  0  0  0
 42121  1  0  0  0
 43 44  1  0  0  0
 44122  1  0  0  0
 45 46  2  0  0  0
 45123  1  0  0  0
 46124  1  0  0  0
 47125  1  0  0  0
 47126  1  0  0  0
 48 56  1  0  0  0
 48 65  1  0  0  0
 48127  1  0  0  0
 49 50  1  0  0  0
 49 53  1  0  0  0
 49 64  1  0  0  0
 49128  1  0  0  0
 50 51  1  0  0  0
 50129  1  0  0  0
 50130  1  0  0  0
 51 52  1  0  0  0
 51131  1  0  0  0
 51132  1  0  0  0
 52133  1  0  0  0
 52134  1  0  0  0
 53 54  1  0  0  0
 54 55  2  0  0  0
 54135  1  0  0  0
 55 57  1  0  0  0
 55136  1  0  0  0
 56 69  2  0  0  0
 57 58  2  0  0  0
 57137  1  0  0  0
 58138  1  0  0  0
 59 60  1  0  0  0
 59 61  1  0  0  0
 59 62  1  0  0  0
 60139  1  0  0  0
 60140  1  0  0  0
 60141  1  0  0  0
 61142  1  0  0  0
 61143  1  0  0  0
 61144  1  0  0  0
 62145  1  0  0  0
 62146  1  0  0  0
 62147  1  0  0  0
 63 65  1  0  0  0
 63148  1  0  0  0
 63149  1  0  0  0
 63150  1  0  0  0
 64151  1  0  0  0
 65152  1  0  0  0
 68 87  1  0  0  0
 71 72  2  0  0  0
 71 92  1  0  0  0
 71153  1  0  0  0
 72 73  1  0  0  0
 72 88  1  0  0  0
 73 84  1  0  0  0
 73 93  2  0  0  0
 74 85  1  0  0  0
 74 92  2  0  0  0
 74 93  1  0  0  0
 75 86  1  0  0  0
 75154  1  0  0  0
 75155  1  0  0  0
 75156  1  0  0  0
 76157  1  0  0  0
 76158  1  0  0  0
 76159  1  0  0  0
 76 88  1  0  0  0
 77 88  1  0  0  0
 77160  1  0  0  0
 77161  1  0  0  0
 77162  1  0  0  0
 78 88  1  0  0  0
 78163  1  0  0  0
 78164  1  0  0  0
 78165  1  0  0  0
 79166  1  0  0  0
 79167  1  0  0  0
 79168  1  0  0  0
 79 89  1  0  0  0
 80169  1  0  0  0
 80170  1  0  0  0
 80171  1  0  0  0
 80 90  1  0  0  0
 81 90  1  0  0  0
 81172  1  0  0  0
 81173  1  0  0  0
 81174  1  0  0  0
 82175  1  0  0  0
 82176  1  0  0  0
 82177  1  0  0  0
 82 91  1  0  0  0
 83 91  1  0  0  0
 83178  1  0  0  0
 83179  1  0  0  0
 83180  1  0  0  0
 84 90  1  0  0  0
 84181  1  0  0  0
 84182  1  0  0  0
 85 89  1  0  0  0
 85183  1  0  0  0
 85184  1  0  0  0
 86 89  1  0  0  0
 86185  1  0  0  0
 86186  1  0  0  0
 87 91  1  0  0  0
 87187  1  0  0  0
 87188  1  0  0  0
 90 91  1  0  0  0
M  ISO  4   1 100  68 101  87 101  89 100
M  END
> <chiral flag>
0

> <version>
0

> <s_m_source_file>
/data/baiqing/PycharmProjects/Reinvent-master-3.2/result/LINK_invent/BTK/process_docking_weight1_custom_sum_contain_oxygen_bond_distance_aromatic_linkinvent_7_9_3/rearranged_h_0065.sdf

> <i_m_source_file_index>
14

> <r_mmod_Potential_Energy-OPLS-2005>
-81.8805389404297

> <r_mmod_Stretch_Energy-OPLS-2005>
99.8314514160156

> <r_mmod_Bend_Energy-OPLS-2005>
194.916854858398

> <r_mmod_Torsional_Energy-OPLS-2005>
225.887130737305

> <r_mmod_Improper_Torsional_Energy-OPLS-2005>
2.09206032752991

> <r_mmod_Van_der_Waal_Energy-OPLS-2005>
188.382369995117

> <r_mmod_Electrostatic_Energy-OPLS-2005>
-640.041870117188

> <r_mmod_Solvation_Energy-OPLS-2005>
-179.855529785156

> <b_mmod_Minimization_Converged-OPLS-2005>
0

> <r_mmod_RMS_Derivative-OPLS-2005>
0.688509523868561

$$$$
16
                    3D
 Structure written by MMmdl.
164172  0  0  1  0            999 V2000
  -30.7773  -14.5770   20.5909 C   0  0  0  0  0  0
  -30.4090  -12.3742   19.4796 C   0  0  0  0  0  0
  -29.5029  -12.5087   18.2381 C   0  0  0  0  0  0
  -28.0282  -12.3355   18.6394 C   0  0  0  0  0  0
  -27.6489  -13.2119   19.8590 C   0  0  2  0  0  0
  -28.6944  -13.0990   20.9988 C   0  0  0  0  0  0
  -25.2386  -13.8053   20.5480 C   0  0  0  0  0  0
  -24.1750  -13.0333   20.9171 C   0  0  0  0  0  0
  -24.6383  -11.6841   20.8778 C   0  0  0  0  0  0
  -23.9061  -10.4240   21.0437 C   0  0  0  0  0  0
  -24.3614   -9.4162   21.9210 C   0  0  0  0  0  0
  -23.6285   -8.2203   22.0762 C   0  0  0  0  0  0
  -22.4269   -8.0256   21.3540 C   0  0  0  0  0  0
  -21.9908   -9.0232   20.4645 C   0  0  0  0  0  0
  -22.7243  -10.2104   20.3068 C   0  0  0  0  0  0
  -21.6849   -6.0716   22.5275 C   0  0  0  0  0  0
  -21.4010   -6.5628   23.8206 C   0  0  0  0  0  0
  -21.3655   -5.6789   24.9173 C   0  0  0  0  0  0
  -21.6046   -4.3051   24.7229 C   0  0  0  0  0  0
  -21.8823   -3.8135   23.4355 C   0  0  0  0  0  0
  -21.9195   -4.6943   22.3405 C   0  0  0  0  0  0
  -22.7778  -13.5142   21.1855 C   0  0  0  0  0  0
  -22.1664   -4.2130   21.0982 F   0  0  0  0  0  0
  -21.5634   -3.4540   25.7744 F   0  0  0  0  0  0
  -30.0273  -13.4226   20.4632 N   0  0  0  0  0  0
  -26.2938  -12.9312   20.3291 N   0  0  0  0  0  0
  -25.9328  -11.6471   20.5833 N   0  0  0  0  0  0
  -22.0457  -12.8153   22.0447 N   0  0  0  0  0  0
  -25.3697  -15.1729   20.3528 N   0  0  0  0  0  0
  -31.8549  -14.6103   19.9914 O   0  0  0  0  0  0
  -21.6632   -6.8855   21.4236 O   0  0  0  0  0  0
  -22.3453  -14.5453   20.6717 O   0  0  0  0  0  0
  -24.6220  -31.8644   23.2077 C   0  0  0  0  0  0
  -25.9091  -32.4803   23.8393 C   0  0  1  0  0  0
  -27.2268  -27.3667   20.1134 C   0  0  0  0  0  0
  -25.5920  -33.8603   24.2318 N   0  0  0  0  0  0
  -23.4141  -30.4910   21.5492 C   0  0  2  0  0  0
  -24.8605  -28.9595   20.1114 C   0  0  0  0  0  0
  -22.7463  -29.4654   22.4951 C   0  0  0  0  0  0
  -18.0302  -28.1385   22.8504 C   0  0  0  0  0  0
  -24.1488  -36.7308   23.2637 C   0  0  0  0  0  0
  -25.9517  -30.8122   21.3725 C   0  0  0  0  0  0
  -26.0277  -29.4448   20.7139 C   0  0  0  0  0  0
  -27.2149  -28.6607   20.7063 C   0  0  0  0  0  0
  -26.0354  -26.9308   19.4813 C   0  0  0  0  0  0
  -24.8640  -27.7057   19.4869 C   0  0  0  0  0  0
  -23.6265  -29.8318   20.1624 C   0  0  0  0  0  0
  -25.4109  -36.3098   24.0333 C   0  0  1  0  0  0
  -20.5900  -28.3688   23.1305 C   0  0  2  0  0  0
  -20.6804  -26.9419   22.5419 C   0  0  0  0  0  0
  -19.5776  -26.6383   21.5225 C   0  0  0  0  0  0
  -18.1954  -26.7933   22.1633 C   0  0  0  0  0  0
  -19.1553  -28.8850   23.2901 C   0  0  0  0  0  0
  -18.9473  -30.1456   23.8903 C   0  0  0  0  0  0
  -17.6474  -30.6587   24.0562 C   0  0  0  0  0  0
  -25.9043  -34.9465   23.5120 C   0  0  0  0  0  0
  -16.5368  -29.9080   23.6331 C   0  0  0  0  0  0
  -16.7288  -28.6502   23.0357 C   0  0  0  0  0  0
  -26.4497  -31.6589   25.0734 C   0  0  0  0  0  0
  -25.3753  -31.3694   26.1467 C   0  0  0  0  0  0
  -27.0333  -30.3020   24.6152 C   0  0  0  0  0  0
  -27.6055  -32.4315   25.7505 C   0  0  0  0  0  0
  -27.5581  -37.1809   24.8467 C   0  0  0  0  0  0
  -21.4178  -29.3054   22.3694 N   0  0  0  0  0  0
  -26.4297  -37.3782   23.9405 N   0  0  0  0  0  0
  -24.6814  -31.0710   22.0999 N   0  0  0  0  0  0
  -23.4209  -28.8181   23.2997 O   0  0  0  0  0  0
  -28.3464  -26.5300   20.1807 O   0  0  0  0  0  0
  -26.5608  -34.8922   22.4684 O   0  0  0  0  0  0
  -23.5393  -32.1426   23.7427 O   0  0  0  0  0  0
  -29.2662  -20.5565   22.1751 C   0  0  0  0  0  0
  -29.5181  -19.1611   22.1041 C   0  0  0  0  0  0
  -29.1496  -21.2907   20.9707 C   0  0  0  0  0  0
  -29.6477  -18.5492   20.8313 C   0  0  0  0  0  0
  -29.4745  -16.7114   19.0786 C   0  0  0  0  0  0
  -27.9735  -16.7572   21.0437 C   0  0  0  0  0  0
  -31.7803  -16.6904   21.5819 C   0  0  0  0  0  0
  -30.0023  -15.6072   22.8400 C   0  0  0  0  0  0
  -28.3982  -22.6468   20.9220 C   0  0  0  0  0  0
  -29.1110  -24.0137   20.6106 C   0  0  0  0  0  0
  -28.0434  -25.0976   20.2137 C   0  0  0  0  0  0
  -29.4307  -16.9922   20.6144 C   0  0  0  0  0  0
  -30.4228  -15.9435   21.3768 C   0  0  0  0  0  0
  -29.4052  -20.6815   19.7849 N   0  0  0  0  0  0
  -29.6459  -19.3577   19.7254 N   0  0  0  0  0  0
  -31.4577  -12.4126   19.1811 H   0  0  0  0  0  0
  -30.2881  -11.3862   19.9262 H   0  0  0  0  0  0
  -29.7746  -11.7622   17.4898 H   0  0  0  0  0  0
  -29.6523  -13.4831   17.7701 H   0  0  0  0  0  0
  -27.8709  -11.2829   18.8776 H   0  0  0  0  0  0
  -27.3755  -12.5571   17.7939 H   0  0  0  0  0  0
  -27.6499  -14.2306   19.4825 H   0  0  0  0  0  0
  -28.6981  -12.0852   21.4030 H   0  0  0  0  0  0
  -28.4107  -13.7265   21.8326 H   0  0  0  0  0  0
  -25.2759   -9.5648   22.4786 H   0  0  0  0  0  0
  -23.9989   -7.4594   22.7484 H   0  0  0  0  0  0
  -21.0840   -8.8763   19.8949 H   0  0  0  0  0  0
  -22.3713  -10.9647   19.6178 H   0  0  0  0  0  0
  -21.1997   -7.6138   23.9698 H   0  0  0  0  0  0
  -21.1474   -6.0524   25.9073 H   0  0  0  0  0  0
  -22.0605   -2.7596   23.2864 H   0  0  0  0  0  0
  -22.4097  -11.9823   22.4829 H   0  0  0  0  0  0
  -21.1082  -13.1177   22.2676 H   0  0  0  0  0  0
  -24.5806  -15.8026   20.4450 H   0  0  0  0  0  0
  -26.2063  -15.6284   20.0146 H   0  0  0  0  0  0
  -26.7163  -32.5503   23.1151 H   0  0  0  0  0  0
  -25.0059  -33.9759   25.0456 H   0  0  0  0  0  0
  -22.7061  -31.3104   21.4096 H   0  0  0  0  0  0
  -23.3743  -35.9650   23.3311 H   0  0  0  0  0  0
  -24.3575  -36.8917   22.2050 H   0  0  0  0  0  0
  -23.7260  -37.6521   23.6649 H   0  0  0  0  0  0
  -26.0783  -31.5790   20.6076 H   0  0  0  0  0  0
  -26.8333  -30.8580   21.9998 H   0  0  0  0  0  0
  -28.1088  -29.0267   21.1923 H   0  0  0  0  0  0
  -25.9691  -25.9767   18.9822 H   0  0  0  0  0  0
  -23.9707  -27.3280   19.0086 H   0  0  0  0  0  0
  -23.7432  -30.6108   19.4083 H   0  0  0  0  0  0
  -22.7489  -29.2585   19.8586 H   0  0  0  0  0  0
  -25.1290  -36.1957   25.0829 H   0  0  0  0  0  0
  -21.0014  -28.3274   24.1414 H   0  0  0  0  0  0
  -20.5704  -26.2296   23.3611 H   0  0  0  0  0  0
  -21.6673  -26.7468   22.1205 H   0  0  0  0  0  0
  -19.6942  -25.6293   21.1259 H   0  0  0  0  0  0
  -19.6720  -27.3192   20.6747 H   0  0  0  0  0  0
  -17.4227  -26.6684   21.4029 H   0  0  0  0  0  0
  -18.0348  -26.0069   22.9023 H   0  0  0  0  0  0
  -19.7949  -30.7277   24.2263 H   0  0  0  0  0  0
  -17.5021  -31.6268   24.5162 H   0  0  0  0  0  0
  -15.5372  -30.2988   23.7639 H   0  0  0  0  0  0
  -15.8683  -28.0831   22.7073 H   0  0  0  0  0  0
  -24.5927  -30.7044   25.7795 H   0  0  0  0  0  0
  -24.8941  -32.2843   26.4927 H   0  0  0  0  0  0
  -25.8094  -30.8850   27.0222 H   0  0  0  0  0  0
  -26.2894  -29.6772   24.1190 H   0  0  0  0  0  0
  -27.4061  -29.7259   25.4632 H   0  0  0  0  0  0
  -27.8751  -30.4306   23.9345 H   0  0  0  0  0  0
  -27.2666  -33.3599   26.2111 H   0  0  0  0  0  0
  -28.3857  -32.6907   25.0336 H   0  0  0  0  0  0
  -28.0745  -31.8432   26.5402 H   0  0  0  0  0  0
  -28.2605  -38.0099   24.7496 H   0  0  0  0  0  0
  -28.1071  -36.2626   24.6311 H   0  0  0  0  0  0
  -27.2295  -37.1486   25.8871 H   0  0  0  0  0  0
  -20.9351  -29.8761   21.6898 H   0  0  0  0  0  0
  -26.0183  -38.2862   24.1388 H   0  0  0  0  0  0
  -29.0330  -21.0169   23.1244 H   0  0  0  0  0  0
  -29.4759  -18.5628   23.0013 H   0  0  0  0  0  0
  -28.7609  -17.3242   18.5264 H   0  0  0  0  0  0
  -29.2107  -15.6917   18.8125 H   0  0  0  0  0  0
  -30.4641  -16.9133   18.6671 H   0  0  0  0  0  0
  -27.2717  -17.2900   20.4018 H   0  0  0  0  0  0
  -27.7790  -17.0974   22.0616 H   0  0  0  0  0  0
  -27.7343  -15.7063   21.0265 H   0  0  0  0  0  0
  -31.7074  -17.5336   22.2669 H   0  0  0  0  0  0
  -32.1690  -17.0815   20.6403 H   0  0  0  0  0  0
  -32.5455  -16.0347   22.0008 H   0  0  0  0  0  0
  -30.1836  -16.4409   23.5171 H   0  0  0  0  0  0
  -30.5757  -14.7661   23.2332 H   0  0  0  0  0  0
  -28.9540  -15.3632   22.9755 H   0  0  0  0  0  0
  -27.8590  -22.7559   21.8642 H   0  0  0  0  0  0
  -27.6144  -22.5074   20.1760 H   0  0  0  0  0  0
  -29.8184  -23.8910   19.7907 H   0  0  0  0  0  0
  -29.6834  -24.3301   21.4819 H   0  0  0  0  0  0
  -27.6894  -24.8008   19.2264 H   0  0  0  0  0  0
  -27.2052  -24.9657   20.9009 H   0  0  0  0  0  0
  1 25  1  0  0  0
  1 30  2  0  0  0
  1 83  1  0  0  0
  2  3  1  0  0  0
  2 25  1  0  0  0
  2 86  1  0  0  0
  2 87  1  0  0  0
  3  4  1  0  0  0
  3 88  1  0  0  0
  3 89  1  0  0  0
  4  5  1  0  0  0
  4 90  1  0  0  0
  4 91  1  0  0  0
  5  6  1  0  0  0
  5 26  1  0  0  0
  5 92  1  0  0  0
  6 25  1  0  0  0
  6 93  1  0  0  0
  6 94  1  0  0  0
  7  8  2  0  0  0
  7 26  1  0  0  0
  7 29  1  0  0  0
  8  9  1  0  0  0
  8 22  1  0  0  0
  9 10  1  0  0  0
  9 27  2  0  0  0
 10 11  2  0  0  0
 10 15  1  0  0  0
 11 12  1  0  0  0
 11 95  1  0  0  0
 12 13  2  0  0  0
 12 96  1  0  0  0
 13 14  1  0  0  0
 13 31  1  0  0  0
 14 15  2  0  0  0
 14 97  1  0  0  0
 15 98  1  0  0  0
 16 17  2  0  0  0
 16 21  1  0  0  0
 16 31  1  0  0  0
 17 18  1  0  0  0
 17 99  1  0  0  0
 18 19  2  0  0  0
 18100  1  0  0  0
 19 20  1  0  0  0
 19 24  1  0  0  0
 20 21  2  0  0  0
 20101  1  0  0  0
 21 23  1  0  0  0
 22 28  1  0  0  0
 22 32  2  0  0  0
 26 27  1  0  0  0
 28102  1  0  0  0
 28103  1  0  0  0
 29104  1  0  0  0
 29105  1  0  0  0
 33 34  1  0  0  0
 33 66  1  0  0  0
 33 70  2  0  0  0
 34 36  1  0  0  0
 34 59  1  0  0  0
 34106  1  0  0  0
 35 44  2  0  0  0
 35 45  1  0  0  0
 35 68  1  0  0  0
 36 56  1  0  0  0
 36107  1  0  0  0
 37 39  1  0  0  0
 37 47  1  0  0  0
 37 66  1  0  0  0
 37108  1  0  0  0
 38 43  2  0  0  0
 38 46  1  0  0  0
 38 47  1  0  0  0
 39 64  1  0  0  0
 39 67  2  0  0  0
 40 52  1  0  0  0
 40 53  2  0  0  0
 40 58  1  0  0  0
 41109  1  0  0  0
 41110  1  0  0  0
 41111  1  0  0  0
 41 48  1  0  0  0
 42 43  1  0  0  0
 42 66  1  0  0  0
 42112  1  0  0  0
 42113  1  0  0  0
 43 44  1  0  0  0
 44114  1  0  0  0
 45 46  2  0  0  0
 45115  1  0  0  0
 46116  1  0  0  0
 47117  1  0  0  0
 47118  1  0  0  0
 48 56  1  0  0  0
 48 65  1  0  0  0
 48119  1  0  0  0
 49 50  1  0  0  0
 49 53  1  0  0  0
 49 64  1  0  0  0
 49120  1  0  0  0
 50 51  1  0  0  0
 50121  1  0  0  0
 50122  1  0  0  0
 51 52  1  0  0  0
 51123  1  0  0  0
 51124  1  0  0  0
 52125  1  0  0  0
 52126  1  0  0  0
 53 54  1  0  0  0
 54 55  2  0  0  0
 54127  1  0  0  0
 55 57  1  0  0  0
 55128  1  0  0  0
 56 69  2  0  0  0
 57 58  2  0  0  0
 57129  1  0  0  0
 58130  1  0  0  0
 59 60  1  0  0  0
 59 61  1  0  0  0
 59 62  1  0  0  0
 60131  1  0  0  0
 60132  1  0  0  0
 60133  1  0  0  0
 61134  1  0  0  0
 61135  1  0  0  0
 61136  1  0  0  0
 62137  1  0  0  0
 62138  1  0  0  0
 62139  1  0  0  0
 63 65  1  0  0  0
 63140  1  0  0  0
 63141  1  0  0  0
 63142  1  0  0  0
 64143  1  0  0  0
 65144  1  0  0  0
 68 81  1  0  0  0
 71 72  2  0  0  0
 71 73  1  0  0  0
 71145  1  0  0  0
 72 74  1  0  0  0
 72146  1  0  0  0
 73 79  1  0  0  0
 73 84  2  0  0  0
 74 82  1  0  0  0
 74 85  2  0  0  0
 75147  1  0  0  0
 75148  1  0  0  0
 75149  1  0  0  0
 75 82  1  0  0  0
 76 82  1  0  0  0
 76150  1  0  0  0
 76151  1  0  0  0
 76152  1  0  0  0
 77153  1  0  0  0
 77154  1  0  0  0
 77155  1  0  0  0
 77 83  1  0  0  0
 78 83  1  0  0  0
 78156  1  0  0  0
 78157  1  0  0  0
 78158  1  0  0  0
 79 80  1  0  0  0
 79159  1  0  0  0
 79160  1  0  0  0
 80 81  1  0  0  0
 80161  1  0  0  0
 80162  1  0  0  0
 81163  1  0  0  0
 81164  1  0  0  0
 82 83  1  0  0  0
 84 85  1  0  0  0
M  ISO  4   1 100  68 101  81 101  83 100
M  END
> <chiral flag>
0

> <version>
0

> <s_m_source_file>
/data/baiqing/PycharmProjects/Reinvent-master-3.2/result/LINK_invent/BTK/process_docking_weight1_custom_sum_contain_oxygen_bond_distance_aromatic_linkinvent_7_9_3/rearranged_h_0065.sdf

> <i_m_source_file_index>
15

> <r_mmod_Potential_Energy-OPLS-2005>
208.765411376953

> <r_mmod_Stretch_Energy-OPLS-2005>
89.8561325073242

> <r_mmod_Bend_Energy-OPLS-2005>
181.105880737305

> <r_mmod_Torsional_Energy-OPLS-2005>
208.686630249023

> <r_mmod_Improper_Torsional_Energy-OPLS-2005>
6.90671014785767

> <r_mmod_Van_der_Waal_Energy-OPLS-2005>
195.186294555664

> <r_mmod_Electrostatic_Energy-OPLS-2005>
-303.762023925781

> <r_mmod_Solvation_Energy-OPLS-2005>
-205.193328857422

> <b_mmod_Minimization_Converged-OPLS-2005>
0

> <r_mmod_RMS_Derivative-OPLS-2005>
1.40714049339294

$$$$
17
                    3D
 Structure written by MMmdl.
190198  0  0  1  0            999 V2000
  -30.8153  -14.2659   20.7652 C   0  0  0  0  0  0
  -30.4119  -12.2825   19.3566 C   0  0  0  0  0  0
  -29.4705  -12.5510   18.1711 C   0  0  0  0  0  0
  -27.9980  -12.3984   18.5965 C   0  0  0  0  0  0
  -27.6679  -13.1963   19.8844 C   0  0  2  0  0  0
  -28.7081  -12.8913   20.9844 C   0  0  0  0  0  0
  -25.2631  -13.8134   20.5683 C   0  0  0  0  0  0
  -24.1874  -13.0443   20.9199 C   0  0  0  0  0  0
  -24.6396  -11.6898   20.8760 C   0  0  0  0  0  0
  -23.9045  -10.4292   21.0410 C   0  0  0  0  0  0
  -24.3610   -9.4208   21.9185 C   0  0  0  0  0  0
  -23.6298   -8.2237   22.0740 C   0  0  0  0  0  0
  -22.4286   -8.0273   21.3526 C   0  0  0  0  0  0
  -21.9914   -9.0240   20.4623 C   0  0  0  0  0  0
  -22.7219  -10.2132   20.3050 C   0  0  0  0  0  0
  -21.6852   -6.0745   22.5284 C   0  0  0  0  0  0
  -21.4003   -6.5646   23.8221 C   0  0  0  0  0  0
  -21.3670   -5.6793   24.9180 C   0  0  0  0  0  0
  -21.6063   -4.3062   24.7228 C   0  0  0  0  0  0
  -21.8819   -3.8155   23.4347 C   0  0  0  0  0  0
  -21.9184   -4.6972   22.3405 C   0  0  0  0  0  0
  -22.7895  -13.5250   21.1853 C   0  0  0  0  0  0
  -22.1645   -4.2167   21.0978 F   0  0  0  0  0  0
  -21.5637   -3.4537   25.7736 F   0  0  0  0  0  0
  -30.0543  -13.1851   20.4588 N   0  0  0  0  0  0
  -26.3056  -12.9287   20.3413 N   0  0  0  0  0  0
  -25.9322  -11.6458   20.5817 N   0  0  0  0  0  0
  -22.0529  -12.8219   22.0384 N   0  0  0  0  0  0
  -25.4411  -15.1834   20.4016 N   0  0  0  0  0  0
  -31.7572  -14.6535   20.0635 O   0  0  0  0  0  0
  -21.6641   -6.8876   21.4247 O   0  0  0  0  0  0
  -22.3591  -14.5576   20.6718 O   0  0  0  0  0  0
  -24.6069  -31.8709   23.2149 C   0  0  0  0  0  0
  -25.8992  -32.4854   23.8405 C   0  0  1  0  0  0
  -27.2377  -27.4965   20.0623 C   0  0  0  0  0  0
  -25.5861  -33.8650   24.2335 N   0  0  0  0  0  0
  -23.3924  -30.4942   21.5539 C   0  0  2  0  0  0
  -24.8379  -28.9666   20.1147 C   0  0  0  0  0  0
  -22.7388  -29.4646   22.5026 C   0  0  0  0  0  0
  -18.0276  -28.1356   22.8515 C   0  0  0  0  0  0
  -24.1488  -36.7325   23.2639 C   0  0  0  0  0  0
  -25.9178  -30.8520   21.3623 C   0  0  0  0  0  0
  -25.9943  -29.4894   20.7100 C   0  0  0  0  0  0
  -27.1970  -28.7564   20.6921 C   0  0  0  0  0  0
  -26.0736  -26.9788   19.4617 C   0  0  0  0  0  0
  -24.8690  -27.7045   19.4956 C   0  0  0  0  0  0
  -23.5963  -29.8252   20.1677 C   0  0  0  0  0  0
  -25.4112  -36.3144   24.0335 C   0  0  1  0  0  0
  -20.5869  -28.3579   23.1371 C   0  0  2  0  0  0
  -20.6774  -26.9324   22.5435 C   0  0  0  0  0  0
  -19.5727  -26.6315   21.5244 C   0  0  0  0  0  0
  -18.1913  -26.7898   22.1649 C   0  0  0  0  0  0
  -19.1531  -28.8785   23.2944 C   0  0  0  0  0  0
  -18.9477  -30.1393   23.8960 C   0  0  0  0  0  0
  -17.6484  -30.6565   24.0590 C   0  0  0  0  0  0
  -25.9023  -34.9510   23.5142 C   0  0  0  0  0  0
  -16.5364  -29.9088   23.6343 C   0  0  0  0  0  0
  -16.7275  -28.6503   23.0370 C   0  0  0  0  0  0
  -26.4462  -31.6621   25.0712 C   0  0  0  0  0  0
  -25.3754  -31.3682   26.1471 C   0  0  0  0  0  0
  -27.0272  -30.3072   24.6042 C   0  0  0  0  0  0
  -27.6051  -32.4332   25.7469 C   0  0  0  0  0  0
  -27.5588  -37.1810   24.8465 C   0  0  0  0  0  0
  -21.4111  -29.2995   22.3794 N   0  0  0  0  0  0
  -26.4299  -37.3822   23.9413 N   0  0  0  0  0  0
  -24.6572  -31.0851   22.1018 N   0  0  0  0  0  0
  -23.4214  -28.8206   23.3038 O   0  0  0  0  0  0
  -28.4032  -26.7789   20.0219 O   0  0  0  0  0  0
  -26.5591  -34.8959   22.4716 O   0  0  0  0  0  0
  -23.5279  -32.1402   23.7581 O   0  0  0  0  0  0
  -28.9624  -21.9015   22.8138 C   0  0  0  0  0  0
  -27.7792  -22.5913   22.5327 C   0  0  0  0  0  0
  -26.6568  -21.8116   22.1886 C   0  0  0  0  0  0
  -27.9020  -19.9119   22.4645 C   0  0  0  0  0  0
  -22.9064  -22.7312   22.7807 C   0  0  0  0  0  0
  -27.8745  -18.4567   25.3922 C   0  0  0  0  0  0
  -30.3338  -18.9364   25.2593 C   0  0  0  0  0  0
  -31.1707  -17.5843   21.5319 C   0  0  0  0  0  0
  -28.2687  -18.2067   20.7785 C   0  0  0  0  0  0
  -26.7582  -17.6113   22.6762 C   0  0  0  0  0  0
  -31.8451  -14.4354   22.9613 C   0  0  0  0  0  0
  -27.7953  -24.1071   22.5733 C   0  0  0  0  0  0
  -25.2827  -22.3844   21.8750 C   0  0  0  0  0  0
  -24.3330  -22.2429   23.0728 C   0  0  0  0  0  0
  -28.0552  -24.7001   21.1834 C   0  0  0  0  0  0
  -29.7050  -15.6182   22.4929 C   0  0  0  0  0  0
  -28.6749  -26.1025   21.2399 C   0  0  0  0  0  0
  -29.1927  -18.0627   24.6886 C   0  0  0  0  0  0
  -30.2682  -17.0545   22.6719 C   0  0  2  0  0  0
  -28.0480  -18.3945   22.3067 C   0  0  0  0  0  0
  -29.0253  -20.5637   22.7553 N   0  0  0  0  0  0
  -26.7394  -20.4711   22.1540 N   0  0  0  0  0  0
  -30.7141  -14.6456   22.0538 N   0  0  0  0  0  0
  -29.2483  -18.0399   23.1712 N   0  3  1  0  0  0
  -31.4529  -12.3979   19.0457 H   0  0  0  0  0  0
  -30.3178  -11.2455   19.6854 H   0  0  0  0  0  0
  -29.6958  -11.8723   17.3464 H   0  0  0  0  0  0
  -29.6404  -13.5603   17.7919 H   0  0  0  0  0  0
  -27.7928  -11.3385   18.7535 H   0  0  0  0  0  0
  -27.3457  -12.7130   17.7817 H   0  0  0  0  0  0
  -27.7345  -14.2571   19.6421 H   0  0  0  0  0  0
  -28.6661  -11.8343   21.2524 H   0  0  0  0  0  0
  -28.4586  -13.4130   21.9054 H   0  0  0  0  0  0
  -25.2748   -9.5718   22.4761 H   0  0  0  0  0  0
  -24.0029   -7.4634   22.7449 H   0  0  0  0  0  0
  -21.0852   -8.8738   19.8918 H   0  0  0  0  0  0
  -22.3650  -10.9679   19.6179 H   0  0  0  0  0  0
  -21.1973   -7.6150   23.9729 H   0  0  0  0  0  0
  -21.1510   -6.0518   25.9084 H   0  0  0  0  0  0
  -22.0595   -2.7615   23.2835 H   0  0  0  0  0  0
  -22.4125  -11.9865   22.4766 H   0  0  0  0  0  0
  -21.1151  -13.1259   22.2604 H   0  0  0  0  0  0
  -24.6696  -15.8358   20.4834 H   0  0  0  0  0  0
  -26.2777  -15.5966   20.0134 H   0  0  0  0  0  0
  -26.7081  -32.5622   23.1192 H   0  0  0  0  0  0
  -25.0084  -33.9802   25.0529 H   0  0  0  0  0  0
  -22.6779  -31.3075   21.4171 H   0  0  0  0  0  0
  -23.3770  -35.9632   23.3333 H   0  0  0  0  0  0
  -24.3590  -36.8925   22.2048 H   0  0  0  0  0  0
  -23.7198  -37.6528   23.6634 H   0  0  0  0  0  0
  -26.0205  -31.6192   20.5938 H   0  0  0  0  0  0
  -26.8116  -30.9110   21.9718 H   0  0  0  0  0  0
  -28.0947  -29.1547   21.1447 H   0  0  0  0  0  0
  -26.0997  -26.0203   18.9647 H   0  0  0  0  0  0
  -23.9804  -27.2990   19.0316 H   0  0  0  0  0  0
  -23.6904  -30.5983   19.4034 H   0  0  0  0  0  0
  -22.7191  -29.2408   19.8802 H   0  0  0  0  0  0
  -25.1292  -36.2017   25.0813 H   0  0  0  0  0  0
  -20.9967  -28.3127   24.1498 H   0  0  0  0  0  0
  -20.5694  -26.2186   23.3615 H   0  0  0  0  0  0
  -21.6639  -26.7383   22.1192 H   0  0  0  0  0  0
  -19.6872  -25.6223   21.1282 H   0  0  0  0  0  0
  -19.6686  -27.3114   20.6778 H   0  0  0  0  0  0
  -17.4186  -26.6667   21.4047 H   0  0  0  0  0  0
  -18.0315  -26.0061   22.9066 H   0  0  0  0  0  0
  -19.7974  -30.7176   24.2376 H   0  0  0  0  0  0
  -17.5039  -31.6246   24.5202 H   0  0  0  0  0  0
  -15.5378  -30.3010   23.7655 H   0  0  0  0  0  0
  -15.8674  -28.0826   22.7089 H   0  0  0  0  0  0
  -24.5914  -30.7025   25.7841 H   0  0  0  0  0  0
  -24.8929  -32.2812   26.4970 H   0  0  0  0  0  0
  -25.8122  -30.8824   27.0201 H   0  0  0  0  0  0
  -26.2761  -29.6841   24.1149 H   0  0  0  0  0  0
  -27.4148  -29.7288   25.4447 H   0  0  0  0  0  0
  -27.8585  -30.4456   23.9115 H   0  0  0  0  0  0
  -27.2680  -33.3631   26.2070 H   0  0  0  0  0  0
  -28.3852  -32.6883   25.0283 H   0  0  0  0  0  0
  -28.0737  -31.8421   26.5354 H   0  0  0  0  0  0
  -28.2617  -38.0107   24.7565 H   0  0  0  0  0  0
  -28.1071  -36.2631   24.6249 H   0  0  0  0  0  0
  -27.2295  -37.1453   25.8868 H   0  0  0  0  0  0
  -20.9194  -29.8787   21.7125 H   0  0  0  0  0  0
  -26.0210  -38.2908   24.1427 H   0  0  0  0  0  0
  -29.8695  -22.4259   23.0755 H   0  0  0  0  0  0
  -22.2651  -22.5998   23.6540 H   0  0  0  0  0  0
  -22.4559  -22.1749   21.9576 H   0  0  0  0  0  0
  -22.8971  -23.7886   22.5145 H   0  0  0  0  0  0
  -28.0511  -18.6091   26.4566 H   0  0  0  0  0  0
  -27.1349  -17.6575   25.3564 H   0  0  0  0  0  0
  -27.4388  -19.3839   25.0236 H   0  0  0  0  0  0
  -30.4224  -18.8117   26.3391 H   0  0  0  0  0  0
  -30.1571  -19.9963   25.0814 H   0  0  0  0  0  0
  -31.3112  -18.6973   24.8403 H   0  0  0  0  0  0
  -32.1307  -17.0692   21.5320 H   0  0  0  0  0  0
  -31.3953  -18.6445   21.6539 H   0  0  0  0  0  0
  -30.7640  -17.4245   20.5357 H   0  0  0  0  0  0
  -27.3898  -18.5414   20.2252 H   0  0  0  0  0  0
  -28.4302  -17.1787   20.4668 H   0  0  0  0  0  0
  -29.0833  -18.8262   20.4050 H   0  0  0  0  0  0
  -26.0401  -17.6374   21.8579 H   0  0  0  0  0  0
  -26.2078  -18.0480   23.5036 H   0  0  0  0  0  0
  -26.9533  -16.5621   22.8921 H   0  0  0  0  0  0
  -32.6384  -15.1625   22.7832 H   0  0  0  0  0  0
  -32.2732  -13.4404   22.8205 H   0  0  0  0  0  0
  -31.5373  -14.5118   24.0037 H   0  0  0  0  0  0
  -28.5807  -24.4221   23.2632 H   0  0  0  0  0  0
  -26.8687  -24.4982   22.9946 H   0  0  0  0  0  0
  -24.8713  -21.8533   21.0149 H   0  0  0  0  0  0
  -25.3522  -23.4279   21.5721 H   0  0  0  0  0  0
  -24.2996  -21.1957   23.3750 H   0  0  0  0  0  0
  -24.7443  -22.7872   23.9233 H   0  0  0  0  0  0
  -27.1171  -24.7093   20.6323 H   0  0  0  0  0  0
  -28.7300  -24.0617   20.6116 H   0  0  0  0  0  0
  -28.8729  -15.6103   21.7917 H   0  0  0  0  0  0
  -29.2816  -15.2630   23.4335 H   0  0  0  0  0  0
  -28.2875  -26.6632   22.0944 H   0  0  0  0  0  0
  -29.7562  -26.0310   21.3780 H   0  0  0  0  0  0
  -29.3859  -17.0455   25.0337 H   0  0  0  0  0  0
  -30.9855  -16.9580   23.4859 H   0  0  0  0  0  0
  -29.6650  -18.9653   23.0334 H   0  0  0  0  0  0
  1 25  1  0  0  0
  1 30  2  0  0  0
  1 93  1  0  0  0
  2  3  1  0  0  0
  2 25  1  0  0  0
  2 95  1  0  0  0
  2 96  1  0  0  0
  3  4  1  0  0  0
  3 97  1  0  0  0
  3 98  1  0  0  0
  4  5  1  0  0  0
  4 99  1  0  0  0
  4100  1  0  0  0
  5  6  1  0  0  0
  5 26  1  0  0  0
  5101  1  0  0  0
  6 25  1  0  0  0
  6102  1  0  0  0
  6103  1  0  0  0
  7  8  2  0  0  0
  7 26  1  0  0  0
  7 29  1  0  0  0
  8  9  1  0  0  0
  8 22  1  0  0  0
  9 10  1  0  0  0
  9 27  2  0  0  0
 10 11  2  0  0  0
 10 15  1  0  0  0
 11 12  1  0  0  0
 11104  1  0  0  0
 12 13  2  0  0  0
 12105  1  0  0  0
 13 14  1  0  0  0
 13 31  1  0  0  0
 14 15  2  0  0  0
 14106  1  0  0  0
 15107  1  0  0  0
 16 17  2  0  0  0
 16 21  1  0  0  0
 16 31  1  0  0  0
 17 18  1  0  0  0
 17108  1  0  0  0
 18 19  2  0  0  0
 18109  1  0  0  0
 19 20  1  0  0  0
 19 24  1  0  0  0
 20 21  2  0  0  0
 20110  1  0  0  0
 21 23  1  0  0  0
 22 28  1  0  0  0
 22 32  2  0  0  0
 26 27  1  0  0  0
 28111  1  0  0  0
 28112  1  0  0  0
 29113  1  0  0  0
 29114  1  0  0  0
 33 34  1  0  0  0
 33 66  1  0  0  0
 33 70  2  0  0  0
 34 36  1  0  0  0
 34 59  1  0  0  0
 34115  1  0  0  0
 35 44  2  0  0  0
 35 45  1  0  0  0
 35 68  1  0  0  0
 36 56  1  0  0  0
 36116  1  0  0  0
 37 39  1  0  0  0
 37 47  1  0  0  0
 37 66  1  0  0  0
 37117  1  0  0  0
 38 43  2  0  0  0
 38 46  1  0  0  0
 38 47  1  0  0  0
 39 64  1  0  0  0
 39 67  2  0  0  0
 40 52  1  0  0  0
 40 53  2  0  0  0
 40 58  1  0  0  0
 41118  1  0  0  0
 41119  1  0  0  0
 41120  1  0  0  0
 41 48  1  0  0  0
 42 43  1  0  0  0
 42 66  1  0  0  0
 42121  1  0  0  0
 42122  1  0  0  0
 43 44  1  0  0  0
 44123  1  0  0  0
 45 46  2  0  0  0
 45124  1  0  0  0
 46125  1  0  0  0
 47126  1  0  0  0
 47127  1  0  0  0
 48 56  1  0  0  0
 48 65  1  0  0  0
 48128  1  0  0  0
 49 50  1  0  0  0
 49 53  1  0  0  0
 49 64  1  0  0  0
 49129  1  0  0  0
 50 51  1  0  0  0
 50130  1  0  0  0
 50131  1  0  0  0
 51 52  1  0  0  0
 51132  1  0  0  0
 51133  1  0  0  0
 52134  1  0  0  0
 52135  1  0  0  0
 53 54  1  0  0  0
 54 55  2  0  0  0
 54136  1  0  0  0
 55 57  1  0  0  0
 55137  1  0  0  0
 56 69  2  0  0  0
 57 58  2  0  0  0
 57138  1  0  0  0
 58139  1  0  0  0
 59 60  1  0  0  0
 59 61  1  0  0  0
 59 62  1  0  0  0
 60140  1  0  0  0
 60141  1  0  0  0
 60142  1  0  0  0
 61143  1  0  0  0
 61144  1  0  0  0
 61145  1  0  0  0
 62146  1  0  0  0
 62147  1  0  0  0
 62148  1  0  0  0
 63 65  1  0  0  0
 63149  1  0  0  0
 63150  1  0  0  0
 63151  1  0  0  0
 64152  1  0  0  0
 65153  1  0  0  0
 68 87  1  0  0  0
 71 72  2  0  0  0
 71 91  1  0  0  0
 71154  1  0  0  0
 72 73  1  0  0  0
 72 82  1  0  0  0
 73 83  1  0  0  0
 73 92  2  0  0  0
 74 90  1  0  0  0
 74 91  2  0  0  0
 74 92  1  0  0  0
 75 84  1  0  0  0
 75155  1  0  0  0
 75156  1  0  0  0
 75157  1  0  0  0
 76158  1  0  0  0
 76159  1  0  0  0
 76160  1  0  0  0
 76 88  1  0  0  0
 77 88  1  0  0  0
 77161  1  0  0  0
 77162  1  0  0  0
 77163  1  0  0  0
 78164  1  0  0  0
 78165  1  0  0  0
 78166  1  0  0  0
 78 89  1  0  0  0
 79167  1  0  0  0
 79168  1  0  0  0
 79169  1  0  0  0
 79 90  1  0  0  0
 80 90  1  0  0  0
 80170  1  0  0  0
 80171  1  0  0  0
 80172  1  0  0  0
 81 93  1  0  0  0
 81173  1  0  0  0
 81174  1  0  0  0
 81175  1  0  0  0
 82 85  1  0  0  0
 82176  1  0  0  0
 82177  1  0  0  0
 83 84  1  0  0  0
 83178  1  0  0  0
 83179  1  0  0  0
 84180  1  0  0  0
 84181  1  0  0  0
 85 87  1  0  0  0
 85182  1  0  0  0
 85183  1  0  0  0
 86 89  1  0  0  0
 86 93  1  0  0  0
 86184  1  0  0  0
 86185  1  0  0  0
 87186  1  0  0  0
 87187  1  0  0  0
 88188  1  0  0  0
 88 94  1  0  0  0
 89 94  1  0  0  0
 89189  1  0  0  0
 90 94  1  0  0  0
 94190  1  0  0  0
M  CHG  1  94   1
M  ISO  4   1 100  68 101  87 101  93 100
M  END
> <chiral flag>
0

> <version>
0

> <s_m_source_file>
/data/baiqing/PycharmProjects/Reinvent-master-3.2/result/LINK_invent/BTK/process_docking_weight1_custom_sum_contain_oxygen_bond_distance_aromatic_linkinvent_7_9_3/rearranged_h_0065.sdf

> <i_m_source_file_index>
16

> <r_mmod_Potential_Energy-OPLS-2005>
-344.038665771484

> <r_mmod_Stretch_Energy-OPLS-2005>
43.103702545166

> <r_mmod_Bend_Energy-OPLS-2005>
163.688430786133

> <r_mmod_Torsional_Energy-OPLS-2005>
345.157958984375

> <r_mmod_Improper_Torsional_Energy-OPLS-2005>
11.3110513687134

> <r_mmod_Van_der_Waal_Energy-OPLS-2005>
182.981460571289

> <r_mmod_Electrostatic_Energy-OPLS-2005>
-728.981628417969

> <r_mmod_Solvation_Energy-OPLS-2005>
-370.59619140625

> <b_mmod_Minimization_Converged-OPLS-2005>
0

> <r_mmod_RMS_Derivative-OPLS-2005>
3.5318124294281

$$$$
18
                    3D
 Structure written by MMmdl.
169177  0  0  1  0            999 V2000
  -30.7748  -14.3963   20.6596 C   0  0  0  0  0  0
  -30.4126  -12.2945   19.4160 C   0  0  0  0  0  0
  -29.4871  -12.5196   18.2043 C   0  0  0  0  0  0
  -28.0098  -12.3816   18.6157 C   0  0  0  0  0  0
  -27.6649  -13.2090   19.8810 C   0  0  2  0  0  0
  -28.7020  -12.9728   21.0009 C   0  0  0  0  0  0
  -25.2597  -13.8167   20.5689 C   0  0  0  0  0  0
  -24.1845  -13.0429   20.9179 C   0  0  0  0  0  0
  -24.6413  -11.6903   20.8746 C   0  0  0  0  0  0
  -23.9086  -10.4285   21.0411 C   0  0  0  0  0  0
  -24.3637   -9.4202   21.9191 C   0  0  0  0  0  0
  -23.6307   -8.2240   22.0759 C   0  0  0  0  0  0
  -22.4293   -8.0279   21.3543 C   0  0  0  0  0  0
  -21.9929   -9.0257   20.4653 C   0  0  0  0  0  0
  -22.7260  -10.2133   20.3066 C   0  0  0  0  0  0
  -21.6855   -6.0740   22.5270 C   0  0  0  0  0  0
  -21.4015   -6.5646   23.8200 C   0  0  0  0  0  0
  -21.3661   -5.6800   24.9165 C   0  0  0  0  0  0
  -21.6046   -4.3063   24.7215 C   0  0  0  0  0  0
  -21.8820   -3.8155   23.4337 C   0  0  0  0  0  0
  -21.9196   -4.6970   22.3391 C   0  0  0  0  0  0
  -22.7875  -13.5226   21.1846 C   0  0  0  0  0  0
  -22.1662   -4.2155   21.0969 F   0  0  0  0  0  0
  -21.5630   -3.4546   25.7727 F   0  0  0  0  0  0
  -30.0451  -13.2614   20.4646 N   0  0  0  0  0  0
  -26.3039  -12.9342   20.3395 N   0  0  0  0  0  0
  -25.9342  -11.6495   20.5794 N   0  0  0  0  0  0
  -22.0541  -12.8203   22.0413 N   0  0  0  0  0  0
  -25.4317  -15.1877   20.4100 N   0  0  0  0  0  0
  -31.8150  -14.6126   20.0395 O   0  0  0  0  0  0
  -21.6646   -6.8884   21.4232 O   0  0  0  0  0  0
  -22.3547  -14.5543   20.6730 O   0  0  0  0  0  0
  -24.6136  -31.8704   23.2158 C   0  0  0  0  0  0
  -25.9032  -32.4839   23.8443 C   0  0  1  0  0  0
  -27.2397  -27.4556   20.0850 C   0  0  0  0  0  0
  -25.5897  -33.8635   24.2369 N   0  0  0  0  0  0
  -23.4012  -30.4952   21.5561 C   0  0  2  0  0  0
  -24.8462  -28.9664   20.1172 C   0  0  0  0  0  0
  -22.7424  -29.4662   22.5018 C   0  0  0  0  0  0
  -18.0271  -28.1390   22.8477 C   0  0  0  0  0  0
  -24.1480  -36.7341   23.2631 C   0  0  0  0  0  0
  -25.9275  -30.8432   21.3637 C   0  0  0  0  0  0
  -26.0065  -29.4785   20.7116 C   0  0  0  0  0  0
  -27.2049  -28.7307   20.6929 C   0  0  0  0  0  0
  -26.0557  -26.9560   19.4877 C   0  0  0  0  0  0
  -24.8642  -27.7037   19.5045 C   0  0  0  0  0  0
  -23.6094  -29.8326   20.1685 C   0  0  0  0  0  0
  -25.4097  -36.3132   24.0329 C   0  0  1  0  0  0
  -20.5863  -28.3662   23.1331 C   0  0  2  0  0  0
  -20.6767  -26.9396   22.5426 C   0  0  0  0  0  0
  -19.5746  -26.6389   21.5222 C   0  0  0  0  0  0
  -18.1921  -26.7936   22.1615 C   0  0  0  0  0  0
  -19.1520  -28.8842   23.2897 C   0  0  0  0  0  0
  -18.9441  -30.1446   23.8905 C   0  0  0  0  0  0
  -17.6443  -30.6584   24.0563 C   0  0  0  0  0  0
  -25.9015  -34.9483   23.5142 C   0  0  0  0  0  0
  -16.5334  -29.9088   23.6318 C   0  0  0  0  0  0
  -16.7257  -28.6514   23.0324 C   0  0  0  0  0  0
  -26.4467  -31.6605   25.0753 C   0  0  0  0  0  0
  -25.3734  -31.3686   26.1504 C   0  0  0  0  0  0
  -27.0304  -30.3057   24.6094 C   0  0  0  0  0  0
  -27.6071  -32.4316   25.7501 C   0  0  0  0  0  0
  -27.5585  -37.1814   24.8453 C   0  0  0  0  0  0
  -21.4155  -29.3032   22.3747 N   0  0  0  0  0  0
  -26.4292  -37.3807   23.9405 N   0  0  0  0  0  0
  -24.6664  -31.0826   22.1052 N   0  0  0  0  0  0
  -23.4206  -28.8183   23.3033 O   0  0  0  0  0  0
  -28.4169  -26.7261   20.1130 O   0  0  0  0  0  0
  -26.5568  -34.8914   22.4696 O   0  0  0  0  0  0
  -23.5332  -32.1461   23.7550 O   0  0  0  0  0  0
  -28.9487  -20.6799   19.6712 C   0  0  0  0  0  0
  -29.0465  -21.6123   20.7263 C   0  0  0  0  0  0
  -30.2885  -19.1640   20.8444 C   0  0  0  0  0  0
  -30.3221  -20.0864   21.9495 C   0  0  0  0  0  0
  -28.1680  -20.9526   18.4018 C   0  0  0  0  0  0
  -32.2468  -17.5885   21.5717 C   0  0  0  0  0  0
  -31.4305  -17.5794   19.2665 C   0  0  0  0  0  0
  -30.3018  -15.0590   22.9579 C   0  0  0  0  0  0
  -28.3368  -22.9593   20.6956 C   0  0  0  0  0  0
  -29.2001  -24.1294   20.1723 C   0  0  0  0  0  0
  -29.8591  -16.6863   21.1178 C   0  0  0  0  0  0
  -28.3164  -25.3403   19.7708 C   0  0  0  0  0  0
  -30.9516  -17.7513   20.7415 C   0  0  0  0  0  0
  -30.9241  -19.8021   23.3363 C   0  0  0  0  0  0
  -29.5505  -19.4764   19.7430 N   0  0  0  0  0  0
  -29.7318  -21.3140   21.8501 N   0  0  0  0  0  0
  -30.2625  -15.3134   21.5120 N   0  0  0  0  0  0
  -30.4978  -18.6320   23.8114 F   0  0  0  0  0  0
  -32.2563  -19.8343   23.3085 F   0  0  0  0  0  0
  -30.5394  -20.7264   24.2223 F   0  0  0  0  0  0
  -31.4582  -12.3766   19.1120 H   0  0  0  0  0  0
  -30.2984  -11.2796   19.7997 H   0  0  0  0  0  0
  -29.7230  -11.8068   17.4128 H   0  0  0  0  0  0
  -29.6610  -13.5111   17.7846 H   0  0  0  0  0  0
  -27.8123  -11.3252   18.7990 H   0  0  0  0  0  0
  -27.3601  -12.6740   17.7900 H   0  0  0  0  0  0
  -27.7164  -14.2614   19.6018 H   0  0  0  0  0  0
  -28.6665  -11.9379   21.3439 H   0  0  0  0  0  0
  -28.4416  -13.5698   21.8742 H   0  0  0  0  0  0
  -25.2786   -9.5666   22.4764 H   0  0  0  0  0  0
  -24.0014   -7.4629   22.7482 H   0  0  0  0  0  0
  -21.0859   -8.8789   19.8961 H   0  0  0  0  0  0
  -22.3729  -10.9682   19.6183 H   0  0  0  0  0  0
  -21.2012   -7.6155   23.9704 H   0  0  0  0  0  0
  -21.1486   -6.0532   25.9065 H   0  0  0  0  0  0
  -22.0608   -2.7620   23.2831 H   0  0  0  0  0  0
  -22.4179  -11.9847   22.4747 H   0  0  0  0  0  0
  -21.1176  -13.1235   22.2679 H   0  0  0  0  0  0
  -24.6769  -15.8516   20.5434 H   0  0  0  0  0  0
  -26.2922  -15.6245   20.1037 H   0  0  0  0  0  0
  -26.7109  -32.5550   23.1227 H   0  0  0  0  0  0
  -25.0074  -33.9800   25.0533 H   0  0  0  0  0  0
  -22.6887  -31.3111   21.4218 H   0  0  0  0  0  0
  -23.3722  -35.9691   23.3301 H   0  0  0  0  0  0
  -24.3574  -36.8962   22.2046 H   0  0  0  0  0  0
  -23.7252  -37.6547   23.6654 H   0  0  0  0  0  0
  -26.0267  -31.6058   20.5899 H   0  0  0  0  0  0
  -26.8203  -30.9072   21.9731 H   0  0  0  0  0  0
  -28.1000  -29.1245   21.1545 H   0  0  0  0  0  0
  -26.0338  -25.9923   18.9999 H   0  0  0  0  0  0
  -23.9706  -27.3057   19.0429 H   0  0  0  0  0  0
  -23.7240  -30.6118   19.4150 H   0  0  0  0  0  0
  -22.7319  -29.2581   19.8673 H   0  0  0  0  0  0
  -25.1271  -36.2013   25.0819 H   0  0  0  0  0  0
  -20.9912  -28.3224   24.1470 H   0  0  0  0  0  0
  -20.5713  -26.2246   23.3602 H   0  0  0  0  0  0
  -21.6631  -26.7477   22.1192 H   0  0  0  0  0  0
  -19.6895  -25.6309   21.1232 H   0  0  0  0  0  0
  -19.6700  -27.3205   20.6762 H   0  0  0  0  0  0
  -17.4204  -26.6682   21.4003 H   0  0  0  0  0  0
  -18.0301  -26.0089   22.9015 H   0  0  0  0  0  0
  -19.7912  -30.7255   24.2289 H   0  0  0  0  0  0
  -17.4997  -31.6255   24.5174 H   0  0  0  0  0  0
  -15.5330  -30.2987   23.7652 H   0  0  0  0  0  0
  -15.8662  -28.0845   22.7023 H   0  0  0  0  0  0
  -24.5927  -30.7011   25.7843 H   0  0  0  0  0  0
  -24.8875  -32.2814   26.4951 H   0  0  0  0  0  0
  -25.8089  -30.8871   27.0265 H   0  0  0  0  0  0
  -26.2842  -29.6803   24.1175 H   0  0  0  0  0  0
  -27.4135  -29.7302   25.4529 H   0  0  0  0  0  0
  -27.8647  -30.4407   23.9208 H   0  0  0  0  0  0
  -27.2733  -33.3621   26.2096 H   0  0  0  0  0  0
  -28.3867  -32.6853   25.0309 H   0  0  0  0  0  0
  -28.0744  -31.8418   26.5389 H   0  0  0  0  0  0
  -28.2595  -38.0121   24.7527 H   0  0  0  0  0  0
  -28.1097  -36.2648   24.6266 H   0  0  0  0  0  0
  -27.2295  -37.1468   25.8855 H   0  0  0  0  0  0
  -20.9334  -29.8770   21.6974 H   0  0  0  0  0  0
  -26.0181  -38.2882   24.1420 H   0  0  0  0  0  0
  -27.0977  -20.9493   18.6087 H   0  0  0  0  0  0
  -28.3696  -20.1965   17.6417 H   0  0  0  0  0  0
  -28.4371  -21.9222   17.9826 H   0  0  0  0  0  0
  -32.9478  -18.4018   21.3821 H   0  0  0  0  0  0
  -32.7742  -16.6719   21.3102 H   0  0  0  0  0  0
  -32.0873  -17.5080   22.6392 H   0  0  0  0  0  0
  -31.9560  -18.4733   18.9265 H   0  0  0  0  0  0
  -30.6014  -17.4136   18.5770 H   0  0  0  0  0  0
  -32.1307  -16.7647   19.1133 H   0  0  0  0  0  0
  -31.0879  -15.6407   23.4367 H   0  0  0  0  0  0
  -30.4884  -14.0088   23.1948 H   0  0  0  0  0  0
  -29.3532  -15.3269   23.4235 H   0  0  0  0  0  0
  -27.9716  -23.1874   21.6975 H   0  0  0  0  0  0
  -27.4397  -22.8661   20.0843 H   0  0  0  0  0  0
  -29.7481  -23.7720   19.2962 H   0  0  0  0  0  0
  -29.9600  -24.4003   20.9096 H   0  0  0  0  0  0
  -29.1368  -16.6101   20.3030 H   0  0  0  0  0  0
  -29.2724  -17.0905   21.9435 H   0  0  0  0  0  0
  -29.1712  -25.7087   19.2006 H   0  0  0  0  0  0
  -28.0567  -25.3690   20.8315 H   0  0  0  0  0  0
  1 25  1  0  0  0
  1 30  2  0  0  0
  1 87  1  0  0  0
  2  3  1  0  0  0
  2 25  1  0  0  0
  2 91  1  0  0  0
  2 92  1  0  0  0
  3  4  1  0  0  0
  3 93  1  0  0  0
  3 94  1  0  0  0
  4  5  1  0  0  0
  4 95  1  0  0  0
  4 96  1  0  0  0
  5  6  1  0  0  0
  5 26  1  0  0  0
  5 97  1  0  0  0
  6 25  1  0  0  0
  6 98  1  0  0  0
  6 99  1  0  0  0
  7  8  2  0  0  0
  7 26  1  0  0  0
  7 29  1  0  0  0
  8  9  1  0  0  0
  8 22  1  0  0  0
  9 10  1  0  0  0
  9 27  2  0  0  0
 10 11  2  0  0  0
 10 15  1  0  0  0
 11 12  1  0  0  0
 11100  1  0  0  0
 12 13  2  0  0  0
 12101  1  0  0  0
 13 14  1  0  0  0
 13 31  1  0  0  0
 14 15  2  0  0  0
 14102  1  0  0  0
 15103  1  0  0  0
 16 17  2  0  0  0
 16 21  1  0  0  0
 16 31  1  0  0  0
 17 18  1  0  0  0
 17104  1  0  0  0
 18 19  2  0  0  0
 18105  1  0  0  0
 19 20  1  0  0  0
 19 24  1  0  0  0
 20 21  2  0  0  0
 20106  1  0  0  0
 21 23  1  0  0  0
 22 28  1  0  0  0
 22 32  2  0  0  0
 26 27  1  0  0  0
 28107  1  0  0  0
 28108  1  0  0  0
 29109  1  0  0  0
 29110  1  0  0  0
 33 34  1  0  0  0
 33 66  1  0  0  0
 33 70  2  0  0  0
 34 36  1  0  0  0
 34 59  1  0  0  0
 34111  1  0  0  0
 35 44  2  0  0  0
 35 45  1  0  0  0
 35 68  1  0  0  0
 36 56  1  0  0  0
 36112  1  0  0  0
 37 39  1  0  0  0
 37 47  1  0  0  0
 37 66  1  0  0  0
 37113  1  0  0  0
 38 43  2  0  0  0
 38 46  1  0  0  0
 38 47  1  0  0  0
 39 64  1  0  0  0
 39 67  2  0  0  0
 40 52  1  0  0  0
 40 53  2  0  0  0
 40 58  1  0  0  0
 41114  1  0  0  0
 41115  1  0  0  0
 41116  1  0  0  0
 41 48  1  0  0  0
 42 43  1  0  0  0
 42 66  1  0  0  0
 42117  1  0  0  0
 42118  1  0  0  0
 43 44  1  0  0  0
 44119  1  0  0  0
 45 46  2  0  0  0
 45120  1  0  0  0
 46121  1  0  0  0
 47122  1  0  0  0
 47123  1  0  0  0
 48 56  1  0  0  0
 48 65  1  0  0  0
 48124  1  0  0  0
 49 50  1  0  0  0
 49 53  1  0  0  0
 49 64  1  0  0  0
 49125  1  0  0  0
 50 51  1  0  0  0
 50126  1  0  0  0
 50127  1  0  0  0
 51 52  1  0  0  0
 51128  1  0  0  0
 51129  1  0  0  0
 52130  1  0  0  0
 52131  1  0  0  0
 53 54  1  0  0  0
 54 55  2  0  0  0
 54132  1  0  0  0
 55 57  1  0  0  0
 55133  1  0  0  0
 56 69  2  0  0  0
 57 58  2  0  0  0
 57134  1  0  0  0
 58135  1  0  0  0
 59 60  1  0  0  0
 59 61  1  0  0  0
 59 62  1  0  0  0
 60136  1  0  0  0
 60137  1  0  0  0
 60138  1  0  0  0
 61139  1  0  0  0
 61140  1  0  0  0
 61141  1  0  0  0
 62142  1  0  0  0
 62143  1  0  0  0
 62144  1  0  0  0
 63 65  1  0  0  0
 63145  1  0  0  0
 63146  1  0  0  0
 63147  1  0  0  0
 64148  1  0  0  0
 65149  1  0  0  0
 68 82  1  0  0  0
 71 72  2  0  0  0
 71 75  1  0  0  0
 71 85  1  0  0  0
 72 79  1  0  0  0
 72 86  1  0  0  0
 73 74  1  0  0  0
 73 83  1  0  0  0
 73 85  2  0  0  0
 74 84  1  0  0  0
 74 86  2  0  0  0
 75150  1  0  0  0
 75151  1  0  0  0
 75152  1  0  0  0
 76153  1  0  0  0
 76154  1  0  0  0
 76155  1  0  0  0
 76 83  1  0  0  0
 77 83  1  0  0  0
 77156  1  0  0  0
 77157  1  0  0  0
 77158  1  0  0  0
 78 87  1  0  0  0
 78159  1  0  0  0
 78160  1  0  0  0
 78161  1  0  0  0
 79 80  1  0  0  0
 79162  1  0  0  0
 79163  1  0  0  0
 80 82  1  0  0  0
 80164  1  0  0  0
 80165  1  0  0  0
 81 83  1  0  0  0
 81 87  1  0  0  0
 81166  1  0  0  0
 81167  1  0  0  0
 82168  1  0  0  0
 82169  1  0  0  0
 84 88  1  0  0  0
 84 89  1  0  0  0
 84 90  1  0  0  0
M  ISO  4   1 100  68 101  82 101  87 100
M  END
> <chiral flag>
0

> <version>
0

> <s_m_source_file>
/data/baiqing/PycharmProjects/Reinvent-master-3.2/result/LINK_invent/BTK/process_docking_weight1_custom_sum_contain_oxygen_bond_distance_aromatic_linkinvent_7_9_3/rearranged_h_0065.sdf

> <i_m_source_file_index>
17

> <r_mmod_Potential_Energy-OPLS-2005>
468.669555664062

> <r_mmod_Stretch_Energy-OPLS-2005>
49.644214630127

> <r_mmod_Bend_Energy-OPLS-2005>
345.795104980469

> <r_mmod_Torsional_Energy-OPLS-2005>
293.658355712891

> <r_mmod_Improper_Torsional_Energy-OPLS-2005>
2.58483791351318

> <r_mmod_Van_der_Waal_Energy-OPLS-2005>
190.355560302734

> <r_mmod_Electrostatic_Energy-OPLS-2005>
-237.183517456055

> <r_mmod_Solvation_Energy-OPLS-2005>
-184.998168945312

> <b_mmod_Minimization_Converged-OPLS-2005>
0

> <r_mmod_RMS_Derivative-OPLS-2005>
2.17565107345581

$$$$
19
                    3D
 Structure written by MMmdl.
170178  0  0  1  0            999 V2000
  -30.7710  -14.3924   20.7217 C   0  0  0  0  0  0
  -30.4129  -12.3038   19.4327 C   0  0  0  0  0  0
  -29.4978  -12.5355   18.2101 C   0  0  0  0  0  0
  -28.0165  -12.3846   18.6036 C   0  0  0  0  0  0
  -27.6628  -13.2001   19.8703 C   0  0  2  0  0  0
  -28.6834  -12.9280   20.9898 C   0  0  0  0  0  0
  -25.2602  -13.8140   20.5646 C   0  0  0  0  0  0
  -24.1842  -13.0422   20.9146 C   0  0  0  0  0  0
  -24.6382  -11.6893   20.8699 C   0  0  0  0  0  0
  -23.9040  -10.4284   21.0388 C   0  0  0  0  0  0
  -24.3594   -9.4218   21.9182 C   0  0  0  0  0  0
  -23.6277   -8.2254   22.0762 C   0  0  0  0  0  0
  -22.4263   -8.0278   21.3551 C   0  0  0  0  0  0
  -21.9887   -9.0240   20.4650 C   0  0  0  0  0  0
  -22.7205  -10.2126   20.3052 C   0  0  0  0  0  0
  -21.6858   -6.0733   22.5274 C   0  0  0  0  0  0
  -21.4006   -6.5641   23.8201 C   0  0  0  0  0  0
  -21.3655   -5.6800   24.9168 C   0  0  0  0  0  0
  -21.6049   -4.3060   24.7222 C   0  0  0  0  0  0
  -21.8817   -3.8145   23.4341 C   0  0  0  0  0  0
  -21.9189   -4.6961   22.3398 C   0  0  0  0  0  0
  -22.7885  -13.5253   21.1829 C   0  0  0  0  0  0
  -22.1672   -4.2145   21.0978 F   0  0  0  0  0  0
  -21.5624   -3.4547   25.7734 F   0  0  0  0  0  0
  -30.0408  -13.2524   20.5056 N   0  0  0  0  0  0
  -26.3003  -12.9294   20.3252 N   0  0  0  0  0  0
  -25.9285  -11.6459   20.5662 N   0  0  0  0  0  0
  -22.0514  -12.8243   22.0375 N   0  0  0  0  0  0
  -25.4350  -15.1856   20.4123 N   0  0  0  0  0  0
  -31.7342  -14.6583   19.9975 O   0  0  0  0  0  0
  -21.6641   -6.8869   21.4237 O   0  0  0  0  0  0
  -22.3588  -14.5566   20.6684 O   0  0  0  0  0  0
  -24.6139  -31.8678   23.2076 C   0  0  0  0  0  0
  -25.9034  -32.4814   23.8372 C   0  0  1  0  0  0
  -27.2340  -27.4335   20.0877 C   0  0  0  0  0  0
  -25.5888  -33.8615   24.2298 N   0  0  0  0  0  0
  -23.4009  -30.4918   21.5492 C   0  0  2  0  0  0
  -24.8449  -28.9542   20.1137 C   0  0  0  0  0  0
  -22.7406  -29.4664   22.4979 C   0  0  0  0  0  0
  -18.0279  -28.1374   22.8481 C   0  0  0  0  0  0
  -24.1496  -36.7314   23.2640 C   0  0  0  0  0  0
  -25.9307  -30.8286   21.3624 C   0  0  0  0  0  0
  -26.0044  -29.4633   20.7097 C   0  0  0  0  0  0
  -27.1988  -28.7090   20.6946 C   0  0  0  0  0  0
  -26.0547  -26.9384   19.4818 C   0  0  0  0  0  0
  -24.8644  -27.6905   19.4984 C   0  0  0  0  0  0
  -23.6076  -29.8219   20.1647 C   0  0  0  0  0  0
  -25.4116  -36.3113   24.0327 C   0  0  1  0  0  0
  -20.5873  -28.3661   23.1308 C   0  0  2  0  0  0
  -20.6775  -26.9397   22.5407 C   0  0  0  0  0  0
  -19.5756  -26.6386   21.5202 C   0  0  0  0  0  0
  -18.1929  -26.7921   22.1613 C   0  0  0  0  0  0
  -19.1528  -28.8828   23.2893 C   0  0  0  0  0  0
  -18.9465  -30.1438   23.8903 C   0  0  0  0  0  0
  -17.6467  -30.6579   24.0563 C   0  0  0  0  0  0
  -25.9042  -34.9475   23.5114 C   0  0  0  0  0  0
  -16.5354  -29.9087   23.6324 C   0  0  0  0  0  0
  -16.7270  -28.6508   23.0338 C   0  0  0  0  0  0
  -26.4460  -31.6590   25.0701 C   0  0  0  0  0  0
  -25.3714  -31.3658   26.1432 C   0  0  0  0  0  0
  -27.0317  -30.3063   24.6039 C   0  0  0  0  0  0
  -27.6026  -32.4328   25.7475 C   0  0  0  0  0  0
  -27.5587  -37.1807   24.8464 C   0  0  0  0  0  0
  -21.4142  -29.3025   22.3710 N   0  0  0  0  0  0
  -26.4305  -37.3788   23.9395 N   0  0  0  0  0  0
  -24.6672  -31.0775   22.0976 N   0  0  0  0  0  0
  -23.4180  -28.8202   23.3016 O   0  0  0  0  0  0
  -28.4209  -26.7286   20.1082 O   0  0  0  0  0  0
  -26.5624  -34.8926   22.4691 O   0  0  0  0  0  0
  -23.5338  -32.1438   23.7470 O   0  0  0  0  0  0
  -31.0825  -21.0992   21.1644 C   0  0  0  0  0  0
  -31.5126  -19.0429   21.3741 C   0  0  0  0  0  0
  -30.4323  -20.5190   24.3806 C   0  0  0  0  0  0
  -31.8769  -17.5487   23.3941 C   0  0  0  0  0  0
  -32.9642  -17.0011   21.2960 C   0  0  0  0  0  0
  -29.8923  -14.9338   23.0102 C   0  0  0  0  0  0
  -30.6769  -22.5195   21.4524 C   0  0  0  0  0  0
  -29.6564  -23.1322   20.4740 C   0  0  0  0  0  0
  -29.5728  -24.6680   20.6297 C   0  0  0  0  0  0
  -29.8217  -20.0168   23.0600 C   0  0  0  0  0  0
  -30.3958  -16.7603   21.4003 C   0  0  0  0  0  0
  -28.3895  -25.3133   19.8896 C   0  0  0  0  0  0
  -31.6487  -17.5919   21.8651 C   0  0  0  0  0  0
  -31.8741  -20.7947   20.1349 N   0  0  0  0  0  0
  -32.1212  -19.4548   20.2501 N   0  0  0  0  0  0
  -30.7575  -20.0331   21.9368 N   0  0  0  0  0  0
  -30.3512  -15.2950   21.6596 N   0  0  0  0  0  0
  -31.4633  -12.3784   19.1469 H   0  0  0  0  0  0
  -30.2922  -11.2821   19.7950 H   0  0  0  0  0  0
  -29.7415  -11.8288   17.4169 H   0  0  0  0  0  0
  -29.6723  -13.5293   17.7949 H   0  0  0  0  0  0
  -27.8232  -11.3259   18.7795 H   0  0  0  0  0  0
  -27.3692  -12.6765   17.7758 H   0  0  0  0  0  0
  -27.7273  -14.2557   19.6087 H   0  0  0  0  0  0
  -28.6516  -11.8761   21.2770 H   0  0  0  0  0  0
  -28.3538  -13.4573   21.8712 H   0  0  0  0  0  0
  -25.2734   -9.5711   22.4756 H   0  0  0  0  0  0
  -23.9985   -7.4657   22.7500 H   0  0  0  0  0  0
  -21.0811   -8.8747   19.8968 H   0  0  0  0  0  0
  -22.3648  -10.9657   19.6163 H   0  0  0  0  0  0
  -21.2005   -7.6150   23.9697 H   0  0  0  0  0  0
  -21.1486   -6.0537   25.9068 H   0  0  0  0  0  0
  -22.0596   -2.7605   23.2843 H   0  0  0  0  0  0
  -22.4103  -11.9887   22.4753 H   0  0  0  0  0  0
  -21.1135  -13.1290   22.2568 H   0  0  0  0  0  0
  -24.6714  -15.8422   20.5286 H   0  0  0  0  0  0
  -26.2954  -15.6249   20.1089 H   0  0  0  0  0  0
  -26.7088  -32.5524   23.1124 H   0  0  0  0  0  0
  -24.9987  -33.9755   25.0408 H   0  0  0  0  0  0
  -22.6889  -31.3076   21.4072 H   0  0  0  0  0  0
  -23.3757  -35.9655   23.3323 H   0  0  0  0  0  0
  -24.3580  -36.8926   22.2052 H   0  0  0  0  0  0
  -23.7257  -37.6522   23.6656 H   0  0  0  0  0  0
  -26.0430  -31.5898   20.5896 H   0  0  0  0  0  0
  -26.8207  -30.8831   21.9787 H   0  0  0  0  0  0
  -28.0966  -29.0934   21.1591 H   0  0  0  0  0  0
  -26.0334  -25.9794   18.9853 H   0  0  0  0  0  0
  -23.9723  -27.2943   19.0314 H   0  0  0  0  0  0
  -23.7151  -30.5948   19.4023 H   0  0  0  0  0  0
  -22.7311  -29.2420   19.8736 H   0  0  0  0  0  0
  -25.1290  -36.1982   25.0820 H   0  0  0  0  0  0
  -20.9960  -28.3252   24.1438 H   0  0  0  0  0  0
  -20.5710  -26.2258   23.3587 H   0  0  0  0  0  0
  -21.6634  -26.7467   22.1163 H   0  0  0  0  0  0
  -19.6931  -25.6308   21.1216 H   0  0  0  0  0  0
  -19.6716  -27.3212   20.6743 H   0  0  0  0  0  0
  -17.4196  -26.6671   21.4020 H   0  0  0  0  0  0
  -18.0345  -26.0059   22.9007 H   0  0  0  0  0  0
  -19.7950  -30.7236   24.2290 H   0  0  0  0  0  0
  -17.5035  -31.6271   24.5156 H   0  0  0  0  0  0
  -15.5358  -30.2990   23.7651 H   0  0  0  0  0  0
  -15.8673  -28.0838   22.7040 H   0  0  0  0  0  0
  -24.5887  -30.7034   25.7724 H   0  0  0  0  0  0
  -24.8893  -32.2790   26.4938 H   0  0  0  0  0  0
  -25.8042  -30.8761   27.0161 H   0  0  0  0  0  0
  -26.2871  -29.6813   24.1108 H   0  0  0  0  0  0
  -27.4156  -29.7306   25.4463 H   0  0  0  0  0  0
  -27.8657  -30.4432   23.9153 H   0  0  0  0  0  0
  -27.2651  -33.3635   26.2061 H   0  0  0  0  0  0
  -28.3840  -32.6891   25.0302 H   0  0  0  0  0  0
  -28.0693  -31.8444   26.5391 H   0  0  0  0  0  0
  -28.2580  -38.0123   24.7516 H   0  0  0  0  0  0
  -28.1103  -36.2643   24.6298 H   0  0  0  0  0  0
  -27.2279  -37.1461   25.8860 H   0  0  0  0  0  0
  -20.9310  -29.8748   21.6929 H   0  0  0  0  0  0
  -26.0204  -38.2877   24.1388 H   0  0  0  0  0  0
  -31.3509  -19.9942   24.6320 H   0  0  0  0  0  0
  -29.7321  -20.3674   25.2025 H   0  0  0  0  0  0
  -30.6699  -21.5816   24.3550 H   0  0  0  0  0  0
  -32.6187  -18.2883   23.6955 H   0  0  0  0  0  0
  -32.2649  -16.5853   23.7259 H   0  0  0  0  0  0
  -30.9716  -17.7310   23.9654 H   0  0  0  0  0  0
  -33.8235  -17.6160   21.5689 H   0  0  0  0  0  0
  -32.9495  -16.9403   20.2068 H   0  0  0  0  0  0
  -33.1633  -16.0013   21.6788 H   0  0  0  0  0  0
  -28.8287  -15.1507   23.1155 H   0  0  0  0  0  0
  -30.3935  -15.4869   23.7965 H   0  0  0  0  0  0
  -30.0603  -13.8803   23.2386 H   0  0  0  0  0  0
  -31.5889  -23.1165   21.4433 H   0  0  0  0  0  0
  -30.2905  -22.6059   22.4638 H   0  0  0  0  0  0
  -28.6821  -22.6698   20.6404 H   0  0  0  0  0  0
  -29.9389  -22.8979   19.4466 H   0  0  0  0  0  0
  -30.5068  -25.1151   20.2869 H   0  0  0  0  0  0
  -29.4911  -24.9136   21.6887 H   0  0  0  0  0  0
  -28.9631  -20.6363   22.7950 H   0  0  0  0  0  0
  -29.4110  -19.0171   23.1817 H   0  0  0  0  0  0
  -30.2719  -16.9115   20.3257 H   0  0  0  0  0  0
  -29.4965  -17.1998   21.8310 H   0  0  0  0  0  0
  -27.4726  -24.8595   20.2688 H   0  0  0  0  0  0
  -28.4476  -25.1056   18.8207 H   0  0  0  0  0  0
  1 25  1  0  0  0
  1 30  2  0  0  0
  1 87  1  0  0  0
  2  3  1  0  0  0
  2 25  1  0  0  0
  2 88  1  0  0  0
  2 89  1  0  0  0
  3  4  1  0  0  0
  3 90  1  0  0  0
  3 91  1  0  0  0
  4  5  1  0  0  0
  4 92  1  0  0  0
  4 93  1  0  0  0
  5  6  1  0  0  0
  5 26  1  0  0  0
  5 94  1  0  0  0
  6 25  1  0  0  0
  6 95  1  0  0  0
  6 96  1  0  0  0
  7  8  2  0  0  0
  7 26  1  0  0  0
  7 29  1  0  0  0
  8  9  1  0  0  0
  8 22  1  0  0  0
  9 10  1  0  0  0
  9 27  2  0  0  0
 10 11  2  0  0  0
 10 15  1  0  0  0
 11 12  1  0  0  0
 11 97  1  0  0  0
 12 13  2  0  0  0
 12 98  1  0  0  0
 13 14  1  0  0  0
 13 31  1  0  0  0
 14 15  2  0  0  0
 14 99  1  0  0  0
 15100  1  0  0  0
 16 17  2  0  0  0
 16 21  1  0  0  0
 16 31  1  0  0  0
 17 18  1  0  0  0
 17101  1  0  0  0
 18 19  2  0  0  0
 18102  1  0  0  0
 19 20  1  0  0  0
 19 24  1  0  0  0
 20 21  2  0  0  0
 20103  1  0  0  0
 21 23  1  0  0  0
 22 28  1  0  0  0
 22 32  2  0  0  0
 26 27  1  0  0  0
 28104  1  0  0  0
 28105  1  0  0  0
 29106  1  0  0  0
 29107  1  0  0  0
 33 34  1  0  0  0
 33 66  1  0  0  0
 33 70  2  0  0  0
 34 36  1  0  0  0
 34 59  1  0  0  0
 34108  1  0  0  0
 35 44  2  0  0  0
 35 45  1  0  0  0
 35 68  1  0  0  0
 36 56  1  0  0  0
 36109  1  0  0  0
 37 39  1  0  0  0
 37 47  1  0  0  0
 37 66  1  0  0  0
 37110  1  0  0  0
 38 43  2  0  0  0
 38 46  1  0  0  0
 38 47  1  0  0  0
 39 64  1  0  0  0
 39 67  2  0  0  0
 40 52  1  0  0  0
 40 53  2  0  0  0
 40 58  1  0  0  0
 41111  1  0  0  0
 41112  1  0  0  0
 41113  1  0  0  0
 41 48  1  0  0  0
 42 43  1  0  0  0
 42 66  1  0  0  0
 42114  1  0  0  0
 42115  1  0  0  0
 43 44  1  0  0  0
 44116  1  0  0  0
 45 46  2  0  0  0
 45117  1  0  0  0
 46118  1  0  0  0
 47119  1  0  0  0
 47120  1  0  0  0
 48 56  1  0  0  0
 48 65  1  0  0  0
 48121  1  0  0  0
 49 50  1  0  0  0
 49 53  1  0  0  0
 49 64  1  0  0  0
 49122  1  0  0  0
 50 51  1  0  0  0
 50123  1  0  0  0
 50124  1  0  0  0
 51 52  1  0  0  0
 51125  1  0  0  0
 51126  1  0  0  0
 52127  1  0  0  0
 52128  1  0  0  0
 53 54  1  0  0  0
 54 55  2  0  0  0
 54129  1  0  0  0
 55 57  1  0  0  0
 55130  1  0  0  0
 56 69  2  0  0  0
 57 58  2  0  0  0
 57131  1  0  0  0
 58132  1  0  0  0
 59 60  1  0  0  0
 59 61  1  0  0  0
 59 62  1  0  0  0
 60133  1  0  0  0
 60134  1  0  0  0
 60135  1  0  0  0
 61136  1  0  0  0
 61137  1  0  0  0
 61138  1  0  0  0
 62139  1  0  0  0
 62140  1  0  0  0
 62141  1  0  0  0
 63 65  1  0  0  0
 63142  1  0  0  0
 63143  1  0  0  0
 63144  1  0  0  0
 64145  1  0  0  0
 65146  1  0  0  0
 68 82  1  0  0  0
 71 77  1  0  0  0
 71 84  2  0  0  0
 71 86  1  0  0  0
 72 83  1  0  0  0
 72 85  2  0  0  0
 72 86  1  0  0  0
 73 80  1  0  0  0
 73147  1  0  0  0
 73148  1  0  0  0
 73149  1  0  0  0
 74150  1  0  0  0
 74151  1  0  0  0
 74152  1  0  0  0
 74 83  1  0  0  0
 75 83  1  0  0  0
 75153  1  0  0  0
 75154  1  0  0  0
 75155  1  0  0  0
 76 87  1  0  0  0
 76156  1  0  0  0
 76157  1  0  0  0
 76158  1  0  0  0
 77 78  1  0  0  0
 77159  1  0  0  0
 77160  1  0  0  0
 78 79  1  0  0  0
 78161  1  0  0  0
 78162  1  0  0  0
 79 82  1  0  0  0
 79163  1  0  0  0
 79164  1  0  0  0
 80 86  1  0  0  0
 80165  1  0  0  0
 80166  1  0  0  0
 81 83  1  0  0  0
 81 87  1  0  0  0
 81167  1  0  0  0
 81168  1  0  0  0
 82169  1  0  0  0
 82170  1  0  0  0
 84 85  1  0  0  0
M  ISO  4   1 100  68 101  82 101  87 100
M  END
> <chiral flag>
0

> <version>
0

> <s_m_source_file>
/data/baiqing/PycharmProjects/Reinvent-master-3.2/result/LINK_invent/BTK/process_docking_weight1_custom_sum_contain_oxygen_bond_distance_aromatic_linkinvent_7_9_3/rearranged_h_0065.sdf

> <i_m_source_file_index>
18

> <r_mmod_Potential_Energy-OPLS-2005>
114.735969543457

> <r_mmod_Stretch_Energy-OPLS-2005>
46.950569152832

> <r_mmod_Bend_Energy-OPLS-2005>
139.403656005859

> <r_mmod_Torsional_Energy-OPLS-2005>
291.985565185547

> <r_mmod_Improper_Torsional_Energy-OPLS-2005>
3.04026222229004

> <r_mmod_Van_der_Waal_Energy-OPLS-2005>
152.155426025391

> <r_mmod_Electrostatic_Energy-OPLS-2005>
-308.059753417969

> <r_mmod_Solvation_Energy-OPLS-2005>
-221.291152954102

> <b_mmod_Minimization_Converged-OPLS-2005>
0

> <r_mmod_RMS_Derivative-OPLS-2005>
2.43380093574524

$$$$
20
                    3D
 Structure written by MMmdl.
177185  0  0  1  0            999 V2000
  -30.7336  -14.4383   20.6212 C   0  0  0  0  0  0
  -30.4209  -12.3054   19.3997 C   0  0  0  0  0  0
  -29.4867  -12.5133   18.1912 C   0  0  0  0  0  0
  -28.0107  -12.3743   18.6110 C   0  0  0  0  0  0
  -27.6682  -13.2005   19.8769 C   0  0  2  0  0  0
  -28.7114  -12.9608   20.9895 C   0  0  0  0  0  0
  -25.2626  -13.8135   20.5687 C   0  0  0  0  0  0
  -24.1873  -13.0450   20.9160 C   0  0  0  0  0  0
  -24.6401  -11.6893   20.8728 C   0  0  0  0  0  0
  -23.9046  -10.4286   21.0377 C   0  0  0  0  0  0
  -24.3606   -9.4217   21.9173 C   0  0  0  0  0  0
  -23.6281   -8.2253   22.0769 C   0  0  0  0  0  0
  -22.4275   -8.0276   21.3546 C   0  0  0  0  0  0
  -21.9895   -9.0244   20.4652 C   0  0  0  0  0  0
  -22.7213  -10.2122   20.3042 C   0  0  0  0  0  0
  -21.6857   -6.0730   22.5271 C   0  0  0  0  0  0
  -21.4015   -6.5631   23.8208 C   0  0  0  0  0  0
  -21.3661   -5.6791   24.9169 C   0  0  0  0  0  0
  -21.6045   -4.3052   24.7225 C   0  0  0  0  0  0
  -21.8821   -3.8139   23.4344 C   0  0  0  0  0  0
  -21.9196   -4.6953   22.3403 C   0  0  0  0  0  0
  -22.7882  -13.5245   21.1827 C   0  0  0  0  0  0
  -22.1663   -4.2143   21.0975 F   0  0  0  0  0  0
  -21.5632   -3.4533   25.7735 F   0  0  0  0  0  0
  -30.0458  -13.2723   20.4442 N   0  0  0  0  0  0
  -26.3069  -12.9306   20.3371 N   0  0  0  0  0  0
  -25.9333  -11.6471   20.5763 N   0  0  0  0  0  0
  -22.0516  -12.8252   22.0368 N   0  0  0  0  0  0
  -25.4368  -15.1872   20.4121 N   0  0  0  0  0  0
  -31.7744  -14.7021   20.0114 O   0  0  0  0  0  0
  -21.6638   -6.8875   21.4243 O   0  0  0  0  0  0
  -22.3583  -14.5562   20.6674 O   0  0  0  0  0  0
  -24.6229  -31.8653   23.2156 C   0  0  0  0  0  0
  -25.9087  -32.4791   23.8454 C   0  0  1  0  0  0
  -27.2269  -27.4144   20.0281 C   0  0  0  0  0  0
  -25.5927  -33.8607   24.2347 N   0  0  0  0  0  0
  -23.4142  -30.4967   21.5563 C   0  0  2  0  0  0
  -24.8439  -28.9605   20.1279 C   0  0  0  0  0  0
  -22.7476  -29.4662   22.4969 C   0  0  0  0  0  0
  -18.0316  -28.1379   22.8457 C   0  0  0  0  0  0
  -24.1483  -36.7330   23.2630 C   0  0  0  0  0  0
  -25.9528  -30.8184   21.3719 C   0  0  0  0  0  0
  -26.0215  -29.4543   20.7057 C   0  0  0  0  0  0
  -27.2184  -28.6929   20.6495 C   0  0  0  0  0  0
  -25.9986  -26.9215   19.5215 C   0  0  0  0  0  0
  -24.8241  -27.6855   19.5508 C   0  0  0  0  0  0
  -23.6224  -29.8456   20.1687 C   0  0  0  0  0  0
  -25.4094  -36.3109   24.0335 C   0  0  1  0  0  0
  -20.5918  -28.3677   23.1261 C   0  0  2  0  0  0
  -20.6806  -26.9414   22.5369 C   0  0  0  0  0  0
  -19.5773  -26.6387   21.5171 C   0  0  0  0  0  0
  -18.1954  -26.7927   22.1592 C   0  0  0  0  0  0
  -19.1575  -28.8839   23.2863 C   0  0  0  0  0  0
  -18.9491  -30.1427   23.8883 C   0  0  0  0  0  0
  -17.6494  -30.6567   24.0536 C   0  0  0  0  0  0
  -25.9008  -34.9458   23.5132 C   0  0  0  0  0  0
  -16.5373  -29.9071   23.6298 C   0  0  0  0  0  0
  -16.7312  -28.6496   23.0319 C   0  0  0  0  0  0
  -26.4490  -31.6598   25.0799 C   0  0  0  0  0  0
  -25.3733  -31.3683   26.1538 C   0  0  0  0  0  0
  -27.0331  -30.3041   24.6168 C   0  0  0  0  0  0
  -27.6082  -32.4341   25.7539 C   0  0  0  0  0  0
  -27.5603  -37.1812   24.8461 C   0  0  0  0  0  0
  -21.4207  -29.3051   22.3680 N   0  0  0  0  0  0
  -26.4289  -37.3786   23.9415 N   0  0  0  0  0  0
  -24.6828  -31.0733   22.1066 N   0  0  0  0  0  0
  -23.4230  -28.8150   23.2991 O   0  0  0  0  0  0
  -28.4039  -26.6771   19.9355 O   0  0  0  0  0  0
  -26.5564  -34.8896   22.4688 O   0  0  0  0  0  0
  -23.5405  -32.1452   23.7480 O   0  0  0  0  0  0
  -29.3734  -19.8621   19.6336 C   0  0  0  0  0  0
  -29.1242  -21.1391   20.1052 C   0  0  0  0  0  0
  -29.6660  -21.0537   21.4365 C   0  0  0  0  0  0
  -29.7870  -22.0860   22.5258 C   0  0  0  0  0  0
  -27.5069  -23.1356   20.2860 C   0  0  0  0  0  0
  -27.3130  -21.5418   18.5057 C   0  0  0  0  0  0
  -30.6981  -22.4457   18.1496 C   0  0  0  0  0  0
  -28.7941  -23.3477   16.9442 C   0  0  0  0  0  0
  -30.5540  -24.8046   20.1690 C   0  0  0  0  0  0
  -30.5271  -15.1909   22.9100 C   0  0  0  0  0  0
  -30.5163  -17.7175   20.5570 C   0  0  0  0  0  0
  -29.5575  -16.6074   21.0883 C   0  0  0  0  0  0
  -28.5394  -25.7604   18.8120 C   0  0  0  0  0  0
  -28.3959  -22.2945   19.3351 C   0  0  0  0  0  0
  -29.3667  -23.2104   18.3903 C   0  0  0  0  0  0
  -29.7140  -24.7114   18.8760 C   0  0  2  0  0  0
  -30.1588  -19.8471   21.7175 N   0  0  0  0  0  0
  -29.9876  -19.0982   20.6093 N   0  0  0  0  0  0
  -30.1946  -15.3247   21.4887 N   0  0  0  0  0  0
  -30.5813  -25.2050   17.9830 F   0  0  0  0  0  0
  -31.4635  -12.4010   19.0938 H   0  0  0  0  0  0
  -30.3213  -11.2866   19.7797 H   0  0  0  0  0  0
  -29.7138  -11.7912   17.4048 H   0  0  0  0  0  0
  -29.6568  -13.4988   17.7532 H   0  0  0  0  0  0
  -27.8178  -11.3167   18.7968 H   0  0  0  0  0  0
  -27.3553  -12.6590   17.7863 H   0  0  0  0  0  0
  -27.7206  -14.2516   19.5943 H   0  0  0  0  0  0
  -28.6890  -11.9186   21.3146 H   0  0  0  0  0  0
  -28.4584  -13.5432   21.8745 H   0  0  0  0  0  0
  -25.2751   -9.5704   22.4746 H   0  0  0  0  0  0
  -23.9989   -7.4661   22.7504 H   0  0  0  0  0  0
  -21.0825   -8.8760   19.8955 H   0  0  0  0  0  0
  -22.3668  -10.9667   19.6151 H   0  0  0  0  0  0
  -21.2004   -7.6145   23.9711 H   0  0  0  0  0  0
  -21.1483   -6.0515   25.9080 H   0  0  0  0  0  0
  -22.0602   -2.7603   23.2847 H   0  0  0  0  0  0
  -22.4128  -11.9895   22.4725 H   0  0  0  0  0  0
  -21.1152  -13.1309   22.2590 H   0  0  0  0  0  0
  -24.6745  -15.8444   20.5364 H   0  0  0  0  0  0
  -26.2972  -15.6280   20.1149 H   0  0  0  0  0  0
  -26.7194  -32.5388   23.1244 H   0  0  0  0  0  0
  -25.0095  -33.9793   25.0505 H   0  0  0  0  0  0
  -22.7061  -31.3160   21.4223 H   0  0  0  0  0  0
  -23.3731  -35.9681   23.3246 H   0  0  0  0  0  0
  -24.3610  -36.8998   22.2067 H   0  0  0  0  0  0
  -23.7247  -37.6526   23.6666 H   0  0  0  0  0  0
  -26.0862  -31.5891   20.6096 H   0  0  0  0  0  0
  -26.8354  -30.8570   21.9990 H   0  0  0  0  0  0
  -28.1373  -29.0912   21.0592 H   0  0  0  0  0  0
  -25.8792  -25.9352   19.1085 H   0  0  0  0  0  0
  -23.9051  -27.2874   19.1423 H   0  0  0  0  0  0
  -23.7667  -30.6273   19.4219 H   0  0  0  0  0  0
  -22.7354  -29.3017   19.8448 H   0  0  0  0  0  0
  -25.1281  -36.1994   25.0834 H   0  0  0  0  0  0
  -21.0013  -28.3243   24.1385 H   0  0  0  0  0  0
  -20.5718  -26.2290   23.3575 H   0  0  0  0  0  0
  -21.6666  -26.7448   22.1160 H   0  0  0  0  0  0
  -19.6916  -25.6299   21.1209 H   0  0  0  0  0  0
  -19.6673  -27.3149   20.6665 H   0  0  0  0  0  0
  -17.4226  -26.6649   21.3992 H   0  0  0  0  0  0
  -18.0350  -26.0078   22.8992 H   0  0  0  0  0  0
  -19.7967  -30.7230   24.2264 H   0  0  0  0  0  0
  -17.5052  -31.6229   24.5162 H   0  0  0  0  0  0
  -15.5369  -30.2975   23.7611 H   0  0  0  0  0  0
  -15.8724  -28.0807   22.7033 H   0  0  0  0  0  0
  -24.5950  -30.6961   25.7897 H   0  0  0  0  0  0
  -24.8829  -32.2812   26.4941 H   0  0  0  0  0  0
  -25.8125  -30.8933   27.0311 H   0  0  0  0  0  0
  -26.2880  -29.6797   24.1208 H   0  0  0  0  0  0
  -27.4111  -29.7303   25.4634 H   0  0  0  0  0  0
  -27.8741  -30.4391   23.9354 H   0  0  0  0  0  0
  -27.2739  -33.3678   26.2067 H   0  0  0  0  0  0
  -28.3918  -32.6811   25.0364 H   0  0  0  0  0  0
  -28.0705  -31.8461   26.5476 H   0  0  0  0  0  0
  -28.2579  -38.0152   24.7591 H   0  0  0  0  0  0
  -28.1165  -36.2689   24.6224 H   0  0  0  0  0  0
  -27.2322  -37.1409   25.8861 H   0  0  0  0  0  0
  -20.9388  -29.8860   21.6958 H   0  0  0  0  0  0
  -26.0182  -38.2853   24.1446 H   0  0  0  0  0  0
  -29.1631  -19.4336   18.6642 H   0  0  0  0  0  0
  -28.9839  -22.8168   22.5223 H   0  0  0  0  0  0
  -30.7371  -22.6135   22.4354 H   0  0  0  0  0  0
  -29.7669  -21.6308   23.5165 H   0  0  0  0  0  0
  -26.9095  -22.5050   20.9452 H   0  0  0  0  0  0
  -26.7765  -23.7237   19.7346 H   0  0  0  0  0  0
  -28.0472  -23.8339   20.9102 H   0  0  0  0  0  0
  -26.7097  -20.9056   19.1561 H   0  0  0  0  0  0
  -27.7325  -20.8885   17.7421 H   0  0  0  0  0  0
  -26.6117  -22.2131   18.0080 H   0  0  0  0  0  0
  -30.5112  -21.4715   17.6959 H   0  0  0  0  0  0
  -31.2609  -22.2771   19.0660 H   0  0  0  0  0  0
  -31.3632  -22.9743   17.4655 H   0  0  0  0  0  0
  -28.7199  -22.3873   16.4336 H   0  0  0  0  0  0
  -29.4325  -23.9622   16.3049 H   0  0  0  0  0  0
  -27.8099  -23.8089   16.9156 H   0  0  0  0  0  0
  -30.0530  -24.3764   21.0275 H   0  0  0  0  0  0
  -30.7878  -25.8437   20.4129 H   0  0  0  0  0  0
  -31.5090  -24.2874   20.0731 H   0  0  0  0  0  0
  -30.8138  -16.1476   23.3473 H   0  0  0  0  0  0
  -31.3546  -14.4966   23.0797 H   0  0  0  0  0  0
  -29.6690  -14.8083   23.4617 H   0  0  0  0  0  0
  -30.7850  -17.4959   19.5229 H   0  0  0  0  0  0
  -31.4476  -17.6969   21.1249 H   0  0  0  0  0  0
  -28.8147  -16.3817   20.3213 H   0  0  0  0  0  0
  -28.9930  -16.9873   21.9395 H   0  0  0  0  0  0
  -27.6403  -25.2084   18.5954 H   0  0  0  0  0  0
  -28.6341  -26.3673   17.9064 H   0  0  0  0  0  0
  1 25  1  0  0  0
  1 30  2  0  0  0
  1 89  1  0  0  0
  2  3  1  0  0  0
  2 25  1  0  0  0
  2 91  1  0  0  0
  2 92  1  0  0  0
  3  4  1  0  0  0
  3 93  1  0  0  0
  3 94  1  0  0  0
  4  5  1  0  0  0
  4 95  1  0  0  0
  4 96  1  0  0  0
  5  6  1  0  0  0
  5 26  1  0  0  0
  5 97  1  0  0  0
  6 25  1  0  0  0
  6 98  1  0  0  0
  6 99  1  0  0  0
  7  8  2  0  0  0
  7 26  1  0  0  0
  7 29  1  0  0  0
  8  9  1  0  0  0
  8 22  1  0  0  0
  9 10  1  0  0  0
  9 27  2  0  0  0
 10 11  2  0  0  0
 10 15  1  0  0  0
 11 12  1  0  0  0
 11100  1  0  0  0
 12 13  2  0  0  0
 12101  1  0  0  0
 13 14  1  0  0  0
 13 31  1  0  0  0
 14 15  2  0  0  0
 14102  1  0  0  0
 15103  1  0  0  0
 16 17  2  0  0  0
 16 21  1  0  0  0
 16 31  1  0  0  0
 17 18  1  0  0  0
 17104  1  0  0  0
 18 19  2  0  0  0
 18105  1  0  0  0
 19 20  1  0  0  0
 19 24  1  0  0  0
 20 21  2  0  0  0
 20106  1  0  0  0
 21 23  1  0  0  0
 22 28  1  0  0  0
 22 32  2  0  0  0
 26 27  1  0  0  0
 28107  1  0  0  0
 28108  1  0  0  0
 29109  1  0  0  0
 29110  1  0  0  0
 33 34  1  0  0  0
 33 66  1  0  0  0
 33 70  2  0  0  0
 34 36  1  0  0  0
 34 59  1  0  0  0
 34111  1  0  0  0
 35 44  2  0  0  0
 35 45  1  0  0  0
 35 68  1  0  0  0
 36 56  1  0  0  0
 36112  1  0  0  0
 37 39  1  0  0  0
 37 47  1  0  0  0
 37 66  1  0  0  0
 37113  1  0  0  0
 38 43  2  0  0  0
 38 46  1  0  0  0
 38 47  1  0  0  0
 39 64  1  0  0  0
 39 67  2  0  0  0
 40 52  1  0  0  0
 40 53  2  0  0  0
 40 58  1  0  0  0
 41114  1  0  0  0
 41115  1  0  0  0
 41116  1  0  0  0
 41 48  1  0  0  0
 42 43  1  0  0  0
 42 66  1  0  0  0
 42117  1  0  0  0
 42118  1  0  0  0
 43 44  1  0  0  0
 44119  1  0  0  0
 45 46  2  0  0  0
 45120  1  0  0  0
 46121  1  0  0  0
 47122  1  0  0  0
 47123  1  0  0  0
 48 56  1  0  0  0
 48 65  1  0  0  0
 48124  1  0  0  0
 49 50  1  0  0  0
 49 53  1  0  0  0
 49 64  1  0  0  0
 49125  1  0  0  0
 50 51  1  0  0  0
 50126  1  0  0  0
 50127  1  0  0  0
 51 52  1  0  0  0
 51128  1  0  0  0
 51129  1  0  0  0
 52130  1  0  0  0
 52131  1  0  0  0
 53 54  1  0  0  0
 54 55  2  0  0  0
 54132  1  0  0  0
 55 57  1  0  0  0
 55133  1  0  0  0
 56 69  2  0  0  0
 57 58  2  0  0  0
 57134  1  0  0  0
 58135  1  0  0  0
 59 60  1  0  0  0
 59 61  1  0  0  0
 59 62  1  0  0  0
 60136  1  0  0  0
 60137  1  0  0  0
 60138  1  0  0  0
 61139  1  0  0  0
 61140  1  0  0  0
 61141  1  0  0  0
 62142  1  0  0  0
 62143  1  0  0  0
 62144  1  0  0  0
 63 65  1  0  0  0
 63145  1  0  0  0
 63146  1  0  0  0
 63147  1  0  0  0
 64148  1  0  0  0
 65149  1  0  0  0
 68 83  1  0  0  0
 71 72  2  0  0  0
 71 88  1  0  0  0
 71150  1  0  0  0
 72 73  1  0  0  0
 72 84  1  0  0  0
 73 74  1  0  0  0
 73 87  2  0  0  0
 74151  1  0  0  0
 74152  1  0  0  0
 74153  1  0  0  0
 75154  1  0  0  0
 75155  1  0  0  0
 75156  1  0  0  0
 75 84  1  0  0  0
 76 84  1  0  0  0
 76157  1  0  0  0
 76158  1  0  0  0
 76159  1  0  0  0
 77160  1  0  0  0
 77161  1  0  0  0
 77162  1  0  0  0
 77 85  1  0  0  0
 78 85  1  0  0  0
 78163  1  0  0  0
 78164  1  0  0  0
 78165  1  0  0  0
 79166  1  0  0  0
 79167  1  0  0  0
 79168  1  0  0  0
 79 86  1  0  0  0
 80 89  1  0  0  0
 80169  1  0  0  0
 80170  1  0  0  0
 80171  1  0  0  0
 81 82  1  0  0  0
 81 88  1  0  0  0
 81172  1  0  0  0
 81173  1  0  0  0
 82 89  1  0  0  0
 82174  1  0  0  0
 82175  1  0  0  0
 83 86  1  0  0  0
 83176  1  0  0  0
 83177  1  0  0  0
 84 85  1  0  0  0
 85 86  1  0  0  0
 86 90  1  0  0  0
 87 88  1  0  0  0
M  ISO  4   1 100  68 101  83 101  89 100
M  END
> <chiral flag>
0

> <version>
0

> <s_m_source_file>
/data/baiqing/PycharmProjects/Reinvent-master-3.2/result/LINK_invent/BTK/process_docking_weight1_custom_sum_contain_oxygen_bond_distance_aromatic_linkinvent_7_9_3/rearranged_h_0065.sdf

> <i_m_source_file_index>
19

> <r_mmod_Potential_Energy-OPLS-2005>
216.543762207031

> <r_mmod_Stretch_Energy-OPLS-2005>
76.4573135375977

> <r_mmod_Bend_Energy-OPLS-2005>
156.583312988281

> <r_mmod_Torsional_Energy-OPLS-2005>
344.679138183594

> <r_mmod_Improper_Torsional_Energy-OPLS-2005>
2.61768889427185

> <r_mmod_Van_der_Waal_Energy-OPLS-2005>
166.332214355469

> <r_mmod_Electrostatic_Energy-OPLS-2005>
-352.799591064453

> <r_mmod_Solvation_Energy-OPLS-2005>
-191.8232421875

> <b_mmod_Minimization_Converged-OPLS-2005>
0

> <r_mmod_RMS_Derivative-OPLS-2005>
5.26672458648682

$$$$
21
                    3D
 Structure written by MMmdl.
165173  0  0  1  0            999 V2000
  -30.6034  -14.7699   20.3682 C   0  0  0  0  0  0
  -30.4501  -12.4350   19.4795 C   0  0  0  0  0  0
  -29.5242  -12.3665   18.2419 C   0  0  0  0  0  0
  -28.0352  -12.2826   18.6515 C   0  0  0  0  0  0
  -27.6380  -13.2074   19.8363 C   0  0  2  0  0  0
  -28.6940  -13.1962   20.9593 C   0  0  0  0  0  0
  -25.2583  -13.8128   20.5729 C   0  0  0  0  0  0
  -24.1826  -13.0421   20.9190 C   0  0  0  0  0  0
  -24.6381  -11.6889   20.8758 C   0  0  0  0  0  0
  -23.9039  -10.4289   21.0436 C   0  0  0  0  0  0
  -24.3589   -9.4211   21.9214 C   0  0  0  0  0  0
  -23.6276   -8.2249   22.0780 C   0  0  0  0  0  0
  -22.4268   -8.0287   21.3559 C   0  0  0  0  0  0
  -21.9906   -9.0250   20.4647 C   0  0  0  0  0  0
  -22.7223  -10.2136   20.3069 C   0  0  0  0  0  0
  -21.6856   -6.0735   22.5276 C   0  0  0  0  0  0
  -21.4016   -6.5639   23.8205 C   0  0  0  0  0  0
  -21.3661   -5.6794   24.9169 C   0  0  0  0  0  0
  -21.6048   -4.3056   24.7215 C   0  0  0  0  0  0
  -21.8822   -3.8153   23.4334 C   0  0  0  0  0  0
  -21.9198   -4.6970   22.3393 C   0  0  0  0  0  0
  -22.7857  -13.5250   21.1840 C   0  0  0  0  0  0
  -22.1672   -4.2167   21.0969 F   0  0  0  0  0  0
  -21.5627   -3.4534   25.7726 F   0  0  0  0  0  0
  -29.9810  -13.5390   20.3430 N   0  0  0  0  0  0
  -26.2959  -12.9266   20.3307 N   0  0  0  0  0  0
  -25.9305  -11.6449   20.5812 N   0  0  0  0  0  0
  -22.0480  -12.8242   22.0374 N   0  0  0  0  0  0
  -25.4377  -15.1839   20.4179 N   0  0  0  0  0  0
  -31.8325  -14.8379   20.2705 O   0  0  0  0  0  0
  -21.6648   -6.8875   21.4239 O   0  0  0  0  0  0
  -22.3558  -14.5576   20.6713 O   0  0  0  0  0  0
  -24.6279  -31.8564   23.2015 C   0  0  0  0  0  0
  -25.9119  -32.4761   23.8350 C   0  0  1  0  0  0
  -27.2224  -27.2860   20.1314 C   0  0  0  0  0  0
  -25.5937  -33.8566   24.2270 N   0  0  0  0  0  0
  -23.4228  -30.4782   21.5441 C   0  0  2  0  0  0
  -24.8704  -28.9230   20.1188 C   0  0  0  0  0  0
  -22.7482  -29.4597   22.4941 C   0  0  0  0  0  0
  -18.0285  -28.1378   22.8485 C   0  0  0  0  0  0
  -24.1490  -36.7289   23.2631 C   0  0  0  0  0  0
  -25.9653  -30.7721   21.3828 C   0  0  0  0  0  0
  -26.0364  -29.3922   20.7372 C   0  0  0  0  0  0
  -27.2134  -28.5827   20.7392 C   0  0  0  0  0  0
  -26.0512  -26.8970   19.4531 C   0  0  0  0  0  0
  -24.8801  -27.6793   19.4680 C   0  0  0  0  0  0
  -23.6408  -29.8090   20.1614 C   0  0  0  0  0  0
  -25.4114  -36.3074   24.0324 C   0  0  1  0  0  0
  -20.5882  -28.3683   23.1282 C   0  0  2  0  0  0
  -20.6774  -26.9404   22.5408 C   0  0  0  0  0  0
  -19.5752  -26.6374   21.5215 C   0  0  0  0  0  0
  -18.1931  -26.7925   22.1616 C   0  0  0  0  0  0
  -19.1539  -28.8849   23.2879 C   0  0  0  0  0  0
  -18.9457  -30.1457   23.8898 C   0  0  0  0  0  0
  -17.6459  -30.6583   24.0558 C   0  0  0  0  0  0
  -25.9057  -34.9445   23.5099 C   0  0  0  0  0  0
  -16.5349  -29.9078   23.6333 C   0  0  0  0  0  0
  -16.7277  -28.6490   23.0358 C   0  0  0  0  0  0
  -26.4494  -31.6575   25.0728 C   0  0  0  0  0  0
  -25.3715  -31.3705   26.1442 C   0  0  0  0  0  0
  -27.0349  -30.3001   24.6193 C   0  0  0  0  0  0
  -27.6043  -32.4311   25.7521 C   0  0  0  0  0  0
  -27.5596  -37.1790   24.8443 C   0  0  0  0  0  0
  -21.4188  -29.3040   22.3684 N   0  0  0  0  0  0
  -26.4282  -37.3784   23.9424 N   0  0  0  0  0  0
  -24.6904  -31.0543   22.0992 N   0  0  0  0  0  0
  -23.4186  -28.8141   23.3031 O   0  0  0  0  0  0
  -28.3600  -26.4588   20.0813 O   0  0  0  0  0  0
  -26.5625  -34.8915   22.4662 O   0  0  0  0  0  0
  -23.5435  -32.1387   23.7326 O   0  0  0  0  0  0
  -29.2728  -21.8138   21.6282 C   0  0  0  0  0  0
  -28.7179  -21.1185   19.6749 C   0  0  0  0  0  0
  -28.7064  -22.3052   20.4030 C   0  0  0  0  0  0
  -28.3341  -23.9172   18.4863 C   0  0  0  0  0  0
  -26.5486  -23.4655   20.1859 C   0  0  0  0  0  0
  -30.0308  -25.1008   20.9406 C   0  0  0  0  0  0
  -27.8617  -25.2233   22.1449 C   0  0  0  0  0  0
  -29.2873  -16.0065   18.7782 C   0  0  0  0  0  0
  -29.1589  -18.5528   20.0277 C   0  0  0  0  0  0
  -30.0357  -17.3432   20.6900 C   0  0  0  0  0  0
  -28.0616  -23.7165   19.9946 C   0  0  0  0  0  0
  -28.5013  -25.1127   20.7441 C   0  0  0  0  0  0
  -29.5490  -20.4907   21.6399 N   0  0  0  0  0  0
  -29.2023  -20.0237   20.4175 N   0  0  0  0  0  0
  -29.8232  -15.9126   20.1472 N   0  0  0  0  0  0
  -31.4866  -12.5731   19.1671 H   0  0  0  0  0  0
  -30.4231  -11.4926   20.0320 H   0  0  0  0  0  0
  -29.7761  -11.4811   17.6559 H   0  0  0  0  0  0
  -29.7107  -13.1912   17.5592 H   0  0  0  0  0  0
  -27.8537  -11.2446   18.9315 H   0  0  0  0  0  0
  -27.3953  -12.4742   17.7910 H   0  0  0  0  0  0
  -27.5897  -14.2099   19.4287 H   0  0  0  0  0  0
  -28.7432  -12.2199   21.4433 H   0  0  0  0  0  0
  -28.4374  -13.9171   21.7378 H   0  0  0  0  0  0
  -25.2727   -9.5693   22.4789 H   0  0  0  0  0  0
  -23.9994   -7.4641   22.7491 H   0  0  0  0  0  0
  -21.0867   -8.8754   19.8907 H   0  0  0  0  0  0
  -22.3708  -10.9676   19.6165 H   0  0  0  0  0  0
  -21.2014   -7.6149   23.9710 H   0  0  0  0  0  0
  -21.1477   -6.0528   25.9073 H   0  0  0  0  0  0
  -22.0601   -2.7620   23.2828 H   0  0  0  0  0  0
  -22.4096  -11.9881   22.4721 H   0  0  0  0  0  0
  -21.1103  -13.1285   22.2578 H   0  0  0  0  0  0
  -24.6831  -15.8505   20.5365 H   0  0  0  0  0  0
  -26.3146  -15.6163   20.1572 H   0  0  0  0  0  0
  -26.7181  -32.5423   23.1093 H   0  0  0  0  0  0
  -25.0103  -33.9708   25.0430 H   0  0  0  0  0  0
  -22.7185  -31.2994   21.3974 H   0  0  0  0  0  0
  -23.3780  -35.9591   23.3218 H   0  0  0  0  0  0
  -24.3606  -36.8991   22.2064 H   0  0  0  0  0  0
  -23.7203  -37.6446   23.6708 H   0  0  0  0  0  0
  -26.0978  -31.5257   20.6055 H   0  0  0  0  0  0
  -26.8471  -30.8277   22.0098 H   0  0  0  0  0  0
  -28.1117  -28.9413   21.2214 H   0  0  0  0  0  0
  -26.0430  -25.9943   18.8663 H   0  0  0  0  0  0
  -23.9996  -27.3279   18.9481 H   0  0  0  0  0  0
  -23.7665  -30.5824   19.4027 H   0  0  0  0  0  0
  -22.7596  -29.2407   19.8575 H   0  0  0  0  0  0
  -25.1291  -36.1919   25.0814 H   0  0  0  0  0  0
  -20.9973  -28.3252   24.1403 H   0  0  0  0  0  0
  -20.5680  -26.2289   23.3605 H   0  0  0  0  0  0
  -21.6641  -26.7433   22.1202 H   0  0  0  0  0  0
  -19.6908  -25.6285   21.1253 H   0  0  0  0  0  0
  -19.6695  -27.3179   20.6741 H   0  0  0  0  0  0
  -17.4200  -26.6689   21.4011 H   0  0  0  0  0  0
  -18.0315  -26.0069   22.9008 H   0  0  0  0  0  0
  -19.7929  -30.7282   24.2258 H   0  0  0  0  0  0
  -17.5003  -31.6263   24.5153 H   0  0  0  0  0  0
  -15.5351  -30.2973   23.7658 H   0  0  0  0  0  0
  -15.8673  -28.0818   22.7072 H   0  0  0  0  0  0
  -24.5887  -30.7069   25.7750 H   0  0  0  0  0  0
  -24.8917  -32.2870   26.4883 H   0  0  0  0  0  0
  -25.8027  -30.8852   27.0208 H   0  0  0  0  0  0
  -26.2934  -29.6752   24.1202 H   0  0  0  0  0  0
  -27.4030  -29.7256   25.4705 H   0  0  0  0  0  0
  -27.8810  -30.4298   23.9442 H   0  0  0  0  0  0
  -27.2646  -33.3609   26.2102 H   0  0  0  0  0  0
  -28.3869  -32.6869   25.0366 H   0  0  0  0  0  0
  -28.0691  -31.8427   26.5444 H   0  0  0  0  0  0
  -28.2516  -38.0178   24.7612 H   0  0  0  0  0  0
  -28.1188  -36.2718   24.6114 H   0  0  0  0  0  0
  -27.2334  -37.1247   25.8841 H   0  0  0  0  0  0
  -20.9372  -29.8773   21.6906 H   0  0  0  0  0  0
  -26.0151  -38.2841   24.1485 H   0  0  0  0  0  0
  -29.4396  -22.3668   22.5414 H   0  0  0  0  0  0
  -28.3398  -20.9423   18.6777 H   0  0  0  0  0  0
  -27.9200  -23.1116   17.8806 H   0  0  0  0  0  0
  -29.4028  -23.9607   18.2750 H   0  0  0  0  0  0
  -27.8955  -24.8412   18.1121 H   0  0  0  0  0  0
  -26.1782  -22.6958   19.5086 H   0  0  0  0  0  0
  -25.9323  -24.3401   20.0356 H   0  0  0  0  0  0
  -26.3355  -23.1198   21.1974 H   0  0  0  0  0  0
  -30.3692  -24.2768   21.5649 H   0  0  0  0  0  0
  -30.3730  -26.0186   21.4193 H   0  0  0  0  0  0
  -30.5546  -25.0276   19.9883 H   0  0  0  0  0  0
  -27.9895  -24.3045   22.7157 H   0  0  0  0  0  0
  -26.7921  -25.4217   22.0891 H   0  0  0  0  0  0
  -28.3054  -26.0333   22.7244 H   0  0  0  0  0  0
  -28.2674  -16.3862   18.7716 H   0  0  0  0  0  0
  -29.2560  -15.0679   18.2444 H   0  0  0  0  0  0
  -29.9134  -16.6490   18.1571 H   0  0  0  0  0  0
  -28.1070  -18.2716   20.0959 H   0  0  0  0  0  0
  -29.3710  -18.5800   18.9602 H   0  0  0  0  0  0
  -29.8397  -17.3086   21.7629 H   0  0  0  0  0  0
  -31.0945  -17.5858   20.5966 H   0  0  0  0  0  0
  1 25  1  0  0  0
  1 30  2  0  0  0
  1 85  1  0  0  0
  2  3  1  0  0  0
  2 25  1  0  0  0
  2 86  1  0  0  0
  2 87  1  0  0  0
  3  4  1  0  0  0
  3 88  1  0  0  0
  3 89  1  0  0  0
  4  5  1  0  0  0
  4 90  1  0  0  0
  4 91  1  0  0  0
  5  6  1  0  0  0
  5 26  1  0  0  0
  5 92  1  0  0  0
  6 25  1  0  0  0
  6 93  1  0  0  0
  6 94  1  0  0  0
  7  8  2  0  0  0
  7 26  1  0  0  0
  7 29  1  0  0  0
  8  9  1  0  0  0
  8 22  1  0  0  0
  9 10  1  0  0  0
  9 27  2  0  0  0
 10 11  2  0  0  0
 10 15  1  0  0  0
 11 12  1  0  0  0
 11 95  1  0  0  0
 12 13  2  0  0  0
 12 96  1  0  0  0
 13 14  1  0  0  0
 13 31  1  0  0  0
 14 15  2  0  0  0
 14 97  1  0  0  0
 15 98  1  0  0  0
 16 17  2  0  0  0
 16 21  1  0  0  0
 16 31  1  0  0  0
 17 18  1  0  0  0
 17 99  1  0  0  0
 18 19  2  0  0  0
 18100  1  0  0  0
 19 20  1  0  0  0
 19 24  1  0  0  0
 20 21  2  0  0  0
 20101  1  0  0  0
 21 23  1  0  0  0
 22 28  1  0  0  0
 22 32  2  0  0  0
 26 27  1  0  0  0
 28102  1  0  0  0
 28103  1  0  0  0
 29104  1  0  0  0
 29105  1  0  0  0
 33 34  1  0  0  0
 33 66  1  0  0  0
 33 70  2  0  0  0
 34 36  1  0  0  0
 34 59  1  0  0  0
 34106  1  0  0  0
 35 44  2  0  0  0
 35 45  1  0  0  0
 35 68  1  0  0  0
 36 56  1  0  0  0
 36107  1  0  0  0
 37 39  1  0  0  0
 37 47  1  0  0  0
 37 66  1  0  0  0
 37108  1  0  0  0
 38 43  2  0  0  0
 38 46  1  0  0  0
 38 47  1  0  0  0
 39 64  1  0  0  0
 39 67  2  0  0  0
 40 52  1  0  0  0
 40 53  2  0  0  0
 40 58  1  0  0  0
 41109  1  0  0  0
 41110  1  0  0  0
 41111  1  0  0  0
 41 48  1  0  0  0
 42 43  1  0  0  0
 42 66  1  0  0  0
 42112  1  0  0  0
 42113  1  0  0  0
 43 44  1  0  0  0
 44114  1  0  0  0
 45 46  2  0  0  0
 45115  1  0  0  0
 46116  1  0  0  0
 47117  1  0  0  0
 47118  1  0  0  0
 48 56  1  0  0  0
 48 65  1  0  0  0
 48119  1  0  0  0
 49 50  1  0  0  0
 49 53  1  0  0  0
 49 64  1  0  0  0
 49120  1  0  0  0
 50 51  1  0  0  0
 50121  1  0  0  0
 50122  1  0  0  0
 51 52  1  0  0  0
 51123  1  0  0  0
 51124  1  0  0  0
 52125  1  0  0  0
 52126  1  0  0  0
 53 54  1  0  0  0
 54 55  2  0  0  0
 54127  1  0  0  0
 55 57  1  0  0  0
 55128  1  0  0  0
 56 69  2  0  0  0
 57 58  2  0  0  0
 57129  1  0  0  0
 58130  1  0  0  0
 59 60  1  0  0  0
 59 61  1  0  0  0
 59 62  1  0  0  0
 60131  1  0  0  0
 60132  1  0  0  0
 60133  1  0  0  0
 61134  1  0  0  0
 61135  1  0  0  0
 61136  1  0  0  0
 62137  1  0  0  0
 62138  1  0  0  0
 62139  1  0  0  0
 63 65  1  0  0  0
 63140  1  0  0  0
 63141  1  0  0  0
 63142  1  0  0  0
 64143  1  0  0  0
 65144  1  0  0  0
 68 82  1  0  0  0
 71 73  1  0  0  0
 71 83  2  0  0  0
 71145  1  0  0  0
 72 73  2  0  0  0
 72 84  1  0  0  0
 72146  1  0  0  0
 73 81  1  0  0  0
 74147  1  0  0  0
 74148  1  0  0  0
 74149  1  0  0  0
 74 81  1  0  0  0
 75 81  1  0  0  0
 75150  1  0  0  0
 75151  1  0  0  0
 75152  1  0  0  0
 76153  1  0  0  0
 76154  1  0  0  0
 76155  1  0  0  0
 76 82  1  0  0  0
 77 82  1  0  0  0
 77156  1  0  0  0
 77157  1  0  0  0
 77158  1  0  0  0
 78 85  1  0  0  0
 78159  1  0  0  0
 78160  1  0  0  0
 78161  1  0  0  0
 79 80  1  0  0  0
 79 84  1  0  0  0
 79162  1  0  0  0
 79163  1  0  0  0
 80 85  1  0  0  0
 80164  1  0  0  0
 80165  1  0  0  0
 81 82  1  0  0  0
 83 84  1  0  0  0
M  ISO  4   1 100  68 101  82 101  85 100
M  END
> <chiral flag>
0

> <version>
0

> <s_m_source_file>
/data/baiqing/PycharmProjects/Reinvent-master-3.2/result/LINK_invent/BTK/process_docking_weight1_custom_sum_contain_oxygen_bond_distance_aromatic_linkinvent_7_9_3/rearranged_h_0065.sdf

> <i_m_source_file_index>
20

> <r_mmod_Potential_Energy-OPLS-2005>
368.714447021484

> <r_mmod_Stretch_Energy-OPLS-2005>
130.371215820312

> <r_mmod_Bend_Energy-OPLS-2005>
214.66423034668

> <r_mmod_Torsional_Energy-OPLS-2005>
346.496917724609

> <r_mmod_Improper_Torsional_Energy-OPLS-2005>
13.7844753265381

> <r_mmod_Van_der_Waal_Energy-OPLS-2005>
133.792678833008

> <r_mmod_Electrostatic_Energy-OPLS-2005>
-356.158355712891

> <r_mmod_Solvation_Energy-OPLS-2005>
-205.895355224609

> <b_mmod_Minimization_Converged-OPLS-2005>
0

> <r_mmod_RMS_Derivative-OPLS-2005>
2.20888757705688

$$$$
22
                    3D
 Structure written by MMmdl.
192200  0  0  1  0            999 V2000
  -30.6826  -14.5679   20.4424 C   0  0  0  0  0  0
  -30.4030  -12.3344   19.4337 C   0  0  0  0  0  0
  -29.4799  -12.4246   18.2029 C   0  0  0  0  0  0
  -27.9976  -12.3365   18.6169 C   0  0  0  0  0  0
  -27.6262  -13.2263   19.8362 C   0  0  2  0  0  0
  -28.6795  -13.1252   20.9578 C   0  0  0  0  0  0
  -25.2260  -13.8034   20.5520 C   0  0  0  0  0  0
  -24.1629  -13.0305   20.9148 C   0  0  0  0  0  0
  -24.6309  -11.6825   20.8760 C   0  0  0  0  0  0
  -23.9016  -10.4233   21.0446 C   0  0  0  0  0  0
  -24.3589   -9.4152   21.9240 C   0  0  0  0  0  0
  -23.6256   -8.2174   22.0786 C   0  0  0  0  0  0
  -22.4224   -8.0232   21.3558 C   0  0  0  0  0  0
  -21.9902   -9.0221   20.4640 C   0  0  0  0  0  0
  -22.7237  -10.2071   20.3082 C   0  0  0  0  0  0
  -21.6836   -6.0689   22.5279 C   0  0  0  0  0  0
  -21.4014   -6.5608   23.8200 C   0  0  0  0  0  0
  -21.3661   -5.6774   24.9170 C   0  0  0  0  0  0
  -21.6023   -4.3035   24.7227 C   0  0  0  0  0  0
  -21.8825   -3.8107   23.4353 C   0  0  0  0  0  0
  -21.9197   -4.6919   22.3383 C   0  0  0  0  0  0
  -22.7672  -13.5081   21.1812 C   0  0  0  0  0  0
  -22.1670   -4.2106   21.0966 F   0  0  0  0  0  0
  -21.5615   -3.4529   25.7735 F   0  0  0  0  0  0
  -29.9911  -13.3938   20.3641 N   0  0  0  0  0  0
  -26.2813  -12.9354   20.3265 N   0  0  0  0  0  0
  -25.9263  -11.6462   20.5846 N   0  0  0  0  0  0
  -22.0338  -12.8142   22.0382 N   0  0  0  0  0  0
  -25.3524  -15.1754   20.3864 N   0  0  0  0  0  0
  -31.9151  -14.5929   20.3516 O   0  0  0  0  0  0
  -21.6596   -6.8844   21.4235 O   0  0  0  0  0  0
  -22.3305  -14.5369   20.6615 O   0  0  0  0  0  0
  -24.6123  -31.8600   23.2040 C   0  0  0  0  0  0
  -25.9032  -32.4789   23.8386 C   0  0  1  0  0  0
  -27.2840  -27.4450   20.1143 C   0  0  0  0  0  0
  -25.5820  -33.8592   24.2303 N   0  0  0  0  0  0
  -23.4102  -30.4815   21.5320 C   0  0  2  0  0  0
  -24.8667  -28.9388   20.1172 C   0  0  0  0  0  0
  -22.7467  -29.4590   22.4862 C   0  0  0  0  0  0
  -18.0155  -28.1431   22.8495 C   0  0  0  0  0  0
  -24.1427  -36.7353   23.2631 C   0  0  0  0  0  0
  -25.9431  -30.8324   21.3593 C   0  0  0  0  0  0
  -26.0214  -29.4668   20.7049 C   0  0  0  0  0  0
  -27.2229  -28.7294   20.6926 C   0  0  0  0  0  0
  -26.1081  -26.9174   19.5279 C   0  0  0  0  0  0
  -24.9079  -27.6605   19.5269 C   0  0  0  0  0  0
  -23.6294  -29.8050   20.1516 C   0  0  0  0  0  0
  -25.4074  -36.3162   24.0328 C   0  0  1  0  0  0
  -20.5785  -28.3761   23.1173 C   0  0  2  0  0  0
  -20.6767  -26.9517   22.5243 C   0  0  0  0  0  0
  -19.5627  -26.6216   21.5291 C   0  0  0  0  0  0
  -18.1830  -26.7855   22.1827 C   0  0  0  0  0  0
  -19.1457  -28.8917   23.2705 C   0  0  0  0  0  0
  -18.9520  -30.1561   23.8671 C   0  0  0  0  0  0
  -17.6540  -30.6795   24.0416 C   0  0  0  0  0  0
  -25.9012  -34.9486   23.5148 C   0  0  0  0  0  0
  -16.5383  -29.9238   23.6446 C   0  0  0  0  0  0
  -16.7184  -28.6563   23.0573 C   0  0  0  0  0  0
  -26.4438  -31.6563   25.0714 C   0  0  0  0  0  0
  -25.3640  -31.3566   26.1387 C   0  0  0  0  0  0
  -27.0329  -30.3042   24.6016 C   0  0  0  0  0  0
  -27.5976  -32.4276   25.7555 C   0  0  0  0  0  0
  -27.5552  -37.1850   24.8479 C   0  0  0  0  0  0
  -21.4177  -29.3196   22.3724 N   0  0  0  0  0  0
  -26.4262  -37.3877   23.9409 N   0  0  0  0  0  0
  -24.6732  -31.0726   22.0914 N   0  0  0  0  0  0
  -23.4303  -28.7982   23.2740 O   0  0  0  0  0  0
  -28.5247  -26.8320   20.1142 O   0  0  0  0  0  0
  -26.5599  -34.8969   22.4717 O   0  0  0  0  0  0
  -23.5293  -32.1240   23.7445 O   0  0  0  0  0  0
  -29.8719  -19.9398   22.4019 C   0  0  0  0  0  0
  -28.8428  -18.9890   22.1389 C   0  0  0  0  0  0
  -29.1946  -21.1240   22.5608 C   0  0  0  0  0  0
  -23.8292  -21.4084   25.3762 C   0  0  0  0  0  0
  -26.5925  -23.1206   26.3920 C   0  0  0  0  0  0
  -31.2945  -17.1178   18.3482 C   0  0  0  0  0  0
  -28.9496  -16.1389   17.7357 C   0  0  0  0  0  0
  -28.8671  -18.8718   19.7763 C   0  0  0  0  0  0
  -27.5163  -17.1874   21.0441 C   0  0  0  0  0  0
  -25.0866  -23.3466   23.6199 C   0  0  0  0  0  0
  -29.7121  -22.5373   22.4407 C   0  0  0  0  0  0
  -25.1215  -20.9981   24.6367 C   0  0  0  0  0  0
  -27.0797  -22.6203   25.0170 C   0  0  0  0  0  0
  -29.4598  -23.2252   21.0673 C   0  0  0  0  0  0
  -29.2523  -24.7626   21.1504 C   0  0  0  0  0  0
  -26.6506  -21.6625   22.6759 C   0  0  0  0  0  0
  -30.0226  -16.8688   21.0328 C   0  0  0  0  0  0
  -28.7210  -25.4393   19.8589 C   0  0  0  0  0  0
  -30.2267  -16.0319   18.6102 C   0  0  0  0  0  0
  -28.8444  -17.9418   21.0141 C   0  0  0  0  0  0
  -25.9859  -22.1430   24.0174 C   0  0  0  0  0  0
  -27.6672  -19.4831   22.5279 N   0  0  0  0  0  0
  -27.8468  -20.8079   22.7020 N   0  0  0  0  0  0
  -29.9977  -15.6962   20.0629 N   0  0  0  0  0  0
  -31.4490  -12.4224   19.1341 H   0  0  0  0  0  0
  -30.2916  -11.3577   19.9016 H   0  0  0  0  0  0
  -29.7001  -11.6226   17.4958 H   0  0  0  0  0  0
  -29.6690  -13.3368   17.6474 H   0  0  0  0  0  0
  -27.8004  -11.2891   18.8547 H   0  0  0  0  0  0
  -27.3557  -12.5753   17.7703 H   0  0  0  0  0  0
  -27.6240  -14.2560   19.4817 H   0  0  0  0  0  0
  -28.6575  -12.1358   21.4144 H   0  0  0  0  0  0
  -28.4580  -13.8444   21.7472 H   0  0  0  0  0  0
  -25.2744   -9.5597   22.4802 H   0  0  0  0  0  0
  -23.9931   -7.4520   22.7477 H   0  0  0  0  0  0
  -21.0877   -8.8759   19.8896 H   0  0  0  0  0  0
  -22.3763  -10.9608   19.6160 H   0  0  0  0  0  0
  -21.2037   -7.6134   23.9705 H   0  0  0  0  0  0
  -21.1475   -6.0511   25.9084 H   0  0  0  0  0  0
  -22.0611   -2.7581   23.2866 H   0  0  0  0  0  0
  -22.4071  -11.9834   22.4781 H   0  0  0  0  0  0
  -21.0958  -13.1112   22.2536 H   0  0  0  0  0  0
  -24.5852  -15.8151   20.5586 H   0  0  0  0  0  0
  -26.2209  -15.6476   20.1747 H   0  0  0  0  0  0
  -26.7121  -32.5475   23.1176 H   0  0  0  0  0  0
  -24.9953  -33.9806   25.0443 H   0  0  0  0  0  0
  -22.6919  -31.2899   21.3740 H   0  0  0  0  0  0
  -23.3697  -35.9688   23.3348 H   0  0  0  0  0  0
  -24.3518  -36.8887   22.2030 H   0  0  0  0  0  0
  -23.7140  -37.6565   23.6613 H   0  0  0  0  0  0
  -26.0601  -31.5898   20.5836 H   0  0  0  0  0  0
  -26.8363  -30.8883   21.9757 H   0  0  0  0  0  0
  -28.1149  -29.1598   21.1291 H   0  0  0  0  0  0
  -26.0986  -25.9498   19.0516 H   0  0  0  0  0  0
  -24.0255  -27.2414   19.0684 H   0  0  0  0  0  0
  -23.7552  -30.5718   19.3852 H   0  0  0  0  0  0
  -22.7564  -29.2279   19.8399 H   0  0  0  0  0  0
  -25.1235  -36.2088   25.0820 H   0  0  0  0  0  0
  -20.9664  -28.3342   24.1396 H   0  0  0  0  0  0
  -20.6111  -26.2257   23.3359 H   0  0  0  0  0  0
  -21.6553  -26.7842   22.0736 H   0  0  0  0  0  0
  -19.6882  -25.6022   21.1527 H   0  0  0  0  0  0
  -19.6338  -27.2759   20.6619 H   0  0  0  0  0  0
  -17.4067  -26.6312   21.4293 H   0  0  0  0  0  0
  -18.0328  -26.0112   22.9376 H   0  0  0  0  0  0
  -19.8063  -30.7365   24.1929 H   0  0  0  0  0  0
  -17.5262  -31.6607   24.4823 H   0  0  0  0  0  0
  -15.5403  -30.3220   23.7902 H   0  0  0  0  0  0
  -15.8557  -28.0779   22.7613 H   0  0  0  0  0  0
  -25.8079  -30.9389   27.0421 H   0  0  0  0  0  0
  -24.6333  -30.6268   25.7893 H   0  0  0  0  0  0
  -24.8178  -32.2529   26.4320 H   0  0  0  0  0  0
  -26.2955  -29.6965   24.0769 H   0  0  0  0  0  0
  -27.3856  -29.7048   25.4413 H   0  0  0  0  0  0
  -27.8858  -30.4418   23.9359 H   0  0  0  0  0  0
  -27.2644  -33.3684   26.1948 H   0  0  0  0  0  0
  -28.4030  -32.6582   25.0570 H   0  0  0  0  0  0
  -28.0382  -31.8457   26.5652 H   0  0  0  0  0  0
  -28.2646  -38.0090   24.7537 H   0  0  0  0  0  0
  -28.0951  -36.2619   24.6305 H   0  0  0  0  0  0
  -27.2283  -37.1557   25.8894 H   0  0  0  0  0  0
  -20.9436  -29.9187   21.7091 H   0  0  0  0  0  0
  -26.0145  -38.2945   24.1471 H   0  0  0  0  0  0
  -30.9202  -19.8362   22.1640 H   0  0  0  0  0  0
  -23.3928  -20.5535   25.8883 H   0  0  0  0  0  0
  -23.0668  -21.7912   24.6935 H   0  0  0  0  0  0
  -23.9991  -22.1727   26.1341 H   0  0  0  0  0  0
  -25.8169  -23.8838   26.3247 H   0  0  0  0  0  0
  -27.4315  -23.5566   26.9382 H   0  0  0  0  0  0
  -26.2182  -22.2941   27.0030 H   0  0  0  0  0  0
  -32.2382  -16.8391   18.8233 H   0  0  0  0  0  0
  -31.0307  -18.1069   18.6996 H   0  0  0  0  0  0
  -31.4765  -17.2255   17.2789 H   0  0  0  0  0  0
  -28.0794  -16.5356   18.2484 H   0  0  0  0  0  0
  -28.6304  -15.1705   17.3575 H   0  0  0  0  0  0
  -29.1268  -16.7673   16.8621 H   0  0  0  0  0  0
  -29.7891  -19.4521   19.7133 H   0  0  0  0  0  0
  -28.0645  -19.6063   19.8195 H   0  0  0  0  0  0
  -28.7391  -18.3848   18.8272 H   0  0  0  0  0  0
  -26.6728  -17.8422   20.8124 H   0  0  0  0  0  0
  -27.3466  -16.7362   22.0193 H   0  0  0  0  0  0
  -27.5262  -16.4053   20.3040 H   0  0  0  0  0  0
  -24.5038  -23.7506   24.4476 H   0  0  0  0  0  0
  -24.3880  -23.0886   22.8168 H   0  0  0  0  0  0
  -25.6993  -24.1668   23.2533 H   0  0  0  0  0  0
  -30.7835  -22.5201   22.6341 H   0  0  0  0  0  0
  -29.2833  -23.1338   23.2375 H   0  0  0  0  0  0
  -24.8252  -20.2754   23.8753 H   0  0  0  0  0  0
  -25.7468  -20.4347   25.3279 H   0  0  0  0  0  0
  -27.8109  -21.8288   25.1944 H   0  0  0  0  0  0
  -27.6265  -23.4323   24.5327 H   0  0  0  0  0  0
  -28.5735  -22.7911   20.6123 H   0  0  0  0  0  0
  -30.2682  -22.9779   20.3782 H   0  0  0  0  0  0
  -30.1985  -25.2215   21.4367 H   0  0  0  0  0  0
  -28.5531  -24.9902   21.9570 H   0  0  0  0  0  0
  -26.8978  -22.5227   22.0571 H   0  0  0  0  0  0
  -25.8959  -21.1485   22.0801 H   0  0  0  0  0  0
  -30.9920  -17.3559   20.9704 H   0  0  0  0  0  0
  -29.9937  -16.4380   22.0376 H   0  0  0  0  0  0
  -27.8402  -24.9230   19.4824 H   0  0  0  0  0  0
  -29.4791  -25.3774   19.0742 H   0  0  0  0  0  0
  -30.7122  -15.1733   18.1416 H   0  0  0  0  0  0
  1 25  1  0  0  0
  1 30  2  0  0  0
  1 94  1  0  0  0
  2  3  1  0  0  0
  2 25  1  0  0  0
  2 95  1  0  0  0
  2 96  1  0  0  0
  3  4  1  0  0  0
  3 97  1  0  0  0
  3 98  1  0  0  0
  4  5  1  0  0  0
  4 99  1  0  0  0
  4100  1  0  0  0
  5  6  1  0  0  0
  5 26  1  0  0  0
  5101  1  0  0  0
  6 25  1  0  0  0
  6102  1  0  0  0
  6103  1  0  0  0
  7  8  2  0  0  0
  7 26  1  0  0  0
  7 29  1  0  0  0
  8  9  1  0  0  0
  8 22  1  0  0  0
  9 10  1  0  0  0
  9 27  2  0  0  0
 10 11  2  0  0  0
 10 15  1  0  0  0
 11 12  1  0  0  0
 11104  1  0  0  0
 12 13  2  0  0  0
 12105  1  0  0  0
 13 14  1  0  0  0
 13 31  1  0  0  0
 14 15  2  0  0  0
 14106  1  0  0  0
 15107  1  0  0  0
 16 17  2  0  0  0
 16 21  1  0  0  0
 16 31  1  0  0  0
 17 18  1  0  0  0
 17108  1  0  0  0
 18 19  2  0  0  0
 18109  1  0  0  0
 19 20  1  0  0  0
 19 24  1  0  0  0
 20 21  2  0  0  0
 20110  1  0  0  0
 21 23  1  0  0  0
 22 28  1  0  0  0
 22 32  2  0  0  0
 26 27  1  0  0  0
 28111  1  0  0  0
 28112  1  0  0  0
 29113  1  0  0  0
 29114  1  0  0  0
 33 34  1  0  0  0
 33 66  1  0  0  0
 33 70  2  0  0  0
 34 36  1  0  0  0
 34 59  1  0  0  0
 34115  1  0  0  0
 35 44  2  0  0  0
 35 45  1  0  0  0
 35 68  1  0  0  0
 36 56  1  0  0  0
 36116  1  0  0  0
 37 39  1  0  0  0
 37 47  1  0  0  0
 37 66  1  0  0  0
 37117  1  0  0  0
 38 43  2  0  0  0
 38 46  1  0  0  0
 38 47  1  0  0  0
 39 64  1  0  0  0
 39 67  2  0  0  0
 40 52  1  0  0  0
 40 53  2  0  0  0
 40 58  1  0  0  0
 41118  1  0  0  0
 41119  1  0  0  0
 41120  1  0  0  0
 41 48  1  0  0  0
 42 43  1  0  0  0
 42 66  1  0  0  0
 42121  1  0  0  0
 42122  1  0  0  0
 43 44  1  0  0  0
 44123  1  0  0  0
 45 46  2  0  0  0
 45124  1  0  0  0
 46125  1  0  0  0
 47126  1  0  0  0
 47127  1  0  0  0
 48 56  1  0  0  0
 48 65  1  0  0  0
 48128  1  0  0  0
 49 50  1  0  0  0
 49 53  1  0  0  0
 49 64  1  0  0  0
 49129  1  0  0  0
 50 51  1  0  0  0
 50130  1  0  0  0
 50131  1  0  0  0
 51 52  1  0  0  0
 51132  1  0  0  0
 51133  1  0  0  0
 52134  1  0  0  0
 52135  1  0  0  0
 53 54  1  0  0  0
 54 55  2  0  0  0
 54136  1  0  0  0
 55 57  1  0  0  0
 55137  1  0  0  0
 56 69  2  0  0  0
 57 58  2  0  0  0
 57138  1  0  0  0
 58139  1  0  0  0
 59 60  1  0  0  0
 59 61  1  0  0  0
 59 62  1  0  0  0
 60140  1  0  0  0
 60141  1  0  0  0
 60142  1  0  0  0
 61143  1  0  0  0
 61144  1  0  0  0
 61145  1  0  0  0
 62146  1  0  0  0
 62147  1  0  0  0
 62148  1  0  0  0
 63 65  1  0  0  0
 63149  1  0  0  0
 63150  1  0  0  0
 63151  1  0  0  0
 64152  1  0  0  0
 65153  1  0  0  0
 68 88  1  0  0  0
 71 72  1  0  0  0
 71 73  2  0  0  0
 71154  1  0  0  0
 72 90  1  0  0  0
 72 92  2  0  0  0
 73 81  1  0  0  0
 73 93  1  0  0  0
 74 82  1  0  0  0
 74155  1  0  0  0
 74156  1  0  0  0
 74157  1  0  0  0
 75 83  1  0  0  0
 75158  1  0  0  0
 75159  1  0  0  0
 75160  1  0  0  0
 76161  1  0  0  0
 76162  1  0  0  0
 76163  1  0  0  0
 76 89  1  0  0  0
 77 89  1  0  0  0
 77164  1  0  0  0
 77165  1  0  0  0
 77166  1  0  0  0
 78167  1  0  0  0
 78168  1  0  0  0
 78169  1  0  0  0
 78 90  1  0  0  0
 79 90  1  0  0  0
 79170  1  0  0  0
 79171  1  0  0  0
 79172  1  0  0  0
 80173  1  0  0  0
 80174  1  0  0  0
 80175  1  0  0  0
 80 91  1  0  0  0
 81 84  1  0  0  0
 81176  1  0  0  0
 81177  1  0  0  0
 82 91  1  0  0  0
 82178  1  0  0  0
 82179  1  0  0  0
 83 91  1  0  0  0
 83180  1  0  0  0
 83181  1  0  0  0
 84 85  1  0  0  0
 84182  1  0  0  0
 84183  1  0  0  0
 85 88  1  0  0  0
 85184  1  0  0  0
 85185  1  0  0  0
 86 91  1  0  0  0
 86 93  1  0  0  0
 86186  1  0  0  0
 86187  1  0  0  0
 87 90  1  0  0  0
 87 94  1  0  0  0
 87188  1  0  0  0
 87189  1  0  0  0
 88190  1  0  0  0
 88191  1  0  0  0
 89 94  1  0  0  0
 89192  1  0  0  0
 92 93  1  0  0  0
M  ISO  4   1 100  68 101  88 101  94 100
M  END
> <chiral flag>
0

> <version>
0

> <s_m_source_file>
/data/baiqing/PycharmProjects/Reinvent-master-3.2/result/LINK_invent/BTK/process_docking_weight1_custom_sum_contain_oxygen_bond_distance_aromatic_linkinvent_7_9_3/rearranged_h_0065.sdf

> <i_m_source_file_index>
21

> <r_mmod_Potential_Energy-OPLS-2005>
407.020263671875

> <r_mmod_Stretch_Energy-OPLS-2005>
67.023567199707

> <r_mmod_Bend_Energy-OPLS-2005>
191.773773193359

> <r_mmod_Torsional_Energy-OPLS-2005>
432.959930419922

> <r_mmod_Improper_Torsional_Energy-OPLS-2005>
32.6035385131836

> <r_mmod_Van_der_Waal_Energy-OPLS-2005>
149.640243530273

> <r_mmod_Electrostatic_Energy-OPLS-2005>
-337.483154296875

> <r_mmod_Solvation_Energy-OPLS-2005>
-173.407531738281

> <b_mmod_Minimization_Converged-OPLS-2005>
0

> <r_mmod_RMS_Derivative-OPLS-2005>
10.7821989059448

$$$$
23
                    3D
 Structure written by MMmdl.
170178  0  0  1  0            999 V2000
  -30.6245  -14.7777   20.3993 C   0  0  0  0  0  0
  -30.4239  -12.4720   19.4658 C   0  0  0  0  0  0
  -29.5032  -12.4956   18.2284 C   0  0  0  0  0  0
  -28.0322  -12.3170   18.6476 C   0  0  0  0  0  0
  -27.6320  -13.2343   19.8340 C   0  0  2  0  0  0
  -28.6813  -13.2194   20.9649 C   0  0  0  0  0  0
  -25.2472  -13.8174   20.5714 C   0  0  0  0  0  0
  -24.1781  -13.0427   20.9229 C   0  0  0  0  0  0
  -24.6382  -11.6914   20.8760 C   0  0  0  0  0  0
  -23.9069  -10.4291   21.0413 C   0  0  0  0  0  0
  -24.3621   -9.4202   21.9183 C   0  0  0  0  0  0
  -23.6294   -8.2242   22.0747 C   0  0  0  0  0  0
  -22.4272   -8.0286   21.3544 C   0  0  0  0  0  0
  -21.9918   -9.0259   20.4643 C   0  0  0  0  0  0
  -22.7250  -10.2134   20.3055 C   0  0  0  0  0  0
  -21.6852   -6.0747   22.5283 C   0  0  0  0  0  0
  -21.4018   -6.5649   23.8217 C   0  0  0  0  0  0
  -21.3650   -5.6795   24.9175 C   0  0  0  0  0  0
  -21.6040   -4.3057   24.7221 C   0  0  0  0  0  0
  -21.8823   -3.8157   23.4338 C   0  0  0  0  0  0
  -21.9192   -4.6977   22.3400 C   0  0  0  0  0  0
  -22.7802  -13.5202   21.1888 C   0  0  0  0  0  0
  -22.1666   -4.2168   21.0976 F   0  0  0  0  0  0
  -21.5614   -3.4538   25.7730 F   0  0  0  0  0  0
  -29.9751  -13.5622   20.3614 N   0  0  0  0  0  0
  -26.2892  -12.9406   20.3236 N   0  0  0  0  0  0
  -25.9301  -11.6546   20.5727 N   0  0  0  0  0  0
  -22.0465  -12.8188   22.0443 N   0  0  0  0  0  0
  -25.4127  -15.1898   20.4139 N   0  0  0  0  0  0
  -31.8382  -14.7994   20.1880 O   0  0  0  0  0  0
  -21.6634   -6.8892   21.4246 O   0  0  0  0  0  0
  -22.3488  -14.5513   20.6735 O   0  0  0  0  0  0
  -24.6276  -31.8525   23.1980 C   0  0  0  0  0  0
  -25.9112  -32.4735   23.8311 C   0  0  1  0  0  0
  -27.2226  -27.2611   20.1189 C   0  0  0  0  0  0
  -25.5916  -33.8526   24.2226 N   0  0  0  0  0  0
  -23.4237  -30.4737   21.5422 C   0  0  2  0  0  0
  -24.8695  -28.9178   20.1075 C   0  0  0  0  0  0
  -22.7488  -29.4561   22.4926 C   0  0  0  0  0  0
  -18.0286  -28.1347   22.8484 C   0  0  0  0  0  0
  -24.1470  -36.7272   23.2643 C   0  0  0  0  0  0
  -25.9674  -30.7651   21.3755 C   0  0  0  0  0  0
  -26.0386  -29.3851   20.7181 C   0  0  0  0  0  0
  -27.2120  -28.5688   20.7147 C   0  0  0  0  0  0
  -26.0255  -26.8513   19.4909 C   0  0  0  0  0  0
  -24.8690  -27.6591   19.4839 C   0  0  0  0  0  0
  -23.6389  -29.8043   20.1570 C   0  0  0  0  0  0
  -25.4101  -36.3044   24.0321 C   0  0  1  0  0  0
  -20.5890  -28.3641   23.1282 C   0  0  2  0  0  0
  -20.6758  -26.9358   22.5413 C   0  0  0  0  0  0
  -19.5746  -26.6342   21.5200 C   0  0  0  0  0  0
  -18.1923  -26.7894   22.1608 C   0  0  0  0  0  0
  -19.1541  -28.8823   23.2866 C   0  0  0  0  0  0
  -18.9462  -30.1423   23.8879 C   0  0  0  0  0  0
  -17.6465  -30.6550   24.0546 C   0  0  0  0  0  0
  -25.9037  -34.9414   23.5073 C   0  0  0  0  0  0
  -16.5353  -29.9048   23.6316 C   0  0  0  0  0  0
  -16.7279  -28.6462   23.0350 C   0  0  0  0  0  0
  -26.4493  -31.6586   25.0708 C   0  0  0  0  0  0
  -25.3728  -31.3750   26.1453 C   0  0  0  0  0  0
  -27.0338  -30.3008   24.6176 C   0  0  0  0  0  0
  -27.6008  -32.4376   25.7495 C   0  0  0  0  0  0
  -27.5567  -37.1793   24.8466 C   0  0  0  0  0  0
  -21.4207  -29.2985   22.3682 N   0  0  0  0  0  0
  -26.4272  -37.3752   23.9414 N   0  0  0  0  0  0
  -24.6918  -31.0483   22.0950 N   0  0  0  0  0  0
  -23.4192  -28.8097   23.3013 O   0  0  0  0  0  0
  -28.3536  -26.4181   20.1937 O   0  0  0  0  0  0
  -26.5609  -34.8915   22.4648 O   0  0  0  0  0  0
  -23.5424  -32.1356   23.7277 O   0  0  0  0  0  0
  -29.3728  -20.1664   20.1047 C   0  0  0  0  0  0
  -30.2899  -22.0767   19.8166 C   0  0  0  0  0  0
  -31.3340  -23.1188   19.5709 C   0  0  0  0  0  0
  -27.5869  -19.4692   17.8811 C   0  0  0  0  0  0
  -27.9121  -17.0020   18.1211 C   0  0  0  0  0  0
  -27.9079  -18.2690   20.9073 C   0  0  0  0  0  0
  -31.3478  -17.5499   19.1550 C   0  0  0  0  0  0
  -30.9583  -17.8660   21.5918 C   0  0  0  0  0  0
  -28.3578  -23.6971   20.5748 C   0  0  0  0  0  0
  -28.4508  -25.0210   19.6391 C   0  0  0  0  0  0
  -28.5378  -18.3788   18.4326 C   0  0  0  0  0  0
  -29.0639  -18.5857   19.9198 C   0  0  1  0  0  0
  -30.2654  -17.4638   20.2694 C   0  0  0  0  0  0
  -30.5405  -20.7614   19.6932 N   0  0  0  0  0  0
  -28.4372  -21.1185   20.4080 N   0  0  0  0  0  0
  -29.0317  -22.3673   20.1960 N   0  0  0  0  0  0
  -29.8766  -15.9599   20.4303 N   0  0  0  0  0  0
  -31.4636  -12.5883   19.1570 H   0  0  0  0  0  0
  -30.3683  -11.5114   19.9791 H   0  0  0  0  0  0
  -29.7931  -11.7114   17.5279 H   0  0  0  0  0  0
  -29.6194  -13.4403   17.6947 H   0  0  0  0  0  0
  -27.8946  -11.2710   18.9233 H   0  0  0  0  0  0
  -27.3736  -12.4937   17.7962 H   0  0  0  0  0  0
  -27.6078  -14.2440   19.4261 H   0  0  0  0  0  0
  -28.7261  -12.2421   21.4465 H   0  0  0  0  0  0
  -28.4143  -13.9380   21.7404 H   0  0  0  0  0  0
  -25.2774   -9.5673   22.4748 H   0  0  0  0  0  0
  -24.0012   -7.4622   22.7448 H   0  0  0  0  0  0
  -21.0865   -8.8778   19.8929 H   0  0  0  0  0  0
  -22.3725  -10.9673   19.6156 H   0  0  0  0  0  0
  -21.2030   -7.6160   23.9735 H   0  0  0  0  0  0
  -21.1455   -6.0518   25.9080 H   0  0  0  0  0  0
  -22.0609   -2.7622   23.2832 H   0  0  0  0  0  0
  -22.4107  -11.9857   22.4831 H   0  0  0  0  0  0
  -21.1065  -13.1176   22.2634 H   0  0  0  0  0  0
  -24.6371  -15.8343   20.5178 H   0  0  0  0  0  0
  -26.2452  -15.6298   20.0502 H   0  0  0  0  0  0
  -26.7170  -32.5394   23.1041 H   0  0  0  0  0  0
  -25.0091  -33.9638   25.0390 H   0  0  0  0  0  0
  -22.7178  -31.2929   21.3963 H   0  0  0  0  0  0
  -23.3716  -35.9617   23.3303 H   0  0  0  0  0  0
  -24.3557  -36.8910   22.2058 H   0  0  0  0  0  0
  -23.7252  -37.6479   23.6680 H   0  0  0  0  0  0
  -26.0991  -31.5243   20.6042 H   0  0  0  0  0  0
  -26.8475  -30.8208   22.0042 H   0  0  0  0  0  0
  -28.1080  -28.9217   21.2071 H   0  0  0  0  0  0
  -25.9444  -25.8850   19.0185 H   0  0  0  0  0  0
  -23.9722  -27.2916   19.0044 H   0  0  0  0  0  0
  -23.7580  -30.5780   19.3973 H   0  0  0  0  0  0
  -22.7578  -29.2336   19.8568 H   0  0  0  0  0  0
  -25.1291  -36.1883   25.0816 H   0  0  0  0  0  0
  -20.9958  -28.3203   24.1412 H   0  0  0  0  0  0
  -20.5615  -26.2240   23.3601 H   0  0  0  0  0  0
  -21.6636  -26.7356   22.1238 H   0  0  0  0  0  0
  -19.6881  -25.6247   21.1232 H   0  0  0  0  0  0
  -19.6698  -27.3139   20.6716 H   0  0  0  0  0  0
  -17.4190  -26.6633   21.3997 H   0  0  0  0  0  0
  -18.0326  -26.0019   22.8994 H   0  0  0  0  0  0
  -19.7947  -30.7225   24.2231 H   0  0  0  0  0  0
  -17.5029  -31.6237   24.5125 H   0  0  0  0  0  0
  -15.5356  -30.2942   23.7642 H   0  0  0  0  0  0
  -15.8678  -28.0767   22.7084 H   0  0  0  0  0  0
  -24.5879  -30.7110   25.7828 H   0  0  0  0  0  0
  -24.8933  -32.2915   26.4884 H   0  0  0  0  0  0
  -25.8057  -30.8948   27.0241 H   0  0  0  0  0  0
  -26.2902  -29.6768   24.1204 H   0  0  0  0  0  0
  -27.4039  -29.7262   25.4680 H   0  0  0  0  0  0
  -27.8770  -30.4292   23.9392 H   0  0  0  0  0  0
  -27.2566  -33.3690   26.2021 H   0  0  0  0  0  0
  -28.3853  -32.6960   25.0364 H   0  0  0  0  0  0
  -28.0647  -31.8567   26.5483 H   0  0  0  0  0  0
  -28.2586  -38.0086   24.7516 H   0  0  0  0  0  0
  -28.1073  -36.2625   24.6298 H   0  0  0  0  0  0
  -27.2293  -37.1471   25.8871 H   0  0  0  0  0  0
  -20.9360  -29.8746   21.6952 H   0  0  0  0  0  0
  -26.0135  -38.2813   24.1441 H   0  0  0  0  0  0
  -32.3258  -22.7159   19.7772 H   0  0  0  0  0  0
  -31.1895  -23.9895   20.2124 H   0  0  0  0  0  0
  -31.3084  -23.4329   18.5272 H   0  0  0  0  0  0
  -27.2427  -19.2183   16.8779 H   0  0  0  0  0  0
  -28.0812  -20.4365   17.7879 H   0  0  0  0  0  0
  -26.7016  -19.5984   18.5020 H   0  0  0  0  0  0
  -27.6237  -16.9392   17.0727 H   0  0  0  0  0  0
  -27.0107  -16.8239   18.7045 H   0  0  0  0  0  0
  -28.6026  -16.1776   18.2761 H   0  0  0  0  0  0
  -27.0103  -18.8399   20.6758 H   0  0  0  0  0  0
  -28.1803  -18.5250   21.9298 H   0  0  0  0  0  0
  -27.6156  -17.2220   20.9103 H   0  0  0  0  0  0
  -31.5625  -18.5739   18.8589 H   0  0  0  0  0  0
  -31.0461  -17.0150   18.2535 H   0  0  0  0  0  0
  -32.3047  -17.1320   19.4650 H   0  0  0  0  0  0
  -31.3347  -18.8891   21.5607 H   0  0  0  0  0  0
  -31.8159  -17.2294   21.8098 H   0  0  0  0  0  0
  -30.2809  -17.7838   22.4413 H   0  0  0  0  0  0
  -27.3006  -23.4895   20.7434 H   0  0  0  0  0  0
  -28.7500  -23.9563   21.5571 H   0  0  0  0  0  0
  -27.8047  -24.8922   18.7731 H   0  0  0  0  0  0
  -29.4418  -25.0182   19.1915 H   0  0  0  0  0  0
  -29.4008  -18.4771   17.7769 H   0  0  0  0  0  0
  -28.8866  -15.8026   20.5281 H   0  0  0  0  0  0
  1 25  1  0  0  0
  1 30  2  0  0  0
  1 87  1  0  0  0
  2  3  1  0  0  0
  2 25  1  0  0  0
  2 88  1  0  0  0
  2 89  1  0  0  0
  3  4  1  0  0  0
  3 90  1  0  0  0
  3 91  1  0  0  0
  4  5  1  0  0  0
  4 92  1  0  0  0
  4 93  1  0  0  0
  5  6  1  0  0  0
  5 26  1  0  0  0
  5 94  1  0  0  0
  6 25  1  0  0  0
  6 95  1  0  0  0
  6 96  1  0  0  0
  7  8  2  0  0  0
  7 26  1  0  0  0
  7 29  1  0  0  0
  8  9  1  0  0  0
  8 22  1  0  0  0
  9 10  1  0  0  0
  9 27  2  0  0  0
 10 11  2  0  0  0
 10 15  1  0  0  0
 11 12  1  0  0  0
 11 97  1  0  0  0
 12 13  2  0  0  0
 12 98  1  0  0  0
 13 14  1  0  0  0
 13 31  1  0  0  0
 14 15  2  0  0  0
 14 99  1  0  0  0
 15100  1  0  0  0
 16 17  2  0  0  0
 16 21  1  0  0  0
 16 31  1  0  0  0
 17 18  1  0  0  0
 17101  1  0  0  0
 18 19  2  0  0  0
 18102  1  0  0  0
 19 20  1  0  0  0
 19 24  1  0  0  0
 20 21  2  0  0  0
 20103  1  0  0  0
 21 23  1  0  0  0
 22 28  1  0  0  0
 22 32  2  0  0  0
 26 27  1  0  0  0
 28104  1  0  0  0
 28105  1  0  0  0
 29106  1  0  0  0
 29107  1  0  0  0
 33 34  1  0  0  0
 33 66  1  0  0  0
 33 70  2  0  0  0
 34 36  1  0  0  0
 34 59  1  0  0  0
 34108  1  0  0  0
 35 44  2  0  0  0
 35 45  1  0  0  0
 35 68  1  0  0  0
 36 56  1  0  0  0
 36109  1  0  0  0
 37 39  1  0  0  0
 37 47  1  0  0  0
 37 66  1  0  0  0
 37110  1  0  0  0
 38 43  2  0  0  0
 38 46  1  0  0  0
 38 47  1  0  0  0
 39 64  1  0  0  0
 39 67  2  0  0  0
 40 52  1  0  0  0
 40 53  2  0  0  0
 40 58  1  0  0  0
 41111  1  0  0  0
 41112  1  0  0  0
 41113  1  0  0  0
 41 48  1  0  0  0
 42 43  1  0  0  0
 42 66  1  0  0  0
 42114  1  0  0  0
 42115  1  0  0  0
 43 44  1  0  0  0
 44116  1  0  0  0
 45 46  2  0  0  0
 45117  1  0  0  0
 46118  1  0  0  0
 47119  1  0  0  0
 47120  1  0  0  0
 48 56  1  0  0  0
 48 65  1  0  0  0
 48121  1  0  0  0
 49 50  1  0  0  0
 49 53  1  0  0  0
 49 64  1  0  0  0
 49122  1  0  0  0
 50 51  1  0  0  0
 50123  1  0  0  0
 50124  1  0  0  0
 51 52  1  0  0  0
 51125  1  0  0  0
 51126  1  0  0  0
 52127  1  0  0  0
 52128  1  0  0  0
 53 54  1  0  0  0
 54 55  2  0  0  0
 54129  1  0  0  0
 55 57  1  0  0  0
 55130  1  0  0  0
 56 69  2  0  0  0
 57 58  2  0  0  0
 57131  1  0  0  0
 58132  1  0  0  0
 59 60  1  0  0  0
 59 61  1  0  0  0
 59 62  1  0  0  0
 60133  1  0  0  0
 60134  1  0  0  0
 60135  1  0  0  0
 61136  1  0  0  0
 61137  1  0  0  0
 61138  1  0  0  0
 62139  1  0  0  0
 62140  1  0  0  0
 62141  1  0  0  0
 63 65  1  0  0  0
 63142  1  0  0  0
 63143  1  0  0  0
 63144  1  0  0  0
 64145  1  0  0  0
 65146  1  0  0  0
 68 80  1  0  0  0
 71 82  1  0  0  0
 71 84  1  0  0  0
 71 85  2  0  0  0
 72 73  1  0  0  0
 72 84  2  0  0  0
 72 86  1  0  0  0
 73147  1  0  0  0
 73148  1  0  0  0
 73149  1  0  0  0
 74150  1  0  0  0
 74151  1  0  0  0
 74152  1  0  0  0
 74 81  1  0  0  0
 75 81  1  0  0  0
 75153  1  0  0  0
 75154  1  0  0  0
 75155  1  0  0  0
 76156  1  0  0  0
 76157  1  0  0  0
 76158  1  0  0  0
 76 82  1  0  0  0
 77159  1  0  0  0
 77160  1  0  0  0
 77161  1  0  0  0
 77 83  1  0  0  0
 78 83  1  0  0  0
 78162  1  0  0  0
 78163  1  0  0  0
 78164  1  0  0  0
 79 80  1  0  0  0
 79 86  1  0  0  0
 79165  1  0  0  0
 79166  1  0  0  0
 80167  1  0  0  0
 80168  1  0  0  0
 81 82  1  0  0  0
 81169  1  0  0  0
 82 83  1  0  0  0
 83 87  1  0  0  0
 85 86  1  0  0  0
 87170  1  0  0  0
M  ISO  4   1 100  68 101  80 101  87 100
M  END
> <chiral flag>
0

> <version>
0

> <s_m_source_file>
/data/baiqing/PycharmProjects/Reinvent-master-3.2/result/LINK_invent/BTK/process_docking_weight1_custom_sum_contain_oxygen_bond_distance_aromatic_linkinvent_7_9_3/rearranged_h_0065.sdf

> <i_m_source_file_index>
22

> <r_mmod_Potential_Energy-OPLS-2005>
324.586364746094

> <r_mmod_Stretch_Energy-OPLS-2005>
167.891326904297

> <r_mmod_Bend_Energy-OPLS-2005>
214.774703979492

> <r_mmod_Torsional_Energy-OPLS-2005>
227.652893066406

> <r_mmod_Improper_Torsional_Energy-OPLS-2005>
8.02645683288574

> <r_mmod_Van_der_Waal_Energy-OPLS-2005>
125.337089538574

> <r_mmod_Electrostatic_Energy-OPLS-2005>
-304.103057861328

> <r_mmod_Solvation_Energy-OPLS-2005>
-209.687240600586

> <b_mmod_Minimization_Converged-OPLS-2005>
0

> <r_mmod_RMS_Derivative-OPLS-2005>
2.78360056877136

$$$$
24
                    3D
 Structure written by MMmdl.
172180  0  0  1  0            999 V2000
  -30.6534  -14.6367   20.5101 C   0  0  0  0  0  0
  -30.4283  -12.3872   19.4897 C   0  0  0  0  0  0
  -29.5167  -12.4978   18.2488 C   0  0  0  0  0  0
  -28.0412  -12.3320   18.6568 C   0  0  0  0  0  0
  -27.6513  -13.2210   19.8681 C   0  0  2  0  0  0
  -28.6869  -13.1100   21.0107 C   0  0  0  0  0  0
  -25.2465  -13.8108   20.5585 C   0  0  0  0  0  0
  -24.1777  -13.0397   20.9174 C   0  0  0  0  0  0
  -24.6357  -11.6878   20.8711 C   0  0  0  0  0  0
  -23.9016  -10.4269   21.0382 C   0  0  0  0  0  0
  -24.3580   -9.4203   21.9179 C   0  0  0  0  0  0
  -23.6269   -8.2232   22.0751 C   0  0  0  0  0  0
  -22.4253   -8.0253   21.3538 C   0  0  0  0  0  0
  -21.9874   -9.0208   20.4629 C   0  0  0  0  0  0
  -22.7183  -10.2103   20.3035 C   0  0  0  0  0  0
  -21.6860   -6.0701   22.5263 C   0  0  0  0  0  0
  -21.4022   -6.5618   23.8192 C   0  0  0  0  0  0
  -21.3662   -5.6778   24.9161 C   0  0  0  0  0  0
  -21.6049   -4.3035   24.7220 C   0  0  0  0  0  0
  -21.8826   -3.8122   23.4340 C   0  0  0  0  0  0
  -21.9195   -4.6929   22.3392 C   0  0  0  0  0  0
  -22.7803  -13.5205   21.1825 C   0  0  0  0  0  0
  -22.1673   -4.2111   21.0967 F   0  0  0  0  0  0
  -21.5623   -3.4526   25.7737 F   0  0  0  0  0  0
  -30.0082  -13.4286   20.4516 N   0  0  0  0  0  0
  -26.2958  -12.9352   20.3326 N   0  0  0  0  0  0
  -25.9307  -11.6493   20.5763 N   0  0  0  0  0  0
  -22.0465  -12.8216   22.0398 N   0  0  0  0  0  0
  -25.4011  -15.1794   20.3848 N   0  0  0  0  0  0
  -31.8083  -14.7426   20.0955 O   0  0  0  0  0  0
  -21.6644   -6.8839   21.4225 O   0  0  0  0  0  0
  -22.3495  -14.5515   20.6662 O   0  0  0  0  0  0
  -24.6240  -31.8633   23.2065 C   0  0  0  0  0  0
  -25.9095  -32.4793   23.8378 C   0  0  1  0  0  0
  -27.2158  -27.3426   20.1261 C   0  0  0  0  0  0
  -25.5902  -33.8588   24.2265 N   0  0  0  0  0  0
  -23.4179  -30.4847   21.5468 C   0  0  2  0  0  0
  -24.8634  -28.9445   20.1101 C   0  0  0  0  0  0
  -22.7483  -29.4609   22.4952 C   0  0  0  0  0  0
  -18.0284  -28.1372   22.8488 C   0  0  0  0  0  0
  -24.1494  -36.7305   23.2641 C   0  0  0  0  0  0
  -25.9562  -30.7995   21.3781 C   0  0  0  0  0  0
  -26.0271  -29.4290   20.7202 C   0  0  0  0  0  0
  -27.2090  -28.6361   20.7219 C   0  0  0  0  0  0
  -26.0429  -26.9087   19.4774 C   0  0  0  0  0  0
  -24.8705  -27.6879   19.4794 C   0  0  0  0  0  0
  -23.6298  -29.8218   20.1604 C   0  0  0  0  0  0
  -25.4122  -36.3079   24.0325 C   0  0  1  0  0  0
  -20.5896  -28.3656   23.1297 C   0  0  2  0  0  0
  -20.6799  -26.9385   22.5407 C   0  0  0  0  0  0
  -19.5747  -26.6360   21.5235 C   0  0  0  0  0  0
  -18.1906  -26.7920   22.1621 C   0  0  0  0  0  0
  -19.1546  -28.8833   23.2874 C   0  0  0  0  0  0
  -18.9459  -30.1450   23.8857 C   0  0  0  0  0  0
  -17.6464  -30.6564   24.0555 C   0  0  0  0  0  0
  -25.9050  -34.9455   23.5085 C   0  0  0  0  0  0
  -16.5351  -29.9071   23.6337 C   0  0  0  0  0  0
  -16.7279  -28.6504   23.0329 C   0  0  0  0  0  0
  -26.4490  -31.6624   25.0755 C   0  0  0  0  0  0
  -25.3709  -31.3798   26.1478 C   0  0  0  0  0  0
  -27.0346  -30.3041   24.6222 C   0  0  0  0  0  0
  -27.5996  -32.4434   25.7538 C   0  0  0  0  0  0
  -27.5580  -37.1797   24.8460 C   0  0  0  0  0  0
  -21.4196  -29.3035   22.3731 N   0  0  0  0  0  0
  -26.4289  -37.3774   23.9412 N   0  0  0  0  0  0
  -24.6832  -31.0668   22.1000 N   0  0  0  0  0  0
  -23.4208  -28.8144   23.3024 O   0  0  0  0  0  0
  -28.3479  -26.5245   20.1117 O   0  0  0  0  0  0
  -26.5629  -34.8929   22.4653 O   0  0  0  0  0  0
  -23.5424  -32.1426   23.7401 O   0  0  0  0  0  0
  -29.8589  -20.7926   21.4951 C   0  0  0  0  0  0
  -29.0925  -19.7794   20.8431 C   0  0  0  0  0  0
  -28.1615  -21.5241   19.5408 C   0  0  0  0  0  0
  -28.9008  -22.5315   20.2324 C   0  0  0  0  0  0
  -27.2025  -21.8703   18.4174 C   0  0  0  0  0  0
  -29.4254  -18.1787   22.8160 C   0  0  0  0  0  0
  -29.9640  -17.3814   18.9821 C   0  0  0  0  0  0
  -31.5616  -17.6440   20.8623 C   0  0  0  0  0  0
  -29.3964  -25.4421   21.8882 C   0  0  0  0  0  0
  -27.0398  -24.7589   21.4357 C   0  0  0  0  0  0
  -28.9066  -24.0527   19.8095 C   0  0  0  0  0  0
  -29.0796  -18.2424   21.2979 C   0  0  2  0  0  0
  -30.1006  -17.2267   20.5187 C   0  0  0  0  0  0
  -28.3681  -25.1961   20.7727 C   0  0  0  0  0  0
  -27.5904  -17.7334   21.2665 C   0  0  0  0  0  0
  -29.7739  -22.1274   21.1948 N   0  0  0  0  0  0
  -28.2730  -20.1875   19.8268 N   0  0  0  0  0  0
  -29.9044  -15.7433   20.8366 N   0  0  0  0  0  0
  -27.1215  -17.5724   20.0293 F   0  0  0  0  0  0
  -26.7748  -18.5751   21.9105 F   0  0  0  0  0  0
  -27.4877  -16.5479   21.8764 F   0  0  0  0  0  0
  -31.4765  -12.4832   19.2012 H   0  0  0  0  0  0
  -30.3417  -11.4017   19.9473 H   0  0  0  0  0  0
  -29.7910  -11.7374   17.5165 H   0  0  0  0  0  0
  -29.6640  -13.4634   17.7621 H   0  0  0  0  0  0
  -27.8932  -11.2826   18.9138 H   0  0  0  0  0  0
  -27.3856  -12.5340   17.8103 H   0  0  0  0  0  0
  -27.6624  -14.2512   19.5122 H   0  0  0  0  0  0
  -28.6894  -12.1039   21.4323 H   0  0  0  0  0  0
  -28.4249  -13.7772   21.8335 H   0  0  0  0  0  0
  -25.2722   -9.5712   22.4758 H   0  0  0  0  0  0
  -23.9976   -7.4640   22.7487 H   0  0  0  0  0  0
  -21.0809   -8.8701   19.8937 H   0  0  0  0  0  0
  -22.3616  -10.9631   19.6136 H   0  0  0  0  0  0
  -21.2026   -7.6131   23.9681 H   0  0  0  0  0  0
  -21.1486   -6.0515   25.9061 H   0  0  0  0  0  0
  -22.0604   -2.7578   23.2848 H   0  0  0  0  0  0
  -22.4079  -11.9874   22.4785 H   0  0  0  0  0  0
  -21.1054  -13.1198   22.2546 H   0  0  0  0  0  0
  -24.6290  -15.8219   20.5062 H   0  0  0  0  0  0
  -26.2526  -15.6411   20.0975 H   0  0  0  0  0  0
  -26.7159  -32.5443   23.1117 H   0  0  0  0  0  0
  -25.0024  -33.9731   25.0395 H   0  0  0  0  0  0
  -22.7092  -31.3025   21.4071 H   0  0  0  0  0  0
  -23.3736  -35.9650   23.3322 H   0  0  0  0  0  0
  -24.3552  -36.8935   22.2046 H   0  0  0  0  0  0
  -23.7290  -37.6525   23.6684 H   0  0  0  0  0  0
  -26.0853  -31.5691   20.6151 H   0  0  0  0  0  0
  -26.8374  -30.8423   22.0067 H   0  0  0  0  0  0
  -28.1072  -29.0005   21.2010 H   0  0  0  0  0  0
  -26.0281  -25.9518   18.9768 H   0  0  0  0  0  0
  -23.9805  -27.3156   18.9914 H   0  0  0  0  0  0
  -23.7482  -30.6038   19.4098 H   0  0  0  0  0  0
  -22.7502  -29.2494   19.8565 H   0  0  0  0  0  0
  -25.1291  -36.1930   25.0819 H   0  0  0  0  0  0
  -20.9963  -28.3232   24.1426 H   0  0  0  0  0  0
  -20.5757  -26.2251   23.3602 H   0  0  0  0  0  0
  -21.6649  -26.7446   22.1135 H   0  0  0  0  0  0
  -19.6918  -25.6280   21.1254 H   0  0  0  0  0  0
  -19.6700  -27.3183   20.6785 H   0  0  0  0  0  0
  -17.4209  -26.6716   21.3996 H   0  0  0  0  0  0
  -18.0233  -26.0062   22.8999 H   0  0  0  0  0  0
  -19.7949  -30.7266   24.2199 H   0  0  0  0  0  0
  -17.5026  -31.6246   24.5145 H   0  0  0  0  0  0
  -15.5352  -30.2930   23.7704 H   0  0  0  0  0  0
  -15.8691  -28.0822   22.7022 H   0  0  0  0  0  0
  -24.5836  -30.7206   25.7832 H   0  0  0  0  0  0
  -24.8942  -32.2980   26.4907 H   0  0  0  0  0  0
  -25.7999  -30.8972   27.0264 H   0  0  0  0  0  0
  -26.2932  -29.6780   24.1251 H   0  0  0  0  0  0
  -27.4038  -29.7340   25.4763 H   0  0  0  0  0  0
  -27.8809  -30.4332   23.9476 H   0  0  0  0  0  0
  -27.2521  -33.3725   26.2091 H   0  0  0  0  0  0
  -28.3804  -32.7036   25.0376 H   0  0  0  0  0  0
  -28.0680  -31.8609   26.5488 H   0  0  0  0  0  0
  -28.2565  -38.0129   24.7479 H   0  0  0  0  0  0
  -28.1090  -36.2622   24.6290 H   0  0  0  0  0  0
  -27.2268  -37.1468   25.8860 H   0  0  0  0  0  0
  -20.9395  -29.8791   21.6954 H   0  0  0  0  0  0
  -26.0161  -38.2838   24.1429 H   0  0  0  0  0  0
  -30.5485  -20.5582   22.2877 H   0  0  0  0  0  0
  -27.7511  -22.2341   17.5494 H   0  0  0  0  0  0
  -26.5153  -22.6545   18.7331 H   0  0  0  0  0  0
  -26.6046  -21.0093   18.1151 H   0  0  0  0  0  0
  -30.4061  -18.5791   23.0604 H   0  0  0  0  0  0
  -29.4119  -17.1546   23.1905 H   0  0  0  0  0  0
  -28.7077  -18.7440   23.4122 H   0  0  0  0  0  0
  -30.1040  -18.4120   18.6536 H   0  0  0  0  0  0
  -28.9925  -17.0504   18.6187 H   0  0  0  0  0  0
  -30.7110  -16.7898   18.4505 H   0  0  0  0  0  0
  -31.7023  -18.7233   20.8022 H   0  0  0  0  0  0
  -32.2928  -17.2161   20.1770 H   0  0  0  0  0  0
  -31.8592  -17.3296   21.8626 H   0  0  0  0  0  0
  -29.5270  -24.5645   22.5216 H   0  0  0  0  0  0
  -29.0976  -26.2682   22.5311 H   0  0  0  0  0  0
  -30.3727  -25.6938   21.4716 H   0  0  0  0  0  0
  -26.6302  -25.5311   22.0878 H   0  0  0  0  0  0
  -27.1821  -23.8715   22.0511 H   0  0  0  0  0  0
  -26.2798  -24.5013   20.6989 H   0  0  0  0  0  0
  -28.3432  -24.1496   18.8836 H   0  0  0  0  0  0
  -29.9314  -24.3010   19.5251 H   0  0  0  0  0  0
  -28.9987  -15.5132   21.2211 H   0  0  0  0  0  0
  1 25  1  0  0  0
  1 30  2  0  0  0
  1 88  1  0  0  0
  2  3  1  0  0  0
  2 25  1  0  0  0
  2 92  1  0  0  0
  2 93  1  0  0  0
  3  4  1  0  0  0
  3 94  1  0  0  0
  3 95  1  0  0  0
  4  5  1  0  0  0
  4 96  1  0  0  0
  4 97  1  0  0  0
  5  6  1  0  0  0
  5 26  1  0  0  0
  5 98  1  0  0  0
  6 25  1  0  0  0
  6 99  1  0  0  0
  6100  1  0  0  0
  7  8  2  0  0  0
  7 26  1  0  0  0
  7 29  1  0  0  0
  8  9  1  0  0  0
  8 22  1  0  0  0
  9 10  1  0  0  0
  9 27  2  0  0  0
 10 11  2  0  0  0
 10 15  1  0  0  0
 11 12  1  0  0  0
 11101  1  0  0  0
 12 13  2  0  0  0
 12102  1  0  0  0
 13 14  1  0  0  0
 13 31  1  0  0  0
 14 15  2  0  0  0
 14103  1  0  0  0
 15104  1  0  0  0
 16 17  2  0  0  0
 16 21  1  0  0  0
 16 31  1  0  0  0
 17 18  1  0  0  0
 17105  1  0  0  0
 18 19  2  0  0  0
 18106  1  0  0  0
 19 20  1  0  0  0
 19 24  1  0  0  0
 20 21  2  0  0  0
 20107  1  0  0  0
 21 23  1  0  0  0
 22 28  1  0  0  0
 22 32  2  0  0  0
 26 27  1  0  0  0
 28108  1  0  0  0
 28109  1  0  0  0
 29110  1  0  0  0
 29111  1  0  0  0
 33 34  1  0  0  0
 33 66  1  0  0  0
 33 70  2  0  0  0
 34 36  1  0  0  0
 34 59  1  0  0  0
 34112  1  0  0  0
 35 44  2  0  0  0
 35 45  1  0  0  0
 35 68  1  0  0  0
 36 56  1  0  0  0
 36113  1  0  0  0
 37 39  1  0  0  0
 37 47  1  0  0  0
 37 66  1  0  0  0
 37114  1  0  0  0
 38 43  2  0  0  0
 38 46  1  0  0  0
 38 47  1  0  0  0
 39 64  1  0  0  0
 39 67  2  0  0  0
 40 52  1  0  0  0
 40 53  2  0  0  0
 40 58  1  0  0  0
 41115  1  0  0  0
 41116  1  0  0  0
 41117  1  0  0  0
 41 48  1  0  0  0
 42 43  1  0  0  0
 42 66  1  0  0  0
 42118  1  0  0  0
 42119  1  0  0  0
 43 44  1  0  0  0
 44120  1  0  0  0
 45 46  2  0  0  0
 45121  1  0  0  0
 46122  1  0  0  0
 47123  1  0  0  0
 47124  1  0  0  0
 48 56  1  0  0  0
 48 65  1  0  0  0
 48125  1  0  0  0
 49 50  1  0  0  0
 49 53  1  0  0  0
 49 64  1  0  0  0
 49126  1  0  0  0
 50 51  1  0  0  0
 50127  1  0  0  0
 50128  1  0  0  0
 51 52  1  0  0  0
 51129  1  0  0  0
 51130  1  0  0  0
 52131  1  0  0  0
 52132  1  0  0  0
 53 54  1  0  0  0
 54 55  2  0  0  0
 54133  1  0  0  0
 55 57  1  0  0  0
 55134  1  0  0  0
 56 69  2  0  0  0
 57 58  2  0  0  0
 57135  1  0  0  0
 58136  1  0  0  0
 59 60  1  0  0  0
 59 61  1  0  0  0
 59 62  1  0  0  0
 60137  1  0  0  0
 60138  1  0  0  0
 60139  1  0  0  0
 61140  1  0  0  0
 61141  1  0  0  0
 61142  1  0  0  0
 62143  1  0  0  0
 62144  1  0  0  0
 62145  1  0  0  0
 63 65  1  0  0  0
 63146  1  0  0  0
 63147  1  0  0  0
 63148  1  0  0  0
 64149  1  0  0  0
 65150  1  0  0  0
 68 84  1  0  0  0
 71 72  2  0  0  0
 71 86  1  0  0  0
 71151  1  0  0  0
 72 82  1  0  0  0
 72 87  1  0  0  0
 73 74  1  0  0  0
 73 75  1  0  0  0
 73 87  2  0  0  0
 74 81  1  0  0  0
 74 86  2  0  0  0
 75152  1  0  0  0
 75153  1  0  0  0
 75154  1  0  0  0
 76155  1  0  0  0
 76156  1  0  0  0
 76157  1  0  0  0
 76 82  1  0  0  0
 77158  1  0  0  0
 77159  1  0  0  0
 77160  1  0  0  0
 77 83  1  0  0  0
 78 83  1  0  0  0
 78161  1  0  0  0
 78162  1  0  0  0
 78163  1  0  0  0
 79164  1  0  0  0
 79165  1  0  0  0
 79166  1  0  0  0
 79 84  1  0  0  0
 80 84  1  0  0  0
 80167  1  0  0  0
 80168  1  0  0  0
 80169  1  0  0  0
 81 84  1  0  0  0
 81170  1  0  0  0
 81171  1  0  0  0
 82 83  1  0  0  0
 82 85  1  0  0  0
 83 88  1  0  0  0
 85 89  1  0  0  0
 85 90  1  0  0  0
 85 91  1  0  0  0
 88172  1  0  0  0
M  ISO  4   1 100  68 101  84 101  88 100
M  END
> <chiral flag>
0

> <version>
0

> <s_m_source_file>
/data/baiqing/PycharmProjects/Reinvent-master-3.2/result/LINK_invent/BTK/process_docking_weight1_custom_sum_contain_oxygen_bond_distance_aromatic_linkinvent_7_9_3/rearranged_h_0065.sdf

> <i_m_source_file_index>
23

> <r_mmod_Potential_Energy-OPLS-2005>
310.451934814453

> <r_mmod_Stretch_Energy-OPLS-2005>
104.844268798828

> <r_mmod_Bend_Energy-OPLS-2005>
164.478759765625

> <r_mmod_Torsional_Energy-OPLS-2005>
241.635696411133

> <r_mmod_Improper_Torsional_Energy-OPLS-2005>
5.97263622283936

> <r_mmod_Van_der_Waal_Energy-OPLS-2005>
160.707672119141

> <r_mmod_Electrostatic_Energy-OPLS-2005>
-217.410446166992

> <r_mmod_Solvation_Energy-OPLS-2005>
-192.717788696289

> <b_mmod_Minimization_Converged-OPLS-2005>
0

> <r_mmod_RMS_Derivative-OPLS-2005>
3.60041356086731

$$$$
25
                    3D
 Structure written by MMmdl.
167175  0  0  1  0            999 V2000
  -30.6338  -14.7819   20.4297 C   0  0  0  0  0  0
  -30.4117  -12.4824   19.4873 C   0  0  0  0  0  0
  -29.5133  -12.4960   18.2353 C   0  0  0  0  0  0
  -28.0387  -12.3165   18.6423 C   0  0  0  0  0  0
  -27.6231  -13.2456   19.8175 C   0  0  2  0  0  0
  -28.6591  -13.2502   20.9583 C   0  0  0  0  0  0
  -25.2436  -13.8229   20.5644 C   0  0  0  0  0  0
  -24.1767  -13.0454   20.9213 C   0  0  0  0  0  0
  -24.6397  -11.6947   20.8757 C   0  0  0  0  0  0
  -23.9096  -10.4329   21.0400 C   0  0  0  0  0  0
  -24.3651   -9.4242   21.9168 C   0  0  0  0  0  0
  -23.6342   -8.2269   22.0736 C   0  0  0  0  0  0
  -22.4325   -8.0293   21.3527 C   0  0  0  0  0  0
  -21.9954   -9.0268   20.4632 C   0  0  0  0  0  0
  -22.7269  -10.2157   20.3048 C   0  0  0  0  0  0
  -21.6870   -6.0778   22.5286 C   0  0  0  0  0  0
  -21.4017   -6.5655   23.8228 C   0  0  0  0  0  0
  -21.3674   -5.6787   24.9179 C   0  0  0  0  0  0
  -21.6058   -4.3053   24.7211 C   0  0  0  0  0  0
  -21.8813   -3.8169   23.4322 C   0  0  0  0  0  0
  -21.9189   -4.7007   22.3399 C   0  0  0  0  0  0
  -22.7785  -13.5229   21.1871 C   0  0  0  0  0  0
  -22.1638   -4.2199   21.0973 F   0  0  0  0  0  0
  -21.5638   -3.4522   25.7713 F   0  0  0  0  0  0
  -29.9524  -13.5874   20.3605 N   0  0  0  0  0  0
  -26.2825  -12.9449   20.3080 N   0  0  0  0  0  0
  -25.9303  -11.6589   20.5668 N   0  0  0  0  0  0
  -22.0404  -12.8254   22.0428 N   0  0  0  0  0  0
  -25.4088  -15.1955   20.4119 N   0  0  0  0  0  0
  -31.8521  -14.7454   20.2966 O   0  0  0  0  0  0
  -21.6650   -6.8917   21.4246 O   0  0  0  0  0  0
  -22.3500  -14.5525   20.6686 O   0  0  0  0  0  0
  -24.6311  -31.8512   23.1981 C   0  0  0  0  0  0
  -25.9120  -32.4759   23.8337 C   0  0  1  0  0  0
  -27.2197  -27.2617   20.1510 C   0  0  0  0  0  0
  -25.5908  -33.8567   24.2247 N   0  0  0  0  0  0
  -23.4297  -30.4711   21.5406 C   0  0  2  0  0  0
  -24.8765  -28.9116   20.1189 C   0  0  0  0  0  0
  -22.7486  -29.4570   22.4922 C   0  0  0  0  0  0
  -18.0284  -28.1355   22.8483 C   0  0  0  0  0  0
  -24.1477  -36.7306   23.2644 C   0  0  0  0  0  0
  -25.9732  -30.7739   21.3671 C   0  0  0  0  0  0
  -26.0520  -29.3937   20.7138 C   0  0  0  0  0  0
  -27.2326  -28.5859   20.7061 C   0  0  0  0  0  0
  -26.0218  -26.8332   19.5451 C   0  0  0  0  0  0
  -24.8656  -27.6378   19.5283 C   0  0  0  0  0  0
  -23.6481  -29.7988   20.1591 C   0  0  0  0  0  0
  -25.4102  -36.3078   24.0321 C   0  0  1  0  0  0
  -20.5881  -28.3665   23.1256 C   0  0  2  0  0  0
  -20.6753  -26.9375   22.5396 C   0  0  0  0  0  0
  -19.5752  -26.6344   21.5185 C   0  0  0  0  0  0
  -18.1929  -26.7900   22.1590 C   0  0  0  0  0  0
  -19.1526  -28.8825   23.2866 C   0  0  0  0  0  0
  -18.9458  -30.1429   23.8893 C   0  0  0  0  0  0
  -17.6455  -30.6566   24.0533 C   0  0  0  0  0  0
  -25.9044  -34.9445   23.5077 C   0  0  0  0  0  0
  -16.5351  -29.9056   23.6320 C   0  0  0  0  0  0
  -16.7261  -28.6452   23.0373 C   0  0  0  0  0  0
  -26.4489  -31.6621   25.0751 C   0  0  0  0  0  0
  -25.3730  -31.3782   26.1493 C   0  0  0  0  0  0
  -27.0320  -30.3032   24.6250 C   0  0  0  0  0  0
  -27.6009  -32.4400   25.7563 C   0  0  0  0  0  0
  -27.5569  -37.1807   24.8447 C   0  0  0  0  0  0
  -21.4181  -29.3033   22.3662 N   0  0  0  0  0  0
  -26.4272  -37.3771   23.9408 N   0  0  0  0  0  0
  -24.6985  -31.0471   22.0950 N   0  0  0  0  0  0
  -23.4168  -28.8092   23.3007 O   0  0  0  0  0  0
  -28.3080  -26.3664   20.1680 O   0  0  0  0  0  0
  -26.5594  -34.8915   22.4648 O   0  0  0  0  0  0
  -23.5449  -32.1327   23.7264 O   0  0  0  0  0  0
  -28.8296  -20.7907   20.5327 C   0  0  0  0  0  0
  -29.5123  -18.6944   20.2829 C   0  0  0  0  0  0
  -31.8573  -20.7909   21.9112 C   0  0  0  0  0  0
  -32.9685  -17.4552   19.3075 C   0  0  0  0  0  0
  -31.4276  -18.9975   18.2300 C   0  0  0  0  0  0
  -31.1349  -16.6029   17.7650 C   0  0  0  0  0  0
  -28.5800  -22.2641   21.0798 C   0  0  0  0  0  0
  -28.5585  -23.6018   20.1484 C   0  0  0  0  0  0
  -30.5779  -19.9976   22.2075 C   0  0  0  0  0  0
  -28.1285  -25.0209   20.8197 C   0  0  0  0  0  0
  -30.5074  -17.4392   20.1764 C   0  0  2  0  0  0
  -31.4766  -17.5972   18.9038 C   0  0  0  0  0  0
  -28.0561  -20.2187   19.5958 N   0  0  0  0  0  0
  -28.4727  -18.8882   19.4523 N   0  0  0  0  0  0
  -29.6979  -19.8393   21.0520 N   0  0  0  0  0  0
  -29.9509  -16.0005   20.3712 N   0  0  0  0  0  0
  -31.4590  -12.5893   19.1987 H   0  0  0  0  0  0
  -30.3380  -11.5274   20.0098 H   0  0  0  0  0  0
  -29.8191  -11.7027   17.5527 H   0  0  0  0  0  0
  -29.6398  -13.4365   17.6956 H   0  0  0  0  0  0
  -27.9081  -11.2716   18.9303 H   0  0  0  0  0  0
  -27.3888  -12.4758   17.7811 H   0  0  0  0  0  0
  -27.5956  -14.2536   19.4005 H   0  0  0  0  0  0
  -28.6971  -12.2806   21.4550 H   0  0  0  0  0  0
  -28.3824  -13.9860   21.7166 H   0  0  0  0  0  0
  -25.2807   -9.5732   22.4725 H   0  0  0  0  0  0
  -24.0060   -7.4677   22.7471 H   0  0  0  0  0  0
  -21.0867   -8.8810   19.8965 H   0  0  0  0  0  0
  -22.3727  -10.9689   19.6161 H   0  0  0  0  0  0
  -21.1986   -7.6153   23.9760 H   0  0  0  0  0  0
  -21.1495   -6.0492   25.9086 H   0  0  0  0  0  0
  -22.0581   -2.7632   23.2793 H   0  0  0  0  0  0
  -22.4009  -11.9969   22.4906 H   0  0  0  0  0  0
  -21.0990  -13.1281   22.2550 H   0  0  0  0  0  0
  -24.6383  -15.8400   20.5466 H   0  0  0  0  0  0
  -26.2519  -15.6477   20.0820 H   0  0  0  0  0  0
  -26.7187  -32.5394   23.1080 H   0  0  0  0  0  0
  -25.0077  -33.9736   25.0404 H   0  0  0  0  0  0
  -22.7287  -31.2938   21.3899 H   0  0  0  0  0  0
  -23.3730  -35.9646   23.3284 H   0  0  0  0  0  0
  -24.3566  -36.8959   22.2062 H   0  0  0  0  0  0
  -23.7245  -37.6505   23.6693 H   0  0  0  0  0  0
  -26.0976  -31.5337   20.5930 H   0  0  0  0  0  0
  -26.8546  -30.8306   21.9945 H   0  0  0  0  0  0
  -28.1381  -28.9598   21.1634 H   0  0  0  0  0  0
  -25.9710  -25.8462   19.1037 H   0  0  0  0  0  0
  -23.9608  -27.2555   19.0757 H   0  0  0  0  0  0
  -23.7754  -30.5723   19.4010 H   0  0  0  0  0  0
  -22.7661  -29.2306   19.8551 H   0  0  0  0  0  0
  -25.1286  -36.1919   25.0807 H   0  0  0  0  0  0
  -20.9993  -28.3231   24.1367 H   0  0  0  0  0  0
  -20.5580  -26.2280   23.3606 H   0  0  0  0  0  0
  -21.6628  -26.7352   22.1237 H   0  0  0  0  0  0
  -19.6903  -25.6240   21.1245 H   0  0  0  0  0  0
  -19.6712  -27.3108   20.6683 H   0  0  0  0  0  0
  -17.4200  -26.6649   21.3990 H   0  0  0  0  0  0
  -18.0336  -26.0031   22.8974 H   0  0  0  0  0  0
  -19.7940  -30.7224   24.2280 H   0  0  0  0  0  0
  -17.5019  -31.6263   24.5102 H   0  0  0  0  0  0
  -15.5343  -30.2949   23.7664 H   0  0  0  0  0  0
  -15.8663  -28.0752   22.7136 H   0  0  0  0  0  0
  -24.5882  -30.7142   25.7855 H   0  0  0  0  0  0
  -24.8953  -32.2951   26.4944 H   0  0  0  0  0  0
  -25.8068  -30.8966   27.0263 H   0  0  0  0  0  0
  -26.2884  -29.6832   24.1223 H   0  0  0  0  0  0
  -27.3900  -29.7276   25.4794 H   0  0  0  0  0  0
  -27.8813  -30.4282   23.9533 H   0  0  0  0  0  0
  -27.2542  -33.3672   26.2136 H   0  0  0  0  0  0
  -28.3837  -32.7021   25.0442 H   0  0  0  0  0  0
  -28.0656  -31.8559   26.5511 H   0  0  0  0  0  0
  -28.2555  -38.0129   24.7489 H   0  0  0  0  0  0
  -28.1087  -36.2653   24.6254 H   0  0  0  0  0  0
  -27.2293  -37.1436   25.8850 H   0  0  0  0  0  0
  -20.9351  -29.8817   21.6943 H   0  0  0  0  0  0
  -26.0142  -38.2836   24.1435 H   0  0  0  0  0  0
  -32.5091  -20.7872   22.7859 H   0  0  0  0  0  0
  -31.6346  -21.8339   21.6854 H   0  0  0  0  0  0
  -32.4209  -20.3683   21.0782 H   0  0  0  0  0  0
  -33.6125  -17.3723   18.4315 H   0  0  0  0  0  0
  -33.1924  -16.6015   19.9360 H   0  0  0  0  0  0
  -33.3103  -18.3212   19.8739 H   0  0  0  0  0  0
  -32.1977  -19.0911   17.4623 H   0  0  0  0  0  0
  -31.6063  -19.8110   18.9326 H   0  0  0  0  0  0
  -30.4765  -19.1857   17.7308 H   0  0  0  0  0  0
  -31.6419  -16.8677   16.8373 H   0  0  0  0  0  0
  -30.0642  -16.6036   17.5509 H   0  0  0  0  0  0
  -31.4332  -15.5763   17.9664 H   0  0  0  0  0  0
  -29.3003  -22.4533   21.8765 H   0  0  0  0  0  0
  -27.6220  -22.2222   21.6020 H   0  0  0  0  0  0
  -27.8850  -23.4239   19.3073 H   0  0  0  0  0  0
  -29.5501  -23.7208   19.7129 H   0  0  0  0  0  0
  -30.0146  -20.4932   23.0001 H   0  0  0  0  0  0
  -30.8155  -19.0127   22.6111 H   0  0  0  0  0  0
  -28.7134  -25.0978   21.7387 H   0  0  0  0  0  0
  -27.1001  -24.9245   21.1716 H   0  0  0  0  0  0
  -31.1596  -17.5404   21.0436 H   0  0  0  0  0  0
  -28.9455  -15.9398   20.3991 H   0  0  0  0  0  0
  1 25  1  0  0  0
  1 30  2  0  0  0
  1 86  1  0  0  0
  2  3  1  0  0  0
  2 25  1  0  0  0
  2 87  1  0  0  0
  2 88  1  0  0  0
  3  4  1  0  0  0
  3 89  1  0  0  0
  3 90  1  0  0  0
  4  5  1  0  0  0
  4 91  1  0  0  0
  4 92  1  0  0  0
  5  6  1  0  0  0
  5 26  1  0  0  0
  5 93  1  0  0  0
  6 25  1  0  0  0
  6 94  1  0  0  0
  6 95  1  0  0  0
  7  8  2  0  0  0
  7 26  1  0  0  0
  7 29  1  0  0  0
  8  9  1  0  0  0
  8 22  1  0  0  0
  9 10  1  0  0  0
  9 27  2  0  0  0
 10 11  2  0  0  0
 10 15  1  0  0  0
 11 12  1  0  0  0
 11 96  1  0  0  0
 12 13  2  0  0  0
 12 97  1  0  0  0
 13 14  1  0  0  0
 13 31  1  0  0  0
 14 15  2  0  0  0
 14 98  1  0  0  0
 15 99  1  0  0  0
 16 17  2  0  0  0
 16 21  1  0  0  0
 16 31  1  0  0  0
 17 18  1  0  0  0
 17100  1  0  0  0
 18 19  2  0  0  0
 18101  1  0  0  0
 19 20  1  0  0  0
 19 24  1  0  0  0
 20 21  2  0  0  0
 20102  1  0  0  0
 21 23  1  0  0  0
 22 28  1  0  0  0
 22 32  2  0  0  0
 26 27  1  0  0  0
 28103  1  0  0  0
 28104  1  0  0  0
 29105  1  0  0  0
 29106  1  0  0  0
 33 34  1  0  0  0
 33 66  1  0  0  0
 33 70  2  0  0  0
 34 36  1  0  0  0
 34 59  1  0  0  0
 34107  1  0  0  0
 35 44  2  0  0  0
 35 45  1  0  0  0
 35 68  1  0  0  0
 36 56  1  0  0  0
 36108  1  0  0  0
 37 39  1  0  0  0
 37 47  1  0  0  0
 37 66  1  0  0  0
 37109  1  0  0  0
 38 43  2  0  0  0
 38 46  1  0  0  0
 38 47  1  0  0  0
 39 64  1  0  0  0
 39 67  2  0  0  0
 40 52  1  0  0  0
 40 53  2  0  0  0
 40 58  1  0  0  0
 41110  1  0  0  0
 41111  1  0  0  0
 41112  1  0  0  0
 41 48  1  0  0  0
 42 43  1  0  0  0
 42 66  1  0  0  0
 42113  1  0  0  0
 42114  1  0  0  0
 43 44  1  0  0  0
 44115  1  0  0  0
 45 46  2  0  0  0
 45116  1  0  0  0
 46117  1  0  0  0
 47118  1  0  0  0
 47119  1  0  0  0
 48 56  1  0  0  0
 48 65  1  0  0  0
 48120  1  0  0  0
 49 50  1  0  0  0
 49 53  1  0  0  0
 49 64  1  0  0  0
 49121  1  0  0  0
 50 51  1  0  0  0
 50122  1  0  0  0
 50123  1  0  0  0
 51 52  1  0  0  0
 51124  1  0  0  0
 51125  1  0  0  0
 52126  1  0  0  0
 52127  1  0  0  0
 53 54  1  0  0  0
 54 55  2  0  0  0
 54128  1  0  0  0
 55 57  1  0  0  0
 55129  1  0  0  0
 56 69  2  0  0  0
 57 58  2  0  0  0
 57130  1  0  0  0
 58131  1  0  0  0
 59 60  1  0  0  0
 59 61  1  0  0  0
 59 62  1  0  0  0
 60132  1  0  0  0
 60133  1  0  0  0
 60134  1  0  0  0
 61135  1  0  0  0
 61136  1  0  0  0
 61137  1  0  0  0
 62138  1  0  0  0
 62139  1  0  0  0
 62140  1  0  0  0
 63 65  1  0  0  0
 63141  1  0  0  0
 63142  1  0  0  0
 63143  1  0  0  0
 64144  1  0  0  0
 65145  1  0  0  0
 68 80  1  0  0  0
 71 77  1  0  0  0
 71 83  2  0  0  0
 71 85  1  0  0  0
 72 81  1  0  0  0
 72 84  2  0  0  0
 72 85  1  0  0  0
 73 79  1  0  0  0
 73146  1  0  0  0
 73147  1  0  0  0
 73148  1  0  0  0
 74149  1  0  0  0
 74150  1  0  0  0
 74151  1  0  0  0
 74 82  1  0  0  0
 75 82  1  0  0  0
 75152  1  0  0  0
 75153  1  0  0  0
 75154  1  0  0  0
 76 82  1  0  0  0
 76155  1  0  0  0
 76156  1  0  0  0
 76157  1  0  0  0
 77 78  1  0  0  0
 77158  1  0  0  0
 77159  1  0  0  0
 78 80  1  0  0  0
 78160  1  0  0  0
 78161  1  0  0  0
 79 85  1  0  0  0
 79162  1  0  0  0
 79163  1  0  0  0
 80164  1  0  0  0
 80165  1  0  0  0
 81 82  1  0  0  0
 81 86  1  0  0  0
 81166  1  0  0  0
 83 84  1  0  0  0
 86167  1  0  0  0
M  ISO  4   1 100  68 101  80 101  86 100
M  END
> <chiral flag>
0

> <version>
0

> <s_m_source_file>
/data/baiqing/PycharmProjects/Reinvent-master-3.2/result/LINK_invent/BTK/process_docking_weight1_custom_sum_contain_oxygen_bond_distance_aromatic_linkinvent_7_9_3/rearranged_h_0065.sdf

> <i_m_source_file_index>
24

> <r_mmod_Potential_Energy-OPLS-2005>
179.660125732422

> <r_mmod_Stretch_Energy-OPLS-2005>
149.309799194336

> <r_mmod_Bend_Energy-OPLS-2005>
208.355361938477

> <r_mmod_Torsional_Energy-OPLS-2005>
256.422271728516

> <r_mmod_Improper_Torsional_Energy-OPLS-2005>
8.34873962402344

> <r_mmod_Van_der_Waal_Energy-OPLS-2005>
121.020065307617

> <r_mmod_Electrostatic_Energy-OPLS-2005>
-449.357299804688

> <r_mmod_Solvation_Energy-OPLS-2005>
-220.084518432617

> <b_mmod_Minimization_Converged-OPLS-2005>
0

> <r_mmod_RMS_Derivative-OPLS-2005>
4.27587556838989

$$$$
26
                    3D
 Structure written by MMmdl.
177185  0  0  1  0            999 V2000
  -30.5681  -14.7760   20.4302 C   0  0  0  0  0  0
  -30.4436  -12.4668   19.4829 C   0  0  0  0  0  0
  -29.5209  -12.5228   18.2439 C   0  0  0  0  0  0
  -28.0411  -12.3594   18.6462 C   0  0  0  0  0  0
  -27.6501  -13.2348   19.8650 C   0  0  2  0  0  0
  -28.6918  -13.1573   21.0029 C   0  0  0  0  0  0
  -25.2573  -13.8204   20.5739 C   0  0  0  0  0  0
  -24.1840  -13.0426   20.9189 C   0  0  0  0  0  0
  -24.6410  -11.6906   20.8733 C   0  0  0  0  0  0
  -23.9065  -10.4265   21.0404 C   0  0  0  0  0  0
  -24.3623   -9.4201   21.9185 C   0  0  0  0  0  0
  -23.6308   -8.2234   22.0767 C   0  0  0  0  0  0
  -22.4297   -8.0267   21.3549 C   0  0  0  0  0  0
  -21.9906   -9.0231   20.4661 C   0  0  0  0  0  0
  -22.7234  -10.2111   20.3072 C   0  0  0  0  0  0
  -21.6873   -6.0732   22.5275 C   0  0  0  0  0  0
  -21.4012   -6.5648   23.8199 C   0  0  0  0  0  0
  -21.3667   -5.6808   24.9167 C   0  0  0  0  0  0
  -21.6059   -4.3066   24.7221 C   0  0  0  0  0  0
  -21.8820   -3.8151   23.4336 C   0  0  0  0  0  0
  -21.9197   -4.6963   22.3392 C   0  0  0  0  0  0
  -22.7875  -13.5214   21.1861 C   0  0  0  0  0  0
  -22.1687   -4.2154   21.0974 F   0  0  0  0  0  0
  -21.5624   -3.4536   25.7716 F   0  0  0  0  0  0
  -29.9978  -13.5212   20.4289 N   0  0  0  0  0  0
  -26.2994  -12.9391   20.3366 N   0  0  0  0  0  0
  -25.9361  -11.6514   20.5780 N   0  0  0  0  0  0
  -22.0530  -12.8172   22.0405 N   0  0  0  0  0  0
  -25.4243  -15.1924   20.4206 N   0  0  0  0  0  0
  -31.7256  -14.9241   20.0261 O   0  0  0  0  0  0
  -21.6687   -6.8858   21.4226 O   0  0  0  0  0  0
  -22.3534  -14.5502   20.6726 O   0  0  0  0  0  0
  -24.6288  -31.8511   23.1948 C   0  0  0  0  0  0
  -25.9145  -32.4720   23.8280 C   0  0  1  0  0  0
  -27.2255  -27.2336   20.1438 C   0  0  0  0  0  0
  -25.5959  -33.8521   24.2196 N   0  0  0  0  0  0
  -23.4289  -30.4723   21.5328 C   0  0  2  0  0  0
  -24.8809  -28.9096   20.1127 C   0  0  0  0  0  0
  -22.7463  -29.4593   22.4827 C   0  0  0  0  0  0
  -18.0271  -28.1415   22.8452 C   0  0  0  0  0  0
  -24.1479  -36.7266   23.2636 C   0  0  0  0  0  0
  -25.9717  -30.7593   21.3764 C   0  0  0  0  0  0
  -26.0494  -29.3754   20.7238 C   0  0  0  0  0  0
  -27.2175  -28.5441   20.7434 C   0  0  0  0  0  0
  -26.0267  -26.8366   19.5226 C   0  0  0  0  0  0
  -24.8691  -27.6393   19.5136 C   0  0  0  0  0  0
  -23.6565  -29.8036   20.1494 C   0  0  0  0  0  0
  -25.4114  -36.3049   24.0311 C   0  0  1  0  0  0
  -20.5869  -28.3747   23.1231 C   0  0  2  0  0  0
  -20.6774  -26.9460   22.5400 C   0  0  0  0  0  0
  -19.5765  -26.6404   21.5197 C   0  0  0  0  0  0
  -18.1930  -26.7937   22.1609 C   0  0  0  0  0  0
  -19.1523  -28.8890   23.2830 C   0  0  0  0  0  0
  -18.9478  -30.1473   23.8874 C   0  0  0  0  0  0
  -17.6495  -30.6607   24.0579 C   0  0  0  0  0  0
  -25.9075  -34.9428   23.5047 C   0  0  0  0  0  0
  -16.5378  -29.9124   23.6354 C   0  0  0  0  0  0
  -16.7270  -28.6552   23.0342 C   0  0  0  0  0  0
  -26.4526  -31.6577   25.0691 C   0  0  0  0  0  0
  -25.3753  -31.3778   26.1413 C   0  0  0  0  0  0
  -27.0397  -30.2979   24.6247 C   0  0  0  0  0  0
  -27.6057  -32.4317   25.7500 C   0  0  0  0  0  0
  -27.5546  -37.1801   24.8457 C   0  0  0  0  0  0
  -21.4163  -29.3088   22.3607 N   0  0  0  0  0  0
  -26.4270  -37.3777   23.9392 N   0  0  0  0  0  0
  -24.6942  -31.0452   22.0921 N   0  0  0  0  0  0
  -23.4160  -28.8132   23.2932 O   0  0  0  0  0  0
  -28.2966  -26.3097   20.2746 O   0  0  0  0  0  0
  -26.5636  -34.8926   22.4608 O   0  0  0  0  0  0
  -23.5438  -32.1344   23.7242 O   0  0  0  0  0  0
  -28.2407  -23.5740   19.5473 C   0  0  0  0  0  0
  -27.3375  -22.8448   18.7914 C   0  0  0  0  0  0
  -28.4757  -21.2901   19.9770 C   0  0  0  0  0  0
  -26.3611  -23.4608   17.8254 C   0  0  0  0  0  0
  -30.0996  -25.2871   19.1178 C   0  0  0  0  0  0
  -27.7894  -19.4737   21.8032 C   0  0  0  0  0  0
  -30.8808  -18.4510   21.6750 C   0  0  0  0  0  0
  -30.9090  -19.2454   19.3550 C   0  0  0  0  0  0
  -27.1842  -18.9792   18.3959 C   0  0  0  0  0  0
  -26.0980  -20.6269   17.0048 C   0  0  0  0  0  0
  -25.2847  -20.3409   19.3443 C   0  0  0  0  0  0
  -29.4851  -17.1998   19.9831 C   0  0  0  0  0  0
  -28.5957  -25.1531   19.3502 C   0  0  1  0  0  0
  -28.8794  -19.9400   20.8075 C   0  0  1  0  0  0
  -29.9649  -18.7072   20.4483 C   0  0  0  0  0  0
  -26.5497  -20.3809   18.4673 C   0  0  0  0  0  0
  -28.9448  -22.5529   20.2772 N   0  0  0  0  0  0
  -27.4725  -21.4326   19.0324 N   0  0  0  0  0  0
  -29.7437  -15.8603   20.6995 N   0  0  0  0  0  0
  -31.4823  -12.6037   19.1742 H   0  0  0  0  0  0
  -30.3987  -11.4830   19.9515 H   0  0  0  0  0  0
  -29.7994  -11.7453   17.5312 H   0  0  0  0  0  0
  -29.6593  -13.4777   17.7334 H   0  0  0  0  0  0
  -27.8731  -11.3086   18.8772 H   0  0  0  0  0  0
  -27.3944  -12.5946   17.8008 H   0  0  0  0  0  0
  -27.6437  -14.2647   19.5068 H   0  0  0  0  0  0
  -28.7273  -12.1616   21.4450 H   0  0  0  0  0  0
  -28.4217  -13.8313   21.8181 H   0  0  0  0  0  0
  -25.2743   -9.5718   22.4775 H   0  0  0  0  0  0
  -24.0053   -7.4630   22.7486 H   0  0  0  0  0  0
  -21.0843   -8.8724   19.8947 H   0  0  0  0  0  0
  -22.3667  -10.9663   19.6207 H   0  0  0  0  0  0
  -21.2011   -7.6154   23.9691 H   0  0  0  0  0  0
  -21.1515   -6.0546   25.9072 H   0  0  0  0  0  0
  -22.0596   -2.7610   23.2836 H   0  0  0  0  0  0
  -22.4165  -11.9820   22.4751 H   0  0  0  0  0  0
  -21.1162  -13.1198   22.2660 H   0  0  0  0  0  0
  -24.6483  -15.8368   20.5364 H   0  0  0  0  0  0
  -26.2626  -15.6358   20.0669 H   0  0  0  0  0  0
  -26.7189  -32.5369   23.0998 H   0  0  0  0  0  0
  -25.0187  -33.9652   25.0400 H   0  0  0  0  0  0
  -22.7279  -31.2946   21.3799 H   0  0  0  0  0  0
  -23.3749  -35.9586   23.3303 H   0  0  0  0  0  0
  -24.3590  -36.8892   22.2050 H   0  0  0  0  0  0
  -23.7254  -37.6476   23.6674 H   0  0  0  0  0  0
  -26.1007  -31.5165   20.6032 H   0  0  0  0  0  0
  -26.8508  -30.8208   22.0053 H   0  0  0  0  0  0
  -28.0946  -28.8954   21.2686 H   0  0  0  0  0  0
  -25.9435  -25.8453   19.1245 H   0  0  0  0  0  0
  -23.9587  -27.2499   19.0800 H   0  0  0  0  0  0
  -23.8098  -30.5832   19.4014 H   0  0  0  0  0  0
  -22.7733  -29.2485   19.8250 H   0  0  0  0  0  0
  -25.1305  -36.1863   25.0811 H   0  0  0  0  0  0
  -20.9952  -28.3352   24.1357 H   0  0  0  0  0  0
  -20.5681  -26.2361   23.3616 H   0  0  0  0  0  0
  -21.6647  -26.7480   22.1218 H   0  0  0  0  0  0
  -19.6958  -25.6308   21.1246 H   0  0  0  0  0  0
  -19.6711  -27.3196   20.6709 H   0  0  0  0  0  0
  -17.4202  -26.6630   21.4019 H   0  0  0  0  0  0
  -18.0371  -26.0082   22.9020 H   0  0  0  0  0  0
  -19.7986  -30.7241   24.2236 H   0  0  0  0  0  0
  -17.5108  -31.6285   24.5183 H   0  0  0  0  0  0
  -15.5404  -30.3060   23.7701 H   0  0  0  0  0  0
  -15.8655  -28.0906   22.7057 H   0  0  0  0  0  0
  -24.5946  -30.7087   25.7772 H   0  0  0  0  0  0
  -24.8950  -32.2978   26.4734 H   0  0  0  0  0  0
  -25.8093  -30.9058   27.0233 H   0  0  0  0  0  0
  -26.3025  -29.6694   24.1239 H   0  0  0  0  0  0
  -27.4006  -29.7271   25.4812 H   0  0  0  0  0  0
  -27.8907  -30.4194   23.9549 H   0  0  0  0  0  0
  -27.2660  -33.3614   26.2039 H   0  0  0  0  0  0
  -28.3943  -32.6858   25.0424 H   0  0  0  0  0  0
  -28.0636  -31.8473   26.5474 H   0  0  0  0  0  0
  -28.2580  -38.0082   24.7495 H   0  0  0  0  0  0
  -28.1038  -36.2626   24.6296 H   0  0  0  0  0  0
  -27.2265  -37.1432   25.8864 H   0  0  0  0  0  0
  -20.9297  -29.8857   21.6883 H   0  0  0  0  0  0
  -26.0114  -38.2823   24.1479 H   0  0  0  0  0  0
  -26.4939  -24.5242   17.7008 H   0  0  0  0  0  0
  -25.3292  -23.2999   18.1415 H   0  0  0  0  0  0
  -26.5098  -23.1101   16.8077 H   0  0  0  0  0  0
  -30.6445  -25.0249   20.0240 H   0  0  0  0  0  0
  -30.3788  -26.3055   18.8404 H   0  0  0  0  0  0
  -30.4243  -24.6200   18.3204 H   0  0  0  0  0  0
  -27.3504  -20.3223   22.3302 H   0  0  0  0  0  0
  -28.2035  -18.8180   22.5662 H   0  0  0  0  0  0
  -26.9748  -18.9169   21.3532 H   0  0  0  0  0  0
  -31.3890  -19.3512   22.0241 H   0  0  0  0  0  0
  -31.6707  -17.7377   21.4362 H   0  0  0  0  0  0
  -30.3391  -18.0271   22.5194 H   0  0  0  0  0  0
  -31.3576  -20.1906   19.6649 H   0  0  0  0  0  0
  -30.3904  -19.4290   18.4157 H   0  0  0  0  0  0
  -31.7290  -18.5521   19.1472 H   0  0  0  0  0  0
  -26.7299  -18.3208   17.6518 H   0  0  0  0  0  0
  -27.0363  -18.4574   19.3282 H   0  0  0  0  0  0
  -28.2372  -19.0170   18.1268 H   0  0  0  0  0  0
  -25.6194  -19.7550   16.5568 H   0  0  0  0  0  0
  -26.9416  -20.8919   16.3665 H   0  0  0  0  0  0
  -25.3164  -21.3749   16.9199 H   0  0  0  0  0  0
  -24.6107  -19.5373   19.0458 H   0  0  0  0  0  0
  -24.7360  -21.2800   19.2821 H   0  0  0  0  0  0
  -25.5217  -20.1917   20.3955 H   0  0  0  0  0  0
  -28.4071  -17.1973   20.0297 H   0  0  0  0  0  0
  -29.7097  -17.0539   18.9240 H   0  0  0  0  0  0
  -28.1847  -25.4760   18.3952 H   0  0  0  0  0  0
  -29.5111  -20.4693   21.5187 H   0  0  0  0  0  0
  -28.8996  -15.5345   21.1509 H   0  0  0  0  0  0
  1 25  1  0  0  0
  1 30  2  0  0  0
  1 89  1  0  0  0
  2  3  1  0  0  0
  2 25  1  0  0  0
  2 90  1  0  0  0
  2 91  1  0  0  0
  3  4  1  0  0  0
  3 92  1  0  0  0
  3 93  1  0  0  0
  4  5  1  0  0  0
  4 94  1  0  0  0
  4 95  1  0  0  0
  5  6  1  0  0  0
  5 26  1  0  0  0
  5 96  1  0  0  0
  6 25  1  0  0  0
  6 97  1  0  0  0
  6 98  1  0  0  0
  7  8  2  0  0  0
  7 26  1  0  0  0
  7 29  1  0  0  0
  8  9  1  0  0  0
  8 22  1  0  0  0
  9 10  1  0  0  0
  9 27  2  0  0  0
 10 11  2  0  0  0
 10 15  1  0  0  0
 11 12  1  0  0  0
 11 99  1  0  0  0
 12 13  2  0  0  0
 12100  1  0  0  0
 13 14  1  0  0  0
 13 31  1  0  0  0
 14 15  2  0  0  0
 14101  1  0  0  0
 15102  1  0  0  0
 16 17  2  0  0  0
 16 21  1  0  0  0
 16 31  1  0  0  0
 17 18  1  0  0  0
 17103  1  0  0  0
 18 19  2  0  0  0
 18104  1  0  0  0
 19 20  1  0  0  0
 19 24  1  0  0  0
 20 21  2  0  0  0
 20105  1  0  0  0
 21 23  1  0  0  0
 22 28  1  0  0  0
 22 32  2  0  0  0
 26 27  1  0  0  0
 28106  1  0  0  0
 28107  1  0  0  0
 29108  1  0  0  0
 29109  1  0  0  0
 33 34  1  0  0  0
 33 66  1  0  0  0
 33 70  2  0  0  0
 34 36  1  0  0  0
 34 59  1  0  0  0
 34110  1  0  0  0
 35 44  2  0  0  0
 35 45  1  0  0  0
 35 68  1  0  0  0
 36 56  1  0  0  0
 36111  1  0  0  0
 37 39  1  0  0  0
 37 47  1  0  0  0
 37 66  1  0  0  0
 37112  1  0  0  0
 38 43  2  0  0  0
 38 46  1  0  0  0
 38 47  1  0  0  0
 39 64  1  0  0  0
 39 67  2  0  0  0
 40 52  1  0  0  0
 40 53  2  0  0  0
 40 58  1  0  0  0
 41113  1  0  0  0
 41114  1  0  0  0
 41115  1  0  0  0
 41 48  1  0  0  0
 42 43  1  0  0  0
 42 66  1  0  0  0
 42116  1  0  0  0
 42117  1  0  0  0
 43 44  1  0  0  0
 44118  1  0  0  0
 45 46  2  0  0  0
 45119  1  0  0  0
 46120  1  0  0  0
 47121  1  0  0  0
 47122  1  0  0  0
 48 56  1  0  0  0
 48 65  1  0  0  0
 48123  1  0  0  0
 49 50  1  0  0  0
 49 53  1  0  0  0
 49 64  1  0  0  0
 49124  1  0  0  0
 50 51  1  0  0  0
 50125  1  0  0  0
 50126  1  0  0  0
 51 52  1  0  0  0
 51127  1  0  0  0
 51128  1  0  0  0
 52129  1  0  0  0
 52130  1  0  0  0
 53 54  1  0  0  0
 54 55  2  0  0  0
 54131  1  0  0  0
 55 57  1  0  0  0
 55132  1  0  0  0
 56 69  2  0  0  0
 57 58  2  0  0  0
 57133  1  0  0  0
 58134  1  0  0  0
 59 60  1  0  0  0
 59 61  1  0  0  0
 59 62  1  0  0  0
 60135  1  0  0  0
 60136  1  0  0  0
 60137  1  0  0  0
 61138  1  0  0  0
 61139  1  0  0  0
 61140  1  0  0  0
 62141  1  0  0  0
 62142  1  0  0  0
 62143  1  0  0  0
 63 65  1  0  0  0
 63144  1  0  0  0
 63145  1  0  0  0
 63146  1  0  0  0
 64147  1  0  0  0
 65148  1  0  0  0
 68 83  1  0  0  0
 71 72  2  0  0  0
 71 83  1  0  0  0
 71 87  1  0  0  0
 72 74  1  0  0  0
 72 88  1  0  0  0
 73 84  1  0  0  0
 73 87  2  0  0  0
 73 88  1  0  0  0
 74149  1  0  0  0
 74150  1  0  0  0
 74151  1  0  0  0
 75152  1  0  0  0
 75153  1  0  0  0
 75154  1  0  0  0
 75 83  1  0  0  0
 76155  1  0  0  0
 76156  1  0  0  0
 76157  1  0  0  0
 76 84  1  0  0  0
 77158  1  0  0  0
 77159  1  0  0  0
 77160  1  0  0  0
 77 85  1  0  0  0
 78 85  1  0  0  0
 78161  1  0  0  0
 78162  1  0  0  0
 78163  1  0  0  0
 79164  1  0  0  0
 79165  1  0  0  0
 79166  1  0  0  0
 79 86  1  0  0  0
 80 86  1  0  0  0
 80167  1  0  0  0
 80168  1  0  0  0
 80169  1  0  0  0
 81 86  1  0  0  0
 81170  1  0  0  0
 81171  1  0  0  0
 81172  1  0  0  0
 82 85  1  0  0  0
 82 89  1  0  0  0
 82173  1  0  0  0
 82174  1  0  0  0
 83175  1  0  0  0
 84 85  1  0  0  0
 84176  1  0  0  0
 86 88  1  0  0  0
 89177  1  0  0  0
M  ISO  4   1 100  68 101  83 101  89 100
M  END
> <chiral flag>
0

> <version>
0

> <s_m_source_file>
/data/baiqing/PycharmProjects/Reinvent-master-3.2/result/LINK_invent/BTK/process_docking_weight1_custom_sum_contain_oxygen_bond_distance_aromatic_linkinvent_7_9_3/rearranged_h_0065.sdf

> <i_m_source_file_index>
25

> <r_mmod_Potential_Energy-OPLS-2005>
493.767181396484

> <r_mmod_Stretch_Energy-OPLS-2005>
195.963653564453

> <r_mmod_Bend_Energy-OPLS-2005>
342.263061523438

> <r_mmod_Torsional_Energy-OPLS-2005>
304.856964111328

> <r_mmod_Improper_Torsional_Energy-OPLS-2005>
11.2677593231201

> <r_mmod_Van_der_Waal_Energy-OPLS-2005>
142.360595703125

> <r_mmod_Electrostatic_Energy-OPLS-2005>
-393.721954345703

> <r_mmod_Solvation_Energy-OPLS-2005>
-216.124481201172

> <b_mmod_Minimization_Converged-OPLS-2005>
0

> <r_mmod_RMS_Derivative-OPLS-2005>
5.37344789505005

$$$$
27
                    3D
 Structure written by MMmdl.
167175  0  0  1  0            999 V2000
  -30.6025  -14.7444   20.4674 C   0  0  0  0  0  0
  -30.4450  -12.4579   19.4671 C   0  0  0  0  0  0
  -29.5129  -12.5065   18.2353 C   0  0  0  0  0  0
  -28.0435  -12.3119   18.6582 C   0  0  0  0  0  0
  -27.6460  -13.2183   19.8522 C   0  0  2  0  0  0
  -28.6929  -13.1491   20.9873 C   0  0  0  0  0  0
  -25.2530  -13.8136   20.5700 C   0  0  0  0  0  0
  -24.1809  -13.0409   20.9211 C   0  0  0  0  0  0
  -24.6387  -11.6891   20.8758 C   0  0  0  0  0  0
  -23.9064  -10.4281   21.0427 C   0  0  0  0  0  0
  -24.3621   -9.4195   21.9200 C   0  0  0  0  0  0
  -23.6293   -8.2234   22.0760 C   0  0  0  0  0  0
  -22.4271   -8.0276   21.3554 C   0  0  0  0  0  0
  -21.9911   -9.0252   20.4655 C   0  0  0  0  0  0
  -22.7242  -10.2129   20.3069 C   0  0  0  0  0  0
  -21.6846   -6.0738   22.5286 C   0  0  0  0  0  0
  -21.4007   -6.5647   23.8217 C   0  0  0  0  0  0
  -21.3654   -5.6796   24.9182 C   0  0  0  0  0  0
  -21.6043   -4.3058   24.7231 C   0  0  0  0  0  0
  -21.8818   -3.8152   23.4350 C   0  0  0  0  0  0
  -21.9190   -4.6969   22.3407 C   0  0  0  0  0  0
  -22.7834  -13.5216   21.1874 C   0  0  0  0  0  0
  -22.1664   -4.2159   21.0986 F   0  0  0  0  0  0
  -21.5627   -3.4542   25.7743 F   0  0  0  0  0  0
  -29.9966  -13.5092   20.4080 N   0  0  0  0  0  0
  -26.2953  -12.9332   20.3285 N   0  0  0  0  0  0
  -25.9314  -11.6486   20.5759 N   0  0  0  0  0  0
  -22.0471  -12.8222   22.0428 N   0  0  0  0  0  0
  -25.4160  -15.1857   20.4137 N   0  0  0  0  0  0
  -31.7811  -14.8784   20.1292 O   0  0  0  0  0  0
  -21.6625   -6.8884   21.4249 O   0  0  0  0  0  0
  -22.3530  -14.5525   20.6716 O   0  0  0  0  0  0
  -24.6320  -31.8539   23.1977 C   0  0  0  0  0  0
  -25.9146  -32.4750   23.8319 C   0  0  1  0  0  0
  -27.2286  -27.2626   20.1338 C   0  0  0  0  0  0
  -25.5937  -33.8551   24.2250 N   0  0  0  0  0  0
  -23.4286  -30.4760   21.5402 C   0  0  2  0  0  0
  -24.8784  -28.9193   20.1144 C   0  0  0  0  0  0
  -22.7503  -29.4602   22.4906 C   0  0  0  0  0  0
  -18.0292  -28.1390   22.8490 C   0  0  0  0  0  0
  -24.1486  -36.7284   23.2641 C   0  0  0  0  0  0
  -25.9743  -30.7688   21.3753 C   0  0  0  0  0  0
  -26.0505  -29.3894   20.7212 C   0  0  0  0  0  0
  -27.2296  -28.5754   20.7161 C   0  0  0  0  0  0
  -26.0363  -26.8642   19.4898 C   0  0  0  0  0  0
  -24.8760  -27.6640   19.4876 C   0  0  0  0  0  0
  -23.6491  -29.8067   20.1582 C   0  0  0  0  0  0
  -25.4111  -36.3065   24.0329 C   0  0  1  0  0  0
  -20.5897  -28.3699   23.1269 C   0  0  2  0  0  0
  -20.6773  -26.9414   22.5405 C   0  0  0  0  0  0
  -19.5750  -26.6387   21.5204 C   0  0  0  0  0  0
  -18.1931  -26.7935   22.1623 C   0  0  0  0  0  0
  -19.1547  -28.8862   23.2873 C   0  0  0  0  0  0
  -18.9470  -30.1462   23.8888 C   0  0  0  0  0  0
  -17.6467  -30.6583   24.0569 C   0  0  0  0  0  0
  -25.9051  -34.9436   23.5090 C   0  0  0  0  0  0
  -16.5361  -29.9079   23.6339 C   0  0  0  0  0  0
  -16.7279  -28.6503   23.0355 C   0  0  0  0  0  0
  -26.4508  -31.6582   25.0711 C   0  0  0  0  0  0
  -25.3744  -31.3741   26.1447 C   0  0  0  0  0  0
  -27.0355  -30.2997   24.6205 C   0  0  0  0  0  0
  -27.6065  -32.4328   25.7484 C   0  0  0  0  0  0
  -27.5574  -37.1791   24.8468 C   0  0  0  0  0  0
  -21.4210  -29.3045   22.3651 N   0  0  0  0  0  0
  -26.4285  -37.3765   23.9412 N   0  0  0  0  0  0
  -24.6978  -31.0504   22.0953 N   0  0  0  0  0  0
  -23.4205  -28.8152   23.3013 O   0  0  0  0  0  0
  -28.3301  -26.3739   20.1553 O   0  0  0  0  0  0
  -26.5625  -34.8918   22.4660 O   0  0  0  0  0  0
  -23.5475  -32.1361   23.7276 O   0  0  0  0  0  0
  -30.2752  -21.3775   17.8042 C   0  0  0  0  0  0
  -30.6655  -21.3542   19.1580 C   0  0  0  0  0  0
  -29.6731  -20.9362   20.0664 C   0  0  0  0  0  0
  -28.9835  -20.8891   17.4902 C   0  0  0  0  0  0
  -28.9036  -19.8200   19.5484 C   0  0  0  0  0  0
  -31.9494  -22.0178   19.6161 C   0  0  0  0  0  0
  -29.7952  -17.7650   18.2360 C   0  0  0  0  0  0
  -27.7042  -17.5895   19.6206 C   0  0  0  0  0  0
  -28.8758  -22.2131   20.6360 C   0  0  0  0  0  0
  -29.0955  -23.7340   20.0737 C   0  0  0  0  0  0
  -29.9836  -17.3700   20.6724 C   0  0  0  0  0  0
  -28.1032  -24.9310   20.5289 C   0  0  0  0  0  0
  -29.1279  -18.1983   19.5686 C   0  0  0  0  0  0
  -28.3436  -21.1241   16.1185 C   0  0  0  0  0  0
  -28.2789  -20.1440   18.3875 N   0  0  0  0  0  0
  -29.7913  -15.8363   20.7191 N   0  0  0  0  0  0
  -29.1165  -21.8852   15.3407 F   0  0  0  0  0  0
  -28.1404  -19.9590   15.5003 F   0  0  0  0  0  0
  -27.1682  -21.7407   16.2642 F   0  0  0  0  0  0
  -31.4825  -12.5975   19.1579 H   0  0  0  0  0  0
  -30.4043  -11.4782   19.9446 H   0  0  0  0  0  0
  -29.7995  -11.7403   17.5134 H   0  0  0  0  0  0
  -29.6239  -13.4643   17.7264 H   0  0  0  0  0  0
  -27.9225  -11.2639   18.9381 H   0  0  0  0  0  0
  -27.3767  -12.4801   17.8116 H   0  0  0  0  0  0
  -27.6426  -14.2347   19.4634 H   0  0  0  0  0  0
  -28.7303  -12.1487   21.4207 H   0  0  0  0  0  0
  -28.4224  -13.8209   21.8035 H   0  0  0  0  0  0
  -25.2771   -9.5666   22.4771 H   0  0  0  0  0  0
  -24.0002   -7.4620   22.7468 H   0  0  0  0  0  0
  -21.0843   -8.8775   19.8959 H   0  0  0  0  0  0
  -22.3708  -10.9673   19.6177 H   0  0  0  0  0  0
  -21.1992   -7.6154   23.9731 H   0  0  0  0  0  0
  -21.1479   -6.0524   25.9086 H   0  0  0  0  0  0
  -22.0596   -2.7616   23.2849 H   0  0  0  0  0  0
  -22.4076  -11.9885   22.4825 H   0  0  0  0  0  0
  -21.1090  -13.1256   22.2634 H   0  0  0  0  0  0
  -24.6383  -15.8274   20.5222 H   0  0  0  0  0  0
  -26.2471  -15.6332   20.0547 H   0  0  0  0  0  0
  -26.7213  -32.5408   23.1062 H   0  0  0  0  0  0
  -25.0072  -33.9672   25.0388 H   0  0  0  0  0  0
  -22.7256  -31.2985   21.3927 H   0  0  0  0  0  0
  -23.3742  -35.9622   23.3304 H   0  0  0  0  0  0
  -24.3572  -36.8904   22.2056 H   0  0  0  0  0  0
  -23.7250  -37.6489   23.6665 H   0  0  0  0  0  0
  -26.1090  -31.5277   20.6035 H   0  0  0  0  0  0
  -26.8526  -30.8216   22.0065 H   0  0  0  0  0  0
  -28.1288  -28.9342   21.1978 H   0  0  0  0  0  0
  -25.9836  -25.9137   18.9799 H   0  0  0  0  0  0
  -23.9824  -27.3002   19.0002 H   0  0  0  0  0  0
  -23.7760  -30.5813   19.4007 H   0  0  0  0  0  0
  -22.7673  -29.2413   19.8522 H   0  0  0  0  0  0
  -25.1291  -36.1900   25.0822 H   0  0  0  0  0  0
  -20.9999  -28.3276   24.1387 H   0  0  0  0  0  0
  -20.5659  -26.2305   23.3609 H   0  0  0  0  0  0
  -21.6645  -26.7420   22.1211 H   0  0  0  0  0  0
  -19.6900  -25.6297   21.1232 H   0  0  0  0  0  0
  -19.6690  -27.3198   20.6736 H   0  0  0  0  0  0
  -17.4200  -26.6694   21.4023 H   0  0  0  0  0  0
  -18.0337  -26.0066   22.9013 H   0  0  0  0  0  0
  -19.7942  -30.7283   24.2256 H   0  0  0  0  0  0
  -17.5018  -31.6266   24.5168 H   0  0  0  0  0  0
  -15.5364  -30.2978   23.7652 H   0  0  0  0  0  0
  -15.8685  -28.0809   22.7076 H   0  0  0  0  0  0
  -24.5921  -30.7079   25.7789 H   0  0  0  0  0  0
  -24.8943  -32.2925   26.4851 H   0  0  0  0  0  0
  -25.8087  -30.8947   27.0232 H   0  0  0  0  0  0
  -26.2934  -29.6737   24.1245 H   0  0  0  0  0  0
  -27.4045  -29.7272   25.4721 H   0  0  0  0  0  0
  -27.8808  -30.4255   23.9435 H   0  0  0  0  0  0
  -27.2663  -33.3628   26.2051 H   0  0  0  0  0  0
  -28.3883  -32.6889   25.0321 H   0  0  0  0  0  0
  -28.0730  -31.8467   26.5413 H   0  0  0  0  0  0
  -28.2596  -38.0078   24.7497 H   0  0  0  0  0  0
  -28.1059  -36.2614   24.6307 H   0  0  0  0  0  0
  -27.2297  -37.1463   25.8870 H   0  0  0  0  0  0
  -20.9389  -29.8772   21.6861 H   0  0  0  0  0  0
  -26.0160  -38.2833   24.1421 H   0  0  0  0  0  0
  -30.8836  -21.8629   17.0532 H   0  0  0  0  0  0
  -32.2123  -22.8523   18.9656 H   0  0  0  0  0  0
  -32.7689  -21.2994   19.5960 H   0  0  0  0  0  0
  -31.8601  -22.3926   20.6360 H   0  0  0  0  0  0
  -29.1939  -18.0121   17.3620 H   0  0  0  0  0  0
  -29.9598  -16.6889   18.1876 H   0  0  0  0  0  0
  -30.7642  -18.2494   18.1159 H   0  0  0  0  0  0
  -27.0523  -17.9803   18.8396 H   0  0  0  0  0  0
  -27.2245  -17.8059   20.5754 H   0  0  0  0  0  0
  -27.7079  -16.5139   19.4766 H   0  0  0  0  0  0
  -29.0473  -22.2333   21.7127 H   0  0  0  0  0  0
  -27.8136  -21.9896   20.5299 H   0  0  0  0  0  0
  -29.0557  -23.7014   18.9851 H   0  0  0  0  0  0
  -30.1112  -24.0437   20.3150 H   0  0  0  0  0  0
  -31.0449  -17.6006   20.5701 H   0  0  0  0  0  0
  -29.7048  -17.7404   21.6589 H   0  0  0  0  0  0
  -28.0790  -24.9193   21.6191 H   0  0  0  0  0  0
  -27.1050  -24.6131   20.2358 H   0  0  0  0  0  0
  -28.8539  -15.5615   20.9680 H   0  0  0  0  0  0
  1 25  1  0  0  0
  1 30  2  0  0  0
  1 86  1  0  0  0
  2  3  1  0  0  0
  2 25  1  0  0  0
  2 90  1  0  0  0
  2 91  1  0  0  0
  3  4  1  0  0  0
  3 92  1  0  0  0
  3 93  1  0  0  0
  4  5  1  0  0  0
  4 94  1  0  0  0
  4 95  1  0  0  0
  5  6  1  0  0  0
  5 26  1  0  0  0
  5 96  1  0  0  0
  6 25  1  0  0  0
  6 97  1  0  0  0
  6 98  1  0  0  0
  7  8  2  0  0  0
  7 26  1  0  0  0
  7 29  1  0  0  0
  8  9  1  0  0  0
  8 22  1  0  0  0
  9 10  1  0  0  0
  9 27  2  0  0  0
 10 11  2  0  0  0
 10 15  1  0  0  0
 11 12  1  0  0  0
 11 99  1  0  0  0
 12 13  2  0  0  0
 12100  1  0  0  0
 13 14  1  0  0  0
 13 31  1  0  0  0
 14 15  2  0  0  0
 14101  1  0  0  0
 15102  1  0  0  0
 16 17  2  0  0  0
 16 21  1  0  0  0
 16 31  1  0  0  0
 17 18  1  0  0  0
 17103  1  0  0  0
 18 19  2  0  0  0
 18104  1  0  0  0
 19 20  1  0  0  0
 19 24  1  0  0  0
 20 21  2  0  0  0
 20105  1  0  0  0
 21 23  1  0  0  0
 22 28  1  0  0  0
 22 32  2  0  0  0
 26 27  1  0  0  0
 28106  1  0  0  0
 28107  1  0  0  0
 29108  1  0  0  0
 29109  1  0  0  0
 33 34  1  0  0  0
 33 66  1  0  0  0
 33 70  2  0  0  0
 34 36  1  0  0  0
 34 59  1  0  0  0
 34110  1  0  0  0
 35 44  2  0  0  0
 35 45  1  0  0  0
 35 68  1  0  0  0
 36 56  1  0  0  0
 36111  1  0  0  0
 37 39  1  0  0  0
 37 47  1  0  0  0
 37 66  1  0  0  0
 37112  1  0  0  0
 38 43  2  0  0  0
 38 46  1  0  0  0
 38 47  1  0  0  0
 39 64  1  0  0  0
 39 67  2  0  0  0
 40 52  1  0  0  0
 40 53  2  0  0  0
 40 58  1  0  0  0
 41113  1  0  0  0
 41114  1  0  0  0
 41115  1  0  0  0
 41 48  1  0  0  0
 42 43  1  0  0  0
 42 66  1  0  0  0
 42116  1  0  0  0
 42117  1  0  0  0
 43 44  1  0  0  0
 44118  1  0  0  0
 45 46  2  0  0  0
 45119  1  0  0  0
 46120  1  0  0  0
 47121  1  0  0  0
 47122  1  0  0  0
 48 56  1  0  0  0
 48 65  1  0  0  0
 48123  1  0  0  0
 49 50  1  0  0  0
 49 53  1  0  0  0
 49 64  1  0  0  0
 49124  1  0  0  0
 50 51  1  0  0  0
 50125  1  0  0  0
 50126  1  0  0  0
 51 52  1  0  0  0
 51127  1  0  0  0
 51128  1  0  0  0
 52129  1  0  0  0
 52130  1  0  0  0
 53 54  1  0  0  0
 54 55  2  0  0  0
 54131  1  0  0  0
 55 57  1  0  0  0
 55132  1  0  0  0
 56 69  2  0  0  0
 57 58  2  0  0  0
 57133  1  0  0  0
 58134  1  0  0  0
 59 60  1  0  0  0
 59 61  1  0  0  0
 59 62  1  0  0  0
 60135  1  0  0  0
 60136  1  0  0  0
 60137  1  0  0  0
 61138  1  0  0  0
 61139  1  0  0  0
 61140  1  0  0  0
 62141  1  0  0  0
 62142  1  0  0  0
 62143  1  0  0  0
 63 65  1  0  0  0
 63144  1  0  0  0
 63145  1  0  0  0
 63146  1  0  0  0
 64147  1  0  0  0
 65148  1  0  0  0
 68 82  1  0  0  0
 71 72  2  0  0  0
 71 74  1  0  0  0
 71149  1  0  0  0
 72 73  1  0  0  0
 72 76  1  0  0  0
 73 75  2  0  0  0
 73 79  1  0  0  0
 74 84  1  0  0  0
 74 85  2  0  0  0
 75 83  1  0  0  0
 75 85  1  0  0  0
 76150  1  0  0  0
 76151  1  0  0  0
 76152  1  0  0  0
 77153  1  0  0  0
 77154  1  0  0  0
 77155  1  0  0  0
 77 83  1  0  0  0
 78 83  1  0  0  0
 78156  1  0  0  0
 78157  1  0  0  0
 78158  1  0  0  0
 79 80  1  0  0  0
 79159  1  0  0  0
 79160  1  0  0  0
 80 82  1  0  0  0
 80161  1  0  0  0
 80162  1  0  0  0
 81 83  1  0  0  0
 81 86  1  0  0  0
 81163  1  0  0  0
 81164  1  0  0  0
 82165  1  0  0  0
 82166  1  0  0  0
 84 87  1  0  0  0
 84 88  1  0  0  0
 84 89  1  0  0  0
 86167  1  0  0  0
M  ISO  4   1 100  68 101  82 101  86 100
M  END
> <chiral flag>
0

> <version>
0

> <s_m_source_file>
/data/baiqing/PycharmProjects/Reinvent-master-3.2/result/LINK_invent/BTK/process_docking_weight1_custom_sum_contain_oxygen_bond_distance_aromatic_linkinvent_7_9_3/rearranged_h_0065.sdf

> <i_m_source_file_index>
26

> <r_mmod_Potential_Energy-OPLS-2005>
410.239074707031

> <r_mmod_Stretch_Energy-OPLS-2005>
150.544342041016

> <r_mmod_Bend_Energy-OPLS-2005>
237.296142578125

> <r_mmod_Torsional_Energy-OPLS-2005>
426.825805664062

> <r_mmod_Improper_Torsional_Energy-OPLS-2005>
32.2908210754395

> <r_mmod_Van_der_Waal_Energy-OPLS-2005>
158.600845336914

> <r_mmod_Electrostatic_Energy-OPLS-2005>
-477.984954833984

> <r_mmod_Solvation_Energy-OPLS-2005>
-201.04150390625

> <b_mmod_Minimization_Converged-OPLS-2005>
0

> <r_mmod_RMS_Derivative-OPLS-2005>
1.66968047618866

$$$$
28
                    3D
 Structure written by MMmdl.
181189  0  0  1  0            999 V2000
  -30.7102  -14.5420   20.6602 C   0  0  0  0  0  0
  -30.4280  -12.3674   19.4471 C   0  0  0  0  0  0
  -29.5081  -12.5223   18.2165 C   0  0  0  0  0  0
  -28.0250  -12.3646   18.6135 C   0  0  0  0  0  0
  -27.6602  -13.2049   19.8636 C   0  0  2  0  0  0
  -28.6963  -12.9782   20.9889 C   0  0  0  0  0  0
  -25.2571  -13.8137   20.5605 C   0  0  0  0  0  0
  -24.1840  -13.0436   20.9159 C   0  0  0  0  0  0
  -24.6407  -11.6894   20.8752 C   0  0  0  0  0  0
  -23.9083  -10.4280   21.0427 C   0  0  0  0  0  0
  -24.3624   -9.4182   21.9198 C   0  0  0  0  0  0
  -23.6307   -8.2218   22.0757 C   0  0  0  0  0  0
  -22.4280   -8.0279   21.3560 C   0  0  0  0  0  0
  -21.9922   -9.0245   20.4654 C   0  0  0  0  0  0
  -22.7259  -10.2117   20.3073 C   0  0  0  0  0  0
  -21.6839   -6.0748   22.5299 C   0  0  0  0  0  0
  -21.3976   -6.5648   23.8235 C   0  0  0  0  0  0
  -21.3669   -5.6798   24.9199 C   0  0  0  0  0  0
  -21.6066   -4.3069   24.7232 C   0  0  0  0  0  0
  -21.8804   -3.8165   23.4346 C   0  0  0  0  0  0
  -21.9172   -4.6985   22.3404 C   0  0  0  0  0  0
  -22.7855  -13.5219   21.1850 C   0  0  0  0  0  0
  -22.1650   -4.2180   21.0985 F   0  0  0  0  0  0
  -21.5655   -3.4539   25.7735 F   0  0  0  0  0  0
  -30.0225  -13.3591   20.4745 N   0  0  0  0  0  0
  -26.3020  -12.9318   20.3271 N   0  0  0  0  0  0
  -25.9328  -11.6496   20.5749 N   0  0  0  0  0  0
  -22.0503  -12.8197   22.0407 N   0  0  0  0  0  0
  -25.4275  -15.1856   20.3962 N   0  0  0  0  0  0
  -31.7570  -14.6955   20.0181 O   0  0  0  0  0  0
  -21.6639   -6.8885   21.4266 O   0  0  0  0  0  0
  -22.3540  -14.5542   20.6736 O   0  0  0  0  0  0
  -24.6213  -31.8635   23.2052 C   0  0  0  0  0  0
  -25.9097  -32.4789   23.8360 C   0  0  1  0  0  0
  -27.2352  -27.3700   20.1092 C   0  0  0  0  0  0
  -25.5948  -33.8590   24.2296 N   0  0  0  0  0  0
  -23.4106  -30.4867   21.5470 C   0  0  2  0  0  0
  -24.8579  -28.9431   20.1170 C   0  0  0  0  0  0
  -22.7424  -29.4651   22.4959 C   0  0  0  0  0  0
  -18.0277  -28.1413   22.8462 C   0  0  0  0  0  0
  -24.1499  -36.7289   23.2633 C   0  0  0  0  0  0
  -25.9458  -30.8078   21.3675 C   0  0  0  0  0  0
  -26.0223  -29.4362   20.7184 C   0  0  0  0  0  0
  -27.2121  -28.6602   20.7077 C   0  0  0  0  0  0
  -26.0488  -26.9141   19.4884 C   0  0  0  0  0  0
  -24.8697  -27.6831   19.4994 C   0  0  0  0  0  0
  -23.6241  -29.8194   20.1626 C   0  0  0  0  0  0
  -25.4122  -36.3073   24.0321 C   0  0  1  0  0  0
  -20.5865  -28.3710   23.1291 C   0  0  2  0  0  0
  -20.6782  -26.9445   22.5412 C   0  0  0  0  0  0
  -19.5777  -26.6404   21.5199 C   0  0  0  0  0  0
  -18.1944  -26.7955   22.1593 C   0  0  0  0  0  0
  -19.1526  -28.8874   23.2870 C   0  0  0  0  0  0
  -18.9457  -30.1475   23.8889 C   0  0  0  0  0  0
  -17.6465  -30.6608   24.0571 C   0  0  0  0  0  0
  -25.9060  -34.9449   23.5096 C   0  0  0  0  0  0
  -16.5353  -29.9115   23.6334 C   0  0  0  0  0  0
  -16.7266  -28.6540   23.0329 C   0  0  0  0  0  0
  -26.4527  -31.6561   25.0686 C   0  0  0  0  0  0
  -25.3794  -31.3637   26.1418 C   0  0  0  0  0  0
  -27.0361  -30.3001   24.6066 C   0  0  0  0  0  0
  -27.6091  -32.4277   25.7474 C   0  0  0  0  0  0
  -27.5576  -37.1804   24.8464 C   0  0  0  0  0  0
  -21.4142  -29.3065   22.3687 N   0  0  0  0  0  0
  -26.4288  -37.3771   23.9407 N   0  0  0  0  0  0
  -24.6779  -31.0678   22.0985 N   0  0  0  0  0  0
  -23.4160  -28.8189   23.3032 O   0  0  0  0  0  0
  -28.3945  -26.5949   20.1097 O   0  0  0  0  0  0
  -26.5610  -34.8908   22.4652 O   0  0  0  0  0  0
  -23.5397  -32.1428   23.7419 O   0  0  0  0  0  0
  -33.3154  -17.7244   21.9580 C   0  0  0  0  0  0
  -32.5215  -18.7339   21.5047 C   0  0  0  0  0  0
  -31.3054  -16.8926   21.6342 C   0  0  0  0  0  0
  -28.8616  -19.3443   18.6119 C   0  0  0  0  0  0
  -30.1994  -15.2457   23.0977 C   0  0  0  0  0  0
  -28.8352  -16.2539   21.2567 C   0  0  0  0  0  0
  -27.7621  -21.2716   21.5372 C   0  0  0  0  0  0
  -29.4031  -22.6761   22.7258 C   0  0  0  0  0  0
  -29.9114  -24.5487   18.5537 C   0  0  0  0  0  0
  -30.7484  -24.8290   20.8710 C   0  0  0  0  0  0
  -30.2092  -19.2108   19.3318 C   0  0  0  0  0  0
  -30.2570  -20.6279   21.5686 C   0  0  0  0  0  0
  -29.3863  -22.7028   20.1417 C   0  0  0  0  0  0
  -28.2645  -25.1521   20.3304 C   0  0  0  0  0  0
  -30.1380  -19.1901   20.8805 C   0  0  2  0  0  0
  -30.2412  -15.7402   21.6271 C   0  0  0  0  0  0
  -29.2037  -21.8209   21.4555 C   0  0  0  0  0  0
  -29.5571  -24.2971   20.0404 C   0  0  0  0  0  0
  -32.5431  -16.5872   22.0571 N   0  0  0  0  0  0
  -31.2138  -18.2557   21.3547 N   0  0  0  0  0  0
  -31.4741  -12.4574   19.1506 H   0  0  0  0  0  0
  -30.3404  -11.3556   19.8464 H   0  0  0  0  0  0
  -29.7725  -11.7804   17.4611 H   0  0  0  0  0  0
  -29.6690  -13.4970   17.7556 H   0  0  0  0  0  0
  -27.8472  -11.3082   18.8180 H   0  0  0  0  0  0
  -27.3716  -12.6265   17.7794 H   0  0  0  0  0  0
  -27.6979  -14.2461   19.5441 H   0  0  0  0  0  0
  -28.6925  -11.9220   21.2658 H   0  0  0  0  0  0
  -28.4049  -13.4863   21.8975 H   0  0  0  0  0  0
  -25.2764   -9.5654   22.4786 H   0  0  0  0  0  0
  -24.0031   -7.4587   22.7447 H   0  0  0  0  0  0
  -21.0869   -8.8769   19.8926 H   0  0  0  0  0  0
  -22.3755  -10.9662   19.6182 H   0  0  0  0  0  0
  -21.1938   -7.6147   23.9746 H   0  0  0  0  0  0
  -21.1535   -6.0532   25.9114 H   0  0  0  0  0  0
  -22.0570   -2.7625   23.2841 H   0  0  0  0  0  0
  -22.4114  -11.9855   22.4798 H   0  0  0  0  0  0
  -21.1128  -13.1224   22.2636 H   0  0  0  0  0  0
  -24.6559  -15.8360   20.4886 H   0  0  0  0  0  0
  -26.2829  -15.6225   20.0802 H   0  0  0  0  0  0
  -26.7153  -32.5482   23.1098 H   0  0  0  0  0  0
  -25.0125  -33.9773   25.0460 H   0  0  0  0  0  0
  -22.7016  -31.3055   21.4055 H   0  0  0  0  0  0
  -23.3748  -35.9634   23.3304 H   0  0  0  0  0  0
  -24.3568  -36.8906   22.2039 H   0  0  0  0  0  0
  -23.7281  -37.6502   23.6662 H   0  0  0  0  0  0
  -26.0607  -31.5673   20.5929 H   0  0  0  0  0  0
  -26.8331  -30.8654   21.9862 H   0  0  0  0  0  0
  -28.1077  -29.0366   21.1812 H   0  0  0  0  0  0
  -26.0081  -25.9669   18.9716 H   0  0  0  0  0  0
  -23.9793  -27.2985   19.0206 H   0  0  0  0  0  0
  -23.7488  -30.5976   19.4096 H   0  0  0  0  0  0
  -22.7443  -29.2520   19.8521 H   0  0  0  0  0  0
  -25.1309  -36.1900   25.0813 H   0  0  0  0  0  0
  -20.9949  -28.3310   24.1412 H   0  0  0  0  0  0
  -20.5690  -26.2328   23.3607 H   0  0  0  0  0  0
  -21.6663  -26.7501   22.1217 H   0  0  0  0  0  0
  -19.6956  -25.6306   21.1259 H   0  0  0  0  0  0
  -19.6739  -27.3187   20.6708 H   0  0  0  0  0  0
  -17.4216  -26.6669   21.3995 H   0  0  0  0  0  0
  -18.0359  -26.0113   22.9008 H   0  0  0  0  0  0
  -19.7935  -30.7287   24.2252 H   0  0  0  0  0  0
  -17.5027  -31.6281   24.5195 H   0  0  0  0  0  0
  -15.5360  -30.3024   23.7680 H   0  0  0  0  0  0
  -15.8655  -28.0879   22.7036 H   0  0  0  0  0  0
  -24.6006  -30.6951   25.7731 H   0  0  0  0  0  0
  -24.8954  -32.2773   26.4875 H   0  0  0  0  0  0
  -25.8170  -30.8796   27.0159 H   0  0  0  0  0  0
  -26.2884  -29.6725   24.1195 H   0  0  0  0  0  0
  -27.4205  -29.7268   25.4512 H   0  0  0  0  0  0
  -27.8699  -30.4302   23.9160 H   0  0  0  0  0  0
  -27.2717  -33.3579   26.2056 H   0  0  0  0  0  0
  -28.3929  -32.6819   25.0324 H   0  0  0  0  0  0
  -28.0730  -31.8380   26.5392 H   0  0  0  0  0  0
  -28.2590  -38.0104   24.7497 H   0  0  0  0  0  0
  -28.1080  -36.2627   24.6315 H   0  0  0  0  0  0
  -27.2284  -37.1480   25.8867 H   0  0  0  0  0  0
  -20.9312  -29.8773   21.6889 H   0  0  0  0  0  0
  -26.0152  -38.2835   24.1430 H   0  0  0  0  0  0
  -34.3704  -17.7259   22.1956 H   0  0  0  0  0  0
  -32.8099  -19.7513   21.2889 H   0  0  0  0  0  0
  -28.9756  -19.1350   17.5475 H   0  0  0  0  0  0
  -28.4538  -20.3467   18.7021 H   0  0  0  0  0  0
  -28.1267  -18.6401   19.0016 H   0  0  0  0  0  0
  -30.1035  -16.0929   23.7786 H   0  0  0  0  0  0
  -31.1183  -14.7228   23.3664 H   0  0  0  0  0  0
  -29.3781  -14.5777   23.3296 H   0  0  0  0  0  0
  -28.4996  -17.0015   21.9730 H   0  0  0  0  0  0
  -28.0668  -15.4958   21.3254 H   0  0  0  0  0  0
  -28.8094  -16.6671   20.2493 H   0  0  0  0  0  0
  -27.6023  -20.6966   22.4507 H   0  0  0  0  0  0
  -27.5116  -20.6130   20.7086 H   0  0  0  0  0  0
  -27.0310  -22.0809   21.5349 H   0  0  0  0  0  0
  -29.1793  -22.1109   23.6322 H   0  0  0  0  0  0
  -28.7556  -23.5500   22.7473 H   0  0  0  0  0  0
  -30.4352  -23.0107   22.8229 H   0  0  0  0  0  0
  -30.7989  -23.9913   18.2511 H   0  0  0  0  0  0
  -30.1150  -25.6005   18.3467 H   0  0  0  0  0  0
  -29.0995  -24.2458   17.8908 H   0  0  0  0  0  0
  -31.5734  -24.1169   20.8970 H   0  0  0  0  0  0
  -30.4679  -25.0604   21.8980 H   0  0  0  0  0  0
  -31.1407  -25.7598   20.4564 H   0  0  0  0  0  0
  -30.9064  -19.9777   18.9899 H   0  0  0  0  0  0
  -30.6386  -18.2677   18.9882 H   0  0  0  0  0  0
  -31.2175  -21.0800   21.3305 H   0  0  0  0  0  0
  -30.3363  -20.3866   22.6309 H   0  0  0  0  0  0
  -28.5660  -22.4524   19.4702 H   0  0  0  0  0  0
  -30.2552  -22.2793   19.6394 H   0  0  0  0  0  0
  -27.9415  -25.0183   21.3610 H   0  0  0  0  0  0
  -27.4762  -24.7211   19.7189 H   0  0  0  0  0  0
  -29.1801  -18.7931   21.1909 H   0  0  0  0  0  0
  1 25  1  0  0  0
  1 30  2  0  0  0
  1 86  1  0  0  0
  2  3  1  0  0  0
  2 25  1  0  0  0
  2 91  1  0  0  0
  2 92  1  0  0  0
  3  4  1  0  0  0
  3 93  1  0  0  0
  3 94  1  0  0  0
  4  5  1  0  0  0
  4 95  1  0  0  0
  4 96  1  0  0  0
  5  6  1  0  0  0
  5 26  1  0  0  0
  5 97  1  0  0  0
  6 25  1  0  0  0
  6 98  1  0  0  0
  6 99  1  0  0  0
  7  8  2  0  0  0
  7 26  1  0  0  0
  7 29  1  0  0  0
  8  9  1  0  0  0
  8 22  1  0  0  0
  9 10  1  0  0  0
  9 27  2  0  0  0
 10 11  2  0  0  0
 10 15  1  0  0  0
 11 12  1  0  0  0
 11100  1  0  0  0
 12 13  2  0  0  0
 12101  1  0  0  0
 13 14  1  0  0  0
 13 31  1  0  0  0
 14 15  2  0  0  0
 14102  1  0  0  0
 15103  1  0  0  0
 16 17  2  0  0  0
 16 21  1  0  0  0
 16 31  1  0  0  0
 17 18  1  0  0  0
 17104  1  0  0  0
 18 19  2  0  0  0
 18105  1  0  0  0
 19 20  1  0  0  0
 19 24  1  0  0  0
 20 21  2  0  0  0
 20106  1  0  0  0
 21 23  1  0  0  0
 22 28  1  0  0  0
 22 32  2  0  0  0
 26 27  1  0  0  0
 28107  1  0  0  0
 28108  1  0  0  0
 29109  1  0  0  0
 29110  1  0  0  0
 33 34  1  0  0  0
 33 66  1  0  0  0
 33 70  2  0  0  0
 34 36  1  0  0  0
 34 59  1  0  0  0
 34111  1  0  0  0
 35 44  2  0  0  0
 35 45  1  0  0  0
 35 68  1  0  0  0
 36 56  1  0  0  0
 36112  1  0  0  0
 37 39  1  0  0  0
 37 47  1  0  0  0
 37 66  1  0  0  0
 37113  1  0  0  0
 38 43  2  0  0  0
 38 46  1  0  0  0
 38 47  1  0  0  0
 39 64  1  0  0  0
 39 67  2  0  0  0
 40 52  1  0  0  0
 40 53  2  0  0  0
 40 58  1  0  0  0
 41114  1  0  0  0
 41115  1  0  0  0
 41116  1  0  0  0
 41 48  1  0  0  0
 42 43  1  0  0  0
 42 66  1  0  0  0
 42117  1  0  0  0
 42118  1  0  0  0
 43 44  1  0  0  0
 44119  1  0  0  0
 45 46  2  0  0  0
 45120  1  0  0  0
 46121  1  0  0  0
 47122  1  0  0  0
 47123  1  0  0  0
 48 56  1  0  0  0
 48 65  1  0  0  0
 48124  1  0  0  0
 49 50  1  0  0  0
 49 53  1  0  0  0
 49 64  1  0  0  0
 49125  1  0  0  0
 50 51  1  0  0  0
 50126  1  0  0  0
 50127  1  0  0  0
 51 52  1  0  0  0
 51128  1  0  0  0
 51129  1  0  0  0
 52130  1  0  0  0
 52131  1  0  0  0
 53 54  1  0  0  0
 54 55  2  0  0  0
 54132  1  0  0  0
 55 57  1  0  0  0
 55133  1  0  0  0
 56 69  2  0  0  0
 57 58  2  0  0  0
 57134  1  0  0  0
 58135  1  0  0  0
 59 60  1  0  0  0
 59 61  1  0  0  0
 59 62  1  0  0  0
 60136  1  0  0  0
 60137  1  0  0  0
 60138  1  0  0  0
 61139  1  0  0  0
 61140  1  0  0  0
 61141  1  0  0  0
 62142  1  0  0  0
 62143  1  0  0  0
 62144  1  0  0  0
 63 65  1  0  0  0
 63145  1  0  0  0
 63146  1  0  0  0
 63147  1  0  0  0
 64148  1  0  0  0
 65149  1  0  0  0
 68 84  1  0  0  0
 71 72  2  0  0  0
 71 89  1  0  0  0
 71150  1  0  0  0
 72 90  1  0  0  0
 72151  1  0  0  0
 73 86  1  0  0  0
 73 89  2  0  0  0
 73 90  1  0  0  0
 74 81  1  0  0  0
 74152  1  0  0  0
 74153  1  0  0  0
 74154  1  0  0  0
 75155  1  0  0  0
 75156  1  0  0  0
 75157  1  0  0  0
 75 86  1  0  0  0
 76 86  1  0  0  0
 76158  1  0  0  0
 76159  1  0  0  0
 76160  1  0  0  0
 77161  1  0  0  0
 77162  1  0  0  0
 77163  1  0  0  0
 77 87  1  0  0  0
 78 87  1  0  0  0
 78164  1  0  0  0
 78165  1  0  0  0
 78166  1  0  0  0
 79167  1  0  0  0
 79168  1  0  0  0
 79169  1  0  0  0
 79 88  1  0  0  0
 80 88  1  0  0  0
 80170  1  0  0  0
 80171  1  0  0  0
 80172  1  0  0  0
 81173  1  0  0  0
 81174  1  0  0  0
 81 85  1  0  0  0
 82 85  1  0  0  0
 82 87  1  0  0  0
 82175  1  0  0  0
 82176  1  0  0  0
 83 87  1  0  0  0
 83 88  1  0  0  0
 83177  1  0  0  0
 83178  1  0  0  0
 84 88  1  0  0  0
 84179  1  0  0  0
 84180  1  0  0  0
 85 90  1  0  0  0
 85181  1  0  0  0
M  ISO  4   1 100  68 101  84 101  86 100
M  END
> <chiral flag>
0

> <version>
0

> <s_m_source_file>
/data/baiqing/PycharmProjects/Reinvent-master-3.2/result/LINK_invent/BTK/process_docking_weight1_custom_sum_contain_oxygen_bond_distance_aromatic_linkinvent_7_9_3/rearranged_h_0065.sdf

> <i_m_source_file_index>
27

> <r_mmod_Potential_Energy-OPLS-2005>
315.264251708984

> <r_mmod_Stretch_Energy-OPLS-2005>
97.5879135131836

> <r_mmod_Bend_Energy-OPLS-2005>
222.45149230957

> <r_mmod_Torsional_Energy-OPLS-2005>
275.222259521484

> <r_mmod_Improper_Torsional_Energy-OPLS-2005>
2.2666130065918

> <r_mmod_Van_der_Waal_Energy-OPLS-2005>
149.122711181641

> <r_mmod_Electrostatic_Energy-OPLS-2005>
-260.063110351562

> <r_mmod_Solvation_Energy-OPLS-2005>
-193.407974243164

> <b_mmod_Minimization_Converged-OPLS-2005>
0

> <r_mmod_RMS_Derivative-OPLS-2005>
3.23463010787964

$$$$
29
                    3D
 Structure written by MMmdl.
176184  0  0  1  0            999 V2000
  -30.6977  -14.6066   20.6734 C   0  0  0  0  0  0
  -30.4346  -12.4272   19.4499 C   0  0  0  0  0  0
  -29.5077  -12.5720   18.2214 C   0  0  0  0  0  0
  -28.0250  -12.3989   18.6099 C   0  0  0  0  0  0
  -27.6578  -13.2150   19.8742 C   0  0  2  0  0  0
  -28.6977  -12.9538   20.9814 C   0  0  0  0  0  0
  -25.2538  -13.8173   20.5641 C   0  0  0  0  0  0
  -24.1820  -13.0427   20.9171 C   0  0  0  0  0  0
  -24.6401  -11.6902   20.8716 C   0  0  0  0  0  0
  -23.9075  -10.4288   21.0396 C   0  0  0  0  0  0
  -24.3633   -9.4208   21.9178 C   0  0  0  0  0  0
  -23.6311   -8.2239   22.0744 C   0  0  0  0  0  0
  -22.4280   -8.0280   21.3546 C   0  0  0  0  0  0
  -21.9916   -9.0250   20.4642 C   0  0  0  0  0  0
  -22.7245  -10.2131   20.3051 C   0  0  0  0  0  0
  -21.6849   -6.0742   22.5299 C   0  0  0  0  0  0
  -21.4003   -6.5642   23.8230 C   0  0  0  0  0  0
  -21.3663   -5.6794   24.9188 C   0  0  0  0  0  0
  -21.6056   -4.3060   24.7233 C   0  0  0  0  0  0
  -21.8818   -3.8156   23.4349 C   0  0  0  0  0  0
  -21.9186   -4.6975   22.3413 C   0  0  0  0  0  0
  -22.7836  -13.5199   21.1856 C   0  0  0  0  0  0
  -22.1650   -4.2165   21.0985 F   0  0  0  0  0  0
  -21.5647   -3.4539   25.7742 F   0  0  0  0  0  0
  -30.0164  -13.4087   20.4941 N   0  0  0  0  0  0
  -26.2987  -12.9356   20.3305 N   0  0  0  0  0  0
  -25.9329  -11.6513   20.5731 N   0  0  0  0  0  0
  -22.0478  -12.8181   22.0419 N   0  0  0  0  0  0
  -25.4210  -15.1897   20.4042 N   0  0  0  0  0  0
  -31.6916  -14.7721   19.9535 O   0  0  0  0  0  0
  -21.6633   -6.8878   21.4250 O   0  0  0  0  0  0
  -22.3505  -14.5503   20.6706 O   0  0  0  0  0  0
  -24.6226  -31.8605   23.2017 C   0  0  0  0  0  0
  -25.9086  -32.4786   23.8331 C   0  0  1  0  0  0
  -27.2347  -27.3471   20.1248 C   0  0  0  0  0  0
  -25.5905  -33.8584   24.2270 N   0  0  0  0  0  0
  -23.4147  -30.4821   21.5444 C   0  0  2  0  0  0
  -24.8632  -28.9298   20.1174 C   0  0  0  0  0  0
  -22.7444  -29.4630   22.4950 C   0  0  0  0  0  0
  -18.0282  -28.1378   22.8489 C   0  0  0  0  0  0
  -24.1487  -36.7299   23.2643 C   0  0  0  0  0  0
  -25.9513  -30.8017   21.3646 C   0  0  0  0  0  0
  -26.0290  -29.4281   20.7133 C   0  0  0  0  0  0
  -27.2201  -28.6500   20.7012 C   0  0  0  0  0  0
  -26.0491  -26.8807   19.5212 C   0  0  0  0  0  0
  -24.8732  -27.6597   19.5131 C   0  0  0  0  0  0
  -23.6280  -29.8080   20.1621 C   0  0  0  0  0  0
  -25.4112  -36.3088   24.0331 C   0  0  1  0  0  0
  -20.5878  -28.3676   23.1292 C   0  0  2  0  0  0
  -20.6771  -26.9402   22.5414 C   0  0  0  0  0  0
  -19.5750  -26.6381   21.5212 C   0  0  0  0  0  0
  -18.1926  -26.7921   22.1617 C   0  0  0  0  0  0
  -19.1534  -28.8843   23.2886 C   0  0  0  0  0  0
  -18.9459  -30.1447   23.8896 C   0  0  0  0  0  0
  -17.6462  -30.6581   24.0563 C   0  0  0  0  0  0
  -25.9047  -34.9458   23.5106 C   0  0  0  0  0  0
  -16.5352  -29.9082   23.6333 C   0  0  0  0  0  0
  -16.7270  -28.6499   23.0352 C   0  0  0  0  0  0
  -26.4483  -31.6589   25.0699 C   0  0  0  0  0  0
  -25.3732  -31.3729   26.1435 C   0  0  0  0  0  0
  -27.0328  -30.3020   24.6135 C   0  0  0  0  0  0
  -27.6038  -32.4325   25.7470 C   0  0  0  0  0  0
  -27.5578  -37.1802   24.8463 C   0  0  0  0  0  0
  -21.4162  -29.3036   22.3685 N   0  0  0  0  0  0
  -26.4292  -37.3781   23.9407 N   0  0  0  0  0  0
  -24.6818  -31.0644   22.0946 N   0  0  0  0  0  0
  -23.4180  -28.8183   23.3028 O   0  0  0  0  0  0
  -28.3792  -26.5508   20.1055 O   0  0  0  0  0  0
  -26.5623  -34.8926   22.4678 O   0  0  0  0  0  0
  -23.5397  -32.1385   23.7369 O   0  0  0  0  0  0
  -29.5342  -17.4434   19.8292 C   0  0  0  0  0  0
  -29.8670  -19.5732   21.4705 C   0  0  0  0  0  0
  -30.1168  -17.2328   21.1073 C   0  0  0  0  0  0
  -29.3007  -19.7864   20.1864 C   0  0  0  0  0  0
  -29.1568  -21.2893   18.1584 C   0  0  0  0  0  0
  -27.1847  -21.0304   19.6740 C   0  0  0  0  0  0
  -32.5461  -24.2006   20.9357 C   0  0  0  0  0  0
  -31.8404  -23.4360   18.7285 C   0  0  0  0  0  0
  -28.5043  -23.9452   19.7732 C   0  0  0  0  0  0
  -30.6151  -22.6836   20.7682 C   0  0  0  0  0  0
  -28.3268  -25.2130   20.7123 C   0  0  0  0  0  0
  -29.1027  -22.5675   20.3776 C   0  0  2  0  0  0
  -30.4367  -15.8038   21.7419 C   0  0  0  0  0  0
  -28.7245  -21.1695   19.6369 C   0  0  0  0  0  0
  -31.8043  -15.8986   22.5239 C   0  0  0  0  0  0
  -29.3129  -15.5324   22.7913 C   0  0  0  0  0  0
  -30.2689  -18.3412   21.9053 N   0  0  0  0  0  0
  -29.1411  -18.6812   19.3883 N   0  0  0  0  0  0
  -31.3994  -23.7648   20.1046 N   0  3  0  0  0  0
  -31.7501  -16.6639   23.6166 F   0  0  0  0  0  0
  -32.2149  -14.6941   22.9389 F   0  0  0  0  0  0
  -32.7842  -16.4038   21.7655 F   0  0  0  0  0  0
  -28.1210  -15.5037   22.1898 F   0  0  0  0  0  0
  -29.5218  -14.3984   23.4640 F   0  0  0  0  0  0
  -29.2117  -16.4862   23.7200 F   0  0  0  0  0  0
  -31.4749  -12.5421   19.1404 H   0  0  0  0  0  0
  -30.3850  -11.4083   19.8365 H   0  0  0  0  0  0
  -29.7829  -11.8528   17.4482 H   0  0  0  0  0  0
  -29.6500  -13.5607   17.7825 H   0  0  0  0  0  0
  -27.8408  -11.3379   18.7837 H   0  0  0  0  0  0
  -27.3834  -12.6831   17.7755 H   0  0  0  0  0  0
  -27.7052  -14.2700   19.6061 H   0  0  0  0  0  0
  -28.7347  -11.8813   21.1782 H   0  0  0  0  0  0
  -28.3550  -13.3251   21.9301 H   0  0  0  0  0  0
  -25.2778   -9.5709   22.4749 H   0  0  0  0  0  0
  -24.0051   -7.4629   22.7443 H   0  0  0  0  0  0
  -21.0857   -8.8764   19.8926 H   0  0  0  0  0  0
  -22.3701  -10.9679   19.6170 H   0  0  0  0  0  0
  -21.1969   -7.6152   23.9745 H   0  0  0  0  0  0
  -21.1492   -6.0516   25.9103 H   0  0  0  0  0  0
  -22.0587   -2.7617   23.2850 H   0  0  0  0  0  0
  -22.4082  -11.9855   22.4856 H   0  0  0  0  0  0
  -21.1100  -13.1228   22.2605 H   0  0  0  0  0  0
  -24.6535  -15.8414   20.5184 H   0  0  0  0  0  0
  -26.2767  -15.6391   20.1080 H   0  0  0  0  0  0
  -26.7158  -32.5468   23.1083 H   0  0  0  0  0  0
  -25.0032  -33.9720   25.0404 H   0  0  0  0  0  0
  -22.7077  -31.3018   21.3993 H   0  0  0  0  0  0
  -23.3741  -35.9638   23.3311 H   0  0  0  0  0  0
  -24.3576  -36.8912   22.2056 H   0  0  0  0  0  0
  -23.7244  -37.6506   23.6660 H   0  0  0  0  0  0
  -26.0769  -31.5632   20.5932 H   0  0  0  0  0  0
  -26.8342  -30.8542   21.9904 H   0  0  0  0  0  0
  -28.1214  -29.0374   21.1553 H   0  0  0  0  0  0
  -26.0342  -25.9060   19.0541 H   0  0  0  0  0  0
  -23.9786  -27.2705   19.0466 H   0  0  0  0  0  0
  -23.7422  -30.5816   19.4015 H   0  0  0  0  0  0
  -22.7474  -29.2344   19.8649 H   0  0  0  0  0  0
  -25.1296  -36.1943   25.0822 H   0  0  0  0  0  0
  -20.9976  -28.3259   24.1410 H   0  0  0  0  0  0
  -20.5676  -26.2285   23.3612 H   0  0  0  0  0  0
  -21.6642  -26.7434   22.1209 H   0  0  0  0  0  0
  -19.6916  -25.6295   21.1237 H   0  0  0  0  0  0
  -19.6697  -27.3198   20.6750 H   0  0  0  0  0  0
  -17.4200  -26.6672   21.4016 H   0  0  0  0  0  0
  -18.0323  -26.0061   22.9011 H   0  0  0  0  0  0
  -19.7941  -30.7264   24.2256 H   0  0  0  0  0  0
  -17.5022  -31.6267   24.5159 H   0  0  0  0  0  0
  -15.5355  -30.2986   23.7659 H   0  0  0  0  0  0
  -15.8665  -28.0823   22.7062 H   0  0  0  0  0  0
  -24.5883  -30.7102   25.7768 H   0  0  0  0  0  0
  -24.8957  -32.2905   26.4881 H   0  0  0  0  0  0
  -25.8067  -30.8883   27.0196 H   0  0  0  0  0  0
  -26.2897  -29.6759   24.1182 H   0  0  0  0  0  0
  -27.4060  -29.7278   25.4627 H   0  0  0  0  0  0
  -27.8743  -30.4303   23.9325 H   0  0  0  0  0  0
  -27.2634  -33.3608   26.2061 H   0  0  0  0  0  0
  -28.3843  -32.6910   25.0307 H   0  0  0  0  0  0
  -28.0712  -31.8448   26.5380 H   0  0  0  0  0  0
  -28.2600  -38.0095   24.7508 H   0  0  0  0  0  0
  -28.1069  -36.2628   24.6292 H   0  0  0  0  0  0
  -27.2295  -37.1456   25.8865 H   0  0  0  0  0  0
  -20.9326  -29.8739   21.6886 H   0  0  0  0  0  0
  -26.0174  -38.2856   24.1406 H   0  0  0  0  0  0
  -29.3345  -16.6168   19.1641 H   0  0  0  0  0  0
  -29.9838  -20.3835   22.1747 H   0  0  0  0  0  0
  -28.7303  -20.4922   17.5481 H   0  0  0  0  0  0
  -30.2386  -21.2099   18.0562 H   0  0  0  0  0  0
  -28.8303  -22.2237   17.7017 H   0  0  0  0  0  0
  -26.8553  -20.0985   19.2150 H   0  0  0  0  0  0
  -26.6743  -21.8228   19.1309 H   0  0  0  0  0  0
  -26.8091  -21.0307   20.6975 H   0  0  0  0  0  0
  -33.0687  -25.0391   20.4736 H   0  0  0  0  0  0
  -33.2627  -23.3885   21.0695 H   0  0  0  0  0  0
  -32.2190  -24.5296   21.9228 H   0  0  0  0  0  0
  -32.4476  -24.2396   18.3119 H   0  0  0  0  0  0
  -30.9987  -23.3088   18.0519 H   0  0  0  0  0  0
  -32.4392  -22.5242   18.7085 H   0  0  0  0  0  0
  -29.0833  -24.2506   18.9044 H   0  0  0  0  0  0
  -27.5171  -23.7614   19.3582 H   0  0  0  0  0  0
  -31.1491  -21.7456   20.6258 H   0  0  0  0  0  0
  -30.6444  -22.8622   21.8447 H   0  0  0  0  0  0
  -29.1283  -25.2048   21.4513 H   0  0  0  0  0  0
  -27.4134  -25.1007   21.3005 H   0  0  0  0  0  0
  -28.5983  -22.4699   21.3415 H   0  0  0  0  0  0
  -30.7972  -24.5711   20.0314 H   0  0  0  0  0  0
  1 25  1  0  0  0
  1 30  2  0  0  0
  1 83  1  0  0  0
  2  3  1  0  0  0
  2 25  1  0  0  0
  2 96  1  0  0  0
  2 97  1  0  0  0
  3  4  1  0  0  0
  3 98  1  0  0  0
  3 99  1  0  0  0
  4  5  1  0  0  0
  4100  1  0  0  0
  4101  1  0  0  0
  5  6  1  0  0  0
  5 26  1  0  0  0
  5102  1  0  0  0
  6 25  1  0  0  0
  6103  1  0  0  0
  6104  1  0  0  0
  7  8  2  0  0  0
  7 26  1  0  0  0
  7 29  1  0  0  0
  8  9  1  0  0  0
  8 22  1  0  0  0
  9 10  1  0  0  0
  9 27  2  0  0  0
 10 11  2  0  0  0
 10 15  1  0  0  0
 11 12  1  0  0  0
 11105  1  0  0  0
 12 13  2  0  0  0
 12106  1  0  0  0
 13 14  1  0  0  0
 13 31  1  0  0  0
 14 15  2  0  0  0
 14107  1  0  0  0
 15108  1  0  0  0
 16 17  2  0  0  0
 16 21  1  0  0  0
 16 31  1  0  0  0
 17 18  1  0  0  0
 17109  1  0  0  0
 18 19  2  0  0  0
 18110  1  0  0  0
 19 20  1  0  0  0
 19 24  1  0  0  0
 20 21  2  0  0  0
 20111  1  0  0  0
 21 23  1  0  0  0
 22 28  1  0  0  0
 22 32  2  0  0  0
 26 27  1  0  0  0
 28112  1  0  0  0
 28113  1  0  0  0
 29114  1  0  0  0
 29115  1  0  0  0
 33 34  1  0  0  0
 33 66  1  0  0  0
 33 70  2  0  0  0
 34 36  1  0  0  0
 34 59  1  0  0  0
 34116  1  0  0  0
 35 44  2  0  0  0
 35 45  1  0  0  0
 35 68  1  0  0  0
 36 56  1  0  0  0
 36117  1  0  0  0
 37 39  1  0  0  0
 37 47  1  0  0  0
 37 66  1  0  0  0
 37118  1  0  0  0
 38 43  2  0  0  0
 38 46  1  0  0  0
 38 47  1  0  0  0
 39 64  1  0  0  0
 39 67  2  0  0  0
 40 52  1  0  0  0
 40 53  2  0  0  0
 40 58  1  0  0  0
 41119  1  0  0  0
 41120  1  0  0  0
 41121  1  0  0  0
 41 48  1  0  0  0
 42 43  1  0  0  0
 42 66  1  0  0  0
 42122  1  0  0  0
 42123  1  0  0  0
 43 44  1  0  0  0
 44124  1  0  0  0
 45 46  2  0  0  0
 45125  1  0  0  0
 46126  1  0  0  0
 47127  1  0  0  0
 47128  1  0  0  0
 48 56  1  0  0  0
 48 65  1  0  0  0
 48129  1  0  0  0
 49 50  1  0  0  0
 49 53  1  0  0  0
 49 64  1  0  0  0
 49130  1  0  0  0
 50 51  1  0  0  0
 50131  1  0  0  0
 50132  1  0  0  0
 51 52  1  0  0  0
 51133  1  0  0  0
 51134  1  0  0  0
 52135  1  0  0  0
 52136  1  0  0  0
 53 54  1  0  0  0
 54 55  2  0  0  0
 54137  1  0  0  0
 55 57  1  0  0  0
 55138  1  0  0  0
 56 69  2  0  0  0
 57 58  2  0  0  0
 57139  1  0  0  0
 58140  1  0  0  0
 59 60  1  0  0  0
 59 61  1  0  0  0
 59 62  1  0  0  0
 60141  1  0  0  0
 60142  1  0  0  0
 60143  1  0  0  0
 61144  1  0  0  0
 61145  1  0  0  0
 61146  1  0  0  0
 62147  1  0  0  0
 62148  1  0  0  0
 62149  1  0  0  0
 63 65  1  0  0  0
 63150  1  0  0  0
 63151  1  0  0  0
 63152  1  0  0  0
 64153  1  0  0  0
 65154  1  0  0  0
 68 81  1  0  0  0
 71 73  2  0  0  0
 71 88  1  0  0  0
 71155  1  0  0  0
 72 74  1  0  0  0
 72 87  2  0  0  0
 72156  1  0  0  0
 73 83  1  0  0  0
 73 87  1  0  0  0
 74 84  1  0  0  0
 74 88  2  0  0  0
 75157  1  0  0  0
 75158  1  0  0  0
 75159  1  0  0  0
 75 84  1  0  0  0
 76 84  1  0  0  0
 76160  1  0  0  0
 76161  1  0  0  0
 76162  1  0  0  0
 77163  1  0  0  0
 77164  1  0  0  0
 77165  1  0  0  0
 77 89  1  0  0  0
 78 89  1  0  0  0
 78166  1  0  0  0
 78167  1  0  0  0
 78168  1  0  0  0
 79 81  1  0  0  0
 79169  1  0  0  0
 79170  1  0  0  0
 79 82  1  0  0  0
 80 82  1  0  0  0
 80 89  1  0  0  0
 80171  1  0  0  0
 80172  1  0  0  0
 81173  1  0  0  0
 81174  1  0  0  0
 82 84  1  0  0  0
 82175  1  0  0  0
 83 85  1  0  0  0
 83 86  1  0  0  0
 85 90  1  0  0  0
 85 91  1  0  0  0
 85 92  1  0  0  0
 86 93  1  0  0  0
 86 94  1  0  0  0
 86 95  1  0  0  0
 89176  1  0  0  0
M  CHG  1  89   1
M  ISO  4   1 100  68 101  81 101  83 100
M  END
> <chiral flag>
0

> <version>
0

> <s_m_source_file>
/data/baiqing/PycharmProjects/Reinvent-master-3.2/result/LINK_invent/BTK/process_docking_weight1_custom_sum_contain_oxygen_bond_distance_aromatic_linkinvent_7_9_3/rearranged_h_0065.sdf

> <i_m_source_file_index>
28

> <r_mmod_Potential_Energy-OPLS-2005>
315.184326171875

> <r_mmod_Stretch_Energy-OPLS-2005>
120.623565673828

> <r_mmod_Bend_Energy-OPLS-2005>
214.727630615234

> <r_mmod_Torsional_Energy-OPLS-2005>
209.8193359375

> <r_mmod_Improper_Torsional_Energy-OPLS-2005>
2.80747985839844

> <r_mmod_Van_der_Waal_Energy-OPLS-2005>
178.710556030273

> <r_mmod_Electrostatic_Energy-OPLS-2005>
-49.4378318786621

> <r_mmod_Solvation_Energy-OPLS-2005>
-397.005157470703

> <b_mmod_Minimization_Converged-OPLS-2005>
0

> <r_mmod_RMS_Derivative-OPLS-2005>
1.93512642383575

$$$$
30
                    3D
 Structure written by MMmdl.
185193  0  0  1  0            999 V2000
  -30.7832  -14.4187   20.6972 C   0  0  0  0  0  0
  -30.4221  -12.3341   19.4004 C   0  0  0  0  0  0
  -29.4887  -12.5399   18.1940 C   0  0  0  0  0  0
  -28.0122  -12.3857   18.6065 C   0  0  0  0  0  0
  -27.6625  -13.2128   19.8716 C   0  0  2  0  0  0
  -28.7035  -12.9873   20.9889 C   0  0  0  0  0  0
  -25.2640  -13.8194   20.5758 C   0  0  0  0  0  0
  -24.1879  -13.0459   20.9224 C   0  0  0  0  0  0
  -24.6414  -11.6921   20.8713 C   0  0  0  0  0  0
  -23.9065  -10.4307   21.0385 C   0  0  0  0  0  0
  -24.3621   -9.4225   21.9161 C   0  0  0  0  0  0
  -23.6327   -8.2239   22.0731 C   0  0  0  0  0  0
  -22.4307   -8.0279   21.3525 C   0  0  0  0  0  0
  -21.9929   -9.0245   20.4627 C   0  0  0  0  0  0
  -22.7241  -10.2146   20.3037 C   0  0  0  0  0  0
  -21.6875   -6.0761   22.5290 C   0  0  0  0  0  0
  -21.4000   -6.5636   23.8227 C   0  0  0  0  0  0
  -21.3650   -5.6786   24.9176 C   0  0  0  0  0  0
  -21.6061   -4.3054   24.7222 C   0  0  0  0  0  0
  -21.8823   -3.8151   23.4339 C   0  0  0  0  0  0
  -21.9193   -4.6980   22.3405 C   0  0  0  0  0  0
  -22.7879  -13.5273   21.1870 C   0  0  0  0  0  0
  -22.1673   -4.2166   21.0988 F   0  0  0  0  0  0
  -21.5625   -3.4538   25.7734 F   0  0  0  0  0  0
  -30.0422  -13.2959   20.4515 N   0  0  0  0  0  0
  -26.3042  -12.9346   20.3337 N   0  0  0  0  0  0
  -25.9344  -11.6491   20.5704 N   0  0  0  0  0  0
  -22.0476  -12.8239   22.0380 N   0  0  0  0  0  0
  -25.4445  -15.1919   20.4322 N   0  0  0  0  0  0
  -31.7838  -14.6732   20.0147 O   0  0  0  0  0  0
  -21.6648   -6.8901   21.4261 O   0  0  0  0  0  0
  -22.3556  -14.5562   20.6701 O   0  0  0  0  0  0
  -24.6172  -31.8700   23.2130 C   0  0  0  0  0  0
  -25.9063  -32.4843   23.8434 C   0  0  1  0  0  0
  -27.2434  -27.4369   20.0910 C   0  0  0  0  0  0
  -25.5911  -33.8646   24.2359 N   0  0  0  0  0  0
  -23.4044  -30.4949   21.5552 C   0  0  2  0  0  0
  -24.8502  -28.9636   20.1226 C   0  0  0  0  0  0
  -22.7423  -29.4698   22.5036 C   0  0  0  0  0  0
  -18.0276  -28.1382   22.8500 C   0  0  0  0  0  0
  -24.1480  -36.7322   23.2633 C   0  0  0  0  0  0
  -25.9353  -30.8362   21.3652 C   0  0  0  0  0  0
  -26.0136  -29.4703   20.7146 C   0  0  0  0  0  0
  -27.2095  -28.7150   20.6973 C   0  0  0  0  0  0
  -26.0468  -26.9470   19.5047 C   0  0  0  0  0  0
  -24.8611  -27.6974   19.5203 C   0  0  0  0  0  0
  -23.6136  -29.8293   20.1706 C   0  0  0  0  0  0
  -25.4104  -36.3120   24.0337 C   0  0  1  0  0  0
  -20.5866  -28.3675   23.1323 C   0  0  2  0  0  0
  -20.6775  -26.9416   22.5401 C   0  0  0  0  0  0
  -19.5754  -26.6398   21.5208 C   0  0  0  0  0  0
  -18.1933  -26.7936   22.1623 C   0  0  0  0  0  0
  -19.1519  -28.8840   23.2914 C   0  0  0  0  0  0
  -18.9457  -30.1452   23.8907 C   0  0  0  0  0  0
  -17.6459  -30.6590   24.0564 C   0  0  0  0  0  0
  -25.9027  -34.9498   23.5144 C   0  0  0  0  0  0
  -16.5348  -29.9076   23.6345 C   0  0  0  0  0  0
  -16.7267  -28.6496   23.0367 C   0  0  0  0  0  0
  -26.4489  -31.6621   25.0767 C   0  0  0  0  0  0
  -25.3744  -31.3723   26.1504 C   0  0  0  0  0  0
  -27.0321  -30.3051   24.6139 C   0  0  0  0  0  0
  -27.6075  -32.4345   25.7510 C   0  0  0  0  0  0
  -27.5592  -37.1818   24.8466 C   0  0  0  0  0  0
  -21.4157  -29.3053   22.3729 N   0  0  0  0  0  0
  -26.4293  -37.3811   23.9421 N   0  0  0  0  0  0
  -24.6721  -31.0809   22.1025 N   0  0  0  0  0  0
  -23.4176  -28.8214   23.3071 O   0  0  0  0  0  0
  -28.4280  -26.7131   20.0903 O   0  0  0  0  0  0
  -26.5568  -34.8937   22.4694 O   0  0  0  0  0  0
  -23.5357  -32.1451   23.7512 O   0  0  0  0  0  0
  -28.4251  -16.8614   21.6818 C   0  0  0  0  0  0
  -27.9108  -18.1549   21.5277 C   0  0  0  0  0  0
  -29.8139  -16.7037   21.5581 C   0  0  0  0  0  0
  -30.0215  -18.9984   21.2267 C   0  0  0  0  0  0
  -31.7619  -15.5728   22.7523 C   0  0  0  0  0  0
  -32.7209  -21.4226   22.6823 C   0  0  0  0  0  0
  -30.3166  -21.9948   23.0461 C   0  0  0  0  0  0
  -31.2122  -19.7940   23.7976 C   0  0  0  0  0  0
  -29.6303  -21.8892   16.6641 C   0  0  0  0  0  0
  -31.6558  -23.1350   17.4925 C   0  0  0  0  0  0
  -29.6835  -24.3608   16.5987 C   0  0  0  0  0  0
  -30.8356  -21.2646   20.0684 C   0  0  0  0  0  0
  -29.4618  -21.9024   19.7567 C   0  0  0  0  0  0
  -29.6388  -24.5224   19.6343 C   0  0  0  0  0  0
  -28.3484  -25.3726   19.5940 C   0  0  0  0  0  0
  -30.4904  -15.3569   21.9047 C   0  0  2  0  0  0
  -30.9645  -20.2343   21.2455 C   0  0  1  0  0  0
  -29.4261  -23.1813   18.8547 C   0  0  1  0  0  0
  -31.2830  -20.8504   22.6689 C   0  0  0  0  0  0
  -30.1109  -23.1319   17.4397 C   0  0  0  0  0  0
  -28.7136  -19.2151   21.3280 N   0  0  0  0  0  0
  -30.5897  -17.7855   21.2915 N   0  0  0  0  0  0
  -31.4617  -12.4399   19.0851 H   0  0  0  0  0  0
  -30.3356  -11.3154   19.7787 H   0  0  0  0  0  0
  -29.7310  -11.8341   17.3973 H   0  0  0  0  0  0
  -29.6611  -13.5353   17.7790 H   0  0  0  0  0  0
  -27.8201  -11.3281   18.7905 H   0  0  0  0  0  0
  -27.3613  -12.6750   17.7786 H   0  0  0  0  0  0
  -27.7074  -14.2649   19.5853 H   0  0  0  0  0  0
  -28.6750  -11.9468   21.3184 H   0  0  0  0  0  0
  -28.4168  -13.5797   21.8523 H   0  0  0  0  0  0
  -25.2759   -9.5708   22.4745 H   0  0  0  0  0  0
  -24.0064   -7.4609   22.7423 H   0  0  0  0  0  0
  -21.0873   -8.8742   19.8907 H   0  0  0  0  0  0
  -22.3682  -10.9680   19.6132 H   0  0  0  0  0  0
  -21.1962   -7.6135   23.9736 H   0  0  0  0  0  0
  -21.1482   -6.0499   25.9092 H   0  0  0  0  0  0
  -22.0613   -2.7618   23.2838 H   0  0  0  0  0  0
  -22.4106  -11.9937   22.4825 H   0  0  0  0  0  0
  -21.1050  -13.1202   22.2496 H   0  0  0  0  0  0
  -24.7015  -15.8655   20.5900 H   0  0  0  0  0  0
  -26.3122  -15.6216   20.1356 H   0  0  0  0  0  0
  -26.7140  -32.5540   23.1204 H   0  0  0  0  0  0
  -25.0144  -33.9831   25.0541 H   0  0  0  0  0  0
  -22.6938  -31.3119   21.4168 H   0  0  0  0  0  0
  -23.3759  -35.9647   23.3286 H   0  0  0  0  0  0
  -24.3548  -36.8937   22.2047 H   0  0  0  0  0  0
  -23.7228  -37.6523   23.6641 H   0  0  0  0  0  0
  -26.0430  -31.6032   20.5954 H   0  0  0  0  0  0
  -26.8235  -30.8890   21.9831 H   0  0  0  0  0  0
  -28.1076  -29.1110   21.1516 H   0  0  0  0  0  0
  -25.9873  -25.9791   19.0325 H   0  0  0  0  0  0
  -23.9618  -27.2944   19.0745 H   0  0  0  0  0  0
  -23.7199  -30.6012   19.4076 H   0  0  0  0  0  0
  -22.7376  -29.2447   19.8816 H   0  0  0  0  0  0
  -25.1289  -36.1997   25.0830 H   0  0  0  0  0  0
  -20.9958  -28.3228   24.1449 H   0  0  0  0  0  0
  -20.5712  -26.2280   23.3588 H   0  0  0  0  0  0
  -21.6647  -26.7494   22.1180 H   0  0  0  0  0  0
  -19.6896  -25.6305   21.1246 H   0  0  0  0  0  0
  -19.6673  -27.3210   20.6733 H   0  0  0  0  0  0
  -17.4204  -26.6717   21.4006 H   0  0  0  0  0  0
  -18.0307  -26.0075   22.9002 H   0  0  0  0  0  0
  -19.7921  -30.7292   24.2266 H   0  0  0  0  0  0
  -17.5000  -31.6280   24.5157 H   0  0  0  0  0  0
  -15.5340  -30.2980   23.7670 H   0  0  0  0  0  0
  -15.8680  -28.0823   22.7077 H   0  0  0  0  0  0
  -24.5903  -30.7088   25.7827 H   0  0  0  0  0  0
  -24.8966  -32.2887   26.4994 H   0  0  0  0  0  0
  -25.8112  -30.8854   27.0229 H   0  0  0  0  0  0
  -26.2867  -29.6793   24.1203 H   0  0  0  0  0  0
  -27.4088  -29.7312   25.4623 H   0  0  0  0  0  0
  -27.8707  -30.4382   23.9297 H   0  0  0  0  0  0
  -27.2719  -33.3651   26.2107 H   0  0  0  0  0  0
  -28.3870  -32.6891   25.0313 H   0  0  0  0  0  0
  -28.0749  -31.8444   26.5405 H   0  0  0  0  0  0
  -28.2624  -38.0100   24.7533 H   0  0  0  0  0  0
  -28.1075  -36.2647   24.6277 H   0  0  0  0  0  0
  -27.2300  -37.1454   25.8859 H   0  0  0  0  0  0
  -20.9292  -29.8745   21.6936 H   0  0  0  0  0  0
  -26.0186  -38.2892   24.1399 H   0  0  0  0  0  0
  -27.7734  -16.0355   21.9300 H   0  0  0  0  0  0
  -26.8502  -18.3388   21.6200 H   0  0  0  0  0  0
  -31.5310  -16.1356   23.6554 H   0  0  0  0  0  0
  -32.5178  -16.1279   22.1968 H   0  0  0  0  0  0
  -32.2029  -14.6225   23.0585 H   0  0  0  0  0  0
  -32.9921  -21.8093   23.6635 H   0  0  0  0  0  0
  -32.8352  -22.2517   21.9850 H   0  0  0  0  0  0
  -33.4620  -20.6696   22.4154 H   0  0  0  0  0  0
  -30.5391  -22.3819   24.0409 H   0  0  0  0  0  0
  -29.2778  -21.6635   23.0500 H   0  0  0  0  0  0
  -30.3960  -22.8385   22.3620 H   0  0  0  0  0  0
  -31.5323  -20.2057   24.7550 H   0  0  0  0  0  0
  -31.8594  -18.9427   23.5810 H   0  0  0  0  0  0
  -30.1995  -19.4127   23.9405 H   0  0  0  0  0  0
  -30.0319  -21.8710   15.6499 H   0  0  0  0  0  0
  -28.5418  -21.8731   16.5783 H   0  0  0  0  0  0
  -29.9354  -20.9619   17.1460 H   0  0  0  0  0  0
  -32.0775  -23.3614   16.5129 H   0  0  0  0  0  0
  -32.0695  -22.1705   17.7763 H   0  0  0  0  0  0
  -32.0515  -23.8804   18.1821 H   0  0  0  0  0  0
  -30.1145  -24.3346   15.5973 H   0  0  0  0  0  0
  -30.0036  -25.3064   17.0376 H   0  0  0  0  0  0
  -28.5999  -24.4052   16.4757 H   0  0  0  0  0  0
  -31.5535  -22.0676   20.2170 H   0  0  0  0  0  0
  -31.1591  -20.7413   19.1712 H   0  0  0  0  0  0
  -28.9498  -22.1388   20.6870 H   0  0  0  0  0  0
  -28.8400  -21.1354   19.2955 H   0  0  0  0  0  0
  -29.9253  -24.3365   20.6683 H   0  0  0  0  0  0
  -30.4667  -25.0974   19.2181 H   0  0  0  0  0  0
  -27.5822  -24.8276   20.1509 H   0  0  0  0  0  0
  -28.0296  -25.4274   18.5544 H   0  0  0  0  0  0
  -29.8264  -14.8466   22.5960 H   0  0  0  0  0  0
  -31.9112  -19.7534   20.9917 H   0  0  0  0  0  0
  -28.3661  -23.1883   18.5942 H   0  0  0  0  0  0
  1 25  1  0  0  0
  1 30  2  0  0  0
  1 86  1  0  0  0
  2  3  1  0  0  0
  2 25  1  0  0  0
  2 93  1  0  0  0
  2 94  1  0  0  0
  3  4  1  0  0  0
  3 95  1  0  0  0
  3 96  1  0  0  0
  4  5  1  0  0  0
  4 97  1  0  0  0
  4 98  1  0  0  0
  5  6  1  0  0  0
  5 26  1  0  0  0
  5 99  1  0  0  0
  6 25  1  0  0  0
  6100  1  0  0  0
  6101  1  0  0  0
  7  8  2  0  0  0
  7 26  1  0  0  0
  7 29  1  0  0  0
  8  9  1  0  0  0
  8 22  1  0  0  0
  9 10  1  0  0  0
  9 27  2  0  0  0
 10 11  2  0  0  0
 10 15  1  0  0  0
 11 12  1  0  0  0
 11102  1  0  0  0
 12 13  2  0  0  0
 12103  1  0  0  0
 13 14  1  0  0  0
 13 31  1  0  0  0
 14 15  2  0  0  0
 14104  1  0  0  0
 15105  1  0  0  0
 16 17  2  0  0  0
 16 21  1  0  0  0
 16 31  1  0  0  0
 17 18  1  0  0  0
 17106  1  0  0  0
 18 19  2  0  0  0
 18107  1  0  0  0
 19 20  1  0  0  0
 19 24  1  0  0  0
 20 21  2  0  0  0
 20108  1  0  0  0
 21 23  1  0  0  0
 22 28  1  0  0  0
 22 32  2  0  0  0
 26 27  1  0  0  0
 28109  1  0  0  0
 28110  1  0  0  0
 29111  1  0  0  0
 29112  1  0  0  0
 33 34  1  0  0  0
 33 66  1  0  0  0
 33 70  2  0  0  0
 34 36  1  0  0  0
 34 59  1  0  0  0
 34113  1  0  0  0
 35 44  2  0  0  0
 35 45  1  0  0  0
 35 68  1  0  0  0
 36 56  1  0  0  0
 36114  1  0  0  0
 37 39  1  0  0  0
 37 47  1  0  0  0
 37 66  1  0  0  0
 37115  1  0  0  0
 38 43  2  0  0  0
 38 46  1  0  0  0
 38 47  1  0  0  0
 39 64  1  0  0  0
 39 67  2  0  0  0
 40 52  1  0  0  0
 40 53  2  0  0  0
 40 58  1  0  0  0
 41116  1  0  0  0
 41117  1  0  0  0
 41118  1  0  0  0
 41 48  1  0  0  0
 42 43  1  0  0  0
 42 66  1  0  0  0
 42119  1  0  0  0
 42120  1  0  0  0
 43 44  1  0  0  0
 44121  1  0  0  0
 45 46  2  0  0  0
 45122  1  0  0  0
 46123  1  0  0  0
 47124  1  0  0  0
 47125  1  0  0  0
 48 56  1  0  0  0
 48 65  1  0  0  0
 48126  1  0  0  0
 49 50  1  0  0  0
 49 53  1  0  0  0
 49 64  1  0  0  0
 49127  1  0  0  0
 50 51  1  0  0  0
 50128  1  0  0  0
 50129  1  0  0  0
 51 52  1  0  0  0
 51130  1  0  0  0
 51131  1  0  0  0
 52132  1  0  0  0
 52133  1  0  0  0
 53 54  1  0  0  0
 54 55  2  0  0  0
 54134  1  0  0  0
 55 57  1  0  0  0
 55135  1  0  0  0
 56 69  2  0  0  0
 57 58  2  0  0  0
 57136  1  0  0  0
 58137  1  0  0  0
 59 60  1  0  0  0
 59 61  1  0  0  0
 59 62  1  0  0  0
 60138  1  0  0  0
 60139  1  0  0  0
 60140  1  0  0  0
 61141  1  0  0  0
 61142  1  0  0  0
 61143  1  0  0  0
 62144  1  0  0  0
 62145  1  0  0  0
 62146  1  0  0  0
 63 65  1  0  0  0
 63147  1  0  0  0
 63148  1  0  0  0
 63149  1  0  0  0
 64150  1  0  0  0
 65151  1  0  0  0
 68 85  1  0  0  0
 71 72  2  0  0  0
 71 73  1  0  0  0
 71152  1  0  0  0
 72 91  1  0  0  0
 72153  1  0  0  0
 73 86  1  0  0  0
 73 92  2  0  0  0
 74 87  1  0  0  0
 74 91  2  0  0  0
 74 92  1  0  0  0
 75154  1  0  0  0
 75155  1  0  0  0
 75156  1  0  0  0
 75 86  1  0  0  0
 76157  1  0  0  0
 76158  1  0  0  0
 76159  1  0  0  0
 76 89  1  0  0  0
 77 89  1  0  0  0
 77160  1  0  0  0
 77161  1  0  0  0
 77162  1  0  0  0
 78 89  1  0  0  0
 78163  1  0  0  0
 78164  1  0  0  0
 78165  1  0  0  0
 79166  1  0  0  0
 79167  1  0  0  0
 79168  1  0  0  0
 79 90  1  0  0  0
 80 90  1  0  0  0
 80169  1  0  0  0
 80170  1  0  0  0
 80171  1  0  0  0
 81 90  1  0  0  0
 81172  1  0  0  0
 81173  1  0  0  0
 81174  1  0  0  0
 82 83  1  0  0  0
 82175  1  0  0  0
 82176  1  0  0  0
 82 87  1  0  0  0
 83177  1  0  0  0
 83178  1  0  0  0
 83 88  1  0  0  0
 84 85  1  0  0  0
 84 88  1  0  0  0
 84179  1  0  0  0
 84180  1  0  0  0
 85181  1  0  0  0
 85182  1  0  0  0
 86183  1  0  0  0
 87 89  1  0  0  0
 87184  1  0  0  0
 88 90  1  0  0  0
 88185  1  0  0  0
M  ISO  4   1 100  68 101  85 101  86 100
M  END
> <chiral flag>
0

> <version>
0

> <s_m_source_file>
/data/baiqing/PycharmProjects/Reinvent-master-3.2/result/LINK_invent/BTK/process_docking_weight1_custom_sum_contain_oxygen_bond_distance_aromatic_linkinvent_7_9_3/rearranged_h_0065.sdf

> <i_m_source_file_index>
29

> <r_mmod_Potential_Energy-OPLS-2005>
-178.330535888672

> <r_mmod_Stretch_Energy-OPLS-2005>
53.5833358764648

> <r_mmod_Bend_Energy-OPLS-2005>
163.216720581055

> <r_mmod_Torsional_Energy-OPLS-2005>
198.624618530273

> <r_mmod_Improper_Torsional_Energy-OPLS-2005>
3.69919443130493

> <r_mmod_Van_der_Waal_Energy-OPLS-2005>
170.517074584961

> <r_mmod_Electrostatic_Energy-OPLS-2005>
-584.554077148438

> <r_mmod_Solvation_Energy-OPLS-2005>
-193.758041381836

> <b_mmod_Minimization_Converged-OPLS-2005>
0

> <r_mmod_RMS_Derivative-OPLS-2005>
4.41009283065796

$$$$
31
                    3D
 Structure written by MMmdl.
186194  0  0  1  0            999 V2000
  -30.7543  -14.4684   20.6873 C   0  0  0  0  0  0
  -30.4140  -12.3411   19.4492 C   0  0  0  0  0  0
  -29.4962  -12.5190   18.2241 C   0  0  0  0  0  0
  -28.0168  -12.3641   18.6269 C   0  0  0  0  0  0
  -27.6554  -13.2134   19.8732 C   0  0  2  0  0  0
  -28.6843  -12.9962   21.0008 C   0  0  0  0  0  0
  -25.2546  -13.8215   20.5684 C   0  0  0  0  0  0
  -24.1806  -13.0452   20.9164 C   0  0  0  0  0  0
  -24.6361  -11.6936   20.8703 C   0  0  0  0  0  0
  -23.9031  -10.4312   21.0391 C   0  0  0  0  0  0
  -24.3597   -9.4248   21.9176 C   0  0  0  0  0  0
  -23.6292   -8.2271   22.0746 C   0  0  0  0  0  0
  -22.4285   -8.0283   21.3533 C   0  0  0  0  0  0
  -21.9902   -9.0247   20.4647 C   0  0  0  0  0  0
  -22.7205  -10.2138   20.3047 C   0  0  0  0  0  0
  -21.6854   -6.0740   22.5287 C   0  0  0  0  0  0
  -21.4020   -6.5647   23.8224 C   0  0  0  0  0  0
  -21.3657   -5.6789   24.9178 C   0  0  0  0  0  0
  -21.6048   -4.3053   24.7222 C   0  0  0  0  0  0
  -21.8822   -3.8141   23.4348 C   0  0  0  0  0  0
  -21.9197   -4.6959   22.3407 C   0  0  0  0  0  0
  -22.7825  -13.5235   21.1857 C   0  0  0  0  0  0
  -22.1656   -4.2162   21.0974 F   0  0  0  0  0  0
  -21.5634   -3.4524   25.7727 F   0  0  0  0  0  0
  -30.0238  -13.3255   20.4856 N   0  0  0  0  0  0
  -26.2970  -12.9371   20.3323 N   0  0  0  0  0  0
  -25.9283  -11.6529   20.5728 N   0  0  0  0  0  0
  -22.0482  -12.8210   22.0433 N   0  0  0  0  0  0
  -25.4262  -15.1935   20.4136 N   0  0  0  0  0  0
  -31.7995  -14.6442   20.0452 O   0  0  0  0  0  0
  -21.6658   -6.8870   21.4243 O   0  0  0  0  0  0
  -22.3497  -14.5526   20.6691 O   0  0  0  0  0  0
  -24.6132  -31.8675   23.2120 C   0  0  0  0  0  0
  -25.9010  -32.4814   23.8419 C   0  0  1  0  0  0
  -27.2202  -27.4121   20.0965 C   0  0  0  0  0  0
  -25.5871  -33.8617   24.2335 N   0  0  0  0  0  0
  -23.4027  -30.4944   21.5497 C   0  0  2  0  0  0
  -24.8472  -28.9655   20.1120 C   0  0  0  0  0  0
  -22.7412  -29.4626   22.4939 C   0  0  0  0  0  0
  -18.0283  -28.1366   22.8414 C   0  0  0  0  0  0
  -24.1505  -36.7380   23.2623 C   0  0  0  0  0  0
  -25.9349  -30.8227   21.3754 C   0  0  0  0  0  0
  -26.0072  -29.4564   20.7244 C   0  0  0  0  0  0
  -27.1891  -28.6778   20.7334 C   0  0  0  0  0  0
  -26.0415  -26.9671   19.4435 C   0  0  0  0  0  0
  -24.8583  -27.7164   19.4764 C   0  0  0  0  0  0
  -23.6143  -29.8347   20.1620 C   0  0  0  0  0  0
  -25.4105  -36.3108   24.0316 C   0  0  1  0  0  0
  -20.5871  -28.3664   23.1289 C   0  0  2  0  0  0
  -20.6799  -26.9409   22.5394 C   0  0  0  0  0  0
  -19.5798  -26.6366   21.5162 C   0  0  0  0  0  0
  -18.1950  -26.7908   22.1556 C   0  0  0  0  0  0
  -19.1530  -28.8818   23.2851 C   0  0  0  0  0  0
  -18.9459  -30.1407   23.8877 C   0  0  0  0  0  0
  -17.6476  -30.6570   24.0525 C   0  0  0  0  0  0
  -25.9025  -34.9462   23.5130 C   0  0  0  0  0  0
  -16.5356  -29.9069   23.6308 C   0  0  0  0  0  0
  -16.7271  -28.6498   23.0296 C   0  0  0  0  0  0
  -26.4449  -31.6571   25.0740 C   0  0  0  0  0  0
  -25.3716  -31.3668   26.1503 C   0  0  0  0  0  0
  -27.0304  -30.3000   24.6154 C   0  0  0  0  0  0
  -27.6011  -32.4316   25.7523 C   0  0  0  0  0  0
  -27.5621  -37.1838   24.8428 C   0  0  0  0  0  0
  -21.4142  -29.3026   22.3692 N   0  0  0  0  0  0
  -26.4306  -37.3784   23.9375 N   0  0  0  0  0  0
  -24.6685  -31.0775   22.1031 N   0  0  0  0  0  0
  -23.4191  -28.8135   23.2951 O   0  0  0  0  0  0
  -28.3835  -26.6588   20.1531 O   0  0  0  0  0  0
  -26.5603  -34.8909   22.4713 O   0  0  0  0  0  0
  -23.5312  -32.1440   23.7488 O   0  0  0  0  0  0
  -29.3135  -19.0746   21.4932 C   0  0  0  0  0  0
  -30.2892  -18.0912   21.8546 C   0  0  0  0  0  0
  -29.3822  -20.0297   22.4815 C   0  0  0  0  0  0
  -29.2039  -19.5205   19.0250 C   0  0  0  0  0  0
  -28.3361  -15.4530   24.8542 C   0  0  0  0  0  0
  -29.0360  -24.4024   24.1692 C   0  0  0  0  0  0
  -29.8265  -24.8174   19.4829 C   0  0  0  0  0  0
  -26.5124  -23.3545   22.5607 C   0  0  0  0  0  0
  -30.9022  -20.3035   24.5205 C   0  0  0  0  0  0
  -28.4303  -19.0666   20.2723 C   0  0  0  0  0  0
  -30.7324  -16.8514   21.0830 C   0  0  0  0  0  0
  -28.5636  -21.2792   22.7213 C   0  0  0  0  0  0
  -28.6131  -15.7869   23.3813 C   0  0  0  0  0  0
  -28.5307  -24.8298   22.7774 C   0  0  0  0  0  0
  -28.7768  -22.4523   21.7194 C   0  0  0  0  0  0
  -27.4751  -24.3029   20.4883 C   0  0  0  0  0  0
  -30.0033  -15.2851   22.9092 C   0  0  0  0  0  0
  -28.3810  -25.2964   19.6792 C   0  0  1  0  0  0
  -27.8656  -23.7291   21.8976 C   0  0  1  0  0  0
  -30.9425  -18.4507   22.9559 N   0  0  0  0  0  0
  -30.3919  -19.6268   23.3395 N   0  0  0  0  0  0
  -30.2545  -15.4857   21.4646 N   0  0  0  0  0  0
  -31.4584  -12.4286   19.1462 H   0  0  0  0  0  0
  -30.3213  -11.3308   19.8522 H   0  0  0  0  0  0
  -29.7494  -11.7901   17.4528 H   0  0  0  0  0  0
  -29.6618  -13.5018   17.7772 H   0  0  0  0  0  0
  -27.8389  -11.3068   18.8330 H   0  0  0  0  0  0
  -27.3637  -12.6170   17.7937 H   0  0  0  0  0  0
  -27.7031  -14.2614   19.5718 H   0  0  0  0  0  0
  -28.6635  -11.9558   21.3277 H   0  0  0  0  0  0
  -28.4061  -13.5629   21.8783 H   0  0  0  0  0  0
  -25.2715   -9.5775   22.4773 H   0  0  0  0  0  0
  -24.0036   -7.4674   22.7464 H   0  0  0  0  0  0
  -21.0836   -8.8710   19.8957 H   0  0  0  0  0  0
  -22.3601  -10.9657   19.6168 H   0  0  0  0  0  0
  -21.2006   -7.6153   23.9730 H   0  0  0  0  0  0
  -21.1470   -6.0509   25.9082 H   0  0  0  0  0  0
  -22.0600   -2.7602   23.2834 H   0  0  0  0  0  0
  -22.4089  -11.9848   22.4770 H   0  0  0  0  0  0
  -21.1116  -13.1256   22.2690 H   0  0  0  0  0  0
  -24.6591  -15.8464   20.5306 H   0  0  0  0  0  0
  -26.2874  -15.6369   20.1200 H   0  0  0  0  0  0
  -26.7076  -32.5503   23.1176 H   0  0  0  0  0  0
  -24.9901  -33.9763   25.0400 H   0  0  0  0  0  0
  -22.6870  -31.3076   21.4117 H   0  0  0  0  0  0
  -23.3724  -35.9764   23.3209 H   0  0  0  0  0  0
  -24.3587  -36.9120   22.2061 H   0  0  0  0  0  0
  -23.7342  -37.6583   23.6727 H   0  0  0  0  0  0
  -26.0590  -31.5855   20.6075 H   0  0  0  0  0  0
  -26.8193  -30.8722   21.9980 H   0  0  0  0  0  0
  -28.0724  -29.0323   21.2498 H   0  0  0  0  0  0
  -25.9961  -26.0328   18.9072 H   0  0  0  0  0  0
  -23.9647  -27.3341   19.0013 H   0  0  0  0  0  0
  -23.7312  -30.6123   19.4047 H   0  0  0  0  0  0
  -22.7393  -29.2596   19.8607 H   0  0  0  0  0  0
  -25.1287  -36.1976   25.0813 H   0  0  0  0  0  0
  -20.9947  -28.3287   24.1416 H   0  0  0  0  0  0
  -20.5697  -26.2268   23.3577 H   0  0  0  0  0  0
  -21.6688  -26.7461   22.1232 H   0  0  0  0  0  0
  -19.6989  -25.6267   21.1232 H   0  0  0  0  0  0
  -19.6785  -27.3127   20.6654 H   0  0  0  0  0  0
  -17.4246  -26.6566   21.3948 H   0  0  0  0  0  0
  -18.0355  -26.0058   22.8970 H   0  0  0  0  0  0
  -19.7932  -30.7164   24.2306 H   0  0  0  0  0  0
  -17.5050  -31.6252   24.5141 H   0  0  0  0  0  0
  -15.5364  -30.2981   23.7661 H   0  0  0  0  0  0
  -15.8647  -28.0846   22.7012 H   0  0  0  0  0  0
  -24.5927  -30.6963   25.7874 H   0  0  0  0  0  0
  -24.8822  -32.2795   26.4929 H   0  0  0  0  0  0
  -25.8087  -30.8905   27.0285 H   0  0  0  0  0  0
  -26.2896  -29.6744   24.1185 H   0  0  0  0  0  0
  -27.4013  -29.7273   25.4657 H   0  0  0  0  0  0
  -27.8744  -30.4278   23.9374 H   0  0  0  0  0  0
  -27.2620  -33.3610   26.2113 H   0  0  0  0  0  0
  -28.3825  -32.6898   25.0367 H   0  0  0  0  0  0
  -28.0664  -31.8426   26.5440 H   0  0  0  0  0  0
  -28.2565  -38.0212   24.7524 H   0  0  0  0  0  0
  -28.1210  -36.2736   24.6182 H   0  0  0  0  0  0
  -27.2320  -37.1403   25.8826 H   0  0  0  0  0  0
  -20.9294  -29.8780   21.6951 H   0  0  0  0  0  0
  -26.0197  -38.2873   24.1346 H   0  0  0  0  0  0
  -28.5566  -19.5505   18.1479 H   0  0  0  0  0  0
  -30.0298  -18.8504   18.7926 H   0  0  0  0  0  0
  -29.6265  -20.5174   19.1558 H   0  0  0  0  0  0
  -27.3649  -15.8418   25.1657 H   0  0  0  0  0  0
  -29.0877  -15.8939   25.5085 H   0  0  0  0  0  0
  -28.3350  -14.3769   25.0259 H   0  0  0  0  0  0
  -29.4402  -25.2623   24.7046 H   0  0  0  0  0  0
  -29.8469  -23.6765   24.0954 H   0  0  0  0  0  0
  -28.2505  -23.9777   24.7946 H   0  0  0  0  0  0
  -29.8408  -23.8564   18.9669 H   0  0  0  0  0  0
  -30.3725  -24.6962   20.4158 H   0  0  0  0  0  0
  -30.3884  -25.5277   18.8751 H   0  0  0  0  0  0
  -26.6223  -22.9401   23.5619 H   0  0  0  0  0  0
  -25.9653  -22.6286   21.9589 H   0  0  0  0  0  0
  -25.8620  -24.2260   22.6714 H   0  0  0  0  0  0
  -30.2081  -20.1848   25.3546 H   0  0  0  0  0  0
  -31.0138  -21.3673   24.3091 H   0  0  0  0  0  0
  -31.8789  -19.9088   24.8055 H   0  0  0  0  0  0
  -27.5660  -19.7168   20.4082 H   0  0  0  0  0  0
  -28.0140  -18.0720   20.0995 H   0  0  0  0  0  0
  -31.8234  -16.8521   21.0945 H   0  0  0  0  0  0
  -30.4627  -16.9921   20.0353 H   0  0  0  0  0  0
  -28.7258  -21.6383   23.7360 H   0  0  0  0  0  0
  -27.5201  -20.9669   22.7070 H   0  0  0  0  0  0
  -28.5393  -16.8665   23.2725 H   0  0  0  0  0  0
  -27.8077  -15.3913   22.7646 H   0  0  0  0  0  0
  -29.3753  -25.2796   22.2588 H   0  0  0  0  0  0
  -27.8195  -25.6460   22.9139 H   0  0  0  0  0  0
  -28.6210  -22.0356   20.7250 H   0  0  0  0  0  0
  -29.8256  -22.7494   21.7287 H   0  0  0  0  0  0
  -27.2502  -23.4625   19.8274 H   0  0  0  0  0  0
  -26.5012  -24.7727   20.5979 H   0  0  0  0  0  0
  -30.1199  -14.2334   23.1742 H   0  0  0  0  0  0
  -30.7879  -15.7893   23.4768 H   0  0  0  0  0  0
  -27.9913  -25.3308   18.6605 H   0  0  0  0  0  0
  1 25  1  0  0  0
  1 30  2  0  0  0
  1 92  1  0  0  0
  2  3  1  0  0  0
  2 25  1  0  0  0
  2 93  1  0  0  0
  2 94  1  0  0  0
  3  4  1  0  0  0
  3 95  1  0  0  0
  3 96  1  0  0  0
  4  5  1  0  0  0
  4 97  1  0  0  0
  4 98  1  0  0  0
  5  6  1  0  0  0
  5 26  1  0  0  0
  5 99  1  0  0  0
  6 25  1  0  0  0
  6100  1  0  0  0
  6101  1  0  0  0
  7  8  2  0  0  0
  7 26  1  0  0  0
  7 29  1  0  0  0
  8  9  1  0  0  0
  8 22  1  0  0  0
  9 10  1  0  0  0
  9 27  2  0  0  0
 10 11  2  0  0  0
 10 15  1  0  0  0
 11 12  1  0  0  0
 11102  1  0  0  0
 12 13  2  0  0  0
 12103  1  0  0  0
 13 14  1  0  0  0
 13 31  1  0  0  0
 14 15  2  0  0  0
 14104  1  0  0  0
 15105  1  0  0  0
 16 17  2  0  0  0
 16 21  1  0  0  0
 16 31  1  0  0  0
 17 18  1  0  0  0
 17106  1  0  0  0
 18 19  2  0  0  0
 18107  1  0  0  0
 19 20  1  0  0  0
 19 24  1  0  0  0
 20 21  2  0  0  0
 20108  1  0  0  0
 21 23  1  0  0  0
 22 28  1  0  0  0
 22 32  2  0  0  0
 26 27  1  0  0  0
 28109  1  0  0  0
 28110  1  0  0  0
 29111  1  0  0  0
 29112  1  0  0  0
 33 34  1  0  0  0
 33 66  1  0  0  0
 33 70  2  0  0  0
 34 36  1  0  0  0
 34 59  1  0  0  0
 34113  1  0  0  0
 35 44  2  0  0  0
 35 45  1  0  0  0
 35 68  1  0  0  0
 36 56  1  0  0  0
 36114  1  0  0  0
 37 39  1  0  0  0
 37 47  1  0  0  0
 37 66  1  0  0  0
 37115  1  0  0  0
 38 43  2  0  0  0
 38 46  1  0  0  0
 38 47  1  0  0  0
 39 64  1  0  0  0
 39 67  2  0  0  0
 40 52  1  0  0  0
 40 53  2  0  0  0
 40 58  1  0  0  0
 41116  1  0  0  0
 41117  1  0  0  0
 41118  1  0  0  0
 41 48  1  0  0  0
 42 43  1  0  0  0
 42 66  1  0  0  0
 42119  1  0  0  0
 42120  1  0  0  0
 43 44  1  0  0  0
 44121  1  0  0  0
 45 46  2  0  0  0
 45122  1  0  0  0
 46123  1  0  0  0
 47124  1  0  0  0
 47125  1  0  0  0
 48 56  1  0  0  0
 48 65  1  0  0  0
 48126  1  0  0  0
 49 50  1  0  0  0
 49 53  1  0  0  0
 49 64  1  0  0  0
 49127  1  0  0  0
 50 51  1  0  0  0
 50128  1  0  0  0
 50129  1  0  0  0
 51 52  1  0  0  0
 51130  1  0  0  0
 51131  1  0  0  0
 52132  1  0  0  0
 52133  1  0  0  0
 53 54  1  0  0  0
 54 55  2  0  0  0
 54134  1  0  0  0
 55 57  1  0  0  0
 55135  1  0  0  0
 56 69  2  0  0  0
 57 58  2  0  0  0
 57136  1  0  0  0
 58137  1  0  0  0
 59 60  1  0  0  0
 59 61  1  0  0  0
 59 62  1  0  0  0
 60138  1  0  0  0
 60139  1  0  0  0
 60140  1  0  0  0
 61141  1  0  0  0
 61142  1  0  0  0
 61143  1  0  0  0
 62144  1  0  0  0
 62145  1  0  0  0
 62146  1  0  0  0
 63 65  1  0  0  0
 63147  1  0  0  0
 63148  1  0  0  0
 63149  1  0  0  0
 64150  1  0  0  0
 65151  1  0  0  0
 68 88  1  0  0  0
 71 72  1  0  0  0
 71 73  2  0  0  0
 71 80  1  0  0  0
 72 81  1  0  0  0
 72 90  2  0  0  0
 73 82  1  0  0  0
 73 91  1  0  0  0
 74 80  1  0  0  0
 74152  1  0  0  0
 74153  1  0  0  0
 74154  1  0  0  0
 75 83  1  0  0  0
 75155  1  0  0  0
 75156  1  0  0  0
 75157  1  0  0  0
 76 84  1  0  0  0
 76158  1  0  0  0
 76159  1  0  0  0
 76160  1  0  0  0
 77161  1  0  0  0
 77162  1  0  0  0
 77163  1  0  0  0
 77 88  1  0  0  0
 78164  1  0  0  0
 78165  1  0  0  0
 78166  1  0  0  0
 78 89  1  0  0  0
 79 91  1  0  0  0
 79167  1  0  0  0
 79168  1  0  0  0
 79169  1  0  0  0
 80170  1  0  0  0
 80171  1  0  0  0
 81 92  1  0  0  0
 81172  1  0  0  0
 81173  1  0  0  0
 82 85  1  0  0  0
 82174  1  0  0  0
 82175  1  0  0  0
 83 87  1  0  0  0
 83176  1  0  0  0
 83177  1  0  0  0
 84 89  1  0  0  0
 84178  1  0  0  0
 84179  1  0  0  0
 85 89  1  0  0  0
 85180  1  0  0  0
 85181  1  0  0  0
 86 88  1  0  0  0
 86 89  1  0  0  0
 86182  1  0  0  0
 86183  1  0  0  0
 87 92  1  0  0  0
 87184  1  0  0  0
 87185  1  0  0  0
 88186  1  0  0  0
 90 91  1  0  0  0
M  ISO  4   1 100  68 101  88 101  92 100
M  END
> <chiral flag>
0

> <version>
0

> <s_m_source_file>
/data/baiqing/PycharmProjects/Reinvent-master-3.2/result/LINK_invent/BTK/process_docking_weight1_custom_sum_contain_oxygen_bond_distance_aromatic_linkinvent_7_9_3/rearranged_h_0065.sdf

> <i_m_source_file_index>
30

> <r_mmod_Potential_Energy-OPLS-2005>
93.7077026367188

> <r_mmod_Stretch_Energy-OPLS-2005>
54.5428619384766

> <r_mmod_Bend_Energy-OPLS-2005>
155.163070678711

> <r_mmod_Torsional_Energy-OPLS-2005>
291.108245849609

> <r_mmod_Improper_Torsional_Energy-OPLS-2005>
6.47909832000732

> <r_mmod_Van_der_Waal_Energy-OPLS-2005>
138.189590454102

> <r_mmod_Electrostatic_Energy-OPLS-2005>
-384.069885253906

> <r_mmod_Solvation_Energy-OPLS-2005>
-184.013763427734

> <b_mmod_Minimization_Converged-OPLS-2005>
0

> <r_mmod_RMS_Derivative-OPLS-2005>
4.71877336502075

$$$$
32
                    3D
 Structure written by MMmdl.
165173  0  0  1  0            999 V2000
  -30.7820  -14.6361   20.3233 C   0  0  0  0  0  0
  -30.4013  -12.3776   19.4304 C   0  0  0  0  0  0
  -29.4673  -12.3513   18.2082 C   0  0  0  0  0  0
  -27.9935  -12.2839   18.6452 C   0  0  0  0  0  0
  -27.6256  -13.2282   19.8244 C   0  0  2  0  0  0
  -28.7031  -13.2522   20.9256 C   0  0  0  0  0  0
  -25.2502  -13.8211   20.5800 C   0  0  0  0  0  0
  -24.1778  -13.0449   20.9256 C   0  0  0  0  0  0
  -24.6373  -11.6932   20.8820 C   0  0  0  0  0  0
  -23.9060  -10.4301   21.0441 C   0  0  0  0  0  0
  -24.3610   -9.4209   21.9204 C   0  0  0  0  0  0
  -23.6286   -8.2244   22.0761 C   0  0  0  0  0  0
  -22.4273   -8.0285   21.3546 C   0  0  0  0  0  0
  -21.9919   -9.0263   20.4649 C   0  0  0  0  0  0
  -22.7244  -10.2143   20.3070 C   0  0  0  0  0  0
  -21.6858   -6.0741   22.5275 C   0  0  0  0  0  0
  -21.4021   -6.5646   23.8209 C   0  0  0  0  0  0
  -21.3652   -5.6797   24.9169 C   0  0  0  0  0  0
  -21.6037   -4.3059   24.7221 C   0  0  0  0  0  0
  -21.8818   -3.8151   23.4344 C   0  0  0  0  0  0
  -21.9195   -4.6967   22.3400 C   0  0  0  0  0  0
  -22.7797  -13.5225   21.1874 C   0  0  0  0  0  0
  -22.1666   -4.2151   21.0979 F   0  0  0  0  0  0
  -21.5619   -3.4544   25.7735 F   0  0  0  0  0  0
  -29.9903  -13.5172   20.2713 N   0  0  0  0  0  0
  -26.2916  -12.9408   20.3387 N   0  0  0  0  0  0
  -25.9311  -11.6564   20.5903 N   0  0  0  0  0  0
  -22.0436  -12.8204   22.0416 N   0  0  0  0  0  0
  -25.4220  -15.1929   20.4243 N   0  0  0  0  0  0
  -31.9787  -14.4280   20.5093 O   0  0  0  0  0  0
  -21.6639   -6.8882   21.4237 O   0  0  0  0  0  0
  -22.3493  -14.5534   20.6720 O   0  0  0  0  0  0
  -24.6185  -31.8648   23.2065 C   0  0  0  0  0  0
  -25.9058  -32.4811   23.8376 C   0  0  1  0  0  0
  -27.2177  -27.3775   20.1256 C   0  0  0  0  0  0
  -25.5902  -33.8610   24.2303 N   0  0  0  0  0  0
  -23.4091  -30.4864   21.5482 C   0  0  2  0  0  0
  -24.8549  -28.9413   20.1190 C   0  0  0  0  0  0
  -22.7427  -29.4639   22.4976 C   0  0  0  0  0  0
  -18.0271  -28.1381   22.8486 C   0  0  0  0  0  0
  -24.1489  -36.7306   23.2640 C   0  0  0  0  0  0
  -25.9415  -30.8139   21.3684 C   0  0  0  0  0  0
  -26.0175  -29.4420   20.7204 C   0  0  0  0  0  0
  -27.2068  -28.6678   20.7172 C   0  0  0  0  0  0
  -26.0419  -26.9011   19.5165 C   0  0  0  0  0  0
  -24.8639  -27.6729   19.5121 C   0  0  0  0  0  0
  -23.6212  -29.8173   20.1635 C   0  0  0  0  0  0
  -25.4115  -36.3107   24.0332 C   0  0  1  0  0  0
  -20.5864  -28.3677   23.1304 C   0  0  2  0  0  0
  -20.6767  -26.9411   22.5413 C   0  0  0  0  0  0
  -19.5746  -26.6388   21.5211 C   0  0  0  0  0  0
  -18.1921  -26.7926   22.1618 C   0  0  0  0  0  0
  -19.1521  -28.8842   23.2894 C   0  0  0  0  0  0
  -18.9453  -30.1444   23.8912 C   0  0  0  0  0  0
  -17.6458  -30.6590   24.0563 C   0  0  0  0  0  0
  -25.9045  -34.9475   23.5120 C   0  0  0  0  0  0
  -16.5346  -29.9092   23.6331 C   0  0  0  0  0  0
  -16.7260  -28.6504   23.0353 C   0  0  0  0  0  0
  -26.4473  -31.6606   25.0722 C   0  0  0  0  0  0
  -25.3720  -31.3724   26.1460 C   0  0  0  0  0  0
  -27.0310  -30.3041   24.6125 C   0  0  0  0  0  0
  -27.6042  -32.4329   25.7487 C   0  0  0  0  0  0
  -27.5584  -37.1809   24.8462 C   0  0  0  0  0  0
  -21.4151  -29.3037   22.3710 N   0  0  0  0  0  0
  -26.4298  -37.3791   23.9409 N   0  0  0  0  0  0
  -24.6748  -31.0713   22.0991 N   0  0  0  0  0  0
  -23.4173  -28.8180   23.3040 O   0  0  0  0  0  0
  -28.3543  -26.5933   20.0774 O   0  0  0  0  0  0
  -26.5614  -34.8928   22.4684 O   0  0  0  0  0  0
  -23.5367  -32.1425   23.7429 O   0  0  0  0  0  0
  -28.1725  -18.1112   21.5817 C   0  0  0  0  0  0
  -29.5019  -17.0789   20.3357 C   0  0  0  0  0  0
  -31.8591  -16.8529   19.6762 C   0  0  0  0  0  0
  -27.3502  -21.6062   22.5325 C   0  0  0  0  0  0
  -29.7530  -20.9423   22.5427 C   0  0  0  0  0  0
  -28.1408  -24.0259   20.5510 C   0  0  0  0  0  0
  -29.0784  -22.9465   21.2149 C   0  0  0  0  0  0
  -28.3426  -20.4717   20.4727 C   0  0  0  0  0  0
  -28.4509  -25.4994   21.0254 C   0  0  0  0  0  0
  -30.4849  -16.0847   19.6625 C   0  0  1  0  0  0
  -28.6102  -21.4912   21.6510 C   0  0  0  0  0  0
  -30.1270  -15.9111   18.1489 C   0  0  0  0  0  0
  -28.6901  -16.8789   21.4259 N   0  0  0  0  0  0
  -29.4534  -18.3464   19.8714 N   0  0  0  0  0  0
  -28.6258  -19.0220   20.7079 N   0  0  0  0  0  0
  -30.1662  -17.0629   17.4735 F   0  0  0  0  0  0
  -31.0005  -15.1031   17.5419 F   0  0  0  0  0  0
  -28.9067  -15.4130   17.9782 F   0  0  0  0  0  0
  -31.4386  -12.4458   19.0962 H   0  0  0  0  0  0
  -30.3271  -11.4458   19.9936 H   0  0  0  0  0  0
  -29.6992  -11.4783   17.5961 H   0  0  0  0  0  0
  -29.6284  -13.1977   17.5511 H   0  0  0  0  0  0
  -27.8098  -11.2503   18.9384 H   0  0  0  0  0  0
  -27.3376  -12.4714   17.7941 H   0  0  0  0  0  0
  -27.5752  -14.2306   19.4132 H   0  0  0  0  0  0
  -28.7363  -12.3027   21.4617 H   0  0  0  0  0  0
  -28.4828  -14.0245   21.6640 H   0  0  0  0  0  0
  -25.2752   -9.5687   22.4783 H   0  0  0  0  0  0
  -23.9999   -7.4637   22.7481 H   0  0  0  0  0  0
  -21.0861   -8.8784   19.8943 H   0  0  0  0  0  0
  -22.3713  -10.9689   19.6181 H   0  0  0  0  0  0
  -21.2026   -7.6156   23.9711 H   0  0  0  0  0  0
  -21.1467   -6.0530   25.9069 H   0  0  0  0  0  0
  -22.0603   -2.7615   23.2839 H   0  0  0  0  0  0
  -22.4075  -11.9866   22.4791 H   0  0  0  0  0  0
  -21.1043  -13.1201   22.2607 H   0  0  0  0  0  0
  -24.6648  -15.8536   20.5581 H   0  0  0  0  0  0
  -26.3012  -15.6358   20.1889 H   0  0  0  0  0  0
  -26.7122  -32.5511   23.1134 H   0  0  0  0  0  0
  -25.0046  -33.9762   25.0443 H   0  0  0  0  0  0
  -22.7007  -31.3049   21.4061 H   0  0  0  0  0  0
  -23.3756  -35.9634   23.3308 H   0  0  0  0  0  0
  -24.3578  -36.8920   22.2054 H   0  0  0  0  0  0
  -23.7235  -37.6506   23.6656 H   0  0  0  0  0  0
  -26.0607  -31.5760   20.5966 H   0  0  0  0  0  0
  -26.8269  -30.8676   21.9905 H   0  0  0  0  0  0
  -28.1083  -29.0479   21.1779 H   0  0  0  0  0  0
  -26.0394  -25.9286   19.0444 H   0  0  0  0  0  0
  -23.9707  -27.2839   19.0428 H   0  0  0  0  0  0
  -23.7366  -30.5918   19.4041 H   0  0  0  0  0  0
  -22.7428  -29.2418   19.8661 H   0  0  0  0  0  0
  -25.1292  -36.1976   25.0823 H   0  0  0  0  0  0
  -20.9947  -28.3255   24.1429 H   0  0  0  0  0  0
  -20.5688  -26.2281   23.3603 H   0  0  0  0  0  0
  -21.6638  -26.7465   22.1200 H   0  0  0  0  0  0
  -19.6923  -25.6302   21.1234 H   0  0  0  0  0  0
  -19.6697  -27.3207   20.6748 H   0  0  0  0  0  0
  -17.4196  -26.6672   21.4019 H   0  0  0  0  0  0
  -18.0324  -26.0066   22.9011 H   0  0  0  0  0  0
  -19.7934  -30.7242   24.2299 H   0  0  0  0  0  0
  -17.5022  -31.6275   24.5159 H   0  0  0  0  0  0
  -15.5349  -30.3003   23.7652 H   0  0  0  0  0  0
  -15.8654  -28.0829   22.7071 H   0  0  0  0  0  0
  -24.5883  -30.7092   25.7784 H   0  0  0  0  0  0
  -24.8928  -32.2888   26.4915 H   0  0  0  0  0  0
  -25.8054  -30.8878   27.0219 H   0  0  0  0  0  0
  -26.2869  -29.6802   24.1160 H   0  0  0  0  0  0
  -27.4047  -29.7281   25.4604 H   0  0  0  0  0  0
  -27.8720  -30.4351   23.9308 H   0  0  0  0  0  0
  -27.2654  -33.3618   26.2088 H   0  0  0  0  0  0
  -28.3835  -32.6912   25.0303 H   0  0  0  0  0  0
  -28.0729  -31.8446   26.5383 H   0  0  0  0  0  0
  -28.2598  -38.0110   24.7515 H   0  0  0  0  0  0
  -28.1082  -36.2641   24.6283 H   0  0  0  0  0  0
  -27.2297  -37.1444   25.8862 H   0  0  0  0  0  0
  -20.9322  -29.8753   21.6921 H   0  0  0  0  0  0
  -26.0193  -38.2870   24.1410 H   0  0  0  0  0  0
  -27.4623  -18.3581   22.3590 H   0  0  0  0  0  0
  -31.8149  -17.8132   19.1642 H   0  0  0  0  0  0
  -32.6539  -16.3088   19.1657 H   0  0  0  0  0  0
  -32.1876  -17.0565   20.6963 H   0  0  0  0  0  0
  -27.5001  -22.3084   23.3542 H   0  0  0  0  0  0
  -27.0771  -20.6485   22.9748 H   0  0  0  0  0  0
  -26.4871  -21.9528   21.9633 H   0  0  0  0  0  0
  -30.0219  -21.6350   23.3406 H   0  0  0  0  0  0
  -30.6549  -20.7612   21.9565 H   0  0  0  0  0  0
  -29.4899  -20.0082   23.0367 H   0  0  0  0  0  0
  -27.0922  -23.8102   20.7494 H   0  0  0  0  0  0
  -28.2541  -23.9609   19.4692 H   0  0  0  0  0  0
  -29.4467  -23.4189   22.1262 H   0  0  0  0  0  0
  -29.9697  -22.8551   20.5926 H   0  0  0  0  0  0
  -28.9489  -20.7805   19.6202 H   0  0  0  0  0  0
  -27.3123  -20.5604   20.1270 H   0  0  0  0  0  0
  -29.4882  -25.5379   21.3588 H   0  0  0  0  0  0
  -27.8655  -25.7204   21.9203 H   0  0  0  0  0  0
  1 25  1  0  0  0
  1 30  2  0  0  0
  1 80  1  0  0  0
  2  3  1  0  0  0
  2 25  1  0  0  0
  2 89  1  0  0  0
  2 90  1  0  0  0
  3  4  1  0  0  0
  3 91  1  0  0  0
  3 92  1  0  0  0
  4  5  1  0  0  0
  4 93  1  0  0  0
  4 94  1  0  0  0
  5  6  1  0  0  0
  5 26  1  0  0  0
  5 95  1  0  0  0
  6 25  1  0  0  0
  6 96  1  0  0  0
  6 97  1  0  0  0
  7  8  2  0  0  0
  7 26  1  0  0  0
  7 29  1  0  0  0
  8  9  1  0  0  0
  8 22  1  0  0  0
  9 10  1  0  0  0
  9 27  2  0  0  0
 10 11  2  0  0  0
 10 15  1  0  0  0
 11 12  1  0  0  0
 11 98  1  0  0  0
 12 13  2  0  0  0
 12 99  1  0  0  0
 13 14  1  0  0  0
 13 31  1  0  0  0
 14 15  2  0  0  0
 14100  1  0  0  0
 15101  1  0  0  0
 16 17  2  0  0  0
 16 21  1  0  0  0
 16 31  1  0  0  0
 17 18  1  0  0  0
 17102  1  0  0  0
 18 19  2  0  0  0
 18103  1  0  0  0
 19 20  1  0  0  0
 19 24  1  0  0  0
 20 21  2  0  0  0
 20104  1  0  0  0
 21 23  1  0  0  0
 22 28  1  0  0  0
 22 32  2  0  0  0
 26 27  1  0  0  0
 28105  1  0  0  0
 28106  1  0  0  0
 29107  1  0  0  0
 29108  1  0  0  0
 33 34  1  0  0  0
 33 66  1  0  0  0
 33 70  2  0  0  0
 34 36  1  0  0  0
 34 59  1  0  0  0
 34109  1  0  0  0
 35 44  2  0  0  0
 35 45  1  0  0  0
 35 68  1  0  0  0
 36 56  1  0  0  0
 36110  1  0  0  0
 37 39  1  0  0  0
 37 47  1  0  0  0
 37 66  1  0  0  0
 37111  1  0  0  0
 38 43  2  0  0  0
 38 46  1  0  0  0
 38 47  1  0  0  0
 39 64  1  0  0  0
 39 67  2  0  0  0
 40 52  1  0  0  0
 40 53  2  0  0  0
 40 58  1  0  0  0
 41112  1  0  0  0
 41113  1  0  0  0
 41114  1  0  0  0
 41 48  1  0  0  0
 42 43  1  0  0  0
 42 66  1  0  0  0
 42115  1  0  0  0
 42116  1  0  0  0
 43 44  1  0  0  0
 44117  1  0  0  0
 45 46  2  0  0  0
 45118  1  0  0  0
 46119  1  0  0  0
 47120  1  0  0  0
 47121  1  0  0  0
 48 56  1  0  0  0
 48 65  1  0  0  0
 48122  1  0  0  0
 49 50  1  0  0  0
 49 53  1  0  0  0
 49 64  1  0  0  0
 49123  1  0  0  0
 50 51  1  0  0  0
 50124  1  0  0  0
 50125  1  0  0  0
 51 52  1  0  0  0
 51126  1  0  0  0
 51127  1  0  0  0
 52128  1  0  0  0
 52129  1  0  0  0
 53 54  1  0  0  0
 54 55  2  0  0  0
 54130  1  0  0  0
 55 57  1  0  0  0
 55131  1  0  0  0
 56 69  2  0  0  0
 57 58  2  0  0  0
 57132  1  0  0  0
 58133  1  0  0  0
 59 60  1  0  0  0
 59 61  1  0  0  0
 59 62  1  0  0  0
 60134  1  0  0  0
 60135  1  0  0  0
 60136  1  0  0  0
 61137  1  0  0  0
 61138  1  0  0  0
 61139  1  0  0  0
 62140  1  0  0  0
 62141  1  0  0  0
 62142  1  0  0  0
 63 65  1  0  0  0
 63143  1  0  0  0
 63144  1  0  0  0
 63145  1  0  0  0
 64146  1  0  0  0
 65147  1  0  0  0
 68 79  1  0  0  0
 71 83  2  0  0  0
 71 85  1  0  0  0
 71148  1  0  0  0
 72 80  1  0  0  0
 72 83  1  0  0  0
 72 84  2  0  0  0
 73149  1  0  0  0
 73150  1  0  0  0
 73151  1  0  0  0
 73 80  1  0  0  0
 74152  1  0  0  0
 74153  1  0  0  0
 74154  1  0  0  0
 74 81  1  0  0  0
 75 81  1  0  0  0
 75155  1  0  0  0
 75156  1  0  0  0
 75157  1  0  0  0
 76 77  1  0  0  0
 76 79  1  0  0  0
 76158  1  0  0  0
 76159  1  0  0  0
 77 81  1  0  0  0
 77160  1  0  0  0
 77161  1  0  0  0
 78 81  1  0  0  0
 78 85  1  0  0  0
 78162  1  0  0  0
 78163  1  0  0  0
 79164  1  0  0  0
 79165  1  0  0  0
 80 82  1  0  0  0
 82 86  1  0  0  0
 82 87  1  0  0  0
 82 88  1  0  0  0
 84 85  1  0  0  0
M  ISO  4   1 100  68 101  79 101  80 100
M  END
> <chiral flag>
0

> <version>
0

> <s_m_source_file>
/data/baiqing/PycharmProjects/Reinvent-master-3.2/result/LINK_invent/BTK/process_docking_weight1_custom_sum_contain_oxygen_bond_distance_aromatic_linkinvent_7_9_3/rearranged_h_0065.sdf

> <i_m_source_file_index>
31

> <r_mmod_Potential_Energy-OPLS-2005>
436.250366210938

> <r_mmod_Stretch_Energy-OPLS-2005>
74.8041839599609

> <r_mmod_Bend_Energy-OPLS-2005>
191.786636352539

> <r_mmod_Torsional_Energy-OPLS-2005>
267.097534179688

> <r_mmod_Improper_Torsional_Energy-OPLS-2005>
15.8207473754883

> <r_mmod_Van_der_Waal_Energy-OPLS-2005>
142.106033325195

> <r_mmod_Electrostatic_Energy-OPLS-2005>
-171.04052734375

> <r_mmod_Solvation_Energy-OPLS-2005>
-177.203628540039

> <b_mmod_Minimization_Converged-OPLS-2005>
0

> <r_mmod_RMS_Derivative-OPLS-2005>
1.1732429265976

$$$$
33
                    3D
 Structure written by MMmdl.
149157  0  0  1  0            999 V2000
  -30.4838  -14.9985   20.4212 C   0  0  0  0  0  0
  -30.4584  -12.6167   19.5130 C   0  0  0  0  0  0
  -29.5359  -12.5501   18.2684 C   0  0  0  0  0  0
  -28.0610  -12.3343   18.6664 C   0  0  0  0  0  0
  -27.6337  -13.2402   19.8494 C   0  0  2  0  0  0
  -28.6777  -13.2123   20.9814 C   0  0  0  0  0  0
  -25.2435  -13.8122   20.5708 C   0  0  0  0  0  0
  -24.1741  -13.0363   20.9149 C   0  0  0  0  0  0
  -24.6382  -11.6863   20.8714 C   0  0  0  0  0  0
  -23.9075  -10.4254   21.0380 C   0  0  0  0  0  0
  -24.3629   -9.4182   21.9162 C   0  0  0  0  0  0
  -23.6298   -8.2229   22.0745 C   0  0  0  0  0  0
  -22.4271   -8.0267   21.3543 C   0  0  0  0  0  0
  -21.9901   -9.0238   20.4645 C   0  0  0  0  0  0
  -22.7238  -10.2112   20.3042 C   0  0  0  0  0  0
  -21.6854   -6.0728   22.5278 C   0  0  0  0  0  0
  -21.4013   -6.5633   23.8209 C   0  0  0  0  0  0
  -21.3662   -5.6785   24.9173 C   0  0  0  0  0  0
  -21.6046   -4.3048   24.7220 C   0  0  0  0  0  0
  -21.8817   -3.8139   23.4340 C   0  0  0  0  0  0
  -21.9195   -4.6956   22.3401 C   0  0  0  0  0  0
  -22.7770  -13.5158   21.1843 C   0  0  0  0  0  0
  -22.1661   -4.2150   21.0975 F   0  0  0  0  0  0
  -21.5630   -3.4526   25.7734 F   0  0  0  0  0  0
  -29.9489  -13.6955   20.4161 N   0  0  0  0  0  0
  -26.2898  -12.9383   20.3294 N   0  0  0  0  0  0
  -25.9323  -11.6506   20.5733 N   0  0  0  0  0  0
  -22.0445  -12.8187   22.0449 N   0  0  0  0  0  0
  -25.4063  -15.1836   20.4289 N   0  0  0  0  0  0
  -31.6793  -15.0849   20.0942 O   0  0  0  0  0  0
  -21.6632   -6.8868   21.4238 O   0  0  0  0  0  0
  -22.3459  -14.5475   20.6705 O   0  0  0  0  0  0
  -24.6457  -31.8419   23.1866 C   0  0  0  0  0  0
  -25.9213  -32.4689   23.8264 C   0  0  1  0  0  0
  -27.2172  -27.1125   20.1528 C   0  0  0  0  0  0
  -25.5953  -33.8491   24.2192 N   0  0  0  0  0  0
  -23.4509  -30.4593   21.5337 C   0  0  2  0  0  0
  -24.9009  -28.8841   20.1128 C   0  0  0  0  0  0
  -22.7581  -29.4514   22.4859 C   0  0  0  0  0  0
  -18.0303  -28.1378   22.8486 C   0  0  0  0  0  0
  -24.1487  -36.7252   23.2635 C   0  0  0  0  0  0
  -26.0080  -30.7115   21.3842 C   0  0  0  0  0  0
  -26.0806  -29.3185   20.7286 C   0  0  0  0  0  0
  -27.2407  -28.4513   20.7271 C   0  0  0  0  0  0
  -26.0077  -26.7864   19.4989 C   0  0  0  0  0  0
  -24.8787  -27.6328   19.4816 C   0  0  0  0  0  0
  -23.6794  -29.7893   20.1534 C   0  0  0  0  0  0
  -25.4115  -36.3028   24.0318 C   0  0  1  0  0  0
  -20.5918  -28.3702   23.1247 C   0  0  2  0  0  0
  -20.6786  -26.9406   22.5400 C   0  0  0  0  0  0
  -19.5756  -26.6367   21.5212 C   0  0  0  0  0  0
  -18.1940  -26.7912   22.1636 C   0  0  0  0  0  0
  -19.1559  -28.8860   23.2860 C   0  0  0  0  0  0
  -18.9469  -30.1452   23.8884 C   0  0  0  0  0  0
  -17.6465  -30.6578   24.0543 C   0  0  0  0  0  0
  -25.9077  -34.9400   23.5072 C   0  0  0  0  0  0
  -16.5361  -29.9065   23.6323 C   0  0  0  0  0  0
  -16.7286  -28.6479   23.0362 C   0  0  0  0  0  0
  -26.4533  -31.6545   25.0696 C   0  0  0  0  0  0
  -25.3727  -31.3728   26.1404 C   0  0  0  0  0  0
  -27.0376  -30.2940   24.6252 C   0  0  0  0  0  0
  -27.6080  -32.4288   25.7476 C   0  0  0  0  0  0
  -27.5575  -37.1774   24.8467 C   0  0  0  0  0  0
  -21.4266  -29.3044   22.3635 N   0  0  0  0  0  0
  -26.4276  -37.3746   23.9423 N   0  0  0  0  0  0
  -24.7222  -31.0252   22.0908 N   0  0  0  0  0  0
  -23.4219  -28.8043   23.2995 O   0  0  0  0  0  0
  -28.2639  -26.1108   20.2116 O   0  0  0  0  0  0
  -26.5655  -34.8899   22.4646 O   0  0  0  0  0  0
  -23.5570  -32.1292   23.7083 O   0  0  0  0  0  0
  -27.7907  -18.5032   21.1473 C   0  0  0  0  0  0
  -29.0567  -18.8998   20.6261 C   0  0  0  0  0  0
  -29.5900  -16.4468   20.6850 C   0  0  0  0  0  0
  -26.6463  -19.4303   21.5139 C   0  0  0  0  0  0
  -29.0074  -23.2310   20.2714 C   0  0  0  0  0  0
  -27.9594  -24.5696   20.1729 C   0  0  0  0  0  0
  -28.5534  -21.5967   20.4226 C   0  0  0  0  0  0
  -27.4978  -17.2076   21.4034 N   0  0  0  0  0  0
  -29.9490  -17.7971   20.4030 N   0  0  0  0  0  0
  -28.3610  -16.2151   21.1713 N   0  0  0  0  0  0
  -29.4420  -20.3058   20.3608 O   0  0  0  0  0  0
  -31.4872  -12.7998   19.1992 H   0  0  0  0  0  0
  -30.4827  -11.6544   20.0263 H   0  0  0  0  0  0
  -29.8603  -11.7509   17.6002 H   0  0  0  0  0  0
  -29.6262  -13.4787   17.7026 H   0  0  0  0  0  0
  -27.9423  -11.2862   18.9417 H   0  0  0  0  0  0
  -27.4109  -12.5030   17.8078 H   0  0  0  0  0  0
  -27.6046  -14.2532   19.4480 H   0  0  0  0  0  0
  -28.7842  -12.1995   21.3721 H   0  0  0  0  0  0
  -28.3647  -13.8063   21.8387 H   0  0  0  0  0  0
  -25.2771   -9.5663   22.4742 H   0  0  0  0  0  0
  -24.0004   -7.4616   22.7468 H   0  0  0  0  0  0
  -21.0819   -8.8755   19.8973 H   0  0  0  0  0  0
  -22.3675  -10.9649   19.6165 H   0  0  0  0  0  0
  -21.2012   -7.6138   23.9715 H   0  0  0  0  0  0
  -21.1486   -6.0512   25.9076 H   0  0  0  0  0  0
  -22.0608   -2.7605   23.2831 H   0  0  0  0  0  0
  -22.4073  -11.9881   22.4885 H   0  0  0  0  0  0
  -21.1088  -13.1259   22.2709 H   0  0  0  0  0  0
  -24.6625  -15.8093   20.7155 H   0  0  0  0  0  0
  -26.3276  -15.6056   20.5345 H   0  0  0  0  0  0
  -26.7273  -32.5290   23.0986 H   0  0  0  0  0  0
  -25.0068  -33.9598   25.0322 H   0  0  0  0  0  0
  -22.7532  -31.2844   21.3771 H   0  0  0  0  0  0
  -23.3755  -35.9578   23.3277 H   0  0  0  0  0  0
  -24.3585  -36.8904   22.2056 H   0  0  0  0  0  0
  -23.7231  -37.6437   23.6684 H   0  0  0  0  0  0
  -26.1569  -31.4622   20.6069 H   0  0  0  0  0  0
  -26.8816  -30.7706   22.0217 H   0  0  0  0  0  0
  -28.1409  -28.7835   21.2251 H   0  0  0  0  0  0
  -25.8957  -25.8334   19.0065 H   0  0  0  0  0  0
  -23.9792  -27.2950   18.9863 H   0  0  0  0  0  0
  -23.8205  -30.5638   19.3983 H   0  0  0  0  0  0
  -22.7936  -29.2339   19.8400 H   0  0  0  0  0  0
  -25.1295  -36.1850   25.0808 H   0  0  0  0  0  0
  -21.0008  -28.3263   24.1373 H   0  0  0  0  0  0
  -20.5672  -26.2300   23.3609 H   0  0  0  0  0  0
  -21.6646  -26.7398   22.1196 H   0  0  0  0  0  0
  -19.6912  -25.6275   21.1245 H   0  0  0  0  0  0
  -19.6685  -27.3176   20.6740 H   0  0  0  0  0  0
  -17.4202  -26.6650   21.4049 H   0  0  0  0  0  0
  -18.0348  -26.0055   22.9039 H   0  0  0  0  0  0
  -19.7942  -30.7268   24.2255 H   0  0  0  0  0  0
  -17.5013  -31.6261   24.5133 H   0  0  0  0  0  0
  -15.5358  -30.2959   23.7643 H   0  0  0  0  0  0
  -15.8691  -28.0778   22.7104 H   0  0  0  0  0  0
  -24.5881  -30.7114   25.7719 H   0  0  0  0  0  0
  -24.8947  -32.2909   26.4821 H   0  0  0  0  0  0
  -25.8011  -30.8883   27.0189 H   0  0  0  0  0  0
  -26.2979  -29.6682   24.1249 H   0  0  0  0  0  0
  -27.3988  -29.7211   25.4800 H   0  0  0  0  0  0
  -27.8894  -30.4175   23.9563 H   0  0  0  0  0  0
  -27.2699  -33.3606   26.2017 H   0  0  0  0  0  0
  -28.3914  -32.6817   25.0320 H   0  0  0  0  0  0
  -28.0727  -31.8428   26.5416 H   0  0  0  0  0  0
  -28.2568  -38.0089   24.7531 H   0  0  0  0  0  0
  -28.1091  -36.2621   24.6269 H   0  0  0  0  0  0
  -27.2298  -37.1392   25.8868 H   0  0  0  0  0  0
  -20.9469  -29.8793   21.6852 H   0  0  0  0  0  0
  -26.0140  -38.2809   24.1444 H   0  0  0  0  0  0
  -26.3355  -20.0425   20.6706 H   0  0  0  0  0  0
  -26.9189  -20.0582   22.3614 H   0  0  0  0  0  0
  -25.7629  -18.8665   21.8228 H   0  0  0  0  0  0
  -29.6826  -23.4299   21.1044 H   0  0  0  0  0  0
  -29.6405  -23.2853   19.3863 H   0  0  0  0  0  0
  -27.2075  -24.4184   20.9482 H   0  0  0  0  0  0
  -27.4274  -24.3998   19.2380 H   0  0  0  0  0  0
  -27.7655  -21.4408   19.6852 H   0  0  0  0  0  0
  -28.0668  -21.5802   21.3938 H   0  0  0  0  0  0
  1 25  1  0  0  0
  1 30  2  0  0  0
  1 73  1  0  0  0
  2  3  1  0  0  0
  2 25  1  0  0  0
  2 82  1  0  0  0
  2 83  1  0  0  0
  3  4  1  0  0  0
  3 84  1  0  0  0
  3 85  1  0  0  0
  4  5  1  0  0  0
  4 86  1  0  0  0
  4 87  1  0  0  0
  5  6  1  0  0  0
  5 26  1  0  0  0
  5 88  1  0  0  0
  6 25  1  0  0  0
  6 89  1  0  0  0
  6 90  1  0  0  0
  7  8  2  0  0  0
  7 26  1  0  0  0
  7 29  1  0  0  0
  8  9  1  0  0  0
  8 22  1  0  0  0
  9 10  1  0  0  0
  9 27  2  0  0  0
 10 11  2  0  0  0
 10 15  1  0  0  0
 11 12  1  0  0  0
 11 91  1  0  0  0
 12 13  2  0  0  0
 12 92  1  0  0  0
 13 14  1  0  0  0
 13 31  1  0  0  0
 14 15  2  0  0  0
 14 93  1  0  0  0
 15 94  1  0  0  0
 16 17  2  0  0  0
 16 21  1  0  0  0
 16 31  1  0  0  0
 17 18  1  0  0  0
 17 95  1  0  0  0
 18 19  2  0  0  0
 18 96  1  0  0  0
 19 20  1  0  0  0
 19 24  1  0  0  0
 20 21  2  0  0  0
 20 97  1  0  0  0
 21 23  1  0  0  0
 22 28  1  0  0  0
 22 32  2  0  0  0
 26 27  1  0  0  0
 28 98  1  0  0  0
 28 99  1  0  0  0
 29100  1  0  0  0
 29101  1  0  0  0
 33 34  1  0  0  0
 33 66  1  0  0  0
 33 70  2  0  0  0
 34 36  1  0  0  0
 34 59  1  0  0  0
 34102  1  0  0  0
 35 44  2  0  0  0
 35 45  1  0  0  0
 35 68  1  0  0  0
 36 56  1  0  0  0
 36103  1  0  0  0
 37 39  1  0  0  0
 37 47  1  0  0  0
 37 66  1  0  0  0
 37104  1  0  0  0
 38 43  2  0  0  0
 38 46  1  0  0  0
 38 47  1  0  0  0
 39 64  1  0  0  0
 39 67  2  0  0  0
 40 52  1  0  0  0
 40 53  2  0  0  0
 40 58  1  0  0  0
 41105  1  0  0  0
 41106  1  0  0  0
 41107  1  0  0  0
 41 48  1  0  0  0
 42 43  1  0  0  0
 42 66  1  0  0  0
 42108  1  0  0  0
 42109  1  0  0  0
 43 44  1  0  0  0
 44110  1  0  0  0
 45 46  2  0  0  0
 45111  1  0  0  0
 46112  1  0  0  0
 47113  1  0  0  0
 47114  1  0  0  0
 48 56  1  0  0  0
 48 65  1  0  0  0
 48115  1  0  0  0
 49 50  1  0  0  0
 49 53  1  0  0  0
 49 64  1  0  0  0
 49116  1  0  0  0
 50 51  1  0  0  0
 50117  1  0  0  0
 50118  1  0  0  0
 51 52  1  0  0  0
 51119  1  0  0  0
 51120  1  0  0  0
 52121  1  0  0  0
 52122  1  0  0  0
 53 54  1  0  0  0
 54 55  2  0  0  0
 54123  1  0  0  0
 55 57  1  0  0  0
 55124  1  0  0  0
 56 69  2  0  0  0
 57 58  2  0  0  0
 57125  1  0  0  0
 58126  1  0  0  0
 59 60  1  0  0  0
 59 61  1  0  0  0
 59 62  1  0  0  0
 60127  1  0  0  0
 60128  1  0  0  0
 60129  1  0  0  0
 61130  1  0  0  0
 61131  1  0  0  0
 61132  1  0  0  0
 62133  1  0  0  0
 62134  1  0  0  0
 62135  1  0  0  0
 63 65  1  0  0  0
 63136  1  0  0  0
 63137  1  0  0  0
 63138  1  0  0  0
 64139  1  0  0  0
 65140  1  0  0  0
 68 76  1  0  0  0
 71 72  2  0  0  0
 71 74  1  0  0  0
 71 78  1  0  0  0
 72 79  1  0  0  0
 72 81  1  0  0  0
 73 79  2  0  0  0
 73 80  1  0  0  0
 74141  1  0  0  0
 74142  1  0  0  0
 74143  1  0  0  0
 75 76  1  0  0  0
 75 77  1  0  0  0
 75144  1  0  0  0
 75145  1  0  0  0
 76146  1  0  0  0
 76147  1  0  0  0
 77 81  1  0  0  0
 77148  1  0  0  0
 77149  1  0  0  0
 78 80  2  0  0  0
M  ISO  4   1 100  68 101  73 100  76 101
M  END
> <chiral flag>
0

> <version>
0

> <s_m_source_file>
/data/baiqing/PycharmProjects/Reinvent-master-3.2/result/LINK_invent/BTK/process_docking_weight1_custom_sum_contain_oxygen_bond_distance_aromatic_linkinvent_7_9_3/rearranged_h_0065.sdf

> <i_m_source_file_index>
32

> <r_mmod_Potential_Energy-OPLS-2005>
725.423583984375

> <r_mmod_Stretch_Energy-OPLS-2005>
333.132507324219

> <r_mmod_Bend_Energy-OPLS-2005>
300.432220458984

> <r_mmod_Torsional_Energy-OPLS-2005>
155.380142211914

> <r_mmod_Improper_Torsional_Energy-OPLS-2005>
5.48364877700806

> <r_mmod_Van_der_Waal_Energy-OPLS-2005>
150.100601196289

> <r_mmod_Electrostatic_Energy-OPLS-2005>
-227.591735839844

> <r_mmod_Solvation_Energy-OPLS-2005>
-207.175903320312

> <b_mmod_Minimization_Converged-OPLS-2005>
0

> <r_mmod_RMS_Derivative-OPLS-2005>
2.04033041000366

$$$$
34
                    3D
 Structure written by MMmdl.
185193  0  0  1  0            999 V2000
  -30.5987  -14.6024   20.4616 C   0  0  0  0  0  0
  -30.4545  -12.3596   19.4316 C   0  0  0  0  0  0
  -29.5113  -12.4713   18.2080 C   0  0  0  0  0  0
  -28.0244  -12.3283   18.6110 C   0  0  0  0  0  0
  -27.6506  -13.1836   19.8508 C   0  0  2  0  0  0
  -28.7056  -13.0024   20.9628 C   0  0  0  0  0  0
  -25.2628  -13.8085   20.5695 C   0  0  0  0  0  0
  -24.1857  -13.0401   20.9210 C   0  0  0  0  0  0
  -24.6370  -11.6853   20.8731 C   0  0  0  0  0  0
  -23.9027  -10.4257   21.0389 C   0  0  0  0  0  0
  -24.3600   -9.4188   21.9174 C   0  0  0  0  0  0
  -23.6282   -8.2219   22.0742 C   0  0  0  0  0  0
  -22.4272   -8.0242   21.3528 C   0  0  0  0  0  0
  -21.9896   -9.0215   20.4647 C   0  0  0  0  0  0
  -22.7200  -10.2105   20.3055 C   0  0  0  0  0  0
  -21.6854   -6.0706   22.5262 C   0  0  0  0  0  0
  -21.4004   -6.5618   23.8191 C   0  0  0  0  0  0
  -21.3672   -5.6782   24.9165 C   0  0  0  0  0  0
  -21.6070   -4.3047   24.7233 C   0  0  0  0  0  0
  -21.8825   -3.8123   23.4356 C   0  0  0  0  0  0
  -21.9196   -4.6934   22.3399 C   0  0  0  0  0  0
  -22.7884  -13.5216   21.1872 C   0  0  0  0  0  0
  -22.1661   -4.2114   21.0977 F   0  0  0  0  0  0
  -21.5657   -3.4548   25.7756 F   0  0  0  0  0  0
  -30.0266  -13.3590   20.4258 N   0  0  0  0  0  0
  -26.2993  -12.9180   20.3268 N   0  0  0  0  0  0
  -25.9270  -11.6368   20.5707 N   0  0  0  0  0  0
  -22.0515  -12.8202   22.0441 N   0  0  0  0  0  0
  -25.4431  -15.1820   20.4159 N   0  0  0  0  0  0
  -31.7925  -14.7615   20.1808 O   0  0  0  0  0  0
  -21.6632   -6.8845   21.4229 O   0  0  0  0  0  0
  -22.3568  -14.5502   20.6678 O   0  0  0  0  0  0
  -24.6161  -31.8653   23.2060 C   0  0  0  0  0  0
  -25.9053  -32.4804   23.8369 C   0  0  1  0  0  0
  -27.2418  -27.4054   20.1242 C   0  0  0  0  0  0
  -25.5900  -33.8604   24.2300 N   0  0  0  0  0  0
  -23.4057  -30.4860   21.5456 C   0  0  2  0  0  0
  -24.8576  -28.9430   20.1171 C   0  0  0  0  0  0
  -22.7421  -29.4648   22.4973 C   0  0  0  0  0  0
  -18.0284  -28.1377   22.8489 C   0  0  0  0  0  0
  -24.1485  -36.7316   23.2644 C   0  0  0  0  0  0
  -25.9355  -30.8249   21.3625 C   0  0  0  0  0  0
  -26.0159  -29.4542   20.7169 C   0  0  0  0  0  0
  -27.2138  -28.6958   20.7125 C   0  0  0  0  0  0
  -26.0666  -26.9126   19.5197 C   0  0  0  0  0  0
  -24.8797  -27.6728   19.5119 C   0  0  0  0  0  0
  -23.6178  -29.8131   20.1619 C   0  0  0  0  0  0
  -25.4107  -36.3108   24.0336 C   0  0  1  0  0  0
  -20.5867  -28.3678   23.1310 C   0  0  2  0  0  0
  -20.6770  -26.9403   22.5427 C   0  0  0  0  0  0
  -19.5747  -26.6380   21.5220 C   0  0  0  0  0  0
  -18.1923  -26.7929   22.1614 C   0  0  0  0  0  0
  -19.1529  -28.8840   23.2896 C   0  0  0  0  0  0
  -18.9463  -30.1454   23.8906 C   0  0  0  0  0  0
  -17.6462  -30.6580   24.0571 C   0  0  0  0  0  0
  -25.9036  -34.9471   23.5121 C   0  0  0  0  0  0
  -16.5353  -29.9082   23.6331 C   0  0  0  0  0  0
  -16.7267  -28.6512   23.0341 C   0  0  0  0  0  0
  -26.4472  -31.6588   25.0707 C   0  0  0  0  0  0
  -25.3740  -31.3710   26.1459 C   0  0  0  0  0  0
  -27.0303  -30.3024   24.6109 C   0  0  0  0  0  0
  -27.6040  -32.4310   25.7478 C   0  0  0  0  0  0
  -27.5587  -37.1807   24.8463 C   0  0  0  0  0  0
  -21.4144  -29.3042   22.3713 N   0  0  0  0  0  0
  -26.4297  -37.3787   23.9414 N   0  0  0  0  0  0
  -24.6700  -31.0738   22.0969 N   0  0  0  0  0  0
  -23.4184  -28.8211   23.3038 O   0  0  0  0  0  0
  -28.3948  -26.6415   20.1034 O   0  0  0  0  0  0
  -26.5599  -34.8930   22.4693 O   0  0  0  0  0  0
  -23.5358  -32.1423   23.7439 O   0  0  0  0  0  0
  -30.0535  -18.8204   22.7355 C   0  0  0  0  0  0
  -30.4854  -19.3568   21.5525 C   0  0  0  0  0  0
  -30.0130  -17.1472   21.2576 C   0  0  0  0  0  0
  -33.4494  -19.7912   20.9584 C   0  0  0  0  0  0
  -31.7893  -15.5791   23.6833 C   0  0  0  0  0  0
  -26.8855  -17.2490   23.1293 C   0  0  0  0  0  0
  -29.4268  -16.2587   18.9766 C   0  0  0  0  0  0
  -31.4463  -21.4138   22.5705 C   0  0  0  0  0  0
  -29.4372  -17.2651   25.0532 C   0  0  0  0  0  0
  -32.2911  -20.6103   20.3506 C   0  0  0  0  0  0
  -30.2749  -15.3084   23.8000 C   0  0  0  0  0  0
  -27.8636  -16.1266   23.5065 C   0  0  0  0  0  0
  -29.4041  -22.9984   21.1365 C   0  0  0  0  0  0
  -29.0308  -24.1813   20.1777 C   0  0  0  0  0  0
  -29.9742  -21.6888   20.4622 C   0  0  0  0  0  0
  -28.3664  -25.4141   20.8746 C   0  0  0  0  0  0
  -29.6560  -15.8714   20.4617 C   0  0  1  0  0  0
  -31.0164  -20.7628   21.2331 C   0  0  1  0  0  0
  -29.3536  -16.5526   23.6724 C   0  0  0  0  0  0
  -29.8141  -17.4682   22.5678 N   0  0  0  0  0  0
  -30.4256  -18.2967   20.6716 N   0  3  0  0  0  0
  -31.4881  -12.5070   19.1162 H   0  0  0  0  0  0
  -30.4151  -11.3553   19.8571 H   0  0  0  0  0  0
  -29.7622  -11.7080   17.4707 H   0  0  0  0  0  0
  -29.6755  -13.4237   17.7066 H   0  0  0  0  0  0
  -27.8341  -11.2732   18.8187 H   0  0  0  0  0  0
  -27.3823  -12.5884   17.7690 H   0  0  0  0  0  0
  -27.6523  -14.2136   19.5143 H   0  0  0  0  0  0
  -28.7144  -11.9631   21.2933 H   0  0  0  0  0  0
  -28.4479  -13.5754   21.8446 H   0  0  0  0  0  0
  -25.2744   -9.5667   22.4749 H   0  0  0  0  0  0
  -24.0003   -7.4610   22.7457 H   0  0  0  0  0  0
  -21.0829   -8.8710   19.8955 H   0  0  0  0  0  0
  -22.3633  -10.9637   19.6177 H   0  0  0  0  0  0
  -21.1957   -7.6113   23.9676 H   0  0  0  0  0  0
  -21.1514   -6.0514   25.9061 H   0  0  0  0  0  0
  -22.0601   -2.7586   23.2869 H   0  0  0  0  0  0
  -22.4153  -11.9883   22.4829 H   0  0  0  0  0  0
  -21.1108  -13.1177   22.2600 H   0  0  0  0  0  0
  -24.6833  -15.8393   20.5411 H   0  0  0  0  0  0
  -26.2931  -15.6226   20.0897 H   0  0  0  0  0  0
  -26.7125  -32.5522   23.1133 H   0  0  0  0  0  0
  -25.0039  -33.9759   25.0441 H   0  0  0  0  0  0
  -22.6961  -31.3044   21.4022 H   0  0  0  0  0  0
  -23.3743  -35.9653   23.3280 H   0  0  0  0  0  0
  -24.3585  -36.8963   22.2064 H   0  0  0  0  0  0
  -23.7227  -37.6511   23.6674 H   0  0  0  0  0  0
  -26.0475  -31.5844   20.5865 H   0  0  0  0  0  0
  -26.8231  -30.8828   21.9816 H   0  0  0  0  0  0
  -28.1083  -29.0901   21.1745 H   0  0  0  0  0  0
  -26.0746  -25.9345   19.0591 H   0  0  0  0  0  0
  -23.9918  -27.2726   19.0405 H   0  0  0  0  0  0
  -23.7253  -30.5860   19.3993 H   0  0  0  0  0  0
  -22.7407  -29.2328   19.8668 H   0  0  0  0  0  0
  -25.1278  -36.1968   25.0827 H   0  0  0  0  0  0
  -20.9968  -28.3258   24.1423 H   0  0  0  0  0  0
  -20.5656  -26.2301   23.3633 H   0  0  0  0  0  0
  -21.6638  -26.7429   22.1239 H   0  0  0  0  0  0
  -19.6908  -25.6292   21.1250 H   0  0  0  0  0  0
  -19.6686  -27.3204   20.6758 H   0  0  0  0  0  0
  -17.4202  -26.6711   21.3993 H   0  0  0  0  0  0
  -18.0285  -26.0051   22.8990 H   0  0  0  0  0  0
  -19.7938  -30.7275   24.2262 H   0  0  0  0  0  0
  -17.5013  -31.6255   24.5178 H   0  0  0  0  0  0
  -15.5354  -30.2989   23.7633 H   0  0  0  0  0  0
  -15.8679  -28.0838   22.7021 H   0  0  0  0  0  0
  -24.5936  -30.7012   25.7822 H   0  0  0  0  0  0
  -24.8903  -32.2871   26.4864 H   0  0  0  0  0  0
  -25.8110  -30.8936   27.0243 H   0  0  0  0  0  0
  -26.2857  -29.6777   24.1163 H   0  0  0  0  0  0
  -27.4054  -29.7266   25.4581 H   0  0  0  0  0  0
  -27.8694  -30.4316   23.9269 H   0  0  0  0  0  0
  -27.2646  -33.3597   26.2084 H   0  0  0  0  0  0
  -28.3843  -32.6897   25.0305 H   0  0  0  0  0  0
  -28.0716  -31.8420   26.5381 H   0  0  0  0  0  0
  -28.2595  -38.0113   24.7511 H   0  0  0  0  0  0
  -28.1086  -36.2637   24.6264 H   0  0  0  0  0  0
  -27.2316  -37.1446   25.8873 H   0  0  0  0  0  0
  -20.9311  -29.8786   21.6946 H   0  0  0  0  0  0
  -26.0176  -38.2872   24.1413 H   0  0  0  0  0  0
  -29.9415  -19.3237   23.6830 H   0  0  0  0  0  0
  -34.2285  -19.6200   20.2163 H   0  0  0  0  0  0
  -33.1294  -18.8136   21.3191 H   0  0  0  0  0  0
  -33.9172  -20.3194   21.7892 H   0  0  0  0  0  0
  -32.3556  -14.6719   23.9005 H   0  0  0  0  0  0
  -32.1235  -16.3448   24.3823 H   0  0  0  0  0  0
  -32.0810  -15.9061   22.6857 H   0  0  0  0  0  0
  -25.8664  -16.8631   23.0768 H   0  0  0  0  0  0
  -27.1168  -17.6767   22.1545 H   0  0  0  0  0  0
  -26.8855  -18.0547   23.8613 H   0  0  0  0  0  0
  -28.6754  -17.0423   18.8800 H   0  0  0  0  0  0
  -29.0820  -15.4231   18.3749 H   0  0  0  0  0  0
  -30.3464  -16.6125   18.5071 H   0  0  0  0  0  0
  -32.1235  -20.7740   23.1357 H   0  0  0  0  0  0
  -30.5935  -21.6107   23.2188 H   0  0  0  0  0  0
  -31.9696  -22.3566   22.4104 H   0  0  0  0  0  0
  -29.1554  -16.5962   25.8679 H   0  0  0  0  0  0
  -28.7695  -18.1235   25.1233 H   0  0  0  0  0  0
  -30.4438  -17.6152   25.2811 H   0  0  0  0  0  0
  -32.0150  -20.1609   19.3957 H   0  0  0  0  0  0
  -32.6807  -21.5976   20.0985 H   0  0  0  0  0  0
  -30.0839  -14.8131   24.7526 H   0  0  0  0  0  0
  -30.0006  -14.5583   23.0696 H   0  0  0  0  0  0
  -27.7513  -15.3476   22.7635 H   0  0  0  0  0  0
  -27.5181  -15.6552   24.4279 H   0  0  0  0  0  0
  -28.5370  -22.7330   21.7450 H   0  0  0  0  0  0
  -30.1228  -23.4250   21.8322 H   0  0  0  0  0  0
  -28.3738  -23.8292   19.3809 H   0  0  0  0  0  0
  -29.9448  -24.5146   19.6859 H   0  0  0  0  0  0
  -30.4485  -22.0203   19.5377 H   0  0  0  0  0  0
  -29.1359  -21.0849   20.1128 H   0  0  0  0  0  0
  -28.9007  -25.6220   21.8033 H   0  0  0  0  0  0
  -27.3514  -25.1489   21.1777 H   0  0  0  0  0  0
  -28.6877  -15.6030   20.8644 H   0  0  0  0  0  0
  -30.6579  -18.3715   19.6898 H   0  0  0  0  0  0
  1 25  1  0  0  0
  1 30  2  0  0  0
  1 87  1  0  0  0
  2  3  1  0  0  0
  2 25  1  0  0  0
  2 92  1  0  0  0
  2 93  1  0  0  0
  3  4  1  0  0  0
  3 94  1  0  0  0
  3 95  1  0  0  0
  4  5  1  0  0  0
  4 96  1  0  0  0
  4 97  1  0  0  0
  5  6  1  0  0  0
  5 26  1  0  0  0
  5 98  1  0  0  0
  6 25  1  0  0  0
  6 99  1  0  0  0
  6100  1  0  0  0
  7  8  2  0  0  0
  7 26  1  0  0  0
  7 29  1  0  0  0
  8  9  1  0  0  0
  8 22  1  0  0  0
  9 10  1  0  0  0
  9 27  2  0  0  0
 10 11  2  0  0  0
 10 15  1  0  0  0
 11 12  1  0  0  0
 11101  1  0  0  0
 12 13  2  0  0  0
 12102  1  0  0  0
 13 14  1  0  0  0
 13 31  1  0  0  0
 14 15  2  0  0  0
 14103  1  0  0  0
 15104  1  0  0  0
 16 17  2  0  0  0
 16 21  1  0  0  0
 16 31  1  0  0  0
 17 18  1  0  0  0
 17105  1  0  0  0
 18 19  2  0  0  0
 18106  1  0  0  0
 19 20  1  0  0  0
 19 24  1  0  0  0
 20 21  2  0  0  0
 20107  1  0  0  0
 21 23  1  0  0  0
 22 28  1  0  0  0
 22 32  2  0  0  0
 26 27  1  0  0  0
 28108  1  0  0  0
 28109  1  0  0  0
 29110  1  0  0  0
 29111  1  0  0  0
 33 34  1  0  0  0
 33 66  1  0  0  0
 33 70  2  0  0  0
 34 36  1  0  0  0
 34 59  1  0  0  0
 34112  1  0  0  0
 35 44  2  0  0  0
 35 45  1  0  0  0
 35 68  1  0  0  0
 36 56  1  0  0  0
 36113  1  0  0  0
 37 39  1  0  0  0
 37 47  1  0  0  0
 37 66  1  0  0  0
 37114  1  0  0  0
 38 43  2  0  0  0
 38 46  1  0  0  0
 38 47  1  0  0  0
 39 64  1  0  0  0
 39 67  2  0  0  0
 40 52  1  0  0  0
 40 53  2  0  0  0
 40 58  1  0  0  0
 41115  1  0  0  0
 41116  1  0  0  0
 41117  1  0  0  0
 41 48  1  0  0  0
 42 43  1  0  0  0
 42 66  1  0  0  0
 42118  1  0  0  0
 42119  1  0  0  0
 43 44  1  0  0  0
 44120  1  0  0  0
 45 46  2  0  0  0
 45121  1  0  0  0
 46122  1  0  0  0
 47123  1  0  0  0
 47124  1  0  0  0
 48 56  1  0  0  0
 48 65  1  0  0  0
 48125  1  0  0  0
 49 50  1  0  0  0
 49 53  1  0  0  0
 49 64  1  0  0  0
 49126  1  0  0  0
 50 51  1  0  0  0
 50127  1  0  0  0
 50128  1  0  0  0
 51 52  1  0  0  0
 51129  1  0  0  0
 51130  1  0  0  0
 52131  1  0  0  0
 52132  1  0  0  0
 53 54  1  0  0  0
 54 55  2  0  0  0
 54133  1  0  0  0
 55 57  1  0  0  0
 55134  1  0  0  0
 56 69  2  0  0  0
 57 58  2  0  0  0
 57135  1  0  0  0
 58136  1  0  0  0
 59 60  1  0  0  0
 59 61  1  0  0  0
 59 62  1  0  0  0
 60137  1  0  0  0
 60138  1  0  0  0
 60139  1  0  0  0
 61140  1  0  0  0
 61141  1  0  0  0
 61142  1  0  0  0
 62143  1  0  0  0
 62144  1  0  0  0
 62145  1  0  0  0
 63 65  1  0  0  0
 63146  1  0  0  0
 63147  1  0  0  0
 63148  1  0  0  0
 64149  1  0  0  0
 65150  1  0  0  0
 68 86  1  0  0  0
 71 72  2  0  0  0
 71 90  1  0  0  0
 71151  1  0  0  0
 72 88  1  0  0  0
 72 91  1  0  0  0
 73 87  1  0  0  0
 73 90  1  0  0  0
 73 91  2  0  0  0
 74 80  1  0  0  0
 74152  1  0  0  0
 74153  1  0  0  0
 74154  1  0  0  0
 75 81  1  0  0  0
 75155  1  0  0  0
 75156  1  0  0  0
 75157  1  0  0  0
 76 82  1  0  0  0
 76158  1  0  0  0
 76159  1  0  0  0
 76160  1  0  0  0
 77161  1  0  0  0
 77162  1  0  0  0
 77163  1  0  0  0
 77 87  1  0  0  0
 78164  1  0  0  0
 78165  1  0  0  0
 78166  1  0  0  0
 78 88  1  0  0  0
 79167  1  0  0  0
 79168  1  0  0  0
 79169  1  0  0  0
 79 89  1  0  0  0
 80 88  1  0  0  0
 80170  1  0  0  0
 80171  1  0  0  0
 81 89  1  0  0  0
 81172  1  0  0  0
 81173  1  0  0  0
 82 89  1  0  0  0
 82174  1  0  0  0
 82175  1  0  0  0
 83 84  1  0  0  0
 83 85  1  0  0  0
 83176  1  0  0  0
 83177  1  0  0  0
 84 86  1  0  0  0
 84178  1  0  0  0
 84179  1  0  0  0
 85 88  1  0  0  0
 85180  1  0  0  0
 85181  1  0  0  0
 86182  1  0  0  0
 86183  1  0  0  0
 87184  1  0  0  0
 89 90  1  0  0  0
 91185  1  0  0  0
M  CHG  1  91   1
M  ISO  4   1 100  68 101  86 101  87 100
M  END
> <chiral flag>
0

> <version>
0

> <s_m_source_file>
/data/baiqing/PycharmProjects/Reinvent-master-3.2/result/LINK_invent/BTK/process_docking_weight1_custom_sum_contain_oxygen_bond_distance_aromatic_linkinvent_7_9_3/rearranged_h_0065.sdf

> <i_m_source_file_index>
33

> <r_mmod_Potential_Energy-OPLS-2005>
148.442642211914

> <r_mmod_Stretch_Energy-OPLS-2005>
67.2081069946289

> <r_mmod_Bend_Energy-OPLS-2005>
147.517120361328

> <r_mmod_Torsional_Energy-OPLS-2005>
309.180389404297

> <r_mmod_Improper_Torsional_Energy-OPLS-2005>
10.6224632263184

> <r_mmod_Van_der_Waal_Energy-OPLS-2005>
133.677505493164

> <r_mmod_Electrostatic_Energy-OPLS-2005>
-195.860733032227

> <r_mmod_Solvation_Energy-OPLS-2005>
-354.788391113281

> <b_mmod_Minimization_Converged-OPLS-2005>
0

> <r_mmod_RMS_Derivative-OPLS-2005>
3.28768253326416

$$$$
35
                    3D
 Structure written by MMmdl.
190198  0  0  1  0            999 V2000
  -30.8331  -14.3175   20.7296 C   0  0  0  0  0  0
  -30.4126  -12.2928   19.3848 C   0  0  0  0  0  0
  -29.4883  -12.5503   18.1822 C   0  0  0  0  0  0
  -28.0114  -12.4114   18.5865 C   0  0  0  0  0  0
  -27.6695  -13.2178   19.8652 C   0  0  2  0  0  0
  -28.7054  -12.9754   20.9824 C   0  0  0  0  0  0
  -25.2661  -13.8230   20.5620 C   0  0  0  0  0  0
  -24.1903  -13.0534   20.9108 C   0  0  0  0  0  0
  -24.6441  -11.7001   20.8638 C   0  0  0  0  0  0
  -23.9061  -10.4424   21.0308 C   0  0  0  0  0  0
  -24.3663   -9.4369   21.9106 C   0  0  0  0  0  0
  -23.6385   -8.2373   22.0696 C   0  0  0  0  0  0
  -22.4357   -8.0376   21.3508 C   0  0  0  0  0  0
  -21.9946   -9.0304   20.4587 C   0  0  0  0  0  0
  -22.7240  -10.2216   20.2978 C   0  0  0  0  0  0
  -21.6911   -6.0829   22.5296 C   0  0  0  0  0  0
  -21.4066   -6.5694   23.8238 C   0  0  0  0  0  0
  -21.3608   -5.6804   24.9172 C   0  0  0  0  0  0
  -21.6012   -4.3065   24.7176 C   0  0  0  0  0  0
  -21.8839   -3.8208   23.4303 C   0  0  0  0  0  0
  -21.9237   -4.7046   22.3381 C   0  0  0  0  0  0
  -22.7933  -13.5324   21.1746 C   0  0  0  0  0  0
  -22.1719   -4.2259   21.0952 F   0  0  0  0  0  0
  -21.5580   -3.4526   25.7671 F   0  0  0  0  0  0
  -30.0606  -13.2278   20.4616 N   0  0  0  0  0  0
  -26.3093  -12.9415   20.3279 N   0  0  0  0  0  0
  -25.9370  -11.6574   20.5652 N   0  0  0  0  0  0
  -22.0571  -12.8300   22.0301 N   0  0  0  0  0  0
  -25.4297  -15.1962   20.4054 N   0  0  0  0  0  0
  -31.7474  -14.6813   19.9827 O   0  0  0  0  0  0
  -21.6714   -6.8973   21.4258 O   0  0  0  0  0  0
  -22.3603  -14.5620   20.6616 O   0  0  0  0  0  0
  -24.6143  -31.8710   23.2128 C   0  0  0  0  0  0
  -25.9051  -32.4819   23.8425 C   0  0  1  0  0  0
  -27.2446  -27.4644   20.0902 C   0  0  0  0  0  0
  -25.5926  -33.8621   24.2344 N   0  0  0  0  0  0
  -23.3990  -30.4964   21.5505 C   0  0  2  0  0  0
  -24.8481  -28.9609   20.1198 C   0  0  0  0  0  0
  -22.7396  -29.4708   22.5006 C   0  0  0  0  0  0
  -18.0265  -28.1384   22.8485 C   0  0  0  0  0  0
  -24.1483  -36.7315   23.2641 C   0  0  0  0  0  0
  -25.9253  -30.8443   21.3602 C   0  0  0  0  0  0
  -26.0065  -29.4775   20.7156 C   0  0  0  0  0  0
  -27.2107  -28.7378   20.7036 C   0  0  0  0  0  0
  -26.0706  -26.9584   19.4972 C   0  0  0  0  0  0
  -24.8718  -27.6953   19.5111 C   0  0  0  0  0  0
  -23.6067  -29.8241   20.1673 C   0  0  0  0  0  0
  -25.4102  -36.3108   24.0343 C   0  0  1  0  0  0
  -20.5855  -28.3675   23.1303 C   0  0  2  0  0  0
  -20.6759  -26.9421   22.5400 C   0  0  0  0  0  0
  -19.5740  -26.6390   21.5202 C   0  0  0  0  0  0
  -18.1915  -26.7934   22.1604 C   0  0  0  0  0  0
  -19.1515  -28.8844   23.2889 C   0  0  0  0  0  0
  -18.9443  -30.1438   23.8908 C   0  0  0  0  0  0
  -17.6453  -30.6591   24.0564 C   0  0  0  0  0  0
  -25.9035  -34.9476   23.5126 C   0  0  0  0  0  0
  -16.5334  -29.9096   23.6329 C   0  0  0  0  0  0
  -16.7254  -28.6513   23.0355 C   0  0  0  0  0  0
  -26.4493  -31.6566   25.0725 C   0  0  0  0  0  0
  -25.3777  -31.3628   26.1471 C   0  0  0  0  0  0
  -27.0351  -30.3026   24.6066 C   0  0  0  0  0  0
  -27.6059  -32.4291   25.7496 C   0  0  0  0  0  0
  -27.5570  -37.1809   24.8467 C   0  0  0  0  0  0
  -21.4131  -29.3057   22.3721 N   0  0  0  0  0  0
  -26.4280  -37.3795   23.9408 N   0  0  0  0  0  0
  -24.6644  -31.0849   22.1001 N   0  0  0  0  0  0
  -23.4175  -28.8255   23.3051 O   0  0  0  0  0  0
  -28.3652  -26.6755   19.9695 O   0  0  0  0  0  0
  -26.5582  -34.8929   22.4679 O   0  0  0  0  0  0
  -23.5352  -32.1467   23.7549 O   0  0  0  0  0  0
  -27.6468  -20.5824   21.6386 C   0  0  0  0  0  0
  -28.0919  -18.3391   21.9421 C   0  0  0  0  0  0
  -28.8520  -20.7293   20.8900 C   0  0  0  0  0  0
  -29.2742  -18.4613   21.1675 C   0  0  0  0  0  0
  -26.6074  -21.6768   21.8250 C   0  0  0  0  0  0
  -27.5917  -17.0231   22.5058 C   0  0  0  0  0  0
  -30.7255  -23.8820   17.7154 C   0  0  0  0  0  0
  -32.2400  -14.5129   23.6855 C   0  0  0  0  0  0
  -29.7449  -14.5536   24.2401 C   0  0  0  0  0  0
  -30.6605  -25.4627   22.6786 C   0  0  0  0  0  0
  -28.4578  -24.6528   21.9283 C   0  0  0  0  0  0
  -32.0461  -24.7183   20.2968 C   0  0  0  0  0  0
  -29.2224  -22.0214   20.1555 C   0  0  0  0  0  0
  -30.0914  -17.2429   20.7547 C   0  0  0  0  0  0
  -30.0034  -24.5965   18.8767 C   0  0  0  0  0  0
  -30.4469  -22.8147   20.6981 C   0  0  0  0  0  0
  -30.7488  -16.4637   21.9301 C   0  0  0  0  0  0
  -29.4132  -26.7208   20.9351 C   0  0  0  0  0  0
  -30.8118  -14.2833   23.1600 C   0  0  0  0  0  0
  -29.7793  -25.2760   21.4174 C   0  0  0  0  0  0
  -30.5332  -24.3506   20.3301 C   0  0  1  0  0  0
  -27.2994  -19.4019   22.1954 N   0  0  0  0  0  0
  -29.6682  -19.6654   20.6707 N   0  0  0  0  0  0
  -30.5606  -14.9923   21.8787 N   0  0  0  0  0  0
  -31.4572  -12.3793   19.0809 H   0  0  0  0  0  0
  -30.3001  -11.2706   19.7449 H   0  0  0  0  0  0
  -29.7269  -11.8657   17.3660 H   0  0  0  0  0  0
  -29.6664  -13.5560   17.7936 H   0  0  0  0  0  0
  -27.7995  -11.3539   18.7358 H   0  0  0  0  0  0
  -27.3728  -12.7395   17.7654 H   0  0  0  0  0  0
  -27.7192  -14.2738   19.5985 H   0  0  0  0  0  0
  -28.6426  -11.9527   21.3505 H   0  0  0  0  0  0
  -28.4500  -13.6193   21.8218 H   0  0  0  0  0  0
  -25.2798   -9.5982   22.4639 H   0  0  0  0  0  0
  -24.0181   -7.4788   22.7407 H   0  0  0  0  0  0
  -21.0875   -8.8790   19.8875 H   0  0  0  0  0  0
  -22.3641  -10.9746   19.6092 H   0  0  0  0  0  0
  -21.2127   -7.6212   23.9813 H   0  0  0  0  0  0
  -21.1332   -6.0484   25.9070 H   0  0  0  0  0  0
  -22.0658   -2.7679   23.2737 H   0  0  0  0  0  0
  -22.4243  -12.0010   22.4721 H   0  0  0  0  0  0
  -21.1153  -13.1246   22.2423 H   0  0  0  0  0  0
  -24.6525  -15.8381   20.5200 H   0  0  0  0  0  0
  -26.2621  -15.6437   20.0473 H   0  0  0  0  0  0
  -26.7131  -32.5554   23.1210 H   0  0  0  0  0  0
  -25.0122  -33.9797   25.0517 H   0  0  0  0  0  0
  -22.6857  -31.3115   21.4083 H   0  0  0  0  0  0
  -23.3754  -35.9640   23.3302 H   0  0  0  0  0  0
  -24.3594  -36.8939   22.2061 H   0  0  0  0  0  0
  -23.7224  -37.6514   23.6656 H   0  0  0  0  0  0
  -26.0315  -31.6068   20.5873 H   0  0  0  0  0  0
  -26.8154  -30.9024   21.9753 H   0  0  0  0  0  0
  -28.1029  -29.1631   21.1396 H   0  0  0  0  0  0
  -26.0902  -25.9899   19.0202 H   0  0  0  0  0  0
  -23.9818  -27.2889   19.0479 H   0  0  0  0  0  0
  -23.7055  -30.5942   19.4013 H   0  0  0  0  0  0
  -22.7341  -29.2341   19.8810 H   0  0  0  0  0  0
  -25.1277  -36.1972   25.0836 H   0  0  0  0  0  0
  -20.9929  -28.3236   24.1428 H   0  0  0  0  0  0
  -20.5651  -26.2306   23.3597 H   0  0  0  0  0  0
  -21.6621  -26.7475   22.1160 H   0  0  0  0  0  0
  -19.6897  -25.6303   21.1233 H   0  0  0  0  0  0
  -19.6684  -27.3196   20.6730 H   0  0  0  0  0  0
  -17.4198  -26.6707   21.3997 H   0  0  0  0  0  0
  -18.0299  -26.0049   22.8965 H   0  0  0  0  0  0
  -19.7934  -30.7236   24.2279 H   0  0  0  0  0  0
  -17.5028  -31.6280   24.5147 H   0  0  0  0  0  0
  -15.5339  -30.3011   23.7649 H   0  0  0  0  0  0
  -15.8650  -28.0833   22.7072 H   0  0  0  0  0  0
  -24.5957  -30.6975   25.7786 H   0  0  0  0  0  0
  -24.8983  -32.2777   26.4969 H   0  0  0  0  0  0
  -25.8163  -30.8755   27.0193 H   0  0  0  0  0  0
  -26.2899  -29.6738   24.1184 H   0  0  0  0  0  0
  -27.4228  -29.7281   25.4491 H   0  0  0  0  0  0
  -27.8674  -30.4365   23.9150 H   0  0  0  0  0  0
  -27.2652  -33.3583   26.2077 H   0  0  0  0  0  0
  -28.3873  -32.6858   25.0327 H   0  0  0  0  0  0
  -28.0715  -31.8416   26.5420 H   0  0  0  0  0  0
  -28.2556  -38.0130   24.7524 H   0  0  0  0  0  0
  -28.1085  -36.2662   24.6262 H   0  0  0  0  0  0
  -27.2302  -37.1415   25.8872 H   0  0  0  0  0  0
  -20.9300  -29.8809   21.6960 H   0  0  0  0  0  0
  -26.0174  -38.2869   24.1417 H   0  0  0  0  0  0
  -26.8849  -22.3308   22.6473 H   0  0  0  0  0  0
  -25.6398  -21.2392   22.0732 H   0  0  0  0  0  0
  -26.4504  -22.2690   20.9241 H   0  0  0  0  0  0
  -27.9417  -16.1684   21.9332 H   0  0  0  0  0  0
  -26.5017  -16.9898   22.5009 H   0  0  0  0  0  0
  -27.9317  -16.9131   23.5356 H   0  0  0  0  0  0
  -30.1094  -23.9229   16.8163 H   0  0  0  0  0  0
  -30.9512  -22.8357   17.9176 H   0  0  0  0  0  0
  -31.6657  -24.3772   17.4700 H   0  0  0  0  0  0
  -32.4868  -13.7916   24.4680 H   0  0  0  0  0  0
  -32.3557  -15.5081   24.1123 H   0  0  0  0  0  0
  -32.9864  -14.4001   22.8980 H   0  0  0  0  0  0
  -29.9193  -13.9144   25.1082 H   0  0  0  0  0  0
  -28.7371  -14.3360   23.8934 H   0  0  0  0  0  0
  -29.7611  -15.5812   24.6015 H   0  0  0  0  0  0
  -30.1213  -25.9753   23.4769 H   0  0  0  0  0  0
  -31.5384  -26.0765   22.4722 H   0  0  0  0  0  0
  -31.0057  -24.5112   23.0827 H   0  0  0  0  0  0
  -27.9430  -25.3185   22.6223 H   0  0  0  0  0  0
  -28.6289  -23.7273   22.4717 H   0  0  0  0  0  0
  -27.7536  -24.4600   21.1214 H   0  0  0  0  0  0
  -32.5901  -24.1994   19.5104 H   0  0  0  0  0  0
  -32.5682  -24.4442   21.2133 H   0  0  0  0  0  0
  -32.1974  -25.7849   20.1342 H   0  0  0  0  0  0
  -28.3512  -22.6573   20.0999 H   0  0  0  0  0  0
  -29.4089  -21.7473   19.1182 H   0  0  0  0  0  0
  -30.8719  -17.5689   20.0647 H   0  0  0  0  0  0
  -29.4279  -16.6106   20.1633 H   0  0  0  0  0  0
  -28.9380  -24.3741   18.8219 H   0  0  0  0  0  0
  -30.0852  -25.6551   18.6365 H   0  0  0  0  0  0
  -31.3321  -22.2904   20.3402 H   0  0  0  0  0  0
  -30.5051  -22.6966   21.7782 H   0  0  0  0  0  0
  -30.3750  -16.8499   22.8751 H   0  0  0  0  0  0
  -31.8180  -16.6804   21.9395 H   0  0  0  0  0  0
  -30.2766  -27.2184   20.4938 H   0  0  0  0  0  0
  -29.1260  -27.3205   21.7994 H   0  0  0  0  0  0
  -30.7480  -13.2082   22.9776 H   0  0  0  0  0  0
  1 25  1  0  0  0
  1 30  2  0  0  0
  1 94  1  0  0  0
  2  3  1  0  0  0
  2 25  1  0  0  0
  2 95  1  0  0  0
  2 96  1  0  0  0
  3  4  1  0  0  0
  3 97  1  0  0  0
  3 98  1  0  0  0
  4  5  1  0  0  0
  4 99  1  0  0  0
  4100  1  0  0  0
  5  6  1  0  0  0
  5 26  1  0  0  0
  5101  1  0  0  0
  6 25  1  0  0  0
  6102  1  0  0  0
  6103  1  0  0  0
  7  8  2  0  0  0
  7 26  1  0  0  0
  7 29  1  0  0  0
  8  9  1  0  0  0
  8 22  1  0  0  0
  9 10  1  0  0  0
  9 27  2  0  0  0
 10 11  2  0  0  0
 10 15  1  0  0  0
 11 12  1  0  0  0
 11104  1  0  0  0
 12 13  2  0  0  0
 12105  1  0  0  0
 13 14  1  0  0  0
 13 31  1  0  0  0
 14 15  2  0  0  0
 14106  1  0  0  0
 15107  1  0  0  0
 16 17  2  0  0  0
 16 21  1  0  0  0
 16 31  1  0  0  0
 17 18  1  0  0  0
 17108  1  0  0  0
 18 19  2  0  0  0
 18109  1  0  0  0
 19 20  1  0  0  0
 19 24  1  0  0  0
 20 21  2  0  0  0
 20110  1  0  0  0
 21 23  1  0  0  0
 22 28  1  0  0  0
 22 32  2  0  0  0
 26 27  1  0  0  0
 28111  1  0  0  0
 28112  1  0  0  0
 29113  1  0  0  0
 29114  1  0  0  0
 33 34  1  0  0  0
 33 66  1  0  0  0
 33 70  2  0  0  0
 34 36  1  0  0  0
 34 59  1  0  0  0
 34115  1  0  0  0
 35 44  2  0  0  0
 35 45  1  0  0  0
 35 68  1  0  0  0
 36 56  1  0  0  0
 36116  1  0  0  0
 37 39  1  0  0  0
 37 47  1  0  0  0
 37 66  1  0  0  0
 37117  1  0  0  0
 38 43  2  0  0  0
 38 46  1  0  0  0
 38 47  1  0  0  0
 39 64  1  0  0  0
 39 67  2  0  0  0
 40 52  1  0  0  0
 40 53  2  0  0  0
 40 58  1  0  0  0
 41118  1  0  0  0
 41119  1  0  0  0
 41120  1  0  0  0
 41 48  1  0  0  0
 42 43  1  0  0  0
 42 66  1  0  0  0
 42121  1  0  0  0
 42122  1  0  0  0
 43 44  1  0  0  0
 44123  1  0  0  0
 45 46  2  0  0  0
 45124  1  0  0  0
 46125  1  0  0  0
 47126  1  0  0  0
 47127  1  0  0  0
 48 56  1  0  0  0
 48 65  1  0  0  0
 48128  1  0  0  0
 49 50  1  0  0  0
 49 53  1  0  0  0
 49 64  1  0  0  0
 49129  1  0  0  0
 50 51  1  0  0  0
 50130  1  0  0  0
 50131  1  0  0  0
 51 52  1  0  0  0
 51132  1  0  0  0
 51133  1  0  0  0
 52134  1  0  0  0
 52135  1  0  0  0
 53 54  1  0  0  0
 54 55  2  0  0  0
 54136  1  0  0  0
 55 57  1  0  0  0
 55137  1  0  0  0
 56 69  2  0  0  0
 57 58  2  0  0  0
 57138  1  0  0  0
 58139  1  0  0  0
 59 60  1  0  0  0
 59 61  1  0  0  0
 59 62  1  0  0  0
 60140  1  0  0  0
 60141  1  0  0  0
 60142  1  0  0  0
 61143  1  0  0  0
 61144  1  0  0  0
 61145  1  0  0  0
 62146  1  0  0  0
 62147  1  0  0  0
 62148  1  0  0  0
 63 65  1  0  0  0
 63149  1  0  0  0
 63150  1  0  0  0
 63151  1  0  0  0
 64152  1  0  0  0
 65153  1  0  0  0
 68 88  1  0  0  0
 71 73  2  0  0  0
 71 75  1  0  0  0
 71 92  1  0  0  0
 72 74  1  0  0  0
 72 76  1  0  0  0
 72 92  2  0  0  0
 73 83  1  0  0  0
 73 93  1  0  0  0
 74 84  1  0  0  0
 74 93  2  0  0  0
 75154  1  0  0  0
 75155  1  0  0  0
 75156  1  0  0  0
 76157  1  0  0  0
 76158  1  0  0  0
 76159  1  0  0  0
 77 85  1  0  0  0
 77160  1  0  0  0
 77161  1  0  0  0
 77162  1  0  0  0
 78163  1  0  0  0
 78164  1  0  0  0
 78165  1  0  0  0
 78 89  1  0  0  0
 79 89  1  0  0  0
 79166  1  0  0  0
 79167  1  0  0  0
 79168  1  0  0  0
 80169  1  0  0  0
 80170  1  0  0  0
 80171  1  0  0  0
 80 90  1  0  0  0
 81 90  1  0  0  0
 81172  1  0  0  0
 81173  1  0  0  0
 81174  1  0  0  0
 82175  1  0  0  0
 82176  1  0  0  0
 82177  1  0  0  0
 82 91  1  0  0  0
 83 86  1  0  0  0
 83178  1  0  0  0
 83179  1  0  0  0
 84 87  1  0  0  0
 84180  1  0  0  0
 84181  1  0  0  0
 85 91  1  0  0  0
 85182  1  0  0  0
 85183  1  0  0  0
 86 91  1  0  0  0
 86184  1  0  0  0
 86185  1  0  0  0
 87 94  1  0  0  0
 87186  1  0  0  0
 87187  1  0  0  0
 88 90  1  0  0  0
 88188  1  0  0  0
 88189  1  0  0  0
 89 94  1  0  0  0
 89190  1  0  0  0
 90 91  1  0  0  0
M  ISO  4   1 100  68 101  88 101  94 100
M  END
> <chiral flag>
0

> <version>
0

> <s_m_source_file>
/data/baiqing/PycharmProjects/Reinvent-master-3.2/result/LINK_invent/BTK/process_docking_weight1_custom_sum_contain_oxygen_bond_distance_aromatic_linkinvent_7_9_3/rearranged_h_0065.sdf

> <i_m_source_file_index>
34

> <r_mmod_Potential_Energy-OPLS-2005>
269.579162597656

> <r_mmod_Stretch_Energy-OPLS-2005>
58.3299827575684

> <r_mmod_Bend_Energy-OPLS-2005>
143.910827636719

> <r_mmod_Torsional_Energy-OPLS-2005>
348.566131591797

> <r_mmod_Improper_Torsional_Energy-OPLS-2005>
5.17304420471191

> <r_mmod_Van_der_Waal_Energy-OPLS-2005>
180.481384277344

> <r_mmod_Electrostatic_Energy-OPLS-2005>
-296.5146484375

> <r_mmod_Solvation_Energy-OPLS-2005>
-179.122161865234

> <b_mmod_Minimization_Converged-OPLS-2005>
0

> <r_mmod_RMS_Derivative-OPLS-2005>
4.56608581542969

$$$$
36
                    3D
 Structure written by MMmdl.
169177  0  0  1  0            999 V2000
  -30.6633  -14.6597   20.4132 C   0  0  0  0  0  0
  -30.4208  -12.3832   19.4651 C   0  0  0  0  0  0
  -29.5062  -12.4604   18.2230 C   0  0  0  0  0  0
  -28.0246  -12.3397   18.6305 C   0  0  0  0  0  0
  -27.6434  -13.2270   19.8450 C   0  0  2  0  0  0
  -28.6932  -13.1514   20.9797 C   0  0  0  0  0  0
  -25.2544  -13.8205   20.5672 C   0  0  0  0  0  0
  -24.1835  -13.0452   20.9185 C   0  0  0  0  0  0
  -24.6413  -11.6926   20.8744 C   0  0  0  0  0  0
  -23.9068  -10.4318   21.0424 C   0  0  0  0  0  0
  -24.3624   -9.4225   21.9193 C   0  0  0  0  0  0
  -23.6308   -8.2249   22.0767 C   0  0  0  0  0  0
  -22.4301   -8.0281   21.3539 C   0  0  0  0  0  0
  -21.9924   -9.0253   20.4651 C   0  0  0  0  0  0
  -22.7243  -10.2143   20.3068 C   0  0  0  0  0  0
  -21.6864   -6.0733   22.5284 C   0  0  0  0  0  0
  -21.4011   -6.5644   23.8205 C   0  0  0  0  0  0
  -21.3657   -5.6806   24.9178 C   0  0  0  0  0  0
  -21.6052   -4.3060   24.7230 C   0  0  0  0  0  0
  -21.8837   -3.8138   23.4352 C   0  0  0  0  0  0
  -21.9210   -4.6959   22.3411 C   0  0  0  0  0  0
  -22.7867  -13.5217   21.1851 C   0  0  0  0  0  0
  -22.1704   -4.2134   21.0997 F   0  0  0  0  0  0
  -21.5613   -3.4555   25.7743 F   0  0  0  0  0  0
  -30.0049  -13.4553   20.3957 N   0  0  0  0  0  0
  -26.2960  -12.9388   20.3263 N   0  0  0  0  0  0
  -25.9329  -11.6547   20.5727 N   0  0  0  0  0  0
  -22.0553  -12.8182   22.0415 N   0  0  0  0  0  0
  -25.4268  -15.1928   20.4076 N   0  0  0  0  0  0
  -31.8636  -14.7017   20.1595 O   0  0  0  0  0  0
  -21.6674   -6.8875   21.4240 O   0  0  0  0  0  0
  -22.3530  -14.5506   20.6704 O   0  0  0  0  0  0
  -24.6261  -31.8600   23.2024 C   0  0  0  0  0  0
  -25.9102  -32.4765   23.8351 C   0  0  1  0  0  0
  -27.2275  -27.3196   20.1200 C   0  0  0  0  0  0
  -25.5926  -33.8571   24.2276 N   0  0  0  0  0  0
  -23.4202  -30.4823   21.5439 C   0  0  2  0  0  0
  -24.8717  -28.9353   20.1155 C   0  0  0  0  0  0
  -22.7468  -29.4615   22.4926 C   0  0  0  0  0  0
  -18.0286  -28.1389   22.8487 C   0  0  0  0  0  0
  -24.1496  -36.7296   23.2639 C   0  0  0  0  0  0
  -25.9614  -30.7886   21.3784 C   0  0  0  0  0  0
  -26.0382  -29.4141   20.7263 C   0  0  0  0  0  0
  -27.2214  -28.6151   20.7240 C   0  0  0  0  0  0
  -26.0434  -26.8985   19.4820 C   0  0  0  0  0  0
  -24.8734  -27.6808   19.4874 C   0  0  0  0  0  0
  -23.6388  -29.8151   20.1606 C   0  0  0  0  0  0
  -25.4125  -36.3074   24.0324 C   0  0  1  0  0  0
  -20.5888  -28.3692   23.1279 C   0  0  2  0  0  0
  -20.6777  -26.9416   22.5413 C   0  0  0  0  0  0
  -19.5757  -26.6387   21.5211 C   0  0  0  0  0  0
  -18.1935  -26.7930   22.1615 C   0  0  0  0  0  0
  -19.1538  -28.8857   23.2881 C   0  0  0  0  0  0
  -18.9463  -30.1458   23.8898 C   0  0  0  0  0  0
  -17.6465  -30.6590   24.0562 C   0  0  0  0  0  0
  -25.9061  -34.9438   23.5097 C   0  0  0  0  0  0
  -16.5356  -29.9094   23.6325 C   0  0  0  0  0  0
  -16.7277  -28.6512   23.0348 C   0  0  0  0  0  0
  -26.4505  -31.6576   25.0717 C   0  0  0  0  0  0
  -25.3745  -31.3710   26.1444 C   0  0  0  0  0  0
  -27.0335  -30.2984   24.6174 C   0  0  0  0  0  0
  -27.6059  -32.4307   25.7505 C   0  0  0  0  0  0
  -27.5582  -37.1805   24.8460 C   0  0  0  0  0  0
  -21.4186  -29.3042   22.3662 N   0  0  0  0  0  0
  -26.4295  -37.3772   23.9396 N   0  0  0  0  0  0
  -24.6876  -31.0602   22.0987 N   0  0  0  0  0  0
  -23.4191  -28.8147   23.2999 O   0  0  0  0  0  0
  -28.3340  -26.4601   20.0896 O   0  0  0  0  0  0
  -26.5623  -34.8915   22.4658 O   0  0  0  0  0  0
  -23.5422  -32.1387   23.7348 O   0  0  0  0  0  0
  -30.2763  -20.4205   21.0428 C   0  0  0  0  0  0
  -28.6800  -19.2938   19.2266 C   0  0  0  0  0  0
  -29.4378  -21.2742   20.2482 C   0  0  0  0  0  0
  -29.5957  -18.4517   19.9370 C   0  0  0  0  0  0
  -30.7519  -23.3290   21.0280 C   0  0  0  0  0  0
  -29.8926  -23.2691   18.7370 C   0  0  0  0  0  0
  -28.9152  -16.5464   18.3571 C   0  0  0  0  0  0
  -27.0732  -23.6023   19.6450 C   0  0  0  0  0  0
  -27.7044  -23.0740   21.9671 C   0  0  0  0  0  0
  -28.3561  -25.3251   21.0377 C   0  0  0  0  0  0
  -29.5267  -22.8802   20.1912 C   0  0  0  0  0  0
  -29.9508  -16.9692   19.4359 C   0  0  1  0  0  0
  -28.2214  -23.7416   20.6656 C   0  0  0  0  0  0
  -31.3233  -17.0859   18.6760 C   0  0  0  0  0  0
  -28.6028  -20.6516   19.3719 N   0  0  0  0  0  0
  -30.3559  -19.0507   20.9004 N   0  0  0  0  0  0
  -29.8987  -15.8020   20.4198 N   0  0  0  0  0  0
  -32.3470  -17.2896   19.5074 F   0  0  0  0  0  0
  -31.2879  -18.1283   17.8435 F   0  0  0  0  0  0
  -31.5882  -16.0264   17.9057 F   0  0  0  0  0  0
  -31.4661  -12.4667   19.1636 H   0  0  0  0  0  0
  -30.3271  -11.4088   19.9457 H   0  0  0  0  0  0
  -29.7561  -11.6645   17.5190 H   0  0  0  0  0  0
  -29.6777  -13.3923   17.6877 H   0  0  0  0  0  0
  -27.8413  -11.2921   18.8643 H   0  0  0  0  0  0
  -27.3841  -12.5781   17.7797 H   0  0  0  0  0  0
  -27.6356  -14.2467   19.4676 H   0  0  0  0  0  0
  -28.7042  -12.1603   21.4357 H   0  0  0  0  0  0
  -28.4472  -13.8516   21.7793 H   0  0  0  0  0  0
  -25.2804   -9.5692   22.4718 H   0  0  0  0  0  0
  -24.0051   -7.4633   22.7466 H   0  0  0  0  0  0
  -21.0868   -8.8761   19.8936 H   0  0  0  0  0  0
  -22.3734  -10.9660   19.6148 H   0  0  0  0  0  0
  -21.2016   -7.6159   23.9690 H   0  0  0  0  0  0
  -21.1459   -6.0555   25.9071 H   0  0  0  0  0  0
  -22.0615   -2.7592   23.2878 H   0  0  0  0  0  0
  -22.4237  -11.9848   22.4750 H   0  0  0  0  0  0
  -21.1132  -13.1100   22.2606 H   0  0  0  0  0  0
  -24.6539  -15.8424   20.5007 H   0  0  0  0  0  0
  -26.2667  -15.6265   20.0488 H   0  0  0  0  0  0
  -26.7160  -32.5456   23.1104 H   0  0  0  0  0  0
  -25.0063  -33.9724   25.0403 H   0  0  0  0  0  0
  -22.7144  -31.3029   21.3974 H   0  0  0  0  0  0
  -23.3747  -35.9637   23.3306 H   0  0  0  0  0  0
  -24.3578  -36.8917   22.2050 H   0  0  0  0  0  0
  -23.7265  -37.6505   23.6665 H   0  0  0  0  0  0
  -26.0933  -31.5510   20.6094 H   0  0  0  0  0  0
  -26.8413  -30.8380   22.0078 H   0  0  0  0  0  0
  -28.1204  -28.9798   21.2004 H   0  0  0  0  0  0
  -26.0154  -25.9541   18.9638 H   0  0  0  0  0  0
  -23.9815  -27.3125   18.9986 H   0  0  0  0  0  0
  -23.7615  -30.5897   19.4036 H   0  0  0  0  0  0
  -22.7608  -29.2433   19.8545 H   0  0  0  0  0  0
  -25.1307  -36.1923   25.0816 H   0  0  0  0  0  0
  -20.9983  -28.3276   24.1396 H   0  0  0  0  0  0
  -20.5672  -26.2309   23.3616 H   0  0  0  0  0  0
  -21.6647  -26.7442   22.1212 H   0  0  0  0  0  0
  -19.6923  -25.6293   21.1249 H   0  0  0  0  0  0
  -19.6704  -27.3187   20.6733 H   0  0  0  0  0  0
  -17.4209  -26.6684   21.4014 H   0  0  0  0  0  0
  -18.0337  -26.0071   22.9012 H   0  0  0  0  0  0
  -19.7944  -30.7270   24.2276 H   0  0  0  0  0  0
  -17.5022  -31.6269   24.5172 H   0  0  0  0  0  0
  -15.5353  -30.3000   23.7641 H   0  0  0  0  0  0
  -15.8680  -28.0829   22.7055 H   0  0  0  0  0  0
  -24.5916  -30.7074   25.7762 H   0  0  0  0  0  0
  -24.8962  -32.2884   26.4885 H   0  0  0  0  0  0
  -25.8083  -30.8867   27.0202 H   0  0  0  0  0  0
  -26.2897  -29.6743   24.1210 H   0  0  0  0  0  0
  -27.4019  -29.7239   25.4686 H   0  0  0  0  0  0
  -27.8787  -30.4241   23.9399 H   0  0  0  0  0  0
  -27.2648  -33.3586   26.2112 H   0  0  0  0  0  0
  -28.3878  -32.6901   25.0350 H   0  0  0  0  0  0
  -28.0725  -31.8413   26.5414 H   0  0  0  0  0  0
  -28.2597  -38.0106   24.7493 H   0  0  0  0  0  0
  -28.1083  -36.2631   24.6302 H   0  0  0  0  0  0
  -27.2296  -37.1475   25.8863 H   0  0  0  0  0  0
  -20.9361  -29.8778   21.6884 H   0  0  0  0  0  0
  -26.0177  -38.2839   24.1399 H   0  0  0  0  0  0
  -30.9632  -20.8318   21.7656 H   0  0  0  0  0  0
  -28.0363  -18.9155   18.4472 H   0  0  0  0  0  0
  -31.6631  -22.8271   20.7001 H   0  0  0  0  0  0
  -30.6295  -23.1243   22.0900 H   0  0  0  0  0  0
  -30.9581  -24.3936   20.9195 H   0  0  0  0  0  0
  -30.8288  -22.8079   18.4214 H   0  0  0  0  0  0
  -30.0063  -24.3472   18.6254 H   0  0  0  0  0  0
  -29.1383  -22.9455   18.0203 H   0  0  0  0  0  0
  -28.9526  -17.1865   17.4744 H   0  0  0  0  0  0
  -27.8976  -16.5598   18.7417 H   0  0  0  0  0  0
  -29.1006  -15.5411   17.9836 H   0  0  0  0  0  0
  -26.1457  -24.0140   20.0412 H   0  0  0  0  0  0
  -26.8654  -22.5644   19.3923 H   0  0  0  0  0  0
  -27.2985  -24.1262   18.7163 H   0  0  0  0  0  0
  -26.7677  -23.5198   22.3085 H   0  0  0  0  0  0
  -28.4174  -23.1780   22.7850 H   0  0  0  0  0  0
  -27.4998  -22.0107   21.8393 H   0  0  0  0  0  0
  -29.2454  -25.4736   21.6478 H   0  0  0  0  0  0
  -27.5579  -25.5488   21.7488 H   0  0  0  0  0  0
  -28.9882  -15.6743   20.8274 H   0  0  0  0  0  0
  1 25  1  0  0  0
  1 30  2  0  0  0
  1 87  1  0  0  0
  2  3  1  0  0  0
  2 25  1  0  0  0
  2 91  1  0  0  0
  2 92  1  0  0  0
  3  4  1  0  0  0
  3 93  1  0  0  0
  3 94  1  0  0  0
  4  5  1  0  0  0
  4 95  1  0  0  0
  4 96  1  0  0  0
  5  6  1  0  0  0
  5 26  1  0  0  0
  5 97  1  0  0  0
  6 25  1  0  0  0
  6 98  1  0  0  0
  6 99  1  0  0  0
  7  8  2  0  0  0
  7 26  1  0  0  0
  7 29  1  0  0  0
  8  9  1  0  0  0
  8 22  1  0  0  0
  9 10  1  0  0  0
  9 27  2  0  0  0
 10 11  2  0  0  0
 10 15  1  0  0  0
 11 12  1  0  0  0
 11100  1  0  0  0
 12 13  2  0  0  0
 12101  1  0  0  0
 13 14  1  0  0  0
 13 31  1  0  0  0
 14 15  2  0  0  0
 14102  1  0  0  0
 15103  1  0  0  0
 16 17  2  0  0  0
 16 21  1  0  0  0
 16 31  1  0  0  0
 17 18  1  0  0  0
 17104  1  0  0  0
 18 19  2  0  0  0
 18105  1  0  0  0
 19 20  1  0  0  0
 19 24  1  0  0  0
 20 21  2  0  0  0
 20106  1  0  0  0
 21 23  1  0  0  0
 22 28  1  0  0  0
 22 32  2  0  0  0
 26 27  1  0  0  0
 28107  1  0  0  0
 28108  1  0  0  0
 29109  1  0  0  0
 29110  1  0  0  0
 33 34  1  0  0  0
 33 66  1  0  0  0
 33 70  2  0  0  0
 34 36  1  0  0  0
 34 59  1  0  0  0
 34111  1  0  0  0
 35 44  2  0  0  0
 35 45  1  0  0  0
 35 68  1  0  0  0
 36 56  1  0  0  0
 36112  1  0  0  0
 37 39  1  0  0  0
 37 47  1  0  0  0
 37 66  1  0  0  0
 37113  1  0  0  0
 38 43  2  0  0  0
 38 46  1  0  0  0
 38 47  1  0  0  0
 39 64  1  0  0  0
 39 67  2  0  0  0
 40 52  1  0  0  0
 40 53  2  0  0  0
 40 58  1  0  0  0
 41114  1  0  0  0
 41115  1  0  0  0
 41116  1  0  0  0
 41 48  1  0  0  0
 42 43  1  0  0  0
 42 66  1  0  0  0
 42117  1  0  0  0
 42118  1  0  0  0
 43 44  1  0  0  0
 44119  1  0  0  0
 45 46  2  0  0  0
 45120  1  0  0  0
 46121  1  0  0  0
 47122  1  0  0  0
 47123  1  0  0  0
 48 56  1  0  0  0
 48 65  1  0  0  0
 48124  1  0  0  0
 49 50  1  0  0  0
 49 53  1  0  0  0
 49 64  1  0  0  0
 49125  1  0  0  0
 50 51  1  0  0  0
 50126  1  0  0  0
 50127  1  0  0  0
 51 52  1  0  0  0
 51128  1  0  0  0
 51129  1  0  0  0
 52130  1  0  0  0
 52131  1  0  0  0
 53 54  1  0  0  0
 54 55  2  0  0  0
 54132  1  0  0  0
 55 57  1  0  0  0
 55133  1  0  0  0
 56 69  2  0  0  0
 57 58  2  0  0  0
 57134  1  0  0  0
 58135  1  0  0  0
 59 60  1  0  0  0
 59 61  1  0  0  0
 59 62  1  0  0  0
 60136  1  0  0  0
 60137  1  0  0  0
 60138  1  0  0  0
 61139  1  0  0  0
 61140  1  0  0  0
 61141  1  0  0  0
 62142  1  0  0  0
 62143  1  0  0  0
 62144  1  0  0  0
 63 65  1  0  0  0
 63145  1  0  0  0
 63146  1  0  0  0
 63147  1  0  0  0
 64148  1  0  0  0
 65149  1  0  0  0
 68 80  1  0  0  0
 71 73  2  0  0  0
 71 86  1  0  0  0
 71150  1  0  0  0
 72 74  1  0  0  0
 72 85  2  0  0  0
 72151  1  0  0  0
 73 81  1  0  0  0
 73 85  1  0  0  0
 74 82  1  0  0  0
 74 86  2  0  0  0
 75152  1  0  0  0
 75153  1  0  0  0
 75154  1  0  0  0
 75 81  1  0  0  0
 76 81  1  0  0  0
 76155  1  0  0  0
 76156  1  0  0  0
 76157  1  0  0  0
 77158  1  0  0  0
 77159  1  0  0  0
 77160  1  0  0  0
 77 82  1  0  0  0
 78161  1  0  0  0
 78162  1  0  0  0
 78163  1  0  0  0
 78 83  1  0  0  0
 79 83  1  0  0  0
 79164  1  0  0  0
 79165  1  0  0  0
 79166  1  0  0  0
 80 83  1  0  0  0
 80167  1  0  0  0
 80168  1  0  0  0
 81 83  1  0  0  0
 82 84  1  0  0  0
 82 87  1  0  0  0
 84 88  1  0  0  0
 84 89  1  0  0  0
 84 90  1  0  0  0
 87169  1  0  0  0
M  ISO  4   1 100  68 101  80 101  87 100
M  END
> <chiral flag>
0

> <version>
0

> <s_m_source_file>
/data/baiqing/PycharmProjects/Reinvent-master-3.2/result/LINK_invent/BTK/process_docking_weight1_custom_sum_contain_oxygen_bond_distance_aromatic_linkinvent_7_9_3/rearranged_h_0065.sdf

> <i_m_source_file_index>
35

> <r_mmod_Potential_Energy-OPLS-2005>
264.862243652344

> <r_mmod_Stretch_Energy-OPLS-2005>
121.518447875977

> <r_mmod_Bend_Energy-OPLS-2005>
193.426315307617

> <r_mmod_Torsional_Energy-OPLS-2005>
286.381683349609

> <r_mmod_Improper_Torsional_Energy-OPLS-2005>
11.6006240844727

> <r_mmod_Van_der_Waal_Energy-OPLS-2005>
171.601379394531

> <r_mmod_Electrostatic_Energy-OPLS-2005>
-361.810394287109

> <r_mmod_Solvation_Energy-OPLS-2005>
-214.236236572266

> <b_mmod_Minimization_Converged-OPLS-2005>
0

> <r_mmod_RMS_Derivative-OPLS-2005>
3.03975772857666

$$$$
37
                    3D
 Structure written by MMmdl.
190198  0  0  1  0            999 V2000
  -30.5821  -15.0195   20.2911 C   0  0  0  0  0  0
  -30.4345  -12.6213   19.4779 C   0  0  0  0  0  0
  -29.5089  -12.4897   18.2493 C   0  0  0  0  0  0
  -28.0561  -12.2335   18.6941 C   0  0  0  0  0  0
  -27.6050  -13.1958   19.8190 C   0  0  2  0  0  0
  -28.6691  -13.3774   20.9246 C   0  0  0  0  0  0
  -25.2462  -13.8004   20.5839 C   0  0  0  0  0  0
  -24.1740  -13.0304   20.9323 C   0  0  0  0  0  0
  -24.6309  -11.6780   20.8837 C   0  0  0  0  0  0
  -23.8997  -10.4197   21.0451 C   0  0  0  0  0  0
  -24.3564   -9.4121   21.9221 C   0  0  0  0  0  0
  -23.6247   -8.2162   22.0761 C   0  0  0  0  0  0
  -22.4237   -8.0229   21.3533 C   0  0  0  0  0  0
  -21.9869   -9.0202   20.4639 C   0  0  0  0  0  0
  -22.7191  -10.2076   20.3070 C   0  0  0  0  0  0
  -21.6829   -6.0701   22.5263 C   0  0  0  0  0  0
  -21.3999   -6.5613   23.8194 C   0  0  0  0  0  0
  -21.3666   -5.6777   24.9166 C   0  0  0  0  0  0
  -21.6052   -4.3040   24.7223 C   0  0  0  0  0  0
  -21.8829   -3.8126   23.4348 C   0  0  0  0  0  0
  -21.9181   -4.6933   22.3396 C   0  0  0  0  0  0
  -22.7778  -13.5147   21.1919 C   0  0  0  0  0  0
  -22.1652   -4.2114   21.0975 F   0  0  0  0  0  0
  -21.5636   -3.4534   25.7744 F   0  0  0  0  0  0
  -29.9394  -13.7710   20.2899 N   0  0  0  0  0  0
  -26.2804  -12.9105   20.3367 N   0  0  0  0  0  0
  -25.9221  -11.6301   20.5856 N   0  0  0  0  0  0
  -22.0386  -12.8171   22.0459 N   0  0  0  0  0  0
  -25.4115  -15.1733   20.4270 N   0  0  0  0  0  0
  -31.8146  -14.9420   20.3551 O   0  0  0  0  0  0
  -21.6603   -6.8831   21.4221 O   0  0  0  0  0  0
  -22.3512  -14.5466   20.6750 O   0  0  0  0  0  0
  -24.6411  -31.8444   23.1856 C   0  0  0  0  0  0
  -25.9187  -32.4697   23.8254 C   0  0  1  0  0  0
  -27.2324  -27.1566   20.1503 C   0  0  0  0  0  0
  -25.5945  -33.8507   24.2181 N   0  0  0  0  0  0
  -23.4425  -30.4613   21.5309 C   0  0  2  0  0  0
  -24.8944  -28.8869   20.1045 C   0  0  0  0  0  0
  -22.7541  -29.4555   22.4877 C   0  0  0  0  0  0
  -18.0292  -28.1388   22.8492 C   0  0  0  0  0  0
  -24.1488  -36.7257   23.2643 C   0  0  0  0  0  0
  -25.9955  -30.7255   21.3794 C   0  0  0  0  0  0
  -26.0669  -29.3376   20.7239 C   0  0  0  0  0  0
  -27.2303  -28.4855   20.7319 C   0  0  0  0  0  0
  -26.0335  -26.7976   19.4940 C   0  0  0  0  0  0
  -24.8912  -27.6310   19.4751 C   0  0  0  0  0  0
  -23.6658  -29.7831   20.1509 C   0  0  0  0  0  0
  -25.4123  -36.3043   24.0315 C   0  0  1  0  0  0
  -20.5905  -28.3712   23.1252 C   0  0  2  0  0  0
  -20.6788  -26.9424   22.5417 C   0  0  0  0  0  0
  -19.5765  -26.6383   21.5222 C   0  0  0  0  0  0
  -18.1933  -26.7934   22.1621 C   0  0  0  0  0  0
  -19.1548  -28.8867   23.2865 C   0  0  0  0  0  0
  -18.9471  -30.1469   23.8887 C   0  0  0  0  0  0
  -17.6464  -30.6592   24.0565 C   0  0  0  0  0  0
  -25.9084  -34.9414   23.5063 C   0  0  0  0  0  0
  -16.5358  -29.9084   23.6335 C   0  0  0  0  0  0
  -16.7277  -28.6499   23.0366 C   0  0  0  0  0  0
  -26.4515  -31.6559   25.0693 C   0  0  0  0  0  0
  -25.3706  -31.3738   26.1395 C   0  0  0  0  0  0
  -27.0372  -30.2951   24.6275 C   0  0  0  0  0  0
  -27.6049  -32.4317   25.7489 C   0  0  0  0  0  0
  -27.5577  -37.1782   24.8464 C   0  0  0  0  0  0
  -21.4233  -29.3040   22.3616 N   0  0  0  0  0  0
  -26.4288  -37.3752   23.9409 N   0  0  0  0  0  0
  -24.7127  -31.0316   22.0877 N   0  0  0  0  0  0
  -23.4189  -28.8137   23.3050 O   0  0  0  0  0  0
  -28.3173  -26.2207   20.2804 O   0  0  0  0  0  0
  -26.5680  -34.8914   22.4652 O   0  0  0  0  0  0
  -23.5533  -32.1315   23.7087 O   0  0  0  0  0  0
  -29.9501  -19.3113   19.5574 C   0  0  0  0  0  0
  -29.8634  -18.0161   20.2660 C   0  0  0  0  0  0
  -29.5488  -20.4226   20.3317 C   0  0  0  0  0  0
  -27.4626  -19.7854   23.2747 C   0  0  0  0  0  0
  -27.1227  -22.6292   20.2954 C   0  0  0  0  0  0
  -30.9242  -16.6782   18.4111 C   0  0  0  0  0  0
  -28.6132  -16.2713   19.0257 C   0  0  0  0  0  0
  -29.8915  -22.1633   18.5515 C   0  0  0  0  0  0
  -33.1803  -23.3003   21.6722 C   0  0  0  0  0  0
  -33.0022  -22.3039   19.3909 C   0  0  0  0  0  0
  -33.8013  -25.4077   18.3660 C   0  0  0  0  0  0
  -32.9795  -26.8528   20.1641 C   0  0  0  0  0  0
  -30.9627  -22.4607   20.9415 C   0  0  0  0  0  0
  -28.8165  -20.3192   22.7848 C   0  0  0  0  0  0
  -31.9874  -24.6089   19.8771 C   0  0  0  0  0  0
  -28.4316  -24.7957   19.6854 C   0  0  0  0  0  0
  -28.5175  -23.2646   20.4196 C   0  0  2  0  0  0
  -29.9923  -16.4803   19.6404 C   0  0  0  0  0  0
  -29.6866  -22.0648   20.0827 C   0  0  2  0  0  0
  -32.2624  -23.1788   20.4261 C   0  0  0  0  0  0
  -29.3719  -18.3510   21.4619 N   0  0  0  0  0  0
  -29.2202  -19.7389   21.5142 N   0  0  0  0  0  0
  -33.2034  -25.4568   19.7240 N   0  3  0  0  0  0
  -31.4632  -12.7711   19.1464 H   0  0  0  0  0  0
  -30.4381  -11.6988   20.0609 H   0  0  0  0  0  0
  -29.8471  -11.6756   17.6072 H   0  0  0  0  0  0
  -29.5645  -13.3956   17.6466 H   0  0  0  0  0  0
  -27.9965  -11.2052   19.0518 H   0  0  0  0  0  0
  -27.3806  -12.2949   17.8403 H   0  0  0  0  0  0
  -27.4578  -14.1204   19.2998 H   0  0  0  0  0  0
  -28.7911  -12.4584   21.5002 H   0  0  0  0  0  0
  -28.3566  -14.1497   21.6280 H   0  0  0  0  0  0
  -25.2693   -9.5600   22.4831 H   0  0  0  0  0  0
  -23.9936   -7.4547   22.7487 H   0  0  0  0  0  0
  -21.0799   -8.8732   19.8949 H   0  0  0  0  0  0
  -22.3652  -10.9642   19.6204 H   0  0  0  0  0  0
  -21.1983   -7.6119   23.9688 H   0  0  0  0  0  0
  -21.1489   -6.0507   25.9064 H   0  0  0  0  0  0
  -22.0604   -2.7587   23.2860 H   0  0  0  0  0  0
  -22.3963  -11.9835   22.4886 H   0  0  0  0  0  0
  -21.1000  -13.1227   22.2617 H   0  0  0  0  0  0
  -24.6433  -15.8227   20.5570 H   0  0  0  0  0  0
  -26.2661  -15.6247   20.1301 H   0  0  0  0  0  0
  -26.7269  -32.5299   23.0999 H   0  0  0  0  0  0
  -25.0026  -33.9633   25.0281 H   0  0  0  0  0  0
  -22.7451  -31.2871   21.3741 H   0  0  0  0  0  0
  -23.3764  -35.9573   23.3281 H   0  0  0  0  0  0
  -24.3581  -36.8916   22.2065 H   0  0  0  0  0  0
  -23.7224  -37.6438   23.6695 H   0  0  0  0  0  0
  -26.1487  -31.4831   20.6075 H   0  0  0  0  0  0
  -26.8660  -30.7753   22.0214 H   0  0  0  0  0  0
  -28.1216  -28.8269   21.2389 H   0  0  0  0  0  0
  -25.9348  -25.8299   19.0280 H   0  0  0  0  0  0
  -23.9937  -27.2797   18.9841 H   0  0  0  0  0  0
  -23.7882  -30.5531   19.3890 H   0  0  0  0  0  0
  -22.7825  -29.2172   19.8487 H   0  0  0  0  0  0
  -25.1314  -36.1872   25.0806 H   0  0  0  0  0  0
  -21.0002  -28.3314   24.1372 H   0  0  0  0  0  0
  -20.5676  -26.2335   23.3639 H   0  0  0  0  0  0
  -21.6652  -26.7440   22.1214 H   0  0  0  0  0  0
  -19.6929  -25.6288   21.1263 H   0  0  0  0  0  0
  -19.6699  -27.3186   20.6748 H   0  0  0  0  0  0
  -17.4211  -26.6685   21.4017 H   0  0  0  0  0  0
  -18.0330  -26.0073   22.9014 H   0  0  0  0  0  0
  -19.7949  -30.7287   24.2257 H   0  0  0  0  0  0
  -17.5022  -31.6278   24.5158 H   0  0  0  0  0  0
  -15.5363  -30.2988   23.7668 H   0  0  0  0  0  0
  -15.8678  -28.0813   22.7105 H   0  0  0  0  0  0
  -24.5913  -30.7055   25.7715 H   0  0  0  0  0  0
  -24.8868  -32.2916   26.4754 H   0  0  0  0  0  0
  -25.8010  -30.8966   27.0212 H   0  0  0  0  0  0
  -26.2982  -29.6678   24.1282 H   0  0  0  0  0  0
  -27.3971  -29.7253   25.4851 H   0  0  0  0  0  0
  -27.8895  -30.4174   23.9590 H   0  0  0  0  0  0
  -27.2642  -33.3632   26.2015 H   0  0  0  0  0  0
  -28.3889  -32.6843   25.0342 H   0  0  0  0  0  0
  -28.0675  -31.8470   26.5448 H   0  0  0  0  0  0
  -28.2582  -38.0091   24.7528 H   0  0  0  0  0  0
  -28.1084  -36.2624   24.6264 H   0  0  0  0  0  0
  -27.2304  -37.1402   25.8869 H   0  0  0  0  0  0
  -20.9440  -29.8725   21.6776 H   0  0  0  0  0  0
  -26.0154  -38.2822   24.1407 H   0  0  0  0  0  0
  -30.2931  -19.4066   18.5387 H   0  0  0  0  0  0
  -27.1909  -20.2335   24.2307 H   0  0  0  0  0  0
  -27.4868  -18.7041   23.4116 H   0  0  0  0  0  0
  -26.6690  -20.0116   22.5625 H   0  0  0  0  0  0
  -26.3460  -23.2996   20.6648 H   0  0  0  0  0  0
  -27.0463  -21.7030   20.8619 H   0  0  0  0  0  0
  -26.8903  -22.3958   19.2563 H   0  0  0  0  0  0
  -30.4992  -17.3547   17.6708 H   0  0  0  0  0  0
  -31.1207  -15.7444   17.8814 H   0  0  0  0  0  0
  -31.8868  -17.0937   18.7121 H   0  0  0  0  0  0
  -28.3014  -17.1386   18.4435 H   0  0  0  0  0  0
  -27.8703  -16.1416   19.8084 H   0  0  0  0  0  0
  -28.6228  -15.4438   18.3209 H   0  0  0  0  0  0
  -30.7024  -21.5327   18.1995 H   0  0  0  0  0  0
  -30.0901  -23.1590   18.1766 H   0  0  0  0  0  0
  -28.9973  -21.8189   18.0319 H   0  0  0  0  0  0
  -33.3659  -22.3276   22.1292 H   0  0  0  0  0  0
  -32.7366  -23.9336   22.4431 H   0  0  0  0  0  0
  -34.1622  -23.7138   21.4391 H   0  0  0  0  0  0
  -32.9151  -21.2426   19.6226 H   0  0  0  0  0  0
  -34.0678  -22.5285   19.3604 H   0  0  0  0  0  0
  -32.6300  -22.4581   18.3794 H   0  0  0  0  0  0
  -34.6819  -26.0475   18.3053 H   0  0  0  0  0  0
  -33.0935  -25.7456   17.6083 H   0  0  0  0  0  0
  -34.1248  -24.4048   18.0957 H   0  0  0  0  0  0
  -33.8916  -27.4431   20.0744 H   0  0  0  0  0  0
  -32.6748  -26.8886   21.2106 H   0  0  0  0  0  0
  -32.2056  -27.3366   19.5657 H   0  0  0  0  0  0
  -31.3348  -21.5396   21.3912 H   0  0  0  0  0  0
  -30.6259  -22.9975   21.8276 H   0  0  0  0  0  0
  -29.5931  -20.1106   23.5202 H   0  0  0  0  0  0
  -28.7734  -21.4015   22.6846 H   0  0  0  0  0  0
  -31.2890  -25.1006   20.5571 H   0  0  0  0  0  0
  -31.4906  -24.5693   18.9134 H   0  0  0  0  0  0
  -27.7254  -24.7126   18.8618 H   0  0  0  0  0  0
  -29.3609  -24.9094   19.1434 H   0  0  0  0  0  0
  -28.5958  -23.4787   21.4850 H   0  0  0  0  0  0
  -33.8878  -25.0771   20.3617 H   0  0  0  0  0  0
  1 25  1  0  0  0
  1 30  2  0  0  0
  1 88  1  0  0  0
  2  3  1  0  0  0
  2 25  1  0  0  0
  2 94  1  0  0  0
  2 95  1  0  0  0
  3  4  1  0  0  0
  3 96  1  0  0  0
  3 97  1  0  0  0
  4  5  1  0  0  0
  4 98  1  0  0  0
  4 99  1  0  0  0
  5  6  1  0  0  0
  5 26  1  0  0  0
  5100  1  0  0  0
  6 25  1  0  0  0
  6101  1  0  0  0
  6102  1  0  0  0
  7  8  2  0  0  0
  7 26  1  0  0  0
  7 29  1  0  0  0
  8  9  1  0  0  0
  8 22  1  0  0  0
  9 10  1  0  0  0
  9 27  2  0  0  0
 10 11  2  0  0  0
 10 15  1  0  0  0
 11 12  1  0  0  0
 11103  1  0  0  0
 12 13  2  0  0  0
 12104  1  0  0  0
 13 14  1  0  0  0
 13 31  1  0  0  0
 14 15  2  0  0  0
 14105  1  0  0  0
 15106  1  0  0  0
 16 17  2  0  0  0
 16 21  1  0  0  0
 16 31  1  0  0  0
 17 18  1  0  0  0
 17107  1  0  0  0
 18 19  2  0  0  0
 18108  1  0  0  0
 19 20  1  0  0  0
 19 24  1  0  0  0
 20 21  2  0  0  0
 20109  1  0  0  0
 21 23  1  0  0  0
 22 28  1  0  0  0
 22 32  2  0  0  0
 26 27  1  0  0  0
 28110  1  0  0  0
 28111  1  0  0  0
 29112  1  0  0  0
 29113  1  0  0  0
 33 34  1  0  0  0
 33 66  1  0  0  0
 33 70  2  0  0  0
 34 36  1  0  0  0
 34 59  1  0  0  0
 34114  1  0  0  0
 35 44  2  0  0  0
 35 45  1  0  0  0
 35 68  1  0  0  0
 36 56  1  0  0  0
 36115  1  0  0  0
 37 39  1  0  0  0
 37 47  1  0  0  0
 37 66  1  0  0  0
 37116  1  0  0  0
 38 43  2  0  0  0
 38 46  1  0  0  0
 38 47  1  0  0  0
 39 64  1  0  0  0
 39 67  2  0  0  0
 40 52  1  0  0  0
 40 53  2  0  0  0
 40 58  1  0  0  0
 41117  1  0  0  0
 41118  1  0  0  0
 41119  1  0  0  0
 41 48  1  0  0  0
 42 43  1  0  0  0
 42 66  1  0  0  0
 42120  1  0  0  0
 42121  1  0  0  0
 43 44  1  0  0  0
 44122  1  0  0  0
 45 46  2  0  0  0
 45123  1  0  0  0
 46124  1  0  0  0
 47125  1  0  0  0
 47126  1  0  0  0
 48 56  1  0  0  0
 48 65  1  0  0  0
 48127  1  0  0  0
 49 50  1  0  0  0
 49 53  1  0  0  0
 49 64  1  0  0  0
 49128  1  0  0  0
 50 51  1  0  0  0
 50129  1  0  0  0
 50130  1  0  0  0
 51 52  1  0  0  0
 51131  1  0  0  0
 51132  1  0  0  0
 52133  1  0  0  0
 52134  1  0  0  0
 53 54  1  0  0  0
 54 55  2  0  0  0
 54135  1  0  0  0
 55 57  1  0  0  0
 55136  1  0  0  0
 56 69  2  0  0  0
 57 58  2  0  0  0
 57137  1  0  0  0
 58138  1  0  0  0
 59 60  1  0  0  0
 59 61  1  0  0  0
 59 62  1  0  0  0
 60139  1  0  0  0
 60140  1  0  0  0
 60141  1  0  0  0
 61142  1  0  0  0
 61143  1  0  0  0
 61144  1  0  0  0
 62145  1  0  0  0
 62146  1  0  0  0
 62147  1  0  0  0
 63 65  1  0  0  0
 63148  1  0  0  0
 63149  1  0  0  0
 63150  1  0  0  0
 64151  1  0  0  0
 65152  1  0  0  0
 68 86  1  0  0  0
 71 72  1  0  0  0
 71 73  2  0  0  0
 71153  1  0  0  0
 72 88  1  0  0  0
 72 91  2  0  0  0
 73 89  1  0  0  0
 73 92  1  0  0  0
 74 84  1  0  0  0
 74154  1  0  0  0
 74155  1  0  0  0
 74156  1  0  0  0
 75157  1  0  0  0
 75158  1  0  0  0
 75159  1  0  0  0
 75 87  1  0  0  0
 76160  1  0  0  0
 76161  1  0  0  0
 76162  1  0  0  0
 76 88  1  0  0  0
 77 88  1  0  0  0
 77163  1  0  0  0
 77164  1  0  0  0
 77165  1  0  0  0
 78166  1  0  0  0
 78167  1  0  0  0
 78168  1  0  0  0
 78 89  1  0  0  0
 79169  1  0  0  0
 79170  1  0  0  0
 79171  1  0  0  0
 79 90  1  0  0  0
 80 90  1  0  0  0
 80172  1  0  0  0
 80173  1  0  0  0
 80174  1  0  0  0
 81175  1  0  0  0
 81176  1  0  0  0
 81177  1  0  0  0
 81 93  1  0  0  0
 82 93  1  0  0  0
 82178  1  0  0  0
 82179  1  0  0  0
 82180  1  0  0  0
 83 89  1  0  0  0
 83 90  1  0  0  0
 83181  1  0  0  0
 83182  1  0  0  0
 84 92  1  0  0  0
 84183  1  0  0  0
 84184  1  0  0  0
 85 90  1  0  0  0
 85 93  1  0  0  0
 85185  1  0  0  0
 85186  1  0  0  0
 86 87  1  0  0  0
 86187  1  0  0  0
 86188  1  0  0  0
 87 89  1  0  0  0
 87189  1  0  0  0
 91 92  1  0  0  0
 93190  1  0  0  0
M  CHG  1  93   1
M  ISO  4   1 100  68 101  86 101  88 100
M  END
> <chiral flag>
0

> <version>
0

> <s_m_source_file>
/data/baiqing/PycharmProjects/Reinvent-master-3.2/result/LINK_invent/BTK/process_docking_weight1_custom_sum_contain_oxygen_bond_distance_aromatic_linkinvent_7_9_3/rearranged_h_0065.sdf

> <i_m_source_file_index>
36

> <r_mmod_Potential_Energy-OPLS-2005>
778.269653320312

> <r_mmod_Stretch_Energy-OPLS-2005>
300.761169433594

> <r_mmod_Bend_Energy-OPLS-2005>
402.73486328125

> <r_mmod_Torsional_Energy-OPLS-2005>
311.127990722656

> <r_mmod_Improper_Torsional_Energy-OPLS-2005>
20.8180313110352

> <r_mmod_Van_der_Waal_Energy-OPLS-2005>
137.553268432617

> <r_mmod_Electrostatic_Energy-OPLS-2005>
-204.189514160156

> <r_mmod_Solvation_Energy-OPLS-2005>
-416.958038330078

> <b_mmod_Minimization_Converged-OPLS-2005>
0

> <r_mmod_RMS_Derivative-OPLS-2005>
2.2219877243042

$$$$
38
                    3D
 Structure written by MMmdl.
163171  0  0  1  0            999 V2000
  -30.6749  -14.6426   20.4269 C   0  0  0  0  0  0
  -30.4171  -12.3637   19.4764 C   0  0  0  0  0  0
  -29.5081  -12.3959   18.2315 C   0  0  0  0  0  0
  -28.0177  -12.3151   18.6301 C   0  0  0  0  0  0
  -27.6333  -13.2225   19.8328 C   0  0  2  0  0  0
  -28.6794  -13.1736   20.9634 C   0  0  0  0  0  0
  -25.2502  -13.8199   20.5693 C   0  0  0  0  0  0
  -24.1791  -13.0458   20.9221 C   0  0  0  0  0  0
  -24.6384  -11.6935   20.8778 C   0  0  0  0  0  0
  -23.9068  -10.4322   21.0433 C   0  0  0  0  0  0
  -24.3628   -9.4220   21.9192 C   0  0  0  0  0  0
  -23.6319   -8.2252   22.0750 C   0  0  0  0  0  0
  -22.4295   -8.0292   21.3546 C   0  0  0  0  0  0
  -21.9943   -9.0279   20.4628 C   0  0  0  0  0  0
  -22.7272  -10.2147   20.3061 C   0  0  0  0  0  0
  -21.6868   -6.0757   22.5283 C   0  0  0  0  0  0
  -21.4027   -6.5653   23.8223 C   0  0  0  0  0  0
  -21.3677   -5.6789   24.9168 C   0  0  0  0  0  0
  -21.6048   -4.3052   24.7207 C   0  0  0  0  0  0
  -21.8811   -3.8164   23.4327 C   0  0  0  0  0  0
  -21.9195   -4.6982   22.3398 C   0  0  0  0  0  0
  -22.7812  -13.5248   21.1866 C   0  0  0  0  0  0
  -22.1636   -4.2183   21.0962 F   0  0  0  0  0  0
  -21.5638   -3.4508   25.7699 F   0  0  0  0  0  0
  -29.9902  -13.4574   20.3707 N   0  0  0  0  0  0
  -26.2902  -12.9373   20.3242 N   0  0  0  0  0  0
  -25.9294  -11.6536   20.5780 N   0  0  0  0  0  0
  -22.0450  -12.8255   22.0427 N   0  0  0  0  0  0
  -25.4264  -15.1916   20.4126 N   0  0  0  0  0  0
  -31.8965  -14.6663   20.2479 O   0  0  0  0  0  0
  -21.6652   -6.8902   21.4251 O   0  0  0  0  0  0
  -22.3495  -14.5536   20.6691 O   0  0  0  0  0  0
  -24.6241  -31.8622   23.2028 C   0  0  0  0  0  0
  -25.9108  -32.4778   23.8326 C   0  0  1  0  0  0
  -27.2242  -27.3421   20.1246 C   0  0  0  0  0  0
  -25.5929  -33.8567   24.2262 N   0  0  0  0  0  0
  -23.4142  -30.4890   21.5426 C   0  0  2  0  0  0
  -24.8606  -28.9461   20.1065 C   0  0  0  0  0  0
  -22.7453  -29.4649   22.4911 C   0  0  0  0  0  0
  -18.0283  -28.1395   22.8489 C   0  0  0  0  0  0
  -24.1482  -36.7294   23.2634 C   0  0  0  0  0  0
  -25.9496  -30.8092   21.3590 C   0  0  0  0  0  0
  -26.0273  -29.4345   20.7073 C   0  0  0  0  0  0
  -27.2121  -28.6458   20.7014 C   0  0  0  0  0  0
  -26.0363  -26.8983   19.4994 C   0  0  0  0  0  0
  -24.8659  -27.6826   19.4932 C   0  0  0  0  0  0
  -23.6281  -29.8252   20.1561 C   0  0  0  0  0  0
  -25.4101  -36.3063   24.0323 C   0  0  1  0  0  0
  -20.5881  -28.3695   23.1306 C   0  0  2  0  0  0
  -20.6767  -26.9417   22.5432 C   0  0  0  0  0  0
  -19.5738  -26.6390   21.5237 C   0  0  0  0  0  0
  -18.1923  -26.7937   22.1647 C   0  0  0  0  0  0
  -19.1533  -28.8862   23.2899 C   0  0  0  0  0  0
  -18.9452  -30.1464   23.8911 C   0  0  0  0  0  0
  -17.6450  -30.6595   24.0578 C   0  0  0  0  0  0
  -25.9051  -34.9446   23.5090 C   0  0  0  0  0  0
  -16.5347  -29.9107   23.6305 C   0  0  0  0  0  0
  -16.7276  -28.6535   23.0316 C   0  0  0  0  0  0
  -26.4495  -31.6555   25.0666 C   0  0  0  0  0  0
  -25.3742  -31.3698   26.1404 C   0  0  0  0  0  0
  -27.0321  -30.2978   24.6073 C   0  0  0  0  0  0
  -27.6036  -32.4278   25.7473 C   0  0  0  0  0  0
  -27.5566  -37.1801   24.8463 C   0  0  0  0  0  0
  -21.4171  -29.3067   22.3698 N   0  0  0  0  0  0
  -26.4274  -37.3765   23.9412 N   0  0  0  0  0  0
  -24.6818  -31.0681   22.0944 N   0  0  0  0  0  0
  -23.4202  -28.8168   23.2957 O   0  0  0  0  0  0
  -28.3548  -26.5203   20.1959 O   0  0  0  0  0  0
  -26.5625  -34.8924   22.4658 O   0  0  0  0  0  0
  -23.5416  -32.1396   23.7398 O   0  0  0  0  0  0
  -29.3211  -20.4923   21.5501 C   0  0  0  0  0  0
  -30.0537  -19.9070   20.4791 C   0  0  0  0  0  0
  -29.4066  -22.6368   20.5576 C   0  0  0  0  0  0
  -30.0881  -22.0364   19.4565 C   0  0  0  0  0  0
  -29.9656  -22.4927   16.9510 C   0  0  0  0  0  0
  -32.1669  -18.8401   21.2274 C   0  0  0  0  0  0
  -29.5685  -16.1020   18.8950 C   0  0  0  0  0  0
  -29.3174  -24.1933   20.7730 C   0  0  0  0  0  0
  -30.6481  -22.8345   18.2835 C   0  0  0  0  0  0
  -30.1708  -17.1466   21.0782 C   0  0  0  0  0  0
  -28.1946  -25.0575   20.0742 C   0  0  0  0  0  0
  -30.8159  -18.5286   20.5196 C   0  0  1  0  0  0
  -28.9969  -21.8279   21.5818 N   0  0  0  0  0  0
  -30.3901  -20.7046   19.4249 N   0  0  0  0  0  0
  -29.9527  -15.8317   20.3003 N   0  0  0  0  0  0
  -31.4643  -12.4495   19.1762 H   0  0  0  0  0  0
  -30.3272  -11.4055   19.9909 H   0  0  0  0  0  0
  -29.7557  -11.5518   17.5853 H   0  0  0  0  0  0
  -29.7053  -13.2826   17.6323 H   0  0  0  0  0  0
  -27.8103  -11.2743   18.8788 H   0  0  0  0  0  0
  -27.3897  -12.5370   17.7659 H   0  0  0  0  0  0
  -27.6106  -14.2414   19.4525 H   0  0  0  0  0  0
  -28.6796  -12.2024   21.4577 H   0  0  0  0  0  0
  -28.4356  -13.9123   21.7298 H   0  0  0  0  0  0
  -25.2777   -9.5696   22.4754 H   0  0  0  0  0  0
  -24.0024   -7.4643   22.7474 H   0  0  0  0  0  0
  -21.0881   -8.8831   19.8919 H   0  0  0  0  0  0
  -22.3786  -10.9694   19.6152 H   0  0  0  0  0  0
  -21.2013   -7.6162   23.9757 H   0  0  0  0  0  0
  -21.1512   -6.0488   25.9083 H   0  0  0  0  0  0
  -22.0582   -2.7625   23.2803 H   0  0  0  0  0  0
  -22.4061  -11.9919   22.4831 H   0  0  0  0  0  0
  -21.1077  -13.1319   22.2591 H   0  0  0  0  0  0
  -24.6743  -15.8640   20.5273 H   0  0  0  0  0  0
  -26.3015  -15.6227   20.1457 H   0  0  0  0  0  0
  -26.7173  -32.5470   23.1075 H   0  0  0  0  0  0
  -25.0033  -33.9704   25.0374 H   0  0  0  0  0  0
  -22.7042  -31.3069   21.4013 H   0  0  0  0  0  0
  -23.3735  -35.9639   23.3283 H   0  0  0  0  0  0
  -24.3575  -36.8934   22.2053 H   0  0  0  0  0  0
  -23.7253  -37.6497   23.6669 H   0  0  0  0  0  0
  -26.0589  -31.5726   20.5871 H   0  0  0  0  0  0
  -26.8412  -30.8707   21.9725 H   0  0  0  0  0  0
  -28.1078  -29.0229   21.1752 H   0  0  0  0  0  0
  -25.9885  -25.9303   19.0223 H   0  0  0  0  0  0
  -23.9707  -27.3024   19.0207 H   0  0  0  0  0  0
  -23.7451  -30.6034   19.4014 H   0  0  0  0  0  0
  -22.7480  -29.2571   19.8523 H   0  0  0  0  0  0
  -25.1277  -36.1888   25.0815 H   0  0  0  0  0  0
  -20.9995  -28.3275   24.1419 H   0  0  0  0  0  0
  -20.5674  -26.2308   23.3635 H   0  0  0  0  0  0
  -21.6632  -26.7446   22.1220 H   0  0  0  0  0  0
  -19.6892  -25.6304   21.1260 H   0  0  0  0  0  0
  -19.6674  -27.3208   20.6771 H   0  0  0  0  0  0
  -17.4193  -26.6692   21.4050 H   0  0  0  0  0  0
  -18.0312  -26.0092   22.9057 H   0  0  0  0  0  0
  -19.7928  -30.7287   24.2276 H   0  0  0  0  0  0
  -17.5007  -31.6264   24.5202 H   0  0  0  0  0  0
  -15.5346  -30.3019   23.7623 H   0  0  0  0  0  0
  -15.8681  -28.0896   22.6952 H   0  0  0  0  0  0
  -24.5937  -30.7009   25.7754 H   0  0  0  0  0  0
  -24.8919  -32.2879   26.4771 H   0  0  0  0  0  0
  -25.8102  -30.8929   27.0195 H   0  0  0  0  0  0
  -26.2876  -29.6736   24.1123 H   0  0  0  0  0  0
  -27.4060  -29.7199   25.4535 H   0  0  0  0  0  0
  -27.8713  -30.4238   23.9230 H   0  0  0  0  0  0
  -27.2614  -33.3583   26.2009 H   0  0  0  0  0  0
  -28.3907  -32.6828   25.0364 H   0  0  0  0  0  0
  -28.0627  -31.8414   26.5446 H   0  0  0  0  0  0
  -28.2572  -38.0104   24.7496 H   0  0  0  0  0  0
  -28.1064  -36.2636   24.6282 H   0  0  0  0  0  0
  -27.2294  -37.1444   25.8869 H   0  0  0  0  0  0
  -20.9310  -29.8835   21.6975 H   0  0  0  0  0  0
  -26.0139  -38.2830   24.1426 H   0  0  0  0  0  0
  -29.0854  -19.9184   22.4353 H   0  0  0  0  0  0
  -30.4213  -23.0510   16.1321 H   0  0  0  0  0  0
  -28.9031  -22.7347   16.9735 H   0  0  0  0  0  0
  -30.0623  -21.4331   16.7153 H   0  0  0  0  0  0
  -32.6812  -19.6626   20.7286 H   0  0  0  0  0  0
  -32.8649  -18.0003   21.2329 H   0  0  0  0  0  0
  -32.0102  -19.1395   22.2649 H   0  0  0  0  0  0
  -28.7537  -16.8195   18.7981 H   0  0  0  0  0  0
  -29.2330  -15.2140   18.3702 H   0  0  0  0  0  0
  -30.4276  -16.4801   18.3381 H   0  0  0  0  0  0
  -30.2903  -24.6175   20.5281 H   0  0  0  0  0  0
  -29.2264  -24.3615   21.8470 H   0  0  0  0  0  0
  -31.7187  -22.6354   18.2150 H   0  0  0  0  0  0
  -30.5613  -23.9062   18.4493 H   0  0  0  0  0  0
  -29.2245  -17.5115   20.6860 H   0  0  0  0  0  0
  -31.1551  -16.8812   20.7278 H   0  0  0  0  0  0
  -27.2406  -24.7501   20.5045 H   0  0  0  0  0  0
  -28.1579  -24.8102   19.0128 H   0  0  0  0  0  0
  -31.0619  -18.3667   19.4649 H   0  0  0  0  0  0
  1 25  1  0  0  0
  1 30  2  0  0  0
  1 85  1  0  0  0
  2  3  1  0  0  0
  2 25  1  0  0  0
  2 86  1  0  0  0
  2 87  1  0  0  0
  3  4  1  0  0  0
  3 88  1  0  0  0
  3 89  1  0  0  0
  4  5  1  0  0  0
  4 90  1  0  0  0
  4 91  1  0  0  0
  5  6  1  0  0  0
  5 26  1  0  0  0
  5 92  1  0  0  0
  6 25  1  0  0  0
  6 93  1  0  0  0
  6 94  1  0  0  0
  7  8  2  0  0  0
  7 26  1  0  0  0
  7 29  1  0  0  0
  8  9  1  0  0  0
  8 22  1  0  0  0
  9 10  1  0  0  0
  9 27  2  0  0  0
 10 11  2  0  0  0
 10 15  1  0  0  0
 11 12  1  0  0  0
 11 95  1  0  0  0
 12 13  2  0  0  0
 12 96  1  0  0  0
 13 14  1  0  0  0
 13 31  1  0  0  0
 14 15  2  0  0  0
 14 97  1  0  0  0
 15 98  1  0  0  0
 16 17  2  0  0  0
 16 21  1  0  0  0
 16 31  1  0  0  0
 17 18  1  0  0  0
 17 99  1  0  0  0
 18 19  2  0  0  0
 18100  1  0  0  0
 19 20  1  0  0  0
 19 24  1  0  0  0
 20 21  2  0  0  0
 20101  1  0  0  0
 21 23  1  0  0  0
 22 28  1  0  0  0
 22 32  2  0  0  0
 26 27  1  0  0  0
 28102  1  0  0  0
 28103  1  0  0  0
 29104  1  0  0  0
 29105  1  0  0  0
 33 34  1  0  0  0
 33 66  1  0  0  0
 33 70  2  0  0  0
 34 36  1  0  0  0
 34 59  1  0  0  0
 34106  1  0  0  0
 35 44  2  0  0  0
 35 45  1  0  0  0
 35 68  1  0  0  0
 36 56  1  0  0  0
 36107  1  0  0  0
 37 39  1  0  0  0
 37 47  1  0  0  0
 37 66  1  0  0  0
 37108  1  0  0  0
 38 43  2  0  0  0
 38 46  1  0  0  0
 38 47  1  0  0  0
 39 64  1  0  0  0
 39 67  2  0  0  0
 40 52  1  0  0  0
 40 53  2  0  0  0
 40 58  1  0  0  0
 41109  1  0  0  0
 41110  1  0  0  0
 41111  1  0  0  0
 41 48  1  0  0  0
 42 43  1  0  0  0
 42 66  1  0  0  0
 42112  1  0  0  0
 42113  1  0  0  0
 43 44  1  0  0  0
 44114  1  0  0  0
 45 46  2  0  0  0
 45115  1  0  0  0
 46116  1  0  0  0
 47117  1  0  0  0
 47118  1  0  0  0
 48 56  1  0  0  0
 48 65  1  0  0  0
 48119  1  0  0  0
 49 50  1  0  0  0
 49 53  1  0  0  0
 49 64  1  0  0  0
 49120  1  0  0  0
 50 51  1  0  0  0
 50121  1  0  0  0
 50122  1  0  0  0
 51 52  1  0  0  0
 51123  1  0  0  0
 51124  1  0  0  0
 52125  1  0  0  0
 52126  1  0  0  0
 53 54  1  0  0  0
 54 55  2  0  0  0
 54127  1  0  0  0
 55 57  1  0  0  0
 55128  1  0  0  0
 56 69  2  0  0  0
 57 58  2  0  0  0
 57129  1  0  0  0
 58130  1  0  0  0
 59 60  1  0  0  0
 59 61  1  0  0  0
 59 62  1  0  0  0
 60131  1  0  0  0
 60132  1  0  0  0
 60133  1  0  0  0
 61134  1  0  0  0
 61135  1  0  0  0
 61136  1  0  0  0
 62137  1  0  0  0
 62138  1  0  0  0
 62139  1  0  0  0
 63 65  1  0  0  0
 63140  1  0  0  0
 63141  1  0  0  0
 63142  1  0  0  0
 64143  1  0  0  0
 65144  1  0  0  0
 68 81  1  0  0  0
 71 72  2  0  0  0
 71 83  1  0  0  0
 71145  1  0  0  0
 72 82  1  0  0  0
 72 84  1  0  0  0
 73 74  1  0  0  0
 73 78  1  0  0  0
 73 83  2  0  0  0
 74 79  1  0  0  0
 74 84  2  0  0  0
 75 79  1  0  0  0
 75146  1  0  0  0
 75147  1  0  0  0
 75148  1  0  0  0
 76149  1  0  0  0
 76150  1  0  0  0
 76151  1  0  0  0
 76 82  1  0  0  0
 77 85  1  0  0  0
 77152  1  0  0  0
 77153  1  0  0  0
 77154  1  0  0  0
 78 81  1  0  0  0
 78155  1  0  0  0
 78156  1  0  0  0
 79157  1  0  0  0
 79158  1  0  0  0
 80 82  1  0  0  0
 80 85  1  0  0  0
 80159  1  0  0  0
 80160  1  0  0  0
 81161  1  0  0  0
 81162  1  0  0  0
 82163  1  0  0  0
M  ISO  4   1 100  68 101  81 101  85 100
M  END
> <chiral flag>
0

> <version>
0

> <s_m_source_file>
/data/baiqing/PycharmProjects/Reinvent-master-3.2/result/LINK_invent/BTK/process_docking_weight1_custom_sum_contain_oxygen_bond_distance_aromatic_linkinvent_7_9_3/rearranged_h_0065.sdf

> <i_m_source_file_index>
37

> <r_mmod_Potential_Energy-OPLS-2005>
583.508422851562

> <r_mmod_Stretch_Energy-OPLS-2005>
98.235481262207

> <r_mmod_Bend_Energy-OPLS-2005>
380.6171875

> <r_mmod_Torsional_Energy-OPLS-2005>
310.255676269531

> <r_mmod_Improper_Torsional_Energy-OPLS-2005>
16.2227039337158

> <r_mmod_Van_der_Waal_Energy-OPLS-2005>
183.990493774414

> <r_mmod_Electrostatic_Energy-OPLS-2005>
-260.265258789062

> <r_mmod_Solvation_Energy-OPLS-2005>
-203.415481567383

> <b_mmod_Minimization_Converged-OPLS-2005>
0

> <r_mmod_RMS_Derivative-OPLS-2005>
3.58193945884705

$$$$
39
                    3D
 Structure written by MMmdl.
158166  0  0  1  0            999 V2000
  -30.4857  -15.0233   20.4272 C   0  0  0  0  0  0
  -30.4556  -12.6442   19.5409 C   0  0  0  0  0  0
  -29.5624  -12.5684   18.2826 C   0  0  0  0  0  0
  -28.0830  -12.3438   18.6674 C   0  0  0  0  0  0
  -27.6307  -13.2610   19.8380 C   0  0  2  0  0  0
  -28.6590  -13.2925   20.9855 C   0  0  0  0  0  0
  -25.2468  -13.8275   20.5635 C   0  0  0  0  0  0
  -24.1790  -13.0498   20.9249 C   0  0  0  0  0  0
  -24.6431  -11.6994   20.8736 C   0  0  0  0  0  0
  -23.9100  -10.4346   21.0399 C   0  0  0  0  0  0
  -24.3653   -9.4234   21.9151 C   0  0  0  0  0  0
  -23.6315   -8.2261   22.0731 C   0  0  0  0  0  0
  -22.4284   -8.0299   21.3547 C   0  0  0  0  0  0
  -21.9941   -9.0268   20.4628 C   0  0  0  0  0  0
  -22.7287  -10.2153   20.3033 C   0  0  0  0  0  0
  -21.6876   -6.0734   22.5265 C   0  0  0  0  0  0
  -21.4012   -6.5608   23.8211 C   0  0  0  0  0  0
  -21.3669   -5.6746   24.9166 C   0  0  0  0  0  0
  -21.6089   -4.3019   24.7209 C   0  0  0  0  0  0
  -21.8817   -3.8129   23.4313 C   0  0  0  0  0  0
  -21.9200   -4.6963   22.3381 C   0  0  0  0  0  0
  -22.7814  -13.5260   21.1895 C   0  0  0  0  0  0
  -22.1654   -4.2159   21.0959 F   0  0  0  0  0  0
  -21.5659   -3.4478   25.7712 F   0  0  0  0  0  0
  -29.9254  -13.7427   20.3975 N   0  0  0  0  0  0
  -26.2869  -12.9495   20.3106 N   0  0  0  0  0  0
  -25.9355  -11.6638   20.5663 N   0  0  0  0  0  0
  -22.0393  -12.8295   22.0459 N   0  0  0  0  0  0
  -25.4129  -15.1965   20.3953 N   0  0  0  0  0  0
  -31.6895  -15.0973   20.1536 O   0  0  0  0  0  0
  -21.6645   -6.8889   21.4241 O   0  0  0  0  0  0
  -22.3502  -14.5534   20.6715 O   0  0  0  0  0  0
  -24.6348  -31.8427   23.1909 C   0  0  0  0  0  0
  -25.9191  -32.4601   23.8238 C   0  0  1  0  0  0
  -27.1941  -27.1045   20.1830 C   0  0  0  0  0  0
  -25.5993  -33.8435   24.2166 N   0  0  0  0  0  0
  -23.4371  -30.4704   21.5296 C   0  0  2  0  0  0
  -24.8850  -28.8936   20.0984 C   0  0  0  0  0  0
  -22.7527  -29.4572   22.4802 C   0  0  0  0  0  0
  -18.0336  -28.1289   22.8531 C   0  0  0  0  0  0
  -24.1528  -36.7215   23.2653 C   0  0  0  0  0  0
  -25.9896  -30.7058   21.4019 C   0  0  0  0  0  0
  -26.0556  -29.3197   20.7353 C   0  0  0  0  0  0
  -27.2021  -28.4398   20.7671 C   0  0  0  0  0  0
  -25.9988  -26.7830   19.5020 C   0  0  0  0  0  0
  -24.8740  -27.6392   19.4644 C   0  0  0  0  0  0
  -23.6643  -29.8083   20.1428 C   0  0  0  0  0  0
  -25.4142  -36.2947   24.0309 C   0  0  1  0  0  0
  -20.5965  -28.3675   23.1219 C   0  0  2  0  0  0
  -20.6806  -26.9365   22.5408 C   0  0  0  0  0  0
  -19.5744  -26.6305   21.5256 C   0  0  0  0  0  0
  -18.1942  -26.7850   22.1662 C   0  0  0  0  0  0
  -19.1598  -28.8789   23.2883 C   0  0  0  0  0  0
  -18.9517  -30.1439   23.8826 C   0  0  0  0  0  0
  -17.6496  -30.6526   24.0559 C   0  0  0  0  0  0
  -25.9085  -34.9346   23.5015 C   0  0  0  0  0  0
  -16.5390  -29.8998   23.6344 C   0  0  0  0  0  0
  -16.7326  -28.6412   23.0367 C   0  0  0  0  0  0
  -26.4549  -31.6450   25.0682 C   0  0  0  0  0  0
  -25.3812  -31.3589   26.1451 C   0  0  0  0  0  0
  -27.0512  -30.2836   24.6335 C   0  0  0  0  0  0
  -27.6017  -32.4304   25.7443 C   0  0  0  0  0  0
  -27.5568  -37.1759   24.8464 C   0  0  0  0  0  0
  -21.4225  -29.3024   22.3534 N   0  0  0  0  0  0
  -26.4269  -37.3699   23.9401 N   0  0  0  0  0  0
  -24.7036  -31.0346   22.0904 N   0  0  0  0  0  0
  -23.4178  -28.8207   23.3026 O   0  0  0  0  0  0
  -28.2356  -26.1086   20.3346 O   0  0  0  0  0  0
  -26.5683  -34.8853   22.4601 O   0  0  0  0  0  0
  -23.5483  -32.1298   23.7194 O   0  0  0  0  0  0
  -30.2075  -22.5452   21.6120 C   0  0  0  0  0  0
  -29.5943  -20.6227   20.8479 C   0  0  0  0  0  0
  -30.3137  -23.9726   22.0628 C   0  0  0  0  0  0
  -28.7606  -19.2026   18.8478 C   0  0  0  0  0  0
  -27.7173  -18.8690   21.1054 C   0  0  0  0  0  0
  -28.0837  -23.0485   20.3541 C   0  0  0  0  0  0
  -30.0514  -17.7645   20.6038 C   0  0  0  0  0  0
  -28.3014  -24.6462   19.7543 C   0  0  0  0  0  0
  -29.0392  -19.1421   20.3616 C   0  0  0  0  0  0
  -31.1172  -21.6716   22.0264 N   0  0  0  0  0  0
  -30.7223  -20.4659   21.5555 N   0  0  0  0  0  0
  -29.2171  -22.0435   20.8216 N   0  0  0  0  0  0
  -29.6843  -16.2081   20.5729 N   0  0  0  0  0  0
  -31.4932  -12.8259   19.2571 H   0  0  0  0  0  0
  -30.4549  -11.6947   20.0796 H   0  0  0  0  0  0
  -29.9212  -11.7785   17.6237 H   0  0  0  0  0  0
  -29.6586  -13.4996   17.7259 H   0  0  0  0  0  0
  -27.9752  -11.2988   18.9559 H   0  0  0  0  0  0
  -27.4442  -12.4939   17.7968 H   0  0  0  0  0  0
  -27.5920  -14.2669   19.4214 H   0  0  0  0  0  0
  -28.7598  -12.3095   21.4500 H   0  0  0  0  0  0
  -28.3400  -13.9759   21.7733 H   0  0  0  0  0  0
  -25.2807   -9.5699   22.4727 H   0  0  0  0  0  0
  -24.0031   -7.4644   22.7435 H   0  0  0  0  0  0
  -21.0874   -8.8837   19.8884 H   0  0  0  0  0  0
  -22.3783  -10.9711   19.6126 H   0  0  0  0  0  0
  -21.1994   -7.6117   23.9748 H   0  0  0  0  0  0
  -21.1491   -6.0436   25.9079 H   0  0  0  0  0  0
  -22.0606   -2.7594   23.2803 H   0  0  0  0  0  0
  -22.3930  -12.0007   22.5001 H   0  0  0  0  0  0
  -21.0987  -13.1347   22.2511 H   0  0  0  0  0  0
  -24.6335  -15.8436   20.4571 H   0  0  0  0  0  0
  -26.2230  -15.6041   19.9438 H   0  0  0  0  0  0
  -26.7226  -32.5192   23.0925 H   0  0  0  0  0  0
  -25.0192  -33.9548   25.0346 H   0  0  0  0  0  0
  -22.7367  -31.2954   21.3883 H   0  0  0  0  0  0
  -23.3779  -35.9560   23.3250 H   0  0  0  0  0  0
  -24.3616  -36.8895   22.2075 H   0  0  0  0  0  0
  -23.7312  -37.6384   23.6766 H   0  0  0  0  0  0
  -26.1848  -31.4801   20.6599 H   0  0  0  0  0  0
  -26.8322  -30.7210   22.0782 H   0  0  0  0  0  0
  -28.0715  -28.7629   21.3208 H   0  0  0  0  0  0
  -25.8883  -25.8142   19.0408 H   0  0  0  0  0  0
  -23.9787  -27.3101   18.9562 H   0  0  0  0  0  0
  -23.7952  -30.5893   19.3886 H   0  0  0  0  0  0
  -22.7693  -29.2602   19.8404 H   0  0  0  0  0  0
  -25.1353  -36.1691   25.0792 H   0  0  0  0  0  0
  -21.0150  -28.3274   24.1311 H   0  0  0  0  0  0
  -20.5696  -26.2334   23.3665 H   0  0  0  0  0  0
  -21.6663  -26.7312   22.1221 H   0  0  0  0  0  0
  -19.6897  -25.6237   21.1239 H   0  0  0  0  0  0
  -19.6605  -27.3155   20.6814 H   0  0  0  0  0  0
  -17.4257  -26.6731   21.3993 H   0  0  0  0  0  0
  -18.0236  -25.9905   22.8948 H   0  0  0  0  0  0
  -19.7996  -30.7341   24.2033 H   0  0  0  0  0  0
  -17.5045  -31.6197   24.5191 H   0  0  0  0  0  0
  -15.5389  -30.2872   23.7661 H   0  0  0  0  0  0
  -15.8763  -28.0727   22.7024 H   0  0  0  0  0  0
  -24.6016  -30.6867   25.7828 H   0  0  0  0  0  0
  -24.9043  -32.2783   26.4865 H   0  0  0  0  0  0
  -25.8238  -30.8790   27.0210 H   0  0  0  0  0  0
  -26.3199  -29.6444   24.1377 H   0  0  0  0  0  0
  -27.4154  -29.7174   25.4920 H   0  0  0  0  0  0
  -27.9069  -30.4012   23.9678 H   0  0  0  0  0  0
  -27.2486  -33.3614   26.1879 H   0  0  0  0  0  0
  -28.3857  -32.6836   25.0299 H   0  0  0  0  0  0
  -28.0684  -31.8573   26.5450 H   0  0  0  0  0  0
  -28.2553  -38.0088   24.7523 H   0  0  0  0  0  0
  -28.1094  -36.2617   24.6269 H   0  0  0  0  0  0
  -27.2311  -37.1359   25.8876 H   0  0  0  0  0  0
  -20.9376  -29.8710   21.6723 H   0  0  0  0  0  0
  -26.0082  -38.2734   24.1413 H   0  0  0  0  0  0
  -30.7725  -24.5835   21.2874 H   0  0  0  0  0  0
  -30.9564  -24.0321   22.9420 H   0  0  0  0  0  0
  -29.3523  -24.3932   22.3542 H   0  0  0  0  0  0
  -27.9651  -19.9058   18.6052 H   0  0  0  0  0  0
  -28.4585  -18.2310   18.4509 H   0  0  0  0  0  0
  -29.6559  -19.5099   18.3025 H   0  0  0  0  0  0
  -27.0150  -19.7001   21.0033 H   0  0  0  0  0  0
  -27.9031  -18.7303   22.1729 H   0  0  0  0  0  0
  -27.2139  -17.9755   20.7256 H   0  0  0  0  0  0
  -27.5579  -22.5119   19.5602 H   0  0  0  0  0  0
  -27.3530  -23.0764   21.1656 H   0  0  0  0  0  0
  -30.9123  -17.8842   19.9415 H   0  0  0  0  0  0
  -30.4732  -17.8841   21.6012 H   0  0  0  0  0  0
  -27.6947  -24.6658   18.8488 H   0  0  0  0  0  0
  -29.3064  -24.6247   19.3349 H   0  0  0  0  0  0
  -28.7087  -16.0241   20.7679 H   0  0  0  0  0  0
  1 25  1  0  0  0
  1 30  2  0  0  0
  1 83  1  0  0  0
  2  3  1  0  0  0
  2 25  1  0  0  0
  2 84  1  0  0  0
  2 85  1  0  0  0
  3  4  1  0  0  0
  3 86  1  0  0  0
  3 87  1  0  0  0
  4  5  1  0  0  0
  4 88  1  0  0  0
  4 89  1  0  0  0
  5  6  1  0  0  0
  5 26  1  0  0  0
  5 90  1  0  0  0
  6 25  1  0  0  0
  6 91  1  0  0  0
  6 92  1  0  0  0
  7  8  2  0  0  0
  7 26  1  0  0  0
  7 29  1  0  0  0
  8  9  1  0  0  0
  8 22  1  0  0  0
  9 10  1  0  0  0
  9 27  2  0  0  0
 10 11  2  0  0  0
 10 15  1  0  0  0
 11 12  1  0  0  0
 11 93  1  0  0  0
 12 13  2  0  0  0
 12 94  1  0  0  0
 13 14  1  0  0  0
 13 31  1  0  0  0
 14 15  2  0  0  0
 14 95  1  0  0  0
 15 96  1  0  0  0
 16 17  2  0  0  0
 16 21  1  0  0  0
 16 31  1  0  0  0
 17 18  1  0  0  0
 17 97  1  0  0  0
 18 19  2  0  0  0
 18 98  1  0  0  0
 19 20  1  0  0  0
 19 24  1  0  0  0
 20 21  2  0  0  0
 20 99  1  0  0  0
 21 23  1  0  0  0
 22 28  1  0  0  0
 22 32  2  0  0  0
 26 27  1  0  0  0
 28100  1  0  0  0
 28101  1  0  0  0
 29102  1  0  0  0
 29103  1  0  0  0
 33 34  1  0  0  0
 33 66  1  0  0  0
 33 70  2  0  0  0
 34 36  1  0  0  0
 34 59  1  0  0  0
 34104  1  0  0  0
 35 44  2  0  0  0
 35 45  1  0  0  0
 35 68  1  0  0  0
 36 56  1  0  0  0
 36105  1  0  0  0
 37 39  1  0  0  0
 37 47  1  0  0  0
 37 66  1  0  0  0
 37106  1  0  0  0
 38 43  2  0  0  0
 38 46  1  0  0  0
 38 47  1  0  0  0
 39 64  1  0  0  0
 39 67  2  0  0  0
 40 52  1  0  0  0
 40 53  2  0  0  0
 40 58  1  0  0  0
 41107  1  0  0  0
 41108  1  0  0  0
 41109  1  0  0  0
 41 48  1  0  0  0
 42 43  1  0  0  0
 42 66  1  0  0  0
 42110  1  0  0  0
 42111  1  0  0  0
 43 44  1  0  0  0
 44112  1  0  0  0
 45 46  2  0  0  0
 45113  1  0  0  0
 46114  1  0  0  0
 47115  1  0  0  0
 47116  1  0  0  0
 48 56  1  0  0  0
 48 65  1  0  0  0
 48117  1  0  0  0
 49 50  1  0  0  0
 49 53  1  0  0  0
 49 64  1  0  0  0
 49118  1  0  0  0
 50 51  1  0  0  0
 50119  1  0  0  0
 50120  1  0  0  0
 51 52  1  0  0  0
 51121  1  0  0  0
 51122  1  0  0  0
 52123  1  0  0  0
 52124  1  0  0  0
 53 54  1  0  0  0
 54 55  2  0  0  0
 54125  1  0  0  0
 55 57  1  0  0  0
 55126  1  0  0  0
 56 69  2  0  0  0
 57 58  2  0  0  0
 57127  1  0  0  0
 58128  1  0  0  0
 59 60  1  0  0  0
 59 61  1  0  0  0
 59 62  1  0  0  0
 60129  1  0  0  0
 60130  1  0  0  0
 60131  1  0  0  0
 61132  1  0  0  0
 61133  1  0  0  0
 61134  1  0  0  0
 62135  1  0  0  0
 62136  1  0  0  0
 62137  1  0  0  0
 63 65  1  0  0  0
 63138  1  0  0  0
 63139  1  0  0  0
 63140  1  0  0  0
 64141  1  0  0  0
 65142  1  0  0  0
 68 78  1  0  0  0
 71 73  1  0  0  0
 71 80  2  0  0  0
 71 82  1  0  0  0
 72 79  1  0  0  0
 72 81  2  0  0  0
 72 82  1  0  0  0
 73143  1  0  0  0
 73144  1  0  0  0
 73145  1  0  0  0
 74146  1  0  0  0
 74147  1  0  0  0
 74148  1  0  0  0
 74 79  1  0  0  0
 75 79  1  0  0  0
 75149  1  0  0  0
 75150  1  0  0  0
 75151  1  0  0  0
 76 78  1  0  0  0
 76 82  1  0  0  0
 76152  1  0  0  0
 76153  1  0  0  0
 77 79  1  0  0  0
 77 83  1  0  0  0
 77154  1  0  0  0
 77155  1  0  0  0
 78156  1  0  0  0
 78157  1  0  0  0
 80 81  1  0  0  0
 83158  1  0  0  0
M  ISO  4   1 100  68 101  78 101  83 100
M  END
> <chiral flag>
0

> <version>
0

> <s_m_source_file>
/data/baiqing/PycharmProjects/Reinvent-master-3.2/result/LINK_invent/BTK/process_docking_weight1_custom_sum_contain_oxygen_bond_distance_aromatic_linkinvent_7_9_3/rearranged_h_0065.sdf

> <i_m_source_file_index>
38

> <r_mmod_Potential_Energy-OPLS-2005>
637.697509765625

> <r_mmod_Stretch_Energy-OPLS-2005>
336.427734375

> <r_mmod_Bend_Energy-OPLS-2005>
382.983734130859

> <r_mmod_Torsional_Energy-OPLS-2005>
236.888763427734

> <r_mmod_Improper_Torsional_Energy-OPLS-2005>
6.16037130355835

> <r_mmod_Van_der_Waal_Energy-OPLS-2005>
109.292938232422

> <r_mmod_Electrostatic_Energy-OPLS-2005>
-434.945404052734

> <r_mmod_Solvation_Energy-OPLS-2005>
-242.217300415039

> <b_mmod_Minimization_Converged-OPLS-2005>
0

> <r_mmod_RMS_Derivative-OPLS-2005>
7.87863254547119

$$$$
40
                    3D
 Structure written by MMmdl.
188196  0  0  1  0            999 V2000
  -30.7368  -14.5910   20.3513 C   0  0  0  0  0  0
  -30.3973  -12.3272   19.4582 C   0  0  0  0  0  0
  -29.4909  -12.4058   18.2168 C   0  0  0  0  0  0
  -28.0002  -12.3445   18.6063 C   0  0  0  0  0  0
  -27.6286  -13.2259   19.8290 C   0  0  2  0  0  0
  -28.6916  -13.1675   20.9483 C   0  0  0  0  0  0
  -25.2387  -13.7944   20.6002 C   0  0  0  0  0  0
  -24.1670  -13.0218   20.9199 C   0  0  0  0  0  0
  -24.6317  -11.6725   20.8620 C   0  0  0  0  0  0
  -23.9015  -10.4143   21.0315 C   0  0  0  0  0  0
  -24.3570   -9.4115   21.9145 C   0  0  0  0  0  0
  -23.6237   -8.2183   22.0758 C   0  0  0  0  0  0
  -22.4231   -8.0203   21.3536 C   0  0  0  0  0  0
  -21.9835   -9.0164   20.4638 C   0  0  0  0  0  0
  -22.7163  -10.2017   20.2995 C   0  0  0  0  0  0
  -21.6857   -6.0670   22.5260 C   0  0  0  0  0  0
  -21.4046   -6.5600   23.8185 C   0  0  0  0  0  0
  -21.3671   -5.6757   24.9146 C   0  0  0  0  0  0
  -21.6055   -4.3024   24.7213 C   0  0  0  0  0  0
  -21.8819   -3.8104   23.4343 C   0  0  0  0  0  0
  -21.9207   -4.6900   22.3391 C   0  0  0  0  0  0
  -22.7720  -13.5065   21.1909 C   0  0  0  0  0  0
  -22.1649   -4.2078   21.0965 F   0  0  0  0  0  0
  -21.5625   -3.4525   25.7746 F   0  0  0  0  0  0
  -30.0037  -13.4331   20.3513 N   0  0  0  0  0  0
  -26.2864  -12.9299   20.3274 N   0  0  0  0  0  0
  -25.9235  -11.6410   20.5551 N   0  0  0  0  0  0
  -22.0425  -12.8058   22.0449 N   0  0  0  0  0  0
  -25.3828  -15.1690   20.5158 N   0  0  0  0  0  0
  -31.9608  -14.4879   20.3216 O   0  0  0  0  0  0
  -21.6617   -6.8800   21.4224 O   0  0  0  0  0  0
  -22.3426  -14.5423   20.6787 O   0  0  0  0  0  0
  -24.6073  -31.8767   23.2168 C   0  0  0  0  0  0
  -25.9009  -32.4868   23.8415 C   0  0  1  0  0  0
  -27.2293  -27.4908   20.0970 C   0  0  0  0  0  0
  -25.5912  -33.8657   24.2386 N   0  0  0  0  0  0
  -23.3897  -30.5009   21.5543 C   0  0  2  0  0  0
  -24.8348  -28.9738   20.1178 C   0  0  0  0  0  0
  -22.7380  -29.4707   22.5010 C   0  0  0  0  0  0
  -18.0303  -28.1376   22.8506 C   0  0  0  0  0  0
  -24.1481  -36.7327   23.2638 C   0  0  0  0  0  0
  -25.9097  -30.8587   21.3606 C   0  0  0  0  0  0
  -25.9875  -29.4943   20.7201 C   0  0  0  0  0  0
  -27.1860  -28.7573   20.7210 C   0  0  0  0  0  0
  -26.0632  -26.9778   19.4961 C   0  0  0  0  0  0
  -24.8657  -27.7108   19.5036 C   0  0  0  0  0  0
  -23.5953  -29.8356   20.1646 C   0  0  0  0  0  0
  -25.4104  -36.3132   24.0353 C   0  0  1  0  0  0
  -20.5877  -28.3679   23.1339 C   0  0  2  0  0  0
  -20.6767  -26.9410   22.5436 C   0  0  0  0  0  0
  -19.5751  -26.6403   21.5206 C   0  0  0  0  0  0
  -18.1933  -26.7941   22.1608 C   0  0  0  0  0  0
  -19.1542  -28.8847   23.2925 C   0  0  0  0  0  0
  -18.9456  -30.1449   23.8929 C   0  0  0  0  0  0
  -17.6450  -30.6570   24.0559 C   0  0  0  0  0  0
  -25.9038  -34.9497   23.5153 C   0  0  0  0  0  0
  -16.5354  -29.9059   23.6324 C   0  0  0  0  0  0
  -16.7283  -28.6488   23.0336 C   0  0  0  0  0  0
  -26.4455  -31.6614   25.0703 C   0  0  0  0  0  0
  -25.3761  -31.3675   26.1467 C   0  0  0  0  0  0
  -27.0292  -30.3074   24.6054 C   0  0  0  0  0  0
  -27.6072  -32.4294   25.7469 C   0  0  0  0  0  0
  -27.5586  -37.1816   24.8475 C   0  0  0  0  0  0
  -21.4136  -29.3046   22.3749 N   0  0  0  0  0  0
  -26.4309  -37.3804   23.9414 N   0  0  0  0  0  0
  -24.6528  -31.0917   22.1038 N   0  0  0  0  0  0
  -23.4206  -28.8285   23.3044 O   0  0  0  0  0  0
  -28.3504  -26.7113   19.9851 O   0  0  0  0  0  0
  -26.5555  -34.8938   22.4679 O   0  0  0  0  0  0
  -23.5276  -32.1507   23.7601 O   0  0  0  0  0  0
  -29.7138  -21.0630   18.9671 C   0  0  0  0  0  0
  -29.2679  -20.5940   17.7543 C   0  0  0  0  0  0
  -28.7323  -19.0561   19.3037 C   0  0  0  0  0  0
  -28.0390  -21.5237   15.7614 C   0  0  0  0  0  0
  -27.2039  -17.1969   18.6503 C   0  0  0  0  0  0
  -26.9787  -18.2687   20.8790 C   0  0  0  0  0  0
  -31.3374  -17.0809   20.1813 C   0  0  0  0  0  0
  -30.1112  -15.9584   18.3572 C   0  0  0  0  0  0
  -29.5029  -24.3373   18.0774 C   0  0  0  0  0  0
  -28.3462  -23.4472   20.1377 C   0  0  0  0  0  0
  -29.8184  -20.0822   21.3034 C   0  0  0  0  0  0
  -30.4983  -22.3231   19.2815 C   0  0  0  0  0  0
  -29.3907  -21.1152   16.3584 C   0  0  0  0  0  0
  -30.6225  -26.1449   20.1971 C   0  0  0  0  0  0
  -30.6165  -24.6003   20.3626 C   0  0  0  0  0  0
  -28.8920  -16.6333   20.5341 C   0  0  0  0  0  0
  -29.4685  -26.9425   20.8144 C   0  0  0  0  0  0
  -28.0281  -17.7925   19.8405 C   0  0  0  0  0  0
  -30.2124  -16.0372   19.8932 C   0  0  0  0  0  0
  -29.7213  -23.6786   19.4617 C   0  0  0  0  0  0
  -29.4149  -20.0685   19.8922 N   0  0  0  0  0  0
  -28.6612  -19.4012   18.0158 N   0  3  0  0  0  0
  -31.4416  -12.3731   19.1452 H   0  0  0  0  0  0
  -30.2830  -11.3627   19.9551 H   0  0  0  0  0  0
  -29.7259  -11.5714   17.5545 H   0  0  0  0  0  0
  -29.7082  -13.3020   17.6411 H   0  0  0  0  0  0
  -27.7499  -11.3042   18.8107 H   0  0  0  0  0  0
  -27.3943  -12.6334   17.7468 H   0  0  0  0  0  0
  -27.5978  -14.2376   19.4375 H   0  0  0  0  0  0
  -28.6835  -12.1813   21.4144 H   0  0  0  0  0  0
  -28.4840  -13.8767   21.7496 H   0  0  0  0  0  0
  -25.2688   -9.5621   22.4719 H   0  0  0  0  0  0
  -23.9962   -7.4587   22.7479 H   0  0  0  0  0  0
  -21.0769   -8.8645   19.8934 H   0  0  0  0  0  0
  -22.3599  -10.9561   19.6099 H   0  0  0  0  0  0
  -21.2037   -7.6111   23.9660 H   0  0  0  0  0  0
  -21.1516   -6.0500   25.9050 H   0  0  0  0  0  0
  -22.0605   -2.7573   23.2862 H   0  0  0  0  0  0
  -22.4028  -11.9656   22.4755 H   0  0  0  0  0  0
  -21.1074  -13.1137   22.2730 H   0  0  0  0  0  0
  -24.6224  -15.8058   20.7159 H   0  0  0  0  0  0
  -26.2556  -15.6416   20.3456 H   0  0  0  0  0  0
  -26.7108  -32.5612   23.1209 H   0  0  0  0  0  0
  -25.0061  -33.9820   25.0528 H   0  0  0  0  0  0
  -22.6771  -31.3184   21.4195 H   0  0  0  0  0  0
  -23.3735  -35.9662   23.3310 H   0  0  0  0  0  0
  -24.3594  -36.8909   22.2049 H   0  0  0  0  0  0
  -23.7242  -37.6549   23.6626 H   0  0  0  0  0  0
  -26.0088  -31.6262   20.5904 H   0  0  0  0  0  0
  -26.8015  -30.9198   21.9724 H   0  0  0  0  0  0
  -28.0540  -29.1951   21.1870 H   0  0  0  0  0  0
  -26.0922  -26.0104   19.0146 H   0  0  0  0  0  0
  -23.9800  -27.3088   19.0283 H   0  0  0  0  0  0
  -23.7050  -30.6121   19.4045 H   0  0  0  0  0  0
  -22.7206  -29.2546   19.8662 H   0  0  0  0  0  0
  -25.1274  -36.2000   25.0852 H   0  0  0  0  0  0
  -20.9980  -28.3203   24.1439 H   0  0  0  0  0  0
  -20.5620  -26.2279   23.3608 H   0  0  0  0  0  0
  -21.6649  -26.7403   22.1250 H   0  0  0  0  0  0
  -19.6890  -25.6324   21.1198 H   0  0  0  0  0  0
  -19.6676  -27.3247   20.6748 H   0  0  0  0  0  0
  -17.4211  -26.6758   21.3978 H   0  0  0  0  0  0
  -18.0294  -26.0052   22.8966 H   0  0  0  0  0  0
  -19.7926  -30.7280   24.2291 H   0  0  0  0  0  0
  -17.4987  -31.6242   24.5168 H   0  0  0  0  0  0
  -15.5350  -30.2931   23.7632 H   0  0  0  0  0  0
  -15.8708  -28.0791   22.7009 H   0  0  0  0  0  0
  -24.5951  -30.7012   25.7782 H   0  0  0  0  0  0
  -24.8921  -32.2803   26.4960 H   0  0  0  0  0  0
  -25.8132  -30.8809   27.0199 H   0  0  0  0  0  0
  -26.2805  -29.6833   24.1166 H   0  0  0  0  0  0
  -27.4139  -29.7323   25.4488 H   0  0  0  0  0  0
  -27.8605  -30.4404   23.9128 H   0  0  0  0  0  0
  -27.2742  -33.3589   26.2102 H   0  0  0  0  0  0
  -28.3863  -32.6861   25.0278 H   0  0  0  0  0  0
  -28.0769  -31.8371   26.5338 H   0  0  0  0  0  0
  -28.2624  -38.0092   24.7508 H   0  0  0  0  0  0
  -28.1064  -36.2630   24.6314 H   0  0  0  0  0  0
  -27.2313  -37.1489   25.8881 H   0  0  0  0  0  0
  -20.9303  -29.8756   21.6968 H   0  0  0  0  0  0
  -26.0199  -38.2896   24.1359 H   0  0  0  0  0  0
  -28.1701  -21.8957   14.7453 H   0  0  0  0  0  0
  -27.5721  -22.3084   16.3522 H   0  0  0  0  0  0
  -27.3341  -20.6962   15.7142 H   0  0  0  0  0  0
  -26.3977  -17.8700   18.3565 H   0  0  0  0  0  0
  -26.7430  -16.2491   18.8624 H   0  0  0  0  0  0
  -27.7799  -17.0122   17.7461 H   0  0  0  0  0  0
  -27.4169  -18.8365   21.7001 H   0  0  0  0  0  0
  -26.4555  -17.4265   21.3288 H   0  0  0  0  0  0
  -26.2258  -18.9262   20.4345 H   0  0  0  0  0  0
  -31.1656  -18.0200   19.6666 H   0  0  0  0  0  0
  -32.3243  -16.7677   19.8381 H   0  0  0  0  0  0
  -31.4259  -17.3087   21.2459 H   0  0  0  0  0  0
  -29.2125  -15.4243   18.0582 H   0  0  0  0  0  0
  -30.9582  -15.4488   17.8947 H   0  0  0  0  0  0
  -30.0805  -16.9468   17.9065 H   0  0  0  0  0  0
  -29.0333  -23.6574   17.3764 H   0  0  0  0  0  0
  -30.4383  -24.6731   17.6250 H   0  0  0  0  0  0
  -28.8366  -25.1969   18.1265 H   0  0  0  0  0  0
  -27.7067  -22.7745   19.5642 H   0  0  0  0  0  0
  -27.7924  -24.3734   20.2609 H   0  0  0  0  0  0
  -28.4481  -23.0263   21.1376 H   0  0  0  0  0  0
  -30.9027  -20.1533   21.3401 H   0  0  0  0  0  0
  -29.5356  -19.1686   21.8185 H   0  0  0  0  0  0
  -29.3904  -20.9539   21.7963 H   0  0  0  0  0  0
  -31.2728  -22.4397   18.5205 H   0  0  0  0  0  0
  -31.0520  -22.1290   20.1982 H   0  0  0  0  0  0
  -29.8521  -20.3498   15.7351 H   0  0  0  0  0  0
  -30.0768  -21.9609   16.3541 H   0  0  0  0  0  0
  -31.5317  -26.5076   20.6783 H   0  0  0  0  0  0
  -30.7388  -26.4330   19.1525 H   0  0  0  0  0  0
  -30.4689  -24.3552   21.4144 H   0  0  0  0  0  0
  -31.6504  -24.3204   20.1652 H   0  0  0  0  0  0
  -29.1564  -16.9636   21.5378 H   0  0  0  0  0  0
  -28.2040  -15.8256   20.7482 H   0  0  0  0  0  0
  -29.7539  -27.9934   20.8225 H   0  0  0  0  0  0
  -29.2603  -26.6349   21.8418 H   0  0  0  0  0  0
  -28.1839  -18.8272   17.3318 H   0  0  0  0  0  0
  1 25  1  0  0  0
  1 30  2  0  0  0
  1 89  1  0  0  0
  2  3  1  0  0  0
  2 25  1  0  0  0
  2 93  1  0  0  0
  2 94  1  0  0  0
  3  4  1  0  0  0
  3 95  1  0  0  0
  3 96  1  0  0  0
  4  5  1  0  0  0
  4 97  1  0  0  0
  4 98  1  0  0  0
  5  6  1  0  0  0
  5 26  1  0  0  0
  5 99  1  0  0  0
  6 25  1  0  0  0
  6100  1  0  0  0
  6101  1  0  0  0
  7  8  2  0  0  0
  7 26  1  0  0  0
  7 29  1  0  0  0
  8  9  1  0  0  0
  8 22  1  0  0  0
  9 10  1  0  0  0
  9 27  2  0  0  0
 10 11  2  0  0  0
 10 15  1  0  0  0
 11 12  1  0  0  0
 11102  1  0  0  0
 12 13  2  0  0  0
 12103  1  0  0  0
 13 14  1  0  0  0
 13 31  1  0  0  0
 14 15  2  0  0  0
 14104  1  0  0  0
 15105  1  0  0  0
 16 17  2  0  0  0
 16 21  1  0  0  0
 16 31  1  0  0  0
 17 18  1  0  0  0
 17106  1  0  0  0
 18 19  2  0  0  0
 18107  1  0  0  0
 19 20  1  0  0  0
 19 24  1  0  0  0
 20 21  2  0  0  0
 20108  1  0  0  0
 21 23  1  0  0  0
 22 28  1  0  0  0
 22 32  2  0  0  0
 26 27  1  0  0  0
 28109  1  0  0  0
 28110  1  0  0  0
 29111  1  0  0  0
 29112  1  0  0  0
 33 34  1  0  0  0
 33 66  1  0  0  0
 33 70  2  0  0  0
 34 36  1  0  0  0
 34 59  1  0  0  0
 34113  1  0  0  0
 35 44  2  0  0  0
 35 45  1  0  0  0
 35 68  1  0  0  0
 36 56  1  0  0  0
 36114  1  0  0  0
 37 39  1  0  0  0
 37 47  1  0  0  0
 37 66  1  0  0  0
 37115  1  0  0  0
 38 43  2  0  0  0
 38 46  1  0  0  0
 38 47  1  0  0  0
 39 64  1  0  0  0
 39 67  2  0  0  0
 40 52  1  0  0  0
 40 53  2  0  0  0
 40 58  1  0  0  0
 41116  1  0  0  0
 41117  1  0  0  0
 41118  1  0  0  0
 41 48  1  0  0  0
 42 43  1  0  0  0
 42 66  1  0  0  0
 42119  1  0  0  0
 42120  1  0  0  0
 43 44  1  0  0  0
 44121  1  0  0  0
 45 46  2  0  0  0
 45122  1  0  0  0
 46123  1  0  0  0
 47124  1  0  0  0
 47125  1  0  0  0
 48 56  1  0  0  0
 48 65  1  0  0  0
 48126  1  0  0  0
 49 50  1  0  0  0
 49 53  1  0  0  0
 49 64  1  0  0  0
 49127  1  0  0  0
 50 51  1  0  0  0
 50128  1  0  0  0
 50129  1  0  0  0
 51 52  1  0  0  0
 51130  1  0  0  0
 51131  1  0  0  0
 52132  1  0  0  0
 52133  1  0  0  0
 53 54  1  0  0  0
 54 55  2  0  0  0
 54134  1  0  0  0
 55 57  1  0  0  0
 55135  1  0  0  0
 56 69  2  0  0  0
 57 58  2  0  0  0
 57136  1  0  0  0
 58137  1  0  0  0
 59 60  1  0  0  0
 59 61  1  0  0  0
 59 62  1  0  0  0
 60138  1  0  0  0
 60139  1  0  0  0
 60140  1  0  0  0
 61141  1  0  0  0
 61142  1  0  0  0
 61143  1  0  0  0
 62144  1  0  0  0
 62145  1  0  0  0
 62146  1  0  0  0
 63 65  1  0  0  0
 63147  1  0  0  0
 63148  1  0  0  0
 63149  1  0  0  0
 64150  1  0  0  0
 65151  1  0  0  0
 68 87  1  0  0  0
 71 72  2  0  0  0
 71 82  1  0  0  0
 71 91  1  0  0  0
 72 83  1  0  0  0
 72 92  1  0  0  0
 73 88  1  0  0  0
 73 91  1  0  0  0
 73 92  2  0  0  0
 74 83  1  0  0  0
 74152  1  0  0  0
 74153  1  0  0  0
 74154  1  0  0  0
 75155  1  0  0  0
 75156  1  0  0  0
 75157  1  0  0  0
 75 88  1  0  0  0
 76 88  1  0  0  0
 76158  1  0  0  0
 76159  1  0  0  0
 76160  1  0  0  0
 77161  1  0  0  0
 77162  1  0  0  0
 77163  1  0  0  0
 77 89  1  0  0  0
 78 89  1  0  0  0
 78164  1  0  0  0
 78165  1  0  0  0
 78166  1  0  0  0
 79167  1  0  0  0
 79168  1  0  0  0
 79169  1  0  0  0
 79 90  1  0  0  0
 80 90  1  0  0  0
 80170  1  0  0  0
 80171  1  0  0  0
 80172  1  0  0  0
 81 91  1  0  0  0
 81173  1  0  0  0
 81174  1  0  0  0
 81175  1  0  0  0
 82 90  1  0  0  0
 82176  1  0  0  0
 82177  1  0  0  0
 83178  1  0  0  0
 83179  1  0  0  0
 84 85  1  0  0  0
 84 87  1  0  0  0
 84180  1  0  0  0
 84181  1  0  0  0
 85 90  1  0  0  0
 85182  1  0  0  0
 85183  1  0  0  0
 86 88  1  0  0  0
 86 89  1  0  0  0
 86184  1  0  0  0
 86185  1  0  0  0
 87186  1  0  0  0
 87187  1  0  0  0
 92188  1  0  0  0
M  CHG  1  92   1
M  ISO  4   1 100  68 101  87 101  89 100
M  END
> <chiral flag>
0

> <version>
0

> <s_m_source_file>
/data/baiqing/PycharmProjects/Reinvent-master-3.2/result/LINK_invent/BTK/process_docking_weight1_custom_sum_contain_oxygen_bond_distance_aromatic_linkinvent_7_9_3/rearranged_h_0065.sdf

> <i_m_source_file_index>
39

> <r_mmod_Potential_Energy-OPLS-2005>
211.994003295898

> <r_mmod_Stretch_Energy-OPLS-2005>
63.7383079528809

> <r_mmod_Bend_Energy-OPLS-2005>
201.36360168457

> <r_mmod_Torsional_Energy-OPLS-2005>
285.246246337891

> <r_mmod_Improper_Torsional_Energy-OPLS-2005>
13.7576150894165

> <r_mmod_Van_der_Waal_Energy-OPLS-2005>
147.766616821289

> <r_mmod_Electrostatic_Energy-OPLS-2005>
-191.29866027832

> <r_mmod_Solvation_Energy-OPLS-2005>
-360.382904052734

> <b_mmod_Minimization_Converged-OPLS-2005>
0

> <r_mmod_RMS_Derivative-OPLS-2005>
6.94208812713623

$$$$
41
                    3D
 Structure written by MMmdl.
179187  0  0  1  0            999 V2000
  -30.7887  -14.4865   20.4923 C   0  0  0  0  0  0
  -30.3976  -12.2932   19.4540 C   0  0  0  0  0  0
  -29.4924  -12.4625   18.2196 C   0  0  0  0  0  0
  -28.0155  -12.3117   18.6275 C   0  0  0  0  0  0
  -27.6443  -13.1988   19.8438 C   0  0  2  0  0  0
  -28.6959  -13.1154   20.9788 C   0  0  0  0  0  0
  -25.2559  -13.8130   20.5659 C   0  0  0  0  0  0
  -24.1820  -13.0426   20.9208 C   0  0  0  0  0  0
  -24.6372  -11.6890   20.8769 C   0  0  0  0  0  0
  -23.9032  -10.4291   21.0424 C   0  0  0  0  0  0
  -24.3594   -9.4212   21.9197 C   0  0  0  0  0  0
  -23.6287   -8.2227   22.0741 C   0  0  0  0  0  0
  -22.4270   -8.0268   21.3541 C   0  0  0  0  0  0
  -21.9900   -9.0237   20.4634 C   0  0  0  0  0  0
  -22.7205  -10.2128   20.3062 C   0  0  0  0  0  0
  -21.6842   -6.0733   22.5282 C   0  0  0  0  0  0
  -21.4002   -6.5634   23.8219 C   0  0  0  0  0  0
  -21.3666   -5.6784   24.9179 C   0  0  0  0  0  0
  -21.6041   -4.3045   24.7222 C   0  0  0  0  0  0
  -21.8831   -3.8143   23.4341 C   0  0  0  0  0  0
  -21.9196   -4.6964   22.3403 C   0  0  0  0  0  0
  -22.7840  -13.5238   21.1852 C   0  0  0  0  0  0
  -22.1666   -4.2154   21.0976 F   0  0  0  0  0  0
  -21.5639   -3.4529   25.7736 F   0  0  0  0  0  0
  -30.0300  -13.3541   20.4117 N   0  0  0  0  0  0
  -26.2951  -12.9268   20.3263 N   0  0  0  0  0  0
  -25.9290  -11.6460   20.5782 N   0  0  0  0  0  0
  -22.0467  -12.8252   22.0412 N   0  0  0  0  0  0
  -25.4299  -15.1833   20.4017 N   0  0  0  0  0  0
  -31.9601  -14.4761   20.0976 O   0  0  0  0  0  0
  -21.6640   -6.8869   21.4237 O   0  0  0  0  0  0
  -22.3544  -14.5554   20.6693 O   0  0  0  0  0  0
  -24.6123  -31.8690   23.2135 C   0  0  0  0  0  0
  -25.9021  -32.4831   23.8422 C   0  0  1  0  0  0
  -27.2304  -27.4576   20.0806 C   0  0  0  0  0  0
  -25.5890  -33.8640   24.2359 N   0  0  0  0  0  0
  -23.4000  -30.4944   21.5523 C   0  0  2  0  0  0
  -24.8492  -28.9710   20.1068 C   0  0  0  0  0  0
  -22.7408  -29.4654   22.4982 C   0  0  0  0  0  0
  -18.0278  -28.1381   22.8488 C   0  0  0  0  0  0
  -24.1492  -36.7318   23.2642 C   0  0  0  0  0  0
  -25.9299  -30.8414   21.3659 C   0  0  0  0  0  0
  -26.0088  -29.4819   20.7036 C   0  0  0  0  0  0
  -27.2077  -28.7308   20.6910 C   0  0  0  0  0  0
  -26.0595  -26.9650   19.4653 C   0  0  0  0  0  0
  -24.8675  -27.7118   19.4841 C   0  0  0  0  0  0
  -23.6081  -29.8330   20.1634 C   0  0  0  0  0  0
  -25.4104  -36.3123   24.0357 C   0  0  1  0  0  0
  -20.5865  -28.3656   23.1321 C   0  0  2  0  0  0
  -20.6761  -26.9384   22.5423 C   0  0  0  0  0  0
  -19.5747  -26.6381   21.5218 C   0  0  0  0  0  0
  -18.1928  -26.7927   22.1624 C   0  0  0  0  0  0
  -19.1520  -28.8828   23.2914 C   0  0  0  0  0  0
  -18.9449  -30.1433   23.8935 C   0  0  0  0  0  0
  -17.6453  -30.6584   24.0558 C   0  0  0  0  0  0
  -25.9025  -34.9481   23.5148 C   0  0  0  0  0  0
  -16.5346  -29.9087   23.6316 C   0  0  0  0  0  0
  -16.7265  -28.6500   23.0346 C   0  0  0  0  0  0
  -26.4457  -31.6582   25.0727 C   0  0  0  0  0  0
  -25.3734  -31.3699   26.1477 C   0  0  0  0  0  0
  -27.0266  -30.3035   24.6060 C   0  0  0  0  0  0
  -27.6035  -32.4285   25.7487 C   0  0  0  0  0  0
  -27.5593  -37.1806   24.8463 C   0  0  0  0  0  0
  -21.4135  -29.3044   22.3732 N   0  0  0  0  0  0
  -26.4300  -37.3796   23.9417 N   0  0  0  0  0  0
  -24.6646  -31.0815   22.1024 N   0  0  0  0  0  0
  -23.4187  -28.8173   23.2993 O   0  0  0  0  0  0
  -28.3542  -26.6656   20.1193 O   0  0  0  0  0  0
  -26.5587  -34.8919   22.4707 O   0  0  0  0  0  0
  -23.5318  -32.1429   23.7542 O   0  0  0  0  0  0
  -31.5815  -18.1828   23.3786 C   0  0  0  0  0  0
  -31.3320  -19.5156   23.6029 C   0  0  0  0  0  0
  -30.0078  -19.6987   23.0300 C   0  0  0  0  0  0
  -33.7348  -19.8025   24.3771 C   0  0  0  0  0  0
  -31.8902  -20.6268   25.7997 C   0  0  0  0  0  0
  -32.5050  -21.7995   23.6329 C   0  0  0  0  0  0
  -27.6123  -20.4272   22.5430 C   0  0  0  0  0  0
  -28.8755  -21.5914   24.2923 C   0  0  0  0  0  0
  -28.9472  -16.3250   20.1805 C   0  0  0  0  0  0
  -28.8342  -23.3218   21.9201 C   0  0  0  0  0  0
  -29.1085  -24.3624   20.8119 C   0  0  0  0  0  0
  -29.4913  -21.9206   21.7990 C   0  0  0  0  0  0
  -30.3182  -16.2066   22.3785 C   0  0  0  0  0  0
  -28.1827  -25.5766   21.0352 C   0  0  0  0  0  0
  -32.3237  -20.4401   24.3323 C   0  0  0  0  0  0
  -29.0450  -20.9112   22.9154 C   0  0  0  0  0  0
  -30.2726  -15.9213   20.8496 C   0  0  1  0  0  0
  -29.5576  -18.5403   22.5378 N   0  0  0  0  0  0
  -30.5077  -17.6135   22.7514 N   0  0  0  0  0  0
  -31.2032  -16.8002   20.2167 O   0  0  0  0  0  0
  -31.4466  -12.3197   19.1530 H   0  0  0  0  0  0
  -30.2508  -11.3102   19.9055 H   0  0  0  0  0  0
  -29.7470  -11.7196   17.4631 H   0  0  0  0  0  0
  -29.6611  -13.4398   17.7641 H   0  0  0  0  0  0
  -27.8414  -11.2607   18.8635 H   0  0  0  0  0  0
  -27.3677  -12.5449   17.7815 H   0  0  0  0  0  0
  -27.6303  -14.2060   19.4483 H   0  0  0  0  0  0
  -28.6710  -12.1305   21.4456 H   0  0  0  0  0  0
  -28.4684  -13.8306   21.7707 H   0  0  0  0  0  0
  -25.2740   -9.5701   22.4767 H   0  0  0  0  0  0
  -24.0015   -7.4621   22.7450 H   0  0  0  0  0  0
  -21.0834   -8.8730   19.8936 H   0  0  0  0  0  0
  -22.3650  -10.9662   19.6169 H   0  0  0  0  0  0
  -21.1976   -7.6141   23.9718 H   0  0  0  0  0  0
  -21.1483   -6.0514   25.9084 H   0  0  0  0  0  0
  -22.0608   -2.7601   23.2840 H   0  0  0  0  0  0
  -22.4035  -11.9924   22.4855 H   0  0  0  0  0  0
  -21.1062  -13.1290   22.2554 H   0  0  0  0  0  0
  -24.6697  -15.8458   20.5152 H   0  0  0  0  0  0
  -26.2861  -15.6144   20.0769 H   0  0  0  0  0  0
  -26.7094  -32.5554   23.1194 H   0  0  0  0  0  0
  -25.0058  -33.9816   25.0502 H   0  0  0  0  0  0
  -22.6888  -31.3116   21.4165 H   0  0  0  0  0  0
  -23.3766  -35.9638   23.3308 H   0  0  0  0  0  0
  -24.3603  -36.8915   22.2057 H   0  0  0  0  0  0
  -23.7227  -37.6518   23.6633 H   0  0  0  0  0  0
  -26.0466  -31.6136   20.6050 H   0  0  0  0  0  0
  -26.8167  -30.8892   21.9856 H   0  0  0  0  0  0
  -28.0994  -29.1145   21.1676 H   0  0  0  0  0  0
  -26.0696  -25.9961   18.9870 H   0  0  0  0  0  0
  -23.9774  -27.3154   19.0156 H   0  0  0  0  0  0
  -23.7127  -30.6126   19.4080 H   0  0  0  0  0  0
  -22.7330  -29.2518   19.8648 H   0  0  0  0  0  0
  -25.1285  -36.2004   25.0857 H   0  0  0  0  0  0
  -20.9962  -28.3202   24.1438 H   0  0  0  0  0  0
  -20.5655  -26.2258   23.3612 H   0  0  0  0  0  0
  -21.6630  -26.7421   22.1216 H   0  0  0  0  0  0
  -19.6897  -25.6298   21.1236 H   0  0  0  0  0  0
  -19.6690  -27.3199   20.6759 H   0  0  0  0  0  0
  -17.4194  -26.6688   21.4027 H   0  0  0  0  0  0
  -18.0312  -26.0069   22.9016 H   0  0  0  0  0  0
  -19.7927  -30.7228   24.2333 H   0  0  0  0  0  0
  -17.5014  -31.6270   24.5147 H   0  0  0  0  0  0
  -15.5351  -30.3007   23.7619 H   0  0  0  0  0  0
  -15.8670  -28.0831   22.7055 H   0  0  0  0  0  0
  -24.5920  -30.7047   25.7809 H   0  0  0  0  0  0
  -24.8936  -32.2869   26.4926 H   0  0  0  0  0  0
  -25.8093  -30.8876   27.0230 H   0  0  0  0  0  0
  -26.2806  -29.6850   24.1064 H   0  0  0  0  0  0
  -27.4057  -29.7212   25.4470 H   0  0  0  0  0  0
  -27.8633  -30.4408   23.9200 H   0  0  0  0  0  0
  -27.2694  -33.3578   26.2088 H   0  0  0  0  0  0
  -28.3822  -32.6831   25.0289 H   0  0  0  0  0  0
  -28.0703  -31.8392   26.5387 H   0  0  0  0  0  0
  -28.2595  -38.0118   24.7508 H   0  0  0  0  0  0
  -28.1104  -36.2639   24.6281 H   0  0  0  0  0  0
  -27.2310  -37.1446   25.8868 H   0  0  0  0  0  0
  -20.9281  -29.8796   21.6989 H   0  0  0  0  0  0
  -26.0203  -38.2886   24.1412 H   0  0  0  0  0  0
  -32.4412  -17.5770   23.6299 H   0  0  0  0  0  0
  -33.7531  -18.8802   24.9600 H   0  0  0  0  0  0
  -34.4598  -20.4692   24.8460 H   0  0  0  0  0  0
  -34.1098  -19.5749   23.3777 H   0  0  0  0  0  0
  -31.9038  -19.6794   26.3395 H   0  0  0  0  0  0
  -30.8883  -21.0268   25.9068 H   0  0  0  0  0  0
  -32.5600  -21.3077   26.3264 H   0  0  0  0  0  0
  -32.7841  -21.6698   22.5865 H   0  0  0  0  0  0
  -33.3016  -22.3777   24.1049 H   0  0  0  0  0  0
  -31.6218  -22.4279   23.6745 H   0  0  0  0  0  0
  -27.2360  -19.7030   23.2672 H   0  0  0  0  0  0
  -27.5872  -19.9494   21.5622 H   0  0  0  0  0  0
  -26.8868  -21.2376   22.5104 H   0  0  0  0  0  0
  -28.7283  -20.8506   25.0791 H   0  0  0  0  0  0
  -28.0046  -22.2476   24.3165 H   0  0  0  0  0  0
  -29.7193  -22.2162   24.5623 H   0  0  0  0  0  0
  -28.8297  -17.4081   20.1367 H   0  0  0  0  0  0
  -28.0970  -15.9547   20.7456 H   0  0  0  0  0  0
  -28.8866  -15.9631   19.1528 H   0  0  0  0  0  0
  -27.7542  -23.1889   21.9826 H   0  0  0  0  0  0
  -29.1345  -23.7777   22.8645 H   0  0  0  0  0  0
  -28.9190  -23.9280   19.8294 H   0  0  0  0  0  0
  -30.1551  -24.6701   20.8268 H   0  0  0  0  0  0
  -30.5706  -22.0410   21.7986 H   0  0  0  0  0  0
  -29.2712  -21.4918   20.8208 H   0  0  0  0  0  0
  -31.1313  -15.6391   22.8336 H   0  0  0  0  0  0
  -29.4080  -15.8449   22.8572 H   0  0  0  0  0  0
  -28.3255  -25.9668   22.0434 H   0  0  0  0  0  0
  -27.1572  -25.2006   21.0065 H   0  0  0  0  0  0
  -31.9470  -16.2198   20.0365 H   0  0  0  0  0  0
  1 25  1  0  0  0
  1 30  2  0  0  0
  1 87  1  0  0  0
  2  3  1  0  0  0
  2 25  1  0  0  0
  2 91  1  0  0  0
  2 92  1  0  0  0
  3  4  1  0  0  0
  3 93  1  0  0  0
  3 94  1  0  0  0
  4  5  1  0  0  0
  4 95  1  0  0  0
  4 96  1  0  0  0
  5  6  1  0  0  0
  5 26  1  0  0  0
  5 97  1  0  0  0
  6 25  1  0  0  0
  6 98  1  0  0  0
  6 99  1  0  0  0
  7  8  2  0  0  0
  7 26  1  0  0  0
  7 29  1  0  0  0
  8  9  1  0  0  0
  8 22  1  0  0  0
  9 10  1  0  0  0
  9 27  2  0  0  0
 10 11  2  0  0  0
 10 15  1  0  0  0
 11 12  1  0  0  0
 11100  1  0  0  0
 12 13  2  0  0  0
 12101  1  0  0  0
 13 14  1  0  0  0
 13 31  1  0  0  0
 14 15  2  0  0  0
 14102  1  0  0  0
 15103  1  0  0  0
 16 17  2  0  0  0
 16 21  1  0  0  0
 16 31  1  0  0  0
 17 18  1  0  0  0
 17104  1  0  0  0
 18 19  2  0  0  0
 18105  1  0  0  0
 19 20  1  0  0  0
 19 24  1  0  0  0
 20 21  2  0  0  0
 20106  1  0  0  0
 21 23  1  0  0  0
 22 28  1  0  0  0
 22 32  2  0  0  0
 26 27  1  0  0  0
 28107  1  0  0  0
 28108  1  0  0  0
 29109  1  0  0  0
 29110  1  0  0  0
 33 34  1  0  0  0
 33 66  1  0  0  0
 33 70  2  0  0  0
 34 36  1  0  0  0
 34 59  1  0  0  0
 34111  1  0  0  0
 35 44  2  0  0  0
 35 45  1  0  0  0
 35 68  1  0  0  0
 36 56  1  0  0  0
 36112  1  0  0  0
 37 39  1  0  0  0
 37 47  1  0  0  0
 37 66  1  0  0  0
 37113  1  0  0  0
 38 43  2  0  0  0
 38 46  1  0  0  0
 38 47  1  0  0  0
 39 64  1  0  0  0
 39 67  2  0  0  0
 40 52  1  0  0  0
 40 53  2  0  0  0
 40 58  1  0  0  0
 41114  1  0  0  0
 41115  1  0  0  0
 41116  1  0  0  0
 41 48  1  0  0  0
 42 43  1  0  0  0
 42 66  1  0  0  0
 42117  1  0  0  0
 42118  1  0  0  0
 43 44  1  0  0  0
 44119  1  0  0  0
 45 46  2  0  0  0
 45120  1  0  0  0
 46121  1  0  0  0
 47122  1  0  0  0
 47123  1  0  0  0
 48 56  1  0  0  0
 48 65  1  0  0  0
 48124  1  0  0  0
 49 50  1  0  0  0
 49 53  1  0  0  0
 49 64  1  0  0  0
 49125  1  0  0  0
 50 51  1  0  0  0
 50126  1  0  0  0
 50127  1  0  0  0
 51 52  1  0  0  0
 51128  1  0  0  0
 51129  1  0  0  0
 52130  1  0  0  0
 52131  1  0  0  0
 53 54  1  0  0  0
 54 55  2  0  0  0
 54132  1  0  0  0
 55 57  1  0  0  0
 55133  1  0  0  0
 56 69  2  0  0  0
 57 58  2  0  0  0
 57134  1  0  0  0
 58135  1  0  0  0
 59 60  1  0  0  0
 59 61  1  0  0  0
 59 62  1  0  0  0
 60136  1  0  0  0
 60137  1  0  0  0
 60138  1  0  0  0
 61139  1  0  0  0
 61140  1  0  0  0
 61141  1  0  0  0
 62142  1  0  0  0
 62143  1  0  0  0
 62144  1  0  0  0
 63 65  1  0  0  0
 63145  1  0  0  0
 63146  1  0  0  0
 63147  1  0  0  0
 64148  1  0  0  0
 65149  1  0  0  0
 68 84  1  0  0  0
 71 72  2  0  0  0
 71 89  1  0  0  0
 71150  1  0  0  0
 72 73  1  0  0  0
 72 85  1  0  0  0
 73 86  1  0  0  0
 73 88  2  0  0  0
 74151  1  0  0  0
 74152  1  0  0  0
 74153  1  0  0  0
 74 85  1  0  0  0
 75 85  1  0  0  0
 75154  1  0  0  0
 75155  1  0  0  0
 75156  1  0  0  0
 76 85  1  0  0  0
 76157  1  0  0  0
 76158  1  0  0  0
 76159  1  0  0  0
 77160  1  0  0  0
 77161  1  0  0  0
 77162  1  0  0  0
 77 86  1  0  0  0
 78 86  1  0  0  0
 78163  1  0  0  0
 78164  1  0  0  0
 78165  1  0  0  0
 79166  1  0  0  0
 79167  1  0  0  0
 79168  1  0  0  0
 79 87  1  0  0  0
 80 81  1  0  0  0
 80 82  1  0  0  0
 80169  1  0  0  0
 80170  1  0  0  0
 81 84  1  0  0  0
 81171  1  0  0  0
 81172  1  0  0  0
 82 86  1  0  0  0
 82173  1  0  0  0
 82174  1  0  0  0
 83 87  1  0  0  0
 83 89  1  0  0  0
 83175  1  0  0  0
 83176  1  0  0  0
 84177  1  0  0  0
 84178  1  0  0  0
 87 90  1  0  0  0
 88 89  1  0  0  0
 90179  1  0  0  0
M  ISO  4   1 100  68 101  84 101  87 100
M  END
> <chiral flag>
0

> <version>
0

> <s_m_source_file>
/data/baiqing/PycharmProjects/Reinvent-master-3.2/result/LINK_invent/BTK/process_docking_weight1_custom_sum_contain_oxygen_bond_distance_aromatic_linkinvent_7_9_3/rearranged_h_0065.sdf

> <i_m_source_file_index>
40

> <r_mmod_Potential_Energy-OPLS-2005>
97.1230010986328

> <r_mmod_Stretch_Energy-OPLS-2005>
49.5393562316895

> <r_mmod_Bend_Energy-OPLS-2005>
145.257919311523

> <r_mmod_Torsional_Energy-OPLS-2005>
251.593368530273

> <r_mmod_Improper_Torsional_Energy-OPLS-2005>
4.15423727035522

> <r_mmod_Van_der_Waal_Energy-OPLS-2005>
162.417449951172

> <r_mmod_Electrostatic_Energy-OPLS-2005>
-352.225769042969

> <r_mmod_Solvation_Energy-OPLS-2005>
-191.537902832031

> <b_mmod_Minimization_Converged-OPLS-2005>
0

> <r_mmod_RMS_Derivative-OPLS-2005>
2.68124461174011

$$$$
42
                    3D
 Structure written by MMmdl.
163171  0  0  1  0            999 V2000
  -30.6328  -14.7033   20.5048 C   0  0  0  0  0  0
  -30.4358  -12.4316   19.4745 C   0  0  0  0  0  0
  -29.5149  -12.5217   18.2374 C   0  0  0  0  0  0
  -28.0365  -12.3572   18.6420 C   0  0  0  0  0  0
  -27.6529  -13.2260   19.8702 C   0  0  2  0  0  0
  -28.6967  -13.0876   20.9986 C   0  0  0  0  0  0
  -25.2546  -13.8172   20.5705 C   0  0  0  0  0  0
  -24.1812  -13.0409   20.9158 C   0  0  0  0  0  0
  -24.6400  -11.6890   20.8703 C   0  0  0  0  0  0
  -23.9068  -10.4272   21.0386 C   0  0  0  0  0  0
  -24.3619   -9.4196   21.9166 C   0  0  0  0  0  0
  -23.6300   -8.2233   22.0750 C   0  0  0  0  0  0
  -22.4281   -8.0262   21.3547 C   0  0  0  0  0  0
  -21.9908   -9.0226   20.4641 C   0  0  0  0  0  0
  -22.7232  -10.2113   20.3045 C   0  0  0  0  0  0
  -21.6847   -6.0727   22.5280 C   0  0  0  0  0  0
  -21.4008   -6.5637   23.8210 C   0  0  0  0  0  0
  -21.3654   -5.6799   24.9177 C   0  0  0  0  0  0
  -21.6042   -4.3060   24.7235 C   0  0  0  0  0  0
  -21.8816   -3.8140   23.4359 C   0  0  0  0  0  0
  -21.9201   -4.6956   22.3410 C   0  0  0  0  0  0
  -22.7845  -13.5197   21.1861 C   0  0  0  0  0  0
  -22.1672   -4.2135   21.0991 F   0  0  0  0  0  0
  -21.5637   -3.4543   25.7752 F   0  0  0  0  0  0
  -30.0014  -13.4748   20.4389 N   0  0  0  0  0  0
  -26.2995  -12.9373   20.3359 N   0  0  0  0  0  0
  -25.9345  -11.6507   20.5741 N   0  0  0  0  0  0
  -22.0516  -12.8151   22.0418 N   0  0  0  0  0  0
  -25.4252  -15.1886   20.4204 N   0  0  0  0  0  0
  -31.7877  -14.7788   20.0706 O   0  0  0  0  0  0
  -21.6642   -6.8859   21.4240 O   0  0  0  0  0  0
  -22.3511  -14.5516   20.6752 O   0  0  0  0  0  0
  -24.6305  -31.8582   23.1975 C   0  0  0  0  0  0
  -25.9129  -32.4767   23.8325 C   0  0  1  0  0  0
  -27.2135  -27.2663   20.1171 C   0  0  0  0  0  0
  -25.5920  -33.8572   24.2242 N   0  0  0  0  0  0
  -23.4264  -30.4835   21.5434 C   0  0  2  0  0  0
  -24.8735  -28.9384   20.1100 C   0  0  0  0  0  0
  -22.7500  -29.4628   22.4901 C   0  0  0  0  0  0
  -18.0297  -28.1396   22.8472 C   0  0  0  0  0  0
  -24.1495  -36.7324   23.2638 C   0  0  0  0  0  0
  -25.9769  -30.7735   21.3776 C   0  0  0  0  0  0
  -26.0514  -29.4007   20.7130 C   0  0  0  0  0  0
  -27.2274  -28.5800   20.7005 C   0  0  0  0  0  0
  -26.0068  -26.8796   19.4847 C   0  0  0  0  0  0
  -24.8577  -27.6855   19.4873 C   0  0  0  0  0  0
  -23.6420  -29.8199   20.1595 C   0  0  0  0  0  0
  -25.4113  -36.3063   24.0307 C   0  0  1  0  0  0
  -20.5909  -28.3720   23.1237 C   0  0  2  0  0  0
  -20.6798  -26.9436   22.5381 C   0  0  0  0  0  0
  -19.5762  -26.6375   21.5206 C   0  0  0  0  0  0
  -18.1943  -26.7934   22.1619 C   0  0  0  0  0  0
  -19.1550  -28.8876   23.2849 C   0  0  0  0  0  0
  -18.9467  -30.1479   23.8873 C   0  0  0  0  0  0
  -17.6466  -30.6596   24.0568 C   0  0  0  0  0  0
  -25.9043  -34.9436   23.5067 C   0  0  0  0  0  0
  -16.5355  -29.9084   23.6344 C   0  0  0  0  0  0
  -16.7286  -28.6505   23.0351 C   0  0  0  0  0  0
  -26.4463  -31.6598   25.0731 C   0  0  0  0  0  0
  -25.3619  -31.3786   26.1394 C   0  0  0  0  0  0
  -27.0325  -30.2997   24.6282 C   0  0  0  0  0  0
  -27.5993  -32.4384   25.7511 C   0  0  0  0  0  0
  -27.5589  -37.1800   24.8452 C   0  0  0  0  0  0
  -21.4209  -29.3074   22.3635 N   0  0  0  0  0  0
  -26.4314  -37.3728   23.9378 N   0  0  0  0  0  0
  -24.6974  -31.0551   22.0942 N   0  0  0  0  0  0
  -23.4191  -28.8157   23.3007 O   0  0  0  0  0  0
  -28.2934  -26.3490   20.1780 O   0  0  0  0  0  0
  -26.5612  -34.8904   22.4638 O   0  0  0  0  0  0
  -23.5455  -32.1421   23.7255 O   0  0  0  0  0  0
  -30.7317  -20.8455   20.2202 C   0  0  0  0  0  0
  -29.3187  -20.8932   20.3748 C   0  0  0  0  0  0
  -31.0709  -19.5157   20.0798 C   0  0  0  0  0  0
  -32.4233  -18.9447   19.7839 C   0  0  0  0  0  0
  -27.1488  -21.9652   19.6514 C   0  0  0  0  0  0
  -27.8910  -22.0650   22.0509 C   0  0  0  0  0  0
  -30.8610  -16.6187   22.1915 C   0  0  0  0  0  0
  -28.9776  -23.6432   20.3486 C   0  0  0  0  0  0
  -29.7428  -17.2448   19.9205 C   0  0  0  0  0  0
  -27.9559  -24.8824   20.1325 C   0  0  0  0  0  0
  -28.3679  -22.1460   20.5866 C   0  0  0  0  0  0
  -29.9969  -16.0953   21.0272 C   0  0  1  0  0  0
  -28.8614  -19.6073   20.3805 N   0  0  0  0  0  0
  -29.9229  -18.7346   20.1964 N   0  0  0  0  0  0
  -28.7997  -15.8764   21.5688 F   0  0  0  0  0  0
  -31.4766  -12.5451   19.1676 H   0  0  0  0  0  0
  -30.3744  -11.4392   19.9256 H   0  0  0  0  0  0
  -29.7899  -11.7618   17.5057 H   0  0  0  0  0  0
  -29.6512  -13.4858   17.7461 H   0  0  0  0  0  0
  -27.8744  -11.3020   18.8696 H   0  0  0  0  0  0
  -27.3854  -12.5908   17.7987 H   0  0  0  0  0  0
  -27.6687  -14.2634   19.5349 H   0  0  0  0  0  0
  -28.7300  -12.0574   21.3558 H   0  0  0  0  0  0
  -28.4215  -13.6687   21.8756 H   0  0  0  0  0  0
  -25.2769   -9.5677   22.4725 H   0  0  0  0  0  0
  -24.0009   -7.4628   22.7469 H   0  0  0  0  0  0
  -21.0845   -8.8739   19.8941 H   0  0  0  0  0  0
  -22.3682  -10.9651   19.6155 H   0  0  0  0  0  0
  -21.1989   -7.6146   23.9697 H   0  0  0  0  0  0
  -21.1484   -6.0544   25.9081 H   0  0  0  0  0  0
  -22.0603   -2.7599   23.2873 H   0  0  0  0  0  0
  -22.4183  -11.9825   22.4784 H   0  0  0  0  0  0
  -21.1131  -13.1136   22.2640 H   0  0  0  0  0  0
  -24.6691  -15.8491   20.5625 H   0  0  0  0  0  0
  -26.3105  -15.6353   20.2170 H   0  0  0  0  0  0
  -26.7205  -32.5417   23.1079 H   0  0  0  0  0  0
  -25.0070  -33.9739   25.0391 H   0  0  0  0  0  0
  -22.7206  -31.3044   21.4000 H   0  0  0  0  0  0
  -23.3725  -35.9696   23.3292 H   0  0  0  0  0  0
  -24.3559  -36.8974   22.2053 H   0  0  0  0  0  0
  -23.7292  -37.6539   23.6679 H   0  0  0  0  0  0
  -26.1203  -31.5375   20.6127 H   0  0  0  0  0  0
  -26.8485  -30.8131   22.0194 H   0  0  0  0  0  0
  -28.1308  -28.9315   21.1814 H   0  0  0  0  0  0
  -25.8981  -25.9270   18.9911 H   0  0  0  0  0  0
  -23.9559  -27.3244   19.0149 H   0  0  0  0  0  0
  -23.7557  -30.5944   19.4005 H   0  0  0  0  0  0
  -22.7606  -29.2475   19.8624 H   0  0  0  0  0  0
  -25.1287  -36.1915   25.0799 H   0  0  0  0  0  0
  -21.0016  -28.3340   24.1348 H   0  0  0  0  0  0
  -20.5728  -26.2346   23.3601 H   0  0  0  0  0  0
  -21.6665  -26.7484   22.1160 H   0  0  0  0  0  0
  -19.6915  -25.6269   21.1267 H   0  0  0  0  0  0
  -19.6701  -27.3168   20.6721 H   0  0  0  0  0  0
  -17.4215  -26.6689   21.4014 H   0  0  0  0  0  0
  -18.0350  -26.0085   22.9023 H   0  0  0  0  0  0
  -19.7943  -30.7307   24.2226 H   0  0  0  0  0  0
  -17.5009  -31.6272   24.5175 H   0  0  0  0  0  0
  -15.5349  -30.2957   23.7692 H   0  0  0  0  0  0
  -15.8687  -28.0815   22.7053 H   0  0  0  0  0  0
  -24.5782  -30.7175   25.7673 H   0  0  0  0  0  0
  -24.8817  -32.2987   26.4750 H   0  0  0  0  0  0
  -25.7834  -30.8961   27.0214 H   0  0  0  0  0  0
  -26.2943  -29.6712   24.1282 H   0  0  0  0  0  0
  -27.3930  -29.7309   25.4860 H   0  0  0  0  0  0
  -27.8835  -30.4233   23.9573 H   0  0  0  0  0  0
  -27.2557  -33.3690   26.2041 H   0  0  0  0  0  0
  -28.3788  -32.6943   25.0325 H   0  0  0  0  0  0
  -28.0648  -31.8550   26.5453 H   0  0  0  0  0  0
  -28.2567  -38.0137   24.7504 H   0  0  0  0  0  0
  -28.1113  -36.2646   24.6265 H   0  0  0  0  0  0
  -27.2294  -37.1459   25.8856 H   0  0  0  0  0  0
  -20.9382  -29.8839   21.6874 H   0  0  0  0  0  0
  -26.0192  -38.2811   24.1345 H   0  0  0  0  0  0
  -31.4124  -21.6853   20.1843 H   0  0  0  0  0  0
  -33.1632  -19.3252   20.4864 H   0  0  0  0  0  0
  -32.7469  -19.2264   18.7813 H   0  0  0  0  0  0
  -32.4405  -17.8574   19.8405 H   0  0  0  0  0  0
  -26.6567  -21.0024   19.7983 H   0  0  0  0  0  0
  -27.4486  -22.0193   18.6062 H   0  0  0  0  0  0
  -26.3798  -22.7184   19.8230 H   0  0  0  0  0  0
  -27.3681  -21.1271   22.2473 H   0  0  0  0  0  0
  -27.2208  -22.8802   22.3194 H   0  0  0  0  0  0
  -28.7403  -22.0984   22.7329 H   0  0  0  0  0  0
  -30.4151  -17.4949   22.6607 H   0  0  0  0  0  0
  -31.8623  -16.8930   21.8624 H   0  0  0  0  0  0
  -30.9732  -15.8620   22.9678 H   0  0  0  0  0  0
  -29.6486  -23.8834   21.1735 H   0  0  0  0  0  0
  -29.6160  -23.6032   19.4647 H   0  0  0  0  0  0
  -28.7252  -17.1182   19.5509 H   0  0  0  0  0  0
  -30.3581  -17.0130   19.0498 H   0  0  0  0  0  0
  -27.1338  -24.7367   20.8332 H   0  0  0  0  0  0
  -27.5441  -24.6929   19.1423 H   0  0  0  0  0  0
  1 25  1  0  0  0
  1 30  2  0  0  0
  1 82  1  0  0  0
  2  3  1  0  0  0
  2 25  1  0  0  0
  2 86  1  0  0  0
  2 87  1  0  0  0
  3  4  1  0  0  0
  3 88  1  0  0  0
  3 89  1  0  0  0
  4  5  1  0  0  0
  4 90  1  0  0  0
  4 91  1  0  0  0
  5  6  1  0  0  0
  5 26  1  0  0  0
  5 92  1  0  0  0
  6 25  1  0  0  0
  6 93  1  0  0  0
  6 94  1  0  0  0
  7  8  2  0  0  0
  7 26  1  0  0  0
  7 29  1  0  0  0
  8  9  1  0  0  0
  8 22  1  0  0  0
  9 10  1  0  0  0
  9 27  2  0  0  0
 10 11  2  0  0  0
 10 15  1  0  0  0
 11 12  1  0  0  0
 11 95  1  0  0  0
 12 13  2  0  0  0
 12 96  1  0  0  0
 13 14  1  0  0  0
 13 31  1  0  0  0
 14 15  2  0  0  0
 14 97  1  0  0  0
 15 98  1  0  0  0
 16 17  2  0  0  0
 16 21  1  0  0  0
 16 31  1  0  0  0
 17 18  1  0  0  0
 17 99  1  0  0  0
 18 19  2  0  0  0
 18100  1  0  0  0
 19 20  1  0  0  0
 19 24  1  0  0  0
 20 21  2  0  0  0
 20101  1  0  0  0
 21 23  1  0  0  0
 22 28  1  0  0  0
 22 32  2  0  0  0
 26 27  1  0  0  0
 28102  1  0  0  0
 28103  1  0  0  0
 29104  1  0  0  0
 29105  1  0  0  0
 33 34  1  0  0  0
 33 66  1  0  0  0
 33 70  2  0  0  0
 34 36  1  0  0  0
 34 59  1  0  0  0
 34106  1  0  0  0
 35 44  2  0  0  0
 35 45  1  0  0  0
 35 68  1  0  0  0
 36 56  1  0  0  0
 36107  1  0  0  0
 37 39  1  0  0  0
 37 47  1  0  0  0
 37 66  1  0  0  0
 37108  1  0  0  0
 38 43  2  0  0  0
 38 46  1  0  0  0
 38 47  1  0  0  0
 39 64  1  0  0  0
 39 67  2  0  0  0
 40 52  1  0  0  0
 40 53  2  0  0  0
 40 58  1  0  0  0
 41109  1  0  0  0
 41110  1  0  0  0
 41111  1  0  0  0
 41 48  1  0  0  0
 42 43  1  0  0  0
 42 66  1  0  0  0
 42112  1  0  0  0
 42113  1  0  0  0
 43 44  1  0  0  0
 44114  1  0  0  0
 45 46  2  0  0  0
 45115  1  0  0  0
 46116  1  0  0  0
 47117  1  0  0  0
 47118  1  0  0  0
 48 56  1  0  0  0
 48 65  1  0  0  0
 48119  1  0  0  0
 49 50  1  0  0  0
 49 53  1  0  0  0
 49 64  1  0  0  0
 49120  1  0  0  0
 50 51  1  0  0  0
 50121  1  0  0  0
 50122  1  0  0  0
 51 52  1  0  0  0
 51123  1  0  0  0
 51124  1  0  0  0
 52125  1  0  0  0
 52126  1  0  0  0
 53 54  1  0  0  0
 54 55  2  0  0  0
 54127  1  0  0  0
 55 57  1  0  0  0
 55128  1  0  0  0
 56 69  2  0  0  0
 57 58  2  0  0  0
 57129  1  0  0  0
 58130  1  0  0  0
 59 60  1  0  0  0
 59 61  1  0  0  0
 59 62  1  0  0  0
 60131  1  0  0  0
 60132  1  0  0  0
 60133  1  0  0  0
 61134  1  0  0  0
 61135  1  0  0  0
 61136  1  0  0  0
 62137  1  0  0  0
 62138  1  0  0  0
 62139  1  0  0  0
 63 65  1  0  0  0
 63140  1  0  0  0
 63141  1  0  0  0
 63142  1  0  0  0
 64143  1  0  0  0
 65144  1  0  0  0
 68 80  1  0  0  0
 71 72  1  0  0  0
 71 73  2  0  0  0
 71145  1  0  0  0
 72 81  1  0  0  0
 72 83  2  0  0  0
 73 74  1  0  0  0
 73 84  1  0  0  0
 74146  1  0  0  0
 74147  1  0  0  0
 74148  1  0  0  0
 75149  1  0  0  0
 75150  1  0  0  0
 75151  1  0  0  0
 75 81  1  0  0  0
 76 81  1  0  0  0
 76152  1  0  0  0
 76153  1  0  0  0
 76154  1  0  0  0
 77155  1  0  0  0
 77156  1  0  0  0
 77157  1  0  0  0
 77 82  1  0  0  0
 78 80  1  0  0  0
 78 81  1  0  0  0
 78158  1  0  0  0
 78159  1  0  0  0
 79 82  1  0  0  0
 79 84  1  0  0  0
 79160  1  0  0  0
 79161  1  0  0  0
 80162  1  0  0  0
 80163  1  0  0  0
 82 85  1  0  0  0
 83 84  1  0  0  0
M  ISO  4   1 100  68 101  80 101  82 100
M  END
> <chiral flag>
0

> <version>
0

> <s_m_source_file>
/data/baiqing/PycharmProjects/Reinvent-master-3.2/result/LINK_invent/BTK/process_docking_weight1_custom_sum_contain_oxygen_bond_distance_aromatic_linkinvent_7_9_3/rearranged_h_0065.sdf

> <i_m_source_file_index>
41

> <r_mmod_Potential_Energy-OPLS-2005>
154.404266357422

> <r_mmod_Stretch_Energy-OPLS-2005>
126.118118286133

> <r_mmod_Bend_Energy-OPLS-2005>
182.675476074219

> <r_mmod_Torsional_Energy-OPLS-2005>
194.049758911133

> <r_mmod_Improper_Torsional_Energy-OPLS-2005>
3.20792031288147

> <r_mmod_Van_der_Waal_Energy-OPLS-2005>
126.252456665039

> <r_mmod_Electrostatic_Energy-OPLS-2005>
-364.539794921875

> <r_mmod_Solvation_Energy-OPLS-2005>
-184.936462402344

> <b_mmod_Minimization_Converged-OPLS-2005>
0

> <r_mmod_RMS_Derivative-OPLS-2005>
3.28434276580811

$$$$
43
                    3D
 Structure written by MMmdl.
175183  0  0  1  0            999 V2000
  -30.6740  -14.7046   20.6327 C   0  0  0  0  0  0
  -30.4256  -12.4722   19.4864 C   0  0  0  0  0  0
  -29.5166  -12.5548   18.2388 C   0  0  0  0  0  0
  -28.0368  -12.3649   18.6283 C   0  0  0  0  0  0
  -27.6463  -13.2272   19.8544 C   0  0  2  0  0  0
  -28.6800  -13.0788   20.9892 C   0  0  0  0  0  0
  -25.2529  -13.8167   20.5650 C   0  0  0  0  0  0
  -24.1846  -13.0446   20.9183 C   0  0  0  0  0  0
  -24.6412  -11.6890   20.8728 C   0  0  0  0  0  0
  -23.9088  -10.4288   21.0388 C   0  0  0  0  0  0
  -24.3632   -9.4209   21.9186 C   0  0  0  0  0  0
  -23.6300   -8.2249   22.0747 C   0  0  0  0  0  0
  -22.4288   -8.0282   21.3556 C   0  0  0  0  0  0
  -21.9915   -9.0262   20.4653 C   0  0  0  0  0  0
  -22.7244  -10.2133   20.3043 C   0  0  0  0  0  0
  -21.6867   -6.0732   22.5265 C   0  0  0  0  0  0
  -21.4047   -6.5636   23.8209 C   0  0  0  0  0  0
  -21.3655   -5.6794   24.9156 C   0  0  0  0  0  0
  -21.6015   -4.3047   24.7216 C   0  0  0  0  0  0
  -21.8824   -3.8144   23.4348 C   0  0  0  0  0  0
  -21.9213   -4.6957   22.3396 C   0  0  0  0  0  0
  -22.7854  -13.5175   21.1906 C   0  0  0  0  0  0
  -22.1644   -4.2108   21.0979 F   0  0  0  0  0  0
  -21.5641   -3.4555   25.7753 F   0  0  0  0  0  0
  -29.9938  -13.5026   20.4772 N   0  0  0  0  0  0
  -26.2938  -12.9374   20.3196 N   0  0  0  0  0  0
  -25.9332  -11.6503   20.5643 N   0  0  0  0  0  0
  -22.0499  -12.8197   22.0448 N   0  0  0  0  0  0
  -25.4237  -15.1916   20.4037 N   0  0  0  0  0  0
  -31.7470  -14.7957   20.0199 O   0  0  0  0  0  0
  -21.6674   -6.8881   21.4228 O   0  0  0  0  0  0
  -22.3517  -14.5489   20.6724 O   0  0  0  0  0  0
  -24.6336  -31.8529   23.1906 C   0  0  0  0  0  0
  -25.9118  -32.4736   23.8327 C   0  0  1  0  0  0
  -27.2185  -27.2522   20.1587 C   0  0  0  0  0  0
  -25.5934  -33.8546   24.2251 N   0  0  0  0  0  0
  -23.4343  -30.4739   21.5300 C   0  0  2  0  0  0
  -24.8846  -28.9071   20.1285 C   0  0  0  0  0  0
  -22.7508  -29.4631   22.4853 C   0  0  0  0  0  0
  -18.0316  -28.1376   22.8466 C   0  0  0  0  0  0
  -24.1511  -36.7278   23.2640 C   0  0  0  0  0  0
  -25.9801  -30.7774   21.3627 C   0  0  0  0  0  0
  -26.0595  -29.3899   20.7218 C   0  0  0  0  0  0
  -27.2398  -28.5782   20.7148 C   0  0  0  0  0  0
  -26.0127  -26.8307   19.5670 C   0  0  0  0  0  0
  -24.8633  -27.6320   19.5464 C   0  0  0  0  0  0
  -23.6623  -29.7940   20.1562 C   0  0  0  0  0  0
  -25.4114  -36.3058   24.0348 C   0  0  1  0  0  0
  -20.5923  -28.3755   23.1211 C   0  0  2  0  0  0
  -20.6845  -26.9464   22.5367 C   0  0  0  0  0  0
  -19.5804  -26.6399   21.5209 C   0  0  0  0  0  0
  -18.1978  -26.7912   22.1627 C   0  0  0  0  0  0
  -19.1570  -28.8874   23.2860 C   0  0  0  0  0  0
  -18.9493  -30.1447   23.8916 C   0  0  0  0  0  0
  -17.6487  -30.6566   24.0576 C   0  0  0  0  0  0
  -25.9051  -34.9424   23.5090 C   0  0  0  0  0  0
  -16.5382  -29.9059   23.6307 C   0  0  0  0  0  0
  -16.7306  -28.6471   23.0351 C   0  0  0  0  0  0
  -26.4508  -31.6546   25.0714 C   0  0  0  0  0  0
  -25.3759  -31.3675   26.1468 C   0  0  0  0  0  0
  -27.0372  -30.2962   24.6181 C   0  0  0  0  0  0
  -27.6067  -32.4290   25.7476 C   0  0  0  0  0  0
  -27.5581  -37.1785   24.8466 C   0  0  0  0  0  0
  -21.4233  -29.3099   22.3593 N   0  0  0  0  0  0
  -26.4291  -37.3743   23.9404 N   0  0  0  0  0  0
  -24.7016  -31.0577   22.0819 N   0  0  0  0  0  0
  -23.4149  -28.8192   23.3025 O   0  0  0  0  0  0
  -28.3031  -26.3531   20.1575 O   0  0  0  0  0  0
  -26.5606  -34.8901   22.4660 O   0  0  0  0  0  0
  -23.5478  -32.1276   23.7204 O   0  0  0  0  0  0
  -29.0884  -18.6348   19.2977 C   0  0  0  0  0  0
  -29.7750  -17.3498   20.9008 C   0  0  0  0  0  0
  -29.4627  -18.6494   21.4018 C   0  0  0  0  0  0
  -26.7522  -20.6453   22.7794 C   0  0  0  0  0  0
  -31.6644  -16.3311   22.2506 C   0  0  0  0  0  0
  -29.3598  -15.6315   22.7431 C   0  0  0  0  0  0
  -27.4069  -23.6107   18.5444 C   0  0  0  0  0  0
  -29.8069  -23.9714   19.0117 C   0  0  0  0  0  0
  -27.1834  -20.6246   18.9400 C   0  0  0  0  0  0
  -26.6625  -20.6020   21.2504 C   0  0  0  0  0  0
  -28.6746  -22.1641   20.4646 C   0  0  0  0  0  0
  -28.0871  -24.9235   20.6039 C   0  0  0  0  0  0
  -30.3050  -15.9978   21.5766 C   0  0  0  0  0  0
  -29.7621  -19.2076   22.7754 C   0  0  0  0  0  0
  -28.4583  -23.6276   19.6847 C   0  0  0  0  0  0
  -27.9219  -20.7062   20.3031 C   0  0  1  0  0  0
  -29.5712  -17.4149   19.5282 N   0  0  0  0  0  0
  -28.7949  -19.4092   20.3709 N   0  0  0  0  0  0
  -31.0480  -19.0831   23.0783 F   0  0  0  0  0  0
  -29.5437  -20.5126   22.8647 F   0  0  0  0  0  0
  -29.0657  -18.6136   23.7410 F   0  0  0  0  0  0
  -31.4704  -12.5780   19.1867 H   0  0  0  0  0  0
  -30.3625  -11.4788   19.9309 H   0  0  0  0  0  0
  -29.8092  -11.8041   17.5029 H   0  0  0  0  0  0
  -29.6495  -13.5218   17.7558 H   0  0  0  0  0  0
  -27.8824  -11.3084   18.8615 H   0  0  0  0  0  0
  -27.3915  -12.5947   17.7788 H   0  0  0  0  0  0
  -27.6682  -14.2648   19.5209 H   0  0  0  0  0  0
  -28.7364  -12.0392   21.3098 H   0  0  0  0  0  0
  -28.3311  -13.5903   21.8724 H   0  0  0  0  0  0
  -25.2764   -9.5700   22.4769 H   0  0  0  0  0  0
  -24.0005   -7.4639   22.7456 H   0  0  0  0  0  0
  -21.0849   -8.8789   19.8960 H   0  0  0  0  0  0
  -22.3689  -10.9684   19.6158 H   0  0  0  0  0  0
  -21.2041   -7.6151   23.9691 H   0  0  0  0  0  0
  -21.1456   -6.0528   25.9061 H   0  0  0  0  0  0
  -22.0618   -2.7607   23.2860 H   0  0  0  0  0  0
  -22.4105  -11.9837   22.4837 H   0  0  0  0  0  0
  -21.1098  -13.1184   22.2647 H   0  0  0  0  0  0
  -24.6575  -15.8473   20.5100 H   0  0  0  0  0  0
  -26.2784  -15.6327   20.0875 H   0  0  0  0  0  0
  -26.7203  -32.5378   23.1117 H   0  0  0  0  0  0
  -25.0160  -33.9661   25.0449 H   0  0  0  0  0  0
  -22.7307  -31.2888   21.3580 H   0  0  0  0  0  0
  -23.3754  -35.9634   23.3295 H   0  0  0  0  0  0
  -24.3634  -36.8882   22.2055 H   0  0  0  0  0  0
  -23.7264  -37.6490   23.6656 H   0  0  0  0  0  0
  -26.1132  -31.5306   20.5842 H   0  0  0  0  0  0
  -26.8544  -30.8329   22.0024 H   0  0  0  0  0  0
  -28.1488  -28.9470   21.1779 H   0  0  0  0  0  0
  -25.9314  -25.8453   19.1375 H   0  0  0  0  0  0
  -23.9672  -27.2156   19.1158 H   0  0  0  0  0  0
  -23.8039  -30.5458   19.3768 H   0  0  0  0  0  0
  -22.7819  -29.2278   19.8546 H   0  0  0  0  0  0
  -25.1290  -36.1930   25.0843 H   0  0  0  0  0  0
  -21.0043  -28.3406   24.1335 H   0  0  0  0  0  0
  -20.5808  -26.2381   23.3622 H   0  0  0  0  0  0
  -21.6694  -26.7495   22.1116 H   0  0  0  0  0  0
  -19.6958  -25.6322   21.1234 H   0  0  0  0  0  0
  -19.6694  -27.3216   20.6744 H   0  0  0  0  0  0
  -17.4248  -26.6651   21.4018 H   0  0  0  0  0  0
  -18.0366  -26.0048   22.9013 H   0  0  0  0  0  0
  -19.7978  -30.7263   24.2271 H   0  0  0  0  0  0
  -17.5042  -31.6243   24.5199 H   0  0  0  0  0  0
  -15.5372  -30.2999   23.7622 H   0  0  0  0  0  0
  -15.8715  -28.0813   22.7031 H   0  0  0  0  0  0
  -24.5952  -30.6989   25.7822 H   0  0  0  0  0  0
  -24.8960  -32.2846   26.4904 H   0  0  0  0  0  0
  -25.8153  -30.8873   27.0213 H   0  0  0  0  0  0
  -26.2960  -29.6666   24.1244 H   0  0  0  0  0  0
  -27.4092  -29.7283   25.4706 H   0  0  0  0  0  0
  -27.8807  -30.4238   23.9389 H   0  0  0  0  0  0
  -27.2679  -33.3575   26.2075 H   0  0  0  0  0  0
  -28.3884  -32.6837   25.0308 H   0  0  0  0  0  0
  -28.0742  -31.8387   26.5375 H   0  0  0  0  0  0
  -28.2577  -38.0095   24.7499 H   0  0  0  0  0  0
  -28.1101  -36.2612   24.6322 H   0  0  0  0  0  0
  -27.2306  -37.1458   25.8873 H   0  0  0  0  0  0
  -20.9445  -29.8836   21.6811 H   0  0  0  0  0  0
  -26.0181  -38.2827   24.1377 H   0  0  0  0  0  0
  -28.8352  -18.8987   18.2799 H   0  0  0  0  0  0
  -27.3359  -21.4860   23.1591 H   0  0  0  0  0  0
  -27.1082  -19.7153   23.2039 H   0  0  0  0  0  0
  -25.7447  -20.7520   23.1800 H   0  0  0  0  0  0
  -31.5730  -16.8658   23.1909 H   0  0  0  0  0  0
  -32.2967  -16.9174   21.5783 H   0  0  0  0  0  0
  -32.2081  -15.4237   22.5257 H   0  0  0  0  0  0
  -29.4020  -16.3433   23.5588 H   0  0  0  0  0  0
  -29.6446  -14.6944   23.2138 H   0  0  0  0  0  0
  -28.3114  -15.6015   22.4421 H   0  0  0  0  0  0
  -27.6474  -22.9090   17.7572 H   0  0  0  0  0  0
  -27.3466  -24.5595   18.0144 H   0  0  0  0  0  0
  -26.4012  -23.4118   18.9193 H   0  0  0  0  0  0
  -30.1053  -23.2553   18.2450 H   0  0  0  0  0  0
  -30.6224  -24.0205   19.7329 H   0  0  0  0  0  0
  -29.7668  -24.9387   18.5108 H   0  0  0  0  0  0
  -27.8556  -20.8210   18.1099 H   0  0  0  0  0  0
  -26.3138  -21.2720   18.8537 H   0  0  0  0  0  0
  -26.7465  -19.6363   18.7817 H   0  0  0  0  0  0
  -25.9967  -21.4331   20.9972 H   0  0  0  0  0  0
  -26.0977  -19.6895   21.0222 H   0  0  0  0  0  0
  -28.6248  -22.4159   21.5163 H   0  0  0  0  0  0
  -29.7288  -21.8998   20.3862 H   0  0  0  0  0  0
  -28.6510  -24.8344   21.5324 H   0  0  0  0  0  0
  -27.0593  -24.7947   20.9404 H   0  0  0  0  0  0
  1 25  1  0  0  0
  1 30  2  0  0  0
  1 83  1  0  0  0
  2  3  1  0  0  0
  2 25  1  0  0  0
  2 92  1  0  0  0
  2 93  1  0  0  0
  3  4  1  0  0  0
  3 94  1  0  0  0
  3 95  1  0  0  0
  4  5  1  0  0  0
  4 96  1  0  0  0
  4 97  1  0  0  0
  5  6  1  0  0  0
  5 26  1  0  0  0
  5 98  1  0  0  0
  6 25  1  0  0  0
  6 99  1  0  0  0
  6100  1  0  0  0
  7  8  2  0  0  0
  7 26  1  0  0  0
  7 29  1  0  0  0
  8  9  1  0  0  0
  8 22  1  0  0  0
  9 10  1  0  0  0
  9 27  2  0  0  0
 10 11  2  0  0  0
 10 15  1  0  0  0
 11 12  1  0  0  0
 11101  1  0  0  0
 12 13  2  0  0  0
 12102  1  0  0  0
 13 14  1  0  0  0
 13 31  1  0  0  0
 14 15  2  0  0  0
 14103  1  0  0  0
 15104  1  0  0  0
 16 17  2  0  0  0
 16 21  1  0  0  0
 16 31  1  0  0  0
 17 18  1  0  0  0
 17105  1  0  0  0
 18 19  2  0  0  0
 18106  1  0  0  0
 19 20  1  0  0  0
 19 24  1  0  0  0
 20 21  2  0  0  0
 20107  1  0  0  0
 21 23  1  0  0  0
 22 28  1  0  0  0
 22 32  2  0  0  0
 26 27  1  0  0  0
 28108  1  0  0  0
 28109  1  0  0  0
 29110  1  0  0  0
 29111  1  0  0  0
 33 34  1  0  0  0
 33 66  1  0  0  0
 33 70  2  0  0  0
 34 36  1  0  0  0
 34 59  1  0  0  0
 34112  1  0  0  0
 35 44  2  0  0  0
 35 45  1  0  0  0
 35 68  1  0  0  0
 36 56  1  0  0  0
 36113  1  0  0  0
 37 39  1  0  0  0
 37 47  1  0  0  0
 37 66  1  0  0  0
 37114  1  0  0  0
 38 43  2  0  0  0
 38 46  1  0  0  0
 38 47  1  0  0  0
 39 64  1  0  0  0
 39 67  2  0  0  0
 40 52  1  0  0  0
 40 53  2  0  0  0
 40 58  1  0  0  0
 41115  1  0  0  0
 41116  1  0  0  0
 41117  1  0  0  0
 41 48  1  0  0  0
 42 43  1  0  0  0
 42 66  1  0  0  0
 42118  1  0  0  0
 42119  1  0  0  0
 43 44  1  0  0  0
 44120  1  0  0  0
 45 46  2  0  0  0
 45121  1  0  0  0
 46122  1  0  0  0
 47123  1  0  0  0
 47124  1  0  0  0
 48 56  1  0  0  0
 48 65  1  0  0  0
 48125  1  0  0  0
 49 50  1  0  0  0
 49 53  1  0  0  0
 49 64  1  0  0  0
 49126  1  0  0  0
 50 51  1  0  0  0
 50127  1  0  0  0
 50128  1  0  0  0
 51 52  1  0  0  0
 51129  1  0  0  0
 51130  1  0  0  0
 52131  1  0  0  0
 52132  1  0  0  0
 53 54  1  0  0  0
 54 55  2  0  0  0
 54133  1  0  0  0
 55 57  1  0  0  0
 55134  1  0  0  0
 56 69  2  0  0  0
 57 58  2  0  0  0
 57135  1  0  0  0
 58136  1  0  0  0
 59 60  1  0  0  0
 59 61  1  0  0  0
 59 62  1  0  0  0
 60137  1  0  0  0
 60138  1  0  0  0
 60139  1  0  0  0
 61140  1  0  0  0
 61141  1  0  0  0
 61142  1  0  0  0
 62143  1  0  0  0
 62144  1  0  0  0
 62145  1  0  0  0
 63 65  1  0  0  0
 63146  1  0  0  0
 63147  1  0  0  0
 63148  1  0  0  0
 64149  1  0  0  0
 65150  1  0  0  0
 68 82  1  0  0  0
 71 87  2  0  0  0
 71 88  1  0  0  0
 71151  1  0  0  0
 72 73  2  0  0  0
 72 83  1  0  0  0
 72 87  1  0  0  0
 73 84  1  0  0  0
 73 88  1  0  0  0
 74 80  1  0  0  0
 74152  1  0  0  0
 74153  1  0  0  0
 74154  1  0  0  0
 75155  1  0  0  0
 75156  1  0  0  0
 75157  1  0  0  0
 75 83  1  0  0  0
 76 83  1  0  0  0
 76158  1  0  0  0
 76159  1  0  0  0
 76160  1  0  0  0
 77161  1  0  0  0
 77162  1  0  0  0
 77163  1  0  0  0
 77 85  1  0  0  0
 78 85  1  0  0  0
 78164  1  0  0  0
 78165  1  0  0  0
 78166  1  0  0  0
 79167  1  0  0  0
 79168  1  0  0  0
 79169  1  0  0  0
 79 86  1  0  0  0
 80 86  1  0  0  0
 80170  1  0  0  0
 80171  1  0  0  0
 81 85  1  0  0  0
 81 86  1  0  0  0
 81172  1  0  0  0
 81173  1  0  0  0
 82 85  1  0  0  0
 82174  1  0  0  0
 82175  1  0  0  0
 84 89  1  0  0  0
 84 90  1  0  0  0
 84 91  1  0  0  0
 86 88  1  0  0  0
M  ISO  4   1 100  68 101  82 101  83 100
M  END
> <chiral flag>
0

> <version>
0

> <s_m_source_file>
/data/baiqing/PycharmProjects/Reinvent-master-3.2/result/LINK_invent/BTK/process_docking_weight1_custom_sum_contain_oxygen_bond_distance_aromatic_linkinvent_7_9_3/rearranged_h_0065.sdf

> <i_m_source_file_index>
42

> <r_mmod_Potential_Energy-OPLS-2005>
563.244567871094

> <r_mmod_Stretch_Energy-OPLS-2005>
186.956420898438

> <r_mmod_Bend_Energy-OPLS-2005>
290.578491210938

> <r_mmod_Torsional_Energy-OPLS-2005>
294.711791992188

> <r_mmod_Improper_Torsional_Energy-OPLS-2005>
2.19217443466187

> <r_mmod_Van_der_Waal_Energy-OPLS-2005>
163.623352050781

> <r_mmod_Electrostatic_Energy-OPLS-2005>
-268.982055664062

> <r_mmod_Solvation_Energy-OPLS-2005>
-180.514511108398

> <b_mmod_Minimization_Converged-OPLS-2005>
0

> <r_mmod_RMS_Derivative-OPLS-2005>
9.58265972137451

$$$$
45
                    3D
 Structure written by MMmdl.
165173  0  0  1  0            999 V2000
  -30.8525  -14.5025   20.4565 C   0  0  0  0  0  0
  -30.3467  -12.3184   19.4572 C   0  0  0  0  0  0
  -29.4670  -12.5013   18.2107 C   0  0  0  0  0  0
  -27.9920  -12.3723   18.6194 C   0  0  0  0  0  0
  -27.6306  -13.2621   19.8401 C   0  0  2  0  0  0
  -28.6832  -13.1974   20.9692 C   0  0  0  0  0  0
  -25.2419  -13.8300   20.5730 C   0  0  0  0  0  0
  -24.1753  -13.0448   20.9166 C   0  0  0  0  0  0
  -24.6413  -11.6950   20.8713 C   0  0  0  0  0  0
  -23.9105  -10.4303   21.0398 C   0  0  0  0  0  0
  -24.3632   -9.4221   21.9194 C   0  0  0  0  0  0
  -23.6296   -8.2250   22.0764 C   0  0  0  0  0  0
  -22.4288   -8.0293   21.3542 C   0  0  0  0  0  0
  -21.9937   -9.0257   20.4642 C   0  0  0  0  0  0
  -22.7268  -10.2136   20.3051 C   0  0  0  0  0  0
  -21.6863   -6.0741   22.5284 C   0  0  0  0  0  0
  -21.4025   -6.5636   23.8207 C   0  0  0  0  0  0
  -21.3667   -5.6794   24.9162 C   0  0  0  0  0  0
  -21.6032   -4.3050   24.7236 C   0  0  0  0  0  0
  -21.8808   -3.8143   23.4350 C   0  0  0  0  0  0
  -21.9191   -4.6964   22.3402 C   0  0  0  0  0  0
  -22.7779  -13.5195   21.1839 C   0  0  0  0  0  0
  -22.1656   -4.2149   21.0976 F   0  0  0  0  0  0
  -21.5632   -3.4528   25.7735 F   0  0  0  0  0  0
  -30.0062  -13.4243   20.3874 N   0  0  0  0  0  0
  -26.2897  -12.9568   20.3315 N   0  0  0  0  0  0
  -25.9355  -11.6676   20.5757 N   0  0  0  0  0  0
  -22.0406  -12.8203   22.0415 N   0  0  0  0  0  0
  -25.4046  -15.2018   20.4252 N   0  0  0  0  0  0
  -32.0360  -14.2746   20.2073 O   0  0  0  0  0  0
  -21.6639   -6.8901   21.4249 O   0  0  0  0  0  0
  -22.3436  -14.5476   20.6678 O   0  0  0  0  0  0
  -24.6183  -31.8645   23.2114 C   0  0  0  0  0  0
  -25.9063  -32.4800   23.8442 C   0  0  1  0  0  0
  -27.2068  -27.3825   20.1106 C   0  0  0  0  0  0
  -25.5897  -33.8609   24.2343 N   0  0  0  0  0  0
  -23.4118  -30.4929   21.5516 C   0  0  2  0  0  0
  -24.8600  -28.9783   20.0953 C   0  0  0  0  0  0
  -22.7461  -29.4646   22.4957 C   0  0  0  0  0  0
  -18.0288  -28.1354   22.8489 C   0  0  0  0  0  0
  -24.1478  -36.7306   23.2638 C   0  0  0  0  0  0
  -25.9502  -30.8191   21.3749 C   0  0  0  0  0  0
  -26.0253  -29.4557   20.7122 C   0  0  0  0  0  0
  -27.2079  -28.6672   20.7174 C   0  0  0  0  0  0
  -26.0418  -26.9753   19.4234 C   0  0  0  0  0  0
  -24.8718  -27.7458   19.4310 C   0  0  0  0  0  0
  -23.6225  -29.8426   20.1619 C   0  0  0  0  0  0
  -25.4094  -36.3113   24.0363 C   0  0  1  0  0  0
  -20.5889  -28.3683   23.1281 C   0  0  2  0  0  0
  -20.6805  -26.9413   22.5408 C   0  0  0  0  0  0
  -19.5785  -26.6365   21.5215 C   0  0  0  0  0  0
  -18.1961  -26.7890   22.1616 C   0  0  0  0  0  0
  -19.1541  -28.8840   23.2886 C   0  0  0  0  0  0
  -18.9457  -30.1429   23.8914 C   0  0  0  0  0  0
  -17.6455  -30.6582   24.0525 C   0  0  0  0  0  0
  -25.9021  -34.9467   23.5139 C   0  0  0  0  0  0
  -16.5362  -29.9088   23.6304 C   0  0  0  0  0  0
  -16.7278  -28.6470   23.0374 C   0  0  0  0  0  0
  -26.4503  -31.6578   25.0765 C   0  0  0  0  0  0
  -25.3745  -31.3685   26.1492 C   0  0  0  0  0  0
  -27.0328  -30.3013   24.6127 C   0  0  0  0  0  0
  -27.6043  -32.4321   25.7534 C   0  0  0  0  0  0
  -27.5579  -37.1809   24.8470 C   0  0  0  0  0  0
  -21.4186  -29.3079   22.3700 N   0  0  0  0  0  0
  -26.4288  -37.3797   23.9404 N   0  0  0  0  0  0
  -24.6775  -31.0759   22.1020 N   0  0  0  0  0  0
  -23.4230  -28.8135   23.2967 O   0  0  0  0  0  0
  -28.2526  -26.4750   20.2470 O   0  0  0  0  0  0
  -26.5591  -34.8941   22.4710 O   0  0  0  0  0  0
  -23.5371  -32.1389   23.7473 O   0  0  0  0  0  0
  -28.3449  -17.8036   22.5107 C   0  0  0  0  0  0
  -29.3778  -16.8295   20.9798 C   0  0  0  0  0  0
  -30.7703  -16.4425   18.9249 C   0  0  0  0  0  0
  -31.7894  -16.6969   21.2466 C   0  0  0  0  0  0
  -27.1019  -21.6714   22.6492 C   0  0  0  0  0  0
  -26.9002  -20.5116   20.4871 C   0  0  0  0  0  0
  -28.7437  -23.9777   21.0813 C   0  0  0  0  0  0
  -28.4853  -22.4961   20.5403 C   0  0  0  0  0  0
  -29.0101  -20.2350   21.8720 C   0  0  0  0  0  0
  -27.7843  -25.2163   20.8543 C   0  0  0  0  0  0
  -30.5995  -16.0764   20.4329 C   0  0  0  0  0  0
  -27.9047  -21.2540   21.3945 C   0  0  0  0  0  0
  -28.6792  -16.5588   22.1307 N   0  0  0  0  0  0
  -29.3339  -18.1287   20.6315 N   0  0  0  0  0  0
  -28.8011  -18.7681   21.6994 N   0  0  0  0  0  0
  -31.3948  -12.2715   19.1540 H   0  0  0  0  0  0
  -30.1435  -11.3540   19.9186 H   0  0  0  0  0  0
  -29.7106  -11.7585   17.4491 H   0  0  0  0  0  0
  -29.6538  -13.4724   17.7556 H   0  0  0  0  0  0
  -27.8097  -11.3225   18.8544 H   0  0  0  0  0  0
  -27.3424  -12.6158   17.7742 H   0  0  0  0  0  0
  -27.6286  -14.2905   19.4750 H   0  0  0  0  0  0
  -28.6566  -12.2177   21.4452 H   0  0  0  0  0  0
  -28.4689  -13.9251   21.7522 H   0  0  0  0  0  0
  -25.2782   -9.5674   22.4774 H   0  0  0  0  0  0
  -23.9978   -7.4655   22.7514 H   0  0  0  0  0  0
  -21.0863   -8.8775   19.8984 H   0  0  0  0  0  0
  -22.3730  -10.9650   19.6140 H   0  0  0  0  0  0
  -21.2026   -7.6140   23.9717 H   0  0  0  0  0  0
  -21.1507   -6.0513   25.9065 H   0  0  0  0  0  0
  -22.0591   -2.7610   23.2834 H   0  0  0  0  0  0
  -22.4022  -11.9882   22.4835 H   0  0  0  0  0  0
  -21.1016  -13.1246   22.2588 H   0  0  0  0  0  0
  -24.6407  -15.8533   20.5694 H   0  0  0  0  0  0
  -26.2858  -15.6639   20.2354 H   0  0  0  0  0  0
  -26.7143  -32.5516   23.1229 H   0  0  0  0  0  0
  -25.0085  -33.9769   25.0521 H   0  0  0  0  0  0
  -22.7039  -31.3111   21.4169 H   0  0  0  0  0  0
  -23.3745  -35.9634   23.3304 H   0  0  0  0  0  0
  -24.3562  -36.8913   22.2049 H   0  0  0  0  0  0
  -23.7257  -37.6528   23.6642 H   0  0  0  0  0  0
  -26.0798  -31.5864   20.6101 H   0  0  0  0  0  0
  -26.8291  -30.8598   22.0054 H   0  0  0  0  0  0
  -28.0917  -29.0137   21.2351 H   0  0  0  0  0  0
  -26.0086  -26.0378   18.8921 H   0  0  0  0  0  0
  -23.9919  -27.3813   18.9195 H   0  0  0  0  0  0
  -23.7313  -30.6235   19.4085 H   0  0  0  0  0  0
  -22.7495  -29.2661   19.8500 H   0  0  0  0  0  0
  -25.1278  -36.1985   25.0871 H   0  0  0  0  0  0
  -20.9990  -28.3243   24.1393 H   0  0  0  0  0  0
  -20.5713  -26.2294   23.3596 H   0  0  0  0  0  0
  -21.6670  -26.7459   22.1183 H   0  0  0  0  0  0
  -19.6951  -25.6287   21.1228 H   0  0  0  0  0  0
  -19.6692  -27.3191   20.6750 H   0  0  0  0  0  0
  -17.4221  -26.6634   21.4020 H   0  0  0  0  0  0
  -18.0357  -26.0041   22.9021 H   0  0  0  0  0  0
  -19.7944  -30.7212   24.2328 H   0  0  0  0  0  0
  -17.5031  -31.6259   24.5116 H   0  0  0  0  0  0
  -15.5373  -30.3004   23.7595 H   0  0  0  0  0  0
  -15.8660  -28.0767   22.7159 H   0  0  0  0  0  0
  -24.5917  -30.7045   25.7842 H   0  0  0  0  0  0
  -24.8943  -32.2842   26.4948 H   0  0  0  0  0  0
  -25.8083  -30.8859   27.0257 H   0  0  0  0  0  0
  -26.2872  -29.6783   24.1168 H   0  0  0  0  0  0
  -27.4111  -29.7255   25.4589 H   0  0  0  0  0  0
  -27.8729  -30.4361   23.9296 H   0  0  0  0  0  0
  -27.2622  -33.3606   26.2136 H   0  0  0  0  0  0
  -28.3840  -32.6906   25.0350 H   0  0  0  0  0  0
  -28.0721  -31.8428   26.5439 H   0  0  0  0  0  0
  -28.2616  -38.0084   24.7492 H   0  0  0  0  0  0
  -28.1061  -36.2619   24.6322 H   0  0  0  0  0  0
  -27.2278  -37.1508   25.8870 H   0  0  0  0  0  0
  -20.9345  -29.8885   21.6989 H   0  0  0  0  0  0
  -26.0176  -38.2887   24.1383 H   0  0  0  0  0  0
  -27.8601  -18.0198   23.4504 H   0  0  0  0  0  0
  -29.8612  -16.1992   18.3733 H   0  0  0  0  0  0
  -31.5877  -15.9145   18.4257 H   0  0  0  0  0  0
  -30.9711  -17.5013   18.7695 H   0  0  0  0  0  0
  -32.7757  -16.3943   20.8880 H   0  0  0  0  0  0
  -31.7974  -17.7891   21.2251 H   0  0  0  0  0  0
  -31.7243  -16.4020   22.2951 H   0  0  0  0  0  0
  -26.3051  -22.3741   22.4063 H   0  0  0  0  0  0
  -27.7420  -22.1357   23.4049 H   0  0  0  0  0  0
  -26.6293  -20.8076   23.1199 H   0  0  0  0  0  0
  -27.3859  -20.1121   19.5995 H   0  0  0  0  0  0
  -26.1011  -21.1731   20.1561 H   0  0  0  0  0  0
  -26.4270  -19.6770   21.0077 H   0  0  0  0  0  0
  -27.9106  -23.7333   21.7180 H   0  0  0  0  0  0
  -28.9569  -24.2051   20.0341 H   0  0  0  0  0  0
  -27.8188  -22.6092   19.6822 H   0  0  0  0  0  0
  -29.4169  -22.1682   20.0745 H   0  0  0  0  0  0
  -29.2309  -20.4021   22.9244 H   0  0  0  0  0  0
  -29.9567  -20.4718   21.3858 H   0  0  0  0  0  0
  -27.3457  -25.5356   21.8090 H   0  0  0  0  0  0
  -26.9428  -24.8143   20.2797 H   0  0  0  0  0  0
  1 25  1  0  0  0
  1 30  2  0  0  0
  1 81  1  0  0  0
  2  3  1  0  0  0
  2 25  1  0  0  0
  2 86  1  0  0  0
  2 87  1  0  0  0
  3  4  1  0  0  0
  3 88  1  0  0  0
  3 89  1  0  0  0
  4  5  1  0  0  0
  4 90  1  0  0  0
  4 91  1  0  0  0
  5  6  1  0  0  0
  5 26  1  0  0  0
  5 92  1  0  0  0
  6 25  1  0  0  0
  6 93  1  0  0  0
  6 94  1  0  0  0
  7  8  2  0  0  0
  7 26  1  0  0  0
  7 29  1  0  0  0
  8  9  1  0  0  0
  8 22  1  0  0  0
  9 10  1  0  0  0
  9 27  2  0  0  0
 10 11  2  0  0  0
 10 15  1  0  0  0
 11 12  1  0  0  0
 11 95  1  0  0  0
 12 13  2  0  0  0
 12 96  1  0  0  0
 13 14  1  0  0  0
 13 31  1  0  0  0
 14 15  2  0  0  0
 14 97  1  0  0  0
 15 98  1  0  0  0
 16 17  2  0  0  0
 16 21  1  0  0  0
 16 31  1  0  0  0
 17 18  1  0  0  0
 17 99  1  0  0  0
 18 19  2  0  0  0
 18100  1  0  0  0
 19 20  1  0  0  0
 19 24  1  0  0  0
 20 21  2  0  0  0
 20101  1  0  0  0
 21 23  1  0  0  0
 22 28  1  0  0  0
 22 32  2  0  0  0
 26 27  1  0  0  0
 28102  1  0  0  0
 28103  1  0  0  0
 29104  1  0  0  0
 29105  1  0  0  0
 33 34  1  0  0  0
 33 66  1  0  0  0
 33 70  2  0  0  0
 34 36  1  0  0  0
 34 59  1  0  0  0
 34106  1  0  0  0
 35 44  2  0  0  0
 35 45  1  0  0  0
 35 68  1  0  0  0
 36 56  1  0  0  0
 36107  1  0  0  0
 37 39  1  0  0  0
 37 47  1  0  0  0
 37 66  1  0  0  0
 37108  1  0  0  0
 38 43  2  0  0  0
 38 46  1  0  0  0
 38 47  1  0  0  0
 39 64  1  0  0  0
 39 67  2  0  0  0
 40 52  1  0  0  0
 40 53  2  0  0  0
 40 58  1  0  0  0
 41109  1  0  0  0
 41110  1  0  0  0
 41111  1  0  0  0
 41 48  1  0  0  0
 42 43  1  0  0  0
 42 66  1  0  0  0
 42112  1  0  0  0
 42113  1  0  0  0
 43 44  1  0  0  0
 44114  1  0  0  0
 45 46  2  0  0  0
 45115  1  0  0  0
 46116  1  0  0  0
 47117  1  0  0  0
 47118  1  0  0  0
 48 56  1  0  0  0
 48 65  1  0  0  0
 48119  1  0  0  0
 49 50  1  0  0  0
 49 53  1  0  0  0
 49 64  1  0  0  0
 49120  1  0  0  0
 50 51  1  0  0  0
 50121  1  0  0  0
 50122  1  0  0  0
 51 52  1  0  0  0
 51123  1  0  0  0
 51124  1  0  0  0
 52125  1  0  0  0
 52126  1  0  0  0
 53 54  1  0  0  0
 54 55  2  0  0  0
 54127  1  0  0  0
 55 57  1  0  0  0
 55128  1  0  0  0
 56 69  2  0  0  0
 57 58  2  0  0  0
 57129  1  0  0  0
 58130  1  0  0  0
 59 60  1  0  0  0
 59 61  1  0  0  0
 59 62  1  0  0  0
 60131  1  0  0  0
 60132  1  0  0  0
 60133  1  0  0  0
 61134  1  0  0  0
 61135  1  0  0  0
 61136  1  0  0  0
 62137  1  0  0  0
 62138  1  0  0  0
 62139  1  0  0  0
 63 65  1  0  0  0
 63140  1  0  0  0
 63141  1  0  0  0
 63142  1  0  0  0
 64143  1  0  0  0
 65144  1  0  0  0
 68 80  1  0  0  0
 71 83  2  0  0  0
 71 85  1  0  0  0
 71145  1  0  0  0
 72 81  1  0  0  0
 72 83  1  0  0  0
 72 84  2  0  0  0
 73146  1  0  0  0
 73147  1  0  0  0
 73148  1  0  0  0
 73 81  1  0  0  0
 74 81  1  0  0  0
 74149  1  0  0  0
 74150  1  0  0  0
 74151  1  0  0  0
 75152  1  0  0  0
 75153  1  0  0  0
 75154  1  0  0  0
 75 82  1  0  0  0
 76 82  1  0  0  0
 76155  1  0  0  0
 76156  1  0  0  0
 76157  1  0  0  0
 77 78  1  0  0  0
 77 80  1  0  0  0
 77158  1  0  0  0
 77159  1  0  0  0
 78 82  1  0  0  0
 78160  1  0  0  0
 78161  1  0  0  0
 79 82  1  0  0  0
 79 85  1  0  0  0
 79162  1  0  0  0
 79163  1  0  0  0
 80164  1  0  0  0
 80165  1  0  0  0
 84 85  1  0  0  0
M  ISO  4   1 100  68 101  80 101  81 100
M  END
> <chiral flag>
0

> <version>
0

> <s_m_source_file>
/data/baiqing/PycharmProjects/Reinvent-master-3.2/result/LINK_invent/BTK/process_docking_weight1_custom_sum_contain_oxygen_bond_distance_aromatic_linkinvent_7_9_3/rearranged_h_0065.sdf

> <i_m_source_file_index>
43

> <r_mmod_Potential_Energy-OPLS-2005>
623.752380371094

> <r_mmod_Stretch_Energy-OPLS-2005>
77.9194641113281

> <r_mmod_Bend_Energy-OPLS-2005>
467.290679931641

> <r_mmod_Torsional_Energy-OPLS-2005>
271.660552978516

> <r_mmod_Improper_Torsional_Energy-OPLS-2005>
16.3062152862549

> <r_mmod_Van_der_Waal_Energy-OPLS-2005>
181.222702026367

> <r_mmod_Electrostatic_Energy-OPLS-2005>
-278.471252441406

> <r_mmod_Solvation_Energy-OPLS-2005>
-183.894729614258

> <b_mmod_Minimization_Converged-OPLS-2005>
0

> <r_mmod_RMS_Derivative-OPLS-2005>
5.94586801528931

$$$$
46
                    3D
 Structure written by MMmdl.
171179  0  0  1  0            999 V2000
  -30.7117  -14.5402   20.6390 C   0  0  0  0  0  0
  -30.4349  -12.3992   19.4094 C   0  0  0  0  0  0
  -29.4863  -12.5294   18.1991 C   0  0  0  0  0  0
  -28.0176  -12.3629   18.6305 C   0  0  0  0  0  0
  -27.6616  -13.2075   19.8738 C   0  0  2  0  0  0
  -28.7004  -12.9723   20.9803 C   0  0  0  0  0  0
  -25.2636  -13.8168   20.5785 C   0  0  0  0  0  0
  -24.1872  -13.0493   20.9154 C   0  0  0  0  0  0
  -24.6380  -11.6912   20.8658 C   0  0  0  0  0  0
  -23.9110  -10.4274   21.0371 C   0  0  0  0  0  0
  -24.3610   -9.4220   21.9231 C   0  0  0  0  0  0
  -23.6295   -8.2256   22.0807 C   0  0  0  0  0  0
  -22.4312   -8.0259   21.3555 C   0  0  0  0  0  0
  -21.9943   -9.0259   20.4663 C   0  0  0  0  0  0
  -22.7279  -10.2127   20.3058 C   0  0  0  0  0  0
  -21.6891   -6.0667   22.5250 C   0  0  0  0  0  0
  -21.4138   -6.5598   23.8199 C   0  0  0  0  0  0
  -21.3789   -5.6767   24.9162 C   0  0  0  0  0  0
  -21.6062   -4.3018   24.7211 C   0  0  0  0  0  0
  -21.8769   -3.8090   23.4328 C   0  0  0  0  0  0
  -21.9170   -4.6886   22.3368 C   0  0  0  0  0  0
  -22.7890  -13.5307   21.1759 C   0  0  0  0  0  0
  -22.1614   -4.2042   21.0951 F   0  0  0  0  0  0
  -21.5622   -3.4531   25.7750 F   0  0  0  0  0  0
  -30.0195  -13.3684   20.4524 N   0  0  0  0  0  0
  -26.3027  -12.9346   20.3365 N   0  0  0  0  0  0
  -25.9300  -11.6489   20.5681 N   0  0  0  0  0  0
  -22.0575  -12.8334   22.0313 N   0  0  0  0  0  0
  -25.4542  -15.1903   20.4327 N   0  0  0  0  0  0
  -31.7960  -14.7050   20.0634 O   0  0  0  0  0  0
  -21.6714   -6.8836   21.4219 O   0  0  0  0  0  0
  -22.3613  -14.5673   20.6619 O   0  0  0  0  0  0
  -24.6213  -31.8657   23.2044 C   0  0  0  0  0  0
  -25.9061  -32.4867   23.8354 C   0  0  1  0  0  0
  -27.2212  -27.3827   20.1451 C   0  0  0  0  0  0
  -25.5885  -33.8661   24.2289 N   0  0  0  0  0  0
  -23.4125  -30.4886   21.5474 C   0  0  2  0  0  0
  -24.8563  -28.9642   20.0916 C   0  0  0  0  0  0
  -22.7488  -29.4603   22.4940 C   0  0  0  0  0  0
  -18.0278  -28.1468   22.8495 C   0  0  0  0  0  0
  -24.1433  -36.7379   23.2656 C   0  0  0  0  0  0
  -25.9361  -30.8380   21.3393 C   0  0  0  0  0  0
  -26.0140  -29.4591   20.7044 C   0  0  0  0  0  0
  -27.2017  -28.6819   20.7122 C   0  0  0  0  0  0
  -26.0481  -26.9213   19.5046 C   0  0  0  0  0  0
  -24.8769  -27.7064   19.4644 C   0  0  0  0  0  0
  -23.6179  -29.8346   20.1511 C   0  0  0  0  0  0
  -25.4056  -36.3154   24.0342 C   0  0  1  0  0  0
  -20.5891  -28.3703   23.1330 C   0  0  2  0  0  0
  -20.6785  -26.9428   22.5441 C   0  0  0  0  0  0
  -19.5749  -26.6414   21.5281 C   0  0  0  0  0  0
  -18.1915  -26.8003   22.1658 C   0  0  0  0  0  0
  -19.1542  -28.8902   23.2895 C   0  0  0  0  0  0
  -18.9482  -30.1536   23.8864 C   0  0  0  0  0  0
  -17.6482  -30.6622   24.0614 C   0  0  0  0  0  0
  -25.8992  -34.9528   23.5102 C   0  0  0  0  0  0
  -16.5361  -29.9153   23.6369 C   0  0  0  0  0  0
  -16.7270  -28.6620   23.0279 C   0  0  0  0  0  0
  -26.4374  -31.6728   25.0765 C   0  0  0  0  0  0
  -25.3607  -31.3942   26.1511 C   0  0  0  0  0  0
  -27.0225  -30.3200   24.6136 C   0  0  0  0  0  0
  -27.5893  -32.4474   25.7575 C   0  0  0  0  0  0
  -27.5543  -37.1827   24.8450 C   0  0  0  0  0  0
  -21.4197  -29.3054   22.3743 N   0  0  0  0  0  0
  -26.4243  -37.3861   23.9431 N   0  0  0  0  0  0
  -24.6782  -31.0759   22.0945 N   0  0  0  0  0  0
  -23.4230  -28.8136   23.2980 O   0  0  0  0  0  0
  -28.3654  -26.5965   20.2176 O   0  0  0  0  0  0
  -26.5567  -34.8990   22.4672 O   0  0  0  0  0  0
  -23.5389  -32.1343   23.7426 O   0  0  0  0  0  0
  -29.7614  -21.9686   20.1033 C   0  0  0  0  0  0
  -29.5112  -22.9223   21.0657 C   0  0  0  0  0  0
  -29.3769  -22.1291   22.2695 C   0  0  0  0  0  0
  -29.6692  -21.3555   24.6834 C   0  0  0  0  0  0
  -27.6574  -22.7017   24.0434 C   0  0  0  0  0  0
  -29.9535  -23.7408   24.1340 C   0  0  0  0  0  0
  -28.2387  -18.1372   21.2766 C   0  0  0  0  0  0
  -29.5944  -15.4138   22.6774 C   0  0  0  0  0  0
  -29.5508  -24.4484   20.8228 C   0  0  0  0  0  0
  -30.2852  -19.4160   20.1728 C   0  0  0  0  0  0
  -30.5834  -17.0044   21.1123 C   0  0  0  0  0  0
  -28.1964  -25.1877   20.5659 C   0  0  0  0  0  0
  -29.1534  -22.4891   23.7459 C   0  0  0  0  0  0
  -29.5643  -18.0379   20.4954 C   0  0  1  0  0  0
  -29.5020  -20.8340   21.9971 N   0  0  0  0  0  0
  -29.7744  -20.7063   20.6898 N   0  0  0  0  0  0
  -30.1297  -15.5894   21.3188 N   0  0  0  0  0  0
  -29.2062  -17.5409   19.3082 F   0  0  0  0  0  0
  -31.4577  -12.5517   19.0562 H   0  0  0  0  0  0
  -30.4118  -11.3834   19.8093 H   0  0  0  0  0  0
  -29.7366  -11.7625   17.4673 H   0  0  0  0  0  0
  -29.6316  -13.4871   17.6922 H   0  0  0  0  0  0
  -27.8793  -11.3096   18.8761 H   0  0  0  0  0  0
  -27.3435  -12.5929   17.8028 H   0  0  0  0  0  0
  -27.7220  -14.2598   19.5907 H   0  0  0  0  0  0
  -28.7519  -11.9157   21.2453 H   0  0  0  0  0  0
  -28.3614  -13.4571   21.8883 H   0  0  0  0  0  0
  -25.2673   -9.5712   22.4932 H   0  0  0  0  0  0
  -23.9948   -7.4654   22.7562 H   0  0  0  0  0  0
  -21.0874   -8.8822   19.8945 H   0  0  0  0  0  0
  -22.3752  -10.9715   19.6214 H   0  0  0  0  0  0
  -21.2285   -7.6136   23.9709 H   0  0  0  0  0  0
  -21.1737   -6.0511   25.9087 H   0  0  0  0  0  0
  -22.0446   -2.7522   23.2863 H   0  0  0  0  0  0
  -22.4153  -11.9992   22.4740 H   0  0  0  0  0  0
  -21.1272  -13.1475   22.2641 H   0  0  0  0  0  0
  -24.7460  -15.8776   20.6531 H   0  0  0  0  0  0
  -26.3316  -15.6053   20.1551 H   0  0  0  0  0  0
  -26.7174  -32.5514   23.1168 H   0  0  0  0  0  0
  -25.0107  -33.9840   25.0472 H   0  0  0  0  0  0
  -22.7016  -31.3051   21.4144 H   0  0  0  0  0  0
  -23.3714  -35.9709   23.3296 H   0  0  0  0  0  0
  -24.3528  -36.9013   22.2085 H   0  0  0  0  0  0
  -23.7151  -37.6568   23.6677 H   0  0  0  0  0  0
  -26.0019  -31.5862   20.5431 H   0  0  0  0  0  0
  -26.8481  -30.9309   21.9215 H   0  0  0  0  0  0
  -28.0917  -29.0663   21.1857 H   0  0  0  0  0  0
  -26.0263  -25.9529   19.0246 H   0  0  0  0  0  0
  -23.9988  -27.3408   18.9464 H   0  0  0  0  0  0
  -23.7138  -30.6215   19.3996 H   0  0  0  0  0  0
  -22.7369  -29.2622   19.8555 H   0  0  0  0  0  0
  -25.1203  -36.2024   25.0840 H   0  0  0  0  0  0
  -20.9960  -28.3274   24.1460 H   0  0  0  0  0  0
  -20.5820  -26.2282   23.3630 H   0  0  0  0  0  0
  -21.6622  -26.7532   22.1145 H   0  0  0  0  0  0
  -19.6895  -25.6341   21.1282 H   0  0  0  0  0  0
  -19.6705  -27.3269   20.6869 H   0  0  0  0  0  0
  -17.4195  -26.6805   21.4034 H   0  0  0  0  0  0
  -18.0210  -26.0187   22.9079 H   0  0  0  0  0  0
  -19.7946  -30.7410   24.2132 H   0  0  0  0  0  0
  -17.5018  -31.6262   24.5314 H   0  0  0  0  0  0
  -15.5361  -30.3036   23.7745 H   0  0  0  0  0  0
  -15.8666  -28.1012   22.6859 H   0  0  0  0  0  0
  -24.5718  -30.7314   25.7934 H   0  0  0  0  0  0
  -24.8867  -32.3187   26.4854 H   0  0  0  0  0  0
  -25.7907  -30.9221   27.0349 H   0  0  0  0  0  0
  -26.2824  -29.7017   24.1081 H   0  0  0  0  0  0
  -27.3934  -29.7361   25.4567 H   0  0  0  0  0  0
  -27.8596  -30.4589   23.9300 H   0  0  0  0  0  0
  -27.2435  -33.3775   26.2083 H   0  0  0  0  0  0
  -28.3755  -32.7058   25.0486 H   0  0  0  0  0  0
  -28.0483  -31.8679   26.5582 H   0  0  0  0  0  0
  -28.2523  -38.0150   24.7534 H   0  0  0  0  0  0
  -28.1006  -36.2686   24.6148 H   0  0  0  0  0  0
  -27.2261  -37.1363   25.8841 H   0  0  0  0  0  0
  -20.9384  -29.8789   21.6973 H   0  0  0  0  0  0
  -26.0104  -38.2900   24.1554 H   0  0  0  0  0  0
  -30.0167  -22.1198   19.0610 H   0  0  0  0  0  0
  -29.1676  -20.4027   24.5009 H   0  0  0  0  0  0
  -29.4979  -21.5660   25.7399 H   0  0  0  0  0  0
  -30.7420  -21.2033   24.5598 H   0  0  0  0  0  0
  -27.0704  -21.8117   23.8193 H   0  0  0  0  0  0
  -27.2359  -23.5317   23.4747 H   0  0  0  0  0  0
  -27.5141  -22.9272   25.1002 H   0  0  0  0  0  0
  -30.9877  -23.6419   23.8100 H   0  0  0  0  0  0
  -29.9813  -23.8755   25.2161 H   0  0  0  0  0  0
  -29.5403  -24.6513   23.7049 H   0  0  0  0  0  0
  -28.3785  -18.5570   22.2724 H   0  0  0  0  0  0
  -27.7549  -17.1721   21.4079 H   0  0  0  0  0  0
  -27.5271  -18.7618   20.7360 H   0  0  0  0  0  0
  -29.9893  -16.0867   23.4446 H   0  0  0  0  0  0
  -29.8234  -14.4270   23.0650 H   0  0  0  0  0  0
  -28.5117  -15.5273   22.6381 H   0  0  0  0  0  0
  -30.1479  -24.6260   19.9291 H   0  0  0  0  0  0
  -30.1216  -24.9642   21.5962 H   0  0  0  0  0  0
  -30.4159  -19.5169   19.0959 H   0  0  0  0  0  0
  -31.3019  -19.3543   20.5610 H   0  0  0  0  0  0
  -30.9676  -17.3966   22.0562 H   0  0  0  0  0  0
  -31.4667  -17.0175   20.4754 H   0  0  0  0  0  0
  -27.6701  -24.6768   19.7592 H   0  0  0  0  0  0
  -27.5697  -25.0946   21.4529 H   0  0  0  0  0  0
  1 25  1  0  0  0
  1 30  2  0  0  0
  1 87  1  0  0  0
  2  3  1  0  0  0
  2 25  1  0  0  0
  2 89  1  0  0  0
  2 90  1  0  0  0
  3  4  1  0  0  0
  3 91  1  0  0  0
  3 92  1  0  0  0
  4  5  1  0  0  0
  4 93  1  0  0  0
  4 94  1  0  0  0
  5  6  1  0  0  0
  5 26  1  0  0  0
  5 95  1  0  0  0
  6 25  1  0  0  0
  6 96  1  0  0  0
  6 97  1  0  0  0
  7  8  2  0  0  0
  7 26  1  0  0  0
  7 29  1  0  0  0
  8  9  1  0  0  0
  8 22  1  0  0  0
  9 10  1  0  0  0
  9 27  2  0  0  0
 10 11  2  0  0  0
 10 15  1  0  0  0
 11 12  1  0  0  0
 11 98  1  0  0  0
 12 13  2  0  0  0
 12 99  1  0  0  0
 13 14  1  0  0  0
 13 31  1  0  0  0
 14 15  2  0  0  0
 14100  1  0  0  0
 15101  1  0  0  0
 16 17  2  0  0  0
 16 21  1  0  0  0
 16 31  1  0  0  0
 17 18  1  0  0  0
 17102  1  0  0  0
 18 19  2  0  0  0
 18103  1  0  0  0
 19 20  1  0  0  0
 19 24  1  0  0  0
 20 21  2  0  0  0
 20104  1  0  0  0
 21 23  1  0  0  0
 22 28  1  0  0  0
 22 32  2  0  0  0
 26 27  1  0  0  0
 28105  1  0  0  0
 28106  1  0  0  0
 29107  1  0  0  0
 29108  1  0  0  0
 33 34  1  0  0  0
 33 66  1  0  0  0
 33 70  2  0  0  0
 34 36  1  0  0  0
 34 59  1  0  0  0
 34109  1  0  0  0
 35 44  2  0  0  0
 35 45  1  0  0  0
 35 68  1  0  0  0
 36 56  1  0  0  0
 36110  1  0  0  0
 37 39  1  0  0  0
 37 47  1  0  0  0
 37 66  1  0  0  0
 37111  1  0  0  0
 38 43  2  0  0  0
 38 46  1  0  0  0
 38 47  1  0  0  0
 39 64  1  0  0  0
 39 67  2  0  0  0
 40 52  1  0  0  0
 40 53  2  0  0  0
 40 58  1  0  0  0
 41112  1  0  0  0
 41113  1  0  0  0
 41114  1  0  0  0
 41 48  1  0  0  0
 42 43  1  0  0  0
 42 66  1  0  0  0
 42115  1  0  0  0
 42116  1  0  0  0
 43 44  1  0  0  0
 44117  1  0  0  0
 45 46  2  0  0  0
 45118  1  0  0  0
 46119  1  0  0  0
 47120  1  0  0  0
 47121  1  0  0  0
 48 56  1  0  0  0
 48 65  1  0  0  0
 48122  1  0  0  0
 49 50  1  0  0  0
 49 53  1  0  0  0
 49 64  1  0  0  0
 49123  1  0  0  0
 50 51  1  0  0  0
 50124  1  0  0  0
 50125  1  0  0  0
 51 52  1  0  0  0
 51126  1  0  0  0
 51127  1  0  0  0
 52128  1  0  0  0
 52129  1  0  0  0
 53 54  1  0  0  0
 54 55  2  0  0  0
 54130  1  0  0  0
 55 57  1  0  0  0
 55131  1  0  0  0
 56 69  2  0  0  0
 57 58  2  0  0  0
 57132  1  0  0  0
 58133  1  0  0  0
 59 60  1  0  0  0
 59 61  1  0  0  0
 59 62  1  0  0  0
 60134  1  0  0  0
 60135  1  0  0  0
 60136  1  0  0  0
 61137  1  0  0  0
 61138  1  0  0  0
 61139  1  0  0  0
 62140  1  0  0  0
 62141  1  0  0  0
 62142  1  0  0  0
 63 65  1  0  0  0
 63143  1  0  0  0
 63144  1  0  0  0
 63145  1  0  0  0
 64146  1  0  0  0
 65147  1  0  0  0
 68 82  1  0  0  0
 71 72  2  0  0  0
 71 86  1  0  0  0
 71148  1  0  0  0
 72 73  1  0  0  0
 72 79  1  0  0  0
 73 83  1  0  0  0
 73 85  2  0  0  0
 74149  1  0  0  0
 74150  1  0  0  0
 74151  1  0  0  0
 74 83  1  0  0  0
 75 83  1  0  0  0
 75152  1  0  0  0
 75153  1  0  0  0
 75154  1  0  0  0
 76 83  1  0  0  0
 76155  1  0  0  0
 76156  1  0  0  0
 76157  1  0  0  0
 77158  1  0  0  0
 77159  1  0  0  0
 77160  1  0  0  0
 77 84  1  0  0  0
 78 87  1  0  0  0
 78161  1  0  0  0
 78162  1  0  0  0
 78163  1  0  0  0
 79 82  1  0  0  0
 79164  1  0  0  0
 79165  1  0  0  0
 80 84  1  0  0  0
 80 86  1  0  0  0
 80166  1  0  0  0
 80167  1  0  0  0
 81 84  1  0  0  0
 81 87  1  0  0  0
 81168  1  0  0  0
 81169  1  0  0  0
 82170  1  0  0  0
 82171  1  0  0  0
 84 88  1  0  0  0
 85 86  1  0  0  0
M  ISO  4   1 100  68 101  82 101  87 100
M  END
> <chiral flag>
0

> <version>
0

> <s_m_source_file>
/data/baiqing/PycharmProjects/Reinvent-master-3.2/result/LINK_invent/BTK/process_docking_weight1_custom_sum_contain_oxygen_bond_distance_aromatic_linkinvent_7_9_3/rearranged_h_0065.sdf

> <i_m_source_file_index>
44

> <r_mmod_Potential_Energy-OPLS-2005>
120.361083984375

> <r_mmod_Stretch_Energy-OPLS-2005>
64.1012191772461

> <r_mmod_Bend_Energy-OPLS-2005>
155.82893371582

> <r_mmod_Torsional_Energy-OPLS-2005>
290.4248046875

> <r_mmod_Improper_Torsional_Energy-OPLS-2005>
7.94146347045898

> <r_mmod_Van_der_Waal_Energy-OPLS-2005>
145.93586730957

> <r_mmod_Electrostatic_Energy-OPLS-2005>
-380.998992919922

> <r_mmod_Solvation_Energy-OPLS-2005>
-188.709655761719

> <b_mmod_Minimization_Converged-OPLS-2005>
0

> <r_mmod_RMS_Derivative-OPLS-2005>
9.87769985198975

$$$$
47
                    3D
 Structure written by MMmdl.
183191  0  0  1  0            999 V2000
  -30.6231  -14.5902   20.6021 C   0  0  0  0  0  0
  -30.4801  -12.3924   19.4299 C   0  0  0  0  0  0
  -29.5443  -12.5295   18.2048 C   0  0  0  0  0  0
  -28.0536  -12.3489   18.5749 C   0  0  0  0  0  0
  -27.6665  -13.1704   19.8284 C   0  0  2  0  0  0
  -28.7082  -12.8990   20.9327 C   0  0  0  0  0  0
  -25.2610  -13.8104   20.5293 C   0  0  0  0  0  0
  -24.1833  -13.0437   20.8976 C   0  0  0  0  0  0
  -24.6393  -11.6932   20.8550 C   0  0  0  0  0  0
  -23.9048  -10.4351   21.0320 C   0  0  0  0  0  0
  -24.3648   -9.4329   21.9118 C   0  0  0  0  0  0
  -23.6304   -8.2399   22.0795 C   0  0  0  0  0  0
  -22.4270   -8.0396   21.3630 C   0  0  0  0  0  0
  -21.9874   -9.0347   20.4745 C   0  0  0  0  0  0
  -22.7204  -10.2195   20.3026 C   0  0  0  0  0  0
  -21.6887   -6.0804   22.5285 C   0  0  0  0  0  0
  -21.3983   -6.5687   23.8209 C   0  0  0  0  0  0
  -21.3566   -5.6833   24.9158 C   0  0  0  0  0  0
  -21.6031   -4.3106   24.7188 C   0  0  0  0  0  0
  -21.8870   -3.8215   23.4305 C   0  0  0  0  0  0
  -21.9241   -4.7041   22.3380 C   0  0  0  0  0  0
  -22.7889  -13.5331   21.1683 C   0  0  0  0  0  0
  -22.1717   -4.2240   21.0947 F   0  0  0  0  0  0
  -21.5578   -3.4583   25.7695 F   0  0  0  0  0  0
  -30.0210  -13.3557   20.4580 N   0  0  0  0  0  0
  -26.3040  -12.9185   20.2996 N   0  0  0  0  0  0
  -25.9298  -11.6407   20.5475 N   0  0  0  0  0  0
  -22.0550  -12.8357   22.0297 N   0  0  0  0  0  0
  -25.4128  -15.1776   20.3442 N   0  0  0  0  0  0
  -31.7853  -14.7257   20.2087 O   0  0  0  0  0  0
  -21.6666   -6.8967   21.4276 O   0  0  0  0  0  0
  -22.3578  -14.5615   20.6528 O   0  0  0  0  0  0
  -24.6134  -31.8708   23.2058 C   0  0  0  0  0  0
  -25.9026  -32.4835   23.8366 C   0  0  1  0  0  0
  -27.2620  -27.4658   20.1063 C   0  0  0  0  0  0
  -25.5881  -33.8636   24.2302 N   0  0  0  0  0  0
  -23.4036  -30.4836   21.5462 C   0  0  2  0  0  0
  -24.8604  -28.9474   20.1163 C   0  0  0  0  0  0
  -22.7420  -29.4649   22.5011 C   0  0  0  0  0  0
  -18.0313  -28.1410   22.8521 C   0  0  0  0  0  0
  -24.1471  -36.7305   23.2612 C   0  0  0  0  0  0
  -25.9250  -30.8438   21.3572 C   0  0  0  0  0  0
  -26.0095  -29.4733   20.7198 C   0  0  0  0  0  0
  -27.2135  -28.7355   20.7221 C   0  0  0  0  0  0
  -26.1026  -26.9493   19.4926 C   0  0  0  0  0  0
  -24.9002  -27.6813   19.5008 C   0  0  0  0  0  0
  -23.6150  -29.8004   20.1644 C   0  0  0  0  0  0
  -25.4088  -36.3113   24.0328 C   0  0  1  0  0  0
  -20.5889  -28.3670   23.1351 C   0  0  2  0  0  0
  -20.6783  -26.9407   22.5433 C   0  0  0  0  0  0
  -19.5743  -26.6416   21.5247 C   0  0  0  0  0  0
  -18.1926  -26.7977   22.1646 C   0  0  0  0  0  0
  -19.1554  -28.8868   23.2936 C   0  0  0  0  0  0
  -18.9456  -30.1504   23.8904 C   0  0  0  0  0  0
  -17.6431  -30.6594   24.0580 C   0  0  0  0  0  0
  -25.9055  -34.9494   23.5118 C   0  0  0  0  0  0
  -16.5340  -29.9070   23.6353 C   0  0  0  0  0  0
  -16.7302  -28.6519   23.0345 C   0  0  0  0  0  0
  -26.4469  -31.6622   25.0701 C   0  0  0  0  0  0
  -25.3723  -31.3729   26.1433 C   0  0  0  0  0  0
  -27.0279  -30.3054   24.6082 C   0  0  0  0  0  0
  -27.6064  -32.4347   25.7439 C   0  0  0  0  0  0
  -27.5641  -37.1702   24.8391 C   0  0  0  0  0  0
  -21.4153  -29.3007   22.3730 N   0  0  0  0  0  0
  -26.4246  -37.3842   23.9515 N   0  0  0  0  0  0
  -24.6650  -31.0814   22.0950 N   0  0  0  0  0  0
  -23.4210  -28.8239   23.3086 O   0  0  0  0  0  0
  -28.4229  -26.7305   20.0718 O   0  0  0  0  0  0
  -26.5640  -34.8949   22.4698 O   0  0  0  0  0  0
  -23.5333  -32.1433   23.7451 O   0  0  0  0  0  0
  -30.9179  -18.4703   23.2442 C   0  0  0  0  0  0
  -30.7065  -16.9210   21.8414 C   0  0  0  0  0  0
  -31.8135  -19.2282   19.3509 C   0  0  0  0  0  0
  -29.3597  -16.6572   19.7287 C   0  0  0  0  0  0
  -28.5347  -15.7556   21.8297 C   0  0  0  0  0  0
  -27.6469  -21.7681   21.5226 C   0  0  0  0  0  0
  -30.1026  -21.8344   21.7749 C   0  0  0  0  0  0
  -29.8344  -24.3631   23.5709 C   0  0  0  0  0  0
  -27.3441  -24.2545   23.2657 C   0  0  0  0  0  0
  -30.3744  -19.4970   24.1998 C   0  0  0  0  0  0
  -28.9335  -19.9504   23.8260 C   0  0  0  0  0  0
  -28.6604  -21.4812   23.8272 C   0  0  0  0  0  0
  -28.8011  -24.6319   21.2681 C   0  0  0  0  0  0
  -32.3582  -18.0090   20.1299 C   0  0  0  0  0  0
  -28.8253  -26.1859   21.3323 C   0  0  0  0  0  0
  -29.8445  -15.9306   21.0138 C   0  0  0  0  0  0
  -28.7820  -22.2584   22.4573 C   0  0  0  0  0  0
  -28.7041  -23.8513   22.6344 C   0  0  0  0  0  0
  -30.3712  -17.2353   23.1059 N   0  0  0  0  0  0
  -31.8229  -18.7683   22.3247 N   0  0  0  0  0  0
  -31.6525  -17.7939   21.3897 N   0  0  0  0  0  0
  -31.5074  -12.5862   19.1232 H   0  0  0  0  0  0
  -30.4932  -11.3634   19.7980 H   0  0  0  0  0  0
  -29.8415  -11.8214   17.4300 H   0  0  0  0  0  0
  -29.6915  -13.5156   17.7701 H   0  0  0  0  0  0
  -27.8898  -11.2856   18.7506 H   0  0  0  0  0  0
  -27.4183  -12.6327   17.7338 H   0  0  0  0  0  0
  -27.7108  -14.2012   19.4969 H   0  0  0  0  0  0
  -28.7510  -11.8189   21.0718 H   0  0  0  0  0  0
  -28.4162  -13.2514   21.9156 H   0  0  0  0  0  0
  -25.2858   -9.5823   22.4569 H   0  0  0  0  0  0
  -24.0067   -7.4858   22.7530 H   0  0  0  0  0  0
  -21.0804   -8.8852   19.9107 H   0  0  0  0  0  0
  -22.3692  -10.9691   19.6053 H   0  0  0  0  0  0
  -21.1940   -7.6197   23.9712 H   0  0  0  0  0  0
  -21.1248   -6.0547   25.9050 H   0  0  0  0  0  0
  -22.0694   -2.7698   23.2756 H   0  0  0  0  0  0
  -22.4172  -11.9952   22.4506 H   0  0  0  0  0  0
  -21.1227  -13.1469   22.2610 H   0  0  0  0  0  0
  -24.6159  -15.8058   20.3448 H   0  0  0  0  0  0
  -26.2634  -15.6234   20.0267 H   0  0  0  0  0  0
  -26.7116  -32.5586   23.1165 H   0  0  0  0  0  0
  -24.9961  -33.9814   25.0391 H   0  0  0  0  0  0
  -22.6891  -31.2962   21.3957 H   0  0  0  0  0  0
  -23.3820  -35.9534   23.3062 H   0  0  0  0  0  0
  -24.3614  -36.9150   22.2071 H   0  0  0  0  0  0
  -23.7073  -37.6376   23.6771 H   0  0  0  0  0  0
  -26.0308  -31.6027   20.5801 H   0  0  0  0  0  0
  -26.8149  -30.9103   21.9712 H   0  0  0  0  0  0
  -28.1009  -29.1415   21.1904 H   0  0  0  0  0  0
  -26.1398  -25.9770   19.0194 H   0  0  0  0  0  0
  -24.0208  -27.2672   19.0311 H   0  0  0  0  0  0
  -23.7062  -30.5646   19.3910 H   0  0  0  0  0  0
  -22.7431  -29.2033   19.8868 H   0  0  0  0  0  0
  -25.1223  -36.1917   25.0802 H   0  0  0  0  0  0
  -21.0040  -28.3232   24.1450 H   0  0  0  0  0  0
  -20.5750  -26.2247   23.3615 H   0  0  0  0  0  0
  -21.6639  -26.7459   22.1164 H   0  0  0  0  0  0
  -19.6859  -25.6344   21.1241 H   0  0  0  0  0  0
  -19.6677  -27.3265   20.6813 H   0  0  0  0  0  0
  -17.4205  -26.6840   21.4024 H   0  0  0  0  0  0
  -18.0227  -26.0124   22.9027 H   0  0  0  0  0  0
  -19.7901  -30.7399   24.2211 H   0  0  0  0  0  0
  -17.4938  -31.6263   24.5191 H   0  0  0  0  0  0
  -15.5325  -30.2926   23.7684 H   0  0  0  0  0  0
  -15.8736  -28.0846   22.6981 H   0  0  0  0  0  0
  -24.5893  -30.7099   25.7723 H   0  0  0  0  0  0
  -24.8918  -32.2882   26.4899 H   0  0  0  0  0  0
  -25.8053  -30.8856   27.0169 H   0  0  0  0  0  0
  -26.2784  -29.6796   24.1219 H   0  0  0  0  0  0
  -27.4095  -29.7345   25.4549 H   0  0  0  0  0  0
  -27.8601  -30.4344   23.9160 H   0  0  0  0  0  0
  -27.2727  -33.3680   26.1992 H   0  0  0  0  0  0
  -28.3874  -32.6863   25.0246 H   0  0  0  0  0  0
  -28.0729  -31.8479   26.5368 H   0  0  0  0  0  0
  -28.2369  -38.0274   24.7937 H   0  0  0  0  0  0
  -28.1429  -36.2881   24.5590 H   0  0  0  0  0  0
  -27.2468  -37.0560   25.8773 H   0  0  0  0  0  0
  -20.9336  -29.8619   21.6843 H   0  0  0  0  0  0
  -26.0106  -38.2840   24.1820 H   0  0  0  0  0  0
  -32.4257  -19.4236   18.4701 H   0  0  0  0  0  0
  -31.8235  -20.1387   19.9525 H   0  0  0  0  0  0
  -30.7850  -19.0853   19.0222 H   0  0  0  0  0  0
  -28.6363  -16.0967   19.1450 H   0  0  0  0  0  0
  -30.1680  -16.8891   19.0443 H   0  0  0  0  0  0
  -28.8571  -17.5913   19.9891 H   0  0  0  0  0  0
  -28.0964  -16.7311   22.0511 H   0  0  0  0  0  0
  -28.6733  -15.2529   22.7875 H   0  0  0  0  0  0
  -27.7561  -15.2565   21.2851 H   0  0  0  0  0  0
  -27.6889  -20.6934   21.3546 H   0  0  0  0  0  0
  -27.7089  -22.2120   20.5307 H   0  0  0  0  0  0
  -26.6567  -21.9818   21.9185 H   0  0  0  0  0  0
  -30.1331  -20.7578   21.6213 H   0  0  0  0  0  0
  -30.9823  -22.1015   22.3521 H   0  0  0  0  0  0
  -30.2248  -22.2694   20.7878 H   0  0  0  0  0  0
  -29.8303  -25.4488   23.6596 H   0  0  0  0  0  0
  -30.8296  -24.0939   23.2184 H   0  0  0  0  0  0
  -29.7305  -23.9915   24.5888 H   0  0  0  0  0  0
  -27.3654  -25.2695   23.6595 H   0  0  0  0  0  0
  -27.0429  -23.6308   24.1018 H   0  0  0  0  0  0
  -26.5381  -24.2143   22.5298 H   0  0  0  0  0  0
  -31.0356  -20.3643   24.2232 H   0  0  0  0  0  0
  -30.3735  -19.0774   25.2052 H   0  0  0  0  0  0
  -28.2536  -19.4722   24.5335 H   0  0  0  0  0  0
  -28.6452  -19.5234   22.8702 H   0  0  0  0  0  0
  -29.2864  -21.9170   24.6028 H   0  0  0  0  0  0
  -27.6410  -21.5923   24.1968 H   0  0  0  0  0  0
  -29.6686  -24.3248   20.6901 H   0  0  0  0  0  0
  -27.9469  -24.3654   20.6505 H   0  0  0  0  0  0
  -33.4028  -18.1994   20.3767 H   0  0  0  0  0  0
  -32.3625  -17.1087   19.5210 H   0  0  0  0  0  0
  -29.8336  -26.5390   21.5601 H   0  0  0  0  0  0
  -28.1894  -26.5615   22.1322 H   0  0  0  0  0  0
  1 25  1  0  0  0
  1 30  2  0  0  0
  1 86  1  0  0  0
  2  3  1  0  0  0
  2 25  1  0  0  0
  2 92  1  0  0  0
  2 93  1  0  0  0
  3  4  1  0  0  0
  3 94  1  0  0  0
  3 95  1  0  0  0
  4  5  1  0  0  0
  4 96  1  0  0  0
  4 97  1  0  0  0
  5  6  1  0  0  0
  5 26  1  0  0  0
  5 98  1  0  0  0
  6 25  1  0  0  0
  6 99  1  0  0  0
  6100  1  0  0  0
  7  8  2  0  0  0
  7 26  1  0  0  0
  7 29  1  0  0  0
  8  9  1  0  0  0
  8 22  1  0  0  0
  9 10  1  0  0  0
  9 27  2  0  0  0
 10 11  2  0  0  0
 10 15  1  0  0  0
 11 12  1  0  0  0
 11101  1  0  0  0
 12 13  2  0  0  0
 12102  1  0  0  0
 13 14  1  0  0  0
 13 31  1  0  0  0
 14 15  2  0  0  0
 14103  1  0  0  0
 15104  1  0  0  0
 16 17  2  0  0  0
 16 21  1  0  0  0
 16 31  1  0  0  0
 17 18  1  0  0  0
 17105  1  0  0  0
 18 19  2  0  0  0
 18106  1  0  0  0
 19 20  1  0  0  0
 19 24  1  0  0  0
 20 21  2  0  0  0
 20107  1  0  0  0
 21 23  1  0  0  0
 22 28  1  0  0  0
 22 32  2  0  0  0
 26 27  1  0  0  0
 28108  1  0  0  0
 28109  1  0  0  0
 29110  1  0  0  0
 29111  1  0  0  0
 33 34  1  0  0  0
 33 66  1  0  0  0
 33 70  2  0  0  0
 34 36  1  0  0  0
 34 59  1  0  0  0
 34112  1  0  0  0
 35 44  2  0  0  0
 35 45  1  0  0  0
 35 68  1  0  0  0
 36 56  1  0  0  0
 36113  1  0  0  0
 37 39  1  0  0  0
 37 47  1  0  0  0
 37 66  1  0  0  0
 37114  1  0  0  0
 38 43  2  0  0  0
 38 46  1  0  0  0
 38 47  1  0  0  0
 39 64  1  0  0  0
 39 67  2  0  0  0
 40 52  1  0  0  0
 40 53  2  0  0  0
 40 58  1  0  0  0
 41115  1  0  0  0
 41116  1  0  0  0
 41117  1  0  0  0
 41 48  1  0  0  0
 42 43  1  0  0  0
 42 66  1  0  0  0
 42118  1  0  0  0
 42119  1  0  0  0
 43 44  1  0  0  0
 44120  1  0  0  0
 45 46  2  0  0  0
 45121  1  0  0  0
 46122  1  0  0  0
 47123  1  0  0  0
 47124  1  0  0  0
 48 56  1  0  0  0
 48 65  1  0  0  0
 48125  1  0  0  0
 49 50  1  0  0  0
 49 53  1  0  0  0
 49 64  1  0  0  0
 49126  1  0  0  0
 50 51  1  0  0  0
 50127  1  0  0  0
 50128  1  0  0  0
 51 52  1  0  0  0
 51129  1  0  0  0
 51130  1  0  0  0
 52131  1  0  0  0
 52132  1  0  0  0
 53 54  1  0  0  0
 54 55  2  0  0  0
 54133  1  0  0  0
 55 57  1  0  0  0
 55134  1  0  0  0
 56 69  2  0  0  0
 57 58  2  0  0  0
 57135  1  0  0  0
 58136  1  0  0  0
 59 60  1  0  0  0
 59 61  1  0  0  0
 59 62  1  0  0  0
 60137  1  0  0  0
 60138  1  0  0  0
 60139  1  0  0  0
 61140  1  0  0  0
 61141  1  0  0  0
 61142  1  0  0  0
 62143  1  0  0  0
 62144  1  0  0  0
 62145  1  0  0  0
 63 65  1  0  0  0
 63146  1  0  0  0
 63147  1  0  0  0
 63148  1  0  0  0
 64149  1  0  0  0
 65150  1  0  0  0
 68 85  1  0  0  0
 71 80  1  0  0  0
 71 89  1  0  0  0
 71 90  2  0  0  0
 72 86  1  0  0  0
 72 89  2  0  0  0
 72 91  1  0  0  0
 73 84  1  0  0  0
 73151  1  0  0  0
 73152  1  0  0  0
 73153  1  0  0  0
 74154  1  0  0  0
 74155  1  0  0  0
 74156  1  0  0  0
 74 86  1  0  0  0
 75 86  1  0  0  0
 75157  1  0  0  0
 75158  1  0  0  0
 75159  1  0  0  0
 76160  1  0  0  0
 76161  1  0  0  0
 76162  1  0  0  0
 76 87  1  0  0  0
 77 87  1  0  0  0
 77163  1  0  0  0
 77164  1  0  0  0
 77165  1  0  0  0
 78166  1  0  0  0
 78167  1  0  0  0
 78168  1  0  0  0
 78 88  1  0  0  0
 79 88  1  0  0  0
 79169  1  0  0  0
 79170  1  0  0  0
 79171  1  0  0  0
 80 81  1  0  0  0
 80172  1  0  0  0
 80173  1  0  0  0
 81 82  1  0  0  0
 81174  1  0  0  0
 81175  1  0  0  0
 82 87  1  0  0  0
 82176  1  0  0  0
 82177  1  0  0  0
 83 85  1  0  0  0
 83 88  1  0  0  0
 83178  1  0  0  0
 83179  1  0  0  0
 84 91  1  0  0  0
 84180  1  0  0  0
 84181  1  0  0  0
 85182  1  0  0  0
 85183  1  0  0  0
 87 88  1  0  0  0
 90 91  1  0  0  0
M  ISO  4   1 100  68 101  85 101  86 100
M  END
> <chiral flag>
0

> <version>
0

> <s_m_source_file>
/data/baiqing/PycharmProjects/Reinvent-master-3.2/result/LINK_invent/BTK/process_docking_weight1_custom_sum_contain_oxygen_bond_distance_aromatic_linkinvent_7_9_3/rearranged_h_0065.sdf

> <i_m_source_file_index>
45

> <r_mmod_Potential_Energy-OPLS-2005>
213.376739501953

> <r_mmod_Stretch_Energy-OPLS-2005>
68.1132278442383

> <r_mmod_Bend_Energy-OPLS-2005>
174.739624023438

> <r_mmod_Torsional_Energy-OPLS-2005>
312.771728515625

> <r_mmod_Improper_Torsional_Energy-OPLS-2005>
9.1956787109375

> <r_mmod_Van_der_Waal_Energy-OPLS-2005>
168.900955200195

> <r_mmod_Electrostatic_Energy-OPLS-2005>
-363.073181152344

> <r_mmod_Solvation_Energy-OPLS-2005>
-182.997817993164

> <b_mmod_Minimization_Converged-OPLS-2005>
0

> <r_mmod_RMS_Derivative-OPLS-2005>
7.41384029388428

$$$$
48
                    3D
 Structure written by MMmdl.
166174  0  0  1  0            999 V2000
  -30.7597  -14.5907   20.3612 C   0  0  0  0  0  0
  -30.3968  -12.3415   19.4485 C   0  0  0  0  0  0
  -29.4761  -12.4083   18.2165 C   0  0  0  0  0  0
  -28.0004  -12.3027   18.6395 C   0  0  0  0  0  0
  -27.6306  -13.2071   19.8479 C   0  0  2  0  0  0
  -28.7007  -13.1810   20.9574 C   0  0  0  0  0  0
  -25.2513  -13.8139   20.5835 C   0  0  0  0  0  0
  -24.1763  -13.0401   20.9233 C   0  0  0  0  0  0
  -24.6341  -11.6872   20.8816 C   0  0  0  0  0  0
  -23.9028  -10.4258   21.0446 C   0  0  0  0  0  0
  -24.3584   -9.4166   21.9207 C   0  0  0  0  0  0
  -23.6264   -8.2203   22.0762 C   0  0  0  0  0  0
  -22.4253   -8.0254   21.3543 C   0  0  0  0  0  0
  -21.9887   -9.0234   20.4652 C   0  0  0  0  0  0
  -22.7216  -10.2113   20.3073 C   0  0  0  0  0  0
  -21.6844   -6.0719   22.5291 C   0  0  0  0  0  0
  -21.4011   -6.5636   23.8225 C   0  0  0  0  0  0
  -21.3635   -5.6791   24.9187 C   0  0  0  0  0  0
  -21.6025   -4.3056   24.7242 C   0  0  0  0  0  0
  -21.8814   -3.8141   23.4372 C   0  0  0  0  0  0
  -21.9199   -4.6946   22.3423 C   0  0  0  0  0  0
  -22.7777  -13.5189   21.1867 C   0  0  0  0  0  0
  -22.1666   -4.2130   21.0996 F   0  0  0  0  0  0
  -21.5613   -3.4548   25.7761 F   0  0  0  0  0  0
  -30.0055  -13.4478   20.3411 N   0  0  0  0  0  0
  -26.2920  -12.9295   20.3463 N   0  0  0  0  0  0
  -25.9278  -11.6461   20.5913 N   0  0  0  0  0  0
  -22.0409  -12.8185   22.0418 N   0  0  0  0  0  0
  -25.4279  -15.1868   20.4379 N   0  0  0  0  0  0
  -31.9826  -14.4552   20.3413 O   0  0  0  0  0  0
  -21.6611   -6.8857   21.4255 O   0  0  0  0  0  0
  -22.3472  -14.5487   20.6700 O   0  0  0  0  0  0
  -24.6150  -31.8671   23.2099 C   0  0  0  0  0  0
  -25.9037  -32.4825   23.8399 C   0  0  1  0  0  0
  -27.2304  -27.4137   20.1236 C   0  0  0  0  0  0
  -25.5891  -33.8626   24.2329 N   0  0  0  0  0  0
  -23.4059  -30.4903   21.5480 C   0  0  2  0  0  0
  -24.8562  -28.9520   20.1181 C   0  0  0  0  0  0
  -22.7415  -29.4660   22.4966 C   0  0  0  0  0  0
  -18.0272  -28.1383   22.8494 C   0  0  0  0  0  0
  -24.1491  -36.7322   23.2639 C   0  0  0  0  0  0
  -25.9360  -30.8266   21.3685 C   0  0  0  0  0  0
  -26.0141  -29.4557   20.7271 C   0  0  0  0  0  0
  -27.2065  -28.6908   20.7366 C   0  0  0  0  0  0
  -26.0662  -26.9361   19.4934 C   0  0  0  0  0  0
  -24.8775  -27.6898   19.4990 C   0  0  0  0  0  0
  -23.6185  -29.8212   20.1638 C   0  0  0  0  0  0
  -25.4110  -36.3111   24.0335 C   0  0  1  0  0  0
  -20.5864  -28.3675   23.1309 C   0  0  2  0  0  0
  -20.6762  -26.9409   22.5419 C   0  0  0  0  0  0
  -19.5745  -26.6384   21.5214 C   0  0  0  0  0  0
  -18.1919  -26.7931   22.1625 C   0  0  0  0  0  0
  -19.1525  -28.8843   23.2903 C   0  0  0  0  0  0
  -18.9452  -30.1450   23.8918 C   0  0  0  0  0  0
  -17.6454  -30.6590   24.0571 C   0  0  0  0  0  0
  -25.9033  -34.9479   23.5130 C   0  0  0  0  0  0
  -16.5347  -29.9097   23.6324 C   0  0  0  0  0  0
  -16.7260  -28.6512   23.0346 C   0  0  0  0  0  0
  -26.4462  -31.6600   25.0729 C   0  0  0  0  0  0
  -25.3728  -31.3718   26.1481 C   0  0  0  0  0  0
  -27.0277  -30.3029   24.6113 C   0  0  0  0  0  0
  -27.6053  -32.4308   25.7478 C   0  0  0  0  0  0
  -27.5581  -37.1819   24.8467 C   0  0  0  0  0  0
  -21.4137  -29.3038   22.3702 N   0  0  0  0  0  0
  -26.4299  -37.3792   23.9397 N   0  0  0  0  0  0
  -24.6702  -31.0762   22.1004 N   0  0  0  0  0  0
  -23.4174  -28.8210   23.3024 O   0  0  0  0  0  0
  -28.3488  -26.6089   20.0765 O   0  0  0  0  0  0
  -26.5599  -34.8926   22.4694 O   0  0  0  0  0  0
  -23.5331  -32.1437   23.7468 O   0  0  0  0  0  0
  -29.7633  -18.1768   21.4363 C   0  0  0  0  0  0
  -27.8025  -17.6116   22.1307 C   0  0  0  0  0  0
  -29.4852  -16.8927   20.9784 C   0  0  0  0  0  0
  -31.5520  -16.8943   19.6047 C   0  0  0  0  0  0
  -29.5121  -16.0823   18.6062 C   0  0  0  0  0  0
  -28.8437  -22.7273   24.0452 C   0  0  0  0  0  0
  -28.4679  -21.2314   21.9818 C   0  0  0  0  0  0
  -29.0369  -24.6306   21.5213 C   0  0  0  0  0  0
  -28.5001  -19.9239   22.8471 C   0  0  0  0  0  0
  -28.8924  -26.1795   21.3336 C   0  0  0  0  0  0
  -30.2717  -16.0629   19.9536 C   0  0  0  0  0  0
  -27.9894  -22.4951   22.7799 C   0  0  2  0  0  0
  -27.7717  -23.8408   21.9810 C   0  0  0  0  0  0
  -28.2151  -16.5453   21.4428 N   0  0  0  0  0  0
  -28.6609  -18.6430   22.1445 N   0  0  0  0  0  0
  -26.7735  -22.1674   23.2259 F   0  0  0  0  0  0
  -27.1004  -24.6501   22.8050 F   0  0  0  0  0  0
  -27.0036  -23.6128   20.9143 F   0  0  0  0  0  0
  -31.4397  -12.3888   19.1303 H   0  0  0  0  0  0
  -30.2875  -11.3832   19.9590 H   0  0  0  0  0  0
  -29.7173  -11.5945   17.5322 H   0  0  0  0  0  0
  -29.6428  -13.3237   17.6564 H   0  0  0  0  0  0
  -27.8201  -11.2588   18.8955 H   0  0  0  0  0  0
  -27.3489  -12.5202   17.7922 H   0  0  0  0  0  0
  -27.5852  -14.2119   19.4632 H   0  0  0  0  0  0
  -28.7159  -12.2102   21.4545 H   0  0  0  0  0  0
  -28.4829  -13.9143   21.7326 H   0  0  0  0  0  0
  -25.2728   -9.5641   22.4784 H   0  0  0  0  0  0
  -23.9961   -7.4600   22.7488 H   0  0  0  0  0  0
  -21.0819   -8.8774   19.8958 H   0  0  0  0  0  0
  -22.3693  -10.9665   19.6181 H   0  0  0  0  0  0
  -21.2002   -7.6146   23.9736 H   0  0  0  0  0  0
  -21.1457   -6.0518   25.9089 H   0  0  0  0  0  0
  -22.0613   -2.7605   23.2895 H   0  0  0  0  0  0
  -22.4050  -11.9876   22.4850 H   0  0  0  0  0  0
  -21.1014  -13.1217   22.2600 H   0  0  0  0  0  0
  -24.6881  -15.8495   20.6383 H   0  0  0  0  0  0
  -26.3490  -15.6168   20.4080 H   0  0  0  0  0  0
  -26.7121  -32.5549   23.1178 H   0  0  0  0  0  0
  -25.0026  -33.9779   25.0462 H   0  0  0  0  0  0
  -22.6950  -31.3069   21.4061 H   0  0  0  0  0  0
  -23.3754  -35.9652   23.3289 H   0  0  0  0  0  0
  -24.3583  -36.8958   22.2056 H   0  0  0  0  0  0
  -23.7251  -37.6521   23.6674 H   0  0  0  0  0  0
  -26.0462  -31.5861   20.5930 H   0  0  0  0  0  0
  -26.8255  -30.8887   21.9841 H   0  0  0  0  0  0
  -28.1005  -29.0751   21.2070 H   0  0  0  0  0  0
  -26.0784  -25.9672   19.0121 H   0  0  0  0  0  0
  -23.9892  -27.2969   19.0232 H   0  0  0  0  0  0
  -23.7283  -30.5958   19.4037 H   0  0  0  0  0  0
  -22.7423  -29.2406   19.8686 H   0  0  0  0  0  0
  -25.1287  -36.1979   25.0830 H   0  0  0  0  0  0
  -20.9960  -28.3260   24.1429 H   0  0  0  0  0  0
  -20.5665  -26.2285   23.3610 H   0  0  0  0  0  0
  -21.6639  -26.7453   22.1214 H   0  0  0  0  0  0
  -19.6908  -25.6300   21.1236 H   0  0  0  0  0  0
  -19.6678  -27.3199   20.6746 H   0  0  0  0  0  0
  -17.4187  -26.6684   21.4027 H   0  0  0  0  0  0
  -18.0320  -26.0068   22.9017 H   0  0  0  0  0  0
  -19.7929  -30.7261   24.2297 H   0  0  0  0  0  0
  -17.5013  -31.6265   24.5179 H   0  0  0  0  0  0
  -15.5351  -30.3011   23.7625 H   0  0  0  0  0  0
  -15.8660  -28.0841   22.7047 H   0  0  0  0  0  0
  -24.5865  -30.7111   25.7814 H   0  0  0  0  0  0
  -24.8965  -32.2885   26.4966 H   0  0  0  0  0  0
  -25.8074  -30.8842   27.0216 H   0  0  0  0  0  0
  -26.2815  -29.6796   24.1173 H   0  0  0  0  0  0
  -27.4038  -29.7260   25.4571 H   0  0  0  0  0  0
  -27.8659  -30.4325   23.9265 H   0  0  0  0  0  0
  -27.2709  -33.3640   26.2016 H   0  0  0  0  0  0
  -28.3875  -32.6805   25.0301 H   0  0  0  0  0  0
  -28.0694  -31.8447   26.5415 H   0  0  0  0  0  0
  -28.2618  -38.0095   24.7481 H   0  0  0  0  0  0
  -28.1058  -36.2628   24.6338 H   0  0  0  0  0  0
  -27.2289  -37.1526   25.8867 H   0  0  0  0  0  0
  -20.9292  -29.8771   21.6937 H   0  0  0  0  0  0
  -26.0192  -38.2874   24.1378 H   0  0  0  0  0  0
  -30.6264  -18.8114   21.2842 H   0  0  0  0  0  0
  -26.8486  -17.6443   22.6402 H   0  0  0  0  0  0
  -31.3149  -17.8917   19.2317 H   0  0  0  0  0  0
  -32.1488  -16.4233   18.8218 H   0  0  0  0  0  0
  -32.1993  -17.0259   20.4726 H   0  0  0  0  0  0
  -29.4973  -17.0822   18.1740 H   0  0  0  0  0  0
  -28.4665  -15.8270   18.6991 H   0  0  0  0  0  0
  -29.9789  -15.4364   17.8663 H   0  0  0  0  0  0
  -29.8984  -22.8554   23.8038 H   0  0  0  0  0  0
  -28.7724  -21.8939   24.7438 H   0  0  0  0  0  0
  -28.5192  -23.6142   24.5896 H   0  0  0  0  0  0
  -27.7997  -21.0815   21.1335 H   0  0  0  0  0  0
  -29.4546  -21.4147   21.5558 H   0  0  0  0  0  0
  -29.8040  -24.5078   22.2833 H   0  0  0  0  0  0
  -29.4584  -24.1758   20.6256 H   0  0  0  0  0  0
  -27.5815  -19.8525   23.4294 H   0  0  0  0  0  0
  -29.3036  -19.9879   23.5796 H   0  0  0  0  0  0
  -29.8934  -26.6104   21.3723 H   0  0  0  0  0  0
  -28.3669  -26.6189   22.1818 H   0  0  0  0  0  0
  1 25  1  0  0  0
  1 30  2  0  0  0
  1 81  1  0  0  0
  2  3  1  0  0  0
  2 25  1  0  0  0
  2 89  1  0  0  0
  2 90  1  0  0  0
  3  4  1  0  0  0
  3 91  1  0  0  0
  3 92  1  0  0  0
  4  5  1  0  0  0
  4 93  1  0  0  0
  4 94  1  0  0  0
  5  6  1  0  0  0
  5 26  1  0  0  0
  5 95  1  0  0  0
  6 25  1  0  0  0
  6 96  1  0  0  0
  6 97  1  0  0  0
  7  8  2  0  0  0
  7 26  1  0  0  0
  7 29  1  0  0  0
  8  9  1  0  0  0
  8 22  1  0  0  0
  9 10  1  0  0  0
  9 27  2  0  0  0
 10 11  2  0  0  0
 10 15  1  0  0  0
 11 12  1  0  0  0
 11 98  1  0  0  0
 12 13  2  0  0  0
 12 99  1  0  0  0
 13 14  1  0  0  0
 13 31  1  0  0  0
 14 15  2  0  0  0
 14100  1  0  0  0
 15101  1  0  0  0
 16 17  2  0  0  0
 16 21  1  0  0  0
 16 31  1  0  0  0
 17 18  1  0  0  0
 17102  1  0  0  0
 18 19  2  0  0  0
 18103  1  0  0  0
 19 20  1  0  0  0
 19 24  1  0  0  0
 20 21  2  0  0  0
 20104  1  0  0  0
 21 23  1  0  0  0
 22 28  1  0  0  0
 22 32  2  0  0  0
 26 27  1  0  0  0
 28105  1  0  0  0
 28106  1  0  0  0
 29107  1  0  0  0
 29108  1  0  0  0
 33 34  1  0  0  0
 33 66  1  0  0  0
 33 70  2  0  0  0
 34 36  1  0  0  0
 34 59  1  0  0  0
 34109  1  0  0  0
 35 44  2  0  0  0
 35 45  1  0  0  0
 35 68  1  0  0  0
 36 56  1  0  0  0
 36110  1  0  0  0
 37 39  1  0  0  0
 37 47  1  0  0  0
 37 66  1  0  0  0
 37111  1  0  0  0
 38 43  2  0  0  0
 38 46  1  0  0  0
 38 47  1  0  0  0
 39 64  1  0  0  0
 39 67  2  0  0  0
 40 52  1  0  0  0
 40 53  2  0  0  0
 40 58  1  0  0  0
 41112  1  0  0  0
 41113  1  0  0  0
 41114  1  0  0  0
 41 48  1  0  0  0
 42 43  1  0  0  0
 42 66  1  0  0  0
 42115  1  0  0  0
 42116  1  0  0  0
 43 44  1  0  0  0
 44117  1  0  0  0
 45 46  2  0  0  0
 45118  1  0  0  0
 46119  1  0  0  0
 47120  1  0  0  0
 47121  1  0  0  0
 48 56  1  0  0  0
 48 65  1  0  0  0
 48122  1  0  0  0
 49 50  1  0  0  0
 49 53  1  0  0  0
 49 64  1  0  0  0
 49123  1  0  0  0
 50 51  1  0  0  0
 50124  1  0  0  0
 50125  1  0  0  0
 51 52  1  0  0  0
 51126  1  0  0  0
 51127  1  0  0  0
 52128  1  0  0  0
 52129  1  0  0  0
 53 54  1  0  0  0
 54 55  2  0  0  0
 54130  1  0  0  0
 55 57  1  0  0  0
 55131  1  0  0  0
 56 69  2  0  0  0
 57 58  2  0  0  0
 57132  1  0  0  0
 58133  1  0  0  0
 59 60  1  0  0  0
 59 61  1  0  0  0
 59 62  1  0  0  0
 60134  1  0  0  0
 60135  1  0  0  0
 60136  1  0  0  0
 61137  1  0  0  0
 61138  1  0  0  0
 61139  1  0  0  0
 62140  1  0  0  0
 62141  1  0  0  0
 62142  1  0  0  0
 63 65  1  0  0  0
 63143  1  0  0  0
 63144  1  0  0  0
 63145  1  0  0  0
 64146  1  0  0  0
 65147  1  0  0  0
 68 80  1  0  0  0
 71 73  2  0  0  0
 71 85  1  0  0  0
 71148  1  0  0  0
 72 84  2  0  0  0
 72 85  1  0  0  0
 72149  1  0  0  0
 73 81  1  0  0  0
 73 84  1  0  0  0
 74150  1  0  0  0
 74151  1  0  0  0
 74152  1  0  0  0
 74 81  1  0  0  0
 75 81  1  0  0  0
 75153  1  0  0  0
 75154  1  0  0  0
 75155  1  0  0  0
 76156  1  0  0  0
 76157  1  0  0  0
 76158  1  0  0  0
 76 82  1  0  0  0
 77 79  1  0  0  0
 77 82  1  0  0  0
 77159  1  0  0  0
 77160  1  0  0  0
 78 80  1  0  0  0
 78 83  1  0  0  0
 78161  1  0  0  0
 78162  1  0  0  0
 79 85  1  0  0  0
 79163  1  0  0  0
 79164  1  0  0  0
 80165  1  0  0  0
 80166  1  0  0  0
 82 83  1  0  0  0
 82 86  1  0  0  0
 83 87  1  0  0  0
 83 88  1  0  0  0
M  ISO  4   1 100  68 101  80 101  81 100
M  END
> <chiral flag>
0

> <version>
0

> <s_m_source_file>
/data/baiqing/PycharmProjects/Reinvent-master-3.2/result/LINK_invent/BTK/process_docking_weight1_custom_sum_contain_oxygen_bond_distance_aromatic_linkinvent_7_9_3/rearranged_h_0065.sdf

> <i_m_source_file_index>
46

> <r_mmod_Potential_Energy-OPLS-2005>
187.021591186523

> <r_mmod_Stretch_Energy-OPLS-2005>
55.9923477172852

> <r_mmod_Bend_Energy-OPLS-2005>
160.376525878906

> <r_mmod_Torsional_Energy-OPLS-2005>
262.503448486328

> <r_mmod_Improper_Torsional_Energy-OPLS-2005>
13.7037811279297

> <r_mmod_Van_der_Waal_Energy-OPLS-2005>
138.71044921875

> <r_mmod_Electrostatic_Energy-OPLS-2005>
-316.481048583984

> <r_mmod_Solvation_Energy-OPLS-2005>
-186.34700012207

> <b_mmod_Minimization_Converged-OPLS-2005>
0

> <r_mmod_RMS_Derivative-OPLS-2005>
1.93982827663422

$$$$
49
                    3D
 Structure written by MMmdl.
176184  0  0  1  0            999 V2000
  -30.6786  -14.7167   20.5955 C   0  0  0  0  0  0
  -30.4356  -12.4666   19.4967 C   0  0  0  0  0  0
  -29.5190  -12.5441   18.2549 C   0  0  0  0  0  0
  -28.0421  -12.3553   18.6465 C   0  0  0  0  0  0
  -27.6536  -13.2226   19.8696 C   0  0  2  0  0  0
  -28.6907  -13.0829   21.0032 C   0  0  0  0  0  0
  -25.2564  -13.8165   20.5712 C   0  0  0  0  0  0
  -24.1830  -13.0415   20.9204 C   0  0  0  0  0  0
  -24.6424  -11.6899   20.8771 C   0  0  0  0  0  0
  -23.9096  -10.4276   21.0446 C   0  0  0  0  0  0
  -24.3631   -9.4187   21.9227 C   0  0  0  0  0  0
  -23.6303   -8.2225   22.0764 C   0  0  0  0  0  0
  -22.4288   -8.0281   21.3545 C   0  0  0  0  0  0
  -21.9933   -9.0263   20.4655 C   0  0  0  0  0  0
  -22.7272  -10.2143   20.3087 C   0  0  0  0  0  0
  -21.6848   -6.0744   22.5277 C   0  0  0  0  0  0
  -21.4032   -6.5648   23.8217 C   0  0  0  0  0  0
  -21.3655   -5.6792   24.9171 C   0  0  0  0  0  0
  -21.6033   -4.3054   24.7210 C   0  0  0  0  0  0
  -21.8825   -3.8154   23.4333 C   0  0  0  0  0  0
  -21.9200   -4.6976   22.3394 C   0  0  0  0  0  0
  -22.7854  -13.5216   21.1846 C   0  0  0  0  0  0
  -22.1666   -4.2170   21.0969 F   0  0  0  0  0  0
  -21.5608   -3.4533   25.7718 F   0  0  0  0  0  0
  -30.0055  -13.5029   20.4820 N   0  0  0  0  0  0
  -26.2993  -12.9357   20.3335 N   0  0  0  0  0  0
  -25.9352  -11.6506   20.5769 N   0  0  0  0  0  0
  -22.0477  -12.8231   22.0413 N   0  0  0  0  0  0
  -25.4264  -15.1878   20.4122 N   0  0  0  0  0  0
  -31.7083  -14.8262   19.9208 O   0  0  0  0  0  0
  -21.6635   -6.8891   21.4245 O   0  0  0  0  0  0
  -22.3543  -14.5507   20.6676 O   0  0  0  0  0  0
  -24.6286  -31.8542   23.1989 C   0  0  0  0  0  0
  -25.9111  -32.4752   23.8342 C   0  0  1  0  0  0
  -27.2265  -27.2735   20.1220 C   0  0  0  0  0  0
  -25.5899  -33.8552   24.2263 N   0  0  0  0  0  0
  -23.4261  -30.4760   21.5413 C   0  0  2  0  0  0
  -24.8736  -28.9214   20.1097 C   0  0  0  0  0  0
  -22.7508  -29.4574   22.4916 C   0  0  0  0  0  0
  -18.0296  -28.1353   22.8474 C   0  0  0  0  0  0
  -24.1499  -36.7303   23.2642 C   0  0  0  0  0  0
  -25.9708  -30.7709   21.3767 C   0  0  0  0  0  0
  -26.0431  -29.3943   20.7169 C   0  0  0  0  0  0
  -27.2180  -28.5804   20.7119 C   0  0  0  0  0  0
  -26.0276  -26.8541   19.5009 C   0  0  0  0  0  0
  -24.8701  -27.6605   19.4917 C   0  0  0  0  0  0
  -23.6421  -29.8052   20.1584 C   0  0  0  0  0  0
  -25.4125  -36.3060   24.0320 C   0  0  1  0  0  0
  -20.5899  -28.3656   23.1266 C   0  0  2  0  0  0
  -20.6773  -26.9368   22.5406 C   0  0  0  0  0  0
  -19.5749  -26.6358   21.5201 C   0  0  0  0  0  0
  -18.1932  -26.7905   22.1620 C   0  0  0  0  0  0
  -19.1552  -28.8827   23.2863 C   0  0  0  0  0  0
  -18.9468  -30.1440   23.8865 C   0  0  0  0  0  0
  -17.6459  -30.6558   24.0545 C   0  0  0  0  0  0
  -25.9048  -34.9422   23.5104 C   0  0  0  0  0  0
  -16.5353  -29.9046   23.6323 C   0  0  0  0  0  0
  -16.7281  -28.6470   23.0329 C   0  0  0  0  0  0
  -26.4484  -31.6584   25.0733 C   0  0  0  0  0  0
  -25.3691  -31.3689   26.1444 C   0  0  0  0  0  0
  -27.0341  -30.3000   24.6211 C   0  0  0  0  0  0
  -27.6057  -32.4324   25.7484 C   0  0  0  0  0  0
  -27.5591  -37.1797   24.8453 C   0  0  0  0  0  0
  -21.4213  -29.3019   22.3671 N   0  0  0  0  0  0
  -26.4310  -37.3754   23.9391 N   0  0  0  0  0  0
  -24.6945  -31.0520   22.0956 N   0  0  0  0  0  0
  -23.4226  -28.8112   23.2999 O   0  0  0  0  0  0
  -28.3572  -26.4356   20.2074 O   0  0  0  0  0  0
  -26.5639  -34.8890   22.4686 O   0  0  0  0  0  0
  -23.5445  -32.1371   23.7288 O   0  0  0  0  0  0
  -30.2844  -18.8763   23.0024 C   0  0  0  0  0  0
  -30.2860  -20.1780   23.4204 C   0  0  0  0  0  0
  -29.5408  -20.1015   21.3108 C   0  0  0  0  0  0
  -28.4604  -17.2574   20.2322 C   0  0  0  0  0  0
  -31.4246  -19.8259   25.6208 C   0  0  0  0  0  0
  -29.3769  -21.2772   25.4447 C   0  0  0  0  0  0
  -31.5653  -22.0416   24.4699 C   0  0  0  0  0  0
  -29.4841  -15.6107   22.7565 C   0  0  0  0  0  0
  -31.8104  -16.2603   22.1778 C   0  0  0  0  0  0
  -28.9029  -20.8281   20.1028 C   0  0  0  0  0  0
  -29.2013  -22.4024   19.8029 C   0  0  0  0  0  0
  -28.4432  -23.6872   20.4378 C   0  0  0  0  0  0
  -28.4768  -25.0734   19.5986 C   0  0  0  0  0  0
  -29.8485  -17.4382   20.8776 C   0  0  2  0  0  0
  -30.6604  -20.8249   24.7306 C   0  0  0  0  0  0
  -30.3861  -16.0089   21.5619 C   0  0  0  0  0  0
  -29.8726  -18.7898   21.6833 N   0  0  0  0  0  0
  -29.7994  -20.8784   22.3650 N   0  3  0  0  0  0
  -31.4790  -12.5713   19.1937 H   0  0  0  0  0  0
  -30.3868  -11.4758   19.9511 H   0  0  0  0  0  0
  -29.8148  -11.7937   17.5206 H   0  0  0  0  0  0
  -29.6482  -13.5150   17.7733 H   0  0  0  0  0  0
  -27.8880  -11.2999   18.8774 H   0  0  0  0  0  0
  -27.3941  -12.5795   17.7976 H   0  0  0  0  0  0
  -27.6668  -14.2560   19.5273 H   0  0  0  0  0  0
  -28.7391  -12.0447   21.3366 H   0  0  0  0  0  0
  -28.3450  -13.6138   21.8759 H   0  0  0  0  0  0
  -25.2773   -9.5639   22.4817 H   0  0  0  0  0  0
  -23.9998   -7.4597   22.7471 H   0  0  0  0  0  0
  -21.0866   -8.8803   19.8950 H   0  0  0  0  0  0
  -22.3758  -10.9695   19.6193 H   0  0  0  0  0  0
  -21.2060   -7.6163   23.9734 H   0  0  0  0  0  0
  -21.1464   -6.0518   25.9076 H   0  0  0  0  0  0
  -22.0623   -2.7622   23.2820 H   0  0  0  0  0  0
  -22.4045  -11.9892   22.4842 H   0  0  0  0  0  0
  -21.1099  -13.1288   22.2567 H   0  0  0  0  0  0
  -24.6619  -15.8452   20.5255 H   0  0  0  0  0  0
  -26.2818  -15.6281   20.1008 H   0  0  0  0  0  0
  -26.7186  -32.5394   23.1094 H   0  0  0  0  0  0
  -24.9965  -33.9679   25.0347 H   0  0  0  0  0  0
  -22.7231  -31.2969   21.3932 H   0  0  0  0  0  0
  -23.3751  -35.9641   23.3292 H   0  0  0  0  0  0
  -24.3580  -36.8956   22.2057 H   0  0  0  0  0  0
  -23.7290  -37.6506   23.6686 H   0  0  0  0  0  0
  -26.1055  -31.5337   20.6084 H   0  0  0  0  0  0
  -26.8499  -30.8208   22.0082 H   0  0  0  0  0  0
  -28.1176  -28.9295   21.1995 H   0  0  0  0  0  0
  -25.9482  -25.8776   19.0484 H   0  0  0  0  0  0
  -23.9689  -27.2938   19.0192 H   0  0  0  0  0  0
  -23.7597  -30.5777   19.3985 H   0  0  0  0  0  0
  -22.7625  -29.2308   19.8593 H   0  0  0  0  0  0
  -25.1308  -36.1924   25.0816 H   0  0  0  0  0  0
  -20.9990  -28.3247   24.1384 H   0  0  0  0  0  0
  -20.5659  -26.2251   23.3611 H   0  0  0  0  0  0
  -21.6635  -26.7369   22.1203 H   0  0  0  0  0  0
  -19.6892  -25.6266   21.1222 H   0  0  0  0  0  0
  -19.6697  -27.3174   20.6737 H   0  0  0  0  0  0
  -17.4199  -26.6652   21.4023 H   0  0  0  0  0  0
  -18.0321  -26.0033   22.8999 H   0  0  0  0  0  0
  -19.7943  -30.7258   24.2223 H   0  0  0  0  0  0
  -17.5006  -31.6228   24.5150 H   0  0  0  0  0  0
  -15.5345  -30.2914   23.7664 H   0  0  0  0  0  0
  -15.8693  -28.0787   22.7024 H   0  0  0  0  0  0
  -24.5899  -30.7018   25.7749 H   0  0  0  0  0  0
  -24.8827  -32.2806   26.4897 H   0  0  0  0  0  0
  -25.7990  -30.8844   27.0229 H   0  0  0  0  0  0
  -26.2913  -29.6729   24.1258 H   0  0  0  0  0  0
  -27.4037  -29.7282   25.4742 H   0  0  0  0  0  0
  -27.8782  -30.4287   23.9438 H   0  0  0  0  0  0
  -27.2715  -33.3652   26.2047 H   0  0  0  0  0  0
  -28.3853  -32.6862   25.0282 H   0  0  0  0  0  0
  -28.0743  -31.8465   26.5400 H   0  0  0  0  0  0
  -28.2580  -38.0121   24.7503 H   0  0  0  0  0  0
  -28.1122  -36.2636   24.6286 H   0  0  0  0  0  0
  -27.2280  -37.1455   25.8849 H   0  0  0  0  0  0
  -20.9409  -29.8771   21.6893 H   0  0  0  0  0  0
  -26.0190  -38.2830   24.1393 H   0  0  0  0  0  0
  -30.5648  -18.0426   23.6072 H   0  0  0  0  0  0
  -28.4369  -16.3837   19.5841 H   0  0  0  0  0  0
  -28.1931  -18.1091   19.6092 H   0  0  0  0  0  0
  -27.6782  -17.1474   20.9827 H   0  0  0  0  0  0
  -30.8221  -18.9509   25.8670 H   0  0  0  0  0  0
  -31.7218  -20.2878   26.5642 H   0  0  0  0  0  0
  -32.3360  -19.4768   25.1331 H   0  0  0  0  0  0
  -28.6998  -20.4403   25.6162 H   0  0  0  0  0  0
  -28.8346  -22.0228   24.8625 H   0  0  0  0  0  0
  -29.6000  -21.7226   26.4150 H   0  0  0  0  0  0
  -32.4659  -21.7583   23.9253 H   0  0  0  0  0  0
  -31.8798  -22.5005   25.4079 H   0  0  0  0  0  0
  -31.0572  -22.8132   23.8913 H   0  0  0  0  0  0
  -29.5453  -16.2831   23.6065 H   0  0  0  0  0  0
  -29.7651  -14.6357   23.1575 H   0  0  0  0  0  0
  -28.4308  -15.5980   22.4843 H   0  0  0  0  0  0
  -31.8259  -16.5816   23.2138 H   0  0  0  0  0  0
  -32.3762  -16.9880   21.5939 H   0  0  0  0  0  0
  -32.4259  -15.3589   22.2253 H   0  0  0  0  0  0
  -27.8289  -20.6594   20.1747 H   0  0  0  0  0  0
  -29.2444  -20.2512   19.2441 H   0  0  0  0  0  0
  -28.9933  -22.4961   18.7370 H   0  0  0  0  0  0
  -30.2772  -22.5619   19.8699 H   0  0  0  0  0  0
  -28.8686  -23.8804   21.4232 H   0  0  0  0  0  0
  -27.4002  -23.4274   20.6155 H   0  0  0  0  0  0
  -27.8322  -24.9799   18.7265 H   0  0  0  0  0  0
  -29.4717  -25.1062   19.1563 H   0  0  0  0  0  0
  -30.5302  -17.6256   20.0474 H   0  0  0  0  0  0
  -29.6397  -21.8779   22.3708 H   0  0  0  0  0  0
  1 25  1  0  0  0
  1 30  2  0  0  0
  1 86  1  0  0  0
  2  3  1  0  0  0
  2 25  1  0  0  0
  2 89  1  0  0  0
  2 90  1  0  0  0
  3  4  1  0  0  0
  3 91  1  0  0  0
  3 92  1  0  0  0
  4  5  1  0  0  0
  4 93  1  0  0  0
  4 94  1  0  0  0
  5  6  1  0  0  0
  5 26  1  0  0  0
  5 95  1  0  0  0
  6 25  1  0  0  0
  6 96  1  0  0  0
  6 97  1  0  0  0
  7  8  2  0  0  0
  7 26  1  0  0  0
  7 29  1  0  0  0
  8  9  1  0  0  0
  8 22  1  0  0  0
  9 10  1  0  0  0
  9 27  2  0  0  0
 10 11  2  0  0  0
 10 15  1  0  0  0
 11 12  1  0  0  0
 11 98  1  0  0  0
 12 13  2  0  0  0
 12 99  1  0  0  0
 13 14  1  0  0  0
 13 31  1  0  0  0
 14 15  2  0  0  0
 14100  1  0  0  0
 15101  1  0  0  0
 16 17  2  0  0  0
 16 21  1  0  0  0
 16 31  1  0  0  0
 17 18  1  0  0  0
 17102  1  0  0  0
 18 19  2  0  0  0
 18103  1  0  0  0
 19 20  1  0  0  0
 19 24  1  0  0  0
 20 21  2  0  0  0
 20104  1  0  0  0
 21 23  1  0  0  0
 22 28  1  0  0  0
 22 32  2  0  0  0
 26 27  1  0  0  0
 28105  1  0  0  0
 28106  1  0  0  0
 29107  1  0  0  0
 29108  1  0  0  0
 33 34  1  0  0  0
 33 66  1  0  0  0
 33 70  2  0  0  0
 34 36  1  0  0  0
 34 59  1  0  0  0
 34109  1  0  0  0
 35 44  2  0  0  0
 35 45  1  0  0  0
 35 68  1  0  0  0
 36 56  1  0  0  0
 36110  1  0  0  0
 37 39  1  0  0  0
 37 47  1  0  0  0
 37 66  1  0  0  0
 37111  1  0  0  0
 38 43  2  0  0  0
 38 46  1  0  0  0
 38 47  1  0  0  0
 39 64  1  0  0  0
 39 67  2  0  0  0
 40 52  1  0  0  0
 40 53  2  0  0  0
 40 58  1  0  0  0
 41112  1  0  0  0
 41113  1  0  0  0
 41114  1  0  0  0
 41 48  1  0  0  0
 42 43  1  0  0  0
 42 66  1  0  0  0
 42115  1  0  0  0
 42116  1  0  0  0
 43 44  1  0  0  0
 44117  1  0  0  0
 45 46  2  0  0  0
 45118  1  0  0  0
 46119  1  0  0  0
 47120  1  0  0  0
 47121  1  0  0  0
 48 56  1  0  0  0
 48 65  1  0  0  0
 48122  1  0  0  0
 49 50  1  0  0  0
 49 53  1  0  0  0
 49 64  1  0  0  0
 49123  1  0  0  0
 50 51  1  0  0  0
 50124  1  0  0  0
 50125  1  0  0  0
 51 52  1  0  0  0
 51126  1  0  0  0
 51127  1  0  0  0
 52128  1  0  0  0
 52129  1  0  0  0
 53 54  1  0  0  0
 54 55  2  0  0  0
 54130  1  0  0  0
 55 57  1  0  0  0
 55131  1  0  0  0
 56 69  2  0  0  0
 57 58  2  0  0  0
 57132  1  0  0  0
 58133  1  0  0  0
 59 60  1  0  0  0
 59 61  1  0  0  0
 59 62  1  0  0  0
 60134  1  0  0  0
 60135  1  0  0  0
 60136  1  0  0  0
 61137  1  0  0  0
 61138  1  0  0  0
 61139  1  0  0  0
 62140  1  0  0  0
 62141  1  0  0  0
 62142  1  0  0  0
 63 65  1  0  0  0
 63143  1  0  0  0
 63144  1  0  0  0
 63145  1  0  0  0
 64146  1  0  0  0
 65147  1  0  0  0
 68 83  1  0  0  0
 71 72  2  0  0  0
 71 87  1  0  0  0
 71148  1  0  0  0
 72 85  1  0  0  0
 72 88  1  0  0  0
 73 80  1  0  0  0
 73 87  1  0  0  0
 73 88  2  0  0  0
 74149  1  0  0  0
 74150  1  0  0  0
 74151  1  0  0  0
 74 84  1  0  0  0
 75152  1  0  0  0
 75153  1  0  0  0
 75154  1  0  0  0
 75 85  1  0  0  0
 76 85  1  0  0  0
 76155  1  0  0  0
 76156  1  0  0  0
 76157  1  0  0  0
 77 85  1  0  0  0
 77158  1  0  0  0
 77159  1  0  0  0
 77160  1  0  0  0
 78161  1  0  0  0
 78162  1  0  0  0
 78163  1  0  0  0
 78 86  1  0  0  0
 79 86  1  0  0  0
 79164  1  0  0  0
 79165  1  0  0  0
 79166  1  0  0  0
 80 81  1  0  0  0
 80167  1  0  0  0
 80168  1  0  0  0
 81 82  1  0  0  0
 81169  1  0  0  0
 81170  1  0  0  0
 82 83  1  0  0  0
 82171  1  0  0  0
 82172  1  0  0  0
 83173  1  0  0  0
 83174  1  0  0  0
 84 86  1  0  0  0
 84 87  1  0  0  0
 84175  1  0  0  0
 88176  1  0  0  0
M  CHG  1  88   1
M  ISO  4   1 100  68 101  83 101  86 100
M  END
> <chiral flag>
0

> <version>
0

> <s_m_source_file>
/data/baiqing/PycharmProjects/Reinvent-master-3.2/result/LINK_invent/BTK/process_docking_weight1_custom_sum_contain_oxygen_bond_distance_aromatic_linkinvent_7_9_3/rearranged_h_0065.sdf

> <i_m_source_file_index>
47

> <r_mmod_Potential_Energy-OPLS-2005>
290.948974609375

> <r_mmod_Stretch_Energy-OPLS-2005>
164.313766479492

> <r_mmod_Bend_Energy-OPLS-2005>
269.064056396484

> <r_mmod_Torsional_Energy-OPLS-2005>
219.740829467773

> <r_mmod_Improper_Torsional_Energy-OPLS-2005>
2.47555541992188

> <r_mmod_Van_der_Waal_Energy-OPLS-2005>
139.973419189453

> <r_mmod_Electrostatic_Energy-OPLS-2005>
-205.24365234375

> <r_mmod_Solvation_Energy-OPLS-2005>
-369.717407226562

> <b_mmod_Minimization_Converged-OPLS-2005>
0

> <r_mmod_RMS_Derivative-OPLS-2005>
2.69878697395325

$$$$
50
                    3D
 Structure written by MMmdl.
178186  0  0  1  0            999 V2000
  -30.6762  -14.5494   20.4539 C   0  0  0  0  0  0
  -30.4344  -12.3191   19.4356 C   0  0  0  0  0  0
  -29.5035  -12.4510   18.2114 C   0  0  0  0  0  0
  -28.0216  -12.3356   18.6252 C   0  0  0  0  0  0
  -27.6587  -13.2047   19.8605 C   0  0  2  0  0  0
  -28.7115  -13.0520   20.9819 C   0  0  0  0  0  0
  -25.2628  -13.8159   20.5676 C   0  0  0  0  0  0
  -24.1867  -13.0431   20.9167 C   0  0  0  0  0  0
  -24.6419  -11.6905   20.8746 C   0  0  0  0  0  0
  -23.9085  -10.4290   21.0424 C   0  0  0  0  0  0
  -24.3635   -9.4192   21.9187 C   0  0  0  0  0  0
  -23.6294   -8.2241   22.0759 C   0  0  0  0  0  0
  -22.4265   -8.0300   21.3569 C   0  0  0  0  0  0
  -21.9932   -9.0266   20.4658 C   0  0  0  0  0  0
  -22.7277  -10.2131   20.3062 C   0  0  0  0  0  0
  -21.6851   -6.0744   22.5278 C   0  0  0  0  0  0
  -21.4016   -6.5647   23.8213 C   0  0  0  0  0  0
  -21.3643   -5.6791   24.9173 C   0  0  0  0  0  0
  -21.6045   -4.3052   24.7218 C   0  0  0  0  0  0
  -21.8832   -3.8151   23.4338 C   0  0  0  0  0  0
  -21.9201   -4.6974   22.3398 C   0  0  0  0  0  0
  -22.7888  -13.5226   21.1841 C   0  0  0  0  0  0
  -22.1666   -4.2162   21.0973 F   0  0  0  0  0  0
  -21.5626   -3.4533   25.7724 F   0  0  0  0  0  0
  -30.0247  -13.3530   20.3986 N   0  0  0  0  0  0
  -26.3035  -12.9308   20.3339 N   0  0  0  0  0  0
  -25.9344  -11.6474   20.5782 N   0  0  0  0  0  0
  -22.0554  -12.8177   22.0393 N   0  0  0  0  0  0
  -25.4385  -15.1872   20.4094 N   0  0  0  0  0  0
  -31.8844  -14.6398   20.2214 O   0  0  0  0  0  0
  -21.6640   -6.8888   21.4244 O   0  0  0  0  0  0
  -22.3551  -14.5525   20.6705 O   0  0  0  0  0  0
  -24.6152  -31.8652   23.2084 C   0  0  0  0  0  0
  -25.9040  -32.4804   23.8393 C   0  0  1  0  0  0
  -27.2400  -27.4128   20.1077 C   0  0  0  0  0  0
  -25.5885  -33.8610   24.2311 N   0  0  0  0  0  0
  -23.4071  -30.4869   21.5489 C   0  0  2  0  0  0
  -24.8576  -28.9485   20.1174 C   0  0  0  0  0  0
  -22.7424  -29.4627   22.4973 C   0  0  0  0  0  0
  -18.0269  -28.1383   22.8500 C   0  0  0  0  0  0
  -24.1479  -36.7310   23.2645 C   0  0  0  0  0  0
  -25.9394  -30.8244   21.3670 C   0  0  0  0  0  0
  -26.0192  -29.4594   20.7094 C   0  0  0  0  0  0
  -27.2162  -28.7027   20.6911 C   0  0  0  0  0  0
  -26.0589  -26.9176   19.5136 C   0  0  0  0  0  0
  -24.8731  -27.6766   19.5165 C   0  0  0  0  0  0
  -23.6193  -29.8161   20.1650 C   0  0  0  0  0  0
  -25.4109  -36.3103   24.0334 C   0  0  1  0  0  0
  -20.5864  -28.3667   23.1307 C   0  0  2  0  0  0
  -20.6747  -26.9390   22.5430 C   0  0  0  0  0  0
  -19.5725  -26.6376   21.5223 C   0  0  0  0  0  0
  -18.1902  -26.7932   22.1627 C   0  0  0  0  0  0
  -19.1526  -28.8848   23.2894 C   0  0  0  0  0  0
  -18.9454  -30.1451   23.8899 C   0  0  0  0  0  0
  -17.6458  -30.6587   24.0572 C   0  0  0  0  0  0
  -25.9044  -34.9470   23.5129 C   0  0  0  0  0  0
  -16.5344  -29.9093   23.6337 C   0  0  0  0  0  0
  -16.7263  -28.6516   23.0353 C   0  0  0  0  0  0
  -26.4479  -31.6617   25.0744 C   0  0  0  0  0  0
  -25.3750  -31.3714   26.1489 C   0  0  0  0  0  0
  -27.0350  -30.3056   24.6165 C   0  0  0  0  0  0
  -27.6034  -32.4366   25.7514 C   0  0  0  0  0  0
  -27.5578  -37.1802   24.8455 C   0  0  0  0  0  0
  -21.4144  -29.3026   22.3711 N   0  0  0  0  0  0
  -26.4287  -37.3789   23.9408 N   0  0  0  0  0  0
  -24.6716  -31.0727   22.0989 N   0  0  0  0  0  0
  -23.4195  -28.8163   23.3019 O   0  0  0  0  0  0
  -28.3956  -26.6517   20.1145 O   0  0  0  0  0  0
  -26.5608  -34.8926   22.4685 O   0  0  0  0  0  0
  -23.5339  -32.1411   23.7459 O   0  0  0  0  0  0
  -28.0565  -20.4056   24.0662 C   0  0  0  0  0  0
  -29.3944  -18.8543   22.2995 C   0  0  0  0  0  0
  -29.2700  -18.5169   23.6697 C   0  0  0  0  0  0
  -28.8766  -20.1425   21.9410 C   0  0  0  0  0  0
  -31.3312  -17.7238   24.9032 C   0  0  0  0  0  0
  -31.3593  -21.8606   20.8678 C   0  0  0  0  0  0
  -29.5125  -22.5381   18.1779 C   0  0  0  0  0  0
  -30.8032  -24.2738   19.3720 C   0  0  0  0  0  0
  -29.9401  -16.0970   18.7218 C   0  0  0  0  0  0
  -30.0862  -17.8654   21.3375 C   0  0  0  0  0  0
  -29.9722  -17.3255   24.3158 C   0  0  0  0  0  0
  -29.0338  -20.8827   20.5973 C   0  0  0  0  0  0
  -28.3045  -24.1333   19.7108 C   0  0  0  0  0  0
  -29.2458  -16.5746   21.0278 C   0  0  0  0  0  0
  -28.2944  -25.3350   20.7116 C   0  0  0  0  0  0
  -29.8663  -22.2224   20.6840 C   0  0  2  0  0  0
  -29.6194  -23.2856   19.5250 C   0  0  0  0  0  0
  -28.5989  -19.2947   24.5365 N   0  0  0  0  0  0
  -28.1775  -20.8669   22.8343 N   0  0  0  0  0  0
  -29.8954  -15.6137   20.1087 N   0  0  0  0  0  0
  -31.4767  -12.4208   19.1288 H   0  0  0  0  0  0
  -30.3492  -11.3282   19.8843 H   0  0  0  0  0  0
  -29.7436  -11.6844   17.4730 H   0  0  0  0  0  0
  -29.6708  -13.4052   17.7142 H   0  0  0  0  0  0
  -27.8261  -11.2845   18.8424 H   0  0  0  0  0  0
  -27.3802  -12.5971   17.7820 H   0  0  0  0  0  0
  -27.6766  -14.2385   19.5200 H   0  0  0  0  0  0
  -28.7058  -12.0327   21.3727 H   0  0  0  0  0  0
  -28.4904  -13.7064   21.8257 H   0  0  0  0  0  0
  -25.2790   -9.5635   22.4746 H   0  0  0  0  0  0
  -24.0010   -7.4612   22.7457 H   0  0  0  0  0  0
  -21.0884   -8.8796   19.8928 H   0  0  0  0  0  0
  -22.3780  -10.9673   19.6151 H   0  0  0  0  0  0
  -21.2013   -7.6154   23.9711 H   0  0  0  0  0  0
  -21.1446   -6.0527   25.9076 H   0  0  0  0  0  0
  -22.0629   -2.7618   23.2830 H   0  0  0  0  0  0
  -22.4188  -11.9801   22.4691 H   0  0  0  0  0  0
  -21.1180  -13.1171   22.2645 H   0  0  0  0  0  0
  -24.6810  -15.8507   20.5301 H   0  0  0  0  0  0
  -26.2992  -15.6197   20.0970 H   0  0  0  0  0  0
  -26.7102  -32.5515   23.1160 H   0  0  0  0  0  0
  -25.0015  -33.9787   25.0436 H   0  0  0  0  0  0
  -22.6952  -31.3027   21.4060 H   0  0  0  0  0  0
  -23.3751  -35.9626   23.3288 H   0  0  0  0  0  0
  -24.3561  -36.8962   22.2056 H   0  0  0  0  0  0
  -23.7226  -37.6504   23.6693 H   0  0  0  0  0  0
  -26.0569  -31.5919   20.6011 H   0  0  0  0  0  0
  -26.8230  -30.8719   21.9924 H   0  0  0  0  0  0
  -28.1161  -29.0966   21.1428 H   0  0  0  0  0  0
  -26.0545  -25.9426   19.0482 H   0  0  0  0  0  0
  -23.9768  -27.2744   19.0650 H   0  0  0  0  0  0
  -23.7297  -30.5914   19.4058 H   0  0  0  0  0  0
  -22.7431  -29.2366   19.8680 H   0  0  0  0  0  0
  -25.1273  -36.1965   25.0828 H   0  0  0  0  0  0
  -20.9941  -28.3234   24.1432 H   0  0  0  0  0  0
  -20.5636  -26.2268   23.3618 H   0  0  0  0  0  0
  -21.6613  -26.7407   22.1228 H   0  0  0  0  0  0
  -19.6873  -25.6289   21.1241 H   0  0  0  0  0  0
  -19.6674  -27.3195   20.6760 H   0  0  0  0  0  0
  -17.4171  -26.6692   21.4025 H   0  0  0  0  0  0
  -18.0286  -26.0078   22.9023 H   0  0  0  0  0  0
  -19.7931  -30.7262   24.2257 H   0  0  0  0  0  0
  -17.5023  -31.6271   24.5173 H   0  0  0  0  0  0
  -15.5349  -30.2998   23.7671 H   0  0  0  0  0  0
  -15.8660  -28.0844   22.7055 H   0  0  0  0  0  0
  -24.5895  -30.7097   25.7816 H   0  0  0  0  0  0
  -24.8981  -32.2873   26.4987 H   0  0  0  0  0  0
  -25.8102  -30.8833   27.0223 H   0  0  0  0  0  0
  -26.2925  -29.6776   24.1215 H   0  0  0  0  0  0
  -27.4107  -29.7320   25.4658 H   0  0  0  0  0  0
  -27.8761  -30.4362   23.9346 H   0  0  0  0  0  0
  -27.2619  -33.3642   26.2123 H   0  0  0  0  0  0
  -28.3833  -32.6977   25.0348 H   0  0  0  0  0  0
  -28.0734  -31.8495   26.5419 H   0  0  0  0  0  0
  -28.2568  -38.0127   24.7531 H   0  0  0  0  0  0
  -28.1106  -36.2651   24.6246 H   0  0  0  0  0  0
  -27.2293  -37.1411   25.8859 H   0  0  0  0  0  0
  -20.9299  -29.8783   21.6957 H   0  0  0  0  0  0
  -26.0169  -38.2854   24.1466 H   0  0  0  0  0  0
  -27.4984  -21.0179   24.7586 H   0  0  0  0  0  0
  -31.8367  -16.8623   25.3399 H   0  0  0  0  0  0
  -31.2150  -18.4783   25.6816 H   0  0  0  0  0  0
  -31.9820  -18.1369   24.1307 H   0  0  0  0  0  0
  -31.4935  -21.0993   21.6363 H   0  0  0  0  0  0
  -31.9504  -22.7191   21.1894 H   0  0  0  0  0  0
  -31.7990  -21.4760   19.9475 H   0  0  0  0  0  0
  -29.5055  -23.2312   17.3358 H   0  0  0  0  0  0
  -28.5972  -21.9500   18.1074 H   0  0  0  0  0  0
  -30.3531  -21.8598   18.0267 H   0  0  0  0  0  0
  -30.5828  -25.0402   18.6272 H   0  0  0  0  0  0
  -31.7137  -23.7774   19.0362 H   0  0  0  0  0  0
  -31.0406  -24.7871   20.3032 H   0  0  0  0  0  0
  -28.9399  -16.0669   18.2910 H   0  0  0  0  0  0
  -30.5872  -15.4955   18.0797 H   0  0  0  0  0  0
  -30.3044  -17.1200   18.6518 H   0  0  0  0  0  0
  -31.0477  -17.5803   21.7677 H   0  0  0  0  0  0
  -30.3494  -18.3812   20.4185 H   0  0  0  0  0  0
  -30.1297  -16.5049   23.6241 H   0  0  0  0  0  0
  -29.3390  -16.9175   25.1037 H   0  0  0  0  0  0
  -28.0247  -21.1069   20.2530 H   0  0  0  0  0  0
  -29.4502  -20.2280   19.8343 H   0  0  0  0  0  0
  -27.9894  -24.5274   18.7433 H   0  0  0  0  0  0
  -27.5056  -23.4504   20.0030 H   0  0  0  0  0  0
  -28.2927  -16.8702   20.5871 H   0  0  0  0  0  0
  -28.9662  -16.0430   21.9341 H   0  0  0  0  0  0
  -29.1029  -25.2269   21.4337 H   0  0  0  0  0  0
  -27.3893  -25.2740   21.3189 H   0  0  0  0  0  0
  -29.5700  -22.7259   21.6049 H   0  0  0  0  0  0
  1 25  1  0  0  0
  1 30  2  0  0  0
  1 90  1  0  0  0
  2  3  1  0  0  0
  2 25  1  0  0  0
  2 91  1  0  0  0
  2 92  1  0  0  0
  3  4  1  0  0  0
  3 93  1  0  0  0
  3 94  1  0  0  0
  4  5  1  0  0  0
  4 95  1  0  0  0
  4 96  1  0  0  0
  5  6  1  0  0  0
  5 26  1  0  0  0
  5 97  1  0  0  0
  6 25  1  0  0  0
  6 98  1  0  0  0
  6 99  1  0  0  0
  7  8  2  0  0  0
  7 26  1  0  0  0
  7 29  1  0  0  0
  8  9  1  0  0  0
  8 22  1  0  0  0
  9 10  1  0  0  0
  9 27  2  0  0  0
 10 11  2  0  0  0
 10 15  1  0  0  0
 11 12  1  0  0  0
 11100  1  0  0  0
 12 13  2  0  0  0
 12101  1  0  0  0
 13 14  1  0  0  0
 13 31  1  0  0  0
 14 15  2  0  0  0
 14102  1  0  0  0
 15103  1  0  0  0
 16 17  2  0  0  0
 16 21  1  0  0  0
 16 31  1  0  0  0
 17 18  1  0  0  0
 17104  1  0  0  0
 18 19  2  0  0  0
 18105  1  0  0  0
 19 20  1  0  0  0
 19 24  1  0  0  0
 20 21  2  0  0  0
 20106  1  0  0  0
 21 23  1  0  0  0
 22 28  1  0  0  0
 22 32  2  0  0  0
 26 27  1  0  0  0
 28107  1  0  0  0
 28108  1  0  0  0
 29109  1  0  0  0
 29110  1  0  0  0
 33 34  1  0  0  0
 33 66  1  0  0  0
 33 70  2  0  0  0
 34 36  1  0  0  0
 34 59  1  0  0  0
 34111  1  0  0  0
 35 44  2  0  0  0
 35 45  1  0  0  0
 35 68  1  0  0  0
 36 56  1  0  0  0
 36112  1  0  0  0
 37 39  1  0  0  0
 37 47  1  0  0  0
 37 66  1  0  0  0
 37113  1  0  0  0
 38 43  2  0  0  0
 38 46  1  0  0  0
 38 47  1  0  0  0
 39 64  1  0  0  0
 39 67  2  0  0  0
 40 52  1  0  0  0
 40 53  2  0  0  0
 40 58  1  0  0  0
 41114  1  0  0  0
 41115  1  0  0  0
 41116  1  0  0  0
 41 48  1  0  0  0
 42 43  1  0  0  0
 42 66  1  0  0  0
 42117  1  0  0  0
 42118  1  0  0  0
 43 44  1  0  0  0
 44119  1  0  0  0
 45 46  2  0  0  0
 45120  1  0  0  0
 46121  1  0  0  0
 47122  1  0  0  0
 47123  1  0  0  0
 48 56  1  0  0  0
 48 65  1  0  0  0
 48124  1  0  0  0
 49 50  1  0  0  0
 49 53  1  0  0  0
 49 64  1  0  0  0
 49125  1  0  0  0
 50 51  1  0  0  0
 50126  1  0  0  0
 50127  1  0  0  0
 51 52  1  0  0  0
 51128  1  0  0  0
 51129  1  0  0  0
 52130  1  0  0  0
 52131  1  0  0  0
 53 54  1  0  0  0
 54 55  2  0  0  0
 54132  1  0  0  0
 55 57  1  0  0  0
 55133  1  0  0  0
 56 69  2  0  0  0
 57 58  2  0  0  0
 57134  1  0  0  0
 58135  1  0  0  0
 59 60  1  0  0  0
 59 61  1  0  0  0
 59 62  1  0  0  0
 60136  1  0  0  0
 60137  1  0  0  0
 60138  1  0  0  0
 61139  1  0  0  0
 61140  1  0  0  0
 61141  1  0  0  0
 62142  1  0  0  0
 62143  1  0  0  0
 62144  1  0  0  0
 63 65  1  0  0  0
 63145  1  0  0  0
 63146  1  0  0  0
 63147  1  0  0  0
 64148  1  0  0  0
 65149  1  0  0  0
 68 85  1  0  0  0
 71 88  2  0  0  0
 71 89  1  0  0  0
 71150  1  0  0  0
 72 73  2  0  0  0
 72 74  1  0  0  0
 72 80  1  0  0  0
 73 81  1  0  0  0
 73 88  1  0  0  0
 74 82  1  0  0  0
 74 89  2  0  0  0
 75 81  1  0  0  0
 75151  1  0  0  0
 75152  1  0  0  0
 75153  1  0  0  0
 76154  1  0  0  0
 76155  1  0  0  0
 76156  1  0  0  0
 76 86  1  0  0  0
 77157  1  0  0  0
 77158  1  0  0  0
 77159  1  0  0  0
 77 87  1  0  0  0
 78 87  1  0  0  0
 78160  1  0  0  0
 78161  1  0  0  0
 78162  1  0  0  0
 79 90  1  0  0  0
 79163  1  0  0  0
 79164  1  0  0  0
 79165  1  0  0  0
 80 84  1  0  0  0
 80166  1  0  0  0
 80167  1  0  0  0
 81168  1  0  0  0
 81169  1  0  0  0
 82 86  1  0  0  0
 82170  1  0  0  0
 82171  1  0  0  0
 83 85  1  0  0  0
 83 87  1  0  0  0
 83172  1  0  0  0
 83173  1  0  0  0
 84 90  1  0  0  0
 84174  1  0  0  0
 84175  1  0  0  0
 85176  1  0  0  0
 85177  1  0  0  0
 86 87  1  0  0  0
 86178  1  0  0  0
M  ISO  4   1 100  68 101  85 101  90 100
M  END
> <chiral flag>
0

> <version>
0

> <s_m_source_file>
/data/baiqing/PycharmProjects/Reinvent-master-3.2/result/LINK_invent/BTK/process_docking_weight1_custom_sum_contain_oxygen_bond_distance_aromatic_linkinvent_7_9_3/rearranged_h_0065.sdf

> <i_m_source_file_index>
48

> <r_mmod_Potential_Energy-OPLS-2005>
-162.011611938477

> <r_mmod_Stretch_Energy-OPLS-2005>
56.8979797363281

> <r_mmod_Bend_Energy-OPLS-2005>
132.506927490234

> <r_mmod_Torsional_Energy-OPLS-2005>
344.486724853516

> <r_mmod_Improper_Torsional_Energy-OPLS-2005>
24.5524044036865

> <r_mmod_Van_der_Waal_Energy-OPLS-2005>
156.095565795898

> <r_mmod_Electrostatic_Energy-OPLS-2005>
-699.972534179688

> <r_mmod_Solvation_Energy-OPLS-2005>
-204.56315612793

> <b_mmod_Minimization_Converged-OPLS-2005>
0

> <r_mmod_RMS_Derivative-OPLS-2005>
2.40006852149963

$$$$
51
                    3D
 Structure written by MMmdl.
184192  0  0  1  0            999 V2000
  -30.6857  -14.5258   20.4222 C   0  0  0  0  0  0
  -30.4216  -12.2937   19.4386 C   0  0  0  0  0  0
  -29.4982  -12.4312   18.2098 C   0  0  0  0  0  0
  -28.0133  -12.3319   18.6194 C   0  0  0  0  0  0
  -27.6503  -13.1985   19.8590 C   0  0  2  0  0  0
  -28.7059  -13.0734   20.9815 C   0  0  0  0  0  0
  -25.2600  -13.8108   20.5706 C   0  0  0  0  0  0
  -24.1847  -13.0395   20.9180 C   0  0  0  0  0  0
  -24.6389  -11.6870   20.8723 C   0  0  0  0  0  0
  -23.9063  -10.4270   21.0376 C   0  0  0  0  0  0
  -24.3627   -9.4194   21.9168 C   0  0  0  0  0  0
  -23.6298   -8.2240   22.0748 C   0  0  0  0  0  0
  -22.4272   -8.0289   21.3551 C   0  0  0  0  0  0
  -21.9904   -9.0247   20.4626 C   0  0  0  0  0  0
  -22.7228  -10.2126   20.3021 C   0  0  0  0  0  0
  -21.6852   -6.0740   22.5281 C   0  0  0  0  0  0
  -21.4018   -6.5635   23.8222 C   0  0  0  0  0  0
  -21.3663   -5.6780   24.9178 C   0  0  0  0  0  0
  -21.6057   -4.3047   24.7211 C   0  0  0  0  0  0
  -21.8838   -3.8151   23.4326 C   0  0  0  0  0  0
  -21.9205   -4.6975   22.3391 C   0  0  0  0  0  0
  -22.7889  -13.5213   21.1867 C   0  0  0  0  0  0
  -22.1669   -4.2179   21.0959 F   0  0  0  0  0  0
  -21.5622   -3.4523   25.7717 F   0  0  0  0  0  0
  -30.0254  -13.3371   20.3914 N   0  0  0  0  0  0
  -26.3005  -12.9244   20.3360 N   0  0  0  0  0  0
  -25.9306  -11.6421   20.5770 N   0  0  0  0  0  0
  -22.0566  -12.8157   22.0399 N   0  0  0  0  0  0
  -25.4332  -15.1824   20.4137 N   0  0  0  0  0  0
  -31.8966  -14.6282   20.2224 O   0  0  0  0  0  0
  -21.6641   -6.8880   21.4241 O   0  0  0  0  0  0
  -22.3581  -14.5540   20.6736 O   0  0  0  0  0  0
  -24.6154  -31.8686   23.2099 C   0  0  0  0  0  0
  -25.9050  -32.4821   23.8402 C   0  0  1  0  0  0
  -27.2368  -27.4482   20.0807 C   0  0  0  0  0  0
  -25.5896  -33.8625   24.2349 N   0  0  0  0  0  0
  -23.4023  -30.4942   21.5492 C   0  0  2  0  0  0
  -24.8491  -28.9622   20.1099 C   0  0  0  0  0  0
  -22.7406  -29.4679   22.4983 C   0  0  0  0  0  0
  -18.0268  -28.1375   22.8503 C   0  0  0  0  0  0
  -24.1486  -36.7322   23.2637 C   0  0  0  0  0  0
  -25.9307  -30.8357   21.3622 C   0  0  0  0  0  0
  -26.0093  -29.4730   20.7070 C   0  0  0  0  0  0
  -27.2031  -28.7175   20.6994 C   0  0  0  0  0  0
  -26.0533  -26.9373   19.5067 C   0  0  0  0  0  0
  -24.8649  -27.6905   19.5100 C   0  0  0  0  0  0
  -23.6103  -29.8277   20.1632 C   0  0  0  0  0  0
  -25.4102  -36.3120   24.0347 C   0  0  1  0  0  0
  -20.5859  -28.3673   23.1301 C   0  0  2  0  0  0
  -20.6755  -26.9400   22.5425 C   0  0  0  0  0  0
  -19.5737  -26.6382   21.5209 C   0  0  0  0  0  0
  -18.1912  -26.7928   22.1610 C   0  0  0  0  0  0
  -19.1521  -28.8837   23.2913 C   0  0  0  0  0  0
  -18.9444  -30.1434   23.8941 C   0  0  0  0  0  0
  -17.6450  -30.6585   24.0565 C   0  0  0  0  0  0
  -25.9032  -34.9482   23.5147 C   0  0  0  0  0  0
  -16.5339  -29.9093   23.6317 C   0  0  0  0  0  0
  -16.7256  -28.6493   23.0365 C   0  0  0  0  0  0
  -26.4483  -31.6601   25.0743 C   0  0  0  0  0  0
  -25.3752  -31.3668   26.1489 C   0  0  0  0  0  0
  -27.0322  -30.3038   24.6114 C   0  0  0  0  0  0
  -27.6070  -32.4302   25.7497 C   0  0  0  0  0  0
  -27.5585  -37.1821   24.8463 C   0  0  0  0  0  0
  -21.4131  -29.3045   22.3709 N   0  0  0  0  0  0
  -26.4293  -37.3801   23.9414 N   0  0  0  0  0  0
  -24.6675  -31.0806   22.0989 N   0  0  0  0  0  0
  -23.4162  -28.8211   23.3022 O   0  0  0  0  0  0
  -28.3737  -26.6777   20.1541 O   0  0  0  0  0  0
  -26.5593  -34.8928   22.4702 O   0  0  0  0  0  0
  -23.5356  -32.1436   23.7510 O   0  0  0  0  0  0
  -29.2580  -21.6952   21.8794 C   0  0  0  0  0  0
  -29.4396  -21.2798   20.5456 C   0  0  0  0  0  0
  -29.6455  -20.7734   22.8881 C   0  0  0  0  0  0
  -30.2932  -19.2679   21.2612 C   0  0  0  0  0  0
  -27.8672  -25.8295   16.8478 C   0  0  0  0  0  0
  -27.9060  -21.0426   24.7029 C   0  0  0  0  0  0
  -30.1232  -22.2771   24.9177 C   0  0  0  0  0  0
  -30.0032  -19.8350   25.2515 C   0  0  0  0  0  0
  -30.9184  -24.7585   17.1240 C   0  0  0  0  0  0
  -29.0825  -23.2023   16.5659 C   0  0  0  0  0  0
  -29.7337  -15.9715   18.7264 C   0  0  0  0  0  0
  -28.9871  -22.1535   19.3702 C   0  0  0  0  0  0
  -30.8057  -17.8611   20.9351 C   0  0  0  0  0  0
  -30.0320  -23.2061   18.9064 C   0  0  0  0  0  0
  -29.7105  -16.7564   21.0407 C   0  0  0  0  0  0
  -29.1135  -26.3932   18.9669 C   0  0  0  0  0  0
  -28.5737  -25.2218   18.0840 C   0  0  2  0  0  0
  -29.4192  -20.9993   24.4055 C   0  0  0  0  0  0
  -29.6320  -24.1138   17.6922 C   0  0  0  0  0  0
  -29.9654  -20.0668   20.2476 N   0  0  0  0  0  0
  -30.1518  -19.5642   22.5448 N   0  0  0  0  0  0
  -29.8983  -15.5970   20.1431 N   0  0  0  0  0  0
  -28.5470  -23.2435   22.2031 Cl  0  0  0  0  0  0
  -31.4671  -12.3773   19.1388 H   0  0  0  0  0  0
  -30.3153  -11.3096   19.8973 H   0  0  0  0  0  0
  -29.7267  -11.6455   17.4893 H   0  0  0  0  0  0
  -29.6884  -13.3709   17.6936 H   0  0  0  0  0  0
  -27.8032  -11.2825   18.8329 H   0  0  0  0  0  0
  -27.3784  -12.6011   17.7753 H   0  0  0  0  0  0
  -27.6415  -14.2285   19.5206 H   0  0  0  0  0  0
  -28.6902  -12.0754   21.4204 H   0  0  0  0  0  0
  -28.4912  -13.7785   21.7890 H   0  0  0  0  0  0
  -25.2780   -9.5668   22.4744 H   0  0  0  0  0  0
  -24.0032   -7.4604   22.7425 H   0  0  0  0  0  0
  -21.0871   -8.8724   19.8885 H   0  0  0  0  0  0
  -22.3687  -10.9665   19.6127 H   0  0  0  0  0  0
  -21.1998   -7.6145   23.9732 H   0  0  0  0  0  0
  -21.1463   -6.0500   25.9082 H   0  0  0  0  0  0
  -22.0612   -2.7617   23.2810 H   0  0  0  0  0  0
  -22.4194  -11.9754   22.4653 H   0  0  0  0  0  0
  -21.1192  -13.1136   22.2681 H   0  0  0  0  0  0
  -24.6661  -15.8368   20.5219 H   0  0  0  0  0  0
  -26.2993  -15.6242   20.1292 H   0  0  0  0  0  0
  -26.7130  -32.5546   23.1183 H   0  0  0  0  0  0
  -25.0098  -33.9775   25.0519 H   0  0  0  0  0  0
  -22.6936  -31.3134   21.4090 H   0  0  0  0  0  0
  -23.3758  -35.9649   23.3304 H   0  0  0  0  0  0
  -24.3588  -36.8920   22.2052 H   0  0  0  0  0  0
  -23.7215  -37.6516   23.6646 H   0  0  0  0  0  0
  -26.0442  -31.6004   20.5932 H   0  0  0  0  0  0
  -26.8163  -30.8887   21.9824 H   0  0  0  0  0  0
  -28.0961  -29.0955   21.1792 H   0  0  0  0  0  0
  -26.0296  -25.9464   19.0803 H   0  0  0  0  0  0
  -23.9673  -27.2804   19.0650 H   0  0  0  0  0  0
  -23.7204  -30.6017   19.4022 H   0  0  0  0  0  0
  -22.7332  -29.2494   19.8669 H   0  0  0  0  0  0
  -25.1280  -36.1998   25.0841 H   0  0  0  0  0  0
  -20.9966  -28.3240   24.1409 H   0  0  0  0  0  0
  -20.5623  -26.2285   23.3621 H   0  0  0  0  0  0
  -21.6632  -26.7440   22.1224 H   0  0  0  0  0  0
  -19.6900  -25.6289   21.1232 H   0  0  0  0  0  0
  -19.6674  -27.3200   20.6735 H   0  0  0  0  0  0
  -17.4187  -26.6697   21.3999 H   0  0  0  0  0  0
  -18.0311  -26.0057   22.8983 H   0  0  0  0  0  0
  -19.7928  -30.7234   24.2346 H   0  0  0  0  0  0
  -17.5004  -31.6272   24.5150 H   0  0  0  0  0  0
  -15.5341  -30.3002   23.7620 H   0  0  0  0  0  0
  -15.8650  -28.0802   22.7095 H   0  0  0  0  0  0
  -24.5964  -30.6972   25.7818 H   0  0  0  0  0  0
  -24.8921  -32.2809   26.4957 H   0  0  0  0  0  0
  -25.8128  -30.8837   27.0236 H   0  0  0  0  0  0
  -26.2872  -29.6769   24.1202 H   0  0  0  0  0  0
  -27.4120  -29.7295   25.4574 H   0  0  0  0  0  0
  -27.8698  -30.4361   23.9259 H   0  0  0  0  0  0
  -27.2726  -33.3602   26.2099 H   0  0  0  0  0  0
  -28.3879  -32.6829   25.0317 H   0  0  0  0  0  0
  -28.0749  -31.8406   26.5386 H   0  0  0  0  0  0
  -28.2604  -38.0124   24.7530 H   0  0  0  0  0  0
  -28.1082  -36.2653   24.6269 H   0  0  0  0  0  0
  -27.2319  -37.1448   25.8872 H   0  0  0  0  0  0
  -20.9279  -29.8789   21.6963 H   0  0  0  0  0  0
  -26.0193  -38.2880   24.1412 H   0  0  0  0  0  0
  -27.1992  -26.6448   17.1183 H   0  0  0  0  0  0
  -27.2536  -25.0982   16.3223 H   0  0  0  0  0  0
  -28.5858  -26.2394   16.1402 H   0  0  0  0  0  0
  -27.4028  -21.8601   24.1917 H   0  0  0  0  0  0
  -27.7074  -21.1653   25.7670 H   0  0  0  0  0  0
  -27.4220  -20.1222   24.3773 H   0  0  0  0  0  0
  -29.7179  -23.1936   24.5021 H   0  0  0  0  0  0
  -31.1881  -22.2630   24.6863 H   0  0  0  0  0  0
  -30.0280  -22.3743   25.9997 H   0  0  0  0  0  0
  -29.5502  -18.8784   24.9881 H   0  0  0  0  0  0
  -29.8247  -19.9806   26.3181 H   0  0  0  0  0  0
  -31.0811  -19.7390   25.1121 H   0  0  0  0  0  0
  -31.6262  -23.9989   16.7907 H   0  0  0  0  0  0
  -31.4487  -25.3697   17.8528 H   0  0  0  0  0  0
  -30.7084  -25.3925   16.2619 H   0  0  0  0  0  0
  -29.7226  -22.3332   16.4103 H   0  0  0  0  0  0
  -29.0366  -23.7203   15.6082 H   0  0  0  0  0  0
  -28.0766  -22.8402   16.7803 H   0  0  0  0  0  0
  -29.6243  -17.0467   18.5770 H   0  0  0  0  0  0
  -28.8455  -15.5188   18.2945 H   0  0  0  0  0  0
  -30.5876  -15.6567   18.1218 H   0  0  0  0  0  0
  -28.0495  -22.6427   19.6263 H   0  0  0  0  0  0
  -28.7373  -21.4797   18.5508 H   0  0  0  0  0  0
  -31.6331  -17.6189   21.6036 H   0  0  0  0  0  0
  -31.2470  -17.8926   19.9387 H   0  0  0  0  0  0
  -30.9386  -22.6532   18.6564 H   0  0  0  0  0  0
  -30.3078  -23.8286   19.7586 H   0  0  0  0  0  0
  -28.7467  -17.2008   20.7895 H   0  0  0  0  0  0
  -29.6147  -16.4252   22.0747 H   0  0  0  0  0  0
  -29.2449  -27.3064   18.3843 H   0  0  0  0  0  0
  -30.1030  -26.1501   19.3456 H   0  0  0  0  0  0
  -27.8043  -24.7145   18.6634 H   0  0  0  0  0  0
  1 25  1  0  0  0
  1 30  2  0  0  0
  1 92  1  0  0  0
  2  3  1  0  0  0
  2 25  1  0  0  0
  2 94  1  0  0  0
  2 95  1  0  0  0
  3  4  1  0  0  0
  3 96  1  0  0  0
  3 97  1  0  0  0
  4  5  1  0  0  0
  4 98  1  0  0  0
  4 99  1  0  0  0
  5  6  1  0  0  0
  5 26  1  0  0  0
  5100  1  0  0  0
  6 25  1  0  0  0
  6101  1  0  0  0
  6102  1  0  0  0
  7  8  2  0  0  0
  7 26  1  0  0  0
  7 29  1  0  0  0
  8  9  1  0  0  0
  8 22  1  0  0  0
  9 10  1  0  0  0
  9 27  2  0  0  0
 10 11  2  0  0  0
 10 15  1  0  0  0
 11 12  1  0  0  0
 11103  1  0  0  0
 12 13  2  0  0  0
 12104  1  0  0  0
 13 14  1  0  0  0
 13 31  1  0  0  0
 14 15  2  0  0  0
 14105  1  0  0  0
 15106  1  0  0  0
 16 17  2  0  0  0
 16 21  1  0  0  0
 16 31  1  0  0  0
 17 18  1  0  0  0
 17107  1  0  0  0
 18 19  2  0  0  0
 18108  1  0  0  0
 19 20  1  0  0  0
 19 24  1  0  0  0
 20 21  2  0  0  0
 20109  1  0  0  0
 21 23  1  0  0  0
 22 28  1  0  0  0
 22 32  2  0  0  0
 26 27  1  0  0  0
 28110  1  0  0  0
 28111  1  0  0  0
 29112  1  0  0  0
 29113  1  0  0  0
 33 34  1  0  0  0
 33 66  1  0  0  0
 33 70  2  0  0  0
 34 36  1  0  0  0
 34 59  1  0  0  0
 34114  1  0  0  0
 35 44  2  0  0  0
 35 45  1  0  0  0
 35 68  1  0  0  0
 36 56  1  0  0  0
 36115  1  0  0  0
 37 39  1  0  0  0
 37 47  1  0  0  0
 37 66  1  0  0  0
 37116  1  0  0  0
 38 43  2  0  0  0
 38 46  1  0  0  0
 38 47  1  0  0  0
 39 64  1  0  0  0
 39 67  2  0  0  0
 40 52  1  0  0  0
 40 53  2  0  0  0
 40 58  1  0  0  0
 41117  1  0  0  0
 41118  1  0  0  0
 41119  1  0  0  0
 41 48  1  0  0  0
 42 43  1  0  0  0
 42 66  1  0  0  0
 42120  1  0  0  0
 42121  1  0  0  0
 43 44  1  0  0  0
 44122  1  0  0  0
 45 46  2  0  0  0
 45123  1  0  0  0
 46124  1  0  0  0
 47125  1  0  0  0
 47126  1  0  0  0
 48 56  1  0  0  0
 48 65  1  0  0  0
 48127  1  0  0  0
 49 50  1  0  0  0
 49 53  1  0  0  0
 49 64  1  0  0  0
 49128  1  0  0  0
 50 51  1  0  0  0
 50129  1  0  0  0
 50130  1  0  0  0
 51 52  1  0  0  0
 51131  1  0  0  0
 51132  1  0  0  0
 52133  1  0  0  0
 52134  1  0  0  0
 53 54  1  0  0  0
 54 55  2  0  0  0
 54135  1  0  0  0
 55 57  1  0  0  0
 55136  1  0  0  0
 56 69  2  0  0  0
 57 58  2  0  0  0
 57137  1  0  0  0
 58138  1  0  0  0
 59 60  1  0  0  0
 59 61  1  0  0  0
 59 62  1  0  0  0
 60139  1  0  0  0
 60140  1  0  0  0
 60141  1  0  0  0
 61142  1  0  0  0
 61143  1  0  0  0
 61144  1  0  0  0
 62145  1  0  0  0
 62146  1  0  0  0
 62147  1  0  0  0
 63 65  1  0  0  0
 63148  1  0  0  0
 63149  1  0  0  0
 63150  1  0  0  0
 64151  1  0  0  0
 65152  1  0  0  0
 68 86  1  0  0  0
 71 72  2  0  0  0
 71 73  1  0  0  0
 71 93  1  0  0  0
 72 82  1  0  0  0
 72 90  1  0  0  0
 73 88  1  0  0  0
 73 91  2  0  0  0
 74 83  1  0  0  0
 74 90  2  0  0  0
 74 91  1  0  0  0
 75153  1  0  0  0
 75154  1  0  0  0
 75155  1  0  0  0
 75 87  1  0  0  0
 76156  1  0  0  0
 76157  1  0  0  0
 76158  1  0  0  0
 76 88  1  0  0  0
 77 88  1  0  0  0
 77159  1  0  0  0
 77160  1  0  0  0
 77161  1  0  0  0
 78 88  1  0  0  0
 78162  1  0  0  0
 78163  1  0  0  0
 78164  1  0  0  0
 79165  1  0  0  0
 79166  1  0  0  0
 79167  1  0  0  0
 79 89  1  0  0  0
 80 89  1  0  0  0
 80168  1  0  0  0
 80169  1  0  0  0
 80170  1  0  0  0
 81 92  1  0  0  0
 81171  1  0  0  0
 81172  1  0  0  0
 81173  1  0  0  0
 82 84  1  0  0  0
 82174  1  0  0  0
 82175  1  0  0  0
 83 85  1  0  0  0
 83176  1  0  0  0
 83177  1  0  0  0
 84 89  1  0  0  0
 84178  1  0  0  0
 84179  1  0  0  0
 85 92  1  0  0  0
 85180  1  0  0  0
 85181  1  0  0  0
 86 87  1  0  0  0
 86182  1  0  0  0
 86183  1  0  0  0
 87 89  1  0  0  0
 87184  1  0  0  0
M  ISO  4   1 100  68 101  86 101  92 100
M  END
> <chiral flag>
0

> <version>
0

> <s_m_source_file>
/data/baiqing/PycharmProjects/Reinvent-master-3.2/result/LINK_invent/BTK/process_docking_weight1_custom_sum_contain_oxygen_bond_distance_aromatic_linkinvent_7_9_3/rearranged_h_0065.sdf

> <i_m_source_file_index>
49

> <r_mmod_Potential_Energy-OPLS-2005>
-96.3701171875

> <r_mmod_Stretch_Energy-OPLS-2005>
48.8136596679688

> <r_mmod_Bend_Energy-OPLS-2005>
131.605819702148

> <r_mmod_Torsional_Energy-OPLS-2005>
348.146881103516

> <r_mmod_Improper_Torsional_Energy-OPLS-2005>
19.5969181060791

> <r_mmod_Van_der_Waal_Energy-OPLS-2005>
172.328689575195

> <r_mmod_Electrostatic_Energy-OPLS-2005>
-657.541687011719

> <r_mmod_Solvation_Energy-OPLS-2005>
-187.705368041992

> <b_mmod_Minimization_Converged-OPLS-2005>
0

> <r_mmod_RMS_Derivative-OPLS-2005>
3.39032602310181

$$$$
52
                    3D
 Structure written by MMmdl.
165173  0  0  1  0            999 V2000
  -30.5903  -14.6635   20.5344 C   0  0  0  0  0  0
  -30.4578  -12.4036   19.4521 C   0  0  0  0  0  0
  -29.5190  -12.5135   18.2296 C   0  0  0  0  0  0
  -28.0367  -12.3519   18.6319 C   0  0  0  0  0  0
  -27.6528  -13.2167   19.8635 C   0  0  2  0  0  0
  -28.6829  -13.0403   20.9916 C   0  0  0  0  0  0
  -25.2549  -13.8185   20.5665 C   0  0  0  0  0  0
  -24.1810  -13.0428   20.9190 C   0  0  0  0  0  0
  -24.6396  -11.6917   20.8741 C   0  0  0  0  0  0
  -23.9060  -10.4294   21.0412 C   0  0  0  0  0  0
  -24.3597   -9.4204   21.9186 C   0  0  0  0  0  0
  -23.6278   -8.2231   22.0749 C   0  0  0  0  0  0
  -22.4256   -8.0270   21.3545 C   0  0  0  0  0  0
  -21.9894   -9.0249   20.4647 C   0  0  0  0  0  0
  -22.7225  -10.2139   20.3067 C   0  0  0  0  0  0
  -21.6858   -6.0723   22.5278 C   0  0  0  0  0  0
  -21.4013   -6.5625   23.8210 C   0  0  0  0  0  0
  -21.3666   -5.6783   24.9179 C   0  0  0  0  0  0
  -21.6049   -4.3044   24.7235 C   0  0  0  0  0  0
  -21.8823   -3.8133   23.4353 C   0  0  0  0  0  0
  -21.9198   -4.6951   22.3407 C   0  0  0  0  0  0
  -22.7837  -13.5234   21.1870 C   0  0  0  0  0  0
  -22.1659   -4.2133   21.0987 F   0  0  0  0  0  0
  -21.5640   -3.4527   25.7748 F   0  0  0  0  0  0
  -29.9958  -13.3853   20.4437 N   0  0  0  0  0  0
  -26.2977  -12.9368   20.3290 N   0  0  0  0  0  0
  -25.9314  -11.6525   20.5721 N   0  0  0  0  0  0
  -22.0493  -12.8219   22.0442 N   0  0  0  0  0  0
  -25.4226  -15.1885   20.4097 N   0  0  0  0  0  0
  -31.7535  -14.8958   20.1961 O   0  0  0  0  0  0
  -21.6626   -6.8853   21.4232 O   0  0  0  0  0  0
  -22.3508  -14.5523   20.6724 O   0  0  0  0  0  0
  -24.6271  -31.8589   23.2009 C   0  0  0  0  0  0
  -25.9130  -32.4755   23.8330 C   0  0  1  0  0  0
  -27.2148  -27.2918   20.1108 C   0  0  0  0  0  0
  -25.5934  -33.8558   24.2236 N   0  0  0  0  0  0
  -23.4185  -30.4830   21.5465 C   0  0  2  0  0  0
  -24.8651  -28.9387   20.1116 C   0  0  0  0  0  0
  -22.7475  -29.4624   22.4974 C   0  0  0  0  0  0
  -18.0335  -28.1351   22.8517 C   0  0  0  0  0  0
  -24.1492  -36.7285   23.2638 C   0  0  0  0  0  0
  -25.9684  -30.7821   21.3789 C   0  0  0  0  0  0
  -26.0387  -29.4106   20.7116 C   0  0  0  0  0  0
  -27.2107  -28.5957   20.7036 C   0  0  0  0  0  0
  -26.0096  -26.8795   19.4954 C   0  0  0  0  0  0
  -24.8541  -27.6788   19.4975 C   0  0  0  0  0  0
  -23.6322  -29.8162   20.1619 C   0  0  0  0  0  0
  -25.4121  -36.3050   24.0309 C   0  0  1  0  0  0
  -20.5919  -28.3649   23.1363 C   0  0  2  0  0  0
  -20.6861  -26.9374   22.5438 C   0  0  0  0  0  0
  -19.5835  -26.6367   21.5254 C   0  0  0  0  0  0
  -18.1991  -26.7894   22.1642 C   0  0  0  0  0  0
  -19.1581  -28.8795   23.2940 C   0  0  0  0  0  0
  -18.9485  -30.1384   23.9004 C   0  0  0  0  0  0
  -17.6481  -30.6528   24.0629 C   0  0  0  0  0  0
  -25.9072  -34.9423   23.5075 C   0  0  0  0  0  0
  -16.5370  -29.9048   23.6327 C   0  0  0  0  0  0
  -16.7327  -28.6484   23.0337 C   0  0  0  0  0  0
  -26.4487  -31.6581   25.0729 C   0  0  0  0  0  0
  -25.3702  -31.3788   26.1438 C   0  0  0  0  0  0
  -27.0348  -30.2988   24.6253 C   0  0  0  0  0  0
  -27.6010  -32.4351   25.7520 C   0  0  0  0  0  0
  -27.5575  -37.1797   24.8461 C   0  0  0  0  0  0
  -21.4176  -29.3077   22.3797 N   0  0  0  0  0  0
  -26.4285  -37.3758   23.9385 N   0  0  0  0  0  0
  -24.6904  -31.0579   22.0968 N   0  0  0  0  0  0
  -23.4215  -28.8102   23.2968 O   0  0  0  0  0  0
  -28.3451  -26.4516   20.1838 O   0  0  0  0  0  0
  -26.5631  -34.8897   22.4637 O   0  0  0  0  0  0
  -23.5428  -32.1368   23.7347 O   0  0  0  0  0  0
  -30.3151  -20.5195   20.5080 C   0  0  0  0  0  0
  -29.0030  -20.9485   20.2055 C   0  0  0  0  0  0
  -28.0603  -19.8827   20.2666 C   0  0  0  0  0  0
  -29.6639  -18.3114   20.9177 C   0  0  0  0  0  0
  -26.5939  -20.0825   19.9287 C   0  0  0  0  0  0
  -29.7230  -18.0842   23.8999 C   0  0  0  0  0  0
  -30.2724  -15.6563   23.8121 C   0  0  0  0  0  0
  -27.9906  -16.4604   23.1608 C   0  0  0  0  0  0
  -28.6854  -22.3885   19.6147 C   0  0  0  0  0  0
  -28.7154  -23.7581   20.4506 C   0  0  0  0  0  0
  -28.3990  -25.0814   19.5916 C   0  0  0  0  0  0
  -30.0111  -16.9137   21.5939 C   0  0  1  0  0  0
  -29.5045  -16.7871   23.0883 C   0  0  0  0  0  0
  -30.6248  -19.2441   20.8697 N   0  0  0  0  0  0
  -28.3988  -18.6064   20.6030 N   0  0  0  0  0  0
  -29.6617  -15.6611   20.9159 O   0  0  0  0  0  0
  -31.4932  -12.5854   19.1569 H   0  0  0  0  0  0
  -30.4343  -11.3997   19.8753 H   0  0  0  0  0  0
  -29.7872  -11.7621   17.4876 H   0  0  0  0  0  0
  -29.6639  -13.4838   17.7513 H   0  0  0  0  0  0
  -27.8663  -11.2984   18.8571 H   0  0  0  0  0  0
  -27.3892  -12.5880   17.7885 H   0  0  0  0  0  0
  -27.6834  -14.2587   19.5433 H   0  0  0  0  0  0
  -28.6949  -12.0098   21.3480 H   0  0  0  0  0  0
  -28.4369  -13.6463   21.8598 H   0  0  0  0  0  0
  -25.2744   -9.5674   22.4756 H   0  0  0  0  0  0
  -24.0006   -7.4614   22.7452 H   0  0  0  0  0  0
  -21.0829   -8.8754   19.8939 H   0  0  0  0  0  0
  -22.3671  -10.9667   19.6172 H   0  0  0  0  0  0
  -21.1978   -7.6124   23.9713 H   0  0  0  0  0  0
  -21.1498   -6.0511   25.9091 H   0  0  0  0  0  0
  -22.0598   -2.7587   23.2870 H   0  0  0  0  0  0
  -22.4106  -11.9887   22.4846 H   0  0  0  0  0  0
  -21.1124  -13.1258   22.2649 H   0  0  0  0  0  0
  -24.6569  -15.8424   20.5268 H   0  0  0  0  0  0
  -26.2855  -15.6354   20.1256 H   0  0  0  0  0  0
  -26.7210  -32.5360   23.1074 H   0  0  0  0  0  0
  -25.0052  -33.9696   25.0370 H   0  0  0  0  0  0
  -22.7108  -31.3029   21.3983 H   0  0  0  0  0  0
  -23.3741  -35.9641   23.3311 H   0  0  0  0  0  0
  -24.3594  -36.8901   22.2057 H   0  0  0  0  0  0
  -23.7271  -37.6500   23.6670 H   0  0  0  0  0  0
  -26.1087  -31.5494   20.6161 H   0  0  0  0  0  0
  -26.8498  -30.8215   22.0100 H   0  0  0  0  0  0
  -28.1100  -28.9500   21.1862 H   0  0  0  0  0  0
  -25.8881  -25.9210   19.0233 H   0  0  0  0  0  0
  -23.9457  -27.3074   19.0429 H   0  0  0  0  0  0
  -23.7466  -30.5904   19.4010 H   0  0  0  0  0  0
  -22.7516  -29.2391   19.8674 H   0  0  0  0  0  0
  -25.1313  -36.1899   25.0806 H   0  0  0  0  0  0
  -21.0011  -28.3218   24.1474 H   0  0  0  0  0  0
  -20.5803  -26.2225   23.3623 H   0  0  0  0  0  0
  -21.6778  -26.7532   22.1258 H   0  0  0  0  0  0
  -19.6997  -25.6278   21.1235 H   0  0  0  0  0  0
  -19.6725  -27.3172   20.6767 H   0  0  0  0  0  0
  -17.4293  -26.6643   21.4020 H   0  0  0  0  0  0
  -18.0369  -26.0048   22.9068 H   0  0  0  0  0  0
  -19.7949  -30.7194   24.2440 H   0  0  0  0  0  0
  -17.5031  -31.6232   24.5200 H   0  0  0  0  0  0
  -15.5372  -30.2966   23.7601 H   0  0  0  0  0  0
  -15.8734  -28.0819   22.6979 H   0  0  0  0  0  0
  -24.5848  -30.7165   25.7781 H   0  0  0  0  0  0
  -24.8919  -32.2988   26.4806 H   0  0  0  0  0  0
  -25.7987  -30.8994   27.0238 H   0  0  0  0  0  0
  -26.2968  -29.6728   24.1212 H   0  0  0  0  0  0
  -27.3943  -29.7263   25.4809 H   0  0  0  0  0  0
  -27.8869  -30.4239   23.9568 H   0  0  0  0  0  0
  -27.2562  -33.3623   26.2098 H   0  0  0  0  0  0
  -28.3817  -32.6951   25.0374 H   0  0  0  0  0  0
  -28.0666  -31.8481   26.5432 H   0  0  0  0  0  0
  -28.2585  -38.0104   24.7483 H   0  0  0  0  0  0
  -28.1070  -36.2614   24.6314 H   0  0  0  0  0  0
  -27.2275  -37.1484   25.8865 H   0  0  0  0  0  0
  -20.9295  -29.9006   21.7242 H   0  0  0  0  0  0
  -26.0152  -38.2825   24.1407 H   0  0  0  0  0  0
  -31.1431  -21.2071   20.4341 H   0  0  0  0  0  0
  -26.1602  -20.8715   20.5441 H   0  0  0  0  0  0
  -26.0131  -19.1749   20.1017 H   0  0  0  0  0  0
  -26.4747  -20.3457   18.8781 H   0  0  0  0  0  0
  -29.4573  -17.9509   24.9498 H   0  0  0  0  0  0
  -29.1143  -18.9092   23.5284 H   0  0  0  0  0  0
  -30.7650  -18.4027   23.8645 H   0  0  0  0  0  0
  -29.9905  -15.5860   24.8645 H   0  0  0  0  0  0
  -31.3508  -15.8155   23.7686 H   0  0  0  0  0  0
  -30.0688  -14.6740   23.3838 H   0  0  0  0  0  0
  -27.6555  -16.3285   24.1907 H   0  0  0  0  0  0
  -27.7352  -15.5424   22.6390 H   0  0  0  0  0  0
  -27.3771  -17.2491   22.7282 H   0  0  0  0  0  0
  -27.7042  -22.3428   19.1422 H   0  0  0  0  0  0
  -29.3764  -22.5039   18.7792 H   0  0  0  0  0  0
  -29.6991  -23.8654   20.9064 H   0  0  0  0  0  0
  -27.9993  -23.6839   21.2722 H   0  0  0  0  0  0
  -27.5371  -24.8430   18.9813 H   0  0  0  0  0  0
  -29.1960  -25.1532   18.8508 H   0  0  0  0  0  0
  -31.0993  -16.9280   21.6478 H   0  0  0  0  0  0
  1 25  1  0  0  0
  1 30  2  0  0  0
  1 86  1  0  0  0
  2  3  1  0  0  0
  2 25  1  0  0  0
  2 87  1  0  0  0
  2 88  1  0  0  0
  3  4  1  0  0  0
  3 89  1  0  0  0
  3 90  1  0  0  0
  4  5  1  0  0  0
  4 91  1  0  0  0
  4 92  1  0  0  0
  5  6  1  0  0  0
  5 26  1  0  0  0
  5 93  1  0  0  0
  6 25  1  0  0  0
  6 94  1  0  0  0
  6 95  1  0  0  0
  7  8  2  0  0  0
  7 26  1  0  0  0
  7 29  1  0  0  0
  8  9  1  0  0  0
  8 22  1  0  0  0
  9 10  1  0  0  0
  9 27  2  0  0  0
 10 11  2  0  0  0
 10 15  1  0  0  0
 11 12  1  0  0  0
 11 96  1  0  0  0
 12 13  2  0  0  0
 12 97  1  0  0  0
 13 14  1  0  0  0
 13 31  1  0  0  0
 14 15  2  0  0  0
 14 98  1  0  0  0
 15 99  1  0  0  0
 16 17  2  0  0  0
 16 21  1  0  0  0
 16 31  1  0  0  0
 17 18  1  0  0  0
 17100  1  0  0  0
 18 19  2  0  0  0
 18101  1  0  0  0
 19 20  1  0  0  0
 19 24  1  0  0  0
 20 21  2  0  0  0
 20102  1  0  0  0
 21 23  1  0  0  0
 22 28  1  0  0  0
 22 32  2  0  0  0
 26 27  1  0  0  0
 28103  1  0  0  0
 28104  1  0  0  0
 29105  1  0  0  0
 29106  1  0  0  0
 33 34  1  0  0  0
 33 66  1  0  0  0
 33 70  2  0  0  0
 34 36  1  0  0  0
 34 59  1  0  0  0
 34107  1  0  0  0
 35 44  2  0  0  0
 35 45  1  0  0  0
 35 68  1  0  0  0
 36 56  1  0  0  0
 36108  1  0  0  0
 37 39  1  0  0  0
 37 47  1  0  0  0
 37 66  1  0  0  0
 37109  1  0  0  0
 38 43  2  0  0  0
 38 46  1  0  0  0
 38 47  1  0  0  0
 39 64  1  0  0  0
 39 67  2  0  0  0
 40 52  1  0  0  0
 40 53  2  0  0  0
 40 58  1  0  0  0
 41110  1  0  0  0
 41111  1  0  0  0
 41112  1  0  0  0
 41 48  1  0  0  0
 42 43  1  0  0  0
 42 66  1  0  0  0
 42113  1  0  0  0
 42114  1  0  0  0
 43 44  1  0  0  0
 44115  1  0  0  0
 45 46  2  0  0  0
 45116  1  0  0  0
 46117  1  0  0  0
 47118  1  0  0  0
 47119  1  0  0  0
 48 56  1  0  0  0
 48 65  1  0  0  0
 48120  1  0  0  0
 49 50  1  0  0  0
 49 53  1  0  0  0
 49 64  1  0  0  0
 49121  1  0  0  0
 50 51  1  0  0  0
 50122  1  0  0  0
 50123  1  0  0  0
 51 52  1  0  0  0
 51124  1  0  0  0
 51125  1  0  0  0
 52126  1  0  0  0
 52127  1  0  0  0
 53 54  1  0  0  0
 54 55  2  0  0  0
 54128  1  0  0  0
 55 57  1  0  0  0
 55129  1  0  0  0
 56 69  2  0  0  0
 57 58  2  0  0  0
 57130  1  0  0  0
 58131  1  0  0  0
 59 60  1  0  0  0
 59 61  1  0  0  0
 59 62  1  0  0  0
 60132  1  0  0  0
 60133  1  0  0  0
 60134  1  0  0  0
 61135  1  0  0  0
 61136  1  0  0  0
 61137  1  0  0  0
 62138  1  0  0  0
 62139  1  0  0  0
 62140  1  0  0  0
 63 65  1  0  0  0
 63141  1  0  0  0
 63142  1  0  0  0
 63143  1  0  0  0
 64144  1  0  0  0
 65145  1  0  0  0
 68 81  1  0  0  0
 71 72  2  0  0  0
 71 84  1  0  0  0
 71146  1  0  0  0
 72 73  1  0  0  0
 72 79  1  0  0  0
 73 75  1  0  0  0
 73 85  2  0  0  0
 74 82  1  0  0  0
 74 84  2  0  0  0
 74 85  1  0  0  0
 75147  1  0  0  0
 75148  1  0  0  0
 75149  1  0  0  0
 76150  1  0  0  0
 76151  1  0  0  0
 76152  1  0  0  0
 76 83  1  0  0  0
 77 83  1  0  0  0
 77153  1  0  0  0
 77154  1  0  0  0
 77155  1  0  0  0
 78 83  1  0  0  0
 78156  1  0  0  0
 78157  1  0  0  0
 78158  1  0  0  0
 79 80  1  0  0  0
 79159  1  0  0  0
 79160  1  0  0  0
 80 81  1  0  0  0
 80161  1  0  0  0
 80162  1  0  0  0
 81163  1  0  0  0
 81164  1  0  0  0
 82 83  1  0  0  0
 82 86  1  0  0  0
 82165  1  0  0  0
M  ISO  4   1 100  68 101  81 101  86 100
M  END
> <chiral flag>
0

> <version>
0

> <s_m_source_file>
/data/baiqing/PycharmProjects/Reinvent-master-3.2/result/LINK_invent/BTK/process_docking_weight1_custom_sum_contain_oxygen_bond_distance_aromatic_linkinvent_7_9_3/rearranged_h_0065.sdf

> <i_m_source_file_index>
50

> <r_mmod_Potential_Energy-OPLS-2005>
-229.414138793945

> <r_mmod_Stretch_Energy-OPLS-2005>
98.3752136230469

> <r_mmod_Bend_Energy-OPLS-2005>
175.899032592773

> <r_mmod_Torsional_Energy-OPLS-2005>
163.58757019043

> <r_mmod_Improper_Torsional_Energy-OPLS-2005>
5.65849351882935

> <r_mmod_Van_der_Waal_Energy-OPLS-2005>
142.166854858398

> <r_mmod_Electrostatic_Energy-OPLS-2005>
-678.449035644531

> <r_mmod_Solvation_Energy-OPLS-2005>
-195.219116210938

> <b_mmod_Minimization_Converged-OPLS-2005>
0

> <r_mmod_RMS_Derivative-OPLS-2005>
4.93975639343262

$$$$
54
                    3D
 Structure written by MMmdl.
164172  0  0  1  0            999 V2000
  -30.5923  -14.7879   20.4183 C   0  0  0  0  0  0
  -30.4220  -12.4708   19.4951 C   0  0  0  0  0  0
  -29.5120  -12.4995   18.2484 C   0  0  0  0  0  0
  -28.0342  -12.3345   18.6534 C   0  0  0  0  0  0
  -27.6322  -13.2389   19.8489 C   0  0  2  0  0  0
  -28.6744  -13.2096   20.9859 C   0  0  0  0  0  0
  -25.2457  -13.8215   20.5693 C   0  0  0  0  0  0
  -24.1759  -13.0440   20.9206 C   0  0  0  0  0  0
  -24.6356  -11.6925   20.8736 C   0  0  0  0  0  0
  -23.9040  -10.4289   21.0378 C   0  0  0  0  0  0
  -24.3601   -9.4219   21.9165 C   0  0  0  0  0  0
  -23.6285   -8.2250   22.0747 C   0  0  0  0  0  0
  -22.4266   -8.0275   21.3543 C   0  0  0  0  0  0
  -21.9890   -9.0231   20.4632 C   0  0  0  0  0  0
  -22.7203  -10.2123   20.3032 C   0  0  0  0  0  0
  -21.6863   -6.0718   22.5267 C   0  0  0  0  0  0
  -21.4013   -6.5624   23.8194 C   0  0  0  0  0  0
  -21.3668   -5.6784   24.9164 C   0  0  0  0  0  0
  -21.6061   -4.3044   24.7220 C   0  0  0  0  0  0
  -21.8822   -3.8130   23.4338 C   0  0  0  0  0  0
  -21.9189   -4.6944   22.3391 C   0  0  0  0  0  0
  -22.7778  -13.5215   21.1887 C   0  0  0  0  0  0
  -22.1666   -4.2130   21.0970 F   0  0  0  0  0  0
  -21.5638   -3.4528   25.7733 F   0  0  0  0  0  0
  -29.9687  -13.5586   20.3948 N   0  0  0  0  0  0
  -26.2881  -12.9423   20.3283 N   0  0  0  0  0  0
  -25.9298  -11.6564   20.5771 N   0  0  0  0  0  0
  -22.0449  -12.8171   22.0449 N   0  0  0  0  0  0
  -25.4149  -15.1936   20.4095 N   0  0  0  0  0  0
  -31.8039  -14.8450   20.1949 O   0  0  0  0  0  0
  -21.6655   -6.8856   21.4228 O   0  0  0  0  0  0
  -22.3440  -14.5510   20.6742 O   0  0  0  0  0  0
  -24.6336  -31.8526   23.1960 C   0  0  0  0  0  0
  -25.9161  -32.4726   23.8320 C   0  0  1  0  0  0
  -27.2204  -27.2400   20.1501 C   0  0  0  0  0  0
  -25.5954  -33.8533   24.2249 N   0  0  0  0  0  0
  -23.4328  -30.4747   21.5368 C   0  0  2  0  0  0
  -24.8816  -28.9097   20.1155 C   0  0  0  0  0  0
  -22.7506  -29.4599   22.4870 C   0  0  0  0  0  0
  -18.0306  -28.1400   22.8494 C   0  0  0  0  0  0
  -24.1496  -36.7277   23.2644 C   0  0  0  0  0  0
  -25.9797  -30.7593   21.3794 C   0  0  0  0  0  0
  -26.0526  -29.3770   20.7271 C   0  0  0  0  0  0
  -27.2273  -28.5564   20.7276 C   0  0  0  0  0  0
  -26.0290  -26.8359   19.5163 C   0  0  0  0  0  0
  -24.8751  -27.6474   19.4987 C   0  0  0  0  0  0
  -23.6555  -29.8036   20.1548 C   0  0  0  0  0  0
  -25.4121  -36.3050   24.0326 C   0  0  1  0  0  0
  -20.5902  -28.3722   23.1249 C   0  0  2  0  0  0
  -20.6781  -26.9429   22.5427 C   0  0  0  0  0  0
  -19.5757  -26.6353   21.5246 C   0  0  0  0  0  0
  -18.1937  -26.7933   22.1650 C   0  0  0  0  0  0
  -19.1559  -28.8874   23.2869 C   0  0  0  0  0  0
  -18.9479  -30.1476   23.8888 C   0  0  0  0  0  0
  -17.6476  -30.6600   24.0566 C   0  0  0  0  0  0
  -25.9068  -34.9422   23.5095 C   0  0  0  0  0  0
  -16.5365  -29.9104   23.6332 C   0  0  0  0  0  0
  -16.7296  -28.6521   23.0360 C   0  0  0  0  0  0
  -26.4524  -31.6556   25.0718 C   0  0  0  0  0  0
  -25.3747  -31.3709   26.1439 C   0  0  0  0  0  0
  -27.0392  -30.2975   24.6226 C   0  0  0  0  0  0
  -27.6057  -32.4317   25.7501 C   0  0  0  0  0  0
  -27.5575  -37.1790   24.8462 C   0  0  0  0  0  0
  -21.4210  -29.3055   22.3615 N   0  0  0  0  0  0
  -26.4281  -37.3756   23.9414 N   0  0  0  0  0  0
  -24.7010  -31.0481   22.0936 N   0  0  0  0  0  0
  -23.4184  -28.8136   23.2988 O   0  0  0  0  0  0
  -28.3118  -26.3410   20.1441 O   0  0  0  0  0  0
  -26.5623  -34.8892   22.4656 O   0  0  0  0  0  0
  -23.5485  -32.1355   23.7250 O   0  0  0  0  0  0
  -29.3823  -18.6474   20.3577 C   0  0  0  0  0  0
  -27.7807  -20.0074   20.6593 C   0  0  0  0  0  0
  -26.4213  -20.5740   20.8995 C   0  0  0  0  0  0
  -31.2731  -16.4700   17.6457 C   0  0  0  0  0  0
  -30.2347  -18.6994   17.5958 C   0  0  0  0  0  0
  -28.7930  -16.6752   17.7334 C   0  0  0  0  0  0
  -28.4964  -23.5331   20.0608 C   0  0  0  0  0  0
  -29.0293  -22.2868   20.9735 C   0  0  0  0  0  0
  -28.1690  -24.9726   20.7703 C   0  0  0  0  0  0
  -30.1458  -17.3416   19.8404 C   0  0  2  0  0  0
  -30.1123  -17.2972   18.2461 C   0  0  0  0  0  0
  -28.0210  -18.6901   20.5071 N   0  0  0  0  0  0
  -29.9361  -19.8946   20.4671 N   0  0  0  0  0  0
  -28.8733  -20.7932   20.6199 N   0  0  0  0  0  0
  -29.8144  -15.9448   20.4084 N   0  0  0  0  0  0
  -31.4671  -12.5833   19.2040 H   0  0  0  0  0  0
  -30.3569  -11.5054   19.9998 H   0  0  0  0  0  0
  -29.7986  -11.7111   17.5517 H   0  0  0  0  0  0
  -29.6478  -13.4421   17.7170 H   0  0  0  0  0  0
  -27.8806  -11.2862   18.9140 H   0  0  0  0  0  0
  -27.3846  -12.5347   17.8003 H   0  0  0  0  0  0
  -27.6095  -14.2546   19.4575 H   0  0  0  0  0  0
  -28.7185  -12.2252   21.4535 H   0  0  0  0  0  0
  -28.4100  -13.9150   21.7757 H   0  0  0  0  0  0
  -25.2741   -9.5711   22.4742 H   0  0  0  0  0  0
  -24.0006   -7.4640   22.7457 H   0  0  0  0  0  0
  -21.0829   -8.8704   19.8928 H   0  0  0  0  0  0
  -22.3625  -10.9646   19.6138 H   0  0  0  0  0  0
  -21.2004   -7.6132   23.9687 H   0  0  0  0  0  0
  -21.1506   -6.0521   25.9067 H   0  0  0  0  0  0
  -22.0600   -2.7593   23.2833 H   0  0  0  0  0  0
  -22.4100  -11.9825   22.4787 H   0  0  0  0  0  0
  -21.1067  -13.1168   22.2702 H   0  0  0  0  0  0
  -24.6465  -15.8467   20.5170 H   0  0  0  0  0  0
  -26.2635  -15.6372   20.0827 H   0  0  0  0  0  0
  -26.7220  -32.5365   23.1047 H   0  0  0  0  0  0
  -25.0097  -33.9668   25.0393 H   0  0  0  0  0  0
  -22.7316  -31.2982   21.3846 H   0  0  0  0  0  0
  -23.3751  -35.9620   23.3296 H   0  0  0  0  0  0
  -24.3586  -36.8923   22.2060 H   0  0  0  0  0  0
  -23.7257  -37.6474   23.6681 H   0  0  0  0  0  0
  -26.1240  -31.5160   20.6075 H   0  0  0  0  0  0
  -26.8562  -30.8100   22.0136 H   0  0  0  0  0  0
  -28.1264  -28.9107   21.2120 H   0  0  0  0  0  0
  -25.9879  -25.8653   19.0424 H   0  0  0  0  0  0
  -23.9783  -27.2855   19.0137 H   0  0  0  0  0  0
  -23.7908  -30.5799   19.4006 H   0  0  0  0  0  0
  -22.7727  -29.2429   19.8421 H   0  0  0  0  0  0
  -25.1307  -36.1884   25.0816 H   0  0  0  0  0  0
  -21.0004  -28.3323   24.1364 H   0  0  0  0  0  0
  -20.5681  -26.2362   23.3670 H   0  0  0  0  0  0
  -21.6651  -26.7444   22.1230 H   0  0  0  0  0  0
  -19.6932  -25.6248   21.1323 H   0  0  0  0  0  0
  -19.6690  -27.3115   20.6733 H   0  0  0  0  0  0
  -17.4184  -26.6649   21.4077 H   0  0  0  0  0  0
  -18.0344  -26.0112   22.9082 H   0  0  0  0  0  0
  -19.7955  -30.7305   24.2223 H   0  0  0  0  0  0
  -17.5038  -31.6278   24.5177 H   0  0  0  0  0  0
  -15.5364  -30.3009   23.7669 H   0  0  0  0  0  0
  -15.8692  -28.0844   22.7080 H   0  0  0  0  0  0
  -24.5933  -30.7042   25.7771 H   0  0  0  0  0  0
  -24.8919  -32.2873   26.4836 H   0  0  0  0  0  0
  -25.8073  -30.8904   27.0227 H   0  0  0  0  0  0
  -26.2992  -29.6684   24.1258 H   0  0  0  0  0  0
  -27.4085  -29.7264   25.4757 H   0  0  0  0  0  0
  -27.8865  -30.4254   23.9489 H   0  0  0  0  0  0
  -27.2655  -33.3636   26.2037 H   0  0  0  0  0  0
  -28.3893  -32.6857   25.0345 H   0  0  0  0  0  0
  -28.0706  -31.8473   26.5452 H   0  0  0  0  0  0
  -28.2571  -38.0102   24.7513 H   0  0  0  0  0  0
  -28.1089  -36.2626   24.6288 H   0  0  0  0  0  0
  -27.2292  -37.1446   25.8864 H   0  0  0  0  0  0
  -20.9408  -29.8813   21.6833 H   0  0  0  0  0  0
  -26.0153  -38.2832   24.1403 H   0  0  0  0  0  0
  -25.6937  -19.7746   21.0381 H   0  0  0  0  0  0
  -26.1139  -21.1837   20.0500 H   0  0  0  0  0  0
  -26.4197  -21.1969   21.7936 H   0  0  0  0  0  0
  -31.3359  -16.5915   16.5633 H   0  0  0  0  0  0
  -31.1493  -15.4002   17.8017 H   0  0  0  0  0  0
  -32.2364  -16.7665   18.0627 H   0  0  0  0  0  0
  -30.2731  -18.6396   16.5073 H   0  0  0  0  0  0
  -31.1405  -19.2134   17.9190 H   0  0  0  0  0  0
  -29.3872  -19.3456   17.8249 H   0  0  0  0  0  0
  -28.7269  -16.7253   16.6460 H   0  0  0  0  0  0
  -27.9214  -17.1933   18.1332 H   0  0  0  0  0  0
  -28.7027  -15.6241   17.9986 H   0  0  0  0  0  0
  -27.5955  -23.2176   19.5338 H   0  0  0  0  0  0
  -29.2389  -23.6946   19.2799 H   0  0  0  0  0  0
  -28.5497  -22.3985   21.9466 H   0  0  0  0  0  0
  -30.0865  -22.4583   21.1793 H   0  0  0  0  0  0
  -28.8140  -25.0236   21.6482 H   0  0  0  0  0  0
  -27.1655  -24.8925   21.1901 H   0  0  0  0  0  0
  -31.1848  -17.5123   20.1303 H   0  0  0  0  0  0
  -28.8399  -15.8260   20.6353 H   0  0  0  0  0  0
  1 25  1  0  0  0
  1 30  2  0  0  0
  1 85  1  0  0  0
  2  3  1  0  0  0
  2 25  1  0  0  0
  2 86  1  0  0  0
  2 87  1  0  0  0
  3  4  1  0  0  0
  3 88  1  0  0  0
  3 89  1  0  0  0
  4  5  1  0  0  0
  4 90  1  0  0  0
  4 91  1  0  0  0
  5  6  1  0  0  0
  5 26  1  0  0  0
  5 92  1  0  0  0
  6 25  1  0  0  0
  6 93  1  0  0  0
  6 94  1  0  0  0
  7  8  2  0  0  0
  7 26  1  0  0  0
  7 29  1  0  0  0
  8  9  1  0  0  0
  8 22  1  0  0  0
  9 10  1  0  0  0
  9 27  2  0  0  0
 10 11  2  0  0  0
 10 15  1  0  0  0
 11 12  1  0  0  0
 11 95  1  0  0  0
 12 13  2  0  0  0
 12 96  1  0  0  0
 13 14  1  0  0  0
 13 31  1  0  0  0
 14 15  2  0  0  0
 14 97  1  0  0  0
 15 98  1  0  0  0
 16 17  2  0  0  0
 16 21  1  0  0  0
 16 31  1  0  0  0
 17 18  1  0  0  0
 17 99  1  0  0  0
 18 19  2  0  0  0
 18100  1  0  0  0
 19 20  1  0  0  0
 19 24  1  0  0  0
 20 21  2  0  0  0
 20101  1  0  0  0
 21 23  1  0  0  0
 22 28  1  0  0  0
 22 32  2  0  0  0
 26 27  1  0  0  0
 28102  1  0  0  0
 28103  1  0  0  0
 29104  1  0  0  0
 29105  1  0  0  0
 33 34  1  0  0  0
 33 66  1  0  0  0
 33 70  2  0  0  0
 34 36  1  0  0  0
 34 59  1  0  0  0
 34106  1  0  0  0
 35 44  2  0  0  0
 35 45  1  0  0  0
 35 68  1  0  0  0
 36 56  1  0  0  0
 36107  1  0  0  0
 37 39  1  0  0  0
 37 47  1  0  0  0
 37 66  1  0  0  0
 37108  1  0  0  0
 38 43  2  0  0  0
 38 46  1  0  0  0
 38 47  1  0  0  0
 39 64  1  0  0  0
 39 67  2  0  0  0
 40 52  1  0  0  0
 40 53  2  0  0  0
 40 58  1  0  0  0
 41109  1  0  0  0
 41110  1  0  0  0
 41111  1  0  0  0
 41 48  1  0  0  0
 42 43  1  0  0  0
 42 66  1  0  0  0
 42112  1  0  0  0
 42113  1  0  0  0
 43 44  1  0  0  0
 44114  1  0  0  0
 45 46  2  0  0  0
 45115  1  0  0  0
 46116  1  0  0  0
 47117  1  0  0  0
 47118  1  0  0  0
 48 56  1  0  0  0
 48 65  1  0  0  0
 48119  1  0  0  0
 49 50  1  0  0  0
 49 53  1  0  0  0
 49 64  1  0  0  0
 49120  1  0  0  0
 50 51  1  0  0  0
 50121  1  0  0  0
 50122  1  0  0  0
 51 52  1  0  0  0
 51123  1  0  0  0
 51124  1  0  0  0
 52125  1  0  0  0
 52126  1  0  0  0
 53 54  1  0  0  0
 54 55  2  0  0  0
 54127  1  0  0  0
 55 57  1  0  0  0
 55128  1  0  0  0
 56 69  2  0  0  0
 57 58  2  0  0  0
 57129  1  0  0  0
 58130  1  0  0  0
 59 60  1  0  0  0
 59 61  1  0  0  0
 59 62  1  0  0  0
 60131  1  0  0  0
 60132  1  0  0  0
 60133  1  0  0  0
 61134  1  0  0  0
 61135  1  0  0  0
 61136  1  0  0  0
 62137  1  0  0  0
 62138  1  0  0  0
 62139  1  0  0  0
 63 65  1  0  0  0
 63140  1  0  0  0
 63141  1  0  0  0
 63142  1  0  0  0
 64143  1  0  0  0
 65144  1  0  0  0
 68 79  1  0  0  0
 71 80  1  0  0  0
 71 82  1  0  0  0
 71 83  2  0  0  0
 72 73  1  0  0  0
 72 82  2  0  0  0
 72 84  1  0  0  0
 73145  1  0  0  0
 73146  1  0  0  0
 73147  1  0  0  0
 74148  1  0  0  0
 74149  1  0  0  0
 74150  1  0  0  0
 74 81  1  0  0  0
 75 81  1  0  0  0
 75151  1  0  0  0
 75152  1  0  0  0
 75153  1  0  0  0
 76 81  1  0  0  0
 76154  1  0  0  0
 76155  1  0  0  0
 76156  1  0  0  0
 77 78  1  0  0  0
 77 79  1  0  0  0
 77157  1  0  0  0
 77158  1  0  0  0
 78 84  1  0  0  0
 78159  1  0  0  0
 78160  1  0  0  0
 79161  1  0  0  0
 79162  1  0  0  0
 80 81  1  0  0  0
 80 85  1  0  0  0
 80163  1  0  0  0
 83 84  1  0  0  0
 85164  1  0  0  0
M  ISO  4   1 100  68 101  79 101  85 100
M  END
> <chiral flag>
0

> <version>
0

> <s_m_source_file>
/data/baiqing/PycharmProjects/Reinvent-master-3.2/result/LINK_invent/BTK/process_docking_weight1_custom_sum_contain_oxygen_bond_distance_aromatic_linkinvent_7_9_3/rearranged_h_0065.sdf

> <i_m_source_file_index>
51

> <r_mmod_Potential_Energy-OPLS-2005>
124.167266845703

> <r_mmod_Stretch_Energy-OPLS-2005>
147.430679321289

> <r_mmod_Bend_Energy-OPLS-2005>
195.282806396484

> <r_mmod_Torsional_Energy-OPLS-2005>
252.227478027344

> <r_mmod_Improper_Torsional_Energy-OPLS-2005>
9.84638690948486

> <r_mmod_Van_der_Waal_Energy-OPLS-2005>
110.785003662109

> <r_mmod_Electrostatic_Energy-OPLS-2005>
-484.561126708984

> <r_mmod_Solvation_Energy-OPLS-2005>
-210.625564575195

> <b_mmod_Minimization_Converged-OPLS-2005>
0

> <r_mmod_RMS_Derivative-OPLS-2005>
2.15537714958191

$$$$
55
                    3D
 Structure written by MMmdl.
175183  0  0  1  0            999 V2000
  -30.8490  -14.3106   20.7402 C   0  0  0  0  0  0
  -30.4116  -12.2852   19.3965 C   0  0  0  0  0  0
  -29.4910  -12.5310   18.1906 C   0  0  0  0  0  0
  -28.0162  -12.3800   18.5985 C   0  0  0  0  0  0
  -27.6655  -13.2125   19.8589 C   0  0  2  0  0  0
  -28.6979  -12.9955   20.9842 C   0  0  0  0  0  0
  -25.2627  -13.8185   20.5678 C   0  0  0  0  0  0
  -24.1906  -13.0427   20.9190 C   0  0  0  0  0  0
  -24.6473  -11.6900   20.8737 C   0  0  0  0  0  0
  -23.9137  -10.4280   21.0381 C   0  0  0  0  0  0
  -24.3680   -9.4193   21.9154 C   0  0  0  0  0  0
  -23.6328   -8.2239   22.0738 C   0  0  0  0  0  0
  -22.4312   -8.0281   21.3520 C   0  0  0  0  0  0
  -21.9956   -9.0268   20.4645 C   0  0  0  0  0  0
  -22.7313  -10.2122   20.3034 C   0  0  0  0  0  0
  -21.6874   -6.0770   22.5291 C   0  0  0  0  0  0
  -21.4024   -6.5658   23.8231 C   0  0  0  0  0  0
  -21.3646   -5.6791   24.9171 C   0  0  0  0  0  0
  -21.6028   -4.3058   24.7208 C   0  0  0  0  0  0
  -21.8815   -3.8171   23.4325 C   0  0  0  0  0  0
  -21.9196   -4.6998   22.3394 C   0  0  0  0  0  0
  -22.7918  -13.5200   21.1805 C   0  0  0  0  0  0
  -22.1665   -4.2199   21.0966 F   0  0  0  0  0  0
  -21.5608   -3.4525   25.7699 F   0  0  0  0  0  0
  -30.0630  -13.2303   20.4733 N   0  0  0  0  0  0
  -26.3074  -12.9379   20.3267 N   0  0  0  0  0  0
  -25.9393  -11.6525   20.5719 N   0  0  0  0  0  0
  -22.0539  -12.8253   22.0380 N   0  0  0  0  0  0
  -25.4218  -15.1930   20.4144 N   0  0  0  0  0  0
  -31.7179  -14.6840   19.9435 O   0  0  0  0  0  0
  -21.6637   -6.8913   21.4248 O   0  0  0  0  0  0
  -22.3610  -14.5463   20.6584 O   0  0  0  0  0  0
  -24.6090  -31.8706   23.2122 C   0  0  0  0  0  0
  -25.8994  -32.4845   23.8410 C   0  0  1  0  0  0
  -27.2509  -27.4663   20.1000 C   0  0  0  0  0  0
  -25.5837  -33.8643   24.2345 N   0  0  0  0  0  0
  -23.3974  -30.4892   21.5505 C   0  0  2  0  0  0
  -24.8505  -28.9502   20.1241 C   0  0  0  0  0  0
  -22.7385  -29.4665   22.5015 C   0  0  0  0  0  0
  -18.0275  -28.1389   22.8500 C   0  0  0  0  0  0
  -24.1473  -36.7336   23.2633 C   0  0  0  0  0  0
  -25.9206  -30.8449   21.3599 C   0  0  0  0  0  0
  -26.0058  -29.4773   20.7158 C   0  0  0  0  0  0
  -27.2101  -28.7436   20.6974 C   0  0  0  0  0  0
  -26.0808  -26.9367   19.5173 C   0  0  0  0  0  0
  -24.8791  -27.6759   19.5245 C   0  0  0  0  0  0
  -23.6082  -29.8120   20.1687 C   0  0  0  0  0  0
  -25.4096  -36.3134   24.0336 C   0  0  1  0  0  0
  -20.5854  -28.3670   23.1350 C   0  0  2  0  0  0
  -20.6776  -26.9416   22.5435 C   0  0  0  0  0  0
  -19.5760  -26.6397   21.5227 C   0  0  0  0  0  0
  -18.1928  -26.7944   22.1625 C   0  0  0  0  0  0
  -19.1511  -28.8835   23.2925 C   0  0  0  0  0  0
  -18.9452  -30.1447   23.8934 C   0  0  0  0  0  0
  -17.6456  -30.6593   24.0569 C   0  0  0  0  0  0
  -25.9011  -34.9501   23.5141 C   0  0  0  0  0  0
  -16.5347  -29.9109   23.6311 C   0  0  0  0  0  0
  -16.7260  -28.6517   23.0332 C   0  0  0  0  0  0
  -26.4449  -31.6614   25.0723 C   0  0  0  0  0  0
  -25.3727  -31.3721   26.1477 C   0  0  0  0  0  0
  -27.0250  -30.3057   24.6054 C   0  0  0  0  0  0
  -27.6037  -32.4318   25.7482 C   0  0  0  0  0  0
  -27.5584  -37.1820   24.8456 C   0  0  0  0  0  0
  -21.4115  -29.3039   22.3753 N   0  0  0  0  0  0
  -26.4295  -37.3814   23.9404 N   0  0  0  0  0  0
  -24.6605  -31.0822   22.1007 N   0  0  0  0  0  0
  -23.4164  -28.8216   23.3057 O   0  0  0  0  0  0
  -28.4409  -26.7853   20.0360 O   0  0  0  0  0  0
  -26.5597  -34.8941   22.4721 O   0  0  0  0  0  0
  -23.5292  -32.1444   23.7534 O   0  0  0  0  0  0
  -29.5239  -22.0435   22.8403 C   0  0  0  0  0  0
  -30.3030  -22.9071   22.0466 C   0  0  0  0  0  0
  -31.1772  -22.2647   21.1448 C   0  0  0  0  0  0
  -30.6034  -20.2013   22.0009 C   0  0  0  0  0  0
  -31.4482  -23.1205   18.7778 C   0  0  0  0  0  0
  -31.9130  -18.9273   23.7228 C   0  0  0  0  0  0
  -29.2585  -17.3384   23.2298 C   0  0  0  0  0  0
  -29.6262  -17.5397   20.7608 C   0  0  0  0  0  0
  -30.5774  -14.1189   23.1825 C   0  0  0  0  0  0
  -30.3123  -24.4162   22.3475 C   0  0  0  0  0  0
  -32.0811  -23.0032   20.1727 C   0  0  0  0  0  0
  -29.9932  -25.4434   21.2318 C   0  0  0  0  0  0
  -31.3041  -16.2720   22.1768 C   0  0  0  0  0  0
  -28.5244  -25.5783   20.7927 C   0  0  0  0  0  0
  -31.1967  -18.8168   22.3550 C   0  0  1  0  0  0
  -30.3356  -17.5038   22.1341 C   0  0  0  0  0  0
  -29.6849  -20.7050   22.8206 N   0  0  0  0  0  0
  -31.3016  -20.9237   21.1281 N   0  0  0  0  0  0
  -30.7082  -14.9262   21.9495 N   0  0  0  0  0  0
  -31.4583  -12.3613   19.0937 H   0  0  0  0  0  0
  -30.2886  -11.2620   19.7556 H   0  0  0  0  0  0
  -29.7291  -11.8292   17.3903 H   0  0  0  0  0  0
  -29.6695  -13.5304   17.7864 H   0  0  0  0  0  0
  -27.8281  -11.3204   18.7839 H   0  0  0  0  0  0
  -27.3694  -12.6588   17.7690 H   0  0  0  0  0  0
  -27.7115  -14.2631   19.5700 H   0  0  0  0  0  0
  -28.6314  -11.9812   21.3792 H   0  0  0  0  0  0
  -28.4304  -13.6635   21.8007 H   0  0  0  0  0  0
  -25.2805   -9.5666   22.4750 H   0  0  0  0  0  0
  -24.0029   -7.4627   22.7465 H   0  0  0  0  0  0
  -21.0886   -8.8823   19.8958 H   0  0  0  0  0  0
  -22.3788  -10.9674   19.6166 H   0  0  0  0  0  0
  -21.2019   -7.6166   23.9772 H   0  0  0  0  0  0
  -21.1470   -6.0496   25.9092 H   0  0  0  0  0  0
  -22.0603   -2.7641   23.2810 H   0  0  0  0  0  0
  -22.4135  -11.9986   22.4921 H   0  0  0  0  0  0
  -21.1111  -13.1283   22.2382 H   0  0  0  0  0  0
  -24.6443  -15.8309   20.5461 H   0  0  0  0  0  0
  -26.2692  -15.6635   20.1211 H   0  0  0  0  0  0
  -26.7067  -32.5577   23.1183 H   0  0  0  0  0  0
  -24.9955  -33.9829   25.0460 H   0  0  0  0  0  0
  -22.6847  -31.3035   21.4061 H   0  0  0  0  0  0
  -23.3737  -35.9662   23.3309 H   0  0  0  0  0  0
  -24.3567  -36.8947   22.2041 H   0  0  0  0  0  0
  -23.7229  -37.6544   23.6652 H   0  0  0  0  0  0
  -26.0187  -31.6070   20.5845 H   0  0  0  0  0  0
  -26.8134  -30.9127   21.9702 H   0  0  0  0  0  0
  -28.1103  -29.1547   21.1362 H   0  0  0  0  0  0
  -26.1047  -25.9657   19.0432 H   0  0  0  0  0  0
  -23.9909  -27.2641   19.0661 H   0  0  0  0  0  0
  -23.7155  -30.5793   19.4020 H   0  0  0  0  0  0
  -22.7369  -29.2226   19.8787 H   0  0  0  0  0  0
  -25.1280  -36.2011   25.0831 H   0  0  0  0  0  0
  -20.9940  -28.3235   24.1475 H   0  0  0  0  0  0
  -20.5710  -26.2271   23.3608 H   0  0  0  0  0  0
  -21.6652  -26.7492   22.1210 H   0  0  0  0  0  0
  -19.6929  -25.6309   21.1249 H   0  0  0  0  0  0
  -19.6723  -27.3215   20.6760 H   0  0  0  0  0  0
  -17.4218  -26.6692   21.4013 H   0  0  0  0  0  0
  -18.0329  -26.0084   22.9011 H   0  0  0  0  0  0
  -19.7921  -30.7248   24.2334 H   0  0  0  0  0  0
  -17.5012  -31.6281   24.5160 H   0  0  0  0  0  0
  -15.5355  -30.3026   23.7618 H   0  0  0  0  0  0
  -15.8662  -28.0861   22.7027 H   0  0  0  0  0  0
  -24.5867  -30.7104   25.7828 H   0  0  0  0  0  0
  -24.8951  -32.2879   26.4965 H   0  0  0  0  0  0
  -25.8061  -30.8854   27.0217 H   0  0  0  0  0  0
  -26.2785  -29.6870   24.1053 H   0  0  0  0  0  0
  -27.3987  -29.7245   25.4497 H   0  0  0  0  0  0
  -27.8640  -30.4398   23.9220 H   0  0  0  0  0  0
  -27.2667  -33.3609   26.2096 H   0  0  0  0  0  0
  -28.3824  -32.6894   25.0294 H   0  0  0  0  0  0
  -28.0719  -31.8403   26.5357 H   0  0  0  0  0  0
  -28.2601  -38.0120   24.7512 H   0  0  0  0  0  0
  -28.1085  -36.2650   24.6277 H   0  0  0  0  0  0
  -27.2308  -37.1477   25.8862 H   0  0  0  0  0  0
  -20.9261  -29.8740   21.6966 H   0  0  0  0  0  0
  -26.0189  -38.2890   24.1423 H   0  0  0  0  0  0
  -28.8467  -22.4320   23.5866 H   0  0  0  0  0  0
  -32.0875  -23.6930   18.1057 H   0  0  0  0  0  0
  -30.4800  -23.6194   18.8241 H   0  0  0  0  0  0
  -31.2881  -22.1352   18.3376 H   0  0  0  0  0  0
  -32.6242  -19.7526   23.6982 H   0  0  0  0  0  0
  -32.4810  -18.0434   24.0050 H   0  0  0  0  0  0
  -31.2054  -19.1405   24.5224 H   0  0  0  0  0  0
  -28.6447  -16.4524   23.0652 H   0  0  0  0  0  0
  -28.5799  -18.1914   23.2524 H   0  0  0  0  0  0
  -29.6965  -17.2393   24.2238 H   0  0  0  0  0  0
  -29.0332  -16.6396   20.5831 H   0  0  0  0  0  0
  -30.3465  -17.6213   19.9451 H   0  0  0  0  0  0
  -28.9479  -18.3889   20.6806 H   0  0  0  0  0  0
  -31.3421  -14.3413   23.9251 H   0  0  0  0  0  0
  -30.6757  -13.0469   23.0015 H   0  0  0  0  0  0
  -29.6105  -14.2896   23.6556 H   0  0  0  0  0  0
  -31.3121  -24.6415   22.7215 H   0  0  0  0  0  0
  -29.6603  -24.6138   23.1987 H   0  0  0  0  0  0
  -33.0273  -22.4665   20.0937 H   0  0  0  0  0  0
  -32.3527  -23.9819   20.5636 H   0  0  0  0  0  0
  -30.6316  -25.3275   20.3604 H   0  0  0  0  0  0
  -30.2767  -26.4160   21.6412 H   0  0  0  0  0  0
  -31.8065  -16.2547   23.1390 H   0  0  0  0  0  0
  -32.1214  -16.4540   21.4758 H   0  0  0  0  0  0
  -27.8706  -25.6179   21.6660 H   0  0  0  0  0  0
  -28.2249  -24.7261   20.1822 H   0  0  0  0  0  0
  -32.0155  -18.7053   21.6409 H   0  0  0  0  0  0
  1 25  1  0  0  0
  1 30  2  0  0  0
  1 89  1  0  0  0
  2  3  1  0  0  0
  2 25  1  0  0  0
  2 90  1  0  0  0
  2 91  1  0  0  0
  3  4  1  0  0  0
  3 92  1  0  0  0
  3 93  1  0  0  0
  4  5  1  0  0  0
  4 94  1  0  0  0
  4 95  1  0  0  0
  5  6  1  0  0  0
  5 26  1  0  0  0
  5 96  1  0  0  0
  6 25  1  0  0  0
  6 97  1  0  0  0
  6 98  1  0  0  0
  7  8  2  0  0  0
  7 26  1  0  0  0
  7 29  1  0  0  0
  8  9  1  0  0  0
  8 22  1  0  0  0
  9 10  1  0  0  0
  9 27  2  0  0  0
 10 11  2  0  0  0
 10 15  1  0  0  0
 11 12  1  0  0  0
 11 99  1  0  0  0
 12 13  2  0  0  0
 12100  1  0  0  0
 13 14  1  0  0  0
 13 31  1  0  0  0
 14 15  2  0  0  0
 14101  1  0  0  0
 15102  1  0  0  0
 16 17  2  0  0  0
 16 21  1  0  0  0
 16 31  1  0  0  0
 17 18  1  0  0  0
 17103  1  0  0  0
 18 19  2  0  0  0
 18104  1  0  0  0
 19 20  1  0  0  0
 19 24  1  0  0  0
 20 21  2  0  0  0
 20105  1  0  0  0
 21 23  1  0  0  0
 22 28  1  0  0  0
 22 32  2  0  0  0
 26 27  1  0  0  0
 28106  1  0  0  0
 28107  1  0  0  0
 29108  1  0  0  0
 29109  1  0  0  0
 33 34  1  0  0  0
 33 66  1  0  0  0
 33 70  2  0  0  0
 34 36  1  0  0  0
 34 59  1  0  0  0
 34110  1  0  0  0
 35 44  2  0  0  0
 35 45  1  0  0  0
 35 68  1  0  0  0
 36 56  1  0  0  0
 36111  1  0  0  0
 37 39  1  0  0  0
 37 47  1  0  0  0
 37 66  1  0  0  0
 37112  1  0  0  0
 38 43  2  0  0  0
 38 46  1  0  0  0
 38 47  1  0  0  0
 39 64  1  0  0  0
 39 67  2  0  0  0
 40 52  1  0  0  0
 40 53  2  0  0  0
 40 58  1  0  0  0
 41113  1  0  0  0
 41114  1  0  0  0
 41115  1  0  0  0
 41 48  1  0  0  0
 42 43  1  0  0  0
 42 66  1  0  0  0
 42116  1  0  0  0
 42117  1  0  0  0
 43 44  1  0  0  0
 44118  1  0  0  0
 45 46  2  0  0  0
 45119  1  0  0  0
 46120  1  0  0  0
 47121  1  0  0  0
 47122  1  0  0  0
 48 56  1  0  0  0
 48 65  1  0  0  0
 48123  1  0  0  0
 49 50  1  0  0  0
 49 53  1  0  0  0
 49 64  1  0  0  0
 49124  1  0  0  0
 50 51  1  0  0  0
 50125  1  0  0  0
 50126  1  0  0  0
 51 52  1  0  0  0
 51127  1  0  0  0
 51128  1  0  0  0
 52129  1  0  0  0
 52130  1  0  0  0
 53 54  1  0  0  0
 54 55  2  0  0  0
 54131  1  0  0  0
 55 57  1  0  0  0
 55132  1  0  0  0
 56 69  2  0  0  0
 57 58  2  0  0  0
 57133  1  0  0  0
 58134  1  0  0  0
 59 60  1  0  0  0
 59 61  1  0  0  0
 59 62  1  0  0  0
 60135  1  0  0  0
 60136  1  0  0  0
 60137  1  0  0  0
 61138  1  0  0  0
 61139  1  0  0  0
 61140  1  0  0  0
 62141  1  0  0  0
 62142  1  0  0  0
 62143  1  0  0  0
 63 65  1  0  0  0
 63144  1  0  0  0
 63145  1  0  0  0
 63146  1  0  0  0
 64147  1  0  0  0
 65148  1  0  0  0
 68 84  1  0  0  0
 71 72  2  0  0  0
 71 87  1  0  0  0
 71149  1  0  0  0
 72 73  1  0  0  0
 72 80  1  0  0  0
 73 81  1  0  0  0
 73 88  2  0  0  0
 74 85  1  0  0  0
 74 87  2  0  0  0
 74 88  1  0  0  0
 75 81  1  0  0  0
 75150  1  0  0  0
 75151  1  0  0  0
 75152  1  0  0  0
 76153  1  0  0  0
 76154  1  0  0  0
 76155  1  0  0  0
 76 85  1  0  0  0
 77156  1  0  0  0
 77157  1  0  0  0
 77158  1  0  0  0
 77 86  1  0  0  0
 78 86  1  0  0  0
 78159  1  0  0  0
 78160  1  0  0  0
 78161  1  0  0  0
 79 89  1  0  0  0
 79162  1  0  0  0
 79163  1  0  0  0
 79164  1  0  0  0
 80 82  1  0  0  0
 80165  1  0  0  0
 80166  1  0  0  0
 81167  1  0  0  0
 81168  1  0  0  0
 82 84  1  0  0  0
 82169  1  0  0  0
 82170  1  0  0  0
 83 86  1  0  0  0
 83 89  1  0  0  0
 83171  1  0  0  0
 83172  1  0  0  0
 84173  1  0  0  0
 84174  1  0  0  0
 85 86  1  0  0  0
 85175  1  0  0  0
M  ISO  4   1 100  68 101  84 101  89 100
M  END
> <chiral flag>
0

> <version>
0

> <s_m_source_file>
/data/baiqing/PycharmProjects/Reinvent-master-3.2/result/LINK_invent/BTK/process_docking_weight1_custom_sum_contain_oxygen_bond_distance_aromatic_linkinvent_7_9_3/rearranged_h_0065.sdf

> <i_m_source_file_index>
52

> <r_mmod_Potential_Energy-OPLS-2005>
-197.893432617188

> <r_mmod_Stretch_Energy-OPLS-2005>
46.0677032470703

> <r_mmod_Bend_Energy-OPLS-2005>
134.433303833008

> <r_mmod_Torsional_Energy-OPLS-2005>
292.968353271484

> <r_mmod_Improper_Torsional_Energy-OPLS-2005>
8.71414661407471

> <r_mmod_Van_der_Waal_Energy-OPLS-2005>
167.788146972656

> <r_mmod_Electrostatic_Energy-OPLS-2005>
-658.113098144531

> <r_mmod_Solvation_Energy-OPLS-2005>
-199.825393676758

> <b_mmod_Minimization_Converged-OPLS-2005>
0

> <r_mmod_RMS_Derivative-OPLS-2005>
3.62417054176331

$$$$
56
                    3D
 Structure written by MMmdl.
173181  0  0  1  0            999 V2000
  -30.7351  -14.3726   20.7451 C   0  0  0  0  0  0
  -30.4339  -12.3019   19.4072 C   0  0  0  0  0  0
  -29.4977  -12.5460   18.2071 C   0  0  0  0  0  0
  -28.0206  -12.3933   18.6167 C   0  0  0  0  0  0
  -27.6770  -13.1965   19.8972 C   0  0  2  0  0  0
  -28.7082  -12.9011   21.0097 C   0  0  0  0  0  0
  -25.2661  -13.8142   20.5689 C   0  0  0  0  0  0
  -24.1875  -13.0459   20.9157 C   0  0  0  0  0  0
  -24.6395  -11.6903   20.8725 C   0  0  0  0  0  0
  -23.9038  -10.4294   21.0397 C   0  0  0  0  0  0
  -24.3588   -9.4220   21.9190 C   0  0  0  0  0  0
  -23.6276   -8.2258   22.0758 C   0  0  0  0  0  0
  -22.4270   -8.0284   21.3535 C   0  0  0  0  0  0
  -21.9895   -9.0252   20.4648 C   0  0  0  0  0  0
  -22.7208  -10.2138   20.3055 C   0  0  0  0  0  0
  -21.6849   -6.0743   22.5278 C   0  0  0  0  0  0
  -21.4015   -6.5645   23.8212 C   0  0  0  0  0  0
  -21.3655   -5.6795   24.9177 C   0  0  0  0  0  0
  -21.6039   -4.3054   24.7229 C   0  0  0  0  0  0
  -21.8820   -3.8154   23.4348 C   0  0  0  0  0  0
  -21.9192   -4.6972   22.3406 C   0  0  0  0  0  0
  -22.7899  -13.5276   21.1832 C   0  0  0  0  0  0
  -22.1658   -4.2155   21.0985 F   0  0  0  0  0  0
  -21.5627   -3.4541   25.7747 F   0  0  0  0  0  0
  -30.0578  -13.2184   20.4992 N   0  0  0  0  0  0
  -26.3097  -12.9294   20.3443 N   0  0  0  0  0  0
  -25.9324  -11.6452   20.5768 N   0  0  0  0  0  0
  -22.0499  -12.8275   22.0361 N   0  0  0  0  0  0
  -25.4462  -15.1872   20.4109 N   0  0  0  0  0  0
  -31.7199  -14.7300   20.0882 O   0  0  0  0  0  0
  -21.6634   -6.8888   21.4238 O   0  0  0  0  0  0
  -22.3596  -14.5581   20.6676 O   0  0  0  0  0  0
  -24.6125  -31.8677   23.2054 C   0  0  0  0  0  0
  -25.9027  -32.4855   23.8365 C   0  0  1  0  0  0
  -27.2238  -27.4136   20.1350 C   0  0  0  0  0  0
  -25.5889  -33.8630   24.2330 N   0  0  0  0  0  0
  -23.4063  -30.4905   21.5462 C   0  0  2  0  0  0
  -24.8606  -28.9626   20.1033 C   0  0  0  0  0  0
  -22.7434  -29.4662   22.4947 C   0  0  0  0  0  0
  -18.0264  -28.1352   22.8480 C   0  0  0  0  0  0
  -24.1501  -36.7339   23.2648 C   0  0  0  0  0  0
  -25.9344  -30.8352   21.3604 C   0  0  0  0  0  0
  -26.0183  -29.4681   20.7090 C   0  0  0  0  0  0
  -27.2085  -28.7018   20.7244 C   0  0  0  0  0  0
  -26.0607  -26.9372   19.4974 C   0  0  0  0  0  0
  -24.8789  -27.6997   19.4856 C   0  0  0  0  0  0
  -23.6178  -29.8266   20.1573 C   0  0  0  0  0  0
  -25.4125  -36.3119   24.0336 C   0  0  1  0  0  0
  -20.5867  -28.3651   23.1297 C   0  0  2  0  0  0
  -20.6782  -26.9392   22.5408 C   0  0  0  0  0  0
  -19.5763  -26.6369   21.5220 C   0  0  0  0  0  0
  -18.1916  -26.7895   22.1590 C   0  0  0  0  0  0
  -19.1521  -28.8803   23.2869 C   0  0  0  0  0  0
  -18.9461  -30.1415   23.8914 C   0  0  0  0  0  0
  -17.6468  -30.6575   24.0547 C   0  0  0  0  0  0
  -25.9033  -34.9485   23.5112 C   0  0  0  0  0  0
  -16.5345  -29.9095   23.6322 C   0  0  0  0  0  0
  -16.7253  -28.6483   23.0363 C   0  0  0  0  0  0
  -26.4414  -31.6627   25.0706 C   0  0  0  0  0  0
  -25.3654  -31.3690   26.1451 C   0  0  0  0  0  0
  -27.0274  -30.3095   24.6014 C   0  0  0  0  0  0
  -27.6005  -32.4344   25.7451 C   0  0  0  0  0  0
  -27.5586  -37.1813   24.8451 C   0  0  0  0  0  0
  -21.4166  -29.3021   22.3712 N   0  0  0  0  0  0
  -26.4310  -37.3786   23.9380 N   0  0  0  0  0  0
  -24.6713  -31.0764   22.0972 N   0  0  0  0  0  0
  -23.4206  -28.8224   23.3000 O   0  0  0  0  0  0
  -28.3378  -26.6084   20.2178 O   0  0  0  0  0  0
  -26.5601  -34.8915   22.4678 O   0  0  0  0  0  0
  -23.5314  -32.1452   23.7417 O   0  0  0  0  0  0
  -29.3452  -21.0043   21.6327 C   0  0  0  0  0  0
  -28.8290  -22.2123   22.0296 C   0  0  0  0  0  0
  -26.6487  -21.9804   20.8076 C   0  0  0  0  0  0
  -31.2319  -18.9201   25.1351 C   0  0  0  0  0  0
  -32.6947  -19.8630   22.7428 C   0  0  0  0  0  0
  -32.1839  -16.3552   23.7964 C   0  0  0  0  0  0
  -29.7902  -16.2475   24.4433 C   0  0  0  0  0  0
  -27.9339  -24.1394   20.5269 C   0  0  0  0  0  0
  -30.4287  -16.5447   22.0053 C   0  0  0  0  0  0
  -28.2027  -25.5239   21.1754 C   0  0  0  0  0  0
  -27.6145  -22.9646   21.5005 C   0  0  2  0  0  0
  -30.6963  -18.5080   23.7345 C   0  0  1  0  0  0
  -31.1980  -19.5079   22.6230 C   0  0  1  0  0  0
  -30.7900  -16.9376   23.4769 C   0  0  0  0  0  0
  -29.5571  -22.6294   23.1448 N   0  0  0  0  0  0
  -30.4598  -21.7356   23.4407 N   0  0  0  0  0  0
  -30.3596  -20.7261   22.5343 N   0  0  0  0  0  0
  -30.2476  -15.1028   21.7663 N   0  0  0  0  0  0
  -31.4761  -12.4250   19.1071 H   0  0  0  0  0  0
  -30.3478  -11.2680   19.7460 H   0  0  0  0  0  0
  -29.7340  -11.8570   17.3954 H   0  0  0  0  0  0
  -29.6673  -13.5500   17.8148 H   0  0  0  0  0  0
  -27.8247  -11.3328   18.7810 H   0  0  0  0  0  0
  -27.3697  -12.6996   17.7976 H   0  0  0  0  0  0
  -27.7492  -14.2565   19.6487 H   0  0  0  0  0  0
  -28.6746  -11.8436   21.2792 H   0  0  0  0  0  0
  -28.4442  -13.4306   21.9253 H   0  0  0  0  0  0
  -25.2726   -9.5719   22.4762 H   0  0  0  0  0  0
  -23.9987   -7.4663   22.7478 H   0  0  0  0  0  0
  -21.0830   -8.8760   19.8955 H   0  0  0  0  0  0
  -22.3652  -10.9676   19.6166 H   0  0  0  0  0  0
  -21.1998   -7.6152   23.9721 H   0  0  0  0  0  0
  -21.1478   -6.0528   25.9081 H   0  0  0  0  0  0
  -22.0599   -2.7617   23.2849 H   0  0  0  0  0  0
  -22.4056  -11.9925   22.4762 H   0  0  0  0  0  0
  -21.1129  -13.1342   22.2536 H   0  0  0  0  0  0
  -24.6937  -15.8574   20.5241 H   0  0  0  0  0  0
  -26.3181  -15.6126   20.1211 H   0  0  0  0  0  0
  -26.7123  -32.5574   23.1157 H   0  0  0  0  0  0
  -25.0112  -33.9783   25.0519 H   0  0  0  0  0  0
  -22.6933  -31.3073   21.4073 H   0  0  0  0  0  0
  -23.3737  -35.9688   23.3317 H   0  0  0  0  0  0
  -24.3592  -36.8961   22.2054 H   0  0  0  0  0  0
  -23.7285  -37.6547   23.6671 H   0  0  0  0  0  0
  -26.0464  -31.6101   20.5967 H   0  0  0  0  0  0
  -26.8234  -30.8926   21.9788 H   0  0  0  0  0  0
  -28.0981  -29.0774   21.2099 H   0  0  0  0  0  0
  -26.0581  -25.9703   19.0193 H   0  0  0  0  0  0
  -23.9967  -27.3100   18.9964 H   0  0  0  0  0  0
  -23.7147  -30.6042   19.3997 H   0  0  0  0  0  0
  -22.7416  -29.2412   19.8687 H   0  0  0  0  0  0
  -25.1284  -36.2006   25.0839 H   0  0  0  0  0  0
  -20.9905  -28.3234   24.1445 H   0  0  0  0  0  0
  -20.5720  -26.2259   23.3586 H   0  0  0  0  0  0
  -21.6650  -26.7514   22.1172 H   0  0  0  0  0  0
  -19.6965  -25.6289   21.1253 H   0  0  0  0  0  0
  -19.6706  -27.3169   20.6736 H   0  0  0  0  0  0
  -17.4207  -26.6641   21.3962 H   0  0  0  0  0  0
  -18.0301  -26.0033   22.8984 H   0  0  0  0  0  0
  -19.7955  -30.7174   24.2312 H   0  0  0  0  0  0
  -17.5052  -31.6266   24.5123 H   0  0  0  0  0  0
  -15.5338  -30.2983   23.7668 H   0  0  0  0  0  0
  -15.8654  -28.0807   22.7086 H   0  0  0  0  0  0
  -24.5820  -30.7071   25.7723 H   0  0  0  0  0  0
  -24.8832  -32.2830   26.4946 H   0  0  0  0  0  0
  -25.7989  -30.8795   27.0210 H   0  0  0  0  0  0
  -26.2811  -29.6824   24.1108 H   0  0  0  0  0  0
  -27.4171  -29.7327   25.4414 H   0  0  0  0  0  0
  -27.8579  -30.4447   23.9081 H   0  0  0  0  0  0
  -27.2671  -33.3674   26.2018 H   0  0  0  0  0  0
  -28.3811  -32.6879   25.0267 H   0  0  0  0  0  0
  -28.0681  -31.8485   26.5384 H   0  0  0  0  0  0
  -28.2589  -38.0118   24.7521 H   0  0  0  0  0  0
  -28.1109  -36.2641   24.6286 H   0  0  0  0  0  0
  -27.2285  -37.1473   25.8850 H   0  0  0  0  0  0
  -20.9338  -29.8823   21.7007 H   0  0  0  0  0  0
  -26.0206  -38.2869   24.1399 H   0  0  0  0  0  0
  -29.0588  -20.3294   20.8393 H   0  0  0  0  0  0
  -26.4130  -21.1283   21.4474 H   0  0  0  0  0  0
  -27.0797  -21.5953   19.8824 H   0  0  0  0  0  0
  -25.7065  -22.4638   20.5521 H   0  0  0  0  0  0
  -31.0449  -19.9716   25.3387 H   0  0  0  0  0  0
  -32.3065  -18.7686   25.2221 H   0  0  0  0  0  0
  -30.7676  -18.3734   25.9548 H   0  0  0  0  0  0
  -33.3185  -18.9706   22.8012 H   0  0  0  0  0  0
  -32.9173  -20.4664   23.6233 H   0  0  0  0  0  0
  -33.0240  -20.4304   21.8747 H   0  0  0  0  0  0
  -32.1963  -15.2721   23.6676 H   0  0  0  0  0  0
  -32.4856  -16.5378   24.8280 H   0  0  0  0  0  0
  -32.9588  -16.7534   23.1447 H   0  0  0  0  0  0
  -29.7594  -15.1665   24.3193 H   0  0  0  0  0  0
  -28.7729  -16.6212   24.3144 H   0  0  0  0  0  0
  -30.0540  -16.4014   25.4877 H   0  0  0  0  0  0
  -28.7398  -23.8553   19.8518 H   0  0  0  0  0  0
  -27.0569  -24.2679   19.8958 H   0  0  0  0  0  0
  -31.1813  -16.9264   21.3144 H   0  0  0  0  0  0
  -29.4883  -17.0220   21.7285 H   0  0  0  0  0  0
  -29.1144  -25.4677   21.7727 H   0  0  0  0  0  0
  -27.4040  -25.7382   21.8910 H   0  0  0  0  0  0
  -27.0586  -23.3739   22.3461 H   0  0  0  0  0  0
  -29.6237  -18.6960   23.7771 H   0  0  0  0  0  0
  -31.0898  -19.0445   21.6468 H   0  0  0  0  0  0
  -29.5315  -14.6482   22.3141 H   0  0  0  0  0  0
  1 25  1  0  0  0
  1 30  2  0  0  0
  1 88  1  0  0  0
  2  3  1  0  0  0
  2 25  1  0  0  0
  2 89  1  0  0  0
  2 90  1  0  0  0
  3  4  1  0  0  0
  3 91  1  0  0  0
  3 92  1  0  0  0
  4  5  1  0  0  0
  4 93  1  0  0  0
  4 94  1  0  0  0
  5  6  1  0  0  0
  5 26  1  0  0  0
  5 95  1  0  0  0
  6 25  1  0  0  0
  6 96  1  0  0  0
  6 97  1  0  0  0
  7  8  2  0  0  0
  7 26  1  0  0  0
  7 29  1  0  0  0
  8  9  1  0  0  0
  8 22  1  0  0  0
  9 10  1  0  0  0
  9 27  2  0  0  0
 10 11  2  0  0  0
 10 15  1  0  0  0
 11 12  1  0  0  0
 11 98  1  0  0  0
 12 13  2  0  0  0
 12 99  1  0  0  0
 13 14  1  0  0  0
 13 31  1  0  0  0
 14 15  2  0  0  0
 14100  1  0  0  0
 15101  1  0  0  0
 16 17  2  0  0  0
 16 21  1  0  0  0
 16 31  1  0  0  0
 17 18  1  0  0  0
 17102  1  0  0  0
 18 19  2  0  0  0
 18103  1  0  0  0
 19 20  1  0  0  0
 19 24  1  0  0  0
 20 21  2  0  0  0
 20104  1  0  0  0
 21 23  1  0  0  0
 22 28  1  0  0  0
 22 32  2  0  0  0
 26 27  1  0  0  0
 28105  1  0  0  0
 28106  1  0  0  0
 29107  1  0  0  0
 29108  1  0  0  0
 33 34  1  0  0  0
 33 66  1  0  0  0
 33 70  2  0  0  0
 34 36  1  0  0  0
 34 59  1  0  0  0
 34109  1  0  0  0
 35 44  2  0  0  0
 35 45  1  0  0  0
 35 68  1  0  0  0
 36 56  1  0  0  0
 36110  1  0  0  0
 37 39  1  0  0  0
 37 47  1  0  0  0
 37 66  1  0  0  0
 37111  1  0  0  0
 38 43  2  0  0  0
 38 46  1  0  0  0
 38 47  1  0  0  0
 39 64  1  0  0  0
 39 67  2  0  0  0
 40 52  1  0  0  0
 40 53  2  0  0  0
 40 58  1  0  0  0
 41112  1  0  0  0
 41113  1  0  0  0
 41114  1  0  0  0
 41 48  1  0  0  0
 42 43  1  0  0  0
 42 66  1  0  0  0
 42115  1  0  0  0
 42116  1  0  0  0
 43 44  1  0  0  0
 44117  1  0  0  0
 45 46  2  0  0  0
 45118  1  0  0  0
 46119  1  0  0  0
 47120  1  0  0  0
 47121  1  0  0  0
 48 56  1  0  0  0
 48 65  1  0  0  0
 48122  1  0  0  0
 49 50  1  0  0  0
 49 53  1  0  0  0
 49 64  1  0  0  0
 49123  1  0  0  0
 50 51  1  0  0  0
 50124  1  0  0  0
 50125  1  0  0  0
 51 52  1  0  0  0
 51126  1  0  0  0
 51127  1  0  0  0
 52128  1  0  0  0
 52129  1  0  0  0
 53 54  1  0  0  0
 54 55  2  0  0  0
 54130  1  0  0  0
 55 57  1  0  0  0
 55131  1  0  0  0
 56 69  2  0  0  0
 57 58  2  0  0  0
 57132  1  0  0  0
 58133  1  0  0  0
 59 60  1  0  0  0
 59 61  1  0  0  0
 59 62  1  0  0  0
 60134  1  0  0  0
 60135  1  0  0  0
 60136  1  0  0  0
 61137  1  0  0  0
 61138  1  0  0  0
 61139  1  0  0  0
 62140  1  0  0  0
 62141  1  0  0  0
 62142  1  0  0  0
 63 65  1  0  0  0
 63143  1  0  0  0
 63144  1  0  0  0
 63145  1  0  0  0
 64146  1  0  0  0
 65147  1  0  0  0
 68 80  1  0  0  0
 71 72  2  0  0  0
 71 87  1  0  0  0
 71148  1  0  0  0
 72 81  1  0  0  0
 72 85  1  0  0  0
 73149  1  0  0  0
 73150  1  0  0  0
 73151  1  0  0  0
 73 81  1  0  0  0
 74152  1  0  0  0
 74153  1  0  0  0
 74154  1  0  0  0
 74 82  1  0  0  0
 75155  1  0  0  0
 75156  1  0  0  0
 75157  1  0  0  0
 75 83  1  0  0  0
 76158  1  0  0  0
 76159  1  0  0  0
 76160  1  0  0  0
 76 84  1  0  0  0
 77 84  1  0  0  0
 77161  1  0  0  0
 77162  1  0  0  0
 77163  1  0  0  0
 78 80  1  0  0  0
 78 81  1  0  0  0
 78164  1  0  0  0
 78165  1  0  0  0
 79 84  1  0  0  0
 79 88  1  0  0  0
 79166  1  0  0  0
 79167  1  0  0  0
 80168  1  0  0  0
 80169  1  0  0  0
 81170  1  0  0  0
 82 83  1  0  0  0
 82 84  1  0  0  0
 82171  1  0  0  0
 83 87  1  0  0  0
 83172  1  0  0  0
 85 86  2  0  0  0
 86 87  1  0  0  0
 88173  1  0  0  0
M  ISO  4   1 100  68 101  80 101  88 100
M  END
> <chiral flag>
0

> <version>
0

> <s_m_source_file>
/data/baiqing/PycharmProjects/Reinvent-master-3.2/result/LINK_invent/BTK/process_docking_weight1_custom_sum_contain_oxygen_bond_distance_aromatic_linkinvent_7_9_3/rearranged_h_0065.sdf

> <i_m_source_file_index>
53

> <r_mmod_Potential_Energy-OPLS-2005>
-73.2016525268555

> <r_mmod_Stretch_Energy-OPLS-2005>
50.4496040344238

> <r_mmod_Bend_Energy-OPLS-2005>
117.780685424805

> <r_mmod_Torsional_Energy-OPLS-2005>
280.891418457031

> <r_mmod_Improper_Torsional_Energy-OPLS-2005>
2.65448880195618

> <r_mmod_Van_der_Waal_Energy-OPLS-2005>
137.417053222656

> <r_mmod_Electrostatic_Energy-OPLS-2005>
-469.851318359375

> <r_mmod_Solvation_Energy-OPLS-2005>
-209.01985168457

> <b_mmod_Minimization_Converged-OPLS-2005>
0

> <r_mmod_RMS_Derivative-OPLS-2005>
5.28528308868408

$$$$
57
                    3D
 Structure written by MMmdl.
170178  0  0  1  0            999 V2000
  -30.7381  -14.4425   20.5959 C   0  0  0  0  0  0
  -30.4152  -12.3300   19.3670 C   0  0  0  0  0  0
  -29.4735  -12.5627   18.1708 C   0  0  0  0  0  0
  -27.9949  -12.4066   18.5840 C   0  0  0  0  0  0
  -27.6603  -13.1890   19.8819 C   0  0  2  0  0  0
  -28.7203  -12.9050   20.9712 C   0  0  0  0  0  0
  -25.2588  -13.8089   20.5717 C   0  0  0  0  0  0
  -24.1834  -13.0389   20.9180 C   0  0  0  0  0  0
  -24.6386  -11.6843   20.8766 C   0  0  0  0  0  0
  -23.9050  -10.4249   21.0393 C   0  0  0  0  0  0
  -24.3606   -9.4160   21.9180 C   0  0  0  0  0  0
  -23.6293   -8.2197   22.0752 C   0  0  0  0  0  0
  -22.4273   -8.0238   21.3526 C   0  0  0  0  0  0
  -21.9886   -9.0229   20.4655 C   0  0  0  0  0  0
  -22.7201  -10.2093   20.3060 C   0  0  0  0  0  0
  -21.6829   -6.0736   22.5310 C   0  0  0  0  0  0
  -21.3999   -6.5648   23.8238 C   0  0  0  0  0  0
  -21.3661   -5.6796   24.9204 C   0  0  0  0  0  0
  -21.6049   -4.3075   24.7235 C   0  0  0  0  0  0
  -21.8811   -3.8149   23.4368 C   0  0  0  0  0  0
  -21.9173   -4.6977   22.3407 C   0  0  0  0  0  0
  -22.7835  -13.5191   21.1797 C   0  0  0  0  0  0
  -22.1643   -4.2173   21.0993 F   0  0  0  0  0  0
  -21.5620   -3.4540   25.7745 F   0  0  0  0  0  0
  -30.0233  -13.2874   20.4224 N   0  0  0  0  0  0
  -26.3045  -12.9241   20.3456 N   0  0  0  0  0  0
  -25.9328  -11.6424   20.5839 N   0  0  0  0  0  0
  -22.0443  -12.8293   22.0379 N   0  0  0  0  0  0
  -25.4273  -15.1840   20.4186 N   0  0  0  0  0  0
  -31.8787  -14.4712   20.1392 O   0  0  0  0  0  0
  -21.6607   -6.8862   21.4239 O   0  0  0  0  0  0
  -22.3538  -14.5506   20.6616 O   0  0  0  0  0  0
  -24.6173  -31.8678   23.2136 C   0  0  0  0  0  0
  -25.9092  -32.4788   23.8414 C   0  0  1  0  0  0
  -27.2495  -27.4807   20.0866 C   0  0  0  0  0  0
  -25.5982  -33.8592   24.2395 N   0  0  0  0  0  0
  -23.3983  -30.4920   21.5554 C   0  0  2  0  0  0
  -24.8372  -28.9476   20.1305 C   0  0  0  0  0  0
  -22.7403  -29.4697   22.5088 C   0  0  0  0  0  0
  -18.0280  -28.1424   22.8484 C   0  0  0  0  0  0
  -24.1479  -36.7283   23.2624 C   0  0  0  0  0  0
  -25.9192  -30.8537   21.3418 C   0  0  0  0  0  0
  -25.9979  -29.4856   20.7018 C   0  0  0  0  0  0
  -27.2031  -28.7604   20.6748 C   0  0  0  0  0  0
  -26.0714  -26.9322   19.5312 C   0  0  0  0  0  0
  -24.8664  -27.6638   19.5546 C   0  0  0  0  0  0
  -23.5968  -29.8111   20.1748 C   0  0  0  0  0  0
  -25.4082  -36.3099   24.0368 C   0  0  1  0  0  0
  -20.5876  -28.3702   23.1360 C   0  0  2  0  0  0
  -20.6822  -26.9456   22.5462 C   0  0  0  0  0  0
  -19.5808  -26.6415   21.5267 C   0  0  0  0  0  0
  -18.1949  -26.7971   22.1618 C   0  0  0  0  0  0
  -19.1527  -28.8880   23.2912 C   0  0  0  0  0  0
  -18.9483  -30.1502   23.8910 C   0  0  0  0  0  0
  -17.6497  -30.6623   24.0604 C   0  0  0  0  0  0
  -25.9018  -34.9451   23.5159 C   0  0  0  0  0  0
  -16.5385  -29.9115   23.6417 C   0  0  0  0  0  0
  -16.7282  -28.6552   23.0382 C   0  0  0  0  0  0
  -26.4560  -31.6566   25.0732 C   0  0  0  0  0  0
  -25.3899  -31.3650   26.1551 C   0  0  0  0  0  0
  -27.0357  -30.3012   24.6031 C   0  0  0  0  0  0
  -27.6145  -32.4270   25.7481 C   0  0  0  0  0  0
  -27.5591  -37.1772   24.8487 C   0  0  0  0  0  0
  -21.4136  -29.3063   22.3790 N   0  0  0  0  0  0
  -26.4257  -37.3813   23.9475 N   0  0  0  0  0  0
  -24.6654  -31.0823   22.0975 N   0  0  0  0  0  0
  -23.4186  -28.8239   23.3121 O   0  0  0  0  0  0
  -28.4605  -26.8274   20.0625 O   0  0  0  0  0  0
  -26.5519  -34.8926   22.4663 O   0  0  0  0  0  0
  -23.5382  -32.1416   23.7574 O   0  0  0  0  0  0
  -28.7355  -19.8497   20.1714 C   0  0  0  0  0  0
  -30.2796  -20.5800   21.8218 C   0  0  0  0  0  0
  -29.1869  -20.8770   20.9993 C   0  0  0  0  0  0
  -30.3560  -18.4384   20.9981 C   0  0  0  0  0  0
  -27.7716  -25.4185   21.9715 C   0  0  0  0  0  0
  -32.4401  -17.1329   21.6644 C   0  0  0  0  0  0
  -31.5488  -17.1065   19.3601 C   0  0  0  0  0  0
  -28.7107  -16.0515   21.1375 C   0  0  0  0  0  0
  -30.4200  -15.4641   22.8302 C   0  0  0  0  0  0
  -28.5412  -22.2438   20.9734 C   0  0  0  0  0  0
  -29.1056  -23.1172   19.8364 C   0  0  0  0  0  0
  -28.3519  -24.4377   19.6054 C   0  0  0  0  0  0
  -28.5874  -25.5348   20.6619 C   0  0  1  0  0  0
  -31.1047  -17.0769   20.8628 C   0  0  0  0  0  0
  -30.2338  -15.7601   21.3163 C   0  0  0  0  0  0
  -29.3547  -18.6661   20.1456 N   0  0  0  0  0  0
  -30.8405  -19.3589   21.8322 N   0  0  0  0  0  0
  -31.4529  -12.4249   19.0388 H   0  0  0  0  0  0
  -30.3261  -11.3010   19.7150 H   0  0  0  0  0  0
  -29.7191  -11.8826   17.3558 H   0  0  0  0  0  0
  -29.6295  -13.5732   17.7887 H   0  0  0  0  0  0
  -27.7896  -11.3439   18.7209 H   0  0  0  0  0  0
  -27.3514  -12.7509   17.7717 H   0  0  0  0  0  0
  -27.7027  -14.2385   19.6090 H   0  0  0  0  0  0
  -28.7252  -11.8353   21.1787 H   0  0  0  0  0  0
  -28.5138  -13.3477   21.9404 H   0  0  0  0  0  0
  -25.2762   -9.5636   22.4751 H   0  0  0  0  0  0
  -24.0027   -7.4565   22.7462 H   0  0  0  0  0  0
  -21.0822   -8.8723   19.8976 H   0  0  0  0  0  0
  -22.3676  -10.9625   19.6167 H   0  0  0  0  0  0
  -21.2000   -7.6159   23.9761 H   0  0  0  0  0  0
  -21.1490   -6.0526   25.9121 H   0  0  0  0  0  0
  -22.0596   -2.7626   23.2844 H   0  0  0  0  0  0
  -22.4041  -12.0057   22.4978 H   0  0  0  0  0  0
  -21.1031  -13.1329   22.2431 H   0  0  0  0  0  0
  -24.6673  -15.8373   20.5825 H   0  0  0  0  0  0
  -26.3074  -15.6399   20.2182 H   0  0  0  0  0  0
  -26.7151  -32.5522   23.1166 H   0  0  0  0  0  0
  -25.0387  -33.9768   25.0718 H   0  0  0  0  0  0
  -22.6847  -31.3073   21.4143 H   0  0  0  0  0  0
  -23.3794  -35.9550   23.3166 H   0  0  0  0  0  0
  -24.3666  -36.9005   22.2080 H   0  0  0  0  0  0
  -23.7148  -37.6423   23.6678 H   0  0  0  0  0  0
  -26.0125  -31.6127   20.5643 H   0  0  0  0  0  0
  -26.8167  -30.9242   21.9434 H   0  0  0  0  0  0
  -28.0998  -29.1798   21.1085 H   0  0  0  0  0  0
  -26.0747  -25.9504   19.0796 H   0  0  0  0  0  0
  -23.9709  -27.2295   19.1350 H   0  0  0  0  0  0
  -23.6976  -30.5794   19.4078 H   0  0  0  0  0  0
  -22.7190  -29.2314   19.8950 H   0  0  0  0  0  0
  -25.1230  -36.1912   25.0857 H   0  0  0  0  0  0
  -20.9968  -28.3236   24.1488 H   0  0  0  0  0  0
  -20.5816  -26.2326   23.3652 H   0  0  0  0  0  0
  -21.6661  -26.7538   22.1194 H   0  0  0  0  0  0
  -19.7005  -25.6345   21.1285 H   0  0  0  0  0  0
  -19.6786  -27.3236   20.6806 H   0  0  0  0  0  0
  -17.4278  -26.6772   21.3968 H   0  0  0  0  0  0
  -18.0272  -26.0118   22.8995 H   0  0  0  0  0  0
  -19.7979  -30.7315   24.2219 H   0  0  0  0  0  0
  -17.5087  -31.6313   24.5191 H   0  0  0  0  0  0
  -15.5415  -30.3027   23.7800 H   0  0  0  0  0  0
  -15.8659  -28.0917   22.7072 H   0  0  0  0  0  0
  -24.6095  -30.6903   25.8040 H   0  0  0  0  0  0
  -24.9074  -32.2780   26.5013 H   0  0  0  0  0  0
  -25.8396  -30.8931   27.0296 H   0  0  0  0  0  0
  -26.2875  -29.6760   24.1143 H   0  0  0  0  0  0
  -27.4249  -29.7251   25.4445 H   0  0  0  0  0  0
  -27.8655  -30.4397   23.9095 H   0  0  0  0  0  0
  -27.2806  -33.3626   26.1952 H   0  0  0  0  0  0
  -28.4005  -32.6687   25.0327 H   0  0  0  0  0  0
  -28.0709  -31.8423   26.5475 H   0  0  0  0  0  0
  -28.2552  -38.0134   24.7617 H   0  0  0  0  0  0
  -28.1131  -36.2665   24.6134 H   0  0  0  0  0  0
  -27.2357  -37.1251   25.8910 H   0  0  0  0  0  0
  -20.9304  -29.8789   21.7011 H   0  0  0  0  0  0
  -26.0116  -38.2851   24.1555 H   0  0  0  0  0  0
  -27.8993  -19.9811   19.5010 H   0  0  0  0  0  0
  -30.7196  -21.3457   22.4415 H   0  0  0  0  0  0
  -28.0680  -24.5627   22.5682 H   0  0  0  0  0  0
  -26.7030  -25.3306   21.7818 H   0  0  0  0  0  0
  -27.9273  -26.2945   22.6045 H   0  0  0  0  0  0
  -33.0854  -17.9322   21.3067 H   0  0  0  0  0  0
  -33.0062  -16.2041   21.5943 H   0  0  0  0  0  0
  -32.2702  -17.3310   22.7219 H   0  0  0  0  0  0
  -31.8219  -18.1138   19.0467 H   0  0  0  0  0  0
  -30.7551  -16.7667   18.6943 H   0  0  0  0  0  0
  -32.4415  -16.5229   19.1404 H   0  0  0  0  0  0
  -28.3996  -16.8864   21.7689 H   0  0  0  0  0  0
  -28.0250  -15.2793   21.4484 H   0  0  0  0  0  0
  -28.4745  -16.3034   20.1037 H   0  0  0  0  0  0
  -30.2017  -16.3334   23.4506 H   0  0  0  0  0  0
  -31.4352  -15.1361   23.0578 H   0  0  0  0  0  0
  -29.7638  -14.6668   23.1824 H   0  0  0  0  0  0
  -28.7036  -22.6872   21.9531 H   0  0  0  0  0  0
  -27.4593  -22.1256   20.8637 H   0  0  0  0  0  0
  -29.0535  -22.5535   18.9027 H   0  0  0  0  0  0
  -30.1697  -23.3079   19.9903 H   0  0  0  0  0  0
  -27.2917  -24.2367   19.4625 H   0  0  0  0  0  0
  -28.7084  -24.8303   18.6527 H   0  0  0  0  0  0
  -29.6436  -25.4845   20.9328 H   0  0  0  0  0  0
  1 25  1  0  0  0
  1 30  2  0  0  0
  1 85  1  0  0  0
  2  3  1  0  0  0
  2 25  1  0  0  0
  2 88  1  0  0  0
  2 89  1  0  0  0
  3  4  1  0  0  0
  3 90  1  0  0  0
  3 91  1  0  0  0
  4  5  1  0  0  0
  4 92  1  0  0  0
  4 93  1  0  0  0
  5  6  1  0  0  0
  5 26  1  0  0  0
  5 94  1  0  0  0
  6 25  1  0  0  0
  6 95  1  0  0  0
  6 96  1  0  0  0
  7  8  2  0  0  0
  7 26  1  0  0  0
  7 29  1  0  0  0
  8  9  1  0  0  0
  8 22  1  0  0  0
  9 10  1  0  0  0
  9 27  2  0  0  0
 10 11  2  0  0  0
 10 15  1  0  0  0
 11 12  1  0  0  0
 11 97  1  0  0  0
 12 13  2  0  0  0
 12 98  1  0  0  0
 13 14  1  0  0  0
 13 31  1  0  0  0
 14 15  2  0  0  0
 14 99  1  0  0  0
 15100  1  0  0  0
 16 17  2  0  0  0
 16 21  1  0  0  0
 16 31  1  0  0  0
 17 18  1  0  0  0
 17101  1  0  0  0
 18 19  2  0  0  0
 18102  1  0  0  0
 19 20  1  0  0  0
 19 24  1  0  0  0
 20 21  2  0  0  0
 20103  1  0  0  0
 21 23  1  0  0  0
 22 28  1  0  0  0
 22 32  2  0  0  0
 26 27  1  0  0  0
 28104  1  0  0  0
 28105  1  0  0  0
 29106  1  0  0  0
 29107  1  0  0  0
 33 34  1  0  0  0
 33 66  1  0  0  0
 33 70  2  0  0  0
 34 36  1  0  0  0
 34 59  1  0  0  0
 34108  1  0  0  0
 35 44  2  0  0  0
 35 45  1  0  0  0
 35 68  1  0  0  0
 36 56  1  0  0  0
 36109  1  0  0  0
 37 39  1  0  0  0
 37 47  1  0  0  0
 37 66  1  0  0  0
 37110  1  0  0  0
 38 43  2  0  0  0
 38 46  1  0  0  0
 38 47  1  0  0  0
 39 64  1  0  0  0
 39 67  2  0  0  0
 40 52  1  0  0  0
 40 53  2  0  0  0
 40 58  1  0  0  0
 41111  1  0  0  0
 41112  1  0  0  0
 41113  1  0  0  0
 41 48  1  0  0  0
 42 43  1  0  0  0
 42 66  1  0  0  0
 42114  1  0  0  0
 42115  1  0  0  0
 43 44  1  0  0  0
 44116  1  0  0  0
 45 46  2  0  0  0
 45117  1  0  0  0
 46118  1  0  0  0
 47119  1  0  0  0
 47120  1  0  0  0
 48 56  1  0  0  0
 48 65  1  0  0  0
 48121  1  0  0  0
 49 50  1  0  0  0
 49 53  1  0  0  0
 49 64  1  0  0  0
 49122  1  0  0  0
 50 51  1  0  0  0
 50123  1  0  0  0
 50124  1  0  0  0
 51 52  1  0  0  0
 51125  1  0  0  0
 51126  1  0  0  0
 52127  1  0  0  0
 52128  1  0  0  0
 53 54  1  0  0  0
 54 55  2  0  0  0
 54129  1  0  0  0
 55 57  1  0  0  0
 55130  1  0  0  0
 56 69  2  0  0  0
 57 58  2  0  0  0
 57131  1  0  0  0
 58132  1  0  0  0
 59 60  1  0  0  0
 59 61  1  0  0  0
 59 62  1  0  0  0
 60133  1  0  0  0
 60134  1  0  0  0
 60135  1  0  0  0
 61136  1  0  0  0
 61137  1  0  0  0
 61138  1  0  0  0
 62139  1  0  0  0
 62140  1  0  0  0
 62141  1  0  0  0
 63 65  1  0  0  0
 63142  1  0  0  0
 63143  1  0  0  0
 63144  1  0  0  0
 64145  1  0  0  0
 65146  1  0  0  0
 68 83  1  0  0  0
 71 73  2  0  0  0
 71 86  1  0  0  0
 71147  1  0  0  0
 72 73  1  0  0  0
 72 87  2  0  0  0
 72148  1  0  0  0
 73 80  1  0  0  0
 74 84  1  0  0  0
 74 86  2  0  0  0
 74 87  1  0  0  0
 75149  1  0  0  0
 75150  1  0  0  0
 75151  1  0  0  0
 75 83  1  0  0  0
 76152  1  0  0  0
 76153  1  0  0  0
 76154  1  0  0  0
 76 84  1  0  0  0
 77 84  1  0  0  0
 77155  1  0  0  0
 77156  1  0  0  0
 77157  1  0  0  0
 78158  1  0  0  0
 78159  1  0  0  0
 78160  1  0  0  0
 78 85  1  0  0  0
 79 85  1  0  0  0
 79161  1  0  0  0
 79162  1  0  0  0
 79163  1  0  0  0
 80 81  1  0  0  0
 80164  1  0  0  0
 80165  1  0  0  0
 81 82  1  0  0  0
 81166  1  0  0  0
 81167  1  0  0  0
 82 83  1  0  0  0
 82168  1  0  0  0
 82169  1  0  0  0
 83170  1  0  0  0
 84 85  1  0  0  0
M  ISO  4   1 100  68 101  83 101  85 100
M  END
> <chiral flag>
0

> <version>
0

> <s_m_source_file>
/data/baiqing/PycharmProjects/Reinvent-master-3.2/result/LINK_invent/BTK/process_docking_weight1_custom_sum_contain_oxygen_bond_distance_aromatic_linkinvent_7_9_3/rearranged_h_0065.sdf

> <i_m_source_file_index>
54

> <r_mmod_Potential_Energy-OPLS-2005>
-265.755340576172

> <r_mmod_Stretch_Energy-OPLS-2005>
60.1736907958984

> <r_mmod_Bend_Energy-OPLS-2005>
155.831008911133

> <r_mmod_Torsional_Energy-OPLS-2005>
204.407257080078

> <r_mmod_Improper_Torsional_Energy-OPLS-2005>
2.39843940734863

> <r_mmod_Van_der_Waal_Energy-OPLS-2005>
221.837966918945

> <r_mmod_Electrostatic_Energy-OPLS-2005>
-743.340454101562

> <r_mmod_Solvation_Energy-OPLS-2005>
-184.228866577148

> <b_mmod_Minimization_Converged-OPLS-2005>
0

> <r_mmod_RMS_Derivative-OPLS-2005>
7.61981534957886

$$$$
58
                    3D
 Structure written by MMmdl.
175183  0  0  1  0            999 V2000
  -30.7056  -14.6396   20.5223 C   0  0  0  0  0  0
  -30.4048  -12.3944   19.4878 C   0  0  0  0  0  0
  -29.5110  -12.5146   18.2390 C   0  0  0  0  0  0
  -28.0334  -12.3493   18.6378 C   0  0  0  0  0  0
  -27.6442  -13.2395   19.8526 C   0  0  2  0  0  0
  -28.6800  -13.1545   20.9973 C   0  0  0  0  0  0
  -25.2507  -13.8219   20.5703 C   0  0  0  0  0  0
  -24.1799  -13.0459   20.9222 C   0  0  0  0  0  0
  -24.6382  -11.6930   20.8713 C   0  0  0  0  0  0
  -23.9051  -10.4304   21.0374 C   0  0  0  0  0  0
  -24.3613   -9.4226   21.9159 C   0  0  0  0  0  0
  -23.6321   -8.2248   22.0726 C   0  0  0  0  0  0
  -22.4304   -8.0279   21.3520 C   0  0  0  0  0  0
  -21.9924   -9.0243   20.4626 C   0  0  0  0  0  0
  -22.7219  -10.2132   20.3034 C   0  0  0  0  0  0
  -21.6859   -6.0751   22.5278 C   0  0  0  0  0  0
  -21.4016   -6.5641   23.8225 C   0  0  0  0  0  0
  -21.3670   -5.6785   24.9181 C   0  0  0  0  0  0
  -21.6059   -4.3056   24.7214 C   0  0  0  0  0  0
  -21.8814   -3.8153   23.4331 C   0  0  0  0  0  0
  -21.9189   -4.6978   22.3396 C   0  0  0  0  0  0
  -22.7807  -13.5241   21.1847 C   0  0  0  0  0  0
  -22.1649   -4.2168   21.0969 F   0  0  0  0  0  0
  -21.5630   -3.4528   25.7725 F   0  0  0  0  0  0
  -29.9987  -13.4652   20.4313 N   0  0  0  0  0  0
  -26.2930  -12.9449   20.3258 N   0  0  0  0  0  0
  -25.9314  -11.6576   20.5696 N   0  0  0  0  0  0
  -22.0432  -12.8269   22.0430 N   0  0  0  0  0  0
  -25.4162  -15.1950   20.4095 N   0  0  0  0  0  0
  -31.8430  -14.6653   20.0667 O   0  0  0  0  0  0
  -21.6646   -6.8889   21.4243 O   0  0  0  0  0  0
  -22.3484  -14.5511   20.6631 O   0  0  0  0  0  0
  -24.6216  -31.8606   23.2039 C   0  0  0  0  0  0
  -25.9070  -32.4788   23.8357 C   0  0  1  0  0  0
  -27.2283  -27.3262   20.1252 C   0  0  0  0  0  0
  -25.5904  -33.8580   24.2297 N   0  0  0  0  0  0
  -23.4161  -30.4824   21.5447 C   0  0  2  0  0  0
  -24.8642  -28.9388   20.1111 C   0  0  0  0  0  0
  -22.7457  -29.4608   22.4942 C   0  0  0  0  0  0
  -18.0280  -28.1384   22.8479 C   0  0  0  0  0  0
  -24.1479  -36.7279   23.2649 C   0  0  0  0  0  0
  -25.9534  -30.7962   21.3724 C   0  0  0  0  0  0
  -26.0281  -29.4221   20.7186 C   0  0  0  0  0  0
  -27.2081  -28.6243   20.7218 C   0  0  0  0  0  0
  -26.0366  -26.8855   19.5060 C   0  0  0  0  0  0
  -24.8685  -27.6754   19.4975 C   0  0  0  0  0  0
  -23.6307  -29.8179   20.1591 C   0  0  0  0  0  0
  -25.4110  -36.3093   24.0345 C   0  0  1  0  0  0
  -20.5871  -28.3671   23.1297 C   0  0  2  0  0  0
  -20.6769  -26.9398   22.5418 C   0  0  0  0  0  0
  -19.5757  -26.6377   21.5203 C   0  0  0  0  0  0
  -18.1928  -26.7925   22.1608 C   0  0  0  0  0  0
  -19.1526  -28.8839   23.2885 C   0  0  0  0  0  0
  -18.9458  -30.1447   23.8900 C   0  0  0  0  0  0
  -17.6460  -30.6590   24.0541 C   0  0  0  0  0  0
  -25.9043  -34.9463   23.5117 C   0  0  0  0  0  0
  -16.5348  -29.9085   23.6330 C   0  0  0  0  0  0
  -16.7262  -28.6499   23.0346 C   0  0  0  0  0  0
  -26.4477  -31.6592   25.0716 C   0  0  0  0  0  0
  -25.3739  -31.3677   26.1455 C   0  0  0  0  0  0
  -27.0334  -30.3045   24.6127 C   0  0  0  0  0  0
  -27.6049  -32.4319   25.7476 C   0  0  0  0  0  0
  -27.5576  -37.1798   24.8475 C   0  0  0  0  0  0
  -21.4174  -29.3020   22.3693 N   0  0  0  0  0  0
  -26.4289  -37.3790   23.9419 N   0  0  0  0  0  0
  -24.6823  -31.0640   22.0977 N   0  0  0  0  0  0
  -23.4190  -28.8183   23.3042 O   0  0  0  0  0  0
  -28.3723  -26.5159   20.2167 O   0  0  0  0  0  0
  -26.5606  -34.8917   22.4686 O   0  0  0  0  0  0
  -23.5388  -32.1375   23.7389 O   0  0  0  0  0  0
  -29.8612  -19.1270   19.7750 C   0  0  0  0  0  0
  -29.2872  -20.6211   21.9400 C   0  0  0  0  0  0
  -29.8625  -18.5077   21.0610 C   0  0  0  0  0  0
  -29.4467  -21.2759   20.6826 C   0  0  0  0  0  0
  -26.2751  -22.5652   21.1874 C   0  0  0  0  0  0
  -30.7488  -23.0551   19.4685 C   0  0  0  0  0  0
  -30.2933  -23.4264   21.8219 C   0  0  0  0  0  0
  -32.9365  -16.3174   22.3440 C   0  0  0  0  0  0
  -32.5337  -18.7378   22.2219 C   0  0  0  0  0  0
  -32.8607  -17.5532   20.1015 C   0  0  0  0  0  0
  -27.2185  -23.7789   21.2242 C   0  0  0  0  0  0
  -28.5185  -25.2367   19.4945 C   0  0  0  0  0  0
  -30.6306  -17.1593   21.4141 C   0  0  2  0  0  0
  -28.3457  -23.7683   20.1558 C   0  0  1  0  0  0
  -29.6380  -22.8612   20.5356 C   0  0  0  0  0  0
  -32.2086  -17.4017   21.4994 C   0  0  0  0  0  0
  -29.4764  -19.2753   22.1232 N   0  0  0  0  0  0
  -29.6415  -20.4719   19.5878 N   0  0  0  0  0  0
  -30.0990  -15.7835   20.9974 N   0  0  0  0  0  0
  -31.4572  -12.4470   19.2069 H   0  0  0  0  0  0
  -30.2795  -11.4139   19.9498 H   0  0  0  0  0  0
  -29.7900  -11.7671   17.4938 H   0  0  0  0  0  0
  -29.6616  -13.4892   17.7722 H   0  0  0  0  0  0
  -27.8709  -11.2979   18.8835 H   0  0  0  0  0  0
  -27.3886  -12.5577   17.7839 H   0  0  0  0  0  0
  -27.6525  -14.2691   19.4881 H   0  0  0  0  0  0
  -28.6821  -12.1574   21.4411 H   0  0  0  0  0  0
  -28.4191  -13.8426   21.8036 H   0  0  0  0  0  0
  -25.2756   -9.5746   22.4723 H   0  0  0  0  0  0
  -24.0043   -7.4649   22.7457 H   0  0  0  0  0  0
  -21.0848   -8.8753   19.8941 H   0  0  0  0  0  0
  -22.3659  -10.9659   19.6140 H   0  0  0  0  0  0
  -21.1999   -7.6148   23.9750 H   0  0  0  0  0  0
  -21.1500   -6.0491   25.9088 H   0  0  0  0  0  0
  -22.0581   -2.7613   23.2804 H   0  0  0  0  0  0
  -22.4032  -11.9965   22.4891 H   0  0  0  0  0  0
  -21.1017  -13.1261   22.2518 H   0  0  0  0  0  0
  -24.6439  -15.8439   20.5178 H   0  0  0  0  0  0
  -26.2664  -15.6375   20.0803 H   0  0  0  0  0  0
  -26.7137  -32.5465   23.1104 H   0  0  0  0  0  0
  -25.0076  -33.9734   25.0454 H   0  0  0  0  0  0
  -22.7066  -31.3007   21.4039 H   0  0  0  0  0  0
  -23.3765  -35.9586   23.3320 H   0  0  0  0  0  0
  -24.3574  -36.8879   22.2062 H   0  0  0  0  0  0
  -23.7190  -37.6469   23.6649 H   0  0  0  0  0  0
  -26.0791  -31.5615   20.6043 H   0  0  0  0  0  0
  -26.8347  -30.8459   22.0005 H   0  0  0  0  0  0
  -28.1005  -28.9879   21.2097 H   0  0  0  0  0  0
  -25.9611  -25.9069   19.0570 H   0  0  0  0  0  0
  -23.9686  -27.2931   19.0360 H   0  0  0  0  0  0
  -23.7471  -30.5920   19.3989 H   0  0  0  0  0  0
  -22.7503  -29.2462   19.8606 H   0  0  0  0  0  0
  -25.1285  -36.1964   25.0838 H   0  0  0  0  0  0
  -20.9946  -28.3239   24.1421 H   0  0  0  0  0  0
  -20.5657  -26.2269   23.3609 H   0  0  0  0  0  0
  -21.6642  -26.7448   22.1213 H   0  0  0  0  0  0
  -19.6920  -25.6285   21.1232 H   0  0  0  0  0  0
  -19.6712  -27.3181   20.6728 H   0  0  0  0  0  0
  -17.4204  -26.6664   21.4002 H   0  0  0  0  0  0
  -18.0343  -26.0067   22.9009 H   0  0  0  0  0  0
  -19.7939  -30.7240   24.2283 H   0  0  0  0  0  0
  -17.5029  -31.6273   24.5142 H   0  0  0  0  0  0
  -15.5348  -30.2987   23.7670 H   0  0  0  0  0  0
  -15.8660  -28.0823   22.7072 H   0  0  0  0  0  0
  -24.5932  -30.7009   25.7777 H   0  0  0  0  0  0
  -24.8904  -32.2813   26.4921 H   0  0  0  0  0  0
  -25.8096  -30.8833   27.0203 H   0  0  0  0  0  0
  -26.2894  -29.6791   24.1184 H   0  0  0  0  0  0
  -27.4112  -29.7295   25.4588 H   0  0  0  0  0  0
  -27.8719  -30.4380   23.9291 H   0  0  0  0  0  0
  -27.2686  -33.3635   26.2034 H   0  0  0  0  0  0
  -28.3859  -32.6848   25.0296 H   0  0  0  0  0  0
  -28.0711  -31.8453   26.5398 H   0  0  0  0  0  0
  -28.2609  -38.0085   24.7533 H   0  0  0  0  0  0
  -28.1055  -36.2616   24.6296 H   0  0  0  0  0  0
  -27.2293  -37.1448   25.8880 H   0  0  0  0  0  0
  -20.9351  -29.8725   21.6896 H   0  0  0  0  0  0
  -26.0181  -38.2865   24.1434 H   0  0  0  0  0  0
  -30.1789  -18.5728   18.9017 H   0  0  0  0  0  0
  -29.1039  -21.1848   22.8413 H   0  0  0  0  0  0
  -25.5062  -22.6511   21.9583 H   0  0  0  0  0  0
  -26.7968  -21.6249   21.3568 H   0  0  0  0  0  0
  -25.7682  -22.4946   20.2248 H   0  0  0  0  0  0
  -31.6083  -22.4181   19.6838 H   0  0  0  0  0  0
  -31.1471  -24.0683   19.4399 H   0  0  0  0  0  0
  -30.3933  -22.8028   18.4689 H   0  0  0  0  0  0
  -31.2352  -22.9197   22.0398 H   0  0  0  0  0  0
  -29.6738  -23.3220   22.7109 H   0  0  0  0  0  0
  -30.5262  -24.4870   21.7189 H   0  0  0  0  0  0
  -33.8238  -16.7098   22.8468 H   0  0  0  0  0  0
  -33.3085  -15.4887   21.7447 H   0  0  0  0  0  0
  -32.2955  -15.9064   23.1242 H   0  0  0  0  0  0
  -33.6069  -18.8779   22.3648 H   0  0  0  0  0  0
  -32.0766  -18.7776   23.2104 H   0  0  0  0  0  0
  -32.1994  -19.6164   21.6687 H   0  0  0  0  0  0
  -33.9498  -17.5673   20.1713 H   0  0  0  0  0  0
  -32.5707  -18.4889   19.6241 H   0  0  0  0  0  0
  -32.5894  -16.7773   19.3942 H   0  0  0  0  0  0
  -27.6261  -23.9092   22.2251 H   0  0  0  0  0  0
  -26.5927  -24.6577   21.0769 H   0  0  0  0  0  0
  -27.9054  -25.2679   18.5952 H   0  0  0  0  0  0
  -29.5102  -25.3177   19.0624 H   0  0  0  0  0  0
  -30.3691  -17.0712   22.4702 H   0  0  0  0  0  0
  -27.9318  -23.2153   19.3119 H   0  0  0  0  0  0
  -29.1311  -15.6466   21.2478 H   0  0  0  0  0  0
  1 25  1  0  0  0
  1 30  2  0  0  0
  1 89  1  0  0  0
  2  3  1  0  0  0
  2 25  1  0  0  0
  2 90  1  0  0  0
  2 91  1  0  0  0
  3  4  1  0  0  0
  3 92  1  0  0  0
  3 93  1  0  0  0
  4  5  1  0  0  0
  4 94  1  0  0  0
  4 95  1  0  0  0
  5  6  1  0  0  0
  5 26  1  0  0  0
  5 96  1  0  0  0
  6 25  1  0  0  0
  6 97  1  0  0  0
  6 98  1  0  0  0
  7  8  2  0  0  0
  7 26  1  0  0  0
  7 29  1  0  0  0
  8  9  1  0  0  0
  8 22  1  0  0  0
  9 10  1  0  0  0
  9 27  2  0  0  0
 10 11  2  0  0  0
 10 15  1  0  0  0
 11 12  1  0  0  0
 11 99  1  0  0  0
 12 13  2  0  0  0
 12100  1  0  0  0
 13 14  1  0  0  0
 13 31  1  0  0  0
 14 15  2  0  0  0
 14101  1  0  0  0
 15102  1  0  0  0
 16 17  2  0  0  0
 16 21  1  0  0  0
 16 31  1  0  0  0
 17 18  1  0  0  0
 17103  1  0  0  0
 18 19  2  0  0  0
 18104  1  0  0  0
 19 20  1  0  0  0
 19 24  1  0  0  0
 20 21  2  0  0  0
 20105  1  0  0  0
 21 23  1  0  0  0
 22 28  1  0  0  0
 22 32  2  0  0  0
 26 27  1  0  0  0
 28106  1  0  0  0
 28107  1  0  0  0
 29108  1  0  0  0
 29109  1  0  0  0
 33 34  1  0  0  0
 33 66  1  0  0  0
 33 70  2  0  0  0
 34 36  1  0  0  0
 34 59  1  0  0  0
 34110  1  0  0  0
 35 44  2  0  0  0
 35 45  1  0  0  0
 35 68  1  0  0  0
 36 56  1  0  0  0
 36111  1  0  0  0
 37 39  1  0  0  0
 37 47  1  0  0  0
 37 66  1  0  0  0
 37112  1  0  0  0
 38 43  2  0  0  0
 38 46  1  0  0  0
 38 47  1  0  0  0
 39 64  1  0  0  0
 39 67  2  0  0  0
 40 52  1  0  0  0
 40 53  2  0  0  0
 40 58  1  0  0  0
 41113  1  0  0  0
 41114  1  0  0  0
 41115  1  0  0  0
 41 48  1  0  0  0
 42 43  1  0  0  0
 42 66  1  0  0  0
 42116  1  0  0  0
 42117  1  0  0  0
 43 44  1  0  0  0
 44118  1  0  0  0
 45 46  2  0  0  0
 45119  1  0  0  0
 46120  1  0  0  0
 47121  1  0  0  0
 47122  1  0  0  0
 48 56  1  0  0  0
 48 65  1  0  0  0
 48123  1  0  0  0
 49 50  1  0  0  0
 49 53  1  0  0  0
 49 64  1  0  0  0
 49124  1  0  0  0
 50 51  1  0  0  0
 50125  1  0  0  0
 50126  1  0  0  0
 51 52  1  0  0  0
 51127  1  0  0  0
 51128  1  0  0  0
 52129  1  0  0  0
 52130  1  0  0  0
 53 54  1  0  0  0
 54 55  2  0  0  0
 54131  1  0  0  0
 55 57  1  0  0  0
 55132  1  0  0  0
 56 69  2  0  0  0
 57 58  2  0  0  0
 57133  1  0  0  0
 58134  1  0  0  0
 59 60  1  0  0  0
 59 61  1  0  0  0
 59 62  1  0  0  0
 60135  1  0  0  0
 60136  1  0  0  0
 60137  1  0  0  0
 61138  1  0  0  0
 61139  1  0  0  0
 61140  1  0  0  0
 62141  1  0  0  0
 62142  1  0  0  0
 62143  1  0  0  0
 63 65  1  0  0  0
 63144  1  0  0  0
 63145  1  0  0  0
 63146  1  0  0  0
 64147  1  0  0  0
 65148  1  0  0  0
 68 82  1  0  0  0
 71 73  2  0  0  0
 71 88  1  0  0  0
 71149  1  0  0  0
 72 74  1  0  0  0
 72 87  2  0  0  0
 72150  1  0  0  0
 73 83  1  0  0  0
 73 87  1  0  0  0
 74 85  1  0  0  0
 74 88  2  0  0  0
 75 81  1  0  0  0
 75151  1  0  0  0
 75152  1  0  0  0
 75153  1  0  0  0
 76154  1  0  0  0
 76155  1  0  0  0
 76156  1  0  0  0
 76 85  1  0  0  0
 77 85  1  0  0  0
 77157  1  0  0  0
 77158  1  0  0  0
 77159  1  0  0  0
 78160  1  0  0  0
 78161  1  0  0  0
 78162  1  0  0  0
 78 86  1  0  0  0
 79 86  1  0  0  0
 79163  1  0  0  0
 79164  1  0  0  0
 79165  1  0  0  0
 80 86  1  0  0  0
 80166  1  0  0  0
 80167  1  0  0  0
 80168  1  0  0  0
 81169  1  0  0  0
 81170  1  0  0  0
 81 84  1  0  0  0
 82 84  1  0  0  0
 82171  1  0  0  0
 82172  1  0  0  0
 83 86  1  0  0  0
 83 89  1  0  0  0
 83173  1  0  0  0
 84 85  1  0  0  0
 84174  1  0  0  0
 89175  1  0  0  0
M  ISO  4   1 100  68 101  82 101  89 100
M  END
> <chiral flag>
0

> <version>
0

> <s_m_source_file>
/data/baiqing/PycharmProjects/Reinvent-master-3.2/result/LINK_invent/BTK/process_docking_weight1_custom_sum_contain_oxygen_bond_distance_aromatic_linkinvent_7_9_3/rearranged_h_0065.sdf

> <i_m_source_file_index>
55

> <r_mmod_Potential_Energy-OPLS-2005>
298.966522216797

> <r_mmod_Stretch_Energy-OPLS-2005>
118.372329711914

> <r_mmod_Bend_Energy-OPLS-2005>
234.687225341797

> <r_mmod_Torsional_Energy-OPLS-2005>
255.756454467773

> <r_mmod_Improper_Torsional_Energy-OPLS-2005>
6.74522352218628

> <r_mmod_Van_der_Waal_Energy-OPLS-2005>
172.138824462891

> <r_mmod_Electrostatic_Energy-OPLS-2005>
-344.180206298828

> <r_mmod_Solvation_Energy-OPLS-2005>
-193.655899047852

> <b_mmod_Minimization_Converged-OPLS-2005>
0

> <r_mmod_RMS_Derivative-OPLS-2005>
3.66142439842224

$$$$
59
                    3D
 Structure written by MMmdl.
196204  0  0  1  0            999 V2000
  -30.7604  -14.3984   20.6800 C   0  0  0  0  0  0
  -30.4015  -12.3099   19.3933 C   0  0  0  0  0  0
  -29.4860  -12.5589   18.1810 C   0  0  0  0  0  0
  -28.0008  -12.4410   18.5796 C   0  0  0  0  0  0
  -27.6618  -13.2125   19.8817 C   0  0  2  0  0  0
  -28.7000  -12.9478   20.9903 C   0  0  0  0  0  0
  -25.2640  -13.8200   20.5688 C   0  0  0  0  0  0
  -24.1905  -13.0452   20.9116 C   0  0  0  0  0  0
  -24.6453  -11.6919   20.8692 C   0  0  0  0  0  0
  -23.9139  -10.4306   21.0353 C   0  0  0  0  0  0
  -24.3681   -9.4241   21.9139 C   0  0  0  0  0  0
  -23.6358   -8.2283   22.0710 C   0  0  0  0  0  0
  -22.4327   -8.0310   21.3519 C   0  0  0  0  0  0
  -21.9975   -9.0286   20.4610 C   0  0  0  0  0  0
  -22.7307  -10.2149   20.3015 C   0  0  0  0  0  0
  -21.6913   -6.0734   22.5239 C   0  0  0  0  0  0
  -21.4039   -6.5628   23.8165 C   0  0  0  0  0  0
  -21.3689   -5.6772   24.9133 C   0  0  0  0  0  0
  -21.6060   -4.3033   24.7193 C   0  0  0  0  0  0
  -21.8849   -3.8122   23.4310 C   0  0  0  0  0  0
  -21.9233   -4.6945   22.3369 C   0  0  0  0  0  0
  -22.7952  -13.5253   21.1825 C   0  0  0  0  0  0
  -22.1709   -4.2131   21.0941 F   0  0  0  0  0  0
  -21.5644   -3.4532   25.7709 F   0  0  0  0  0  0
  -30.0386  -13.2621   20.4563 N   0  0  0  0  0  0
  -26.3053  -12.9342   20.3357 N   0  0  0  0  0  0
  -25.9369  -11.6495   20.5678 N   0  0  0  0  0  0
  -22.0651  -12.8158   22.0334 N   0  0  0  0  0  0
  -25.4442  -15.1930   20.4316 N   0  0  0  0  0  0
  -31.7933  -14.6552   20.0560 O   0  0  0  0  0  0
  -21.6697   -6.8895   21.4211 O   0  0  0  0  0  0
  -22.3655  -14.5611   20.6763 O   0  0  0  0  0  0
  -24.6151  -31.8677   23.2161 C   0  0  0  0  0  0
  -25.9043  -32.4817   23.8417 C   0  0  1  0  0  0
  -27.2178  -27.4225   20.0893 C   0  0  0  0  0  0
  -25.5932  -33.8645   24.2337 N   0  0  0  0  0  0
  -23.4016  -30.4961   21.5583 C   0  0  2  0  0  0
  -24.8384  -28.9531   20.1273 C   0  0  0  0  0  0
  -22.7407  -29.4665   22.5050 C   0  0  0  0  0  0
  -18.0288  -28.1372   22.8506 C   0  0  0  0  0  0
  -24.1504  -36.7325   23.2641 C   0  0  0  0  0  0
  -25.9297  -30.8315   21.3661 C   0  0  0  0  0  0
  -26.0001  -29.4597   20.7250 C   0  0  0  0  0  0
  -27.1900  -28.6998   20.7033 C   0  0  0  0  0  0
  -26.0416  -26.9385   19.4828 C   0  0  0  0  0  0
  -24.8538  -27.6922   19.5098 C   0  0  0  0  0  0
  -23.6051  -29.8277   20.1749 C   0  0  0  0  0  0
  -25.4127  -36.3125   24.0318 C   0  0  1  0  0  0
  -20.5878  -28.3680   23.1360 C   0  0  2  0  0  0
  -20.6794  -26.9426   22.5468 C   0  0  0  0  0  0
  -19.5760  -26.6386   21.5271 C   0  0  0  0  0  0
  -18.1925  -26.7924   22.1644 C   0  0  0  0  0  0
  -19.1530  -28.8827   23.2922 C   0  0  0  0  0  0
  -18.9460  -30.1430   23.8928 C   0  0  0  0  0  0
  -17.6454  -30.6574   24.0567 C   0  0  0  0  0  0
  -25.9042  -34.9483   23.5124 C   0  0  0  0  0  0
  -16.5341  -29.9086   23.6368 C   0  0  0  0  0  0
  -16.7277  -28.6520   23.0379 C   0  0  0  0  0  0
  -26.4476  -31.6579   25.0736 C   0  0  0  0  0  0
  -25.3743  -31.3581   26.1478 C   0  0  0  0  0  0
  -27.0256  -30.3039   24.6024 C   0  0  0  0  0  0
  -27.6081  -32.4282   25.7458 C   0  0  0  0  0  0
  -27.5563  -37.1823   24.8447 C   0  0  0  0  0  0
  -21.4153  -29.3030   22.3775 N   0  0  0  0  0  0
  -26.4287  -37.3832   23.9395 N   0  0  0  0  0  0
  -24.6679  -31.0810   22.1059 N   0  0  0  0  0  0
  -23.4193  -28.8210   23.3088 O   0  0  0  0  0  0
  -28.3982  -26.7171   19.9935 O   0  0  0  0  0  0
  -26.5623  -34.8949   22.4688 O   0  0  0  0  0  0
  -23.5361  -32.1443   23.7605 O   0  0  0  0  0  0
  -29.0079  -17.9183   18.1660 C   0  0  0  0  0  0
  -29.5147  -18.3500   19.4163 C   0  0  0  0  0  0
  -27.7019  -19.8161   18.0130 C   0  0  0  0  0  0
  -28.2093  -20.2875   19.2635 C   0  0  0  0  0  0
  -29.2762  -16.5415   17.5835 C   0  0  0  0  0  0
  -28.4381  -17.3902   23.5307 C   0  0  0  0  0  0
  -25.4973  -16.2781   16.6978 C   0  0  0  0  0  0
  -23.2722  -17.1781   17.4141 C   0  0  0  0  0  0
  -23.6673  -16.5176   15.0588 C   0  0  0  0  0  0
  -25.9287  -18.6799   14.8568 C   0  0  0  0  0  0
  -23.6661  -19.5266   15.3394 C   0  0  0  0  0  0
  -30.4844  -14.8146   23.0221 C   0  0  0  0  0  0
  -26.5141  -20.3977   17.2441 C   0  0  0  0  0  0
  -27.6854  -21.5535   19.9729 C   0  0  0  0  0  0
  -30.4603  -17.4514   20.2220 C   0  0  0  0  0  0
  -29.6598  -17.5698   22.6183 C   0  0  0  0  0  0
  -28.5508  -22.8394   19.7999 C   0  0  0  0  0  0
  -25.3004  -19.4119   17.2671 C   0  0  0  0  0  0
  -27.7966  -24.2083   19.7235 C   0  0  0  0  0  0
  -28.4661  -25.3729   20.5147 C   0  0  0  0  0  0
  -29.7598  -16.6350   21.3639 C   0  0  2  0  0  0
  -24.3292  -17.2068   16.2763 C   0  0  0  0  0  0
  -24.8224  -18.6891   15.9492 C   0  0  0  0  0  0
  -28.1636  -18.6752   17.4521 N   0  0  0  0  0  0
  -29.1478  -19.5592   19.9367 N   0  0  0  0  0  0
  -30.2847  -15.2478   21.6302 N   0  0  0  0  0  0
  -31.4501  -12.3959   19.0976 H   0  0  0  0  0  0
  -30.2685  -11.2888   19.7531 H   0  0  0  0  0  0
  -29.7120  -11.8706   17.3676 H   0  0  0  0  0  0
  -29.6815  -13.5512   17.7817 H   0  0  0  0  0  0
  -27.7520  -11.3825   18.6735 H   0  0  0  0  0  0
  -27.3788  -12.8247   17.7702 H   0  0  0  0  0  0
  -27.7139  -14.2705   19.6453 H   0  0  0  0  0  0
  -28.6672  -11.9008   21.2972 H   0  0  0  0  0  0
  -28.4358  -13.5279   21.8764 H   0  0  0  0  0  0
  -25.2827   -9.5726   22.4719 H   0  0  0  0  0  0
  -24.0087   -7.4661   22.7405 H   0  0  0  0  0  0
  -21.0916   -8.8795   19.8899 H   0  0  0  0  0  0
  -22.3764  -10.9697   19.6142 H   0  0  0  0  0  0
  -21.2005   -7.6131   23.9668 H   0  0  0  0  0  0
  -21.1518   -6.0484   25.9028 H   0  0  0  0  0  0
  -22.0612   -2.7577   23.2800 H   0  0  0  0  0  0
  -22.4357  -11.9817   22.4655 H   0  0  0  0  0  0
  -21.1264  -13.1106   22.2554 H   0  0  0  0  0  0
  -24.6793  -15.8537   20.5290 H   0  0  0  0  0  0
  -26.3235  -15.6397   20.2027 H   0  0  0  0  0  0
  -26.7108  -32.5513   23.1175 H   0  0  0  0  0  0
  -25.0116  -33.9803   25.0510 H   0  0  0  0  0  0
  -22.6902  -31.3142   21.4226 H   0  0  0  0  0  0
  -23.3778  -35.9625   23.3299 H   0  0  0  0  0  0
  -24.3629  -36.9001   22.2056 H   0  0  0  0  0  0
  -23.7264  -37.6531   23.6690 H   0  0  0  0  0  0
  -26.0250  -31.5850   20.5826 H   0  0  0  0  0  0
  -26.8284  -30.8996   21.9636 H   0  0  0  0  0  0
  -28.0908  -29.0870   21.1581 H   0  0  0  0  0  0
  -26.0334  -25.9960   18.9600 H   0  0  0  0  0  0
  -23.9643  -27.3044   19.0346 H   0  0  0  0  0  0
  -23.7097  -30.6019   19.4141 H   0  0  0  0  0  0
  -22.7279  -29.2495   19.8816 H   0  0  0  0  0  0
  -25.1302  -36.1990   25.0803 H   0  0  0  0  0  0
  -20.9939  -28.3212   24.1481 H   0  0  0  0  0  0
  -20.5792  -26.2227   23.3629 H   0  0  0  0  0  0
  -21.6651  -26.7512   22.1164 H   0  0  0  0  0  0
  -19.6952  -25.6317   21.1263 H   0  0  0  0  0  0
  -19.6708  -27.3212   20.6813 H   0  0  0  0  0  0
  -17.4228  -26.6740   21.4003 H   0  0  0  0  0  0
  -18.0262  -26.0018   22.8979 H   0  0  0  0  0  0
  -19.7922  -30.7262   24.2283 H   0  0  0  0  0  0
  -17.5014  -31.6260   24.5141 H   0  0  0  0  0  0
  -15.5360  -30.2977   23.7659 H   0  0  0  0  0  0
  -15.8689  -28.0825   22.7085 H   0  0  0  0  0  0
  -24.6023  -30.6796   25.7821 H   0  0  0  0  0  0
  -24.8719  -32.2611   26.4942 H   0  0  0  0  0  0
  -25.8096  -30.8810   27.0256 H   0  0  0  0  0  0
  -26.2706  -29.6842   24.1152 H   0  0  0  0  0  0
  -27.4162  -29.7256   25.4404 H   0  0  0  0  0  0
  -27.8495  -30.4431   23.9002 H   0  0  0  0  0  0
  -27.2787  -33.3682   26.1927 H   0  0  0  0  0  0
  -28.3878  -32.6732   25.0209 H   0  0  0  0  0  0
  -28.0703  -31.8446   26.5430 H   0  0  0  0  0  0
  -28.2582  -38.0137   24.7588 H   0  0  0  0  0  0
  -28.1083  -36.2689   24.6180 H   0  0  0  0  0  0
  -27.2277  -37.1339   25.8855 H   0  0  0  0  0  0
  -20.9338  -29.8714   21.6960 H   0  0  0  0  0  0
  -26.0172  -38.2889   24.1500 H   0  0  0  0  0  0
  -30.3302  -16.3997   17.3352 H   0  0  0  0  0  0
  -28.6876  -16.3711   16.6803 H   0  0  0  0  0  0
  -28.9892  -15.7896   18.3146 H   0  0  0  0  0  0
  -28.3415  -18.2612   24.1825 H   0  0  0  0  0  0
  -28.5201  -16.5165   24.1736 H   0  0  0  0  0  0
  -27.5013  -17.3098   22.9745 H   0  0  0  0  0  0
  -25.1542  -15.2524   16.8502 H   0  0  0  0  0  0
  -25.9686  -16.5786   17.6321 H   0  0  0  0  0  0
  -26.2770  -16.2302   15.9371 H   0  0  0  0  0  0
  -22.9169  -16.1649   17.6036 H   0  0  0  0  0  0
  -22.3858  -17.7696   17.1871 H   0  0  0  0  0  0
  -23.6607  -17.5361   18.3669 H   0  0  0  0  0  0
  -23.3087  -15.5211   15.3230 H   0  0  0  0  0  0
  -24.3605  -16.3705   14.2309 H   0  0  0  0  0  0
  -22.8043  -17.0635   14.6828 H   0  0  0  0  0  0
  -26.0976  -19.6770   14.4489 H   0  0  0  0  0  0
  -25.6765  -18.0689   13.9932 H   0  0  0  0  0  0
  -26.8884  -18.3170   15.2164 H   0  0  0  0  0  0
  -23.9283  -20.5793   15.2522 H   0  0  0  0  0  0
  -22.7486  -19.4900   15.9236 H   0  0  0  0  0  0
  -23.4108  -19.1939   14.3331 H   0  0  0  0  0  0
  -29.5281  -14.6608   23.5177 H   0  0  0  0  0  0
  -31.0780  -15.5243   23.5909 H   0  0  0  0  0  0
  -31.0215  -13.8622   23.0969 H   0  0  0  0  0  0
  -26.8388  -20.6537   16.2402 H   0  0  0  0  0  0
  -26.2107  -21.3561   17.6640 H   0  0  0  0  0  0
  -27.6456  -21.3164   21.0357 H   0  0  0  0  0  0
  -26.6398  -21.7330   19.7283 H   0  0  0  0  0  0
  -31.2832  -18.0507   20.6169 H   0  0  0  0  0  0
  -30.9583  -16.8154   19.5018 H   0  0  0  0  0  0
  -30.5810  -17.5646   23.1984 H   0  0  0  0  0  0
  -29.5904  -18.6049   22.2864 H   0  0  0  0  0  0
  -29.1383  -22.7517   18.8856 H   0  0  0  0  0  0
  -29.2881  -22.8581   20.6046 H   0  0  0  0  0  0
  -24.4461  -19.9277   17.7106 H   0  0  0  0  0  0
  -25.5355  -18.6646   18.0209 H   0  0  0  0  0  0
  -26.7732  -24.1000   20.0810 H   0  0  0  0  0  0
  -27.7240  -24.4841   18.6734 H   0  0  0  0  0  0
  -29.5358  -25.1693   20.5755 H   0  0  0  0  0  0
  -28.1086  -25.3652   21.5450 H   0  0  0  0  0  0
  -28.7494  -16.4360   21.0054 H   0  0  0  0  0  0
  1 25  1  0  0  0
  1 30  2  0  0  0
  1 96  1  0  0  0
  2  3  1  0  0  0
  2 25  1  0  0  0
  2 97  1  0  0  0
  2 98  1  0  0  0
  3  4  1  0  0  0
  3 99  1  0  0  0
  3100  1  0  0  0
  4  5  1  0  0  0
  4101  1  0  0  0
  4102  1  0  0  0
  5  6  1  0  0  0
  5 26  1  0  0  0
  5103  1  0  0  0
  6 25  1  0  0  0
  6104  1  0  0  0
  6105  1  0  0  0
  7  8  2  0  0  0
  7 26  1  0  0  0
  7 29  1  0  0  0
  8  9  1  0  0  0
  8 22  1  0  0  0
  9 10  1  0  0  0
  9 27  2  0  0  0
 10 11  2  0  0  0
 10 15  1  0  0  0
 11 12  1  0  0  0
 11106  1  0  0  0
 12 13  2  0  0  0
 12107  1  0  0  0
 13 14  1  0  0  0
 13 31  1  0  0  0
 14 15  2  0  0  0
 14108  1  0  0  0
 15109  1  0  0  0
 16 17  2  0  0  0
 16 21  1  0  0  0
 16 31  1  0  0  0
 17 18  1  0  0  0
 17110  1  0  0  0
 18 19  2  0  0  0
 18111  1  0  0  0
 19 20  1  0  0  0
 19 24  1  0  0  0
 20 21  2  0  0  0
 20112  1  0  0  0
 21 23  1  0  0  0
 22 28  1  0  0  0
 22 32  2  0  0  0
 26 27  1  0  0  0
 28113  1  0  0  0
 28114  1  0  0  0
 29115  1  0  0  0
 29116  1  0  0  0
 33 34  1  0  0  0
 33 66  1  0  0  0
 33 70  2  0  0  0
 34 36  1  0  0  0
 34 59  1  0  0  0
 34117  1  0  0  0
 35 44  2  0  0  0
 35 45  1  0  0  0
 35 68  1  0  0  0
 36 56  1  0  0  0
 36118  1  0  0  0
 37 39  1  0  0  0
 37 47  1  0  0  0
 37 66  1  0  0  0
 37119  1  0  0  0
 38 43  2  0  0  0
 38 46  1  0  0  0
 38 47  1  0  0  0
 39 64  1  0  0  0
 39 67  2  0  0  0
 40 52  1  0  0  0
 40 53  2  0  0  0
 40 58  1  0  0  0
 41120  1  0  0  0
 41121  1  0  0  0
 41122  1  0  0  0
 41 48  1  0  0  0
 42 43  1  0  0  0
 42 66  1  0  0  0
 42123  1  0  0  0
 42124  1  0  0  0
 43 44  1  0  0  0
 44125  1  0  0  0
 45 46  2  0  0  0
 45126  1  0  0  0
 46127  1  0  0  0
 47128  1  0  0  0
 47129  1  0  0  0
 48 56  1  0  0  0
 48 65  1  0  0  0
 48130  1  0  0  0
 49 50  1  0  0  0
 49 53  1  0  0  0
 49 64  1  0  0  0
 49131  1  0  0  0
 50 51  1  0  0  0
 50132  1  0  0  0
 50133  1  0  0  0
 51 52  1  0  0  0
 51134  1  0  0  0
 51135  1  0  0  0
 52136  1  0  0  0
 52137  1  0  0  0
 53 54  1  0  0  0
 54 55  2  0  0  0
 54138  1  0  0  0
 55 57  1  0  0  0
 55139  1  0  0  0
 56 69  2  0  0  0
 57 58  2  0  0  0
 57140  1  0  0  0
 58141  1  0  0  0
 59 60  1  0  0  0
 59 61  1  0  0  0
 59 62  1  0  0  0
 60142  1  0  0  0
 60143  1  0  0  0
 60144  1  0  0  0
 61145  1  0  0  0
 61146  1  0  0  0
 61147  1  0  0  0
 62148  1  0  0  0
 62149  1  0  0  0
 62150  1  0  0  0
 63 65  1  0  0  0
 63151  1  0  0  0
 63152  1  0  0  0
 63153  1  0  0  0
 64154  1  0  0  0
 65155  1  0  0  0
 68 90  1  0  0  0
 71 72  2  0  0  0
 71 75  1  0  0  0
 71 94  1  0  0  0
 72 85  1  0  0  0
 72 95  1  0  0  0
 73 74  1  0  0  0
 73 83  1  0  0  0
 73 94  2  0  0  0
 74 84  1  0  0  0
 74 95  2  0  0  0
 75156  1  0  0  0
 75157  1  0  0  0
 75158  1  0  0  0
 76 86  1  0  0  0
 76159  1  0  0  0
 76160  1  0  0  0
 76161  1  0  0  0
 77162  1  0  0  0
 77163  1  0  0  0
 77164  1  0  0  0
 77 92  1  0  0  0
 78 92  1  0  0  0
 78165  1  0  0  0
 78166  1  0  0  0
 78167  1  0  0  0
 79 92  1  0  0  0
 79168  1  0  0  0
 79169  1  0  0  0
 79170  1  0  0  0
 80171  1  0  0  0
 80172  1  0  0  0
 80173  1  0  0  0
 80 93  1  0  0  0
 81 93  1  0  0  0
 81174  1  0  0  0
 81175  1  0  0  0
 81176  1  0  0  0
 82 96  1  0  0  0
 82177  1  0  0  0
 82178  1  0  0  0
 82179  1  0  0  0
 83 88  1  0  0  0
 83180  1  0  0  0
 83181  1  0  0  0
 84 87  1  0  0  0
 84182  1  0  0  0
 84183  1  0  0  0
 85184  1  0  0  0
 85185  1  0  0  0
 85 91  1  0  0  0
 86 91  1  0  0  0
 86186  1  0  0  0
 86187  1  0  0  0
 87 89  1  0  0  0
 87188  1  0  0  0
 87189  1  0  0  0
 88 93  1  0  0  0
 88190  1  0  0  0
 88191  1  0  0  0
 89 90  1  0  0  0
 89192  1  0  0  0
 89193  1  0  0  0
 90194  1  0  0  0
 90195  1  0  0  0
 91 96  1  0  0  0
 91196  1  0  0  0
 92 93  1  0  0  0
M  ISO  4   1 100  68 101  90 101  96 100
M  END
> <chiral flag>
0

> <version>
0

> <s_m_source_file>
/data/baiqing/PycharmProjects/Reinvent-master-3.2/result/LINK_invent/BTK/process_docking_weight1_custom_sum_contain_oxygen_bond_distance_aromatic_linkinvent_7_9_3/rearranged_h_0065.sdf

> <i_m_source_file_index>
56

> <r_mmod_Potential_Energy-OPLS-2005>
297.043975830078

> <r_mmod_Stretch_Energy-OPLS-2005>
65.1981582641602

> <r_mmod_Bend_Energy-OPLS-2005>
167.753921508789

> <r_mmod_Torsional_Energy-OPLS-2005>
387.654022216797

> <r_mmod_Improper_Torsional_Energy-OPLS-2005>
2.85356402397156

> <r_mmod_Van_der_Waal_Energy-OPLS-2005>
167.213302612305

> <r_mmod_Electrostatic_Energy-OPLS-2005>
-327.584899902344

> <r_mmod_Solvation_Energy-OPLS-2005>
-175.038070678711

> <b_mmod_Minimization_Converged-OPLS-2005>
0

> <r_mmod_RMS_Derivative-OPLS-2005>
7.95129442214966

$$$$
61
                    3D
 Structure written by MMmdl.
175183  0  0  1  0            999 V2000
  -30.7520  -14.4932   20.5982 C   0  0  0  0  0  0
  -30.4080  -12.3273   19.4358 C   0  0  0  0  0  0
  -29.4878  -12.5115   18.2125 C   0  0  0  0  0  0
  -28.0134  -12.3602   18.6272 C   0  0  0  0  0  0
  -27.6555  -13.2181   19.8701 C   0  0  2  0  0  0
  -28.7014  -13.0355   20.9956 C   0  0  0  0  0  0
  -25.2520  -13.8185   20.5616 C   0  0  0  0  0  0
  -24.1796  -13.0432   20.9173 C   0  0  0  0  0  0
  -24.6387  -11.6919   20.8736 C   0  0  0  0  0  0
  -23.9053  -10.4286   21.0384 C   0  0  0  0  0  0
  -24.3606   -9.4213   21.9171 C   0  0  0  0  0  0
  -23.6282   -8.2243   22.0752 C   0  0  0  0  0  0
  -22.4273   -8.0275   21.3535 C   0  0  0  0  0  0
  -21.9906   -9.0236   20.4630 C   0  0  0  0  0  0
  -22.7226  -10.2119   20.3031 C   0  0  0  0  0  0
  -21.6855   -6.0724   22.5272 C   0  0  0  0  0  0
  -21.4015   -6.5626   23.8215 C   0  0  0  0  0  0
  -21.3661   -5.6789   24.9168 C   0  0  0  0  0  0
  -21.6043   -4.3047   24.7228 C   0  0  0  0  0  0
  -21.8818   -3.8140   23.4346 C   0  0  0  0  0  0
  -21.9191   -4.6943   22.3403 C   0  0  0  0  0  0
  -22.7817  -13.5215   21.1833 C   0  0  0  0  0  0
  -22.1652   -4.2131   21.0977 F   0  0  0  0  0  0
  -21.5626   -3.4541   25.7740 F   0  0  0  0  0  0
  -30.0287  -13.3426   20.4403 N   0  0  0  0  0  0
  -26.2988  -12.9380   20.3349 N   0  0  0  0  0  0
  -25.9324  -11.6534   20.5786 N   0  0  0  0  0  0
  -22.0465  -12.8187   22.0385 N   0  0  0  0  0  0
  -25.4168  -15.1881   20.3905 N   0  0  0  0  0  0
  -31.8498  -14.6057   20.0465 O   0  0  0  0  0  0
  -21.6638   -6.8861   21.4243 O   0  0  0  0  0  0
  -22.3494  -14.5517   20.6681 O   0  0  0  0  0  0
  -24.6169  -31.8685   23.2052 C   0  0  0  0  0  0
  -25.9066  -32.4808   23.8345 C   0  0  1  0  0  0
  -27.2358  -27.3984   20.1082 C   0  0  0  0  0  0
  -25.5931  -33.8612   24.2258 N   0  0  0  0  0  0
  -23.4019  -30.4887   21.5530 C   0  0  2  0  0  0
  -24.8480  -28.9406   20.1264 C   0  0  0  0  0  0
  -22.7384  -29.4713   22.5073 C   0  0  0  0  0  0
  -18.0298  -28.1411   22.8501 C   0  0  0  0  0  0
  -24.1494  -36.7293   23.2625 C   0  0  0  0  0  0
  -25.9325  -30.8235   21.3584 C   0  0  0  0  0  0
  -26.0174  -29.4571   20.7006 C   0  0  0  0  0  0
  -27.2160  -28.6976   20.6753 C   0  0  0  0  0  0
  -26.0458  -26.9070   19.5276 C   0  0  0  0  0  0
  -24.8557  -27.6619   19.5442 C   0  0  0  0  0  0
  -23.6044  -29.8020   20.1790 C   0  0  0  0  0  0
  -25.4114  -36.3060   24.0300 C   0  0  1  0  0  0
  -20.5865  -28.3700   23.1353 C   0  0  2  0  0  0
  -20.6805  -26.9452   22.5426 C   0  0  0  0  0  0
  -19.5799  -26.6409   21.5216 C   0  0  0  0  0  0
  -18.1961  -26.7970   22.1600 C   0  0  0  0  0  0
  -19.1535  -28.8870   23.2912 C   0  0  0  0  0  0
  -18.9469  -30.1490   23.8896 C   0  0  0  0  0  0
  -17.6468  -30.6624   24.0562 C   0  0  0  0  0  0
  -25.9044  -34.9452   23.5040 C   0  0  0  0  0  0
  -16.5357  -29.9088   23.6389 C   0  0  0  0  0  0
  -16.7282  -28.6527   23.0377 C   0  0  0  0  0  0
  -26.4449  -31.6617   25.0717 C   0  0  0  0  0  0
  -25.3637  -31.3764   26.1402 C   0  0  0  0  0  0
  -27.0289  -30.3034   24.6163 C   0  0  0  0  0  0
  -27.6012  -32.4345   25.7492 C   0  0  0  0  0  0
  -27.5571  -37.1750   24.8473 C   0  0  0  0  0  0
  -21.4119  -29.3044   22.3744 N   0  0  0  0  0  0
  -26.4308  -37.3743   23.9404 N   0  0  0  0  0  0
  -24.6687  -31.0691   22.1007 N   0  0  0  0  0  0
  -23.4117  -28.8298   23.3179 O   0  0  0  0  0  0
  -28.3915  -26.6289   20.1215 O   0  0  0  0  0  0
  -26.5596  -34.8933   22.4593 O   0  0  0  0  0  0
  -23.5346  -32.1515   23.7382 O   0  0  0  0  0  0
  -28.6046  -20.3122   22.8589 C   0  0  0  0  0  0
  -28.5439  -19.0050   23.3585 C   0  0  0  0  0  0
  -29.3471  -20.5189   21.6892 C   0  0  0  0  0  0
  -29.7883  -18.2231   21.5998 C   0  0  0  0  0  0
  -27.9242  -18.7003   24.7037 C   0  0  0  0  0  0
  -31.0980  -15.5500   22.8196 C   0  0  0  0  0  0
  -27.1314  -22.4908   20.7260 C   0  0  0  0  0  0
  -28.5688  -21.6571   18.8836 C   0  0  0  0  0  0
  -30.4036  -24.3451   19.5853 C   0  0  0  0  0  0
  -28.3152  -24.4119   18.2609 C   0  0  0  0  0  0
  -31.2384  -17.3692   19.7782 C   0  0  0  0  0  0
  -29.5915  -21.9565   21.1462 C   0  0  0  0  0  0
  -28.2836  -25.2597   20.6175 C   0  0  0  0  0  0
  -30.2987  -15.7024   21.4997 C   0  0  1  0  0  0
  -28.5558  -22.5910   20.1243 C   0  0  0  0  0  0
  -28.8755  -24.1249   19.6783 C   0  0  0  0  0  0
  -29.1087  -17.9728   22.7100 N   0  0  0  0  0  0
  -29.9418  -19.4550   21.0829 N   0  0  0  0  0  0
  -30.4031  -17.1125   20.9639 N   0  0  0  0  0  0
  -31.4553  -12.3861   19.1369 H   0  0  0  0  0  0
  -30.2846  -11.3268   19.8531 H   0  0  0  0  0  0
  -29.7338  -11.7834   17.4383 H   0  0  0  0  0  0
  -29.6505  -13.4956   17.7708 H   0  0  0  0  0  0
  -27.8402  -11.3058   18.8443 H   0  0  0  0  0  0
  -27.3571  -12.6039   17.7925 H   0  0  0  0  0  0
  -27.6903  -14.2602   19.5538 H   0  0  0  0  0  0
  -28.6857  -12.0056   21.3541 H   0  0  0  0  0  0
  -28.4497  -13.6390   21.8657 H   0  0  0  0  0  0
  -25.2751   -9.5693   22.4737 H   0  0  0  0  0  0
  -23.9985   -7.4652   22.7490 H   0  0  0  0  0  0
  -21.0839   -8.8734   19.8943 H   0  0  0  0  0  0
  -22.3673  -10.9633   19.6124 H   0  0  0  0  0  0
  -21.2021   -7.6144   23.9701 H   0  0  0  0  0  0
  -21.1477   -6.0522   25.9071 H   0  0  0  0  0  0
  -22.0603   -2.7605   23.2855 H   0  0  0  0  0  0
  -22.4102  -11.9858   22.4767 H   0  0  0  0  0  0
  -21.1065  -13.1149   22.2576 H   0  0  0  0  0  0
  -24.6349  -15.8290   20.4508 H   0  0  0  0  0  0
  -26.2566  -15.6233   20.0315 H   0  0  0  0  0  0
  -26.7088  -32.5500   23.1070 H   0  0  0  0  0  0
  -25.0116  -33.9762   25.0413 H   0  0  0  0  0  0
  -22.6962  -31.3108   21.4046 H   0  0  0  0  0  0
  -23.3746  -35.9635   23.3316 H   0  0  0  0  0  0
  -24.3591  -36.8899   22.2039 H   0  0  0  0  0  0
  -23.7288  -37.6504   23.6662 H   0  0  0  0  0  0
  -26.0409  -31.5933   20.5935 H   0  0  0  0  0  0
  -26.8169  -30.8752   21.9806 H   0  0  0  0  0  0
  -28.1238  -29.0889   21.1142 H   0  0  0  0  0  0
  -26.0305  -25.9260   19.0742 H   0  0  0  0  0  0
  -23.9445  -27.2475   19.1332 H   0  0  0  0  0  0
  -23.6844  -30.5608   19.4025 H   0  0  0  0  0  0
  -22.7319  -29.2057   19.9044 H   0  0  0  0  0  0
  -25.1264  -36.1860   25.0783 H   0  0  0  0  0  0
  -20.9958  -28.3294   24.1465 H   0  0  0  0  0  0
  -20.5814  -26.2277   23.3579 H   0  0  0  0  0  0
  -21.6670  -26.7602   22.1143 H   0  0  0  0  0  0
  -19.6981  -25.6310   21.1280 H   0  0  0  0  0  0
  -19.6761  -27.3197   20.6723 H   0  0  0  0  0  0
  -17.4231  -26.6766   21.3981 H   0  0  0  0  0  0
  -18.0352  -26.0085   22.8960 H   0  0  0  0  0  0
  -19.7946  -30.7328   24.2231 H   0  0  0  0  0  0
  -17.5039  -31.6333   24.5146 H   0  0  0  0  0  0
  -15.5363  -30.2964   23.7816 H   0  0  0  0  0  0
  -15.8668  -28.0864   22.7079 H   0  0  0  0  0  0
  -24.6042  -30.6813   25.7804 H   0  0  0  0  0  0
  -24.8515  -32.2880   26.4498 H   0  0  0  0  0  0
  -25.7958  -30.9303   27.0366 H   0  0  0  0  0  0
  -26.2877  -29.6804   24.1143 H   0  0  0  0  0  0
  -27.3934  -29.7287   25.4685 H   0  0  0  0  0  0
  -27.8756  -30.4318   23.9425 H   0  0  0  0  0  0
  -27.2734  -33.3823   26.1774 H   0  0  0  0  0  0
  -28.4005  -32.6571   25.0421 H   0  0  0  0  0  0
  -28.0420  -31.8609   26.5643 H   0  0  0  0  0  0
  -28.2530  -38.0093   24.7533 H   0  0  0  0  0  0
  -28.1108  -36.2602   24.6274 H   0  0  0  0  0  0
  -27.2279  -37.1362   25.8874 H   0  0  0  0  0  0
  -20.9322  -29.8597   21.6796 H   0  0  0  0  0  0
  -26.0170  -38.2803   24.1430 H   0  0  0  0  0  0
  -28.1354  -21.1359   23.3831 H   0  0  0  0  0  0
  -27.1402  -19.4151   24.9536 H   0  0  0  0  0  0
  -28.6981  -18.7617   25.4701 H   0  0  0  0  0  0
  -27.5019  -17.6959   24.7290 H   0  0  0  0  0  0
  -30.6574  -16.1083   23.6441 H   0  0  0  0  0  0
  -32.1279  -15.8900   22.7036 H   0  0  0  0  0  0
  -31.1388  -14.5088   23.1500 H   0  0  0  0  0  0
  -26.8288  -21.4549   20.8847 H   0  0  0  0  0  0
  -26.3830  -22.9481   20.0769 H   0  0  0  0  0  0
  -27.0662  -22.9840   21.6957 H   0  0  0  0  0  0
  -28.4491  -20.6097   19.1525 H   0  0  0  0  0  0
  -29.5017  -21.7390   18.3233 H   0  0  0  0  0  0
  -27.7463  -21.8659   18.1995 H   0  0  0  0  0  0
  -30.6446  -25.3310   19.1824 H   0  0  0  0  0  0
  -30.8839  -23.6142   18.9323 H   0  0  0  0  0  0
  -30.8856  -24.2854   20.5594 H   0  0  0  0  0  0
  -28.4943  -25.4415   17.9493 H   0  0  0  0  0  0
  -27.2422  -24.2335   18.2080 H   0  0  0  0  0  0
  -28.7982  -23.8092   17.4925 H   0  0  0  0  0  0
  -31.1198  -18.3530   19.3231 H   0  0  0  0  0  0
  -30.9958  -16.6769   18.9727 H   0  0  0  0  0  0
  -32.2953  -17.2616   20.0310 H   0  0  0  0  0  0
  -30.5822  -21.9394   20.6905 H   0  0  0  0  0  0
  -29.6910  -22.6124   22.0136 H   0  0  0  0  0  0
  -28.8157  -25.2425   21.5689 H   0  0  0  0  0  0
  -27.2477  -25.0511   20.8827 H   0  0  0  0  0  0
  -29.2424  -15.5677   21.7187 H   0  0  0  0  0  0
  1 25  1  0  0  0
  1 30  2  0  0  0
  1 84  1  0  0  0
  2  3  1  0  0  0
  2 25  1  0  0  0
  2 90  1  0  0  0
  2 91  1  0  0  0
  3  4  1  0  0  0
  3 92  1  0  0  0
  3 93  1  0  0  0
  4  5  1  0  0  0
  4 94  1  0  0  0
  4 95  1  0  0  0
  5  6  1  0  0  0
  5 26  1  0  0  0
  5 96  1  0  0  0
  6 25  1  0  0  0
  6 97  1  0  0  0
  6 98  1  0  0  0
  7  8  2  0  0  0
  7 26  1  0  0  0
  7 29  1  0  0  0
  8  9  1  0  0  0
  8 22  1  0  0  0
  9 10  1  0  0  0
  9 27  2  0  0  0
 10 11  2  0  0  0
 10 15  1  0  0  0
 11 12  1  0  0  0
 11 99  1  0  0  0
 12 13  2  0  0  0
 12100  1  0  0  0
 13 14  1  0  0  0
 13 31  1  0  0  0
 14 15  2  0  0  0
 14101  1  0  0  0
 15102  1  0  0  0
 16 17  2  0  0  0
 16 21  1  0  0  0
 16 31  1  0  0  0
 17 18  1  0  0  0
 17103  1  0  0  0
 18 19  2  0  0  0
 18104  1  0  0  0
 19 20  1  0  0  0
 19 24  1  0  0  0
 20 21  2  0  0  0
 20105  1  0  0  0
 21 23  1  0  0  0
 22 28  1  0  0  0
 22 32  2  0  0  0
 26 27  1  0  0  0
 28106  1  0  0  0
 28107  1  0  0  0
 29108  1  0  0  0
 29109  1  0  0  0
 33 34  1  0  0  0
 33 66  1  0  0  0
 33 70  2  0  0  0
 34 36  1  0  0  0
 34 59  1  0  0  0
 34110  1  0  0  0
 35 44  2  0  0  0
 35 45  1  0  0  0
 35 68  1  0  0  0
 36 56  1  0  0  0
 36111  1  0  0  0
 37 39  1  0  0  0
 37 47  1  0  0  0
 37 66  1  0  0  0
 37112  1  0  0  0
 38 43  2  0  0  0
 38 46  1  0  0  0
 38 47  1  0  0  0
 39 64  1  0  0  0
 39 67  2  0  0  0
 40 52  1  0  0  0
 40 53  2  0  0  0
 40 58  1  0  0  0
 41113  1  0  0  0
 41114  1  0  0  0
 41115  1  0  0  0
 41 48  1  0  0  0
 42 43  1  0  0  0
 42 66  1  0  0  0
 42116  1  0  0  0
 42117  1  0  0  0
 43 44  1  0  0  0
 44118  1  0  0  0
 45 46  2  0  0  0
 45119  1  0  0  0
 46120  1  0  0  0
 47121  1  0  0  0
 47122  1  0  0  0
 48 56  1  0  0  0
 48 65  1  0  0  0
 48123  1  0  0  0
 49 50  1  0  0  0
 49 53  1  0  0  0
 49 64  1  0  0  0
 49124  1  0  0  0
 50 51  1  0  0  0
 50125  1  0  0  0
 50126  1  0  0  0
 51 52  1  0  0  0
 51127  1  0  0  0
 51128  1  0  0  0
 52129  1  0  0  0
 52130  1  0  0  0
 53 54  1  0  0  0
 54 55  2  0  0  0
 54131  1  0  0  0
 55 57  1  0  0  0
 55132  1  0  0  0
 56 69  2  0  0  0
 57 58  2  0  0  0
 57133  1  0  0  0
 58134  1  0  0  0
 59 60  1  0  0  0
 59 61  1  0  0  0
 59 62  1  0  0  0
 60135  1  0  0  0
 60136  1  0  0  0
 60137  1  0  0  0
 61138  1  0  0  0
 61139  1  0  0  0
 61140  1  0  0  0
 62141  1  0  0  0
 62142  1  0  0  0
 62143  1  0  0  0
 63 65  1  0  0  0
 63144  1  0  0  0
 63145  1  0  0  0
 63146  1  0  0  0
 64147  1  0  0  0
 65148  1  0  0  0
 68 83  1  0  0  0
 71 72  2  0  0  0
 71 73  1  0  0  0
 71149  1  0  0  0
 72 75  1  0  0  0
 72 87  1  0  0  0
 73 82  1  0  0  0
 73 88  2  0  0  0
 74 87  2  0  0  0
 74 88  1  0  0  0
 74 89  1  0  0  0
 75150  1  0  0  0
 75151  1  0  0  0
 75152  1  0  0  0
 76153  1  0  0  0
 76154  1  0  0  0
 76155  1  0  0  0
 76 84  1  0  0  0
 77156  1  0  0  0
 77157  1  0  0  0
 77158  1  0  0  0
 77 85  1  0  0  0
 78 85  1  0  0  0
 78159  1  0  0  0
 78160  1  0  0  0
 78161  1  0  0  0
 79162  1  0  0  0
 79163  1  0  0  0
 79164  1  0  0  0
 79 86  1  0  0  0
 80 86  1  0  0  0
 80165  1  0  0  0
 80166  1  0  0  0
 80167  1  0  0  0
 81 89  1  0  0  0
 81168  1  0  0  0
 81169  1  0  0  0
 81170  1  0  0  0
 82 85  1  0  0  0
 82171  1  0  0  0
 82172  1  0  0  0
 83 86  1  0  0  0
 83173  1  0  0  0
 83174  1  0  0  0
 84 89  1  0  0  0
 84175  1  0  0  0
 85 86  1  0  0  0
M  ISO  4   1 100  68 101  83 101  84 100
M  END
> <chiral flag>
0

> <version>
0

> <s_m_source_file>
/data/baiqing/PycharmProjects/Reinvent-master-3.2/result/LINK_invent/BTK/process_docking_weight1_custom_sum_contain_oxygen_bond_distance_aromatic_linkinvent_7_9_3/rearranged_h_0065.sdf

> <i_m_source_file_index>
57

> <r_mmod_Potential_Energy-OPLS-2005>
-365.615264892578

> <r_mmod_Stretch_Energy-OPLS-2005>
76.4066619873047

> <r_mmod_Bend_Energy-OPLS-2005>
145.862640380859

> <r_mmod_Torsional_Energy-OPLS-2005>
204.093597412109

> <r_mmod_Improper_Torsional_Energy-OPLS-2005>
2.57039999961853

> <r_mmod_Van_der_Waal_Energy-OPLS-2005>
195.815673828125

> <r_mmod_Electrostatic_Energy-OPLS-2005>
-810.707580566406

> <r_mmod_Solvation_Energy-OPLS-2005>
-198.301361083984

> <b_mmod_Minimization_Converged-OPLS-2005>
0

> <r_mmod_RMS_Derivative-OPLS-2005>
4.9482798576355

$$$$
62
                    3D
 Structure written by MMmdl.
175183  0  0  1  0            999 V2000
  -30.6876  -14.6906   20.3872 C   0  0  0  0  0  0
  -30.4211  -12.4288   19.4194 C   0  0  0  0  0  0
  -29.4746  -12.4358   18.2082 C   0  0  0  0  0  0
  -28.0162  -12.2485   18.6602 C   0  0  0  0  0  0
  -27.6365  -13.1535   19.8574 C   0  0  2  0  0  0
  -28.7144  -13.1112   20.9559 C   0  0  0  0  0  0
  -25.2480  -13.7785   20.5931 C   0  0  0  0  0  0
  -24.1696  -13.0167   20.9318 C   0  0  0  0  0  0
  -24.6253  -11.6646   20.8854 C   0  0  0  0  0  0
  -23.8917  -10.4100   21.0480 C   0  0  0  0  0  0
  -24.3502   -9.4027   21.9247 C   0  0  0  0  0  0
  -23.6175   -8.2096   22.0800 C   0  0  0  0  0  0
  -22.4170   -8.0146   21.3557 C   0  0  0  0  0  0
  -21.9809   -9.0128   20.4664 C   0  0  0  0  0  0
  -22.7135  -10.1979   20.3077 C   0  0  0  0  0  0
  -21.6802   -6.0599   22.5242 C   0  0  0  0  0  0
  -21.3988   -6.5566   23.8140 C   0  0  0  0  0  0
  -21.3682   -5.6756   24.9139 C   0  0  0  0  0  0
  -21.6102   -4.3029   24.7249 C   0  0  0  0  0  0
  -21.8841   -3.8060   23.4396 C   0  0  0  0  0  0
  -21.9167   -4.6840   22.3391 C   0  0  0  0  0  0
  -22.7743  -13.5065   21.1962 C   0  0  0  0  0  0
  -22.1645   -4.2030   21.0979 F   0  0  0  0  0  0
  -21.5669   -3.4527   25.7780 F   0  0  0  0  0  0
  -29.9747  -13.5123   20.3244 N   0  0  0  0  0  0
  -26.2900  -12.8961   20.3498 N   0  0  0  0  0  0
  -25.9166  -11.6163   20.5874 N   0  0  0  0  0  0
  -22.0316  -12.8115   22.0498 N   0  0  0  0  0  0
  -25.3925  -15.1507   20.4569 N   0  0  0  0  0  0
  -31.9098  -14.5432   20.3534 O   0  0  0  0  0  0
  -21.6583   -6.8735   21.4190 O   0  0  0  0  0  0
  -22.3472  -14.5406   20.6774 O   0  0  0  0  0  0
  -24.6102  -31.8694   23.2126 C   0  0  0  0  0  0
  -25.9036  -32.4817   23.8393 C   0  0  1  0  0  0
  -27.2799  -27.4811   20.0578 C   0  0  0  0  0  0
  -25.5884  -33.8613   24.2287 N   0  0  0  0  0  0
  -23.3966  -30.4922   21.5528 C   0  0  2  0  0  0
  -24.8579  -28.9561   20.1222 C   0  0  0  0  0  0
  -22.7383  -29.4702   22.5051 C   0  0  0  0  0  0
  -18.0280  -28.1402   22.8524 C   0  0  0  0  0  0
  -24.1501  -36.7288   23.2619 C   0  0  0  0  0  0
  -25.9254  -30.8360   21.3740 C   0  0  0  0  0  0
  -26.0108  -29.4695   20.7283 C   0  0  0  0  0  0
  -27.2209  -28.7358   20.7080 C   0  0  0  0  0  0
  -26.1111  -26.9822   19.4440 C   0  0  0  0  0  0
  -24.8987  -27.7030   19.4838 C   0  0  0  0  0  0
  -23.6104  -29.8113   20.1757 C   0  0  0  0  0  0
  -25.4117  -36.3076   24.0332 C   0  0  1  0  0  0
  -20.5876  -28.3673   23.1336 C   0  0  2  0  0  0
  -20.6795  -26.9441   22.5366 C   0  0  0  0  0  0
  -19.5738  -26.6419   21.5195 C   0  0  0  0  0  0
  -18.1944  -26.7922   22.1679 C   0  0  0  0  0  0
  -19.1546  -28.8837   23.2964 C   0  0  0  0  0  0
  -18.9506  -30.1439   23.8963 C   0  0  0  0  0  0
  -17.6530  -30.6610   24.0624 C   0  0  0  0  0  0
  -25.9039  -34.9462   23.5093 C   0  0  0  0  0  0
  -16.5395  -29.9134   23.6393 C   0  0  0  0  0  0
  -16.7283  -28.6560   23.0366 C   0  0  0  0  0  0
  -26.4460  -31.6574   25.0710 C   0  0  0  0  0  0
  -25.3719  -31.3707   26.1455 C   0  0  0  0  0  0
  -27.0294  -30.3004   24.6089 C   0  0  0  0  0  0
  -27.6027  -32.4291   25.7490 C   0  0  0  0  0  0
  -27.5574  -37.1812   24.8457 C   0  0  0  0  0  0
  -21.4111  -29.3122   22.3799 N   0  0  0  0  0  0
  -26.4283  -37.3774   23.9404 N   0  0  0  0  0  0
  -24.6598  -31.0838   22.1017 N   0  0  0  0  0  0
  -23.4197  -28.8226   23.3048 O   0  0  0  0  0  0
  -28.4368  -26.7381   19.9111 O   0  0  0  0  0  0
  -26.5569  -34.8932   22.4628 O   0  0  0  0  0  0
  -23.5314  -32.1439   23.7561 O   0  0  0  0  0  0
  -29.1915  -19.2827   22.0011 C   0  0  0  0  0  0
  -29.1408  -18.6155   20.7471 C   0  0  0  0  0  0
  -28.8014  -21.2679   20.9369 C   0  0  0  0  0  0
  -30.7490  -26.5286   20.5964 C   0  0  0  0  0  0
  -27.7004  -17.0015   19.6284 C   0  0  0  0  0  0
  -28.4473  -16.5149   21.9387 C   0  0  0  0  0  0
  -31.4724  -17.1296   20.3672 C   0  0  0  0  0  0
  -30.1972  -16.2386   18.4733 C   0  0  0  0  0  0
  -27.4223  -25.2783   22.2615 C   0  0  0  0  0  0
  -29.7890  -24.7595   22.8714 C   0  0  0  0  0  0
  -28.1101  -22.6275   21.0217 C   0  0  0  0  0  0
  -28.9153  -23.9095   20.6611 C   0  0  0  0  0  0
  -29.2695  -26.4626   21.0423 C   0  0  2  0  0  0
  -28.9358  -17.0595   20.5783 C   0  0  0  0  0  0
  -30.2350  -16.2269   20.0239 C   0  0  0  0  0  0
  -28.8526  -25.0930   21.6930 C   0  0  0  0  0  0
  -29.0097  -20.6233   22.0901 N   0  0  0  0  0  0
  -29.1258  -19.3958   19.6235 N   0  0  0  0  0  0
  -28.9207  -20.7215   19.7161 N   0  0  0  0  0  0
  -30.4012  -11.4604   19.9225 H   0  0  0  0  0  0
  -31.4453  -12.5576   19.0633 H   0  0  0  0  0  0
  -29.7476  -11.6263   17.5272 H   0  0  0  0  0  0
  -29.5862  -13.3629   17.6483 H   0  0  0  0  0  0
  -27.9054  -11.2014   18.9380 H   0  0  0  0  0  0
  -27.3258  -12.4103   17.8299 H   0  0  0  0  0  0
  -27.6307  -14.1320   19.4348 H   0  0  0  0  0  0
  -28.5005  -13.7035   21.8346 H   0  0  0  0  0  0
  -28.7964  -12.0993   21.3534 H   0  0  0  0  0  0
  -25.2641   -9.5521   22.4833 H   0  0  0  0  0  0
  -23.9871   -7.4492   22.7549 H   0  0  0  0  0  0
  -21.0744   -8.8665   19.8971 H   0  0  0  0  0  0
  -22.3638  -10.9546   19.6189 H   0  0  0  0  0  0
  -21.1970   -7.6078   23.9606 H   0  0  0  0  0  0
  -21.1512   -6.0507   25.9026 H   0  0  0  0  0  0
  -22.0606   -2.7527   23.2928 H   0  0  0  0  0  0
  -22.3810  -11.9751   22.4945 H   0  0  0  0  0  0
  -21.0932  -13.1151   22.2682 H   0  0  0  0  0  0
  -24.6187  -15.7774   20.6447 H   0  0  0  0  0  0
  -26.2504  -15.6291   20.2205 H   0  0  0  0  0  0
  -26.7118  -32.5565   23.1168 H   0  0  0  0  0  0
  -25.0047  -33.9747   25.0447 H   0  0  0  0  0  0
  -22.6801  -31.3049   21.4091 H   0  0  0  0  0  0
  -23.3745  -35.9634   23.3278 H   0  0  0  0  0  0
  -24.3569  -36.8890   22.2019 H   0  0  0  0  0  0
  -23.7313  -37.6528   23.6628 H   0  0  0  0  0  0
  -26.0418  -31.6004   20.6051 H   0  0  0  0  0  0
  -26.8120  -30.8942   21.9916 H   0  0  0  0  0  0
  -28.1118  -29.1635   21.1485 H   0  0  0  0  0  0
  -26.1530  -26.0372   18.9204 H   0  0  0  0  0  0
  -24.0174  -27.3045   19.0007 H   0  0  0  0  0  0
  -23.6997  -30.5772   19.4054 H   0  0  0  0  0  0
  -22.7426  -29.2145   19.8906 H   0  0  0  0  0  0
  -25.1309  -36.1875   25.0830 H   0  0  0  0  0  0
  -21.0013  -28.3166   24.1458 H   0  0  0  0  0  0
  -20.5694  -26.2288   23.3533 H   0  0  0  0  0  0
  -21.6662  -26.7488   22.1158 H   0  0  0  0  0  0
  -19.6901  -25.6360   21.1167 H   0  0  0  0  0  0
  -19.6630  -27.3267   20.6736 H   0  0  0  0  0  0
  -17.4155  -26.6580   21.4136 H   0  0  0  0  0  0
  -18.0437  -26.0066   22.9107 H   0  0  0  0  0  0
  -19.8003  -30.7240   24.2338 H   0  0  0  0  0  0
  -17.5124  -31.6301   24.5204 H   0  0  0  0  0  0
  -15.5417  -30.3101   23.7754 H   0  0  0  0  0  0
  -15.8654  -28.0950   22.7050 H   0  0  0  0  0  0
  -24.5852  -30.7093   25.7790 H   0  0  0  0  0  0
  -24.8969  -32.2896   26.4913 H   0  0  0  0  0  0
  -25.8054  -30.8860   27.0215 H   0  0  0  0  0  0
  -26.2861  -29.6759   24.1106 H   0  0  0  0  0  0
  -27.4032  -29.7226   25.4558 H   0  0  0  0  0  0
  -27.8724  -30.4315   23.9300 H   0  0  0  0  0  0
  -27.2621  -33.3554   26.2143 H   0  0  0  0  0  0
  -28.3815  -32.6915   25.0307 H   0  0  0  0  0  0
  -28.0740  -31.8376   26.5347 H   0  0  0  0  0  0
  -28.2603  -38.0092   24.7472 H   0  0  0  0  0  0
  -28.1067  -36.2631   24.6314 H   0  0  0  0  0  0
  -27.2285  -37.1498   25.8856 H   0  0  0  0  0  0
  -20.9238  -29.8877   21.7061 H   0  0  0  0  0  0
  -26.0143  -38.2855   24.1334 H   0  0  0  0  0  0
  -29.2937  -18.7622   22.9398 H   0  0  0  0  0  0
  -30.9626  -27.4766   20.1033 H   0  0  0  0  0  0
  -31.0334  -25.7340   19.9071 H   0  0  0  0  0  0
  -31.4140  -26.4702   21.4560 H   0  0  0  0  0  0
  -26.8182  -17.4393   20.0925 H   0  0  0  0  0  0
  -27.4431  -16.0286   19.2858 H   0  0  0  0  0  0
  -27.8307  -17.5357   18.6897 H   0  0  0  0  0  0
  -29.2616  -16.3947   22.6531 H   0  0  0  0  0  0
  -27.9229  -15.5819   21.8242 H   0  0  0  0  0  0
  -27.6842  -17.1549   22.3864 H   0  0  0  0  0  0
  -32.4132  -16.7728   19.9492 H   0  0  0  0  0  0
  -31.5931  -17.2317   21.4480 H   0  0  0  0  0  0
  -31.4167  -18.1304   19.9415 H   0  0  0  0  0  0
  -31.1246  -15.8451   18.0589 H   0  0  0  0  0  0
  -29.3948  -15.6229   18.0718 H   0  0  0  0  0  0
  -30.0706  -17.2431   18.0679 H   0  0  0  0  0  0
  -26.6759  -25.2495   21.4640 H   0  0  0  0  0  0
  -27.3232  -26.2338   22.7819 H   0  0  0  0  0  0
  -27.1433  -24.5240   22.9944 H   0  0  0  0  0  0
  -29.3497  -24.0221   23.5426 H   0  0  0  0  0  0
  -30.0297  -25.6471   23.4562 H   0  0  0  0  0  0
  -30.7373  -24.3464   22.5209 H   0  0  0  0  0  0
  -27.6778  -22.6977   22.0168 H   0  0  0  0  0  0
  -27.2461  -22.5737   20.3563 H   0  0  0  0  0  0
  -28.5002  -24.2628   19.7193 H   0  0  0  0  0  0
  -29.9441  -23.6424   20.4168 H   0  0  0  0  0  0
  -29.1437  -27.2593   21.7774 H   0  0  0  0  0  0
  1 25  1  0  0  0
  1 30  2  0  0  0
  1 85  1  0  0  0
  2  3  1  0  0  0
  2 25  1  0  0  0
  2 90  1  0  0  0
  2 91  1  0  0  0
  3  4  1  0  0  0
  3 92  1  0  0  0
  3 93  1  0  0  0
  4  5  1  0  0  0
  4 94  1  0  0  0
  4 95  1  0  0  0
  5  6  1  0  0  0
  5 26  1  0  0  0
  5 96  1  0  0  0
  6 25  1  0  0  0
  6 97  1  0  0  0
  6 98  1  0  0  0
  7  8  2  0  0  0
  7 26  1  0  0  0
  7 29  1  0  0  0
  8  9  1  0  0  0
  8 22  1  0  0  0
  9 10  1  0  0  0
  9 27  2  0  0  0
 10 11  2  0  0  0
 10 15  1  0  0  0
 11 12  1  0  0  0
 11 99  1  0  0  0
 12 13  2  0  0  0
 12100  1  0  0  0
 13 14  1  0  0  0
 13 31  1  0  0  0
 14 15  2  0  0  0
 14101  1  0  0  0
 15102  1  0  0  0
 16 17  2  0  0  0
 16 21  1  0  0  0
 16 31  1  0  0  0
 17 18  1  0  0  0
 17103  1  0  0  0
 18 19  2  0  0  0
 18104  1  0  0  0
 19 20  1  0  0  0
 19 24  1  0  0  0
 20 21  2  0  0  0
 20105  1  0  0  0
 21 23  1  0  0  0
 22 28  1  0  0  0
 22 32  2  0  0  0
 26 27  1  0  0  0
 28106  1  0  0  0
 28107  1  0  0  0
 29108  1  0  0  0
 29109  1  0  0  0
 33 34  1  0  0  0
 33 66  1  0  0  0
 33 70  2  0  0  0
 34 36  1  0  0  0
 34 59  1  0  0  0
 34110  1  0  0  0
 35 44  2  0  0  0
 35 45  1  0  0  0
 35 68  1  0  0  0
 36 56  1  0  0  0
 36111  1  0  0  0
 37 39  1  0  0  0
 37 47  1  0  0  0
 37 66  1  0  0  0
 37112  1  0  0  0
 38 43  2  0  0  0
 38 46  1  0  0  0
 38 47  1  0  0  0
 39 64  1  0  0  0
 39 67  2  0  0  0
 40 52  1  0  0  0
 40 53  2  0  0  0
 40 58  1  0  0  0
 41113  1  0  0  0
 41114  1  0  0  0
 41115  1  0  0  0
 41 48  1  0  0  0
 42 43  1  0  0  0
 42 66  1  0  0  0
 42116  1  0  0  0
 42117  1  0  0  0
 43 44  1  0  0  0
 44118  1  0  0  0
 45 46  2  0  0  0
 45119  1  0  0  0
 46120  1  0  0  0
 47121  1  0  0  0
 47122  1  0  0  0
 48 56  1  0  0  0
 48 65  1  0  0  0
 48123  1  0  0  0
 49 50  1  0  0  0
 49 53  1  0  0  0
 49 64  1  0  0  0
 49124  1  0  0  0
 50 51  1  0  0  0
 50125  1  0  0  0
 50126  1  0  0  0
 51 52  1  0  0  0
 51127  1  0  0  0
 51128  1  0  0  0
 52129  1  0  0  0
 52130  1  0  0  0
 53 54  1  0  0  0
 54 55  2  0  0  0
 54131  1  0  0  0
 55 57  1  0  0  0
 55132  1  0  0  0
 56 69  2  0  0  0
 57 58  2  0  0  0
 57133  1  0  0  0
 58134  1  0  0  0
 59 60  1  0  0  0
 59 61  1  0  0  0
 59 62  1  0  0  0
 60135  1  0  0  0
 60136  1  0  0  0
 60137  1  0  0  0
 61138  1  0  0  0
 61139  1  0  0  0
 61140  1  0  0  0
 62141  1  0  0  0
 62142  1  0  0  0
 62143  1  0  0  0
 63 65  1  0  0  0
 63144  1  0  0  0
 63145  1  0  0  0
 63146  1  0  0  0
 64147  1  0  0  0
 65148  1  0  0  0
 68 83  1  0  0  0
 71 72  2  0  0  0
 71 87  1  0  0  0
 71149  1  0  0  0
 72 84  1  0  0  0
 72 88  1  0  0  0
 73 81  1  0  0  0
 73 87  2  0  0  0
 73 89  1  0  0  0
 74150  1  0  0  0
 74151  1  0  0  0
 74152  1  0  0  0
 74 83  1  0  0  0
 75153  1  0  0  0
 75154  1  0  0  0
 75155  1  0  0  0
 75 84  1  0  0  0
 76 84  1  0  0  0
 76156  1  0  0  0
 76157  1  0  0  0
 76158  1  0  0  0
 77159  1  0  0  0
 77160  1  0  0  0
 77161  1  0  0  0
 77 85  1  0  0  0
 78 85  1  0  0  0
 78162  1  0  0  0
 78163  1  0  0  0
 78164  1  0  0  0
 79165  1  0  0  0
 79166  1  0  0  0
 79167  1  0  0  0
 79 86  1  0  0  0
 80 86  1  0  0  0
 80168  1  0  0  0
 80169  1  0  0  0
 80170  1  0  0  0
 81 82  1  0  0  0
 81171  1  0  0  0
 81172  1  0  0  0
 82 86  1  0  0  0
 82173  1  0  0  0
 82174  1  0  0  0
 83 86  1  0  0  0
 83175  1  0  0  0
 84 85  1  0  0  0
 88 89  2  0  0  0
M  ISO  4   1 100  68 101  83 101  85 100
M  END
> <chiral flag>
0

> <version>
0

> <s_m_source_file>
/data/baiqing/PycharmProjects/Reinvent-master-3.2/result/LINK_invent/BTK/process_docking_weight1_custom_sum_contain_oxygen_bond_distance_aromatic_linkinvent_7_9_3/rearranged_h_0065.sdf

> <i_m_source_file_index>
58

> <r_mmod_Potential_Energy-OPLS-2005>
344.187835693359

> <r_mmod_Stretch_Energy-OPLS-2005>
88.7866287231445

> <r_mmod_Bend_Energy-OPLS-2005>
227.538711547852

> <r_mmod_Torsional_Energy-OPLS-2005>
268.653289794922

> <r_mmod_Improper_Torsional_Energy-OPLS-2005>
15.7086038589478

> <r_mmod_Van_der_Waal_Energy-OPLS-2005>
218.953536987305

> <r_mmod_Electrostatic_Energy-OPLS-2005>
-345.009552001953

> <r_mmod_Solvation_Energy-OPLS-2005>
-193.634780883789

> <b_mmod_Minimization_Converged-OPLS-2005>
0

> <r_mmod_RMS_Derivative-OPLS-2005>
7.02573204040527

$$$$
63
                    3D
 Structure written by MMmdl.
162170  0  0  1  0            999 V2000
  -30.7473  -14.3720   20.6689 C   0  0  0  0  0  0
  -30.4184  -12.2834   19.3905 C   0  0  0  0  0  0
  -29.4820  -12.5252   18.1916 C   0  0  0  0  0  0
  -28.0083  -12.3687   18.6140 C   0  0  0  0  0  0
  -27.6672  -13.1970   19.8800 C   0  0  2  0  0  0
  -28.7067  -12.9266   20.9892 C   0  0  0  0  0  0
  -25.2634  -13.8169   20.5699 C   0  0  0  0  0  0
  -24.1868  -13.0460   20.9191 C   0  0  0  0  0  0
  -24.6410  -11.6918   20.8767 C   0  0  0  0  0  0
  -23.9077  -10.4302   21.0427 C   0  0  0  0  0  0
  -24.3622   -9.4209   21.9196 C   0  0  0  0  0  0
  -23.6296   -8.2245   22.0757 C   0  0  0  0  0  0
  -22.4279   -8.0294   21.3548 C   0  0  0  0  0  0
  -21.9921   -9.0279   20.4656 C   0  0  0  0  0  0
  -22.7261  -10.2151   20.3069 C   0  0  0  0  0  0
  -21.6848   -6.0751   22.5289 C   0  0  0  0  0  0
  -21.4019   -6.5649   23.8227 C   0  0  0  0  0  0
  -21.3658   -5.6796   24.9181 C   0  0  0  0  0  0
  -21.6035   -4.3057   24.7223 C   0  0  0  0  0  0
  -21.8821   -3.8161   23.4344 C   0  0  0  0  0  0
  -21.9191   -4.6977   22.3402 C   0  0  0  0  0  0
  -22.7889  -13.5265   21.1839 C   0  0  0  0  0  0
  -22.1656   -4.2175   21.0974 F   0  0  0  0  0  0
  -21.5623   -3.4536   25.7727 F   0  0  0  0  0  0
  -30.0458  -13.2313   20.4499 N   0  0  0  0  0  0
  -26.3060  -12.9310   20.3404 N   0  0  0  0  0  0
  -25.9328  -11.6480   20.5796 N   0  0  0  0  0  0
  -22.0508  -12.8277   22.0393 N   0  0  0  0  0  0
  -25.4413  -15.1877   20.4073 N   0  0  0  0  0  0
  -31.8236  -14.6236   20.1186 O   0  0  0  0  0  0
  -21.6637   -6.8895   21.4248 O   0  0  0  0  0  0
  -22.3580  -14.5558   20.6665 O   0  0  0  0  0  0
  -24.6114  -31.8710   23.2132 C   0  0  0  0  0  0
  -25.9040  -32.4830   23.8396 C   0  0  1  0  0  0
  -27.2271  -27.4539   20.0901 C   0  0  0  0  0  0
  -25.5911  -33.8623   24.2330 N   0  0  0  0  0  0
  -23.3952  -30.4992   21.5524 C   0  0  2  0  0  0
  -24.8371  -28.9682   20.1147 C   0  0  0  0  0  0
  -22.7387  -29.4690   22.4985 C   0  0  0  0  0  0
  -18.0266  -28.1375   22.8484 C   0  0  0  0  0  0
  -24.1490  -36.7297   23.2637 C   0  0  0  0  0  0
  -25.9239  -30.8389   21.3668 C   0  0  0  0  0  0
  -25.9952  -29.4771   20.7122 C   0  0  0  0  0  0
  -27.1880  -28.7268   20.6977 C   0  0  0  0  0  0
  -26.0496  -26.9622   19.4747 C   0  0  0  0  0  0
  -24.8576  -27.7088   19.4950 C   0  0  0  0  0  0
  -23.6026  -29.8351   20.1644 C   0  0  0  0  0  0
  -25.4112  -36.3105   24.0337 C   0  0  1  0  0  0
  -20.5853  -28.3656   23.1308 C   0  0  2  0  0  0
  -20.6761  -26.9396   22.5415 C   0  0  0  0  0  0
  -19.5750  -26.6384   21.5199 C   0  0  0  0  0  0
  -18.1923  -26.7921   22.1613 C   0  0  0  0  0  0
  -19.1516  -28.8829   23.2892 C   0  0  0  0  0  0
  -18.9458  -30.1436   23.8903 C   0  0  0  0  0  0
  -17.6468  -30.6587   24.0561 C   0  0  0  0  0  0
  -25.9042  -34.9474   23.5123 C   0  0  0  0  0  0
  -16.5350  -29.9100   23.6330 C   0  0  0  0  0  0
  -16.7259  -28.6513   23.0352 C   0  0  0  0  0  0
  -26.4479  -31.6598   25.0715 C   0  0  0  0  0  0
  -25.3774  -31.3685   26.1480 C   0  0  0  0  0  0
  -27.0308  -30.3049   24.6073 C   0  0  0  0  0  0
  -27.6053  -32.4310   25.7478 C   0  0  0  0  0  0
  -27.5576  -37.1812   24.8468 C   0  0  0  0  0  0
  -21.4124  -29.3040   22.3728 N   0  0  0  0  0  0
  -26.4289  -37.3796   23.9412 N   0  0  0  0  0  0
  -24.6610  -31.0844   22.1009 N   0  0  0  0  0  0
  -23.4184  -28.8220   23.2998 O   0  0  0  0  0  0
  -28.4294  -26.7796   20.0953 O   0  0  0  0  0  0
  -26.5601  -34.8920   22.4686 O   0  0  0  0  0  0
  -23.5323  -32.1428   23.7577 O   0  0  0  0  0  0
  -30.5231  -20.1882   21.6293 C   0  0  0  0  0  0
  -28.7695  -18.9806   22.0442 C   0  0  0  0  0  0
  -29.5357  -20.9786   22.1691 C   0  0  0  0  0  0
  -29.8506  -17.3889   19.6492 C   0  0  0  0  0  0
  -32.1008  -18.0061   20.5331 C   0  0  0  0  0  0
  -29.5368  -22.4634   22.3772 C   0  0  0  0  0  0
  -29.0626  -23.1953   21.1133 C   0  0  0  0  0  0
  -28.9873  -24.7241   21.2520 C   0  0  0  0  0  0
  -30.6613  -16.5257   21.9812 C   0  0  0  0  0  0
  -28.4496  -25.3585   19.9645 C   0  0  0  0  0  0
  -30.6412  -17.7012   20.9424 C   0  0  0  0  0  0
  -28.4130  -20.1998   22.4362 N   0  0  0  0  0  0
  -30.0145  -18.8910   21.5409 N   0  0  0  0  0  0
  -30.1567  -15.2356   21.5037 N   0  0  0  0  0  0
  -31.4621  -12.3848   19.0865 H   0  0  0  0  0  0
  -30.3153  -11.2594   19.7547 H   0  0  0  0  0  0
  -29.7161  -11.8326   17.3820 H   0  0  0  0  0  0
  -29.6456  -13.5297   17.7965 H   0  0  0  0  0  0
  -27.8306  -11.3099   18.8089 H   0  0  0  0  0  0
  -27.3454  -12.6400   17.7919 H   0  0  0  0  0  0
  -27.7284  -14.2518   19.6088 H   0  0  0  0  0  0
  -28.6766  -11.8762   21.2820 H   0  0  0  0  0  0
  -28.4590  -13.4765   21.8962 H   0  0  0  0  0  0
  -25.2762   -9.5672   22.4780 H   0  0  0  0  0  0
  -24.0010   -7.4625   22.7463 H   0  0  0  0  0  0
  -21.0864   -8.8817   19.8953 H   0  0  0  0  0  0
  -22.3746  -10.9698   19.6181 H   0  0  0  0  0  0
  -21.2015   -7.6158   23.9742 H   0  0  0  0  0  0
  -21.1474   -6.0515   25.9085 H   0  0  0  0  0  0
  -22.0598   -2.7628   23.2829 H   0  0  0  0  0  0
  -22.4097  -11.9932   22.4790 H   0  0  0  0  0  0
  -21.1133  -13.1345   22.2589 H   0  0  0  0  0  0
  -24.6808  -15.8517   20.5049 H   0  0  0  0  0  0
  -26.3010  -15.6147   20.0856 H   0  0  0  0  0  0
  -26.7109  -32.5548   23.1152 H   0  0  0  0  0  0
  -25.0090  -33.9781   25.0492 H   0  0  0  0  0  0
  -22.6817  -31.3165   21.4196 H   0  0  0  0  0  0
  -23.3749  -35.9634   23.3317 H   0  0  0  0  0  0
  -24.3572  -36.8895   22.2047 H   0  0  0  0  0  0
  -23.7253  -37.6508   23.6638 H   0  0  0  0  0  0
  -26.0483  -31.6074   20.6020 H   0  0  0  0  0  0
  -26.8073  -30.8795   21.9926 H   0  0  0  0  0  0
  -28.0827  -29.1263   21.1539 H   0  0  0  0  0  0
  -26.0234  -26.0242   18.9438 H   0  0  0  0  0  0
  -23.9675  -27.3183   19.0203 H   0  0  0  0  0  0
  -23.7170  -30.6122   19.4086 H   0  0  0  0  0  0
  -22.7267  -29.2573   19.8632 H   0  0  0  0  0  0
  -25.1300  -36.1950   25.0829 H   0  0  0  0  0  0
  -20.9929  -28.3215   24.1433 H   0  0  0  0  0  0
  -20.5641  -26.2265   23.3602 H   0  0  0  0  0  0
  -21.6640  -26.7447   22.1225 H   0  0  0  0  0  0
  -19.6915  -25.6294   21.1233 H   0  0  0  0  0  0
  -19.6696  -27.3197   20.6725 H   0  0  0  0  0  0
  -17.4200  -26.6649   21.4021 H   0  0  0  0  0  0
  -18.0336  -26.0061   22.9005 H   0  0  0  0  0  0
  -19.7935  -30.7240   24.2275 H   0  0  0  0  0  0
  -17.5033  -31.6269   24.5171 H   0  0  0  0  0  0
  -15.5356  -30.3022   23.7641 H   0  0  0  0  0  0
  -15.8647  -28.0841   22.7071 H   0  0  0  0  0  0
  -24.5949  -30.7028   25.7823 H   0  0  0  0  0  0
  -24.8976  -32.2842   26.4944 H   0  0  0  0  0  0
  -25.8173  -30.8850   27.0217 H   0  0  0  0  0  0
  -26.2844  -29.6807   24.1156 H   0  0  0  0  0  0
  -27.4123  -29.7275   25.4502 H   0  0  0  0  0  0
  -27.8652  -30.4359   23.9181 H   0  0  0  0  0  0
  -27.2661  -33.3586   26.2083 H   0  0  0  0  0  0
  -28.3849  -32.6908   25.0312 H   0  0  0  0  0  0
  -28.0724  -31.8426   26.5377 H   0  0  0  0  0  0
  -28.2618  -38.0087   24.7507 H   0  0  0  0  0  0
  -28.1058  -36.2631   24.6316 H   0  0  0  0  0  0
  -27.2288  -37.1472   25.8868 H   0  0  0  0  0  0
  -20.9270  -29.8778   21.6979 H   0  0  0  0  0  0
  -26.0173  -38.2867   24.1429 H   0  0  0  0  0  0
  -31.5108  -20.4578   21.2802 H   0  0  0  0  0  0
  -28.0913  -18.1392   22.0909 H   0  0  0  0  0  0
  -30.2998  -16.5821   19.0726 H   0  0  0  0  0  0
  -29.8237  -18.2576   18.9909 H   0  0  0  0  0  0
  -28.8185  -17.1107   19.8586 H   0  0  0  0  0  0
  -32.5915  -17.1202   20.1301 H   0  0  0  0  0  0
  -32.6989  -18.3481   21.3797 H   0  0  0  0  0  0
  -32.1535  -18.7718   19.7581 H   0  0  0  0  0  0
  -30.5341  -22.8022   22.6571 H   0  0  0  0  0  0
  -28.8842  -22.7228   23.2120 H   0  0  0  0  0  0
  -28.0770  -22.8155   20.8425 H   0  0  0  0  0  0
  -29.7260  -22.9482   20.2826 H   0  0  0  0  0  0
  -29.9729  -25.1327   21.4835 H   0  0  0  0  0  0
  -28.3365  -24.9898   22.0875 H   0  0  0  0  0  0
  -30.0561  -16.7708   22.8540 H   0  0  0  0  0  0
  -31.6620  -16.3835   22.3942 H   0  0  0  0  0  0
  -27.4901  -24.8936   19.7603 H   0  0  0  0  0  0
  -29.0966  -25.1078   19.1235 H   0  0  0  0  0  0
  -29.2729  -14.9333   21.8850 H   0  0  0  0  0  0
  1 25  1  0  0  0
  1 30  2  0  0  0
  1 84  1  0  0  0
  2  3  1  0  0  0
  2 25  1  0  0  0
  2 85  1  0  0  0
  2 86  1  0  0  0
  3  4  1  0  0  0
  3 87  1  0  0  0
  3 88  1  0  0  0
  4  5  1  0  0  0
  4 89  1  0  0  0
  4 90  1  0  0  0
  5  6  1  0  0  0
  5 26  1  0  0  0
  5 91  1  0  0  0
  6 25  1  0  0  0
  6 92  1  0  0  0
  6 93  1  0  0  0
  7  8  2  0  0  0
  7 26  1  0  0  0
  7 29  1  0  0  0
  8  9  1  0  0  0
  8 22  1  0  0  0
  9 10  1  0  0  0
  9 27  2  0  0  0
 10 11  2  0  0  0
 10 15  1  0  0  0
 11 12  1  0  0  0
 11 94  1  0  0  0
 12 13  2  0  0  0
 12 95  1  0  0  0
 13 14  1  0  0  0
 13 31  1  0  0  0
 14 15  2  0  0  0
 14 96  1  0  0  0
 15 97  1  0  0  0
 16 17  2  0  0  0
 16 21  1  0  0  0
 16 31  1  0  0  0
 17 18  1  0  0  0
 17 98  1  0  0  0
 18 19  2  0  0  0
 18 99  1  0  0  0
 19 20  1  0  0  0
 19 24  1  0  0  0
 20 21  2  0  0  0
 20100  1  0  0  0
 21 23  1  0  0  0
 22 28  1  0  0  0
 22 32  2  0  0  0
 26 27  1  0  0  0
 28101  1  0  0  0
 28102  1  0  0  0
 29103  1  0  0  0
 29104  1  0  0  0
 33 34  1  0  0  0
 33 66  1  0  0  0
 33 70  2  0  0  0
 34 36  1  0  0  0
 34 59  1  0  0  0
 34105  1  0  0  0
 35 44  2  0  0  0
 35 45  1  0  0  0
 35 68  1  0  0  0
 36 56  1  0  0  0
 36106  1  0  0  0
 37 39  1  0  0  0
 37 47  1  0  0  0
 37 66  1  0  0  0
 37107  1  0  0  0
 38 43  2  0  0  0
 38 46  1  0  0  0
 38 47  1  0  0  0
 39 64  1  0  0  0
 39 67  2  0  0  0
 40 52  1  0  0  0
 40 53  2  0  0  0
 40 58  1  0  0  0
 41108  1  0  0  0
 41109  1  0  0  0
 41110  1  0  0  0
 41 48  1  0  0  0
 42 43  1  0  0  0
 42 66  1  0  0  0
 42111  1  0  0  0
 42112  1  0  0  0
 43 44  1  0  0  0
 44113  1  0  0  0
 45 46  2  0  0  0
 45114  1  0  0  0
 46115  1  0  0  0
 47116  1  0  0  0
 47117  1  0  0  0
 48 56  1  0  0  0
 48 65  1  0  0  0
 48118  1  0  0  0
 49 50  1  0  0  0
 49 53  1  0  0  0
 49 64  1  0  0  0
 49119  1  0  0  0
 50 51  1  0  0  0
 50120  1  0  0  0
 50121  1  0  0  0
 51 52  1  0  0  0
 51122  1  0  0  0
 51123  1  0  0  0
 52124  1  0  0  0
 52125  1  0  0  0
 53 54  1  0  0  0
 54 55  2  0  0  0
 54126  1  0  0  0
 55 57  1  0  0  0
 55127  1  0  0  0
 56 69  2  0  0  0
 57 58  2  0  0  0
 57128  1  0  0  0
 58129  1  0  0  0
 59 60  1  0  0  0
 59 61  1  0  0  0
 59 62  1  0  0  0
 60130  1  0  0  0
 60131  1  0  0  0
 60132  1  0  0  0
 61133  1  0  0  0
 61134  1  0  0  0
 61135  1  0  0  0
 62136  1  0  0  0
 62137  1  0  0  0
 62138  1  0  0  0
 63 65  1  0  0  0
 63139  1  0  0  0
 63140  1  0  0  0
 63141  1  0  0  0
 64142  1  0  0  0
 65143  1  0  0  0
 68 80  1  0  0  0
 71 73  2  0  0  0
 71 83  1  0  0  0
 71144  1  0  0  0
 72 82  2  0  0  0
 72 83  1  0  0  0
 72145  1  0  0  0
 73 76  1  0  0  0
 73 82  1  0  0  0
 74146  1  0  0  0
 74147  1  0  0  0
 74148  1  0  0  0
 74 81  1  0  0  0
 75 81  1  0  0  0
 75149  1  0  0  0
 75150  1  0  0  0
 75151  1  0  0  0
 76 77  1  0  0  0
 76152  1  0  0  0
 76153  1  0  0  0
 77 78  1  0  0  0
 77154  1  0  0  0
 77155  1  0  0  0
 78 80  1  0  0  0
 78156  1  0  0  0
 78157  1  0  0  0
 79 81  1  0  0  0
 79 84  1  0  0  0
 79158  1  0  0  0
 79159  1  0  0  0
 80160  1  0  0  0
 80161  1  0  0  0
 81 83  1  0  0  0
 84162  1  0  0  0
M  ISO  4   1 100  68 101  80 101  84 100
M  END
> <chiral flag>
0

> <version>
0

> <s_m_source_file>
/data/baiqing/PycharmProjects/Reinvent-master-3.2/result/LINK_invent/BTK/process_docking_weight1_custom_sum_contain_oxygen_bond_distance_aromatic_linkinvent_7_9_3/rearranged_h_0065.sdf

> <i_m_source_file_index>
59

> <r_mmod_Potential_Energy-OPLS-2005>
-111.38166809082

> <r_mmod_Stretch_Energy-OPLS-2005>
33.6586647033691

> <r_mmod_Bend_Energy-OPLS-2005>
113.789085388184

> <r_mmod_Torsional_Energy-OPLS-2005>
239.215682983398

> <r_mmod_Improper_Torsional_Energy-OPLS-2005>
2.35507464408875

> <r_mmod_Van_der_Waal_Energy-OPLS-2005>
144.004623413086

> <r_mmod_Electrostatic_Energy-OPLS-2005>
-435.105499267578

> <r_mmod_Solvation_Energy-OPLS-2005>
-218.193450927734

> <b_mmod_Minimization_Converged-OPLS-2005>
0

> <r_mmod_RMS_Derivative-OPLS-2005>
2.58908009529114

$$$$
64
                    3D
 Structure written by MMmdl.
187195  0  0  1  0            999 V2000
  -30.7182  -14.4683   20.5989 C   0  0  0  0  0  0
  -30.4292  -12.3291   19.3994 C   0  0  0  0  0  0
  -29.4849  -12.5126   18.1940 C   0  0  0  0  0  0
  -28.0070  -12.3590   18.6127 C   0  0  0  0  0  0
  -27.6590  -13.1770   19.8839 C   0  0  2  0  0  0
  -28.7181  -12.9468   20.9706 C   0  0  0  0  0  0
  -25.2502  -13.7977   20.5606 C   0  0  0  0  0  0
  -24.1745  -13.0297   20.9072 C   0  0  0  0  0  0
  -24.6329  -11.6788   20.8729 C   0  0  0  0  0  0
  -23.9003  -10.4199   21.0403 C   0  0  0  0  0  0
  -24.3556   -9.4128   21.9180 C   0  0  0  0  0  0
  -23.6212   -8.2182   22.0748 C   0  0  0  0  0  0
  -22.4191   -8.0240   21.3534 C   0  0  0  0  0  0
  -21.9835   -9.0197   20.4615 C   0  0  0  0  0  0
  -22.7191  -10.2066   20.3018 C   0  0  0  0  0  0
  -21.6801   -6.0694   22.5265 C   0  0  0  0  0  0
  -21.3999   -6.5612   23.8215 C   0  0  0  0  0  0
  -21.3649   -5.6749   24.9171 C   0  0  0  0  0  0
  -21.6012   -4.3010   24.7203 C   0  0  0  0  0  0
  -21.8818   -3.8117   23.4327 C   0  0  0  0  0  0
  -21.9179   -4.6935   22.3396 C   0  0  0  0  0  0
  -22.7823  -13.5193   21.1804 C   0  0  0  0  0  0
  -22.1630   -4.2134   21.0962 F   0  0  0  0  0  0
  -21.5643   -3.4486   25.7711 F   0  0  0  0  0  0
  -30.0226  -13.3115   20.4186 N   0  0  0  0  0  0
  -26.3016  -12.9165   20.3522 N   0  0  0  0  0  0
  -25.9269  -11.6351   20.5835 N   0  0  0  0  0  0
  -22.0418  -12.8213   22.0369 N   0  0  0  0  0  0
  -25.3927  -15.1666   20.4033 N   0  0  0  0  0  0
  -31.9025  -14.5503   20.2408 O   0  0  0  0  0  0
  -21.6582   -6.8816   21.4220 O   0  0  0  0  0  0
  -22.3600  -14.5574   20.6766 O   0  0  0  0  0  0
  -24.6104  -31.8703   23.2122 C   0  0  0  0  0  0
  -25.9019  -32.4829   23.8405 C   0  0  1  0  0  0
  -27.2440  -27.4747   20.0889 C   0  0  0  0  0  0
  -25.5922  -33.8631   24.2336 N   0  0  0  0  0  0
  -23.3982  -30.4888   21.5543 C   0  0  2  0  0  0
  -24.8445  -28.9503   20.1206 C   0  0  0  0  0  0
  -22.7384  -29.4651   22.5040 C   0  0  0  0  0  0
  -18.0296  -28.1324   22.8499 C   0  0  0  0  0  0
  -24.1486  -36.7319   23.2631 C   0  0  0  0  0  0
  -25.9180  -30.8443   21.3592 C   0  0  0  0  0  0
  -25.9983  -29.4765   20.7158 C   0  0  0  0  0  0
  -27.2009  -28.7398   20.7092 C   0  0  0  0  0  0
  -26.0840  -26.9544   19.4837 C   0  0  0  0  0  0
  -24.8773  -27.6830   19.5110 C   0  0  0  0  0  0
  -23.6038  -29.8146   20.1701 C   0  0  0  0  0  0
  -25.4114  -36.3109   24.0330 C   0  0  1  0  0  0
  -20.5869  -28.3641   23.1360 C   0  0  2  0  0  0
  -20.6788  -26.9350   22.5504 C   0  0  0  0  0  0
  -19.5783  -26.6284   21.5293 C   0  0  0  0  0  0
  -18.1965  -26.7852   22.1687 C   0  0  0  0  0  0
  -19.1538  -28.8804   23.2894 C   0  0  0  0  0  0
  -18.9461  -30.1439   23.8871 C   0  0  0  0  0  0
  -17.6461  -30.6577   24.0526 C   0  0  0  0  0  0
  -25.9056  -34.9478   23.5131 C   0  0  0  0  0  0
  -16.5362  -29.9063   23.6301 C   0  0  0  0  0  0
  -16.7283  -28.6462   23.0347 C   0  0  0  0  0  0
  -26.4475  -31.6586   25.0711 C   0  0  0  0  0  0
  -25.3785  -31.3689   26.1492 C   0  0  0  0  0  0
  -27.0255  -30.3038   24.5999 C   0  0  0  0  0  0
  -27.6039  -32.4314   25.7463 C   0  0  0  0  0  0
  -27.5589  -37.1821   24.8472 C   0  0  0  0  0  0
  -21.4115  -29.3020   22.3768 N   0  0  0  0  0  0
  -26.4289  -37.3816   23.9404 N   0  0  0  0  0  0
  -24.6599  -31.0807   22.1037 N   0  0  0  0  0  0
  -23.4157  -28.8217   23.3096 O   0  0  0  0  0  0
  -28.4132  -26.7579   20.0430 O   0  0  0  0  0  0
  -26.5593  -34.8928   22.4682 O   0  0  0  0  0  0
  -23.5306  -32.1449   23.7544 O   0  0  0  0  0  0
  -28.7324  -18.7906   23.8945 C   0  0  0  0  0  0
  -27.7425  -19.7772   23.8981 C   0  0  0  0  0  0
  -28.3995  -17.5323   23.3628 C   0  0  0  0  0  0
  -26.3242  -18.3472   22.8311 C   0  0  0  0  0  0
  -24.9737  -18.1156   22.2022 C   0  0  0  0  0  0
  -28.5477  -15.0605   23.7582 C   0  0  0  0  0  0
  -30.2640  -16.4773   24.6849 C   0  0  0  0  0  0
  -29.0727  -18.8543   20.0608 C   0  0  0  0  0  0
  -29.4329  -17.9497   17.7816 C   0  0  0  0  0  0
  -27.7989  -16.8560   19.2619 C   0  0  0  0  0  0
  -27.9723  -21.1047   24.6105 C   0  0  0  0  0  0
  -27.1114  -22.2821   24.1209 C   0  0  0  0  0  0
  -27.3844  -22.7570   22.6812 C   0  0  0  0  0  0
  -28.3571  -23.9502   22.5848 C   0  0  0  0  0  0
  -28.2279  -24.6822   21.2387 C   0  0  0  0  0  0
  -30.3614  -16.2560   22.2030 C   0  0  0  0  0  0
  -30.2803  -16.6146   19.7537 C   0  0  0  0  0  0
  -28.7570  -26.1224   21.2685 C   0  0  0  0  0  0
  -29.3630  -16.3260   23.4290 C   0  0  0  0  0  0
  -29.1479  -17.5531   19.2481 C   0  0  0  0  0  0
  -26.5221  -19.5309   23.3942 N   0  0  0  0  0  0
  -27.1934  -17.3459   22.7874 N   0  0  0  0  0  0
  -30.0326  -15.6279   20.8734 N   0  0  0  0  0  0
  -31.4670  -12.4437   19.0789 H   0  0  0  0  0  0
  -30.3615  -11.3179   19.8016 H   0  0  0  0  0  0
  -29.7270  -11.7949   17.4081 H   0  0  0  0  0  0
  -29.6338  -13.5042   17.7648 H   0  0  0  0  0  0
  -27.8250  -11.3021   18.7972 H   0  0  0  0  0  0
  -27.3475  -12.6412   17.7902 H   0  0  0  0  0  0
  -27.6955  -14.2205   19.6185 H   0  0  0  0  0  0
  -28.7338  -11.9044   21.2903 H   0  0  0  0  0  0
  -28.4883  -13.5056   21.8508 H   0  0  0  0  0  0
  -25.2668   -9.5630   22.4800 H   0  0  0  0  0  0
  -23.9887   -7.4543   22.7474 H   0  0  0  0  0  0
  -21.0762   -8.8698   19.8899 H   0  0  0  0  0  0
  -22.3633  -10.9625   19.6148 H   0  0  0  0  0  0
  -21.2005   -7.6104   23.9754 H   0  0  0  0  0  0
  -21.1480   -6.0443   25.9081 H   0  0  0  0  0  0
  -22.0629   -2.7583   23.2812 H   0  0  0  0  0  0
  -22.3930  -11.9772   22.4624 H   0  0  0  0  0  0
  -21.1109  -13.1384   22.2668 H   0  0  0  0  0  0
  -24.5656  -15.7456   20.4908 H   0  0  0  0  0  0
  -26.2267  -15.6342   20.7388 H   0  0  0  0  0  0
  -26.7094  -32.5557   23.1163 H   0  0  0  0  0  0
  -25.0118  -33.9776   25.0515 H   0  0  0  0  0  0
  -22.6858  -31.3042   21.4155 H   0  0  0  0  0  0
  -23.3726  -35.9680   23.3297 H   0  0  0  0  0  0
  -24.3577  -36.8917   22.2047 H   0  0  0  0  0  0
  -23.7234  -37.6538   23.6629 H   0  0  0  0  0  0
  -26.0150  -31.6057   20.5834 H   0  0  0  0  0  0
  -26.8098  -30.9041   21.9676 H   0  0  0  0  0  0
  -28.0937  -29.1437   21.1606 H   0  0  0  0  0  0
  -26.1149  -25.9894   18.9992 H   0  0  0  0  0  0
  -23.9910  -27.2663   19.0525 H   0  0  0  0  0  0
  -23.7157  -30.5859   19.4074 H   0  0  0  0  0  0
  -22.7266  -29.2365   19.8758 H   0  0  0  0  0  0
  -25.1274  -36.1989   25.0824 H   0  0  0  0  0  0
  -20.9940  -28.3252   24.1495 H   0  0  0  0  0  0
  -20.5615  -26.2281   23.3738 H   0  0  0  0  0  0
  -21.6677  -26.7339   22.1398 H   0  0  0  0  0  0
  -19.6974  -25.6150   21.1407 H   0  0  0  0  0  0
  -19.6745  -27.2996   20.6761 H   0  0  0  0  0  0
  -17.4231  -26.6543   21.4100 H   0  0  0  0  0  0
  -18.0347  -26.0000   22.9099 H   0  0  0  0  0  0
  -19.7937  -30.7260   24.2210 H   0  0  0  0  0  0
  -17.5041  -31.6261   24.5090 H   0  0  0  0  0  0
  -15.5374  -30.2962   23.7623 H   0  0  0  0  0  0
  -15.8697  -28.0763   22.7085 H   0  0  0  0  0  0
  -24.5945  -30.7025   25.7879 H   0  0  0  0  0  0
  -24.9004  -32.2860   26.4974 H   0  0  0  0  0  0
  -25.8210  -30.8881   27.0224 H   0  0  0  0  0  0
  -26.2749  -29.6838   24.1090 H   0  0  0  0  0  0
  -27.4092  -29.7216   25.4378 H   0  0  0  0  0  0
  -27.8558  -30.4342   23.9043 H   0  0  0  0  0  0
  -27.2612  -33.3576   26.2086 H   0  0  0  0  0  0
  -28.3822  -32.6945   25.0286 H   0  0  0  0  0  0
  -28.0731  -31.8439   26.5358 H   0  0  0  0  0  0
  -28.2630  -38.0100   24.7516 H   0  0  0  0  0  0
  -28.1047  -36.2638   24.6280 H   0  0  0  0  0  0
  -27.2313  -37.1463   25.8878 H   0  0  0  0  0  0
  -20.9250  -29.8816   21.7076 H   0  0  0  0  0  0
  -26.0170  -38.2895   24.1412 H   0  0  0  0  0  0
  -29.6929  -19.0030   24.3370 H   0  0  0  0  0  0
  -24.3703  -19.0224   22.2286 H   0  0  0  0  0  0
  -24.4402  -17.3231   22.7265 H   0  0  0  0  0  0
  -25.0938  -17.8229   21.1607 H   0  0  0  0  0  0
  -28.0742  -15.1498   24.7396 H   0  0  0  0  0  0
  -29.1694  -14.1675   23.7869 H   0  0  0  0  0  0
  -27.7262  -14.9134   23.0608 H   0  0  0  0  0  0
  -29.6689  -16.6511   25.5811 H   0  0  0  0  0  0
  -30.9789  -17.2964   24.6064 H   0  0  0  0  0  0
  -30.8504  -15.5759   24.8600 H   0  0  0  0  0  0
  -28.2190  -19.4637   19.7620 H   0  0  0  0  0  0
  -29.9662  -19.4627   19.9274 H   0  0  0  0  0  0
  -28.9715  -18.6620   21.1207 H   0  0  0  0  0  0
  -28.6673  -18.6241   17.3948 H   0  0  0  0  0  0
  -29.4436  -17.0759   17.1265 H   0  0  0  0  0  0
  -30.3984  -18.4444   17.6703 H   0  0  0  0  0  0
  -26.9961  -17.5202   18.9440 H   0  0  0  0  0  0
  -27.5723  -16.5057   20.2643 H   0  0  0  0  0  0
  -27.8032  -16.0129   18.5754 H   0  0  0  0  0  0
  -29.0254  -21.3738   24.5232 H   0  0  0  0  0  0
  -27.7868  -20.9449   25.6726 H   0  0  0  0  0  0
  -27.2390  -23.1165   24.8065 H   0  0  0  0  0  0
  -26.0582  -22.0102   24.2154 H   0  0  0  0  0  0
  -26.4211  -23.0579   22.2690 H   0  0  0  0  0  0
  -27.7207  -21.9321   22.0524 H   0  0  0  0  0  0
  -29.3856  -23.6223   22.7453 H   0  0  0  0  0  0
  -28.1355  -24.6564   23.3855 H   0  0  0  0  0  0
  -27.1755  -24.7161   20.9499 H   0  0  0  0  0  0
  -28.7396  -24.1239   20.4546 H   0  0  0  0  0  0
  -31.2533  -15.7471   22.5746 H   0  0  0  0  0  0
  -30.7155  -17.2776   22.0623 H   0  0  0  0  0  0
  -31.1684  -17.2132   19.9747 H   0  0  0  0  0  0
  -30.5775  -16.0734   18.8492 H   0  0  0  0  0  0
  -29.8427  -26.1378   21.3915 H   0  0  0  0  0  0
  -28.3419  -26.6551   22.1261 H   0  0  0  0  0  0
  1 25  1  0  0  0
  1 30  2  0  0  0
  1 93  1  0  0  0
  2  3  1  0  0  0
  2 25  1  0  0  0
  2 94  1  0  0  0
  2 95  1  0  0  0
  3  4  1  0  0  0
  3 96  1  0  0  0
  3 97  1  0  0  0
  4  5  1  0  0  0
  4 98  1  0  0  0
  4 99  1  0  0  0
  5  6  1  0  0  0
  5 26  1  0  0  0
  5100  1  0  0  0
  6 25  1  0  0  0
  6101  1  0  0  0
  6102  1  0  0  0
  7  8  2  0  0  0
  7 26  1  0  0  0
  7 29  1  0  0  0
  8  9  1  0  0  0
  8 22  1  0  0  0
  9 10  1  0  0  0
  9 27  2  0  0  0
 10 11  2  0  0  0
 10 15  1  0  0  0
 11 12  1  0  0  0
 11103  1  0  0  0
 12 13  2  0  0  0
 12104  1  0  0  0
 13 14  1  0  0  0
 13 31  1  0  0  0
 14 15  2  0  0  0
 14105  1  0  0  0
 15106  1  0  0  0
 16 17  2  0  0  0
 16 21  1  0  0  0
 16 31  1  0  0  0
 17 18  1  0  0  0
 17107  1  0  0  0
 18 19  2  0  0  0
 18108  1  0  0  0
 19 20  1  0  0  0
 19 24  1  0  0  0
 20 21  2  0  0  0
 20109  1  0  0  0
 21 23  1  0  0  0
 22 28  1  0  0  0
 22 32  2  0  0  0
 26 27  1  0  0  0
 28110  1  0  0  0
 28111  1  0  0  0
 29112  1  0  0  0
 29113  1  0  0  0
 33 34  1  0  0  0
 33 66  1  0  0  0
 33 70  2  0  0  0
 34 36  1  0  0  0
 34 59  1  0  0  0
 34114  1  0  0  0
 35 44  2  0  0  0
 35 45  1  0  0  0
 35 68  1  0  0  0
 36 56  1  0  0  0
 36115  1  0  0  0
 37 39  1  0  0  0
 37 47  1  0  0  0
 37 66  1  0  0  0
 37116  1  0  0  0
 38 43  2  0  0  0
 38 46  1  0  0  0
 38 47  1  0  0  0
 39 64  1  0  0  0
 39 67  2  0  0  0
 40 52  1  0  0  0
 40 53  2  0  0  0
 40 58  1  0  0  0
 41117  1  0  0  0
 41118  1  0  0  0
 41119  1  0  0  0
 41 48  1  0  0  0
 42 43  1  0  0  0
 42 66  1  0  0  0
 42120  1  0  0  0
 42121  1  0  0  0
 43 44  1  0  0  0
 44122  1  0  0  0
 45 46  2  0  0  0
 45123  1  0  0  0
 46124  1  0  0  0
 47125  1  0  0  0
 47126  1  0  0  0
 48 56  1  0  0  0
 48 65  1  0  0  0
 48127  1  0  0  0
 49 50  1  0  0  0
 49 53  1  0  0  0
 49 64  1  0  0  0
 49128  1  0  0  0
 50 51  1  0  0  0
 50129  1  0  0  0
 50130  1  0  0  0
 51 52  1  0  0  0
 51131  1  0  0  0
 51132  1  0  0  0
 52133  1  0  0  0
 52134  1  0  0  0
 53 54  1  0  0  0
 54 55  2  0  0  0
 54135  1  0  0  0
 55 57  1  0  0  0
 55136  1  0  0  0
 56 69  2  0  0  0
 57 58  2  0  0  0
 57137  1  0  0  0
 58138  1  0  0  0
 59 60  1  0  0  0
 59 61  1  0  0  0
 59 62  1  0  0  0
 60139  1  0  0  0
 60140  1  0  0  0
 60141  1  0  0  0
 61142  1  0  0  0
 61143  1  0  0  0
 61144  1  0  0  0
 62145  1  0  0  0
 62146  1  0  0  0
 62147  1  0  0  0
 63 65  1  0  0  0
 63148  1  0  0  0
 63149  1  0  0  0
 63150  1  0  0  0
 64151  1  0  0  0
 65152  1  0  0  0
 68 88  1  0  0  0
 71 72  2  0  0  0
 71 73  1  0  0  0
 71153  1  0  0  0
 72 81  1  0  0  0
 72 91  1  0  0  0
 73 89  1  0  0  0
 73 92  2  0  0  0
 74 75  1  0  0  0
 74 91  2  0  0  0
 74 92  1  0  0  0
 75154  1  0  0  0
 75155  1  0  0  0
 75156  1  0  0  0
 76157  1  0  0  0
 76158  1  0  0  0
 76159  1  0  0  0
 76 89  1  0  0  0
 77 89  1  0  0  0
 77160  1  0  0  0
 77161  1  0  0  0
 77162  1  0  0  0
 78163  1  0  0  0
 78164  1  0  0  0
 78165  1  0  0  0
 78 90  1  0  0  0
 79 90  1  0  0  0
 79166  1  0  0  0
 79167  1  0  0  0
 79168  1  0  0  0
 80 90  1  0  0  0
 80169  1  0  0  0
 80170  1  0  0  0
 80171  1  0  0  0
 81 82  1  0  0  0
 81172  1  0  0  0
 81173  1  0  0  0
 82 83  1  0  0  0
 82174  1  0  0  0
 82175  1  0  0  0
 83 84  1  0  0  0
 83176  1  0  0  0
 83177  1  0  0  0
 84 85  1  0  0  0
 84178  1  0  0  0
 84179  1  0  0  0
 85 88  1  0  0  0
 85180  1  0  0  0
 85181  1  0  0  0
 86 89  1  0  0  0
 86 93  1  0  0  0
 86182  1  0  0  0
 86183  1  0  0  0
 87 90  1  0  0  0
 87 93  1  0  0  0
 87184  1  0  0  0
 87185  1  0  0  0
 88186  1  0  0  0
 88187  1  0  0  0
M  ISO  4   1 100  68 101  88 101  93 100
M  END
> <chiral flag>
0

> <version>
0

> <s_m_source_file>
/data/baiqing/PycharmProjects/Reinvent-master-3.2/result/LINK_invent/BTK/process_docking_weight1_custom_sum_contain_oxygen_bond_distance_aromatic_linkinvent_7_9_3/rearranged_h_0065.sdf

> <i_m_source_file_index>
60

> <r_mmod_Potential_Energy-OPLS-2005>
-188.029022216797

> <r_mmod_Stretch_Energy-OPLS-2005>
50.938045501709

> <r_mmod_Bend_Energy-OPLS-2005>
174.45703125

> <r_mmod_Torsional_Energy-OPLS-2005>
358.252014160156

> <r_mmod_Improper_Torsional_Energy-OPLS-2005>
16.6925258636475

> <r_mmod_Van_der_Waal_Energy-OPLS-2005>
182.198394775391

> <r_mmod_Electrostatic_Energy-OPLS-2005>
-809.432983398438

> <r_mmod_Solvation_Energy-OPLS-2005>
-178.015396118164

> <b_mmod_Minimization_Converged-OPLS-2005>
0

> <r_mmod_RMS_Derivative-OPLS-2005>
5.66292572021484

$$$$
65
                    3D
 Structure written by MMmdl.
167175  0  0  1  0            999 V2000
  -30.7130  -14.7354   20.2835 C   0  0  0  0  0  0
  -30.4229  -12.4319   19.4395 C   0  0  0  0  0  0
  -29.4914  -12.3813   18.2150 C   0  0  0  0  0  0
  -28.0212  -12.2191   18.6565 C   0  0  0  0  0  0
  -27.6098  -13.1660   19.8119 C   0  0  2  0  0  0
  -28.6898  -13.2813   20.9125 C   0  0  0  0  0  0
  -25.2543  -13.7986   20.5811 C   0  0  0  0  0  0
  -24.1767  -13.0337   20.9295 C   0  0  0  0  0  0
  -24.6281  -11.6793   20.8856 C   0  0  0  0  0  0
  -23.8943  -10.4230   21.0482 C   0  0  0  0  0  0
  -24.3532   -9.4151   21.9234 C   0  0  0  0  0  0
  -23.6234   -8.2177   22.0763 C   0  0  0  0  0  0
  -22.4223   -8.0235   21.3541 C   0  0  0  0  0  0
  -21.9846   -9.0205   20.4648 C   0  0  0  0  0  0
  -22.7147  -10.2097   20.3091 C   0  0  0  0  0  0
  -21.6829   -6.0711   22.5282 C   0  0  0  0  0  0
  -21.3996   -6.5625   23.8212 C   0  0  0  0  0  0
  -21.3651   -5.6785   24.9177 C   0  0  0  0  0  0
  -21.6042   -4.3047   24.7230 C   0  0  0  0  0  0
  -21.8824   -3.8135   23.4353 C   0  0  0  0  0  0
  -21.9188   -4.6946   22.3409 C   0  0  0  0  0  0
  -22.7813  -13.5204   21.1901 C   0  0  0  0  0  0
  -22.1666   -4.2140   21.0986 F   0  0  0  0  0  0
  -21.5626   -3.4532   25.7742 F   0  0  0  0  0  0
  -29.9831  -13.5662   20.2720 N   0  0  0  0  0  0
  -26.2836  -12.9010   20.3355 N   0  0  0  0  0  0
  -25.9184  -11.6249   20.5896 N   0  0  0  0  0  0
  -22.0412  -12.8222   22.0439 N   0  0  0  0  0  0
  -25.4326  -15.1714   20.4223 N   0  0  0  0  0  0
  -31.9106  -14.6244   20.5200 O   0  0  0  0  0  0
  -21.6599   -6.8839   21.4236 O   0  0  0  0  0  0
  -22.3550  -14.5522   20.6736 O   0  0  0  0  0  0
  -24.6214  -31.8614   23.2015 C   0  0  0  0  0  0
  -25.9077  -32.4788   23.8339 C   0  0  1  0  0  0
  -27.2363  -27.3557   20.1290 C   0  0  0  0  0  0
  -25.5904  -33.8587   24.2274 N   0  0  0  0  0  0
  -23.4135  -30.4809   21.5443 C   0  0  2  0  0  0
  -24.8624  -28.9283   20.1202 C   0  0  0  0  0  0
  -22.7443  -29.4633   22.4971 C   0  0  0  0  0  0
  -18.0279  -28.1375   22.8495 C   0  0  0  0  0  0
  -24.1490  -36.7301   23.2641 C   0  0  0  0  0  0
  -25.9485  -30.8054   21.3636 C   0  0  0  0  0  0
  -26.0265  -29.4314   20.7148 C   0  0  0  0  0  0
  -27.2186  -28.6579   20.7031 C   0  0  0  0  0  0
  -26.0536  -26.8802   19.5272 C   0  0  0  0  0  0
  -24.8753  -27.6567   19.5180 C   0  0  0  0  0  0
  -23.6266  -29.8043   20.1634 C   0  0  0  0  0  0
  -25.4115  -36.3091   24.0330 C   0  0  1  0  0  0
  -20.5873  -28.3671   23.1303 C   0  0  2  0  0  0
  -20.6770  -26.9401   22.5416 C   0  0  0  0  0  0
  -19.5749  -26.6382   21.5213 C   0  0  0  0  0  0
  -18.1925  -26.7923   22.1622 C   0  0  0  0  0  0
  -19.1529  -28.8841   23.2893 C   0  0  0  0  0  0
  -18.9455  -30.1448   23.8899 C   0  0  0  0  0  0
  -17.6456  -30.6581   24.0561 C   0  0  0  0  0  0
  -25.9047  -34.9459   23.5105 C   0  0  0  0  0  0
  -16.5347  -29.9078   23.6332 C   0  0  0  0  0  0
  -16.7268  -28.6496   23.0355 C   0  0  0  0  0  0
  -26.4473  -31.6591   25.0698 C   0  0  0  0  0  0
  -25.3717  -31.3718   26.1430 C   0  0  0  0  0  0
  -27.0314  -30.3026   24.6121 C   0  0  0  0  0  0
  -27.6033  -32.4326   25.7467 C   0  0  0  0  0  0
  -27.5584  -37.1801   24.8462 C   0  0  0  0  0  0
  -21.4165  -29.3030   22.3704 N   0  0  0  0  0  0
  -26.4296  -37.3781   23.9406 N   0  0  0  0  0  0
  -24.6798  -31.0659   22.0943 N   0  0  0  0  0  0
  -23.4182  -28.8193   23.3054 O   0  0  0  0  0  0
  -28.3932  -26.5836   20.0968 O   0  0  0  0  0  0
  -26.5623  -34.8927   22.4675 O   0  0  0  0  0  0
  -23.5390  -32.1392   23.7370 O   0  0  0  0  0  0
  -28.9297  -19.0364   21.3740 C   0  0  0  0  0  0
  -29.5547  -20.1580   20.7750 C   0  0  0  0  0  0
  -30.6925  -19.8015   20.0175 C   0  0  0  0  0  0
  -30.3070  -17.4926   20.3003 C   0  0  0  0  0  0
  -31.6308  -20.8165   19.3968 C   0  0  0  0  0  0
  -32.8238  -16.3108   18.4382 C   0  0  0  0  0  0
  -28.3989  -17.2077   17.9512 C   0  0  0  0  0  0
  -29.0089  -21.6156   21.0279 C   0  0  0  0  0  0
  -31.2886  -16.1929   18.2511 C   0  0  0  0  0  0
  -28.8972  -16.0384   18.8356 C   0  0  0  0  0  0
  -29.1768  -22.7429   19.9292 C   0  0  0  0  0  0
  -28.1830  -23.9826   19.8490 C   0  0  0  0  0  0
  -28.4069  -25.2645   20.7392 C   0  0  0  0  0  0
  -30.3057  -16.1090   19.4997 C   0  0  0  0  0  0
  -29.3062  -17.7449   21.1550 N   0  0  0  0  0  0
  -31.0165  -18.5079   19.7806 N   0  0  0  0  0  0
  -31.4586  -12.5391   19.1108 H   0  0  0  0  0  0
  -30.3762  -11.5016   20.0085 H   0  0  0  0  0  0
  -29.7705  -11.5430   17.5755 H   0  0  0  0  0  0
  -29.6228  -13.2667   17.5967 H   0  0  0  0  0  0
  -27.8970  -11.1836   18.9755 H   0  0  0  0  0  0
  -27.3531  -12.3501   17.8044 H   0  0  0  0  0  0
  -27.4686  -14.1015   19.3133 H   0  0  0  0  0  0
  -28.7529  -12.3594   21.4916 H   0  0  0  0  0  0
  -28.4336  -14.0763   21.6141 H   0  0  0  0  0  0
  -25.2672   -9.5631   22.4804 H   0  0  0  0  0  0
  -23.9959   -7.4548   22.7453 H   0  0  0  0  0  0
  -21.0794   -8.8703   19.8928 H   0  0  0  0  0  0
  -22.3612  -10.9645   19.6208 H   0  0  0  0  0  0
  -21.1986   -7.6135   23.9709 H   0  0  0  0  0  0
  -21.1468   -6.0518   25.9078 H   0  0  0  0  0  0
  -22.0614   -2.7600   23.2853 H   0  0  0  0  0  0
  -22.3998  -11.9875   22.4838 H   0  0  0  0  0  0
  -21.1037  -13.1281   22.2627 H   0  0  0  0  0  0
  -24.6718  -15.8300   20.5478 H   0  0  0  0  0  0
  -26.2964  -15.6143   20.1388 H   0  0  0  0  0  0
  -26.7147  -32.5477   23.1093 H   0  0  0  0  0  0
  -25.0035  -33.9732   25.0406 H   0  0  0  0  0  0
  -22.7058  -31.2995   21.3974 H   0  0  0  0  0  0
  -23.3752  -35.9635   23.3303 H   0  0  0  0  0  0
  -24.3581  -36.8922   22.2056 H   0  0  0  0  0  0
  -23.7244  -37.6503   23.6663 H   0  0  0  0  0  0
  -26.0692  -31.5667   20.5914 H   0  0  0  0  0  0
  -26.8328  -30.8607   21.9871 H   0  0  0  0  0  0
  -28.1211  -29.0493   21.1518 H   0  0  0  0  0  0
  -26.0446  -25.9063   19.0582 H   0  0  0  0  0  0
  -23.9820  -27.2645   19.0515 H   0  0  0  0  0  0
  -23.7388  -30.5736   19.3985 H   0  0  0  0  0  0
  -22.7491  -29.2257   19.8694 H   0  0  0  0  0  0
  -25.1297  -36.1943   25.0823 H   0  0  0  0  0  0
  -20.9965  -28.3241   24.1422 H   0  0  0  0  0  0
  -20.5676  -26.2278   23.3607 H   0  0  0  0  0  0
  -21.6642  -26.7435   22.1210 H   0  0  0  0  0  0
  -19.6912  -25.6293   21.1241 H   0  0  0  0  0  0
  -19.6690  -27.3197   20.6748 H   0  0  0  0  0  0
  -17.4200  -26.6677   21.4017 H   0  0  0  0  0  0
  -18.0317  -26.0053   22.9004 H   0  0  0  0  0  0
  -19.7930  -30.7267   24.2266 H   0  0  0  0  0  0
  -17.5007  -31.6264   24.5156 H   0  0  0  0  0  0
  -15.5347  -30.2980   23.7649 H   0  0  0  0  0  0
  -15.8668  -28.0814   22.7066 H   0  0  0  0  0  0
  -24.5883  -30.7081   25.7753 H   0  0  0  0  0  0
  -24.8915  -32.2883   26.4870 H   0  0  0  0  0  0
  -25.8044  -30.8877   27.0194 H   0  0  0  0  0  0
  -26.2876  -29.6781   24.1160 H   0  0  0  0  0  0
  -27.4048  -29.7274   25.4601 H   0  0  0  0  0  0
  -27.8722  -30.4329   23.9304 H   0  0  0  0  0  0
  -27.2638  -33.3614   26.2062 H   0  0  0  0  0  0
  -28.3828  -32.6912   25.0289 H   0  0  0  0  0  0
  -28.0720  -31.8446   26.5367 H   0  0  0  0  0  0
  -28.2598  -38.0102   24.7519 H   0  0  0  0  0  0
  -28.1084  -36.2633   24.6276 H   0  0  0  0  0  0
  -27.2302  -37.1437   25.8865 H   0  0  0  0  0  0
  -20.9343  -29.8722   21.6887 H   0  0  0  0  0  0
  -26.0181  -38.2860   24.1401 H   0  0  0  0  0  0
  -28.0775  -19.1710   22.0231 H   0  0  0  0  0  0
  -31.8892  -21.5910   20.1174 H   0  0  0  0  0  0
  -31.1773  -21.2784   18.5211 H   0  0  0  0  0  0
  -32.5631  -20.3490   19.0789 H   0  0  0  0  0  0
  -33.2848  -16.7161   17.5376 H   0  0  0  0  0  0
  -33.2959  -15.3439   18.6130 H   0  0  0  0  0  0
  -33.0944  -16.9694   19.2632 H   0  0  0  0  0  0
  -28.9463  -17.2856   17.0126 H   0  0  0  0  0  0
  -28.4513  -18.1726   18.4548 H   0  0  0  0  0  0
  -27.3534  -17.0506   17.6832 H   0  0  0  0  0  0
  -29.4385  -21.9744   21.9638 H   0  0  0  0  0  0
  -27.9408  -21.5135   21.2270 H   0  0  0  0  0  0
  -31.1153  -15.3294   17.6081 H   0  0  0  0  0  0
  -31.0139  -17.0482   17.6373 H   0  0  0  0  0  0
  -28.8367  -15.1535   18.2140 H   0  0  0  0  0  0
  -28.1761  -15.9658   19.6466 H   0  0  0  0  0  0
  -29.0592  -22.2371   18.9702 H   0  0  0  0  0  0
  -30.1980  -23.1218   19.9333 H   0  0  0  0  0  0
  -27.1578  -23.6332   19.9742 H   0  0  0  0  0  0
  -28.2220  -24.3307   18.8162 H   0  0  0  0  0  0
  -29.3892  -25.1761   21.2032 H   0  0  0  0  0  0
  -27.7015  -25.2541   21.5717 H   0  0  0  0  0  0
  1 25  1  0  0  0
  1 30  2  0  0  0
  1 84  1  0  0  0
  2  3  1  0  0  0
  2 25  1  0  0  0
  2 87  1  0  0  0
  2 88  1  0  0  0
  3  4  1  0  0  0
  3 89  1  0  0  0
  3 90  1  0  0  0
  4  5  1  0  0  0
  4 91  1  0  0  0
  4 92  1  0  0  0
  5  6  1  0  0  0
  5 26  1  0  0  0
  5 93  1  0  0  0
  6 25  1  0  0  0
  6 94  1  0  0  0
  6 95  1  0  0  0
  7  8  2  0  0  0
  7 26  1  0  0  0
  7 29  1  0  0  0
  8  9  1  0  0  0
  8 22  1  0  0  0
  9 10  1  0  0  0
  9 27  2  0  0  0
 10 11  2  0  0  0
 10 15  1  0  0  0
 11 12  1  0  0  0
 11 96  1  0  0  0
 12 13  2  0  0  0
 12 97  1  0  0  0
 13 14  1  0  0  0
 13 31  1  0  0  0
 14 15  2  0  0  0
 14 98  1  0  0  0
 15 99  1  0  0  0
 16 17  2  0  0  0
 16 21  1  0  0  0
 16 31  1  0  0  0
 17 18  1  0  0  0
 17100  1  0  0  0
 18 19  2  0  0  0
 18101  1  0  0  0
 19 20  1  0  0  0
 19 24  1  0  0  0
 20 21  2  0  0  0
 20102  1  0  0  0
 21 23  1  0  0  0
 22 28  1  0  0  0
 22 32  2  0  0  0
 26 27  1  0  0  0
 28103  1  0  0  0
 28104  1  0  0  0
 29105  1  0  0  0
 29106  1  0  0  0
 33 34  1  0  0  0
 33 66  1  0  0  0
 33 70  2  0  0  0
 34 36  1  0  0  0
 34 59  1  0  0  0
 34107  1  0  0  0
 35 44  2  0  0  0
 35 45  1  0  0  0
 35 68  1  0  0  0
 36 56  1  0  0  0
 36108  1  0  0  0
 37 39  1  0  0  0
 37 47  1  0  0  0
 37 66  1  0  0  0
 37109  1  0  0  0
 38 43  2  0  0  0
 38 46  1  0  0  0
 38 47  1  0  0  0
 39 64  1  0  0  0
 39 67  2  0  0  0
 40 52  1  0  0  0
 40 53  2  0  0  0
 40 58  1  0  0  0
 41110  1  0  0  0
 41111  1  0  0  0
 41112  1  0  0  0
 41 48  1  0  0  0
 42 43  1  0  0  0
 42 66  1  0  0  0
 42113  1  0  0  0
 42114  1  0  0  0
 43 44  1  0  0  0
 44115  1  0  0  0
 45 46  2  0  0  0
 45116  1  0  0  0
 46117  1  0  0  0
 47118  1  0  0  0
 47119  1  0  0  0
 48 56  1  0  0  0
 48 65  1  0  0  0
 48120  1  0  0  0
 49 50  1  0  0  0
 49 53  1  0  0  0
 49 64  1  0  0  0
 49121  1  0  0  0
 50 51  1  0  0  0
 50122  1  0  0  0
 50123  1  0  0  0
 51 52  1  0  0  0
 51124  1  0  0  0
 51125  1  0  0  0
 52126  1  0  0  0
 52127  1  0  0  0
 53 54  1  0  0  0
 54 55  2  0  0  0
 54128  1  0  0  0
 55 57  1  0  0  0
 55129  1  0  0  0
 56 69  2  0  0  0
 57 58  2  0  0  0
 57130  1  0  0  0
 58131  1  0  0  0
 59 60  1  0  0  0
 59 61  1  0  0  0
 59 62  1  0  0  0
 60132  1  0  0  0
 60133  1  0  0  0
 60134  1  0  0  0
 61135  1  0  0  0
 61136  1  0  0  0
 61137  1  0  0  0
 62138  1  0  0  0
 62139  1  0  0  0
 62140  1  0  0  0
 63 65  1  0  0  0
 63141  1  0  0  0
 63142  1  0  0  0
 63143  1  0  0  0
 64144  1  0  0  0
 65145  1  0  0  0
 68 83  1  0  0  0
 71 72  2  0  0  0
 71 85  1  0  0  0
 71146  1  0  0  0
 72 73  1  0  0  0
 72 78  1  0  0  0
 73 75  1  0  0  0
 73 86  2  0  0  0
 74 84  1  0  0  0
 74 85  2  0  0  0
 74 86  1  0  0  0
 75147  1  0  0  0
 75148  1  0  0  0
 75149  1  0  0  0
 76 79  1  0  0  0
 76150  1  0  0  0
 76151  1  0  0  0
 76152  1  0  0  0
 77 80  1  0  0  0
 77153  1  0  0  0
 77154  1  0  0  0
 77155  1  0  0  0
 78 81  1  0  0  0
 78156  1  0  0  0
 78157  1  0  0  0
 79158  1  0  0  0
 79159  1  0  0  0
 79 84  1  0  0  0
 80 84  1  0  0  0
 80160  1  0  0  0
 80161  1  0  0  0
 81 82  1  0  0  0
 81162  1  0  0  0
 81163  1  0  0  0
 82 83  1  0  0  0
 82164  1  0  0  0
 82165  1  0  0  0
 83166  1  0  0  0
 83167  1  0  0  0
M  ISO  4   1 100  68 101  83 101  84 100
M  END
> <chiral flag>
0

> <version>
0

> <s_m_source_file>
/data/baiqing/PycharmProjects/Reinvent-master-3.2/result/LINK_invent/BTK/process_docking_weight1_custom_sum_contain_oxygen_bond_distance_aromatic_linkinvent_7_9_3/rearranged_h_0065.sdf

> <i_m_source_file_index>
61

> <r_mmod_Potential_Energy-OPLS-2005>
158.967681884766

> <r_mmod_Stretch_Energy-OPLS-2005>
92.2619018554688

> <r_mmod_Bend_Energy-OPLS-2005>
198.703598022461

> <r_mmod_Torsional_Energy-OPLS-2005>
291.073638916016

> <r_mmod_Improper_Torsional_Energy-OPLS-2005>
20.6368751525879

> <r_mmod_Van_der_Waal_Energy-OPLS-2005>
168.097793579102

> <r_mmod_Electrostatic_Energy-OPLS-2005>
-523.293395996094

> <r_mmod_Solvation_Energy-OPLS-2005>
-195.441680908203

> <b_mmod_Minimization_Converged-OPLS-2005>
0

> <r_mmod_RMS_Derivative-OPLS-2005>
1.02635908126831

$$$$
66
                    3D
 Structure written by MMmdl.
167175  0  0  1  0            999 V2000
  -30.7021  -14.4845   20.5486 C   0  0  0  0  0  0
  -30.4255  -12.3059   19.4268 C   0  0  0  0  0  0
  -29.4917  -12.4918   18.2103 C   0  0  0  0  0  0
  -28.0153  -12.3438   18.6274 C   0  0  0  0  0  0
  -27.6600  -13.1779   19.8854 C   0  0  2  0  0  0
  -28.7112  -12.9928   21.0041 C   0  0  0  0  0  0
  -25.2592  -13.8080   20.5711 C   0  0  0  0  0  0
  -24.1812  -13.0408   20.9206 C   0  0  0  0  0  0
  -24.6337  -11.6874   20.8783 C   0  0  0  0  0  0
  -23.9009  -10.4265   21.0439 C   0  0  0  0  0  0
  -24.3587   -9.4179   21.9195 C   0  0  0  0  0  0
  -23.6271   -8.2211   22.0747 C   0  0  0  0  0  0
  -22.4260   -8.0240   21.3524 C   0  0  0  0  0  0
  -21.9886   -9.0221   20.4645 C   0  0  0  0  0  0
  -22.7208  -10.2107   20.3064 C   0  0  0  0  0  0
  -21.6852   -6.0725   22.5265 C   0  0  0  0  0  0
  -21.4025   -6.5634   23.8200 C   0  0  0  0  0  0
  -21.3659   -5.6789   24.9160 C   0  0  0  0  0  0
  -21.6048   -4.3048   24.7219 C   0  0  0  0  0  0
  -21.8826   -3.8144   23.4335 C   0  0  0  0  0  0
  -21.9205   -4.6957   22.3396 C   0  0  0  0  0  0
  -22.7853  -13.5248   21.1861 C   0  0  0  0  0  0
  -22.1666   -4.2150   21.0970 F   0  0  0  0  0  0
  -21.5621   -3.4527   25.7730 F   0  0  0  0  0  0
  -30.0380  -13.2997   20.4400 N   0  0  0  0  0  0
  -26.3004  -12.9188   20.3470 N   0  0  0  0  0  0
  -25.9259  -11.6380   20.5865 N   0  0  0  0  0  0
  -22.0494  -12.8236   22.0422 N   0  0  0  0  0  0
  -25.4305  -15.1776   20.4042 N   0  0  0  0  0  0
  -31.8306  -14.6684   20.0894 O   0  0  0  0  0  0
  -21.6613   -6.8852   21.4221 O   0  0  0  0  0  0
  -22.3561  -14.5565   20.6716 O   0  0  0  0  0  0
  -24.6131  -31.8679   23.2099 C   0  0  0  0  0  0
  -25.9025  -32.4814   23.8388 C   0  0  1  0  0  0
  -27.2355  -27.4345   20.1067 C   0  0  0  0  0  0
  -25.5890  -33.8616   24.2314 N   0  0  0  0  0  0
  -23.4012  -30.4924   21.5497 C   0  0  2  0  0  0
  -24.8485  -28.9552   20.1159 C   0  0  0  0  0  0
  -22.7396  -29.4664   22.4978 C   0  0  0  0  0  0
  -18.0272  -28.1369   22.8499 C   0  0  0  0  0  0
  -24.1486  -36.7319   23.2639 C   0  0  0  0  0  0
  -25.9286  -30.8349   21.3620 C   0  0  0  0  0  0
  -26.0070  -29.4680   20.7120 C   0  0  0  0  0  0
  -27.2039  -28.7164   20.7020 C   0  0  0  0  0  0
  -26.0613  -26.9387   19.4982 C   0  0  0  0  0  0
  -24.8694  -27.6891   19.5071 C   0  0  0  0  0  0
  -23.6101  -29.8221   20.1645 C   0  0  0  0  0  0
  -25.4106  -36.3108   24.0332 C   0  0  1  0  0  0
  -20.5863  -28.3658   23.1315 C   0  0  2  0  0  0
  -20.6756  -26.9391   22.5418 C   0  0  0  0  0  0
  -19.5742  -26.6375   21.5206 C   0  0  0  0  0  0
  -18.1918  -26.7912   22.1618 C   0  0  0  0  0  0
  -19.1520  -28.8827   23.2906 C   0  0  0  0  0  0
  -18.9449  -30.1428   23.8921 C   0  0  0  0  0  0
  -17.6453  -30.6577   24.0562 C   0  0  0  0  0  0
  -25.9036  -34.9472   23.5125 C   0  0  0  0  0  0
  -16.5346  -29.9083   23.6320 C   0  0  0  0  0  0
  -16.7252  -28.6496   23.0347 C   0  0  0  0  0  0
  -26.4465  -31.6599   25.0716 C   0  0  0  0  0  0
  -25.3744  -31.3709   26.1477 C   0  0  0  0  0  0
  -27.0293  -30.3043   24.6086 C   0  0  0  0  0  0
  -27.6033  -32.4323   25.7489 C   0  0  0  0  0  0
  -27.5577  -37.1819   24.8463 C   0  0  0  0  0  0
  -21.4123  -29.3025   22.3719 N   0  0  0  0  0  0
  -26.4290  -37.3793   23.9403 N   0  0  0  0  0  0
  -24.6657  -31.0793   22.0996 N   0  0  0  0  0  0
  -23.4171  -28.8190   23.3007 O   0  0  0  0  0  0
  -28.4118  -26.7143   20.0874 O   0  0  0  0  0  0
  -26.5593  -34.8927   22.4681 O   0  0  0  0  0  0
  -23.5330  -32.1412   23.7513 O   0  0  0  0  0  0
  -28.5462  -20.2967   21.0425 C   0  0  0  0  0  0
  -29.1825  -19.2828   20.2707 C   0  0  0  0  0  0
  -29.0860  -21.9002   19.4648 C   0  0  0  0  0  0
  -29.7822  -20.9105   18.7171 C   0  0  0  0  0  0
  -31.0491  -20.6824   15.2593 C   0  0  0  0  0  0
  -28.3633  -17.2066   19.1744 C   0  0  0  0  0  0
  -27.8979  -17.5100   21.5992 C   0  0  0  0  0  0
  -28.8199  -23.3021   18.8998 C   0  0  0  0  0  0
  -29.3941  -24.4892   19.7126 C   0  0  0  0  0  0
  -30.2425  -16.9572   20.8654 C   0  0  0  0  0  0
  -30.8566  -20.1659   16.6868 C   0  0  0  0  0  0
  -28.3496  -25.3323   20.4840 C   0  0  0  0  0  0
  -28.9509  -17.7599   20.4927 C   0  0  0  0  0  0
  -28.5003  -21.5965   20.6492 N   0  0  0  0  0  0
  -29.8640  -19.6226   19.1466 N   0  0  0  0  0  0
  -29.9717  -15.5067   21.0261 N   0  0  0  0  0  0
  -30.3179  -21.2199   17.4828 O   0  0  0  0  0  0
  -31.4733  -12.3938   19.1289 H   0  0  0  0  0  0
  -30.3166  -11.3019   19.8377 H   0  0  0  0  0  0
  -29.7327  -11.7640   17.4342 H   0  0  0  0  0  0
  -29.6536  -13.4792   17.7702 H   0  0  0  0  0  0
  -27.8324  -11.2872   18.8188 H   0  0  0  0  0  0
  -27.3621  -12.6162   17.7982 H   0  0  0  0  0  0
  -27.6896  -14.2102   19.5749 H   0  0  0  0  0  0
  -28.6981  -11.9628   21.3639 H   0  0  0  0  0  0
  -28.4805  -13.6054   21.8762 H   0  0  0  0  0  0
  -25.2729   -9.5661   22.4782 H   0  0  0  0  0  0
  -23.9983   -7.4601   22.7461 H   0  0  0  0  0  0
  -21.0815   -8.8766   19.8952 H   0  0  0  0  0  0
  -22.3679  -10.9656   19.6183 H   0  0  0  0  0  0
  -21.2036   -7.6148   23.9719 H   0  0  0  0  0  0
  -21.1463   -6.0504   25.9067 H   0  0  0  0  0  0
  -22.0618   -2.7607   23.2834 H   0  0  0  0  0  0
  -22.4097  -11.9861   22.4763 H   0  0  0  0  0  0
  -21.1120  -13.1264   22.2660 H   0  0  0  0  0  0
  -24.6632  -15.8320   20.5033 H   0  0  0  0  0  0
  -26.2799  -15.6102   20.0707 H   0  0  0  0  0  0
  -26.7094  -32.5539   23.1155 H   0  0  0  0  0  0
  -25.0043  -33.9775   25.0465 H   0  0  0  0  0  0
  -22.6891  -31.3082   21.4086 H   0  0  0  0  0  0
  -23.3734  -35.9671   23.3320 H   0  0  0  0  0  0
  -24.3573  -36.8915   22.2051 H   0  0  0  0  0  0
  -23.7254  -37.6538   23.6640 H   0  0  0  0  0  0
  -26.0376  -31.6021   20.5937 H   0  0  0  0  0  0
  -26.8178  -30.8906   21.9791 H   0  0  0  0  0  0
  -28.0993  -29.1122   21.1590 H   0  0  0  0  0  0
  -26.0635  -25.9788   19.0021 H   0  0  0  0  0  0
  -23.9803  -27.2928   19.0350 H   0  0  0  0  0  0
  -23.7172  -30.5943   19.4026 H   0  0  0  0  0  0
  -22.7358  -29.2404   19.8683 H   0  0  0  0  0  0
  -25.1287  -36.1975   25.0826 H   0  0  0  0  0  0
  -20.9955  -28.3213   24.1435 H   0  0  0  0  0  0
  -20.5641  -26.2258   23.3601 H   0  0  0  0  0  0
  -21.6629  -26.7418   22.1226 H   0  0  0  0  0  0
  -19.6901  -25.6287   21.1225 H   0  0  0  0  0  0
  -19.6682  -27.3193   20.6745 H   0  0  0  0  0  0
  -17.4184  -26.6654   21.4017 H   0  0  0  0  0  0
  -18.0325  -26.0041   22.9011 H   0  0  0  0  0  0
  -19.7931  -30.7231   24.2297 H   0  0  0  0  0  0
  -17.5017  -31.6260   24.5153 H   0  0  0  0  0  0
  -15.5350  -30.2994   23.7630 H   0  0  0  0  0  0
  -15.8655  -28.0820   22.7053 H   0  0  0  0  0  0
  -24.5898  -30.7069   25.7824 H   0  0  0  0  0  0
  -24.8967  -32.2877   26.4953 H   0  0  0  0  0  0
  -25.8122  -30.8859   27.0214 H   0  0  0  0  0  0
  -26.2830  -29.6809   24.1144 H   0  0  0  0  0  0
  -27.4061  -29.7272   25.4540 H   0  0  0  0  0  0
  -27.8666  -30.4354   23.9225 H   0  0  0  0  0  0
  -27.2626  -33.3597   26.2110 H   0  0  0  0  0  0
  -28.3836  -32.6930   25.0324 H   0  0  0  0  0  0
  -28.0707  -31.8423   26.5383 H   0  0  0  0  0  0
  -28.2615  -38.0102   24.7494 H   0  0  0  0  0  0
  -28.1054  -36.2630   24.6313 H   0  0  0  0  0  0
  -27.2287  -37.1504   25.8868 H   0  0  0  0  0  0
  -20.9261  -29.8774   21.6986 H   0  0  0  0  0  0
  -26.0178  -38.2873   24.1405 H   0  0  0  0  0  0
  -27.9936  -20.0717   21.9421 H   0  0  0  0  0  0
  -31.5100  -19.9199   14.6302 H   0  0  0  0  0  0
  -31.6862  -21.5671   15.2397 H   0  0  0  0  0  0
  -30.0900  -20.9451   14.8100 H   0  0  0  0  0  0
  -27.4654  -17.7499   18.8802 H   0  0  0  0  0  0
  -28.0901  -16.1663   19.2471 H   0  0  0  0  0  0
  -29.0770  -17.2723   18.3525 H   0  0  0  0  0  0
  -26.9572  -18.0175   21.3784 H   0  0  0  0  0  0
  -28.2470  -17.8535   22.5742 H   0  0  0  0  0  0
  -27.6567  -16.4542   21.7106 H   0  0  0  0  0  0
  -27.7486  -23.4200   18.7382 H   0  0  0  0  0  0
  -29.2395  -23.3557   17.8954 H   0  0  0  0  0  0
  -29.9067  -25.1534   19.0147 H   0  0  0  0  0  0
  -30.1737  -24.1364   20.3871 H   0  0  0  0  0  0
  -31.0061  -17.1190   20.1011 H   0  0  0  0  0  0
  -30.6676  -17.3398   21.7942 H   0  0  0  0  0  0
  -31.8084  -19.8371   17.1050 H   0  0  0  0  0  0
  -30.1897  -19.3032   16.6516 H   0  0  0  0  0  0
  -28.5893  -25.2928   21.5487 H   0  0  0  0  0  0
  -27.3551  -24.8920   20.4062 H   0  0  0  0  0  0
  -29.0612  -15.2580   21.3793 H   0  0  0  0  0  0
  1 25  1  0  0  0
  1 30  2  0  0  0
  1 86  1  0  0  0
  2  3  1  0  0  0
  2 25  1  0  0  0
  2 88  1  0  0  0
  2 89  1  0  0  0
  3  4  1  0  0  0
  3 90  1  0  0  0
  3 91  1  0  0  0
  4  5  1  0  0  0
  4 92  1  0  0  0
  4 93  1  0  0  0
  5  6  1  0  0  0
  5 26  1  0  0  0
  5 94  1  0  0  0
  6 25  1  0  0  0
  6 95  1  0  0  0
  6 96  1  0  0  0
  7  8  2  0  0  0
  7 26  1  0  0  0
  7 29  1  0  0  0
  8  9  1  0  0  0
  8 22  1  0  0  0
  9 10  1  0  0  0
  9 27  2  0  0  0
 10 11  2  0  0  0
 10 15  1  0  0  0
 11 12  1  0  0  0
 11 97  1  0  0  0
 12 13  2  0  0  0
 12 98  1  0  0  0
 13 14  1  0  0  0
 13 31  1  0  0  0
 14 15  2  0  0  0
 14 99  1  0  0  0
 15100  1  0  0  0
 16 17  2  0  0  0
 16 21  1  0  0  0
 16 31  1  0  0  0
 17 18  1  0  0  0
 17101  1  0  0  0
 18 19  2  0  0  0
 18102  1  0  0  0
 19 20  1  0  0  0
 19 24  1  0  0  0
 20 21  2  0  0  0
 20103  1  0  0  0
 21 23  1  0  0  0
 22 28  1  0  0  0
 22 32  2  0  0  0
 26 27  1  0  0  0
 28104  1  0  0  0
 28105  1  0  0  0
 29106  1  0  0  0
 29107  1  0  0  0
 33 34  1  0  0  0
 33 66  1  0  0  0
 33 70  2  0  0  0
 34 36  1  0  0  0
 34 59  1  0  0  0
 34108  1  0  0  0
 35 44  2  0  0  0
 35 45  1  0  0  0
 35 68  1  0  0  0
 36 56  1  0  0  0
 36109  1  0  0  0
 37 39  1  0  0  0
 37 47  1  0  0  0
 37 66  1  0  0  0
 37110  1  0  0  0
 38 43  2  0  0  0
 38 46  1  0  0  0
 38 47  1  0  0  0
 39 64  1  0  0  0
 39 67  2  0  0  0
 40 52  1  0  0  0
 40 53  2  0  0  0
 40 58  1  0  0  0
 41111  1  0  0  0
 41112  1  0  0  0
 41113  1  0  0  0
 41 48  1  0  0  0
 42 43  1  0  0  0
 42 66  1  0  0  0
 42114  1  0  0  0
 42115  1  0  0  0
 43 44  1  0  0  0
 44116  1  0  0  0
 45 46  2  0  0  0
 45117  1  0  0  0
 46118  1  0  0  0
 47119  1  0  0  0
 47120  1  0  0  0
 48 56  1  0  0  0
 48 65  1  0  0  0
 48121  1  0  0  0
 49 50  1  0  0  0
 49 53  1  0  0  0
 49 64  1  0  0  0
 49122  1  0  0  0
 50 51  1  0  0  0
 50123  1  0  0  0
 50124  1  0  0  0
 51 52  1  0  0  0
 51125  1  0  0  0
 51126  1  0  0  0
 52127  1  0  0  0
 52128  1  0  0  0
 53 54  1  0  0  0
 54 55  2  0  0  0
 54129  1  0  0  0
 55 57  1  0  0  0
 55130  1  0  0  0
 56 69  2  0  0  0
 57 58  2  0  0  0
 57131  1  0  0  0
 58132  1  0  0  0
 59 60  1  0  0  0
 59 61  1  0  0  0
 59 62  1  0  0  0
 60133  1  0  0  0
 60134  1  0  0  0
 60135  1  0  0  0
 61136  1  0  0  0
 61137  1  0  0  0
 61138  1  0  0  0
 62139  1  0  0  0
 62140  1  0  0  0
 62141  1  0  0  0
 63 65  1  0  0  0
 63142  1  0  0  0
 63143  1  0  0  0
 63144  1  0  0  0
 64145  1  0  0  0
 65146  1  0  0  0
 68 82  1  0  0  0
 71 72  2  0  0  0
 71 84  1  0  0  0
 71147  1  0  0  0
 72 83  1  0  0  0
 72 85  1  0  0  0
 73 74  1  0  0  0
 73 78  1  0  0  0
 73 84  2  0  0  0
 74 85  2  0  0  0
 74 87  1  0  0  0
 75 81  1  0  0  0
 75148  1  0  0  0
 75149  1  0  0  0
 75150  1  0  0  0
 76151  1  0  0  0
 76152  1  0  0  0
 76153  1  0  0  0
 76 83  1  0  0  0
 77 83  1  0  0  0
 77154  1  0  0  0
 77155  1  0  0  0
 77156  1  0  0  0
 78 79  1  0  0  0
 78157  1  0  0  0
 78158  1  0  0  0
 79 82  1  0  0  0
 79159  1  0  0  0
 79160  1  0  0  0
 80 83  1  0  0  0
 80 86  1  0  0  0
 80161  1  0  0  0
 80162  1  0  0  0
 81 87  1  0  0  0
 81163  1  0  0  0
 81164  1  0  0  0
 82165  1  0  0  0
 82166  1  0  0  0
 86167  1  0  0  0
M  ISO  4   1 100  68 101  82 101  86 100
M  END
> <chiral flag>
0

> <version>
0

> <s_m_source_file>
/data/baiqing/PycharmProjects/Reinvent-master-3.2/result/LINK_invent/BTK/process_docking_weight1_custom_sum_contain_oxygen_bond_distance_aromatic_linkinvent_7_9_3/rearranged_h_0065.sdf

> <i_m_source_file_index>
62

> <r_mmod_Potential_Energy-OPLS-2005>
-17.8142013549805

> <r_mmod_Stretch_Energy-OPLS-2005>
45.5019950866699

> <r_mmod_Bend_Energy-OPLS-2005>
111.958557128906

> <r_mmod_Torsional_Energy-OPLS-2005>
227.275131225586

> <r_mmod_Improper_Torsional_Energy-OPLS-2005>
6.22028017044067

> <r_mmod_Van_der_Waal_Energy-OPLS-2005>
172.204467773438

> <r_mmod_Electrostatic_Energy-OPLS-2005>
-383.032348632812

> <r_mmod_Solvation_Energy-OPLS-2005>
-211.225387573242

> <b_mmod_Minimization_Converged-OPLS-2005>
0

> <r_mmod_RMS_Derivative-OPLS-2005>
2.94674324989319

$$$$
67
                    3D
 Structure written by MMmdl.
178186  0  0  1  0            999 V2000
  -30.6888  -14.4628   20.6383 C   0  0  0  0  0  0
  -30.4411  -12.3289   19.4025 C   0  0  0  0  0  0
  -29.5068  -12.5334   18.1936 C   0  0  0  0  0  0
  -28.0240  -12.3919   18.6037 C   0  0  0  0  0  0
  -27.6678  -13.2110   19.8777 C   0  0  2  0  0  0
  -28.7098  -12.9494   20.9880 C   0  0  0  0  0  0
  -25.2600  -13.8124   20.5716 C   0  0  0  0  0  0
  -24.1814  -13.0445   20.9188 C   0  0  0  0  0  0
  -24.6376  -11.6904   20.8695 C   0  0  0  0  0  0
  -23.9019  -10.4297   21.0366 C   0  0  0  0  0  0
  -24.3601   -9.4204   21.9145 C   0  0  0  0  0  0
  -23.6292   -8.2243   22.0713 C   0  0  0  0  0  0
  -22.4267   -8.0245   21.3534 C   0  0  0  0  0  0
  -21.9867   -9.0212   20.4622 C   0  0  0  0  0  0
  -22.7199  -10.2081   20.3033 C   0  0  0  0  0  0
  -21.6842   -6.0690   22.5284 C   0  0  0  0  0  0
  -21.4014   -6.5612   23.8197 C   0  0  0  0  0  0
  -21.3665   -5.6768   24.9165 C   0  0  0  0  0  0
  -21.6059   -4.3028   24.7216 C   0  0  0  0  0  0
  -21.8825   -3.8113   23.4337 C   0  0  0  0  0  0
  -21.9175   -4.6929   22.3394 C   0  0  0  0  0  0
  -22.7841  -13.5282   21.1806 C   0  0  0  0  0  0
  -22.1649   -4.2126   21.0984 F   0  0  0  0  0  0
  -21.5651   -3.4508   25.7742 F   0  0  0  0  0  0
  -30.0372  -13.2853   20.4427 N   0  0  0  0  0  0
  -26.3045  -12.9330   20.3347 N   0  0  0  0  0  0
  -25.9305  -11.6482   20.5675 N   0  0  0  0  0  0
  -22.0455  -12.8269   22.0361 N   0  0  0  0  0  0
  -25.4370  -15.1828   20.4244 N   0  0  0  0  0  0
  -31.8146  -14.6927   20.1922 O   0  0  0  0  0  0
  -21.6656   -6.8835   21.4236 O   0  0  0  0  0  0
  -22.3536  -14.5586   20.6642 O   0  0  0  0  0  0
  -24.6210  -31.8641   23.2061 C   0  0  0  0  0  0
  -25.9117  -32.4760   23.8377 C   0  0  1  0  0  0
  -27.2257  -27.3966   20.0639 C   0  0  0  0  0  0
  -25.5952  -33.8577   24.2267 N   0  0  0  0  0  0
  -23.4076  -30.4916   21.5499 C   0  0  2  0  0  0
  -24.8447  -28.9449   20.1214 C   0  0  0  0  0  0
  -22.7424  -29.4653   22.4957 C   0  0  0  0  0  0
  -18.0283  -28.1398   22.8477 C   0  0  0  0  0  0
  -24.1483  -36.7275   23.2634 C   0  0  0  0  0  0
  -25.9463  -30.8035   21.3777 C   0  0  0  0  0  0
  -26.0126  -29.4406   20.7133 C   0  0  0  0  0  0
  -27.2018  -28.6724   20.6835 C   0  0  0  0  0  0
  -26.0261  -26.9096   19.4961 C   0  0  0  0  0  0
  -24.8449  -27.6727   19.5259 C   0  0  0  0  0  0
  -23.6180  -29.8261   20.1658 C   0  0  0  0  0  0
  -25.4109  -36.3057   24.0316 C   0  0  1  0  0  0
  -20.5870  -28.3681   23.1291 C   0  0  2  0  0  0
  -20.6771  -26.9413   22.5411 C   0  0  0  0  0  0
  -19.5749  -26.6397   21.5208 C   0  0  0  0  0  0
  -18.1923  -26.7944   22.1616 C   0  0  0  0  0  0
  -19.1532  -28.8850   23.2876 C   0  0  0  0  0  0
  -18.9475  -30.1463   23.8880 C   0  0  0  0  0  0
  -17.6476  -30.6587   24.0574 C   0  0  0  0  0  0
  -25.9056  -34.9438   23.5088 C   0  0  0  0  0  0
  -16.5363  -29.9096   23.6340 C   0  0  0  0  0  0
  -16.7271  -28.6523   23.0331 C   0  0  0  0  0  0
  -26.4533  -31.6582   25.0761 C   0  0  0  0  0  0
  -25.3792  -31.3756   26.1523 C   0  0  0  0  0  0
  -27.0377  -30.2979   24.6259 C   0  0  0  0  0  0
  -27.6063  -32.4366   25.7533 C   0  0  0  0  0  0
  -27.5567  -37.1784   24.8460 C   0  0  0  0  0  0
  -21.4143  -29.3035   22.3677 N   0  0  0  0  0  0
  -26.4261  -37.3771   23.9434 N   0  0  0  0  0  0
  -24.6761  -31.0714   22.0981 N   0  0  0  0  0  0
  -23.4165  -28.8172   23.3007 O   0  0  0  0  0  0
  -28.4082  -26.6715   20.0426 O   0  0  0  0  0  0
  -26.5622  -34.8912   22.4636 O   0  0  0  0  0  0
  -23.5396  -32.1452   23.7421 O   0  0  0  0  0  0
  -28.5158  -21.9813   17.9755 C   0  0  0  0  0  0
  -28.8871  -21.8254   19.3194 C   0  0  0  0  0  0
  -28.4373  -20.8185   17.1864 C   0  0  0  0  0  0
  -29.1654  -19.5499   18.9835 C   0  0  0  0  0  0
  -31.8051  -18.1252   20.1848 C   0  0  0  0  0  0
  -28.0570  -22.0837   15.0000 C   0  0  0  0  0  0
  -26.2679  -20.5912   15.9676 C   0  0  0  0  0  0
  -28.3580  -19.6339   14.9057 C   0  0  0  0  0  0
  -27.8593  -17.8149   20.1832 C   0  0  0  0  0  0
  -29.5384  -17.0945   18.4342 C   0  0  0  0  0  0
  -28.8859  -22.9800   20.3304 C   0  0  0  0  0  0
  -27.9190  -24.1833   20.0863 C   0  0  0  0  0  0
  -30.2884  -16.7610   21.7203 C   0  0  0  0  0  0
  -28.4979  -25.4136   19.3276 C   0  0  0  0  0  0
  -30.3661  -17.9507   20.6967 C   0  0  2  0  0  0
  -27.7915  -20.7837   15.7861 C   0  0  0  0  0  0
  -29.2473  -18.1079   19.5846 C   0  0  0  0  0  0
  -29.2155  -20.6043   19.8035 N   0  0  0  0  0  0
  -28.7327  -19.6243   17.7289 N   0  0  0  0  0  0
  -29.9507  -15.4041   21.2531 N   0  0  0  0  0  0
  -31.4876  -12.4532   19.1105 H   0  0  0  0  0  0
  -30.3564  -11.3079   19.7778 H   0  0  0  0  0  0
  -29.7545  -11.8249   17.4002 H   0  0  0  0  0  0
  -29.6796  -13.5228   17.7682 H   0  0  0  0  0  0
  -27.8188  -11.3335   18.7758 H   0  0  0  0  0  0
  -27.3824  -12.6835   17.7707 H   0  0  0  0  0  0
  -27.7168  -14.2661   19.6008 H   0  0  0  0  0  0
  -28.6867  -11.8961   21.2723 H   0  0  0  0  0  0
  -28.4729  -13.4902   21.9035 H   0  0  0  0  0  0
  -25.2752   -9.5689   22.4683 H   0  0  0  0  0  0
  -23.9994   -7.4641   22.7468 H   0  0  0  0  0  0
  -21.0765   -8.8699   19.8975 H   0  0  0  0  0  0
  -22.3636  -10.9584   19.6117 H   0  0  0  0  0  0
  -21.1993   -7.6115   23.9671 H   0  0  0  0  0  0
  -21.1517   -6.0518   25.9070 H   0  0  0  0  0  0
  -22.0599   -2.7582   23.2840 H   0  0  0  0  0  0
  -22.4160  -11.9998   22.4792 H   0  0  0  0  0  0
  -21.1059  -13.1243   22.2602 H   0  0  0  0  0  0
  -24.6593  -15.8285   20.5037 H   0  0  0  0  0  0
  -26.2833  -15.6089   20.0731 H   0  0  0  0  0  0
  -26.7160  -32.5417   23.1100 H   0  0  0  0  0  0
  -25.0095  -33.9741   25.0412 H   0  0  0  0  0  0
  -22.6963  -31.3091   21.4119 H   0  0  0  0  0  0
  -23.3743  -35.9607   23.3284 H   0  0  0  0  0  0
  -24.3571  -36.8922   22.2053 H   0  0  0  0  0  0
  -23.7242  -37.6469   23.6685 H   0  0  0  0  0  0
  -26.1086  -31.5709   20.6198 H   0  0  0  0  0  0
  -26.8158  -30.8216   22.0236 H   0  0  0  0  0  0
  -28.1070  -29.0581   21.1326 H   0  0  0  0  0  0
  -25.9731  -25.9358   19.0313 H   0  0  0  0  0  0
  -23.9396  -27.2716   19.0916 H   0  0  0  0  0  0
  -23.7484  -30.6070   19.4160 H   0  0  0  0  0  0
  -22.7345  -29.2667   19.8536 H   0  0  0  0  0  0
  -25.1279  -36.1870   25.0800 H   0  0  0  0  0  0
  -20.9979  -28.3293   24.1410 H   0  0  0  0  0  0
  -20.5697  -26.2294   23.3609 H   0  0  0  0  0  0
  -21.6645  -26.7473   22.1198 H   0  0  0  0  0  0
  -19.6920  -25.6316   21.1219 H   0  0  0  0  0  0
  -19.6691  -27.3218   20.6742 H   0  0  0  0  0  0
  -17.4202  -26.6687   21.4009 H   0  0  0  0  0  0
  -18.0319  -26.0101   22.9019 H   0  0  0  0  0  0
  -19.7955  -30.7284   24.2221 H   0  0  0  0  0  0
  -17.5045  -31.6269   24.5195 H   0  0  0  0  0  0
  -15.5360  -30.2995   23.7705 H   0  0  0  0  0  0
  -15.8667  -28.0862   22.7025 H   0  0  0  0  0  0
  -24.5903  -30.7160   25.7901 H   0  0  0  0  0  0
  -24.9090  -32.2949   26.5015 H   0  0  0  0  0  0
  -25.8163  -30.8902   27.0256 H   0  0  0  0  0  0
  -26.2956  -29.6712   24.1294 H   0  0  0  0  0  0
  -27.4033  -29.7266   25.4804 H   0  0  0  0  0  0
  -27.8857  -30.4212   23.9518 H   0  0  0  0  0  0
  -27.2596  -33.3621   26.2147 H   0  0  0  0  0  0
  -28.3854  -32.7017   25.0375 H   0  0  0  0  0  0
  -28.0773  -31.8514   26.5439 H   0  0  0  0  0  0
  -28.2562  -38.0103   24.7531 H   0  0  0  0  0  0
  -28.1076  -36.2634   24.6217 H   0  0  0  0  0  0
  -27.2315  -37.1367   25.8871 H   0  0  0  0  0  0
  -20.9292  -29.8727   21.6877 H   0  0  0  0  0  0
  -26.0115  -38.2825   24.1474 H   0  0  0  0  0  0
  -28.2286  -22.9502   17.5922 H   0  0  0  0  0  0
  -32.5029  -18.2274   21.0189 H   0  0  0  0  0  0
  -31.8993  -19.0181   19.5674 H   0  0  0  0  0  0
  -32.1311  -17.2717   19.5951 H   0  0  0  0  0  0
  -27.6451  -22.9649   15.4862 H   0  0  0  0  0  0
  -27.6054  -22.0397   14.0085 H   0  0  0  0  0  0
  -29.1270  -22.2463   14.8552 H   0  0  0  0  0  0
  -25.8505  -21.3724   16.6062 H   0  0  0  0  0  0
  -26.0447  -19.6330   16.4413 H   0  0  0  0  0  0
  -25.7313  -20.6259   15.0194 H   0  0  0  0  0  0
  -29.4371  -19.7203   14.7643 H   0  0  0  0  0  0
  -27.9084  -19.6356   13.9129 H   0  0  0  0  0  0
  -28.1609  -18.6467   15.3240 H   0  0  0  0  0  0
  -27.0828  -17.9096   19.4226 H   0  0  0  0  0  0
  -27.6257  -18.5216   20.9816 H   0  0  0  0  0  0
  -27.7795  -16.8135   20.5989 H   0  0  0  0  0  0
  -28.7474  -17.0731   17.6847 H   0  0  0  0  0  0
  -29.6418  -16.0708   18.7694 H   0  0  0  0  0  0
  -30.4546  -17.3601   17.9057 H   0  0  0  0  0  0
  -29.9118  -23.3149   20.4868 H   0  0  0  0  0  0
  -28.5864  -22.5260   21.2779 H   0  0  0  0  0  0
  -27.6132  -24.5555   21.0646 H   0  0  0  0  0  0
  -26.9962  -23.8353   19.6204 H   0  0  0  0  0  0
  -29.5108  -17.0187   22.4406 H   0  0  0  0  0  0
  -31.1986  -16.7087   22.3162 H   0  0  0  0  0  0
  -28.0530  -25.4977   18.3346 H   0  0  0  0  0  0
  -29.5567  -25.2393   19.1333 H   0  0  0  0  0  0
  -30.2236  -18.8108   21.3551 H   0  0  0  0  0  0
  -29.0386  -15.0791   21.5413 H   0  0  0  0  0  0
  1 25  1  0  0  0
  1 30  2  0  0  0
  1 90  1  0  0  0
  2  3  1  0  0  0
  2 25  1  0  0  0
  2 91  1  0  0  0
  2 92  1  0  0  0
  3  4  1  0  0  0
  3 93  1  0  0  0
  3 94  1  0  0  0
  4  5  1  0  0  0
  4 95  1  0  0  0
  4 96  1  0  0  0
  5  6  1  0  0  0
  5 26  1  0  0  0
  5 97  1  0  0  0
  6 25  1  0  0  0
  6 98  1  0  0  0
  6 99  1  0  0  0
  7  8  2  0  0  0
  7 26  1  0  0  0
  7 29  1  0  0  0
  8  9  1  0  0  0
  8 22  1  0  0  0
  9 10  1  0  0  0
  9 27  2  0  0  0
 10 11  2  0  0  0
 10 15  1  0  0  0
 11 12  1  0  0  0
 11100  1  0  0  0
 12 13  2  0  0  0
 12101  1  0  0  0
 13 14  1  0  0  0
 13 31  1  0  0  0
 14 15  2  0  0  0
 14102  1  0  0  0
 15103  1  0  0  0
 16 17  2  0  0  0
 16 21  1  0  0  0
 16 31  1  0  0  0
 17 18  1  0  0  0
 17104  1  0  0  0
 18 19  2  0  0  0
 18105  1  0  0  0
 19 20  1  0  0  0
 19 24  1  0  0  0
 20 21  2  0  0  0
 20106  1  0  0  0
 21 23  1  0  0  0
 22 28  1  0  0  0
 22 32  2  0  0  0
 26 27  1  0  0  0
 28107  1  0  0  0
 28108  1  0  0  0
 29109  1  0  0  0
 29110  1  0  0  0
 33 34  1  0  0  0
 33 66  1  0  0  0
 33 70  2  0  0  0
 34 36  1  0  0  0
 34 59  1  0  0  0
 34111  1  0  0  0
 35 44  2  0  0  0
 35 45  1  0  0  0
 35 68  1  0  0  0
 36 56  1  0  0  0
 36112  1  0  0  0
 37 39  1  0  0  0
 37 47  1  0  0  0
 37 66  1  0  0  0
 37113  1  0  0  0
 38 43  2  0  0  0
 38 46  1  0  0  0
 38 47  1  0  0  0
 39 64  1  0  0  0
 39 67  2  0  0  0
 40 52  1  0  0  0
 40 53  2  0  0  0
 40 58  1  0  0  0
 41114  1  0  0  0
 41115  1  0  0  0
 41116  1  0  0  0
 41 48  1  0  0  0
 42 43  1  0  0  0
 42 66  1  0  0  0
 42117  1  0  0  0
 42118  1  0  0  0
 43 44  1  0  0  0
 44119  1  0  0  0
 45 46  2  0  0  0
 45120  1  0  0  0
 46121  1  0  0  0
 47122  1  0  0  0
 47123  1  0  0  0
 48 56  1  0  0  0
 48 65  1  0  0  0
 48124  1  0  0  0
 49 50  1  0  0  0
 49 53  1  0  0  0
 49 64  1  0  0  0
 49125  1  0  0  0
 50 51  1  0  0  0
 50126  1  0  0  0
 50127  1  0  0  0
 51 52  1  0  0  0
 51128  1  0  0  0
 51129  1  0  0  0
 52130  1  0  0  0
 52131  1  0  0  0
 53 54  1  0  0  0
 54 55  2  0  0  0
 54132  1  0  0  0
 55 57  1  0  0  0
 55133  1  0  0  0
 56 69  2  0  0  0
 57 58  2  0  0  0
 57134  1  0  0  0
 58135  1  0  0  0
 59 60  1  0  0  0
 59 61  1  0  0  0
 59 62  1  0  0  0
 60136  1  0  0  0
 60137  1  0  0  0
 60138  1  0  0  0
 61139  1  0  0  0
 61140  1  0  0  0
 61141  1  0  0  0
 62142  1  0  0  0
 62143  1  0  0  0
 62144  1  0  0  0
 63 65  1  0  0  0
 63145  1  0  0  0
 63146  1  0  0  0
 63147  1  0  0  0
 64148  1  0  0  0
 65149  1  0  0  0
 68 84  1  0  0  0
 71 72  2  0  0  0
 71 73  1  0  0  0
 71150  1  0  0  0
 72 81  1  0  0  0
 72 88  1  0  0  0
 73 86  1  0  0  0
 73 89  2  0  0  0
 74 87  1  0  0  0
 74 88  2  0  0  0
 74 89  1  0  0  0
 75151  1  0  0  0
 75152  1  0  0  0
 75153  1  0  0  0
 75 85  1  0  0  0
 76154  1  0  0  0
 76155  1  0  0  0
 76156  1  0  0  0
 76 86  1  0  0  0
 77 86  1  0  0  0
 77157  1  0  0  0
 77158  1  0  0  0
 77159  1  0  0  0
 78 86  1  0  0  0
 78160  1  0  0  0
 78161  1  0  0  0
 78162  1  0  0  0
 79163  1  0  0  0
 79164  1  0  0  0
 79165  1  0  0  0
 79 87  1  0  0  0
 80 87  1  0  0  0
 80166  1  0  0  0
 80167  1  0  0  0
 80168  1  0  0  0
 81 82  1  0  0  0
 81169  1  0  0  0
 81170  1  0  0  0
 82 84  1  0  0  0
 82171  1  0  0  0
 82172  1  0  0  0
 83 85  1  0  0  0
 83 90  1  0  0  0
 83173  1  0  0  0
 83174  1  0  0  0
 84175  1  0  0  0
 84176  1  0  0  0
 85 87  1  0  0  0
 85177  1  0  0  0
 90178  1  0  0  0
M  ISO  4   1 100  68 101  84 101  90 100
M  END
> <chiral flag>
0

> <version>
0

> <s_m_source_file>
/data/baiqing/PycharmProjects/Reinvent-master-3.2/result/LINK_invent/BTK/process_docking_weight1_custom_sum_contain_oxygen_bond_distance_aromatic_linkinvent_7_9_3/rearranged_h_0065.sdf

> <i_m_source_file_index>
63

> <r_mmod_Potential_Energy-OPLS-2005>
-509.59521484375

> <r_mmod_Stretch_Energy-OPLS-2005>
52.1768608093262

> <r_mmod_Bend_Energy-OPLS-2005>
155.128143310547

> <r_mmod_Torsional_Energy-OPLS-2005>
214.312057495117

> <r_mmod_Improper_Torsional_Energy-OPLS-2005>
6.88346099853516

> <r_mmod_Van_der_Waal_Energy-OPLS-2005>
164.511871337891

> <r_mmod_Electrostatic_Energy-OPLS-2005>
-909.540466308594

> <r_mmod_Solvation_Energy-OPLS-2005>
-209.769927978516

> <b_mmod_Minimization_Converged-OPLS-2005>
0

> <r_mmod_RMS_Derivative-OPLS-2005>
6.39595603942871

$$$$
68
                    3D
 Structure written by MMmdl.
168176  0  0  1  0            999 V2000
  -30.6893  -14.5869   20.6548 C   0  0  0  0  0  0
  -30.4232  -12.3967   19.4764 C   0  0  0  0  0  0
  -29.5013  -12.5475   18.2492 C   0  0  0  0  0  0
  -28.0194  -12.3892   18.6398 C   0  0  0  0  0  0
  -27.6507  -13.2180   19.8950 C   0  0  2  0  0  0
  -28.6914  -13.0213   21.0110 C   0  0  0  0  0  0
  -25.2361  -13.8088   20.5632 C   0  0  0  0  0  0
  -24.1674  -13.0333   20.9181 C   0  0  0  0  0  0
  -24.6321  -11.6846   20.8775 C   0  0  0  0  0  0
  -23.9043  -10.4224   21.0451 C   0  0  0  0  0  0
  -24.3615   -9.4106   21.9184 C   0  0  0  0  0  0
  -23.6280   -8.2150   22.0736 C   0  0  0  0  0  0
  -22.4256   -8.0210   21.3548 C   0  0  0  0  0  0
  -21.9915   -9.0185   20.4661 C   0  0  0  0  0  0
  -22.7230  -10.2066   20.3085 C   0  0  0  0  0  0
  -21.6803   -6.0700   22.5263 C   0  0  0  0  0  0
  -21.3968   -6.5617   23.8201 C   0  0  0  0  0  0
  -21.3664   -5.6770   24.9163 C   0  0  0  0  0  0
  -21.6097   -4.3044   24.7220 C   0  0  0  0  0  0
  -21.8789   -3.8128   23.4322 C   0  0  0  0  0  0
  -21.9151   -4.6935   22.3372 C   0  0  0  0  0  0
  -22.7695  -13.5074   21.1886 C   0  0  0  0  0  0
  -22.1597   -4.2117   21.0959 F   0  0  0  0  0  0
  -21.5706   -3.4538   25.7739 F   0  0  0  0  0  0
  -30.0135  -13.3934   20.4880 N   0  0  0  0  0  0
  -26.2923  -12.9353   20.3510 N   0  0  0  0  0  0
  -25.9269  -11.6497   20.5887 N   0  0  0  0  0  0
  -22.0463  -12.8057   22.0537 N   0  0  0  0  0  0
  -25.3792  -15.1766   20.3674 N   0  0  0  0  0  0
  -31.7373  -14.7869   20.0314 O   0  0  0  0  0  0
  -21.6605   -6.8825   21.4216 O   0  0  0  0  0  0
  -22.3301  -14.5343   20.6727 O   0  0  0  0  0  0
  -24.6163  -31.8691   23.1988 C   0  0  0  0  0  0
  -25.9035  -32.4859   23.8307 C   0  0  1  0  0  0
  -27.2062  -27.3955   20.0451 C   0  0  0  0  0  0
  -25.5918  -33.8667   24.2266 N   0  0  0  0  0  0
  -23.4025  -30.4953   21.5492 C   0  0  2  0  0  0
  -24.8316  -28.9595   20.1083 C   0  0  0  0  0  0
  -22.7404  -29.4686   22.4971 C   0  0  0  0  0  0
  -18.0299  -28.1386   22.8485 C   0  0  0  0  0  0
  -24.1526  -36.7292   23.2625 C   0  0  0  0  0  0
  -25.9374  -30.8246   21.3502 C   0  0  0  0  0  0
  -26.0059  -29.4591   20.6860 C   0  0  0  0  0  0
  -27.1947  -28.6852   20.6435 C   0  0  0  0  0  0
  -25.9963  -26.9210   19.4851 C   0  0  0  0  0  0
  -24.8215  -27.6916   19.5134 C   0  0  0  0  0  0
  -23.5999  -29.8322   20.1641 C   0  0  0  0  0  0
  -25.4164  -36.3136   24.0310 C   0  0  1  0  0  0
  -20.5889  -28.3681   23.1282 C   0  0  2  0  0  0
  -20.6816  -26.9424   22.5386 C   0  0  0  0  0  0
  -19.5777  -26.6410   21.5192 C   0  0  0  0  0  0
  -18.1949  -26.7940   22.1624 C   0  0  0  0  0  0
  -19.1539  -28.8847   23.2893 C   0  0  0  0  0  0
  -18.9483  -30.1458   23.8889 C   0  0  0  0  0  0
  -17.6485  -30.6590   24.0570 C   0  0  0  0  0  0
  -25.9068  -34.9516   23.5067 C   0  0  0  0  0  0
  -16.5378  -29.9094   23.6333 C   0  0  0  0  0  0
  -16.7285  -28.6521   23.0332 C   0  0  0  0  0  0
  -26.4434  -31.6669   25.0653 C   0  0  0  0  0  0
  -25.3715  -31.3772   26.1396 C   0  0  0  0  0  0
  -27.0161  -30.3104   24.5973 C   0  0  0  0  0  0
  -27.5992  -32.4399   25.7418 C   0  0  0  0  0  0
  -27.5610  -37.1798   24.8446 C   0  0  0  0  0  0
  -21.4125  -29.3073   22.3699 N   0  0  0  0  0  0
  -26.4335  -37.3838   23.9389 N   0  0  0  0  0  0
  -24.6726  -31.0758   22.0927 N   0  0  0  0  0  0
  -23.4165  -28.8202   23.2998 O   0  0  0  0  0  0
  -28.3752  -26.6436   20.0196 O   0  0  0  0  0  0
  -26.5603  -34.8941   22.4629 O   0  0  0  0  0  0
  -23.5333  -32.1470   23.7375 O   0  0  0  0  0  0
  -28.8766  -20.2544   19.3193 C   0  0  0  0  0  0
  -29.7161  -21.3486   20.9815 C   0  0  0  0  0  0
  -29.3172  -19.3371   20.2543 C   0  0  0  0  0  0
  -30.9536  -16.2287   23.7767 C   0  0  0  0  0  0
  -28.5516  -15.4505   23.4608 C   0  0  0  0  0  0
  -28.9912  -17.3059   18.8143 C   0  0  0  0  0  0
  -27.8015  -17.5299   20.9910 C   0  0  0  0  0  0
  -28.5662  -24.0871   20.0055 C   0  0  0  0  0  0
  -28.7314  -22.8042   19.1178 C   0  0  0  0  0  0
  -30.3012  -17.0497   20.9986 C   0  0  0  0  0  0
  -28.4861  -25.4342   19.2139 C   0  0  0  0  0  0
  -29.9950  -15.3821   22.8947 C   0  0  0  0  0  0
  -29.1217  -17.8040   20.2718 C   0  0  0  0  0  0
  -29.8459  -20.0654   21.3291 N   0  0  0  0  0  0
  -29.0864  -21.5456   19.8107 N   0  0  0  0  0  0
  -30.1120  -15.5975   21.4077 N   0  0  0  0  0  0
  -31.4670  -12.5126   19.1726 H   0  0  0  0  0  0
  -30.3353  -11.3943   19.9007 H   0  0  0  0  0  0
  -29.7704  -11.8255   17.4760 H   0  0  0  0  0  0
  -29.6483  -13.5390   17.8190 H   0  0  0  0  0  0
  -27.8251  -11.3293   18.8192 H   0  0  0  0  0  0
  -27.3770  -12.6891   17.8105 H   0  0  0  0  0  0
  -27.6904  -14.2686   19.6118 H   0  0  0  0  0  0
  -28.7038  -11.9923   21.3760 H   0  0  0  0  0  0
  -28.3963  -13.5948   21.8666 H   0  0  0  0  0  0
  -25.2765   -9.5562   22.4730 H   0  0  0  0  0  0
  -24.0028   -7.4493   22.7356 H   0  0  0  0  0  0
  -21.0918   -8.8657   19.8892 H   0  0  0  0  0  0
  -22.3691  -10.9600   19.6208 H   0  0  0  0  0  0
  -21.1915   -7.6114   23.9661 H   0  0  0  0  0  0
  -21.1571   -6.0546   25.9078 H   0  0  0  0  0  0
  -22.0592   -2.7586   23.2821 H   0  0  0  0  0  0
  -22.4250  -11.9821   22.4976 H   0  0  0  0  0  0
  -21.1035  -13.0922   22.2781 H   0  0  0  0  0  0
  -24.5976  -15.8206   20.4345 H   0  0  0  0  0  0
  -26.2115  -15.6001   19.9853 H   0  0  0  0  0  0
  -26.7110  -32.5538   23.1062 H   0  0  0  0  0  0
  -25.0219  -33.9876   25.0487 H   0  0  0  0  0  0
  -22.6979  -31.3191   21.4159 H   0  0  0  0  0  0
  -23.3829  -35.9576   23.3289 H   0  0  0  0  0  0
  -24.3590  -36.8926   22.2035 H   0  0  0  0  0  0
  -23.7240  -37.6482   23.6628 H   0  0  0  0  0  0
  -26.0553  -31.6046   20.5928 H   0  0  0  0  0  0
  -26.8235  -30.8667   21.9742 H   0  0  0  0  0  0
  -28.1032  -29.0938   21.0661 H   0  0  0  0  0  0
  -25.9113  -25.9497   19.0298 H   0  0  0  0  0  0
  -23.9137  -27.2942   19.0815 H   0  0  0  0  0  0
  -23.7081  -30.6106   19.4101 H   0  0  0  0  0  0
  -22.7218  -29.2560   19.8653 H   0  0  0  0  0  0
  -25.1374  -36.1978   25.0811 H   0  0  0  0  0  0
  -21.0001  -28.3254   24.1389 H   0  0  0  0  0  0
  -20.5717  -26.2294   23.3582 H   0  0  0  0  0  0
  -21.6698  -26.7470   22.1187 H   0  0  0  0  0  0
  -19.6918  -25.6303   21.1239 H   0  0  0  0  0  0
  -19.6712  -27.3225   20.6715 H   0  0  0  0  0  0
  -17.4238  -26.6693   21.4016 H   0  0  0  0  0  0
  -18.0341  -26.0059   22.8998 H   0  0  0  0  0  0
  -19.7948  -30.7285   24.2229 H   0  0  0  0  0  0
  -17.5030  -31.6224   24.5237 H   0  0  0  0  0  0
  -15.5370  -30.2996   23.7605 H   0  0  0  0  0  0
  -15.8709  -28.0822   22.7016 H   0  0  0  0  0  0
  -24.5844  -30.7173   25.7723 H   0  0  0  0  0  0
  -24.8928  -32.2937   26.4852 H   0  0  0  0  0  0
  -25.8077  -30.8916   27.0139 H   0  0  0  0  0  0
  -26.2608  -29.6987   24.1020 H   0  0  0  0  0  0
  -27.3926  -29.7214   25.4343 H   0  0  0  0  0  0
  -27.8472  -30.4408   23.9046 H   0  0  0  0  0  0
  -27.2577  -33.3699   26.1965 H   0  0  0  0  0  0
  -28.3798  -32.7007   25.0268 H   0  0  0  0  0  0
  -28.0652  -31.8576   26.5374 H   0  0  0  0  0  0
  -28.2632  -38.0092   24.7576 H   0  0  0  0  0  0
  -28.1140  -36.2643   24.6259 H   0  0  0  0  0  0
  -27.2279  -37.1418   25.8828 H   0  0  0  0  0  0
  -20.9215  -29.8851   21.7008 H   0  0  0  0  0  0
  -26.0220  -38.2914   24.1421 H   0  0  0  0  0  0
  -28.3852  -20.0956   18.3666 H   0  0  0  0  0  0
  -30.0627  -22.1637   21.6002 H   0  0  0  0  0  0
  -31.0130  -15.8032   24.7779 H   0  0  0  0  0  0
  -30.6041  -17.2497   23.9277 H   0  0  0  0  0  0
  -31.9690  -16.2949   23.3738 H   0  0  0  0  0  0
  -28.3576  -16.3775   24.0080 H   0  0  0  0  0  0
  -28.3915  -14.6201   24.1564 H   0  0  0  0  0  0
  -27.7829  -15.3533   22.6948 H   0  0  0  0  0  0
  -28.1532  -17.7784   18.2949 H   0  0  0  0  0  0
  -28.8333  -16.2288   18.7450 H   0  0  0  0  0  0
  -29.8880  -17.5478   18.2461 H   0  0  0  0  0  0
  -27.8764  -17.7421   22.0577 H   0  0  0  0  0  0
  -27.0063  -18.1465   20.5756 H   0  0  0  0  0  0
  -27.5071  -16.4937   20.8591 H   0  0  0  0  0  0
  -29.4078  -24.1801   20.6873 H   0  0  0  0  0  0
  -27.6739  -23.9678   20.6277 H   0  0  0  0  0  0
  -29.4686  -22.9656   18.3278 H   0  0  0  0  0  0
  -27.7853  -22.6244   18.6013 H   0  0  0  0  0  0
  -30.5063  -17.6576   21.8735 H   0  0  0  0  0  0
  -31.2114  -17.1727   20.4121 H   0  0  0  0  0  0
  -27.7647  -25.3649   18.3978 H   0  0  0  0  0  0
  -29.4277  -25.5459   18.6802 H   0  0  0  0  0  0
  -30.3210  -14.3535   23.0736 H   0  0  0  0  0  0
  1 25  1  0  0  0
  1 30  2  0  0  0
  1 86  1  0  0  0
  2  3  1  0  0  0
  2 25  1  0  0  0
  2 87  1  0  0  0
  2 88  1  0  0  0
  3  4  1  0  0  0
  3 89  1  0  0  0
  3 90  1  0  0  0
  4  5  1  0  0  0
  4 91  1  0  0  0
  4 92  1  0  0  0
  5  6  1  0  0  0
  5 26  1  0  0  0
  5 93  1  0  0  0
  6 25  1  0  0  0
  6 94  1  0  0  0
  6 95  1  0  0  0
  7  8  2  0  0  0
  7 26  1  0  0  0
  7 29  1  0  0  0
  8  9  1  0  0  0
  8 22  1  0  0  0
  9 10  1  0  0  0
  9 27  2  0  0  0
 10 11  2  0  0  0
 10 15  1  0  0  0
 11 12  1  0  0  0
 11 96  1  0  0  0
 12 13  2  0  0  0
 12 97  1  0  0  0
 13 14  1  0  0  0
 13 31  1  0  0  0
 14 15  2  0  0  0
 14 98  1  0  0  0
 15 99  1  0  0  0
 16 17  2  0  0  0
 16 21  1  0  0  0
 16 31  1  0  0  0
 17 18  1  0  0  0
 17100  1  0  0  0
 18 19  2  0  0  0
 18101  1  0  0  0
 19 20  1  0  0  0
 19 24  1  0  0  0
 20 21  2  0  0  0
 20102  1  0  0  0
 21 23  1  0  0  0
 22 28  1  0  0  0
 22 32  2  0  0  0
 26 27  1  0  0  0
 28103  1  0  0  0
 28104  1  0  0  0
 29105  1  0  0  0
 29106  1  0  0  0
 33 34  1  0  0  0
 33 66  1  0  0  0
 33 70  2  0  0  0
 34 36  1  0  0  0
 34 59  1  0  0  0
 34107  1  0  0  0
 35 44  2  0  0  0
 35 45  1  0  0  0
 35 68  1  0  0  0
 36 56  1  0  0  0
 36108  1  0  0  0
 37 39  1  0  0  0
 37 47  1  0  0  0
 37 66  1  0  0  0
 37109  1  0  0  0
 38 43  2  0  0  0
 38 46  1  0  0  0
 38 47  1  0  0  0
 39 64  1  0  0  0
 39 67  2  0  0  0
 40 52  1  0  0  0
 40 53  2  0  0  0
 40 58  1  0  0  0
 41110  1  0  0  0
 41111  1  0  0  0
 41112  1  0  0  0
 41 48  1  0  0  0
 42 43  1  0  0  0
 42 66  1  0  0  0
 42113  1  0  0  0
 42114  1  0  0  0
 43 44  1  0  0  0
 44115  1  0  0  0
 45 46  2  0  0  0
 45116  1  0  0  0
 46117  1  0  0  0
 47118  1  0  0  0
 47119  1  0  0  0
 48 56  1  0  0  0
 48 65  1  0  0  0
 48120  1  0  0  0
 49 50  1  0  0  0
 49 53  1  0  0  0
 49 64  1  0  0  0
 49121  1  0  0  0
 50 51  1  0  0  0
 50122  1  0  0  0
 50123  1  0  0  0
 51 52  1  0  0  0
 51124  1  0  0  0
 51125  1  0  0  0
 52126  1  0  0  0
 52127  1  0  0  0
 53 54  1  0  0  0
 54 55  2  0  0  0
 54128  1  0  0  0
 55 57  1  0  0  0
 55129  1  0  0  0
 56 69  2  0  0  0
 57 58  2  0  0  0
 57130  1  0  0  0
 58131  1  0  0  0
 59 60  1  0  0  0
 59 61  1  0  0  0
 59 62  1  0  0  0
 60132  1  0  0  0
 60133  1  0  0  0
 60134  1  0  0  0
 61135  1  0  0  0
 61136  1  0  0  0
 61137  1  0  0  0
 62138  1  0  0  0
 62139  1  0  0  0
 62140  1  0  0  0
 63 65  1  0  0  0
 63141  1  0  0  0
 63142  1  0  0  0
 63143  1  0  0  0
 64144  1  0  0  0
 65145  1  0  0  0
 68 81  1  0  0  0
 71 73  2  0  0  0
 71 85  1  0  0  0
 71146  1  0  0  0
 72 84  2  0  0  0
 72 85  1  0  0  0
 72147  1  0  0  0
 73 83  1  0  0  0
 73 84  1  0  0  0
 74148  1  0  0  0
 74149  1  0  0  0
 74150  1  0  0  0
 74 82  1  0  0  0
 75 82  1  0  0  0
 75151  1  0  0  0
 75152  1  0  0  0
 75153  1  0  0  0
 76154  1  0  0  0
 76155  1  0  0  0
 76156  1  0  0  0
 76 83  1  0  0  0
 77 83  1  0  0  0
 77157  1  0  0  0
 77158  1  0  0  0
 77159  1  0  0  0
 78 79  1  0  0  0
 78 81  1  0  0  0
 78160  1  0  0  0
 78161  1  0  0  0
 79 85  1  0  0  0
 79162  1  0  0  0
 79163  1  0  0  0
 80 83  1  0  0  0
 80 86  1  0  0  0
 80164  1  0  0  0
 80165  1  0  0  0
 81166  1  0  0  0
 81167  1  0  0  0
 82 86  1  0  0  0
 82168  1  0  0  0
M  ISO  4   1 100  68 101  81 101  86 100
M  END
> <chiral flag>
0

> <version>
0

> <s_m_source_file>
/data/baiqing/PycharmProjects/Reinvent-master-3.2/result/LINK_invent/BTK/process_docking_weight1_custom_sum_contain_oxygen_bond_distance_aromatic_linkinvent_7_9_3/rearranged_h_0065.sdf

> <i_m_source_file_index>
64

> <r_mmod_Potential_Energy-OPLS-2005>
176.656509399414

> <r_mmod_Stretch_Energy-OPLS-2005>
68.6770935058594

> <r_mmod_Bend_Energy-OPLS-2005>
153.200653076172

> <r_mmod_Torsional_Energy-OPLS-2005>
307.053039550781

> <r_mmod_Improper_Torsional_Energy-OPLS-2005>
6.45480918884277

> <r_mmod_Van_der_Waal_Energy-OPLS-2005>
146.624206542969

> <r_mmod_Electrostatic_Energy-OPLS-2005>
-336.230865478516

> <r_mmod_Solvation_Energy-OPLS-2005>
-197.753890991211

> <b_mmod_Minimization_Converged-OPLS-2005>
0

> <r_mmod_RMS_Derivative-OPLS-2005>
9.4193058013916

$$$$
69
                    3D
 Structure written by MMmdl.
169177  0  0  1  0            999 V2000
  -30.6473  -14.6044   20.4509 C   0  0  0  0  0  0
  -30.4476  -12.3386   19.4631 C   0  0  0  0  0  0
  -29.5197  -12.4320   18.2276 C   0  0  0  0  0  0
  -28.0260  -12.3257   18.6212 C   0  0  0  0  0  0
  -27.6487  -13.1706   19.8690 C   0  0  2  0  0  0
  -28.7088  -12.9973   20.9801 C   0  0  0  0  0  0
  -25.2553  -13.8021   20.5643 C   0  0  0  0  0  0
  -24.1796  -13.0349   20.9196 C   0  0  0  0  0  0
  -24.6323  -11.6811   20.8761 C   0  0  0  0  0  0
  -23.8990  -10.4239   21.0433 C   0  0  0  0  0  0
  -24.3569   -9.4174   21.9212 C   0  0  0  0  0  0
  -23.6272   -8.2211   22.0782 C   0  0  0  0  0  0
  -22.4257   -8.0260   21.3560 C   0  0  0  0  0  0
  -21.9869   -9.0223   20.4669 C   0  0  0  0  0  0
  -22.7177  -10.2100   20.3084 C   0  0  0  0  0  0
  -21.6863   -6.0737   22.5289 C   0  0  0  0  0  0
  -21.4047   -6.5645   23.8219 C   0  0  0  0  0  0
  -21.3639   -5.6791   24.9169 C   0  0  0  0  0  0
  -21.6023   -4.3056   24.7214 C   0  0  0  0  0  0
  -21.8826   -3.8154   23.4345 C   0  0  0  0  0  0
  -21.9220   -4.6977   22.3405 C   0  0  0  0  0  0
  -22.7855  -13.5224   21.1843 C   0  0  0  0  0  0
  -22.1675   -4.2153   21.0983 F   0  0  0  0  0  0
  -21.5612   -3.4543   25.7732 F   0  0  0  0  0  0
  -30.0227  -13.3759   20.4253 N   0  0  0  0  0  0
  -26.2947  -12.9095   20.3370 N   0  0  0  0  0  0
  -25.9236  -11.6304   20.5816 N   0  0  0  0  0  0
  -22.0470  -12.8266   22.0420 N   0  0  0  0  0  0
  -25.4222  -15.1730   20.3959 N   0  0  0  0  0  0
  -31.8450  -14.6833   20.1606 O   0  0  0  0  0  0
  -21.6629   -6.8872   21.4249 O   0  0  0  0  0  0
  -22.3576  -14.5542   20.6695 O   0  0  0  0  0  0
  -24.6179  -31.8674   23.2121 C   0  0  0  0  0  0
  -25.9078  -32.4806   23.8398 C   0  0  1  0  0  0
  -27.2118  -27.3996   20.0863 C   0  0  0  0  0  0
  -25.5924  -33.8601   24.2311 N   0  0  0  0  0  0
  -23.4040  -30.4980   21.5546 C   0  0  2  0  0  0
  -24.8439  -28.9708   20.1105 C   0  0  0  0  0  0
  -22.7419  -29.4664   22.4984 C   0  0  0  0  0  0
  -18.0277  -28.1380   22.8480 C   0  0  0  0  0  0
  -24.1490  -36.7301   23.2636 C   0  0  0  0  0  0
  -25.9398  -30.8237   21.3712 C   0  0  0  0  0  0
  -26.0123  -29.4601   20.7078 C   0  0  0  0  0  0
  -27.2004  -28.6830   20.6924 C   0  0  0  0  0  0
  -26.0189  -26.9517   19.4673 C   0  0  0  0  0  0
  -24.8437  -27.7163   19.4878 C   0  0  0  0  0  0
  -23.6109  -29.8423   20.1659 C   0  0  0  0  0  0
  -25.4114  -36.3098   24.0332 C   0  0  1  0  0  0
  -20.5868  -28.3670   23.1310 C   0  0  2  0  0  0
  -20.6772  -26.9408   22.5413 C   0  0  0  0  0  0
  -19.5749  -26.6383   21.5205 C   0  0  0  0  0  0
  -18.1926  -26.7925   22.1616 C   0  0  0  0  0  0
  -19.1526  -28.8844   23.2889 C   0  0  0  0  0  0
  -18.9457  -30.1448   23.8899 C   0  0  0  0  0  0
  -17.6462  -30.6591   24.0565 C   0  0  0  0  0  0
  -25.9047  -34.9465   23.5111 C   0  0  0  0  0  0
  -16.5351  -29.9092   23.6333 C   0  0  0  0  0  0
  -16.7266  -28.6514   23.0341 C   0  0  0  0  0  0
  -26.4502  -31.6588   25.0730 C   0  0  0  0  0  0
  -25.3765  -31.3680   26.1477 C   0  0  0  0  0  0
  -27.0340  -30.3030   24.6119 C   0  0  0  0  0  0
  -27.6084  -32.4302   25.7489 C   0  0  0  0  0  0
  -27.5574  -37.1805   24.8464 C   0  0  0  0  0  0
  -21.4147  -29.3035   22.3715 N   0  0  0  0  0  0
  -26.4289  -37.3793   23.9408 N   0  0  0  0  0  0
  -24.6729  -31.0769   22.1023 N   0  0  0  0  0  0
  -23.4192  -28.8192   23.3017 O   0  0  0  0  0  0
  -28.3440  -26.5924   20.1196 O   0  0  0  0  0  0
  -26.5607  -34.8925   22.4668 O   0  0  0  0  0  0
  -23.5374  -32.1421   23.7520 O   0  0  0  0  0  0
  -32.0036  -18.8595   21.3505 C   0  0  0  0  0  0
  -31.7964  -17.5007   21.3672 C   0  0  0  0  0  0
  -30.8726  -19.4035   20.6769 C   0  0  0  0  0  0
  -27.7605  -22.1913   19.5256 C   0  0  0  0  0  0
  -29.1796  -16.1478   19.0803 C   0  0  0  0  0  0
  -28.7784  -16.0043   21.6321 C   0  0  0  0  0  0
  -29.8757  -24.7028   21.7329 C   0  0  0  0  0  0
  -30.2896  -24.1715   19.3156 C   0  0  0  0  0  0
  -30.5468  -20.8488   20.2888 C   0  0  0  0  0  0
  -29.5569  -21.5793   21.2460 C   0  0  0  0  0  0
  -28.0877  -25.1627   20.0369 C   0  0  0  0  0  0
  -28.6376  -22.7259   20.6810 C   0  0  1  0  0  0
  -29.8286  -15.9764   20.4906 C   0  0  0  0  0  0
  -29.2346  -24.1758   20.4368 C   0  0  0  0  0  0
  -30.0438  -18.4304   20.3318 N   0  0  0  0  0  0
  -30.6140  -17.2362   20.6962 N   0  0  0  0  0  0
  -31.4921  -12.4355   19.1661 H   0  0  0  0  0  0
  -30.3736  -11.3486   19.9192 H   0  0  0  0  0  0
  -29.7691  -11.6346   17.5267 H   0  0  0  0  0  0
  -29.7066  -13.3582   17.6853 H   0  0  0  0  0  0
  -27.8142  -11.2744   18.8191 H   0  0  0  0  0  0
  -27.3981  -12.6031   17.7754 H   0  0  0  0  0  0
  -27.6311  -14.1991   19.5516 H   0  0  0  0  0  0
  -28.7254  -11.9518   21.2911 H   0  0  0  0  0  0
  -28.4616  -13.5173   21.8994 H   0  0  0  0  0  0
  -25.2727   -9.5662   22.4764 H   0  0  0  0  0  0
  -23.9987   -7.4599   22.7499 H   0  0  0  0  0  0
  -21.0812   -8.8742   19.8960 H   0  0  0  0  0  0
  -22.3665  -10.9641   19.6185 H   0  0  0  0  0  0
  -21.2065   -7.6159   23.9734 H   0  0  0  0  0  0
  -21.1439   -6.0515   25.9062 H   0  0  0  0  0  0
  -22.0634   -2.7621   23.2836 H   0  0  0  0  0  0
  -22.4083  -11.9924   22.4800 H   0  0  0  0  0  0
  -21.1114  -13.1365   22.2623 H   0  0  0  0  0  0
  -24.6665  -15.8368   20.5252 H   0  0  0  0  0  0
  -26.2875  -15.6138   20.1138 H   0  0  0  0  0  0
  -26.7138  -32.5528   23.1149 H   0  0  0  0  0  0
  -25.0080  -33.9739   25.0465 H   0  0  0  0  0  0
  -22.6947  -31.3182   21.4225 H   0  0  0  0  0  0
  -23.3744  -35.9639   23.3306 H   0  0  0  0  0  0
  -24.3582  -36.8904   22.2043 H   0  0  0  0  0  0
  -23.7248  -37.6509   23.6653 H   0  0  0  0  0  0
  -26.0633  -31.5966   20.6110 H   0  0  0  0  0  0
  -26.8223  -30.8668   21.9972 H   0  0  0  0  0  0
  -28.0982  -29.0509   21.1679 H   0  0  0  0  0  0
  -25.9572  -26.0016   18.9603 H   0  0  0  0  0  0
  -23.9460  -27.3367   19.0188 H   0  0  0  0  0  0
  -23.7270  -30.6230   19.4137 H   0  0  0  0  0  0
  -22.7312  -29.2717   19.8631 H   0  0  0  0  0  0
  -25.1289  -36.1948   25.0825 H   0  0  0  0  0  0
  -20.9939  -28.3226   24.1434 H   0  0  0  0  0  0
  -20.5675  -26.2266   23.3589 H   0  0  0  0  0  0
  -21.6644  -26.7457   22.1203 H   0  0  0  0  0  0
  -19.6915  -25.6290   21.1229 H   0  0  0  0  0  0
  -19.6694  -27.3196   20.6733 H   0  0  0  0  0  0
  -17.4192  -26.6655   21.4025 H   0  0  0  0  0  0
  -18.0351  -26.0078   22.9024 H   0  0  0  0  0  0
  -19.7936  -30.7261   24.2271 H   0  0  0  0  0  0
  -17.5026  -31.6277   24.5156 H   0  0  0  0  0  0
  -15.5353  -30.2998   23.7675 H   0  0  0  0  0  0
  -15.8657  -28.0847   22.7043 H   0  0  0  0  0  0
  -24.5949  -30.7018   25.7802 H   0  0  0  0  0  0
  -24.8955  -32.2826   26.4953 H   0  0  0  0  0  0
  -25.8132  -30.8826   27.0213 H   0  0  0  0  0  0
  -26.2881  -29.6768   24.1204 H   0  0  0  0  0  0
  -27.4131  -29.7301   25.4590 H   0  0  0  0  0  0
  -27.8717  -30.4338   23.9262 H   0  0  0  0  0  0
  -27.2716  -33.3597   26.2090 H   0  0  0  0  0  0
  -28.3890  -32.6846   25.0305 H   0  0  0  0  0  0
  -28.0758  -31.8401   26.5378 H   0  0  0  0  0  0
  -28.2603  -38.0096   24.7523 H   0  0  0  0  0  0
  -28.1065  -36.2624   24.6290 H   0  0  0  0  0  0
  -27.2292  -37.1452   25.8872 H   0  0  0  0  0  0
  -20.9310  -29.8773   21.6948 H   0  0  0  0  0  0
  -26.0164  -38.2862   24.1443 H   0  0  0  0  0  0
  -32.8524  -19.3888   21.7594 H   0  0  0  0  0  0
  -32.3955  -16.7077   21.7927 H   0  0  0  0  0  0
  -27.3950  -21.1897   19.7545 H   0  0  0  0  0  0
  -28.3013  -22.1297   18.5820 H   0  0  0  0  0  0
  -26.8730  -22.8061   19.3628 H   0  0  0  0  0  0
  -28.2065  -16.6353   19.1329 H   0  0  0  0  0  0
  -29.0654  -15.2261   18.5208 H   0  0  0  0  0  0
  -29.8087  -16.7515   18.4250 H   0  0  0  0  0  0
  -28.4922  -17.0168   21.9180 H   0  0  0  0  0  0
  -29.1599  -15.5339   22.5378 H   0  0  0  0  0  0
  -27.8479  -15.5235   21.3552 H   0  0  0  0  0  0
  -30.2229  -25.7308   21.6113 H   0  0  0  0  0  0
  -30.7404  -24.1093   22.0259 H   0  0  0  0  0  0
  -29.1650  -24.6977   22.5605 H   0  0  0  0  0  0
  -30.6307  -25.1836   19.0998 H   0  0  0  0  0  0
  -29.8947  -23.7631   18.3860 H   0  0  0  0  0  0
  -31.1684  -23.5897   19.5906 H   0  0  0  0  0  0
  -30.1359  -20.8449   19.2777 H   0  0  0  0  0  0
  -31.4710  -21.4215   20.2172 H   0  0  0  0  0  0
  -30.0738  -21.8981   22.1503 H   0  0  0  0  0  0
  -28.8673  -20.8124   21.6017 H   0  0  0  0  0  0
  -27.2276  -24.9332   20.6698 H   0  0  0  0  0  0
  -27.7978  -24.9246   19.0118 H   0  0  0  0  0  0
  -27.9253  -22.8774   21.4936 H   0  0  0  0  0  0
  1 25  1  0  0  0
  1 30  2  0  0  0
  1 83  1  0  0  0
  2  3  1  0  0  0
  2 25  1  0  0  0
  2 87  1  0  0  0
  2 88  1  0  0  0
  3  4  1  0  0  0
  3 89  1  0  0  0
  3 90  1  0  0  0
  4  5  1  0  0  0
  4 91  1  0  0  0
  4 92  1  0  0  0
  5  6  1  0  0  0
  5 26  1  0  0  0
  5 93  1  0  0  0
  6 25  1  0  0  0
  6 94  1  0  0  0
  6 95  1  0  0  0
  7  8  2  0  0  0
  7 26  1  0  0  0
  7 29  1  0  0  0
  8  9  1  0  0  0
  8 22  1  0  0  0
  9 10  1  0  0  0
  9 27  2  0  0  0
 10 11  2  0  0  0
 10 15  1  0  0  0
 11 12  1  0  0  0
 11 96  1  0  0  0
 12 13  2  0  0  0
 12 97  1  0  0  0
 13 14  1  0  0  0
 13 31  1  0  0  0
 14 15  2  0  0  0
 14 98  1  0  0  0
 15 99  1  0  0  0
 16 17  2  0  0  0
 16 21  1  0  0  0
 16 31  1  0  0  0
 17 18  1  0  0  0
 17100  1  0  0  0
 18 19  2  0  0  0
 18101  1  0  0  0
 19 20  1  0  0  0
 19 24  1  0  0  0
 20 21  2  0  0  0
 20102  1  0  0  0
 21 23  1  0  0  0
 22 28  1  0  0  0
 22 32  2  0  0  0
 26 27  1  0  0  0
 28103  1  0  0  0
 28104  1  0  0  0
 29105  1  0  0  0
 29106  1  0  0  0
 33 34  1  0  0  0
 33 66  1  0  0  0
 33 70  2  0  0  0
 34 36  1  0  0  0
 34 59  1  0  0  0
 34107  1  0  0  0
 35 44  2  0  0  0
 35 45  1  0  0  0
 35 68  1  0  0  0
 36 56  1  0  0  0
 36108  1  0  0  0
 37 39  1  0  0  0
 37 47  1  0  0  0
 37 66  1  0  0  0
 37109  1  0  0  0
 38 43  2  0  0  0
 38 46  1  0  0  0
 38 47  1  0  0  0
 39 64  1  0  0  0
 39 67  2  0  0  0
 40 52  1  0  0  0
 40 53  2  0  0  0
 40 58  1  0  0  0
 41110  1  0  0  0
 41111  1  0  0  0
 41112  1  0  0  0
 41 48  1  0  0  0
 42 43  1  0  0  0
 42 66  1  0  0  0
 42113  1  0  0  0
 42114  1  0  0  0
 43 44  1  0  0  0
 44115  1  0  0  0
 45 46  2  0  0  0
 45116  1  0  0  0
 46117  1  0  0  0
 47118  1  0  0  0
 47119  1  0  0  0
 48 56  1  0  0  0
 48 65  1  0  0  0
 48120  1  0  0  0
 49 50  1  0  0  0
 49 53  1  0  0  0
 49 64  1  0  0  0
 49121  1  0  0  0
 50 51  1  0  0  0
 50122  1  0  0  0
 50123  1  0  0  0
 51 52  1  0  0  0
 51124  1  0  0  0
 51125  1  0  0  0
 52126  1  0  0  0
 52127  1  0  0  0
 53 54  1  0  0  0
 54 55  2  0  0  0
 54128  1  0  0  0
 55 57  1  0  0  0
 55129  1  0  0  0
 56 69  2  0  0  0
 57 58  2  0  0  0
 57130  1  0  0  0
 58131  1  0  0  0
 59 60  1  0  0  0
 59 61  1  0  0  0
 59 62  1  0  0  0
 60132  1  0  0  0
 60133  1  0  0  0
 60134  1  0  0  0
 61135  1  0  0  0
 61136  1  0  0  0
 61137  1  0  0  0
 62138  1  0  0  0
 62139  1  0  0  0
 62140  1  0  0  0
 63 65  1  0  0  0
 63141  1  0  0  0
 63142  1  0  0  0
 63143  1  0  0  0
 64144  1  0  0  0
 65145  1  0  0  0
 68 81  1  0  0  0
 71 72  2  0  0  0
 71 73  1  0  0  0
 71146  1  0  0  0
 72 86  1  0  0  0
 72147  1  0  0  0
 73 79  1  0  0  0
 73 85  2  0  0  0
 74148  1  0  0  0
 74149  1  0  0  0
 74150  1  0  0  0
 74 82  1  0  0  0
 75151  1  0  0  0
 75152  1  0  0  0
 75153  1  0  0  0
 75 83  1  0  0  0
 76 83  1  0  0  0
 76154  1  0  0  0
 76155  1  0  0  0
 76156  1  0  0  0
 77157  1  0  0  0
 77158  1  0  0  0
 77159  1  0  0  0
 77 84  1  0  0  0
 78 84  1  0  0  0
 78160  1  0  0  0
 78161  1  0  0  0
 78162  1  0  0  0
 79 80  1  0  0  0
 79163  1  0  0  0
 79164  1  0  0  0
 80 82  1  0  0  0
 80165  1  0  0  0
 80166  1  0  0  0
 81 84  1  0  0  0
 81167  1  0  0  0
 81168  1  0  0  0
 82 84  1  0  0  0
 82169  1  0  0  0
 83 86  1  0  0  0
 85 86  1  0  0  0
M  ISO  4   1 100  68 101  81 101  83 100
M  END
> <chiral flag>
0

> <version>
0

> <s_m_source_file>
/data/baiqing/PycharmProjects/Reinvent-master-3.2/result/LINK_invent/BTK/process_docking_weight1_custom_sum_contain_oxygen_bond_distance_aromatic_linkinvent_7_9_3/rearranged_h_0065.sdf

> <i_m_source_file_index>
65

> <r_mmod_Potential_Energy-OPLS-2005>
164.749038696289

> <r_mmod_Stretch_Energy-OPLS-2005>
62.6215362548828

> <r_mmod_Bend_Energy-OPLS-2005>
149.507583618164

> <r_mmod_Torsional_Energy-OPLS-2005>
258.557342529297

> <r_mmod_Improper_Torsional_Energy-OPLS-2005>
8.41817760467529

> <r_mmod_Van_der_Waal_Energy-OPLS-2005>
161.870178222656

> <r_mmod_Electrostatic_Energy-OPLS-2005>
-329.356292724609

> <r_mmod_Solvation_Energy-OPLS-2005>
-180.606292724609

> <b_mmod_Minimization_Converged-OPLS-2005>
0

> <r_mmod_RMS_Derivative-OPLS-2005>
3.36409091949463

$$$$
70
                    3D
 Structure written by MMmdl.
169177  0  0  1  0            999 V2000
  -30.6275  -14.6636   20.5617 C   0  0  0  0  0  0
  -30.4299  -12.4221   19.4674 C   0  0  0  0  0  0
  -29.5077  -12.5238   18.2330 C   0  0  0  0  0  0
  -28.0324  -12.3525   18.6393 C   0  0  0  0  0  0
  -27.6493  -13.2236   19.8634 C   0  0  2  0  0  0
  -28.6839  -13.0828   20.9994 C   0  0  0  0  0  0
  -25.2533  -13.8201   20.5675 C   0  0  0  0  0  0
  -24.1806  -13.0451   20.9180 C   0  0  0  0  0  0
  -24.6385  -11.6924   20.8732 C   0  0  0  0  0  0
  -23.9071  -10.4293   21.0402 C   0  0  0  0  0  0
  -24.3616   -9.4215   21.9191 C   0  0  0  0  0  0
  -23.6289   -8.2255   22.0759 C   0  0  0  0  0  0
  -22.4278   -8.0282   21.3539 C   0  0  0  0  0  0
  -21.9908   -9.0258   20.4646 C   0  0  0  0  0  0
  -22.7235  -10.2139   20.3059 C   0  0  0  0  0  0
  -21.6852   -6.0739   22.5281 C   0  0  0  0  0  0
  -21.4015   -6.5645   23.8210 C   0  0  0  0  0  0
  -21.3659   -5.6796   24.9171 C   0  0  0  0  0  0
  -21.6050   -4.3059   24.7221 C   0  0  0  0  0  0
  -21.8815   -3.8147   23.4339 C   0  0  0  0  0  0
  -21.9191   -4.6968   22.3400 C   0  0  0  0  0  0
  -22.7827  -13.5239   21.1846 C   0  0  0  0  0  0
  -22.1658   -4.2153   21.0977 F   0  0  0  0  0  0
  -21.5624   -3.4541   25.7735 F   0  0  0  0  0  0
  -30.0006  -13.4422   20.4517 N   0  0  0  0  0  0
  -26.2954  -12.9386   20.3286 N   0  0  0  0  0  0
  -25.9307  -11.6535   20.5740 N   0  0  0  0  0  0
  -22.0467  -12.8229   22.0404 N   0  0  0  0  0  0
  -25.4262  -15.1917   20.4115 N   0  0  0  0  0  0
  -31.7198  -14.8509   20.0179 O   0  0  0  0  0  0
  -21.6634   -6.8881   21.4242 O   0  0  0  0  0  0
  -22.3512  -14.5546   20.6702 O   0  0  0  0  0  0
  -24.6256  -31.8547   23.1992 C   0  0  0  0  0  0
  -25.9092  -32.4747   23.8319 C   0  0  1  0  0  0
  -27.2314  -27.3039   20.1208 C   0  0  0  0  0  0
  -25.5890  -33.8553   24.2251 N   0  0  0  0  0  0
  -23.4214  -30.4744   21.5399 C   0  0  2  0  0  0
  -24.8689  -28.9186   20.1085 C   0  0  0  0  0  0
  -22.7472  -29.4588   22.4922 C   0  0  0  0  0  0
  -18.0282  -28.1361   22.8483 C   0  0  0  0  0  0
  -24.1484  -36.7306   23.2644 C   0  0  0  0  0  0
  -25.9599  -30.7801   21.3710 C   0  0  0  0  0  0
  -26.0328  -29.4049   20.7141 C   0  0  0  0  0  0
  -27.2127  -28.6063   20.7107 C   0  0  0  0  0  0
  -26.0469  -26.8614   19.4958 C   0  0  0  0  0  0
  -24.8775  -27.6545   19.4898 C   0  0  0  0  0  0
  -23.6359  -29.8002   20.1575 C   0  0  0  0  0  0
  -25.4110  -36.3075   24.0325 C   0  0  1  0  0  0
  -20.5878  -28.3668   23.1282 C   0  0  2  0  0  0
  -20.6767  -26.9387   22.5412 C   0  0  0  0  0  0
  -19.5749  -26.6364   21.5204 C   0  0  0  0  0  0
  -18.1929  -26.7908   22.1612 C   0  0  0  0  0  0
  -19.1531  -28.8831   23.2884 C   0  0  0  0  0  0
  -18.9455  -30.1432   23.8898 C   0  0  0  0  0  0
  -17.6461  -30.6569   24.0547 C   0  0  0  0  0  0
  -25.9040  -34.9439   23.5102 C   0  0  0  0  0  0
  -16.5350  -29.9072   23.6319 C   0  0  0  0  0  0
  -16.7272  -28.6482   23.0352 C   0  0  0  0  0  0
  -26.4482  -31.6577   25.0705 C   0  0  0  0  0  0
  -25.3718  -31.3703   26.1435 C   0  0  0  0  0  0
  -27.0334  -30.3002   24.6179 C   0  0  0  0  0  0
  -27.6032  -32.4326   25.7465 C   0  0  0  0  0  0
  -27.5583  -37.1805   24.8457 C   0  0  0  0  0  0
  -21.4181  -29.3024   22.3676 N   0  0  0  0  0  0
  -26.4293  -37.3765   23.9400 N   0  0  0  0  0  0
  -24.6877  -31.0531   22.0948 N   0  0  0  0  0  0
  -23.4186  -28.8147   23.3027 O   0  0  0  0  0  0
  -28.3788  -26.5029   20.2013 O   0  0  0  0  0  0
  -26.5623  -34.8903   22.4675 O   0  0  0  0  0  0
  -23.5416  -32.1358   23.7315 O   0  0  0  0  0  0
  -28.3066  -21.5013   19.3601 C   0  0  0  0  0  0
  -29.6097  -20.6100   21.5460 C   0  0  0  0  0  0
  -28.4917  -22.4012   20.4546 C   0  0  0  0  0  0
  -29.4860  -19.7179   20.4237 C   0  0  0  0  0  0
  -27.5531  -21.9249   18.1153 C   0  0  0  0  0  0
  -30.1943  -20.1930   22.8809 C   0  0  0  0  0  0
  -27.6518  -24.2663   22.0426 C   0  0  0  0  0  0
  -31.5827  -18.2593   20.9352 C   0  0  0  0  0  0
  -30.4823  -18.0275   18.7772 C   0  0  0  0  0  0
  -30.0499  -15.6112   22.7177 C   0  0  0  0  0  0
  -29.3402  -16.9837   20.7673 C   0  0  0  0  0  0
  -28.4881  -25.0888   19.7487 C   0  0  0  0  0  0
  -27.8611  -23.8669   20.5692 C   0  0  1  0  0  0
  -30.1822  -18.2631   20.2783 C   0  0  0  0  0  0
  -29.1643  -21.9098   21.5352 N   0  0  0  0  0  0
  -28.7874  -20.2103   19.3511 N   0  0  0  0  0  0
  -29.9835  -15.6783   21.2507 N   0  0  0  0  0  0
  -31.4713  -12.5496   19.1697 H   0  0  0  0  0  0
  -30.3687  -11.4249   19.9072 H   0  0  0  0  0  0
  -29.7825  -11.7685   17.4947 H   0  0  0  0  0  0
  -29.6428  -13.4907   17.7463 H   0  0  0  0  0  0
  -27.8766  -11.2988   18.8721 H   0  0  0  0  0  0
  -27.3794  -12.5788   17.7963 H   0  0  0  0  0  0
  -27.6677  -14.2591   19.5245 H   0  0  0  0  0  0
  -28.7016  -12.0622   21.3837 H   0  0  0  0  0  0
  -28.3948  -13.7087   21.8428 H   0  0  0  0  0  0
  -25.2757   -9.5697   22.4761 H   0  0  0  0  0  0
  -23.9995   -7.4651   22.7482 H   0  0  0  0  0  0
  -21.0834   -8.8775   19.8954 H   0  0  0  0  0  0
  -22.3687  -10.9678   19.6162 H   0  0  0  0  0  0
  -21.2015   -7.6154   23.9709 H   0  0  0  0  0  0
  -21.1486   -6.0529   25.9071 H   0  0  0  0  0  0
  -22.0597   -2.7612   23.2833 H   0  0  0  0  0  0
  -22.4078  -11.9905   22.4821 H   0  0  0  0  0  0
  -21.1085  -13.1256   22.2604 H   0  0  0  0  0  0
  -24.6690  -15.8531   20.5401 H   0  0  0  0  0  0
  -26.2892  -15.6285   20.1144 H   0  0  0  0  0  0
  -26.7162  -32.5403   23.1066 H   0  0  0  0  0  0
  -24.9983  -33.9674   25.0362 H   0  0  0  0  0  0
  -22.7172  -31.2957   21.3928 H   0  0  0  0  0  0
  -23.3731  -35.9654   23.3298 H   0  0  0  0  0  0
  -24.3568  -36.8947   22.2058 H   0  0  0  0  0  0
  -23.7259  -37.6514   23.6677 H   0  0  0  0  0  0
  -26.0904  -31.5438   20.6032 H   0  0  0  0  0  0
  -26.8411  -30.8303   21.9988 H   0  0  0  0  0  0
  -28.1083  -28.9723   21.1917 H   0  0  0  0  0  0
  -26.0075  -25.8886   19.0293 H   0  0  0  0  0  0
  -23.9816  -27.2757   19.0171 H   0  0  0  0  0  0
  -23.7562  -30.5717   19.3958 H   0  0  0  0  0  0
  -22.7555  -29.2282   19.8589 H   0  0  0  0  0  0
  -25.1304  -36.1936   25.0820 H   0  0  0  0  0  0
  -20.9973  -28.3243   24.1401 H   0  0  0  0  0  0
  -20.5654  -26.2269   23.3610 H   0  0  0  0  0  0
  -21.6640  -26.7416   22.1211 H   0  0  0  0  0  0
  -19.6905  -25.6280   21.1227 H   0  0  0  0  0  0
  -19.6689  -27.3166   20.6733 H   0  0  0  0  0  0
  -17.4203  -26.6650   21.4014 H   0  0  0  0  0  0
  -18.0335  -26.0050   22.9008 H   0  0  0  0  0  0
  -19.7932  -30.7239   24.2279 H   0  0  0  0  0  0
  -17.5015  -31.6251   24.5143 H   0  0  0  0  0  0
  -15.5347  -30.2970   23.7644 H   0  0  0  0  0  0
  -15.8672  -28.0797   22.7083 H   0  0  0  0  0  0
  -24.5884  -30.7064   25.7767 H   0  0  0  0  0  0
  -24.8905  -32.2859   26.4879 H   0  0  0  0  0  0
  -25.8051  -30.8864   27.0198 H   0  0  0  0  0  0
  -26.2913  -29.6715   24.1245 H   0  0  0  0  0  0
  -27.4068  -29.7300   25.4698 H   0  0  0  0  0  0
  -27.8765  -30.4283   23.9384 H   0  0  0  0  0  0
  -27.2646  -33.3634   26.2031 H   0  0  0  0  0  0
  -28.3846  -32.6889   25.0297 H   0  0  0  0  0  0
  -28.0703  -31.8467   26.5390 H   0  0  0  0  0  0
  -28.2607  -38.0106   24.7519 H   0  0  0  0  0  0
  -28.1088  -36.2636   24.6287 H   0  0  0  0  0  0
  -27.2285  -37.1458   25.8857 H   0  0  0  0  0  0
  -20.9349  -29.8756   21.6901 H   0  0  0  0  0  0
  -26.0177  -38.2839   24.1401 H   0  0  0  0  0  0
  -28.0608  -22.7608   17.6340 H   0  0  0  0  0  0
  -26.5369  -22.2311   18.3636 H   0  0  0  0  0  0
  -27.4871  -21.1130   17.3904 H   0  0  0  0  0  0
  -29.9186  -19.1657   23.1183 H   0  0  0  0  0  0
  -29.8138  -20.8167   23.6910 H   0  0  0  0  0  0
  -31.2796  -20.2908   22.8760 H   0  0  0  0  0  0
  -27.0989  -23.4974   22.5822 H   0  0  0  0  0  0
  -27.0846  -25.1929   22.1264 H   0  0  0  0  0  0
  -28.6045  -24.4144   22.5517 H   0  0  0  0  0  0
  -32.1373  -19.1636   20.6808 H   0  0  0  0  0  0
  -32.1873  -17.4177   20.5996 H   0  0  0  0  0  0
  -31.5521  -18.1779   22.0169 H   0  0  0  0  0  0
  -31.0907  -18.8318   18.3633 H   0  0  0  0  0  0
  -29.5688  -17.9745   18.1839 H   0  0  0  0  0  0
  -31.0205  -17.0957   18.6075 H   0  0  0  0  0  0
  -30.6757  -16.4050   23.1230 H   0  0  0  0  0  0
  -30.4608  -14.6675   23.0821 H   0  0  0  0  0  0
  -29.0564  -15.7143   23.1547 H   0  0  0  0  0  0
  -28.6111  -16.7235   19.9991 H   0  0  0  0  0  0
  -28.7161  -17.3406   21.5878 H   0  0  0  0  0  0
  -28.1924  -25.0206   18.7010 H   0  0  0  0  0  0
  -29.5635  -24.9132   19.7370 H   0  0  0  0  0  0
  -26.8491  -23.7576   20.1801 H   0  0  0  0  0  0
  1 25  1  0  0  0
  1 30  2  0  0  0
  1 87  1  0  0  0
  2  3  1  0  0  0
  2 25  1  0  0  0
  2 88  1  0  0  0
  2 89  1  0  0  0
  3  4  1  0  0  0
  3 90  1  0  0  0
  3 91  1  0  0  0
  4  5  1  0  0  0
  4 92  1  0  0  0
  4 93  1  0  0  0
  5  6  1  0  0  0
  5 26  1  0  0  0
  5 94  1  0  0  0
  6 25  1  0  0  0
  6 95  1  0  0  0
  6 96  1  0  0  0
  7  8  2  0  0  0
  7 26  1  0  0  0
  7 29  1  0  0  0
  8  9  1  0  0  0
  8 22  1  0  0  0
  9 10  1  0  0  0
  9 27  2  0  0  0
 10 11  2  0  0  0
 10 15  1  0  0  0
 11 12  1  0  0  0
 11 97  1  0  0  0
 12 13  2  0  0  0
 12 98  1  0  0  0
 13 14  1  0  0  0
 13 31  1  0  0  0
 14 15  2  0  0  0
 14 99  1  0  0  0
 15100  1  0  0  0
 16 17  2  0  0  0
 16 21  1  0  0  0
 16 31  1  0  0  0
 17 18  1  0  0  0
 17101  1  0  0  0
 18 19  2  0  0  0
 18102  1  0  0  0
 19 20  1  0  0  0
 19 24  1  0  0  0
 20 21  2  0  0  0
 20103  1  0  0  0
 21 23  1  0  0  0
 22 28  1  0  0  0
 22 32  2  0  0  0
 26 27  1  0  0  0
 28104  1  0  0  0
 28105  1  0  0  0
 29106  1  0  0  0
 29107  1  0  0  0
 33 34  1  0  0  0
 33 66  1  0  0  0
 33 70  2  0  0  0
 34 36  1  0  0  0
 34 59  1  0  0  0
 34108  1  0  0  0
 35 44  2  0  0  0
 35 45  1  0  0  0
 35 68  1  0  0  0
 36 56  1  0  0  0
 36109  1  0  0  0
 37 39  1  0  0  0
 37 47  1  0  0  0
 37 66  1  0  0  0
 37110  1  0  0  0
 38 43  2  0  0  0
 38 46  1  0  0  0
 38 47  1  0  0  0
 39 64  1  0  0  0
 39 67  2  0  0  0
 40 52  1  0  0  0
 40 53  2  0  0  0
 40 58  1  0  0  0
 41111  1  0  0  0
 41112  1  0  0  0
 41113  1  0  0  0
 41 48  1  0  0  0
 42 43  1  0  0  0
 42 66  1  0  0  0
 42114  1  0  0  0
 42115  1  0  0  0
 43 44  1  0  0  0
 44116  1  0  0  0
 45 46  2  0  0  0
 45117  1  0  0  0
 46118  1  0  0  0
 47119  1  0  0  0
 47120  1  0  0  0
 48 56  1  0  0  0
 48 65  1  0  0  0
 48121  1  0  0  0
 49 50  1  0  0  0
 49 53  1  0  0  0
 49 64  1  0  0  0
 49122  1  0  0  0
 50 51  1  0  0  0
 50123  1  0  0  0
 50124  1  0  0  0
 51 52  1  0  0  0
 51125  1  0  0  0
 51126  1  0  0  0
 52127  1  0  0  0
 52128  1  0  0  0
 53 54  1  0  0  0
 54 55  2  0  0  0
 54129  1  0  0  0
 55 57  1  0  0  0
 55130  1  0  0  0
 56 69  2  0  0  0
 57 58  2  0  0  0
 57131  1  0  0  0
 58132  1  0  0  0
 59 60  1  0  0  0
 59 61  1  0  0  0
 59 62  1  0  0  0
 60133  1  0  0  0
 60134  1  0  0  0
 60135  1  0  0  0
 61136  1  0  0  0
 61137  1  0  0  0
 61138  1  0  0  0
 62139  1  0  0  0
 62140  1  0  0  0
 62141  1  0  0  0
 63 65  1  0  0  0
 63142  1  0  0  0
 63143  1  0  0  0
 63144  1  0  0  0
 64145  1  0  0  0
 65146  1  0  0  0
 68 82  1  0  0  0
 71 73  2  0  0  0
 71 75  1  0  0  0
 71 86  1  0  0  0
 72 74  1  0  0  0
 72 76  1  0  0  0
 72 85  2  0  0  0
 73 83  1  0  0  0
 73 85  1  0  0  0
 74 84  1  0  0  0
 74 86  2  0  0  0
 75147  1  0  0  0
 75148  1  0  0  0
 75149  1  0  0  0
 76150  1  0  0  0
 76151  1  0  0  0
 76152  1  0  0  0
 77153  1  0  0  0
 77154  1  0  0  0
 77155  1  0  0  0
 77 83  1  0  0  0
 78156  1  0  0  0
 78157  1  0  0  0
 78158  1  0  0  0
 78 84  1  0  0  0
 79 84  1  0  0  0
 79159  1  0  0  0
 79160  1  0  0  0
 79161  1  0  0  0
 80 87  1  0  0  0
 80162  1  0  0  0
 80163  1  0  0  0
 80164  1  0  0  0
 81 84  1  0  0  0
 81 87  1  0  0  0
 81165  1  0  0  0
 81166  1  0  0  0
 82 83  1  0  0  0
 82167  1  0  0  0
 82168  1  0  0  0
 83169  1  0  0  0
M  ISO  4   1 100  68 101  82 101  87 100
M  END
> <chiral flag>
0

> <version>
0

> <s_m_source_file>
/data/baiqing/PycharmProjects/Reinvent-master-3.2/result/LINK_invent/BTK/process_docking_weight1_custom_sum_contain_oxygen_bond_distance_aromatic_linkinvent_7_9_3/rearranged_h_0065.sdf

> <i_m_source_file_index>
66

> <r_mmod_Potential_Energy-OPLS-2005>
323.335601806641

> <r_mmod_Stretch_Energy-OPLS-2005>
116.424110412598

> <r_mmod_Bend_Energy-OPLS-2005>
199.231857299805

> <r_mmod_Torsional_Energy-OPLS-2005>
309.577178955078

> <r_mmod_Improper_Torsional_Energy-OPLS-2005>
2.70083904266357

> <r_mmod_Van_der_Waal_Energy-OPLS-2005>
144.930206298828

> <r_mmod_Electrostatic_Energy-OPLS-2005>
-306.859588623047

> <r_mmod_Solvation_Energy-OPLS-2005>
-196.693389892578

> <b_mmod_Minimization_Converged-OPLS-2005>
0

> <r_mmod_RMS_Derivative-OPLS-2005>
1.88213634490967

$$$$
71
                    3D
 Structure written by MMmdl.
158166  0  0  1  0            999 V2000
  -30.4766  -15.1868   20.3698 C   0  0  0  0  0  0
  -30.4275  -12.7246   19.5533 C   0  0  0  0  0  0
  -29.5419  -12.5254   18.3003 C   0  0  0  0  0  0
  -28.0873  -12.2683   18.7201 C   0  0  0  0  0  0
  -27.6102  -13.2570   19.8095 C   0  0  2  0  0  0
  -28.6346  -13.3763   20.9574 C   0  0  0  0  0  0
  -25.2384  -13.8126   20.5693 C   0  0  0  0  0  0
  -24.1707  -13.0418   20.9181 C   0  0  0  0  0  0
  -24.6324  -11.6886   20.8687 C   0  0  0  0  0  0
  -23.9041  -10.4288   21.0383 C   0  0  0  0  0  0
  -24.3592   -9.4229   21.9193 C   0  0  0  0  0  0
  -23.6281   -8.2260   22.0765 C   0  0  0  0  0  0
  -22.4263   -8.0279   21.3548 C   0  0  0  0  0  0
  -21.9885   -9.0243   20.4629 C   0  0  0  0  0  0
  -22.7209  -10.2133   20.3036 C   0  0  0  0  0  0
  -21.6851   -6.0726   22.5276 C   0  0  0  0  0  0
  -21.3996   -6.5609   23.8215 C   0  0  0  0  0  0
  -21.3672   -5.6762   24.9173 C   0  0  0  0  0  0
  -21.6055   -4.3026   24.7237 C   0  0  0  0  0  0
  -21.8828   -3.8121   23.4351 C   0  0  0  0  0  0
  -21.9190   -4.6946   22.3400 C   0  0  0  0  0  0
  -22.7738  -13.5247   21.1896 C   0  0  0  0  0  0
  -22.1642   -4.2118   21.0981 F   0  0  0  0  0  0
  -21.5665   -3.4513   25.7755 F   0  0  0  0  0  0
  -29.8951  -13.8815   20.3775 N   0  0  0  0  0  0
  -26.2761  -12.9415   20.3029 N   0  0  0  0  0  0
  -25.9236  -11.6543   20.5561 N   0  0  0  0  0  0
  -22.0328  -12.8287   22.0394 N   0  0  0  0  0  0
  -25.4135  -15.1857   20.4296 N   0  0  0  0  0  0
  -31.6298  -15.1223   19.9232 O   0  0  0  0  0  0
  -21.6632   -6.8876   21.4243 O   0  0  0  0  0  0
  -22.3503  -14.5632   20.6800 O   0  0  0  0  0  0
  -24.6586  -31.8393   23.1781 C   0  0  0  0  0  0
  -25.9292  -32.4714   23.8264 C   0  0  1  0  0  0
  -27.2012  -27.0228   20.1851 C   0  0  0  0  0  0
  -25.6013  -33.8515   24.2231 N   0  0  0  0  0  0
  -23.4658  -30.4611   21.5235 C   0  0  2  0  0  0
  -24.9130  -28.8718   20.1017 C   0  0  0  0  0  0
  -22.7703  -29.4547   22.4767 C   0  0  0  0  0  0
  -18.0328  -28.1444   22.8486 C   0  0  0  0  0  0
  -24.1440  -36.7241   23.2664 C   0  0  0  0  0  0
  -26.0324  -30.6843   21.3795 C   0  0  0  0  0  0
  -26.0932  -29.2767   20.7403 C   0  0  0  0  0  0
  -27.2354  -28.3757   20.7616 C   0  0  0  0  0  0
  -26.0036  -26.7628   19.4754 C   0  0  0  0  0  0
  -24.8931  -27.6356   19.4423 C   0  0  0  0  0  0
  -23.6969  -29.7926   20.1415 C   0  0  0  0  0  0
  -25.4068  -36.3048   24.0356 C   0  0  1  0  0  0
  -20.5977  -28.3772   23.1183 C   0  0  2  0  0  0
  -20.6811  -26.9454   22.5394 C   0  0  0  0  0  0
  -19.5751  -26.6386   21.5250 C   0  0  0  0  0  0
  -18.1939  -26.7994   22.1630 C   0  0  0  0  0  0
  -19.1605  -28.8928   23.2831 C   0  0  0  0  0  0
  -18.9499  -30.1532   23.8843 C   0  0  0  0  0  0
  -17.6494  -30.6615   24.0595 C   0  0  0  0  0  0
  -25.9036  -34.9440   23.5095 C   0  0  0  0  0  0
  -16.5380  -29.9119   23.6366 C   0  0  0  0  0  0
  -16.7311  -28.6544   23.0369 C   0  0  0  0  0  0
  -26.4524  -31.6606   25.0739 C   0  0  0  0  0  0
  -25.3677  -31.3805   26.1416 C   0  0  0  0  0  0
  -27.0404  -30.3034   24.6317 C   0  0  0  0  0  0
  -27.6062  -32.4372   25.7518 C   0  0  0  0  0  0
  -27.5534  -37.1770   24.8493 C   0  0  0  0  0  0
  -21.4379  -29.3088   22.3578 N   0  0  0  0  0  0
  -26.4223  -37.3785   23.9470 N   0  0  0  0  0  0
  -24.7419  -31.0193   22.0834 N   0  0  0  0  0  0
  -23.4369  -28.8076   23.2895 O   0  0  0  0  0  0
  -28.1882  -25.9330   20.2806 O   0  0  0  0  0  0
  -26.5606  -34.8946   22.4662 O   0  0  0  0  0  0
  -23.5663  -32.1283   23.6917 O   0  0  0  0  0  0
  -29.2401  -22.1737   19.4070 C   0  0  0  0  0  0
  -28.2451  -21.8447   21.4158 C   0  0  0  0  0  0
  -28.5080  -22.8708   20.4249 C   0  0  0  0  0  0
  -29.2561  -19.8806   20.3445 C   0  0  0  0  0  0
  -27.8265  -17.8575   19.6252 C   0  0  0  0  0  0
  -30.0412  -18.1595   18.6241 C   0  0  0  0  0  0
  -28.9744  -16.5160   22.0766 C   0  0  0  0  0  0
  -27.7286  -24.3929   20.3078 C   0  0  0  0  0  0
  -29.2981  -18.1819   19.9833 C   0  0  0  0  0  0
  -29.9495  -16.7848   20.9022 C   0  0  1  0  0  0
  -31.2390  -17.3946   21.5531 C   0  0  0  0  0  0
  -29.5653  -20.8048   19.3799 N   0  0  0  0  0  0
  -28.5671  -20.4660   21.3652 N   0  0  0  0  0  0
  -32.1748  -17.6628   20.6420 F   0  0  0  0  0  0
  -31.7788  -16.5585   22.4468 F   0  0  0  0  0  0
  -30.9770  -18.5350   22.1953 F   0  0  0  0  0  0
  -31.4654  -12.8530   19.2463 H   0  0  0  0  0  0
  -30.4327  -11.8059   20.1423 H   0  0  0  0  0  0
  -29.9028  -11.6700   17.7290 H   0  0  0  0  0  0
  -29.6012  -13.3943   17.6447 H   0  0  0  0  0  0
  -28.0615  -11.2615   19.1315 H   0  0  0  0  0  0
  -27.4210  -12.2562   17.8589 H   0  0  0  0  0  0
  -27.5446  -14.2239   19.3075 H   0  0  0  0  0  0
  -28.7697  -12.4081   21.4417 H   0  0  0  0  0  0
  -28.2514  -14.0245   21.7370 H   0  0  0  0  0  0
  -25.2739   -9.5733   22.4779 H   0  0  0  0  0  0
  -23.9996   -7.4665   22.7495 H   0  0  0  0  0  0
  -21.0824   -8.8780   19.8911 H   0  0  0  0  0  0
  -22.3691  -10.9691   19.6139 H   0  0  0  0  0  0
  -21.1954   -7.6114   23.9729 H   0  0  0  0  0  0
  -21.1474   -6.0468   25.9087 H   0  0  0  0  0  0
  -22.0588   -2.7576   23.2849 H   0  0  0  0  0  0
  -22.3860  -11.9969   22.4907 H   0  0  0  0  0  0
  -21.0905  -13.1324   22.2441 H   0  0  0  0  0  0
  -24.6502  -15.8296   20.6000 H   0  0  0  0  0  0
  -26.2706  -15.6374   20.1486 H   0  0  0  0  0  0
  -26.7416  -32.5256   23.1036 H   0  0  0  0  0  0
  -25.0334  -33.9671   25.0499 H   0  0  0  0  0  0
  -22.7713  -31.2909   21.3663 H   0  0  0  0  0  0
  -23.3724  -35.9549   23.3310 H   0  0  0  0  0  0
  -24.3548  -36.8882   22.2087 H   0  0  0  0  0  0
  -23.7125  -37.6411   23.6672 H   0  0  0  0  0  0
  -26.1924  -31.4078   20.5761 H   0  0  0  0  0  0
  -26.9139  -30.7572   22.0100 H   0  0  0  0  0  0
  -28.1226  -28.6970   21.2885 H   0  0  0  0  0  0
  -25.8823  -25.8361   18.9304 H   0  0  0  0  0  0
  -24.0036  -27.3406   18.9016 H   0  0  0  0  0  0
  -23.8453  -30.5709   19.3914 H   0  0  0  0  0  0
  -22.8036  -29.2521   19.8166 H   0  0  0  0  0  0
  -25.1220  -36.1902   25.0835 H   0  0  0  0  0  0
  -21.0093  -28.3365   24.1284 H   0  0  0  0  0  0
  -20.5736  -26.2408   23.3648 H   0  0  0  0  0  0
  -21.6661  -26.7434   22.1142 H   0  0  0  0  0  0
  -19.6883  -25.6283   21.1296 H   0  0  0  0  0  0
  -19.6658  -27.3216   20.6792 H   0  0  0  0  0  0
  -17.4214  -26.6829   21.4009 H   0  0  0  0  0  0
  -18.0204  -26.0163   22.9010 H   0  0  0  0  0  0
  -19.7986  -30.7396   24.2169 H   0  0  0  0  0  0
  -17.5032  -31.6279   24.5229 H   0  0  0  0  0  0
  -15.5392  -30.2998   23.7684 H   0  0  0  0  0  0
  -15.8727  -28.0856   22.7077 H   0  0  0  0  0  0
  -24.5955  -30.7030   25.7778 H   0  0  0  0  0  0
  -24.8678  -32.2929   26.4648 H   0  0  0  0  0  0
  -25.7919  -30.9172   27.0332 H   0  0  0  0  0  0
  -26.3018  -29.6767   24.1302 H   0  0  0  0  0  0
  -27.4080  -29.7341   25.4858 H   0  0  0  0  0  0
  -27.8897  -30.4386   23.9635 H   0  0  0  0  0  0
  -27.2759  -33.3835   26.1834 H   0  0  0  0  0  0
  -28.3980  -32.6673   25.0380 H   0  0  0  0  0  0
  -28.0593  -31.8633   26.5612 H   0  0  0  0  0  0
  -28.2557  -38.0071   24.7528 H   0  0  0  0  0  0
  -28.1005  -36.2578   24.6269 H   0  0  0  0  0  0
  -27.2285  -37.1399   25.8919 H   0  0  0  0  0  0
  -20.9642  -29.8868   21.6785 H   0  0  0  0  0  0
  -26.0078  -38.2861   24.1474 H   0  0  0  0  0  0
  -29.5106  -22.7213   18.5146 H   0  0  0  0  0  0
  -27.6432  -22.1196   22.2693 H   0  0  0  0  0  0
  -27.4342  -18.5260   18.8566 H   0  0  0  0  0  0
  -27.1755  -17.9831   20.4929 H   0  0  0  0  0  0
  -27.7295  -16.8382   19.2604 H   0  0  0  0  0  0
  -29.4949  -18.7210   17.8620 H   0  0  0  0  0  0
  -30.1927  -17.1668   18.2103 H   0  0  0  0  0  0
  -31.0172  -18.6375   18.7289 H   0  0  0  0  0  0
  -27.9731  -16.2537   21.7366 H   0  0  0  0  0  0
  -28.8954  -17.3830   22.7305 H   0  0  0  0  0  0
  -29.3225  -15.7026   22.7162 H   0  0  0  0  0  0
  -26.9813  -24.3784   21.1056 H   0  0  0  0  0  0
  -27.1596  -24.2531   19.3879 H   0  0  0  0  0  0
  1 25  1  0  0  0
  1 30  2  0  0  0
  1 80  1  0  0  0
  2  3  1  0  0  0
  2 25  1  0  0  0
  2 87  1  0  0  0
  2 88  1  0  0  0
  3  4  1  0  0  0
  3 89  1  0  0  0
  3 90  1  0  0  0
  4  5  1  0  0  0
  4 91  1  0  0  0
  4 92  1  0  0  0
  5  6  1  0  0  0
  5 26  1  0  0  0
  5 93  1  0  0  0
  6 25  1  0  0  0
  6 94  1  0  0  0
  6 95  1  0  0  0
  7  8  2  0  0  0
  7 26  1  0  0  0
  7 29  1  0  0  0
  8  9  1  0  0  0
  8 22  1  0  0  0
  9 10  1  0  0  0
  9 27  2  0  0  0
 10 11  2  0  0  0
 10 15  1  0  0  0
 11 12  1  0  0  0
 11 96  1  0  0  0
 12 13  2  0  0  0
 12 97  1  0  0  0
 13 14  1  0  0  0
 13 31  1  0  0  0
 14 15  2  0  0  0
 14 98  1  0  0  0
 15 99  1  0  0  0
 16 17  2  0  0  0
 16 21  1  0  0  0
 16 31  1  0  0  0
 17 18  1  0  0  0
 17100  1  0  0  0
 18 19  2  0  0  0
 18101  1  0  0  0
 19 20  1  0  0  0
 19 24  1  0  0  0
 20 21  2  0  0  0
 20102  1  0  0  0
 21 23  1  0  0  0
 22 28  1  0  0  0
 22 32  2  0  0  0
 26 27  1  0  0  0
 28103  1  0  0  0
 28104  1  0  0  0
 29105  1  0  0  0
 29106  1  0  0  0
 33 34  1  0  0  0
 33 66  1  0  0  0
 33 70  2  0  0  0
 34 36  1  0  0  0
 34 59  1  0  0  0
 34107  1  0  0  0
 35 44  2  0  0  0
 35 45  1  0  0  0
 35 68  1  0  0  0
 36 56  1  0  0  0
 36108  1  0  0  0
 37 39  1  0  0  0
 37 47  1  0  0  0
 37 66  1  0  0  0
 37109  1  0  0  0
 38 43  2  0  0  0
 38 46  1  0  0  0
 38 47  1  0  0  0
 39 64  1  0  0  0
 39 67  2  0  0  0
 40 52  1  0  0  0
 40 53  2  0  0  0
 40 58  1  0  0  0
 41110  1  0  0  0
 41111  1  0  0  0
 41112  1  0  0  0
 41 48  1  0  0  0
 42 43  1  0  0  0
 42 66  1  0  0  0
 42113  1  0  0  0
 42114  1  0  0  0
 43 44  1  0  0  0
 44115  1  0  0  0
 45 46  2  0  0  0
 45116  1  0  0  0
 46117  1  0  0  0
 47118  1  0  0  0
 47119  1  0  0  0
 48 56  1  0  0  0
 48 65  1  0  0  0
 48120  1  0  0  0
 49 50  1  0  0  0
 49 53  1  0  0  0
 49 64  1  0  0  0
 49121  1  0  0  0
 50 51  1  0  0  0
 50122  1  0  0  0
 50123  1  0  0  0
 51 52  1  0  0  0
 51124  1  0  0  0
 51125  1  0  0  0
 52126  1  0  0  0
 52127  1  0  0  0
 53 54  1  0  0  0
 54 55  2  0  0  0
 54128  1  0  0  0
 55 57  1  0  0  0
 55129  1  0  0  0
 56 69  2  0  0  0
 57 58  2  0  0  0
 57130  1  0  0  0
 58131  1  0  0  0
 59 60  1  0  0  0
 59 61  1  0  0  0
 59 62  1  0  0  0
 60132  1  0  0  0
 60133  1  0  0  0
 60134  1  0  0  0
 61135  1  0  0  0
 61136  1  0  0  0
 61137  1  0  0  0
 62138  1  0  0  0
 62139  1  0  0  0
 62140  1  0  0  0
 63 65  1  0  0  0
 63141  1  0  0  0
 63142  1  0  0  0
 63143  1  0  0  0
 64144  1  0  0  0
 65145  1  0  0  0
 68 78  1  0  0  0
 71 73  2  0  0  0
 71 82  1  0  0  0
 71146  1  0  0  0
 72 73  1  0  0  0
 72 83  2  0  0  0
 72147  1  0  0  0
 73 78  1  0  0  0
 74 79  1  0  0  0
 74 82  2  0  0  0
 74 83  1  0  0  0
 75148  1  0  0  0
 75149  1  0  0  0
 75150  1  0  0  0
 75 79  1  0  0  0
 76 79  1  0  0  0
 76151  1  0  0  0
 76152  1  0  0  0
 76153  1  0  0  0
 77154  1  0  0  0
 77155  1  0  0  0
 77156  1  0  0  0
 77 80  1  0  0  0
 78157  1  0  0  0
 78158  1  0  0  0
 79 80  1  0  0  0
 80 81  1  0  0  0
 81 84  1  0  0  0
 81 85  1  0  0  0
 81 86  1  0  0  0
M  ISO  4   1 100  68 101  78 101  80 100
M  END
> <chiral flag>
0

> <version>
0

> <s_m_source_file>
/data/baiqing/PycharmProjects/Reinvent-master-3.2/result/LINK_invent/BTK/process_docking_weight1_custom_sum_contain_oxygen_bond_distance_aromatic_linkinvent_7_9_3/rearranged_h_0065.sdf

> <i_m_source_file_index>
67

> <r_mmod_Potential_Energy-OPLS-2005>
664.240905761719

> <r_mmod_Stretch_Energy-OPLS-2005>
471.231079101562

> <r_mmod_Bend_Energy-OPLS-2005>
449.205810546875

> <r_mmod_Torsional_Energy-OPLS-2005>
184.800109863281

> <r_mmod_Improper_Torsional_Energy-OPLS-2005>
9.38516712188721

> <r_mmod_Van_der_Waal_Energy-OPLS-2005>
161.401168823242

> <r_mmod_Electrostatic_Energy-OPLS-2005>
-759.928955078125

> <r_mmod_Solvation_Energy-OPLS-2005>
-206.752136230469

> <b_mmod_Minimization_Converged-OPLS-2005>
0

> <r_mmod_RMS_Derivative-OPLS-2005>
7.68076753616333

$$$$
72
                    3D
 Structure written by MMmdl.
175183  0  0  1  0            999 V2000
  -29.8710  -15.6475   20.8799 C   0  0  0  0  0  0
  -30.3475  -13.1785   19.7529 C   0  0  0  0  0  0
  -29.5628  -12.7645   18.4579 C   0  0  0  0  0  0
  -28.1286  -12.3369   18.7942 C   0  0  0  0  0  0
  -27.5563  -13.2796   19.8752 C   0  0  2  0  0  0
  -28.4588  -13.4569   21.1057 C   0  0  0  0  0  0
  -25.2035  -13.8200   20.5692 C   0  0  0  0  0  0
  -24.1466  -13.0388   20.9204 C   0  0  0  0  0  0
  -24.6141  -11.6884   20.8711 C   0  0  0  0  0  0
  -23.8943  -10.4256   21.0407 C   0  0  0  0  0  0
  -24.3561   -9.4197   21.9182 C   0  0  0  0  0  0
  -23.6265   -8.2219   22.0751 C   0  0  0  0  0  0
  -22.4242   -8.0249   21.3551 C   0  0  0  0  0  0
  -21.9849   -9.0195   20.4645 C   0  0  0  0  0  0
  -22.7141  -10.2079   20.3051 C   0  0  0  0  0  0
  -21.6843   -6.0720   22.5285 C   0  0  0  0  0  0
  -21.4013   -6.5629   23.8217 C   0  0  0  0  0  0
  -21.3653   -5.6782   24.9182 C   0  0  0  0  0  0
  -21.6048   -4.3046   24.7229 C   0  0  0  0  0  0
  -21.8823   -3.8133   23.4350 C   0  0  0  0  0  0
  -21.9193   -4.6954   22.3407 C   0  0  0  0  0  0
  -22.7549  -13.5163   21.1914 C   0  0  0  0  0  0
  -22.1671   -4.2145   21.0983 F   0  0  0  0  0  0
  -21.5617   -3.4530   25.7739 F   0  0  0  0  0  0
  -29.5963  -14.2215   20.6378 N   0  0  0  0  0  0
  -26.2309  -12.9408   20.3046 N   0  0  0  0  0  0
  -25.9022  -11.6527   20.5577 N   0  0  0  0  0  0
  -22.0251  -12.8149   22.0495 N   0  0  0  0  0  0
  -25.3789  -15.1966   20.4292 N   0  0  0  0  0  0
  -31.0520  -15.7817   20.4464 O   0  0  0  0  0  0
  -21.6630   -6.8842   21.4242 O   0  0  0  0  0  0
  -22.3258  -14.5506   20.6782 O   0  0  0  0  0  0
  -24.8100  -31.8650   23.2924 C   0  0  0  0  0  0
  -26.0387  -32.5226   23.9171 C   0  0  1  0  0  0
  -26.0241  -27.3509   20.2084 C   0  0  0  0  0  0
  -25.6674  -33.8914   24.2796 N   0  0  0  0  0  0
  -23.9654  -30.0785   21.8426 C   0  0  2  0  0  0
  -25.1605  -29.6472   19.6808 C   0  0  0  0  0  0
  -23.9146  -28.4565   22.5110 C   0  0  0  0  0  0
  -18.1651  -27.8652   22.7928 C   0  0  0  0  0  0
  -24.1525  -36.7286   23.2543 C   0  0  0  0  0  0
  -26.2851  -30.7878   21.5819 C   0  0  0  0  0  0
  -26.2085  -29.6456   20.5952 C   0  0  0  0  0  0
  -26.7845  -28.3971   20.8193 C   0  0  0  0  0  0
  -25.9554  -27.4854   18.8613 C   0  0  0  0  0  0
  -25.1530  -28.6331   18.6616 C   0  0  0  0  0  0
  -23.9850  -30.4059   20.2539 C   0  0  0  0  0  0
  -25.4130  -36.3194   24.0320 C   0  0  1  0  0  0
  -20.9136  -27.2250   22.8675 C   0  0  2  0  0  0
  -20.4849  -26.0396   22.1613 C   0  0  0  0  0  0
  -19.3629  -26.3362   21.2116 C   0  0  0  0  0  0
  -18.0732  -26.6012   21.9891 C   0  0  0  0  0  0
  -19.4868  -28.3360   23.1297 C   0  0  0  0  0  0
  -19.3194  -29.7334   23.6041 C   0  0  0  0  0  0
  -18.0918  -30.4241   23.8540 C   0  0  0  0  0  0
  -25.9210  -34.9604   23.5194 C   0  0  0  0  0  0
  -16.8600  -29.8059   23.6188 C   0  0  0  0  0  0
  -16.9171  -28.5214   23.0597 C   0  0  0  0  0  0
  -26.5261  -31.6940   25.1585 C   0  0  0  0  0  0
  -25.4143  -31.3891   26.1932 C   0  0  0  0  0  0
  -27.1598  -30.3440   24.7473 C   0  0  0  0  0  0
  -27.6567  -32.4805   25.8445 C   0  0  0  0  0  0
  -27.5589  -37.1873   24.8475 C   0  0  0  0  0  0
  -22.7284  -27.3290   22.4913 N   0  0  0  0  0  0
  -26.4276  -37.3902   23.9454 N   0  0  0  0  0  0
  -25.0298  -30.9184   22.3442 N   0  0  0  0  0  0
  -24.7909  -28.3128   23.2959 O   0  0  0  0  0  0
  -24.5728  -27.1990   20.4451 O   0  0  0  0  0  0
  -26.5509  -34.8987   22.4598 O   0  0  0  0  0  0
  -23.6900  -32.1758   23.7434 O   0  0  0  0  0  0
  -25.8932  -24.0062   22.4857 C   0  0  0  0  0  0
  -24.9885  -23.9628   23.5684 C   0  0  0  0  0  0
  -26.3634  -21.6456   22.8878 C   0  0  0  0  0  0
  -23.4418  -22.0844   25.3887 C   0  0  0  0  0  0
  -26.6948  -19.0433   23.8693 C   0  0  0  0  0  0
  -28.7239  -20.3887   23.3695 C   0  0  0  0  0  0
  -29.7086  -16.8908   22.9359 C   0  0  0  0  0  0
  -23.6933  -25.2919   24.2783 C   0  0  0  0  0  0
  -23.0598  -27.2121   24.8382 C   0  0  0  0  0  0
  -22.0613  -28.9742   24.0069 C   0  0  0  0  0  0
  -21.6694  -29.2221   21.6872 C   0  0  0  0  0  0
  -24.7879  -21.6084   24.8340 C   0  0  0  0  0  0
  -28.0952  -18.4255   21.5969 C   0  0  0  0  0  0
  -22.8756  -28.0761   20.2399 C   0  0  0  0  0  0
  -27.3703  -19.9183   22.8003 C   0  0  0  0  0  0
  -25.3713  -22.4250   23.7527 N   0  0  0  0  0  0
  -26.6054  -22.7767   22.1583 N   0  3  0  0  0  0
  -29.0187  -16.8012   21.6430 N   0  0  0  0  0  0
  -31.3208  -13.5656   19.4562 H   0  0  0  0  0  0
  -30.5785  -12.2906   20.3453 H   0  0  0  0  0  0
  -30.0849  -11.9731   17.9203 H   0  0  0  0  0  0
  -29.5272  -13.6211   17.7836 H   0  0  0  0  0  0
  -28.1439  -11.3109   19.1657 H   0  0  0  0  0  0
  -27.5011  -12.3381   17.9007 H   0  0  0  0  0  0
  -27.4762  -14.2487   19.3787 H   0  0  0  0  0  0
  -28.7304  -12.5016   21.5599 H   0  0  0  0  0  0
  -27.9429  -14.0294   21.8785 H   0  0  0  0  0  0
  -25.2716   -9.5708   22.4749 H   0  0  0  0  0  0
  -23.9999   -7.4612   22.7470 H   0  0  0  0  0  0
  -21.0782   -8.8692   19.8946 H   0  0  0  0  0  0
  -22.3596  -10.9619   19.6159 H   0  0  0  0  0  0
  -21.2015   -7.6142   23.9720 H   0  0  0  0  0  0
  -21.1469   -6.0513   25.9080 H   0  0  0  0  0  0
  -22.0607   -2.7601   23.2848 H   0  0  0  0  0  0
  -22.3903  -11.9815   22.4857 H   0  0  0  0  0  0
  -21.0877  -13.1186   22.2769 H   0  0  0  0  0  0
  -24.6171  -15.8498   20.5672 H   0  0  0  0  0  0
  -26.2321  -15.6397   20.1135 H   0  0  0  0  0  0
  -26.8675  -32.5864   23.2156 H   0  0  0  0  0  0
  -25.1049  -34.0114   25.1075 H   0  0  0  0  0  0
  -23.1807  -30.6895   22.2283 H   0  0  0  0  0  0
  -23.3827  -35.9570   23.3190 H   0  0  0  0  0  0
  -24.3630  -36.8892   22.1953 H   0  0  0  0  0  0
  -23.7192  -37.6478   23.6509 H   0  0  0  0  0  0
  -26.4824  -31.7120   21.0356 H   0  0  0  0  0  0
  -27.1543  -30.6144   22.2024 H   0  0  0  0  0  0
  -27.3779  -28.2186   21.7051 H   0  0  0  0  0  0
  -25.7186  -26.6439   18.2247 H   0  0  0  0  0  0
  -24.4401  -28.6603   17.8514 H   0  0  0  0  0  0
  -24.2141  -31.4639   20.1152 H   0  0  0  0  0  0
  -23.0501  -30.3730   19.7017 H   0  0  0  0  0  0
  -25.1219  -36.2118   25.0794 H   0  0  0  0  0  0
  -20.8965  -26.8175   23.8768 H   0  0  0  0  0  0
  -20.1203  -25.2936   22.8746 H   0  0  0  0  0  0
  -21.3087  -25.5389   21.6503 H   0  0  0  0  0  0
  -19.2202  -25.4625   20.5734 H   0  0  0  0  0  0
  -19.6073  -27.1509   20.5319 H   0  0  0  0  0  0
  -17.2567  -26.6815   21.2690 H   0  0  0  0  0  0
  -17.7964  -25.7565   22.6183 H   0  0  0  0  0  0
  -20.1601  -30.3957   23.7562 H   0  0  0  0  0  0
  -18.1535  -31.4441   24.2016 H   0  0  0  0  0  0
  -15.9308  -30.3192   23.8216 H   0  0  0  0  0  0
  -15.9817  -28.0378   22.8059 H   0  0  0  0  0  0
  -25.8203  -30.8816   27.0684 H   0  0  0  0  0  0
  -24.6357  -30.7371   25.7939 H   0  0  0  0  0  0
  -24.9360  -32.3019   26.5486 H   0  0  0  0  0  0
  -26.4741  -29.6879   24.2308 H   0  0  0  0  0  0
  -27.4925  -29.7906   25.6248 H   0  0  0  0  0  0
  -28.0495  -30.4731   24.1301 H   0  0  0  0  0  0
  -27.3042  -33.4175   26.2753 H   0  0  0  0  0  0
  -28.4529  -32.7294   25.1401 H   0  0  0  0  0  0
  -28.1102  -31.9149   26.6597 H   0  0  0  0  0  0
  -28.2564  -38.0201   24.7592 H   0  0  0  0  0  0
  -28.1129  -36.2752   24.6230 H   0  0  0  0  0  0
  -27.2296  -37.1418   25.8857 H   0  0  0  0  0  0
  -23.1524  -26.4622   22.7677 H   0  0  0  0  0  0
  -26.0165  -38.2979   24.1453 H   0  0  0  0  0  0
  -26.0863  -24.8762   21.8747 H   0  0  0  0  0  0
  -22.9240  -21.2510   25.8670 H   0  0  0  0  0  0
  -22.7919  -22.4628   24.6008 H   0  0  0  0  0  0
  -23.5755  -22.8519   26.1501 H   0  0  0  0  0  0
  -26.7180  -19.5040   24.8576 H   0  0  0  0  0  0
  -27.1697  -18.0744   23.9736 H   0  0  0  0  0  0
  -25.6639  -18.8290   23.6023 H   0  0  0  0  0  0
  -29.2354  -21.0350   22.6559 H   0  0  0  0  0  0
  -29.4024  -19.5668   23.5866 H   0  0  0  0  0  0
  -28.6063  -20.9518   24.2934 H   0  0  0  0  0  0
  -30.5861  -17.5309   22.8434 H   0  0  0  0  0  0
  -29.0850  -17.2997   23.7206 H   0  0  0  0  0  0
  -30.0460  -15.9256   23.3197 H   0  0  0  0  0  0
  -23.5912  -24.8731   25.2755 H   0  0  0  0  0  0
  -22.7970  -24.9333   23.7726 H   0  0  0  0  0  0
  -22.3467  -26.9473   25.6204 H   0  0  0  0  0  0
  -23.8744  -27.6106   25.4482 H   0  0  0  0  0  0
  -22.5989  -29.8595   24.3424 H   0  0  0  0  0  0
  -21.2512  -29.0427   24.7285 H   0  0  0  0  0  0
  -21.5045  -30.2635   21.4059 H   0  0  0  0  0  0
  -20.6861  -28.9888   21.2883 H   0  0  0  0  0  0
  -24.6328  -20.6119   24.4301 H   0  0  0  0  0  0
  -25.5245  -21.5182   25.6325 H   0  0  0  0  0  0
  -27.1977  -18.1153   21.0619 H   0  0  0  0  0  0
  -28.6665  -18.9689   20.8435 H   0  0  0  0  0  0
  -22.7059  -28.4220   19.2231 H   0  0  0  0  0  0
  -22.2544  -27.1871   20.1029 H   0  0  0  0  0  0
  -27.2814  -22.7543   21.4032 H   0  0  0  0  0  0
  1 25  1  0  0  0
  1 30  2  0  0  0
  1 88  1  0  0  0
  2  3  1  0  0  0
  2 25  1  0  0  0
  2 89  1  0  0  0
  2 90  1  0  0  0
  3  4  1  0  0  0
  3 91  1  0  0  0
  3 92  1  0  0  0
  4  5  1  0  0  0
  4 93  1  0  0  0
  4 94  1  0  0  0
  5  6  1  0  0  0
  5 26  1  0  0  0
  5 95  1  0  0  0
  6 25  1  0  0  0
  6 96  1  0  0  0
  6 97  1  0  0  0
  7  8  2  0  0  0
  7 26  1  0  0  0
  7 29  1  0  0  0
  8  9  1  0  0  0
  8 22  1  0  0  0
  9 10  1  0  0  0
  9 27  2  0  0  0
 10 11  2  0  0  0
 10 15  1  0  0  0
 11 12  1  0  0  0
 11 98  1  0  0  0
 12 13  2  0  0  0
 12 99  1  0  0  0
 13 14  1  0  0  0
 13 31  1  0  0  0
 14 15  2  0  0  0
 14100  1  0  0  0
 15101  1  0  0  0
 16 17  2  0  0  0
 16 21  1  0  0  0
 16 31  1  0  0  0
 17 18  1  0  0  0
 17102  1  0  0  0
 18 19  2  0  0  0
 18103  1  0  0  0
 19 20  1  0  0  0
 19 24  1  0  0  0
 20 21  2  0  0  0
 20104  1  0  0  0
 21 23  1  0  0  0
 22 28  1  0  0  0
 22 32  2  0  0  0
 26 27  1  0  0  0
 28105  1  0  0  0
 28106  1  0  0  0
 29107  1  0  0  0
 29108  1  0  0  0
 33 34  1  0  0  0
 33 66  1  0  0  0
 33 70  2  0  0  0
 34 36  1  0  0  0
 34 59  1  0  0  0
 34109  1  0  0  0
 35 44  2  0  0  0
 35 45  1  0  0  0
 35 68  1  0  0  0
 36 56  1  0  0  0
 36110  1  0  0  0
 37 39  1  0  0  0
 37 47  1  0  0  0
 37 66  1  0  0  0
 37111  1  0  0  0
 38 43  2  0  0  0
 38 46  1  0  0  0
 38 47  1  0  0  0
 39 64  1  0  0  0
 39 67  2  0  0  0
 40 52  1  0  0  0
 40 53  2  0  0  0
 40 58  1  0  0  0
 41112  1  0  0  0
 41113  1  0  0  0
 41114  1  0  0  0
 41 48  1  0  0  0
 42 43  1  0  0  0
 42 66  1  0  0  0
 42115  1  0  0  0
 42116  1  0  0  0
 43 44  1  0  0  0
 44117  1  0  0  0
 45 46  2  0  0  0
 45118  1  0  0  0
 46119  1  0  0  0
 47120  1  0  0  0
 47121  1  0  0  0
 48 56  1  0  0  0
 48 65  1  0  0  0
 48122  1  0  0  0
 49 50  1  0  0  0
 49 53  1  0  0  0
 49 64  1  0  0  0
 49123  1  0  0  0
 50 51  1  0  0  0
 50124  1  0  0  0
 50125  1  0  0  0
 51 52  1  0  0  0
 51126  1  0  0  0
 51127  1  0  0  0
 52128  1  0  0  0
 52129  1  0  0  0
 53 54  1  0  0  0
 54 55  2  0  0  0
 54130  1  0  0  0
 55 57  1  0  0  0
 55131  1  0  0  0
 56 69  2  0  0  0
 57 58  2  0  0  0
 57132  1  0  0  0
 58133  1  0  0  0
 59 60  1  0  0  0
 59 61  1  0  0  0
 59 62  1  0  0  0
 60134  1  0  0  0
 60135  1  0  0  0
 60136  1  0  0  0
 61137  1  0  0  0
 61138  1  0  0  0
 61139  1  0  0  0
 62140  1  0  0  0
 62141  1  0  0  0
 62142  1  0  0  0
 63 65  1  0  0  0
 63143  1  0  0  0
 63144  1  0  0  0
 63145  1  0  0  0
 64146  1  0  0  0
 65147  1  0  0  0
 68 84  1  0  0  0
 71 72  2  0  0  0
 71 87  1  0  0  0
 71148  1  0  0  0
 72 78  1  0  0  0
 72 86  1  0  0  0
 73 85  1  0  0  0
 73 86  1  0  0  0
 73 87  2  0  0  0
 74 82  1  0  0  0
 74149  1  0  0  0
 74150  1  0  0  0
 74151  1  0  0  0
 75152  1  0  0  0
 75153  1  0  0  0
 75154  1  0  0  0
 75 85  1  0  0  0
 76 85  1  0  0  0
 76155  1  0  0  0
 76156  1  0  0  0
 76157  1  0  0  0
 77 88  1  0  0  0
 77158  1  0  0  0
 77159  1  0  0  0
 77160  1  0  0  0
 78 79  1  0  0  0
 78161  1  0  0  0
 78162  1  0  0  0
 79 80  1  0  0  0
 79163  1  0  0  0
 79164  1  0  0  0
 80 81  1  0  0  0
 80165  1  0  0  0
 80166  1  0  0  0
 81 84  1  0  0  0
 81167  1  0  0  0
 81168  1  0  0  0
 82 86  1  0  0  0
 82169  1  0  0  0
 82170  1  0  0  0
 83 85  1  0  0  0
 83 88  1  0  0  0
 83171  1  0  0  0
 83172  1  0  0  0
 84173  1  0  0  0
 84174  1  0  0  0
 87175  1  0  0  0
M  CHG  1  87   1
M  ISO  4   1 100  68 101  84 101  88 100
M  END
> <chiral flag>
0

> <version>
0

> <s_m_source_file>
/data/baiqing/PycharmProjects/Reinvent-master-3.2/result/LINK_invent/BTK/process_docking_weight1_custom_sum_contain_oxygen_bond_distance_aromatic_linkinvent_7_9_3/rearranged_h_0065.sdf

> <i_m_source_file_index>
68

> <r_mmod_Potential_Energy-OPLS-2005>
12641.07421875

> <r_mmod_Stretch_Energy-OPLS-2005>
4830.2958984375

> <r_mmod_Bend_Energy-OPLS-2005>
1557.6259765625

> <r_mmod_Torsional_Energy-OPLS-2005>
723.228576660156

> <r_mmod_Improper_Torsional_Energy-OPLS-2005>
62.0615501403809

> <r_mmod_Van_der_Waal_Energy-OPLS-2005>
1652.89123535156

> <r_mmod_Electrostatic_Energy-OPLS-2005>
-169.07585144043

> <r_mmod_Solvation_Energy-OPLS-2005>
-370.840698242188

> <b_mmod_Minimization_Converged-OPLS-2005>
0

> <r_mmod_RMS_Derivative-OPLS-2005>
8.42501544952393

$$$$
73
                    3D
 Structure written by MMmdl.
146154  0  0  1  0            999 V2000
  -30.4376  -15.3008   20.3683 C   0  0  0  0  0  0
  -30.4308  -12.8312   19.5313 C   0  0  0  0  0  0
  -29.5217  -12.5980   18.2912 C   0  0  0  0  0  0
  -28.0630  -12.3257   18.6903 C   0  0  0  0  0  0
  -27.5986  -13.2871   19.8106 C   0  0  2  0  0  0
  -28.6373  -13.4696   20.9351 C   0  0  0  0  0  0
  -25.2392  -13.8329   20.5967 C   0  0  0  0  0  0
  -24.1683  -13.0489   20.9357 C   0  0  0  0  0  0
  -24.6309  -11.7000   20.8710 C   0  0  0  0  0  0
  -23.9003  -10.4339   21.0336 C   0  0  0  0  0  0
  -24.3576   -9.4275   21.9096 C   0  0  0  0  0  0
  -23.6306   -8.2277   22.0687 C   0  0  0  0  0  0
  -22.4289   -8.0251   21.3494 C   0  0  0  0  0  0
  -21.9902   -9.0205   20.4581 C   0  0  0  0  0  0
  -22.7191  -10.2127   20.2974 C   0  0  0  0  0  0
  -21.6860   -6.0704   22.5261 C   0  0  0  0  0  0
  -21.4019   -6.5617   23.8202 C   0  0  0  0  0  0
  -21.3696   -5.6775   24.9172 C   0  0  0  0  0  0
  -21.6066   -4.3032   24.7229 C   0  0  0  0  0  0
  -21.8820   -3.8129   23.4348 C   0  0  0  0  0  0
  -21.9218   -4.6929   22.3404 C   0  0  0  0  0  0
  -22.7667  -13.5214   21.1997 C   0  0  0  0  0  0
  -22.1648   -4.2102   21.0981 F   0  0  0  0  0  0
  -21.5698   -3.4529   25.7755 F   0  0  0  0  0  0
  -29.8728  -13.9849   20.3301 N   0  0  0  0  0  0
  -26.2731  -12.9578   20.3236 N   0  0  0  0  0  0
  -25.9229  -11.6674   20.5663 N   0  0  0  0  0  0
  -22.0315  -12.8141   22.0537 N   0  0  0  0  0  0
  -25.4281  -15.2048   20.4682 N   0  0  0  0  0  0
  -31.6728  -15.2484   20.1934 O   0  0  0  0  0  0
  -21.6683   -6.8810   21.4201 O   0  0  0  0  0  0
  -22.3290  -14.5444   20.6785 O   0  0  0  0  0  0
  -24.6693  -31.8129   23.1686 C   0  0  0  0  0  0
  -25.9368  -32.4526   23.8100 C   0  0  1  0  0  0
  -27.2212  -26.8407   20.1975 C   0  0  0  0  0  0
  -25.6092  -33.8354   24.2013 N   0  0  0  0  0  0
  -23.4815  -30.4182   21.5320 C   0  0  2  0  0  0
  -24.9325  -28.7731   20.1342 C   0  0  0  0  0  0
  -22.7561  -29.4392   22.4895 C   0  0  0  0  0  0
  -18.0303  -28.1333   22.8527 C   0  0  0  0  0  0
  -24.1534  -36.7068   23.2663 C   0  0  0  0  0  0
  -26.0601  -30.5726   21.4293 C   0  0  0  0  0  0
  -26.1237  -29.1601   20.7648 C   0  0  0  0  0  0
  -27.2577  -28.2196   20.7679 C   0  0  0  0  0  0
  -26.0032  -26.6266   19.5127 C   0  0  0  0  0  0
  -24.9013  -27.5254   19.4910 C   0  0  0  0  0  0
  -23.7238  -29.7124   20.1718 C   0  0  0  0  0  0
  -25.4207  -36.2892   24.0296 C   0  0  1  0  0  0
  -20.5899  -28.3664   23.1285 C   0  0  2  0  0  0
  -20.6801  -26.9368   22.5442 C   0  0  0  0  0  0
  -19.5801  -26.6342   21.5233 C   0  0  0  0  0  0
  -18.1976  -26.7902   22.1610 C   0  0  0  0  0  0
  -19.1555  -28.8846   23.2893 C   0  0  0  0  0  0
  -18.9454  -30.1469   23.8868 C   0  0  0  0  0  0
  -17.6451  -30.6590   24.0539 C   0  0  0  0  0  0
  -25.9196  -34.9304   23.4960 C   0  0  0  0  0  0
  -16.5341  -29.9017   23.6409 C   0  0  0  0  0  0
  -16.7285  -28.6415   23.0464 C   0  0  0  0  0  0
  -26.4642  -31.6514   25.0651 C   0  0  0  0  0  0
  -25.3717  -31.3717   26.1246 C   0  0  0  0  0  0
  -27.0578  -30.2879   24.6470 C   0  0  0  0  0  0
  -27.6146  -32.4320   25.7396 C   0  0  0  0  0  0
  -27.5597  -37.1713   24.8499 C   0  0  0  0  0  0
  -21.4236  -29.2939   22.3578 N   0  0  0  0  0  0
  -26.4323  -37.3658   23.9428 N   0  0  0  0  0  0
  -24.7593  -30.9613   22.0949 N   0  0  0  0  0  0
  -23.4056  -28.8041   23.3234 O   0  0  0  0  0  0
  -28.2428  -25.7293   20.1459 O   0  0  0  0  0  0
  -26.5735  -34.8860   22.4517 O   0  0  0  0  0  0
  -23.5771  -32.1190   23.6729 O   0  0  0  0  0  0
  -29.7039  -16.8402   20.4263 C   0  0  0  0  0  0
  -29.0000  -20.9384   22.2182 C   0  0  0  0  0  0
  -28.5175  -22.3757   19.9766 C   0  0  0  0  0  0
  -28.2317  -24.0974   20.5964 C   0  0  0  0  0  0
  -29.2298  -20.8446   20.7067 C   0  0  2  0  0  0
  -28.3433  -17.0727   20.2749 N   0  0  0  0  0  0
  -30.2630  -18.1417   20.5104 N   0  0  0  0  0  0
  -28.0614  -18.3979   20.2687 N   0  0  0  0  0  0
  -29.2070  -19.1652   20.3645 N   0  0  0  0  0  0
  -31.4390  -13.0536   19.1758 H   0  0  0  0  0  0
  -30.5210  -11.9313   20.1481 H   0  0  0  0  0  0
  -29.9056  -11.7809   17.6819 H   0  0  0  0  0  0
  -29.5347  -13.4846   17.6600 H   0  0  0  0  0  0
  -27.9773  -11.2897   19.0212 H   0  0  0  0  0  0
  -27.4119  -12.4242   17.8183 H   0  0  0  0  0  0
  -27.5052  -14.2545   19.3142 H   0  0  0  0  0  0
  -28.8120  -12.5324   21.4657 H   0  0  0  0  0  0
  -28.2797  -14.1941   21.6651 H   0  0  0  0  0  0
  -25.2662   -9.5853   22.4704 H   0  0  0  0  0  0
  -24.0074   -7.4674   22.7361 H   0  0  0  0  0  0
  -21.0874   -8.8640   19.8835 H   0  0  0  0  0  0
  -22.3537  -10.9637   19.6110 H   0  0  0  0  0  0
  -21.1926   -7.6104   23.9686 H   0  0  0  0  0  0
  -21.1558   -6.0510   25.9088 H   0  0  0  0  0  0
  -22.0563   -2.7579   23.2889 H   0  0  0  0  0  0
  -22.4019  -11.9861   22.4956 H   0  0  0  0  0  0
  -21.0829  -13.0947   22.2625 H   0  0  0  0  0  0
  -24.7111  -15.8945   20.6621 H   0  0  0  0  0  0
  -26.3355  -15.6259   20.2933 H   0  0  0  0  0  0
  -26.7333  -32.4972   23.0706 H   0  0  0  0  0  0
  -25.0322  -33.9474   25.0206 H   0  0  0  0  0  0
  -22.8075  -31.2599   21.3589 H   0  0  0  0  0  0
  -23.3892  -35.9306   23.3314 H   0  0  0  0  0  0
  -24.3593  -36.8707   22.2078 H   0  0  0  0  0  0
  -23.7194  -37.6221   23.6699 H   0  0  0  0  0  0
  -26.2895  -31.3222   20.6724 H   0  0  0  0  0  0
  -26.8984  -30.5872   22.1122 H   0  0  0  0  0  0
  -28.1515  -28.5311   21.2923 H   0  0  0  0  0  0
  -25.8886  -25.6869   18.9933 H   0  0  0  0  0  0
  -23.9942  -27.2136   18.9940 H   0  0  0  0  0  0
  -23.8958  -30.4820   19.4242 H   0  0  0  0  0  0
  -22.8307  -29.1784   19.8431 H   0  0  0  0  0  0
  -25.1422  -36.1673   25.0784 H   0  0  0  0  0  0
  -20.9945  -28.3262   24.1430 H   0  0  0  0  0  0
  -20.5782  -26.2175   23.3595 H   0  0  0  0  0  0
  -21.6655  -26.7479   22.1182 H   0  0  0  0  0  0
  -19.6979  -25.6246   21.1288 H   0  0  0  0  0  0
  -19.6835  -27.3120   20.6755 H   0  0  0  0  0  0
  -17.4262  -26.6721   21.4002 H   0  0  0  0  0  0
  -18.0417  -25.9977   22.8931 H   0  0  0  0  0  0
  -19.7938  -30.7338   24.2142 H   0  0  0  0  0  0
  -17.5007  -31.6312   24.5031 H   0  0  0  0  0  0
  -15.5341  -30.2890   23.7814 H   0  0  0  0  0  0
  -15.8666  -28.0712   22.7238 H   0  0  0  0  0  0
  -24.5966  -30.7055   25.7480 H   0  0  0  0  0  0
  -24.8850  -32.2853   26.4618 H   0  0  0  0  0  0
  -25.7919  -30.8883   27.0050 H   0  0  0  0  0  0
  -26.3282  -29.6518   24.1459 H   0  0  0  0  0  0
  -27.4068  -29.7337   25.5193 H   0  0  0  0  0  0
  -27.9241  -30.4141   23.9963 H   0  0  0  0  0  0
  -27.2793  -33.3700   26.1819 H   0  0  0  0  0  0
  -28.3971  -32.6730   25.0180 H   0  0  0  0  0  0
  -28.0734  -31.8493   26.5390 H   0  0  0  0  0  0
  -28.2622  -38.0015   24.7580 H   0  0  0  0  0  0
  -28.1076  -36.2539   24.6298 H   0  0  0  0  0  0
  -27.2265  -37.1274   25.8886 H   0  0  0  0  0  0
  -20.9442  -29.8341   21.6510 H   0  0  0  0  0  0
  -26.0159  -38.2718   24.1416 H   0  0  0  0  0  0
  -29.3333  -21.8997   22.6042 H   0  0  0  0  0  0
  -29.5653  -20.1651   22.7409 H   0  0  0  0  0  0
  -27.9480  -20.8066   22.4623 H   0  0  0  0  0  0
  -29.1025  -22.5385   19.0684 H   0  0  0  0  0  0
  -27.5492  -22.0353   19.5897 H   0  0  0  0  0  0
  -29.0812  -24.1544   21.2766 H   0  0  0  0  0  0
  -27.3603  -24.0065   21.2445 H   0  0  0  0  0  0
  -30.2948  -21.0615   20.6152 H   0  0  0  0  0  0
  1 25  1  0  0  0
  1 30  2  0  0  0
  1 71  1  0  0  0
  2  3  1  0  0  0
  2 25  1  0  0  0
  2 80  1  0  0  0
  2 81  1  0  0  0
  3  4  1  0  0  0
  3 82  1  0  0  0
  3 83  1  0  0  0
  4  5  1  0  0  0
  4 84  1  0  0  0
  4 85  1  0  0  0
  5  6  1  0  0  0
  5 26  1  0  0  0
  5 86  1  0  0  0
  6 25  1  0  0  0
  6 87  1  0  0  0
  6 88  1  0  0  0
  7  8  2  0  0  0
  7 26  1  0  0  0
  7 29  1  0  0  0
  8  9  1  0  0  0
  8 22  1  0  0  0
  9 10  1  0  0  0
  9 27  2  0  0  0
 10 11  2  0  0  0
 10 15  1  0  0  0
 11 12  1  0  0  0
 11 89  1  0  0  0
 12 13  2  0  0  0
 12 90  1  0  0  0
 13 14  1  0  0  0
 13 31  1  0  0  0
 14 15  2  0  0  0
 14 91  1  0  0  0
 15 92  1  0  0  0
 16 17  2  0  0  0
 16 21  1  0  0  0
 16 31  1  0  0  0
 17 18  1  0  0  0
 17 93  1  0  0  0
 18 19  2  0  0  0
 18 94  1  0  0  0
 19 20  1  0  0  0
 19 24  1  0  0  0
 20 21  2  0  0  0
 20 95  1  0  0  0
 21 23  1  0  0  0
 22 28  1  0  0  0
 22 32  2  0  0  0
 26 27  1  0  0  0
 28 96  1  0  0  0
 28 97  1  0  0  0
 29 98  1  0  0  0
 29 99  1  0  0  0
 33 34  1  0  0  0
 33 66  1  0  0  0
 33 70  2  0  0  0
 34 36  1  0  0  0
 34 59  1  0  0  0
 34100  1  0  0  0
 35 44  2  0  0  0
 35 45  1  0  0  0
 35 68  1  0  0  0
 36 56  1  0  0  0
 36101  1  0  0  0
 37 39  1  0  0  0
 37 47  1  0  0  0
 37 66  1  0  0  0
 37102  1  0  0  0
 38 43  2  0  0  0
 38 46  1  0  0  0
 38 47  1  0  0  0
 39 64  1  0  0  0
 39 67  2  0  0  0
 40 52  1  0  0  0
 40 53  2  0  0  0
 40 58  1  0  0  0
 41103  1  0  0  0
 41104  1  0  0  0
 41105  1  0  0  0
 41 48  1  0  0  0
 42 43  1  0  0  0
 42 66  1  0  0  0
 42106  1  0  0  0
 42107  1  0  0  0
 43 44  1  0  0  0
 44108  1  0  0  0
 45 46  2  0  0  0
 45109  1  0  0  0
 46110  1  0  0  0
 47111  1  0  0  0
 47112  1  0  0  0
 48 56  1  0  0  0
 48 65  1  0  0  0
 48113  1  0  0  0
 49 50  1  0  0  0
 49 53  1  0  0  0
 49 64  1  0  0  0
 49114  1  0  0  0
 50 51  1  0  0  0
 50115  1  0  0  0
 50116  1  0  0  0
 51 52  1  0  0  0
 51117  1  0  0  0
 51118  1  0  0  0
 52119  1  0  0  0
 52120  1  0  0  0
 53 54  1  0  0  0
 54 55  2  0  0  0
 54121  1  0  0  0
 55 57  1  0  0  0
 55122  1  0  0  0
 56 69  2  0  0  0
 57 58  2  0  0  0
 57123  1  0  0  0
 58124  1  0  0  0
 59 60  1  0  0  0
 59 61  1  0  0  0
 59 62  1  0  0  0
 60125  1  0  0  0
 60126  1  0  0  0
 60127  1  0  0  0
 61128  1  0  0  0
 61129  1  0  0  0
 61130  1  0  0  0
 62131  1  0  0  0
 62132  1  0  0  0
 62133  1  0  0  0
 63 65  1  0  0  0
 63134  1  0  0  0
 63135  1  0  0  0
 63136  1  0  0  0
 64137  1  0  0  0
 65138  1  0  0  0
 68 74  1  0  0  0
 71 76  1  0  0  0
 71 77  2  0  0  0
 72139  1  0  0  0
 72140  1  0  0  0
 72141  1  0  0  0
 72 75  1  0  0  0
 73 74  1  0  0  0
 73 75  1  0  0  0
 73142  1  0  0  0
 73143  1  0  0  0
 74144  1  0  0  0
 74145  1  0  0  0
 75 79  1  0  0  0
 75146  1  0  0  0
 76 78  2  0  0  0
 77 79  1  0  0  0
 78 79  1  0  0  0
M  ISO  4   1 100  68 101  71 100  74 101
M  END
> <chiral flag>
0

> <version>
0

> <s_m_source_file>
/data/baiqing/PycharmProjects/Reinvent-master-3.2/result/LINK_invent/BTK/process_docking_weight1_custom_sum_contain_oxygen_bond_distance_aromatic_linkinvent_7_9_3/rearranged_h_0065.sdf

> <i_m_source_file_index>
69

> <r_mmod_Potential_Energy-OPLS-2005>
1691.42663574219

> <r_mmod_Stretch_Energy-OPLS-2005>
699.921875

> <r_mmod_Bend_Energy-OPLS-2005>
530.36962890625

> <r_mmod_Torsional_Energy-OPLS-2005>
254.086837768555

> <r_mmod_Improper_Torsional_Energy-OPLS-2005>
6.36318111419678

> <r_mmod_Van_der_Waal_Energy-OPLS-2005>
102.242172241211

> <r_mmod_Electrostatic_Energy-OPLS-2005>
-216.746871948242

> <r_mmod_Solvation_Energy-OPLS-2005>
-206.593551635742

> <b_mmod_Minimization_Converged-OPLS-2005>
0

> <r_mmod_RMS_Derivative-OPLS-2005>
8.65053844451904

$$$$
74
                    3D
 Structure written by MMmdl.
161169  0  0  1  0            999 V2000
  -29.9895  -13.0450   20.1198 C   0  0  0  0  0  0
  -30.7725  -12.3728   18.9585 C   0  0  0  0  0  0
  -30.0707  -13.7893   17.9293 C   0  0  0  0  0  0
  -28.7508  -14.7031   18.8427 C   0  0  0  0  0  0
  -27.8041  -13.9603   20.3855 C   0  0  2  0  0  0
  -28.8368  -12.7455   21.1892 C   0  0  0  0  0  0
  -25.1867  -13.9768   20.7060 C   0  0  0  0  0  0
  -24.1576  -13.1048   20.9254 C   0  0  0  0  0  0
  -24.6994  -11.7952   20.8712 C   0  0  0  0  0  0
  -23.9905  -10.4772   21.0115 C   0  0  0  0  0  0
  -24.4168   -9.4594   21.8998 C   0  0  0  0  0  0
  -23.6697   -8.2635   22.0685 C   0  0  0  0  0  0
  -22.4651   -8.0594   21.3531 C   0  0  0  0  0  0
  -22.0442   -9.0607   20.4592 C   0  0  0  0  0  0
  -22.7939  -10.2434   20.2899 C   0  0  0  0  0  0
  -21.7027   -6.0946   22.5272 C   0  0  0  0  0  0
  -21.4135   -6.5772   23.8223 C   0  0  0  0  0  0
  -21.3680   -5.6880   24.9147 C   0  0  0  0  0  0
  -21.6031   -4.3133   24.7170 C   0  0  0  0  0  0
  -21.8802   -3.8276   23.4270 C   0  0  0  0  0  0
  -21.9246   -4.7141   22.3358 C   0  0  0  0  0  0
  -22.7377  -13.5116   21.1715 C   0  0  0  0  0  0
  -22.1686   -4.2315   21.0938 F   0  0  0  0  0  0
  -21.5588   -3.4580   25.7655 F   0  0  0  0  0  0
  -30.1596  -12.0735   20.4815 N   0  0  0  0  0  0
  -26.3645  -13.3033   20.4968 N   0  0  0  0  0  0
  -26.0254  -11.9419   20.6719 N   0  0  0  0  0  0
  -22.0238  -12.7879   22.0251 N   0  0  0  0  0  0
  -25.2092  -15.3437   20.7434 N   0  0  0  0  0  0
  -30.7393  -14.1257   20.4397 O   0  0  0  0  0  0
  -21.6914   -6.9193   21.4270 O   0  0  0  0  0  0
  -22.2773  -14.5316   20.6618 O   0  0  0  0  0  0
  -24.6623  -31.8369   23.1891 C   0  0  0  0  0  0
  -25.9356  -32.4636   23.8263 C   0  0  1  0  0  0
  -27.0489  -26.9777   20.0025 C   0  0  0  0  0  0
  -25.6060  -33.8457   24.2153 N   0  0  0  0  0  0
  -23.4572  -30.4810   21.5500 C   0  0  2  0  0  0
  -24.8615  -28.9195   20.0924 C   0  0  0  0  0  0
  -22.7626  -29.4554   22.4836 C   0  0  0  0  0  0
  -18.0315  -28.1398   22.8471 C   0  0  0  0  0  0
  -24.1494  -36.7224   23.2637 C   0  0  0  0  0  0
  -26.0367  -30.6351   21.4223 C   0  0  0  0  0  0
  -26.0657  -29.2488   20.7270 C   0  0  0  0  0  0
  -27.1697  -28.2831   20.6866 C   0  0  0  0  0  0
  -25.8351  -26.8492   19.3031 C   0  0  0  0  0  0
  -24.7656  -27.7351   19.3782 C   0  0  0  0  0  0
  -23.6732  -29.8579   20.1572 C   0  0  0  0  0  0
  -25.4134  -36.2993   24.0294 C   0  0  1  0  0  0
  -20.5937  -28.3736   23.1199 C   0  0  2  0  0  0
  -20.6795  -26.9434   22.5379 C   0  0  0  0  0  0
  -19.5759  -26.6377   21.5200 C   0  0  0  0  0  0
  -18.1946  -26.7930   22.1625 C   0  0  0  0  0  0
  -19.1576  -28.8884   23.2826 C   0  0  0  0  0  0
  -18.9494  -30.1475   23.8861 C   0  0  0  0  0  0
  -17.6490  -30.6593   24.0554 C   0  0  0  0  0  0
  -25.9117  -34.9378   23.5027 C   0  0  0  0  0  0
  -16.5378  -29.9087   23.6338 C   0  0  0  0  0  0
  -16.7300  -28.6503   23.0365 C   0  0  0  0  0  0
  -26.4579  -31.6563   25.0784 C   0  0  0  0  0  0
  -25.3689  -31.3839   26.1429 C   0  0  0  0  0  0
  -27.0464  -30.2920   24.6534 C   0  0  0  0  0  0
  -27.6069  -32.4363   25.7590 C   0  0  0  0  0  0
  -27.5567  -37.1787   24.8468 C   0  0  0  0  0  0
  -21.4305  -29.3079   22.3589 N   0  0  0  0  0  0
  -26.4277  -37.3728   23.9406 N   0  0  0  0  0  0
  -24.7430  -31.0076   22.1044 N   0  0  0  0  0  0
  -23.4243  -28.8024   23.2940 O   0  0  0  0  0  0
  -27.8877  -25.7670   19.9565 O   0  0  0  0  0  0
  -26.5697  -34.8893   22.4605 O   0  0  0  0  0  0
  -23.5725  -32.1358   23.7037 O   0  0  0  0  0  0
  -26.4444  -21.7655   19.5934 C   0  0  0  0  0  0
  -27.4874  -22.7221   19.2966 C   0  0  0  0  0  0
  -28.4869  -21.9500   18.5898 C   0  0  0  0  0  0
  -27.3723  -19.7290   18.6292 C   0  0  0  0  0  0
  -25.9728  -12.2603   17.4609 C   0  0  0  0  0  0
  -27.2165  -24.4071   19.3734 C   0  0  0  0  0  0
  -29.6945  -22.6507   17.9575 C   0  0  0  0  0  0
  -27.2564  -18.1632   17.9202 C   0  0  0  0  0  0
  -28.4397  -12.3344   18.8315 C   0  0  0  0  0  0
  -27.1049  -13.2542   17.8209 C   0  0  1  0  0  0
  -26.6240  -16.6597   18.5078 C   0  0  0  0  0  0
  -26.3921  -14.9797   17.8129 C   0  0  0  0  0  0
  -26.3756  -20.4008   19.2623 N   0  0  0  0  0  0
  -28.4083  -20.5629   18.3100 N   0  0  0  0  0  0
  -29.8711  -23.8852   18.4290 F   0  0  0  0  0  0
  -30.8079  -21.9540   18.1937 F   0  0  0  0  0  0
  -29.5135  -22.7246   16.6380 F   0  0  0  0  0  0
  -26.6339  -18.3658   16.7574 F   0  0  0  0  0  0
  -28.5182  -17.8592   17.6100 F   0  0  0  0  0  0
  -27.9547  -11.1993   19.3470 F   0  0  0  0  0  0
  -28.8153  -11.6078   17.7475 F   0  0  0  0  0  0
  -27.6413  -13.2905   16.5949 F   0  0  0  0  0  0
  -25.3630  -17.0790   18.6379 F   0  0  0  0  0  0
  -27.1524  -16.6612   19.7300 F   0  0  0  0  0  0
  -25.1027  -14.7331   18.0353 F   0  0  0  0  0  0
  -26.3991  -15.3008   16.5165 F   0  0  0  0  0  0
  -31.8793  -12.5071   18.9750 H   0  0  0  0  0  0
  -30.8402  -11.4273   18.4053 H   0  0  0  0  0  0
  -29.8456  -13.5047   16.9037 H   0  0  0  0  0  0
  -30.8816  -14.5050   17.7734 H   0  0  0  0  0  0
  -28.4548  -15.4255   18.1128 H   0  0  0  0  0  0
  -29.2868  -15.5099   19.3490 H   0  0  0  0  0  0
  -27.7655  -14.7810   21.1021 H   0  0  0  0  0  0
  -28.2567  -11.8927   21.5500 H   0  0  0  0  0  0
  -29.0668  -13.1372   22.2028 H   0  0  0  0  0  0
  -25.3232   -9.6030   22.4713 H   0  0  0  0  0  0
  -24.0332   -7.5091   22.7519 H   0  0  0  0  0  0
  -21.1332   -8.9217   19.8933 H   0  0  0  0  0  0
  -22.4333  -10.9937   19.6020 H   0  0  0  0  0  0
  -21.2184   -7.6285   23.9776 H   0  0  0  0  0  0
  -21.1476   -6.0583   25.9055 H   0  0  0  0  0  0
  -22.0534   -2.7734   23.2722 H   0  0  0  0  0  0
  -22.4074  -11.9678   22.4706 H   0  0  0  0  0  0
  -21.0736  -13.0589   22.2331 H   0  0  0  0  0  0
  -24.3592  -15.8696   20.9094 H   0  0  0  0  0  0
  -26.0391  -15.9231   20.7479 H   0  0  0  0  0  0
  -26.7400  -32.5111   23.0941 H   0  0  0  0  0  0
  -25.0165  -33.9550   25.0275 H   0  0  0  0  0  0
  -22.7668  -31.3170   21.4179 H   0  0  0  0  0  0
  -23.3766  -35.9546   23.3277 H   0  0  0  0  0  0
  -24.3565  -36.8894   22.2055 H   0  0  0  0  0  0
  -23.7238  -37.6404   23.6703 H   0  0  0  0  0  0
  -26.2426  -31.3912   20.6636 H   0  0  0  0  0  0
  -26.8936  -30.6509   22.0835 H   0  0  0  0  0  0
  -28.0802  -28.5018   21.2278 H   0  0  0  0  0  0
  -25.5972  -26.0175   18.6657 H   0  0  0  0  0  0
  -23.8547  -27.4980   18.8443 H   0  0  0  0  0  0
  -23.8465  -30.6537   19.4318 H   0  0  0  0  0  0
  -22.7673  -29.3502   19.8197 H   0  0  0  0  0  0
  -25.1324  -36.1799   25.0782 H   0  0  0  0  0  0
  -21.0021  -28.3319   24.1322 H   0  0  0  0  0  0
  -20.5676  -26.2360   23.3608 H   0  0  0  0  0  0
  -21.6657  -26.7421   22.1182 H   0  0  0  0  0  0
  -19.6914  -25.6275   21.1260 H   0  0  0  0  0  0
  -19.6680  -27.3157   20.6704 H   0  0  0  0  0  0
  -17.4205  -26.6660   21.4043 H   0  0  0  0  0  0
  -18.0364  -26.0082   22.9036 H   0  0  0  0  0  0
  -19.7973  -30.7293   24.2220 H   0  0  0  0  0  0
  -17.5050  -31.6270   24.5162 H   0  0  0  0  0  0
  -15.5380  -30.2984   23.7679 H   0  0  0  0  0  0
  -15.8696  -28.0805   22.7114 H   0  0  0  0  0  0
  -24.5883  -30.7166   25.7751 H   0  0  0  0  0  0
  -24.8859  -32.3059   26.4685 H   0  0  0  0  0  0
  -25.7902  -30.9123   27.0317 H   0  0  0  0  0  0
  -26.3129  -29.6593   24.1523 H   0  0  0  0  0  0
  -27.3958  -29.7288   25.5198 H   0  0  0  0  0  0
  -27.9100  -30.4087   23.9982 H   0  0  0  0  0  0
  -27.2630  -33.3700   26.2054 H   0  0  0  0  0  0
  -28.3951  -32.6869   25.0477 H   0  0  0  0  0  0
  -28.0658  -31.8568   26.5612 H   0  0  0  0  0  0
  -28.2575  -38.0092   24.7506 H   0  0  0  0  0  0
  -28.1074  -36.2621   24.6306 H   0  0  0  0  0  0
  -27.2286  -37.1444   25.8872 H   0  0  0  0  0  0
  -20.9510  -29.8890   21.6854 H   0  0  0  0  0  0
  -26.0126  -38.2790   24.1408 H   0  0  0  0  0  0
  -25.5404  -22.1354   20.0535 H   0  0  0  0  0  0
  -25.2121  -12.2010   18.2299 H   0  0  0  0  0  0
  -26.3511  -11.2510   17.2992 H   0  0  0  0  0  0
  -25.4546  -12.5624   16.5503 H   0  0  0  0  0  0
  -26.2303  -24.3925   19.8386 H   0  0  0  0  0  0
  -27.0786  -24.6243   18.3135 H   0  0  0  0  0  0
  1 25  1  0  0  0
  1 30  2  0  0  0
  1 79  1  0  0  0
  2  3  1  0  0  0
  2 25  1  0  0  0
  2 97  1  0  0  0
  2 98  1  0  0  0
  3  4  1  0  0  0
  3 99  1  0  0  0
  3100  1  0  0  0
  4  5  1  0  0  0
  4101  1  0  0  0
  4102  1  0  0  0
  5  6  1  0  0  0
  5 26  1  0  0  0
  5103  1  0  0  0
  6 25  1  0  0  0
  6104  1  0  0  0
  6105  1  0  0  0
  7  8  2  0  0  0
  7 26  1  0  0  0
  7 29  1  0  0  0
  8  9  1  0  0  0
  8 22  1  0  0  0
  9 10  1  0  0  0
  9 27  2  0  0  0
 10 11  2  0  0  0
 10 15  1  0  0  0
 11 12  1  0  0  0
 11106  1  0  0  0
 12 13  2  0  0  0
 12107  1  0  0  0
 13 14  1  0  0  0
 13 31  1  0  0  0
 14 15  2  0  0  0
 14108  1  0  0  0
 15109  1  0  0  0
 16 17  2  0  0  0
 16 21  1  0  0  0
 16 31  1  0  0  0
 17 18  1  0  0  0
 17110  1  0  0  0
 18 19  2  0  0  0
 18111  1  0  0  0
 19 20  1  0  0  0
 19 24  1  0  0  0
 20 21  2  0  0  0
 20112  1  0  0  0
 21 23  1  0  0  0
 22 28  1  0  0  0
 22 32  2  0  0  0
 26 27  1  0  0  0
 28113  1  0  0  0
 28114  1  0  0  0
 29115  1  0  0  0
 29116  1  0  0  0
 33 34  1  0  0  0
 33 66  1  0  0  0
 33 70  2  0  0  0
 34 36  1  0  0  0
 34 59  1  0  0  0
 34117  1  0  0  0
 35 44  2  0  0  0
 35 45  1  0  0  0
 35 68  1  0  0  0
 36 56  1  0  0  0
 36118  1  0  0  0
 37 39  1  0  0  0
 37 47  1  0  0  0
 37 66  1  0  0  0
 37119  1  0  0  0
 38 43  2  0  0  0
 38 46  1  0  0  0
 38 47  1  0  0  0
 39 64  1  0  0  0
 39 67  2  0  0  0
 40 52  1  0  0  0
 40 53  2  0  0  0
 40 58  1  0  0  0
 41120  1  0  0  0
 41121  1  0  0  0
 41122  1  0  0  0
 41 48  1  0  0  0
 42 43  1  0  0  0
 42 66  1  0  0  0
 42123  1  0  0  0
 42124  1  0  0  0
 43 44  1  0  0  0
 44125  1  0  0  0
 45 46  2  0  0  0
 45126  1  0  0  0
 46127  1  0  0  0
 47128  1  0  0  0
 47129  1  0  0  0
 48 56  1  0  0  0
 48 65  1  0  0  0
 48130  1  0  0  0
 49 50  1  0  0  0
 49 53  1  0  0  0
 49 64  1  0  0  0
 49131  1  0  0  0
 50 51  1  0  0  0
 50132  1  0  0  0
 50133  1  0  0  0
 51 52  1  0  0  0
 51134  1  0  0  0
 51135  1  0  0  0
 52136  1  0  0  0
 52137  1  0  0  0
 53 54  1  0  0  0
 54 55  2  0  0  0
 54138  1  0  0  0
 55 57  1  0  0  0
 55139  1  0  0  0
 56 69  2  0  0  0
 57 58  2  0  0  0
 57140  1  0  0  0
 58141  1  0  0  0
 59 60  1  0  0  0
 59 61  1  0  0  0
 59 62  1  0  0  0
 60142  1  0  0  0
 60143  1  0  0  0
 60144  1  0  0  0
 61145  1  0  0  0
 61146  1  0  0  0
 61147  1  0  0  0
 62148  1  0  0  0
 62149  1  0  0  0
 62150  1  0  0  0
 63 65  1  0  0  0
 63151  1  0  0  0
 63152  1  0  0  0
 63153  1  0  0  0
 64154  1  0  0  0
 65155  1  0  0  0
 68 76  1  0  0  0
 71 72  2  0  0  0
 71 83  1  0  0  0
 71156  1  0  0  0
 72 73  1  0  0  0
 72 76  1  0  0  0
 73 77  1  0  0  0
 73 84  2  0  0  0
 74 78  1  0  0  0
 74 83  2  0  0  0
 74 84  1  0  0  0
 75157  1  0  0  0
 75158  1  0  0  0
 75159  1  0  0  0
 75 80  1  0  0  0
 76160  1  0  0  0
 76161  1  0  0  0
 77 85  1  0  0  0
 77 86  1  0  0  0
 77 87  1  0  0  0
 78 81  1  0  0  0
 78 88  1  0  0  0
 78 89  1  0  0  0
 79 80  1  0  0  0
 79 90  1  0  0  0
 79 91  1  0  0  0
 80 82  1  0  0  0
 80 92  1  0  0  0
 81 82  1  0  0  0
 81 93  1  0  0  0
 81 94  1  0  0  0
 82 95  1  0  0  0
 82 96  1  0  0  0
M  ISO  4   1 100  68 101  76 101  79 100
M  END
> <chiral flag>
0

> <version>
0

> <s_m_source_file>
/data/baiqing/PycharmProjects/Reinvent-master-3.2/result/LINK_invent/BTK/process_docking_weight1_custom_sum_contain_oxygen_bond_distance_aromatic_linkinvent_7_9_3/rearranged_h_0065.sdf

> <i_m_source_file_index>
70

> <r_mmod_Potential_Energy-OPLS-2005>
6110.0849609375

> <r_mmod_Stretch_Energy-OPLS-2005>
2133.265625

> <r_mmod_Bend_Energy-OPLS-2005>
1359.81164550781

> <r_mmod_Torsional_Energy-OPLS-2005>
321.250762939453

> <r_mmod_Improper_Torsional_Energy-OPLS-2005>
13.3230361938477

> <r_mmod_Van_der_Waal_Energy-OPLS-2005>
1260.79663085938

> <r_mmod_Electrostatic_Energy-OPLS-2005>
-515.783325195312

> <r_mmod_Solvation_Energy-OPLS-2005>
-196.829452514648

> <b_mmod_Minimization_Converged-OPLS-2005>
0

> <r_mmod_RMS_Derivative-OPLS-2005>
2.27672648429871

$$$$
75
                    3D
 Structure written by MMmdl.
161169  0  0  1  0            999 V2000
  -30.3895  -15.3094   20.3881 C   0  0  0  0  0  0
  -30.4548  -12.8376   19.5307 C   0  0  0  0  0  0
  -29.5429  -12.5931   18.2954 C   0  0  0  0  0  0
  -28.0919  -12.2930   18.7127 C   0  0  0  0  0  0
  -27.6186  -13.2472   19.8355 C   0  0  2  0  0  0
  -28.6608  -13.3945   20.9662 C   0  0  0  0  0  0
  -25.2411  -13.8156   20.5695 C   0  0  0  0  0  0
  -24.1741  -13.0371   20.9202 C   0  0  0  0  0  0
  -24.6394  -11.6874   20.8784 C   0  0  0  0  0  0
  -23.9103  -10.4231   21.0421 C   0  0  0  0  0  0
  -24.3650   -9.4147   21.9196 C   0  0  0  0  0  0
  -23.6306   -8.2196   22.0764 C   0  0  0  0  0  0
  -22.4281   -8.0260   21.3551 C   0  0  0  0  0  0
  -21.9940   -9.0231   20.4642 C   0  0  0  0  0  0
  -22.7281  -10.2105   20.3062 C   0  0  0  0  0  0
  -21.6824   -6.0727   22.5282 C   0  0  0  0  0  0
  -21.3991   -6.5632   23.8215 C   0  0  0  0  0  0
  -21.3685   -5.6797   24.9185 C   0  0  0  0  0  0
  -21.6067   -4.3056   24.7232 C   0  0  0  0  0  0
  -21.8821   -3.8144   23.4349 C   0  0  0  0  0  0
  -21.9176   -4.6961   22.3409 C   0  0  0  0  0  0
  -22.7762  -13.5150   21.1821 C   0  0  0  0  0  0
  -22.1628   -4.2146   21.0986 F   0  0  0  0  0  0
  -21.5662   -3.4543   25.7742 F   0  0  0  0  0  0
  -29.8824  -13.9658   20.3633 N   0  0  0  0  0  0
  -26.2852  -12.9374   20.3304 N   0  0  0  0  0  0
  -25.9334  -11.6507   20.5807 N   0  0  0  0  0  0
  -22.0445  -12.8136   22.0418 N   0  0  0  0  0  0
  -25.3982  -15.1863   20.3974 N   0  0  0  0  0  0
  -31.6112  -15.3066   20.1717 O   0  0  0  0  0  0
  -21.6630   -6.8867   21.4239 O   0  0  0  0  0  0
  -22.3425  -14.5442   20.6666 O   0  0  0  0  0  0
  -24.6641  -31.8239   23.1722 C   0  0  0  0  0  0
  -25.9318  -32.4589   23.8195 C   0  0  1  0  0  0
  -27.2260  -26.9172   20.2087 C   0  0  0  0  0  0
  -25.5990  -33.8405   24.2117 N   0  0  0  0  0  0
  -23.4807  -30.4319   21.5201 C   0  0  2  0  0  0
  -24.9390  -28.8154   20.1195 C   0  0  0  0  0  0
  -22.7676  -29.4420   22.4792 C   0  0  0  0  0  0
  -18.0325  -28.1390   22.8473 C   0  0  0  0  0  0
  -24.1493  -36.7206   23.2650 C   0  0  0  0  0  0
  -26.0489  -30.6280   21.4044 C   0  0  0  0  0  0
  -26.1212  -29.2127   20.7576 C   0  0  0  0  0  0
  -27.2635  -28.2889   20.7690 C   0  0  0  0  0  0
  -26.0148  -26.6741   19.5220 C   0  0  0  0  0  0
  -24.9135  -27.5685   19.4745 C   0  0  0  0  0  0
  -23.7245  -29.7453   20.1467 C   0  0  0  0  0  0
  -25.4142  -36.2990   24.0308 C   0  0  1  0  0  0
  -20.5949  -28.3756   23.1175 C   0  0  2  0  0  0
  -20.6797  -26.9437   22.5388 C   0  0  0  0  0  0
  -19.5763  -26.6374   21.5204 C   0  0  0  0  0  0
  -18.1957  -26.7928   22.1623 C   0  0  0  0  0  0
  -19.1587  -28.8900   23.2805 C   0  0  0  0  0  0
  -18.9493  -30.1494   23.8843 C   0  0  0  0  0  0
  -17.6480  -30.6591   24.0550 C   0  0  0  0  0  0
  -25.9107  -34.9355   23.5049 C   0  0  0  0  0  0
  -16.5377  -29.9070   23.6333 C   0  0  0  0  0  0
  -16.7310  -28.6479   23.0381 C   0  0  0  0  0  0
  -26.4580  -31.6518   25.0714 C   0  0  0  0  0  0
  -25.3700  -31.3723   26.1354 C   0  0  0  0  0  0
  -27.0486  -30.2893   24.6430 C   0  0  0  0  0  0
  -27.6091  -32.4311   25.7513 C   0  0  0  0  0  0
  -27.5579  -37.1771   24.8469 C   0  0  0  0  0  0
  -21.4348  -29.3040   22.3523 N   0  0  0  0  0  0
  -26.4294  -37.3716   23.9402 N   0  0  0  0  0  0
  -24.7521  -30.9885   22.0865 N   0  0  0  0  0  0
  -23.4218  -28.8004   23.3053 O   0  0  0  0  0  0
  -28.2301  -25.8084   20.2076 O   0  0  0  0  0  0
  -26.5706  -34.8866   22.4640 O   0  0  0  0  0  0
  -23.5701  -32.1201   23.6796 O   0  0  0  0  0  0
  -28.5338  -22.0796   19.0028 C   0  0  0  0  0  0
  -28.9255  -20.6713   19.0138 C   0  0  0  0  0  0
  -28.5910  -22.7000   20.2323 C   0  0  0  0  0  0
  -29.3130  -20.1768   20.2452 C   0  0  0  0  0  0
  -30.7458  -18.7159   21.9805 C   0  0  0  0  0  0
  -31.2864  -18.6458   19.6210 C   0  0  0  0  0  0
  -28.6943  -16.9239   19.1540 C   0  0  0  0  0  0
  -28.5354  -16.7517   21.6395 C   0  0  0  0  0  0
  -29.2807  -21.5664   22.4294 C   0  0  0  0  0  0
  -27.9664  -24.2675   20.7259 C   0  0  0  0  0  0
  -30.0865  -18.6153   20.5907 C   0  0  0  0  0  0
  -29.5196  -16.8829   20.4540 C   0  0  0  0  0  0
  -29.0729  -21.4789   20.9929 N   0  0  0  0  0  0
  -31.4620  -13.0722   19.1865 H   0  0  0  0  0  0
  -30.5612  -11.9232   20.1172 H   0  0  0  0  0  0
  -29.9352  -11.7761   17.6869 H   0  0  0  0  0  0
  -29.5556  -13.4805   17.6608 H   0  0  0  0  0  0
  -28.0468  -11.2614   19.0634 H   0  0  0  0  0  0
  -27.4263  -12.3515   17.8511 H   0  0  0  0  0  0
  -27.5347  -14.2043   19.3387 H   0  0  0  0  0  0
  -28.8605  -12.4345   21.4449 H   0  0  0  0  0  0
  -28.2928  -14.0234   21.7715 H   0  0  0  0  0  0
  -25.2807   -9.5610   22.4756 H   0  0  0  0  0  0
  -24.0021   -7.4602   22.7499 H   0  0  0  0  0  0
  -21.0880   -8.8761   19.8932 H   0  0  0  0  0  0
  -22.3770  -10.9655   19.6167 H   0  0  0  0  0  0
  -21.1946   -7.6137   23.9703 H   0  0  0  0  0  0
  -21.1524   -6.0531   25.9095 H   0  0  0  0  0  0
  -22.0580   -2.7600   23.2849 H   0  0  0  0  0  0
  -22.4116  -11.9887   22.4902 H   0  0  0  0  0  0
  -21.1056  -13.1114   22.2607 H   0  0  0  0  0  0
  -24.6203  -15.8318   20.4872 H   0  0  0  0  0  0
  -26.2408  -15.6310   20.0574 H   0  0  0  0  0  0
  -26.7387  -32.5131   23.0904 H   0  0  0  0  0  0
  -25.0098  -33.9479   25.0241 H   0  0  0  0  0  0
  -22.7937  -31.2633   21.3477 H   0  0  0  0  0  0
  -23.3780  -35.9509   23.3287 H   0  0  0  0  0  0
  -24.3569  -36.8879   22.2070 H   0  0  0  0  0  0
  -23.7203  -37.6371   23.6712 H   0  0  0  0  0  0
  -26.2260  -31.3654   20.6206 H   0  0  0  0  0  0
  -26.9093  -30.6918   22.0588 H   0  0  0  0  0  0
  -28.1665  -28.6047   21.2714 H   0  0  0  0  0  0
  -25.8976  -25.7231   19.0213 H   0  0  0  0  0  0
  -24.0220  -27.2630   18.9426 H   0  0  0  0  0  0
  -23.8766  -30.5112   19.3834 H   0  0  0  0  0  0
  -22.8350  -29.1952   19.8348 H   0  0  0  0  0  0
  -25.1332  -36.1823   25.0796 H   0  0  0  0  0  0
  -21.0037  -28.3359   24.1297 H   0  0  0  0  0  0
  -20.5661  -26.2397   23.3636 H   0  0  0  0  0  0
  -21.6663  -26.7383   22.1215 H   0  0  0  0  0  0
  -19.6921  -25.6274   21.1269 H   0  0  0  0  0  0
  -19.6688  -27.3144   20.6701 H   0  0  0  0  0  0
  -17.4225  -26.6691   21.4024 H   0  0  0  0  0  0
  -18.0339  -26.0069   22.9019 H   0  0  0  0  0  0
  -19.7968  -30.7325   24.2195 H   0  0  0  0  0  0
  -17.5028  -31.6260   24.5171 H   0  0  0  0  0  0
  -15.5369  -30.2961   23.7666 H   0  0  0  0  0  0
  -15.8719  -28.0759   22.7143 H   0  0  0  0  0  0
  -24.5914  -30.7065   25.7606 H   0  0  0  0  0  0
  -24.8849  -32.2902   26.4680 H   0  0  0  0  0  0
  -25.7914  -30.8923   27.0197 H   0  0  0  0  0  0
  -26.3153  -29.6568   24.1418 H   0  0  0  0  0  0
  -27.4016  -29.7247   25.5070 H   0  0  0  0  0  0
  -27.9096  -30.4087   23.9852 H   0  0  0  0  0  0
  -27.2696  -33.3652   26.1981 H   0  0  0  0  0  0
  -28.3958  -32.6799   25.0384 H   0  0  0  0  0  0
  -28.0707  -31.8512   26.5512 H   0  0  0  0  0  0
  -28.2581  -38.0084   24.7543 H   0  0  0  0  0  0
  -28.1103  -36.2618   24.6294 H   0  0  0  0  0  0
  -27.2293  -37.1403   25.8868 H   0  0  0  0  0  0
  -20.9630  -29.8750   21.6649 H   0  0  0  0  0  0
  -26.0165  -38.2787   24.1393 H   0  0  0  0  0  0
  -28.1863  -22.6033   18.1234 H   0  0  0  0  0  0
  -28.9505  -20.0539   18.1253 H   0  0  0  0  0  0
  -31.4205  -19.5709   22.0441 H   0  0  0  0  0  0
  -31.3476  -17.8328   22.1952 H   0  0  0  0  0  0
  -30.0134  -18.8178   22.7796 H   0  0  0  0  0  0
  -31.8560  -19.5705   19.7213 H   0  0  0  0  0  0
  -30.9703  -18.5754   18.5807 H   0  0  0  0  0  0
  -31.9896  -17.8352   19.8074 H   0  0  0  0  0  0
  -29.3206  -16.7057   18.2900 H   0  0  0  0  0  0
  -28.2398  -17.8999   18.9945 H   0  0  0  0  0  0
  -27.8657  -16.2271   19.1459 H   0  0  0  0  0  0
  -27.7185  -16.0637   21.4394 H   0  0  0  0  0  0
  -29.0388  -16.4104   22.5459 H   0  0  0  0  0  0
  -28.0666  -17.7057   21.8731 H   0  0  0  0  0  0
  -29.0505  -22.5649   22.7968 H   0  0  0  0  0  0
  -30.3212  -21.3651   22.6762 H   0  0  0  0  0  0
  -28.6374  -20.8521   22.9438 H   0  0  0  0  0  0
  -28.1574  -24.3442   21.7943 H   0  0  0  0  0  0
  -26.8830  -24.1601   20.6757 H   0  0  0  0  0  0
  1 25  1  0  0  0
  1 30  2  0  0  0
  1 82  1  0  0  0
  2  3  1  0  0  0
  2 25  1  0  0  0
  2 84  1  0  0  0
  2 85  1  0  0  0
  3  4  1  0  0  0
  3 86  1  0  0  0
  3 87  1  0  0  0
  4  5  1  0  0  0
  4 88  1  0  0  0
  4 89  1  0  0  0
  5  6  1  0  0  0
  5 26  1  0  0  0
  5 90  1  0  0  0
  6 25  1  0  0  0
  6 91  1  0  0  0
  6 92  1  0  0  0
  7  8  2  0  0  0
  7 26  1  0  0  0
  7 29  1  0  0  0
  8  9  1  0  0  0
  8 22  1  0  0  0
  9 10  1  0  0  0
  9 27  2  0  0  0
 10 11  2  0  0  0
 10 15  1  0  0  0
 11 12  1  0  0  0
 11 93  1  0  0  0
 12 13  2  0  0  0
 12 94  1  0  0  0
 13 14  1  0  0  0
 13 31  1  0  0  0
 14 15  2  0  0  0
 14 95  1  0  0  0
 15 96  1  0  0  0
 16 17  2  0  0  0
 16 21  1  0  0  0
 16 31  1  0  0  0
 17 18  1  0  0  0
 17 97  1  0  0  0
 18 19  2  0  0  0
 18 98  1  0  0  0
 19 20  1  0  0  0
 19 24  1  0  0  0
 20 21  2  0  0  0
 20 99  1  0  0  0
 21 23  1  0  0  0
 22 28  1  0  0  0
 22 32  2  0  0  0
 26 27  1  0  0  0
 28100  1  0  0  0
 28101  1  0  0  0
 29102  1  0  0  0
 29103  1  0  0  0
 33 34  1  0  0  0
 33 66  1  0  0  0
 33 70  2  0  0  0
 34 36  1  0  0  0
 34 59  1  0  0  0
 34104  1  0  0  0
 35 44  2  0  0  0
 35 45  1  0  0  0
 35 68  1  0  0  0
 36 56  1  0  0  0
 36105  1  0  0  0
 37 39  1  0  0  0
 37 47  1  0  0  0
 37 66  1  0  0  0
 37106  1  0  0  0
 38 43  2  0  0  0
 38 46  1  0  0  0
 38 47  1  0  0  0
 39 64  1  0  0  0
 39 67  2  0  0  0
 40 52  1  0  0  0
 40 53  2  0  0  0
 40 58  1  0  0  0
 41107  1  0  0  0
 41108  1  0  0  0
 41109  1  0  0  0
 41 48  1  0  0  0
 42 43  1  0  0  0
 42 66  1  0  0  0
 42110  1  0  0  0
 42111  1  0  0  0
 43 44  1  0  0  0
 44112  1  0  0  0
 45 46  2  0  0  0
 45113  1  0  0  0
 46114  1  0  0  0
 47115  1  0  0  0
 47116  1  0  0  0
 48 56  1  0  0  0
 48 65  1  0  0  0
 48117  1  0  0  0
 49 50  1  0  0  0
 49 53  1  0  0  0
 49 64  1  0  0  0
 49118  1  0  0  0
 50 51  1  0  0  0
 50119  1  0  0  0
 50120  1  0  0  0
 51 52  1  0  0  0
 51121  1  0  0  0
 51122  1  0  0  0
 52123  1  0  0  0
 52124  1  0  0  0
 53 54  1  0  0  0
 54 55  2  0  0  0
 54125  1  0  0  0
 55 57  1  0  0  0
 55126  1  0  0  0
 56 69  2  0  0  0
 57 58  2  0  0  0
 57127  1  0  0  0
 58128  1  0  0  0
 59 60  1  0  0  0
 59 61  1  0  0  0
 59 62  1  0  0  0
 60129  1  0  0  0
 60130  1  0  0  0
 60131  1  0  0  0
 61132  1  0  0  0
 61133  1  0  0  0
 61134  1  0  0  0
 62135  1  0  0  0
 62136  1  0  0  0
 62137  1  0  0  0
 63 65  1  0  0  0
 63138  1  0  0  0
 63139  1  0  0  0
 63140  1  0  0  0
 64141  1  0  0  0
 65142  1  0  0  0
 68 80  1  0  0  0
 71 72  1  0  0  0
 71 73  2  0  0  0
 71143  1  0  0  0
 72 74  2  0  0  0
 72144  1  0  0  0
 73 80  1  0  0  0
 73 83  1  0  0  0
 74 81  1  0  0  0
 74 83  1  0  0  0
 75145  1  0  0  0
 75146  1  0  0  0
 75147  1  0  0  0
 75 81  1  0  0  0
 76 81  1  0  0  0
 76148  1  0  0  0
 76149  1  0  0  0
 76150  1  0  0  0
 77151  1  0  0  0
 77152  1  0  0  0
 77153  1  0  0  0
 77 82  1  0  0  0
 78 82  1  0  0  0
 78154  1  0  0  0
 78155  1  0  0  0
 78156  1  0  0  0
 79 83  1  0  0  0
 79157  1  0  0  0
 79158  1  0  0  0
 79159  1  0  0  0
 80160  1  0  0  0
 80161  1  0  0  0
 81 82  1  0  0  0
M  ISO  4   1 100  68 101  80 101  82 100
M  END
> <chiral flag>
0

> <version>
0

> <s_m_source_file>
/data/baiqing/PycharmProjects/Reinvent-master-3.2/result/LINK_invent/BTK/process_docking_weight1_custom_sum_contain_oxygen_bond_distance_aromatic_linkinvent_7_9_3/rearranged_h_0065.sdf

> <i_m_source_file_index>
71

> <r_mmod_Potential_Energy-OPLS-2005>
1501.71862792969

> <r_mmod_Stretch_Energy-OPLS-2005>
661.373962402344

> <r_mmod_Bend_Energy-OPLS-2005>
487.463836669922

> <r_mmod_Torsional_Energy-OPLS-2005>
251.983871459961

> <r_mmod_Improper_Torsional_Energy-OPLS-2005>
6.80777359008789

> <r_mmod_Van_der_Waal_Energy-OPLS-2005>
111.010093688965

> <r_mmod_Electrostatic_Energy-OPLS-2005>
-309.592224121094

> <r_mmod_Solvation_Energy-OPLS-2005>
-185.476974487305

> <b_mmod_Minimization_Converged-OPLS-2005>
0

> <r_mmod_RMS_Derivative-OPLS-2005>
3.697598695755

$$$$
76
                    3D
 Structure written by MMmdl.
158166  0  0  1  0            999 V2000
  -30.4544  -15.1833   20.3624 C   0  0  0  0  0  0
  -30.4551  -12.7417   19.5189 C   0  0  0  0  0  0
  -29.5342  -12.5635   18.2827 C   0  0  0  0  0  0
  -28.0759  -12.2953   18.7047 C   0  0  0  0  0  0
  -27.6204  -13.2395   19.8434 C   0  0  2  0  0  0
  -28.6727  -13.3438   20.9679 C   0  0  0  0  0  0
  -25.2375  -13.8120   20.5686 C   0  0  0  0  0  0
  -24.1724  -13.0356   20.9255 C   0  0  0  0  0  0
  -24.6372  -11.6861   20.8814 C   0  0  0  0  0  0
  -23.9063  -10.4247   21.0444 C   0  0  0  0  0  0
  -24.3613   -9.4164   21.9215 C   0  0  0  0  0  0
  -23.6280   -8.2207   22.0767 C   0  0  0  0  0  0
  -22.4264   -8.0266   21.3552 C   0  0  0  0  0  0
  -21.9916   -9.0238   20.4651 C   0  0  0  0  0  0
  -22.7245  -10.2112   20.3073 C   0  0  0  0  0  0
  -21.6843   -6.0734   22.5285 C   0  0  0  0  0  0
  -21.4009   -6.5642   23.8220 C   0  0  0  0  0  0
  -21.3653   -5.6797   24.9183 C   0  0  0  0  0  0
  -21.6036   -4.3059   24.7233 C   0  0  0  0  0  0
  -21.8817   -3.8149   23.4356 C   0  0  0  0  0  0
  -21.9193   -4.6964   22.3411 C   0  0  0  0  0  0
  -22.7748  -13.5151   21.1885 C   0  0  0  0  0  0
  -22.1661   -4.2152   21.0990 F   0  0  0  0  0  0
  -21.5627   -3.4542   25.7748 F   0  0  0  0  0  0
  -29.9149  -13.8648   20.3633 N   0  0  0  0  0  0
  -26.2845  -12.9349   20.3341 N   0  0  0  0  0  0
  -25.9312  -11.6493   20.5845 N   0  0  0  0  0  0
  -22.0409  -12.8151   22.0458 N   0  0  0  0  0  0
  -25.3858  -15.1836   20.3934 N   0  0  0  0  0  0
  -31.6764  -15.1790   20.1643 O   0  0  0  0  0  0
  -21.6618   -6.8871   21.4248 O   0  0  0  0  0  0
  -22.3437  -14.5459   20.6733 O   0  0  0  0  0  0
  -24.6558  -31.8319   23.1791 C   0  0  0  0  0  0
  -25.9275  -32.4634   23.8223 C   0  0  1  0  0  0
  -27.2246  -27.0118   20.1703 C   0  0  0  0  0  0
  -25.5977  -33.8448   24.2126 N   0  0  0  0  0  0
  -23.4670  -30.4473   21.5262 C   0  0  2  0  0  0
  -24.9215  -28.8541   20.1126 C   0  0  0  0  0  0
  -22.7633  -29.4481   22.4807 C   0  0  0  0  0  0
  -18.0316  -28.1402   22.8465 C   0  0  0  0  0  0
  -24.1493  -36.7222   23.2642 C   0  0  0  0  0  0
  -26.0329  -30.6652   21.3996 C   0  0  0  0  0  0
  -26.1044  -29.2655   20.7401 C   0  0  0  0  0  0
  -27.2531  -28.3642   20.7478 C   0  0  0  0  0  0
  -26.0111  -26.7392   19.4954 C   0  0  0  0  0  0
  -24.8958  -27.6084   19.4711 C   0  0  0  0  0  0
  -23.7029  -29.7702   20.1500 C   0  0  0  0  0  0
  -25.4133  -36.2992   24.0299 C   0  0  1  0  0  0
  -20.5934  -28.3744   23.1197 C   0  0  2  0  0  0
  -20.6795  -26.9432   22.5397 C   0  0  0  0  0  0
  -19.5771  -26.6375   21.5207 C   0  0  0  0  0  0
  -18.1954  -26.7937   22.1617 C   0  0  0  0  0  0
  -19.1573  -28.8891   23.2822 C   0  0  0  0  0  0
  -18.9489  -30.1482   23.8856 C   0  0  0  0  0  0
  -17.6484  -30.6597   24.0550 C   0  0  0  0  0  0
  -25.9092  -34.9372   23.5026 C   0  0  0  0  0  0
  -16.5374  -29.9082   23.6343 C   0  0  0  0  0  0
  -16.7299  -28.6499   23.0367 C   0  0  0  0  0  0
  -26.4552  -31.6557   25.0725 C   0  0  0  0  0  0
  -25.3697  -31.3788   26.1394 C   0  0  0  0  0  0
  -27.0437  -30.2926   24.6425 C   0  0  0  0  0  0
  -27.6046  -32.4361   25.7529 C   0  0  0  0  0  0
  -27.5576  -37.1768   24.8462 C   0  0  0  0  0  0
  -21.4307  -29.3050   22.3554 N   0  0  0  0  0  0
  -26.4283  -37.3722   23.9406 N   0  0  0  0  0  0
  -24.7389  -31.0058   22.0888 N   0  0  0  0  0  0
  -23.4217  -28.8039   23.3011 O   0  0  0  0  0  0
  -28.2316  -25.9337   20.2532 O   0  0  0  0  0  0
  -26.5689  -34.8890   22.4615 O   0  0  0  0  0  0
  -23.5643  -32.1250   23.6929 O   0  0  0  0  0  0
  -28.9788  -22.1248   21.4008 C   0  0  0  0  0  0
  -28.7878  -21.8887   19.1561 C   0  0  0  0  0  0
  -28.6492  -22.8710   20.2108 C   0  0  0  0  0  0
  -29.4884  -19.9140   20.4248 C   0  0  0  0  0  0
  -30.9094  -18.3436   21.9427 C   0  0  0  0  0  0
  -31.4694  -18.5021   19.5751 C   0  0  0  0  0  0
  -28.9737  -16.7929   18.9332 C   0  0  0  0  0  0
  -28.4898  -16.6505   21.3826 C   0  0  0  0  0  0
  -27.8527  -24.3844   20.0443 C   0  0  0  0  0  0
  -30.2657  -18.3661   20.5350 C   0  0  0  0  0  0
  -29.6192  -16.7272   20.3372 C   0  0  0  0  0  0
  -29.3820  -20.7726   21.4859 N   0  0  0  0  0  0
  -29.1825  -20.5363   19.2527 N   0  0  0  0  0  0
  -31.4734  -12.9422   19.1838 H   0  0  0  0  0  0
  -30.5183  -11.8155   20.0929 H   0  0  0  0  0  0
  -29.8979  -11.7511   17.6526 H   0  0  0  0  0  0
  -29.5739  -13.4672   17.6724 H   0  0  0  0  0  0
  -28.0137  -11.2602   19.0430 H   0  0  0  0  0  0
  -27.4068  -12.3769   17.8476 H   0  0  0  0  0  0
  -27.5346  -14.2117   19.3800 H   0  0  0  0  0  0
  -28.8347  -12.3661   21.4252 H   0  0  0  0  0  0
  -28.3358  -13.9794   21.7833 H   0  0  0  0  0  0
  -25.2758   -9.5629   22.4789 H   0  0  0  0  0  0
  -23.9985   -7.4592   22.7480 H   0  0  0  0  0  0
  -21.0854   -8.8761   19.8944 H   0  0  0  0  0  0
  -22.3721  -10.9661   19.6179 H   0  0  0  0  0  0
  -21.1999   -7.6151   23.9727 H   0  0  0  0  0  0
  -21.1475   -6.0527   25.9088 H   0  0  0  0  0  0
  -22.0602   -2.7612   23.2857 H   0  0  0  0  0  0
  -22.4047  -11.9816   22.4832 H   0  0  0  0  0  0
  -21.1036  -13.1182   22.2689 H   0  0  0  0  0  0
  -24.6065  -15.8234   20.5007 H   0  0  0  0  0  0
  -26.2240  -15.6345   20.0528 H   0  0  0  0  0  0
  -26.7346  -32.5194   23.0944 H   0  0  0  0  0  0
  -25.0086  -33.9543   25.0250 H   0  0  0  0  0  0
  -22.7762  -31.2768   21.3620 H   0  0  0  0  0  0
  -23.3770  -35.9538   23.3275 H   0  0  0  0  0  0
  -24.3567  -36.8898   22.2061 H   0  0  0  0  0  0
  -23.7239  -37.6398   23.6715 H   0  0  0  0  0  0
  -26.2082  -31.4148   20.6269 H   0  0  0  0  0  0
  -26.8940  -30.7147   22.0542 H   0  0  0  0  0  0
  -28.1475  -28.6756   21.2683 H   0  0  0  0  0  0
  -25.8767  -25.7908   18.9993 H   0  0  0  0  0  0
  -23.9959  -27.2870   18.9646 H   0  0  0  0  0  0
  -23.8505  -30.5414   19.3930 H   0  0  0  0  0  0
  -22.8155  -29.2179   19.8350 H   0  0  0  0  0  0
  -25.1332  -36.1790   25.0790 H   0  0  0  0  0  0
  -21.0024  -28.3348   24.1319 H   0  0  0  0  0  0
  -20.5671  -26.2364   23.3632 H   0  0  0  0  0  0
  -21.6662  -26.7413   22.1207 H   0  0  0  0  0  0
  -19.6930  -25.6272   21.1272 H   0  0  0  0  0  0
  -19.6711  -27.3153   20.6711 H   0  0  0  0  0  0
  -17.4220  -26.6673   21.4025 H   0  0  0  0  0  0
  -18.0355  -26.0088   22.9021 H   0  0  0  0  0  0
  -19.7965  -30.7305   24.2214 H   0  0  0  0  0  0
  -17.5038  -31.6275   24.5158 H   0  0  0  0  0  0
  -15.5373  -30.2973   23.7693 H   0  0  0  0  0  0
  -15.8697  -28.0801   22.7118 H   0  0  0  0  0  0
  -24.5879  -30.7142   25.7707 H   0  0  0  0  0  0
  -24.8889  -32.2984   26.4735 H   0  0  0  0  0  0
  -25.7942  -30.9008   27.0230 H   0  0  0  0  0  0
  -26.3093  -29.6620   24.1403 H   0  0  0  0  0  0
  -27.3945  -29.7274   25.5073 H   0  0  0  0  0  0
  -27.9049  -30.4114   23.9847 H   0  0  0  0  0  0
  -27.2606  -33.3688   26.2014 H   0  0  0  0  0  0
  -28.3908  -32.6889   25.0404 H   0  0  0  0  0  0
  -28.0661  -31.8559   26.5529 H   0  0  0  0  0  0
  -28.2568  -38.0090   24.7526 H   0  0  0  0  0  0
  -28.1100  -36.2616   24.6270 H   0  0  0  0  0  0
  -27.2288  -37.1386   25.8863 H   0  0  0  0  0  0
  -20.9544  -29.8752   21.6701 H   0  0  0  0  0  0
  -26.0133  -38.2777   24.1432 H   0  0  0  0  0  0
  -28.8722  -22.6145   22.3574 H   0  0  0  0  0  0
  -28.5169  -22.1892   18.1548 H   0  0  0  0  0  0
  -31.5491  -19.2117   22.1072 H   0  0  0  0  0  0
  -31.5233  -17.4562   22.0964 H   0  0  0  0  0  0
  -30.1527  -18.3641   22.7265 H   0  0  0  0  0  0
  -32.0703  -19.3794   19.8159 H   0  0  0  0  0  0
  -31.1416  -18.6283   18.5443 H   0  0  0  0  0  0
  -32.1302  -17.6381   19.6104 H   0  0  0  0  0  0
  -28.2771  -17.6281   18.8498 H   0  0  0  0  0  0
  -28.4264  -15.8991   18.6636 H   0  0  0  0  0  0
  -29.7267  -16.9142   18.1559 H   0  0  0  0  0  0
  -27.9771  -17.6069   21.4898 H   0  0  0  0  0  0
  -28.8727  -16.3754   22.3655 H   0  0  0  0  0  0
  -27.7283  -15.9320   21.1105 H   0  0  0  0  0  0
  -26.9447  -24.2514   20.6333 H   0  0  0  0  0  0
  -27.5148  -24.3463   19.0087 H   0  0  0  0  0  0
  1 25  1  0  0  0
  1 30  2  0  0  0
  1 81  1  0  0  0
  2  3  1  0  0  0
  2 25  1  0  0  0
  2 84  1  0  0  0
  2 85  1  0  0  0
  3  4  1  0  0  0
  3 86  1  0  0  0
  3 87  1  0  0  0
  4  5  1  0  0  0
  4 88  1  0  0  0
  4 89  1  0  0  0
  5  6  1  0  0  0
  5 26  1  0  0  0
  5 90  1  0  0  0
  6 25  1  0  0  0
  6 91  1  0  0  0
  6 92  1  0  0  0
  7  8  2  0  0  0
  7 26  1  0  0  0
  7 29  1  0  0  0
  8  9  1  0  0  0
  8 22  1  0  0  0
  9 10  1  0  0  0
  9 27  2  0  0  0
 10 11  2  0  0  0
 10 15  1  0  0  0
 11 12  1  0  0  0
 11 93  1  0  0  0
 12 13  2  0  0  0
 12 94  1  0  0  0
 13 14  1  0  0  0
 13 31  1  0  0  0
 14 15  2  0  0  0
 14 95  1  0  0  0
 15 96  1  0  0  0
 16 17  2  0  0  0
 16 21  1  0  0  0
 16 31  1  0  0  0
 17 18  1  0  0  0
 17 97  1  0  0  0
 18 19  2  0  0  0
 18 98  1  0  0  0
 19 20  1  0  0  0
 19 24  1  0  0  0
 20 21  2  0  0  0
 20 99  1  0  0  0
 21 23  1  0  0  0
 22 28  1  0  0  0
 22 32  2  0  0  0
 26 27  1  0  0  0
 28100  1  0  0  0
 28101  1  0  0  0
 29102  1  0  0  0
 29103  1  0  0  0
 33 34  1  0  0  0
 33 66  1  0  0  0
 33 70  2  0  0  0
 34 36  1  0  0  0
 34 59  1  0  0  0
 34104  1  0  0  0
 35 44  2  0  0  0
 35 45  1  0  0  0
 35 68  1  0  0  0
 36 56  1  0  0  0
 36105  1  0  0  0
 37 39  1  0  0  0
 37 47  1  0  0  0
 37 66  1  0  0  0
 37106  1  0  0  0
 38 43  2  0  0  0
 38 46  1  0  0  0
 38 47  1  0  0  0
 39 64  1  0  0  0
 39 67  2  0  0  0
 40 52  1  0  0  0
 40 53  2  0  0  0
 40 58  1  0  0  0
 41107  1  0  0  0
 41108  1  0  0  0
 41109  1  0  0  0
 41 48  1  0  0  0
 42 43  1  0  0  0
 42 66  1  0  0  0
 42110  1  0  0  0
 42111  1  0  0  0
 43 44  1  0  0  0
 44112  1  0  0  0
 45 46  2  0  0  0
 45113  1  0  0  0
 46114  1  0  0  0
 47115  1  0  0  0
 47116  1  0  0  0
 48 56  1  0  0  0
 48 65  1  0  0  0
 48117  1  0  0  0
 49 50  1  0  0  0
 49 53  1  0  0  0
 49 64  1  0  0  0
 49118  1  0  0  0
 50 51  1  0  0  0
 50119  1  0  0  0
 50120  1  0  0  0
 51 52  1  0  0  0
 51121  1  0  0  0
 51122  1  0  0  0
 52123  1  0  0  0
 52124  1  0  0  0
 53 54  1  0  0  0
 54 55  2  0  0  0
 54125  1  0  0  0
 55 57  1  0  0  0
 55126  1  0  0  0
 56 69  2  0  0  0
 57 58  2  0  0  0
 57127  1  0  0  0
 58128  1  0  0  0
 59 60  1  0  0  0
 59 61  1  0  0  0
 59 62  1  0  0  0
 60129  1  0  0  0
 60130  1  0  0  0
 60131  1  0  0  0
 61132  1  0  0  0
 61133  1  0  0  0
 61134  1  0  0  0
 62135  1  0  0  0
 62136  1  0  0  0
 62137  1  0  0  0
 63 65  1  0  0  0
 63138  1  0  0  0
 63139  1  0  0  0
 63140  1  0  0  0
 64141  1  0  0  0
 65142  1  0  0  0
 68 79  1  0  0  0
 71 73  2  0  0  0
 71 82  1  0  0  0
 71143  1  0  0  0
 72 73  1  0  0  0
 72 83  2  0  0  0
 72144  1  0  0  0
 73 79  1  0  0  0
 74 80  1  0  0  0
 74 82  2  0  0  0
 74 83  1  0  0  0
 75145  1  0  0  0
 75146  1  0  0  0
 75147  1  0  0  0
 75 80  1  0  0  0
 76 80  1  0  0  0
 76148  1  0  0  0
 76149  1  0  0  0
 76150  1  0  0  0
 77151  1  0  0  0
 77152  1  0  0  0
 77153  1  0  0  0
 77 81  1  0  0  0
 78 81  1  0  0  0
 78154  1  0  0  0
 78155  1  0  0  0
 78156  1  0  0  0
 79157  1  0  0  0
 79158  1  0  0  0
 80 81  1  0  0  0
M  ISO  4   1 100  68 101  79 101  81 100
M  END
> <chiral flag>
0

> <version>
0

> <s_m_source_file>
/data/baiqing/PycharmProjects/Reinvent-master-3.2/result/LINK_invent/BTK/process_docking_weight1_custom_sum_contain_oxygen_bond_distance_aromatic_linkinvent_7_9_3/rearranged_h_0065.sdf

> <i_m_source_file_index>
72

> <r_mmod_Potential_Energy-OPLS-2005>
664.735107421875

> <r_mmod_Stretch_Energy-OPLS-2005>
451.820465087891

> <r_mmod_Bend_Energy-OPLS-2005>
412.111480712891

> <r_mmod_Torsional_Energy-OPLS-2005>
212.481399536133

> <r_mmod_Improper_Torsional_Energy-OPLS-2005>
10.7278490066528

> <r_mmod_Van_der_Waal_Energy-OPLS-2005>
147.63899230957

> <r_mmod_Electrostatic_Energy-OPLS-2005>
-717.113525390625

> <r_mmod_Solvation_Energy-OPLS-2005>
-207.162582397461

> <b_mmod_Minimization_Converged-OPLS-2005>
0

> <r_mmod_RMS_Derivative-OPLS-2005>
1.05699336528778

$$$$
77
                    3D
 Structure written by MMmdl.
179187  0  0  1  0            999 V2000
  -30.7105  -14.4427   20.5783 C   0  0  0  0  0  0
  -30.4167  -12.2893   19.4238 C   0  0  0  0  0  0
  -29.4928  -12.5024   18.2069 C   0  0  0  0  0  0
  -28.0121  -12.3691   18.6147 C   0  0  0  0  0  0
  -27.6617  -13.2026   19.8761 C   0  0  2  0  0  0
  -28.7014  -12.9735   20.9947 C   0  0  0  0  0  0
  -25.2612  -13.8165   20.5685 C   0  0  0  0  0  0
  -24.1849  -13.0437   20.9170 C   0  0  0  0  0  0
  -24.6409  -11.6911   20.8747 C   0  0  0  0  0  0
  -23.9088  -10.4295   21.0425 C   0  0  0  0  0  0
  -24.3637   -9.4198   21.9199 C   0  0  0  0  0  0
  -23.6301   -8.2238   22.0767 C   0  0  0  0  0  0
  -22.4279   -8.0291   21.3558 C   0  0  0  0  0  0
  -21.9928   -9.0269   20.4659 C   0  0  0  0  0  0
  -22.7267  -10.2141   20.3071 C   0  0  0  0  0  0
  -21.6847   -6.0759   22.5288 C   0  0  0  0  0  0
  -21.4006   -6.5654   23.8227 C   0  0  0  0  0  0
  -21.3655   -5.6800   24.9185 C   0  0  0  0  0  0
  -21.6042   -4.3064   24.7228 C   0  0  0  0  0  0
  -21.8815   -3.8164   23.4349 C   0  0  0  0  0  0
  -21.9186   -4.6985   22.3406 C   0  0  0  0  0  0
  -22.7877  -13.5245   21.1823 C   0  0  0  0  0  0
  -22.1656   -4.2174   21.0982 F   0  0  0  0  0  0
  -21.5627   -3.4545   25.7739 F   0  0  0  0  0  0
  -30.0326  -13.2710   20.4496 N   0  0  0  0  0  0
  -26.3032  -12.9318   20.3374 N   0  0  0  0  0  0
  -25.9331  -11.6486   20.5780 N   0  0  0  0  0  0
  -22.0510  -12.8247   22.0382 N   0  0  0  0  0  0
  -25.4348  -15.1878   20.4107 N   0  0  0  0  0  0
  -31.8336  -14.5903   20.0844 O   0  0  0  0  0  0
  -21.6629   -6.8898   21.4251 O   0  0  0  0  0  0
  -22.3565  -14.5547   20.6668 O   0  0  0  0  0  0
  -24.6088  -31.8674   23.2067 C   0  0  0  0  0  0
  -25.8998  -32.4804   23.8330 C   0  0  1  0  0  0
  -27.2256  -27.4473   20.1200 C   0  0  0  0  0  0
  -25.5839  -33.8594   24.2282 N   0  0  0  0  0  0
  -23.3940  -30.4882   21.5502 C   0  0  2  0  0  0
  -24.8395  -28.9576   20.1062 C   0  0  0  0  0  0
  -22.7381  -29.4647   22.5036 C   0  0  0  0  0  0
  -18.0220  -28.1350   22.8426 C   0  0  0  0  0  0
  -24.1516  -36.7326   23.2636 C   0  0  0  0  0  0
  -25.9195  -30.8462   21.3494 C   0  0  0  0  0  0
  -26.0002  -29.4878   20.6864 C   0  0  0  0  0  0
  -27.1976  -28.7469   20.6689 C   0  0  0  0  0  0
  -26.0551  -26.9262   19.5265 C   0  0  0  0  0  0
  -24.8642  -27.6804   19.5179 C   0  0  0  0  0  0
  -23.5957  -29.8171   20.1644 C   0  0  0  0  0  0
  -25.4121  -36.3099   24.0343 C   0  0  1  0  0  0
  -20.5808  -28.3611   23.1320 C   0  0  2  0  0  0
  -20.6726  -26.9351   22.5428 C   0  0  0  0  0  0
  -19.5762  -26.6353   21.5172 C   0  0  0  0  0  0
  -18.1904  -26.7884   22.1554 C   0  0  0  0  0  0
  -19.1465  -28.8797   23.2848 C   0  0  0  0  0  0
  -18.9436  -30.1398   23.8869 C   0  0  0  0  0  0
  -17.6453  -30.6575   24.0533 C   0  0  0  0  0  0
  -25.9036  -34.9466   23.5119 C   0  0  0  0  0  0
  -16.5328  -29.9079   23.6335 C   0  0  0  0  0  0
  -16.7205  -28.6488   23.0345 C   0  0  0  0  0  0
  -26.4413  -31.6555   25.0665 C   0  0  0  0  0  0
  -25.3717  -31.3674   26.1481 C   0  0  0  0  0  0
  -27.0223  -30.2997   24.5964 C   0  0  0  0  0  0
  -27.5949  -32.4322   25.7420 C   0  0  0  0  0  0
  -27.5607  -37.1792   24.8439 C   0  0  0  0  0  0
  -21.4116  -29.2991   22.3765 N   0  0  0  0  0  0
  -26.4302  -37.3786   23.9424 N   0  0  0  0  0  0
  -24.6594  -31.0804   22.0929 N   0  0  0  0  0  0
  -23.4178  -28.8192   23.3050 O   0  0  0  0  0  0
  -28.3965  -26.7289   20.2015 O   0  0  0  0  0  0
  -26.5646  -34.8912   22.4716 O   0  0  0  0  0  0
  -23.5327  -32.1371   23.7536 O   0  0  0  0  0  0
  -28.8561  -17.9745   23.2890 C   0  0  0  0  0  0
  -30.1705  -17.5860   22.9205 C   0  0  0  0  0  0
  -30.7758  -19.8295   22.8339 C   0  0  0  0  0  0
  -29.4660  -20.2041   23.2344 C   0  0  0  0  0  0
  -31.8892  -20.8419   22.6136 C   0  0  0  0  0  0
  -29.4625  -16.5884   18.7589 C   0  0  0  0  0  0
  -32.0804  -15.9353   22.7916 C   0  0  0  0  0  0
  -29.9225  -15.1771   23.6801 C   0  0  0  0  0  0
  -28.1459  -26.3927   23.0492 C   0  0  0  0  0  0
  -26.3683  -24.8226   22.2295 C   0  0  0  0  0  0
  -29.0998  -21.6397   23.5876 C   0  0  0  0  0  0
  -30.0946  -16.8809   20.1301 C   0  0  0  0  0  0
  -28.5165  -22.5198   22.4546 C   0  0  0  0  0  0
  -28.6759  -24.0039   22.8707 C   0  0  0  0  0  0
  -28.3337  -25.3707   20.6788 C   0  0  0  0  0  0
  -30.0345  -15.7154   21.1724 C   0  0  2  0  0  0
  -30.5449  -16.1163   22.6170 C   0  0  0  0  0  0
  -27.8762  -25.1448   22.1679 C   0  0  0  0  0  0
  -28.5015  -19.2742   23.4399 N   0  0  0  0  0  0
  -31.1141  -18.5313   22.6621 N   0  0  0  0  0  0
  -31.4622  -12.3737   19.1231 H   0  0  0  0  0  0
  -30.3050  -11.2787   19.8167 H   0  0  0  0  0  0
  -29.7305  -11.7823   17.4229 H   0  0  0  0  0  0
  -29.6672  -13.4890   17.7766 H   0  0  0  0  0  0
  -27.8142  -11.3136   18.8032 H   0  0  0  0  0  0
  -27.3656  -12.6547   17.7839 H   0  0  0  0  0  0
  -27.7060  -14.2492   19.5844 H   0  0  0  0  0  0
  -28.6704  -11.9363   21.3285 H   0  0  0  0  0  0
  -28.4637  -13.5600   21.8799 H   0  0  0  0  0  0
  -25.2794   -9.5653   22.4768 H   0  0  0  0  0  0
  -24.0005   -7.4626   22.7490 H   0  0  0  0  0  0
  -21.0860   -8.8809   19.8964 H   0  0  0  0  0  0
  -22.3757  -10.9690   19.6174 H   0  0  0  0  0  0
  -21.1998   -7.6160   23.9738 H   0  0  0  0  0  0
  -21.1478   -6.0532   25.9090 H   0  0  0  0  0  0
  -22.0594   -2.7631   23.2841 H   0  0  0  0  0  0
  -22.4119  -11.9903   22.4765 H   0  0  0  0  0  0
  -21.1138  -13.1300   22.2596 H   0  0  0  0  0  0
  -24.6707  -15.8460   20.5210 H   0  0  0  0  0  0
  -26.2945  -15.6266   20.1062 H   0  0  0  0  0  0
  -26.7023  -32.5518   23.1042 H   0  0  0  0  0  0
  -24.9928  -33.9672   25.0389 H   0  0  0  0  0  0
  -22.6802  -31.3035   21.4128 H   0  0  0  0  0  0
  -23.3787  -35.9651   23.3283 H   0  0  0  0  0  0
  -24.3598  -36.9005   22.2053 H   0  0  0  0  0  0
  -23.7271  -37.6515   23.6680 H   0  0  0  0  0  0
  -26.0375  -31.6294   20.5973 H   0  0  0  0  0  0
  -26.8015  -30.8820   21.9776 H   0  0  0  0  0  0
  -28.0926  -29.1451   21.1228 H   0  0  0  0  0  0
  -26.0490  -25.9380   19.0889 H   0  0  0  0  0  0
  -23.9710  -27.2677   19.0709 H   0  0  0  0  0  0
  -23.6810  -30.5926   19.4028 H   0  0  0  0  0  0
  -22.7187  -29.2329   19.8794 H   0  0  0  0  0  0
  -25.1306  -36.1938   25.0833 H   0  0  0  0  0  0
  -20.9791  -28.3150   24.1486 H   0  0  0  0  0  0
  -20.5620  -26.2196   23.3592 H   0  0  0  0  0  0
  -21.6613  -26.7443   22.1252 H   0  0  0  0  0  0
  -19.6998  -25.6271   21.1196 H   0  0  0  0  0  0
  -19.6763  -27.3156   20.6695 H   0  0  0  0  0  0
  -17.4194  -26.6531   21.3940 H   0  0  0  0  0  0
  -18.0348  -26.0046   22.8982 H   0  0  0  0  0  0
  -19.7950  -30.7146   24.2269 H   0  0  0  0  0  0
  -17.5063  -31.6272   24.5121 H   0  0  0  0  0  0
  -15.5339  -30.3011   23.7731 H   0  0  0  0  0  0
  -15.8564  -28.0825   22.7133 H   0  0  0  0  0  0
  -24.5822  -30.7045   25.7884 H   0  0  0  0  0  0
  -24.8964  -32.2844   26.4989 H   0  0  0  0  0  0
  -25.8138  -30.8824   27.0203 H   0  0  0  0  0  0
  -26.2706  -29.6765   24.1078 H   0  0  0  0  0  0
  -27.4094  -29.7178   25.4334 H   0  0  0  0  0  0
  -27.8507  -30.4337   23.9006 H   0  0  0  0  0  0
  -27.2476  -33.3611   26.1970 H   0  0  0  0  0  0
  -28.3741  -32.6933   25.0243 H   0  0  0  0  0  0
  -28.0609  -31.8488   26.5374 H   0  0  0  0  0  0
  -28.2560  -38.0154   24.7594 H   0  0  0  0  0  0
  -28.1172  -36.2683   24.6146 H   0  0  0  0  0  0
  -27.2324  -37.1319   25.8834 H   0  0  0  0  0  0
  -20.9294  -29.8724   21.6990 H   0  0  0  0  0  0
  -26.0224  -38.2875   24.1443 H   0  0  0  0  0  0
  -28.0712  -17.2482   23.4382 H   0  0  0  0  0  0
  -32.0840  -21.3985   23.5305 H   0  0  0  0  0  0
  -31.6186  -21.5515   21.8310 H   0  0  0  0  0  0
  -32.8274  -20.3688   22.3196 H   0  0  0  0  0  0
  -29.4766  -17.4819   18.1347 H   0  0  0  0  0  0
  -28.4204  -16.2859   18.8609 H   0  0  0  0  0  0
  -29.9968  -15.8091   18.2172 H   0  0  0  0  0  0
  -32.4219  -16.3010   23.7606 H   0  0  0  0  0  0
  -32.6347  -16.4755   22.0226 H   0  0  0  0  0  0
  -32.3835  -14.8891   22.7323 H   0  0  0  0  0  0
  -30.2192  -15.4684   24.6886 H   0  0  0  0  0  0
  -30.2464  -14.1441   23.5419 H   0  0  0  0  0  0
  -28.8345  -15.1696   23.6543 H   0  0  0  0  0  0
  -29.1817  -26.7239   22.9751 H   0  0  0  0  0  0
  -27.9599  -26.1894   24.1049 H   0  0  0  0  0  0
  -27.5085  -27.2343   22.7907 H   0  0  0  0  0  0
  -26.0708  -24.5126   23.2302 H   0  0  0  0  0  0
  -26.0997  -24.0169   21.5464 H   0  0  0  0  0  0
  -25.7563  -25.6860   21.9729 H   0  0  0  0  0  0
  -29.9811  -22.1181   24.0138 H   0  0  0  0  0  0
  -28.3807  -21.6083   24.4072 H   0  0  0  0  0  0
  -29.5574  -17.7541   20.4978 H   0  0  0  0  0  0
  -31.1277  -17.2051   19.9983 H   0  0  0  0  0  0
  -27.4734  -22.2439   22.2849 H   0  0  0  0  0  0
  -29.0478  -22.3395   21.5190 H   0  0  0  0  0  0
  -29.7379  -24.2508   22.8369 H   0  0  0  0  0  0
  -28.4174  -24.0391   23.9318 H   0  0  0  0  0  0
  -27.7451  -24.7607   19.9945 H   0  0  0  0  0  0
  -29.3504  -24.9932   20.5654 H   0  0  0  0  0  0
  -28.9658  -15.5428   21.2710 H   0  0  0  0  0  0
  1 25  1  0  0  0
  1 30  2  0  0  0
  1 86  1  0  0  0
  2  3  1  0  0  0
  2 25  1  0  0  0
  2 91  1  0  0  0
  2 92  1  0  0  0
  3  4  1  0  0  0
  3 93  1  0  0  0
  3 94  1  0  0  0
  4  5  1  0  0  0
  4 95  1  0  0  0
  4 96  1  0  0  0
  5  6  1  0  0  0
  5 26  1  0  0  0
  5 97  1  0  0  0
  6 25  1  0  0  0
  6 98  1  0  0  0
  6 99  1  0  0  0
  7  8  2  0  0  0
  7 26  1  0  0  0
  7 29  1  0  0  0
  8  9  1  0  0  0
  8 22  1  0  0  0
  9 10  1  0  0  0
  9 27  2  0  0  0
 10 11  2  0  0  0
 10 15  1  0  0  0
 11 12  1  0  0  0
 11100  1  0  0  0
 12 13  2  0  0  0
 12101  1  0  0  0
 13 14  1  0  0  0
 13 31  1  0  0  0
 14 15  2  0  0  0
 14102  1  0  0  0
 15103  1  0  0  0
 16 17  2  0  0  0
 16 21  1  0  0  0
 16 31  1  0  0  0
 17 18  1  0  0  0
 17104  1  0  0  0
 18 19  2  0  0  0
 18105  1  0  0  0
 19 20  1  0  0  0
 19 24  1  0  0  0
 20 21  2  0  0  0
 20106  1  0  0  0
 21 23  1  0  0  0
 22 28  1  0  0  0
 22 32  2  0  0  0
 26 27  1  0  0  0
 28107  1  0  0  0
 28108  1  0  0  0
 29109  1  0  0  0
 29110  1  0  0  0
 33 34  1  0  0  0
 33 66  1  0  0  0
 33 70  2  0  0  0
 34 36  1  0  0  0
 34 59  1  0  0  0
 34111  1  0  0  0
 35 44  2  0  0  0
 35 45  1  0  0  0
 35 68  1  0  0  0
 36 56  1  0  0  0
 36112  1  0  0  0
 37 39  1  0  0  0
 37 47  1  0  0  0
 37 66  1  0  0  0
 37113  1  0  0  0
 38 43  2  0  0  0
 38 46  1  0  0  0
 38 47  1  0  0  0
 39 64  1  0  0  0
 39 67  2  0  0  0
 40 52  1  0  0  0
 40 53  2  0  0  0
 40 58  1  0  0  0
 41114  1  0  0  0
 41115  1  0  0  0
 41116  1  0  0  0
 41 48  1  0  0  0
 42 43  1  0  0  0
 42 66  1  0  0  0
 42117  1  0  0  0
 42118  1  0  0  0
 43 44  1  0  0  0
 44119  1  0  0  0
 45 46  2  0  0  0
 45120  1  0  0  0
 46121  1  0  0  0
 47122  1  0  0  0
 47123  1  0  0  0
 48 56  1  0  0  0
 48 65  1  0  0  0
 48124  1  0  0  0
 49 50  1  0  0  0
 49 53  1  0  0  0
 49 64  1  0  0  0
 49125  1  0  0  0
 50 51  1  0  0  0
 50126  1  0  0  0
 50127  1  0  0  0
 51 52  1  0  0  0
 51128  1  0  0  0
 51129  1  0  0  0
 52130  1  0  0  0
 52131  1  0  0  0
 53 54  1  0  0  0
 54 55  2  0  0  0
 54132  1  0  0  0
 55 57  1  0  0  0
 55133  1  0  0  0
 56 69  2  0  0  0
 57 58  2  0  0  0
 57134  1  0  0  0
 58135  1  0  0  0
 59 60  1  0  0  0
 59 61  1  0  0  0
 59 62  1  0  0  0
 60136  1  0  0  0
 60137  1  0  0  0
 60138  1  0  0  0
 61139  1  0  0  0
 61140  1  0  0  0
 61141  1  0  0  0
 62142  1  0  0  0
 62143  1  0  0  0
 62144  1  0  0  0
 63 65  1  0  0  0
 63145  1  0  0  0
 63146  1  0  0  0
 63147  1  0  0  0
 64148  1  0  0  0
 65149  1  0  0  0
 68 85  1  0  0  0
 71 72  2  0  0  0
 71 89  1  0  0  0
 71150  1  0  0  0
 72 87  1  0  0  0
 72 90  1  0  0  0
 73 74  1  0  0  0
 73 75  1  0  0  0
 73 90  2  0  0  0
 74 81  1  0  0  0
 74 89  2  0  0  0
 75151  1  0  0  0
 75152  1  0  0  0
 75153  1  0  0  0
 76 82  1  0  0  0
 76154  1  0  0  0
 76155  1  0  0  0
 76156  1  0  0  0
 77157  1  0  0  0
 77158  1  0  0  0
 77159  1  0  0  0
 77 87  1  0  0  0
 78 87  1  0  0  0
 78160  1  0  0  0
 78161  1  0  0  0
 78162  1  0  0  0
 79163  1  0  0  0
 79164  1  0  0  0
 79165  1  0  0  0
 79 88  1  0  0  0
 80 88  1  0  0  0
 80166  1  0  0  0
 80167  1  0  0  0
 80168  1  0  0  0
 81 83  1  0  0  0
 81169  1  0  0  0
 81170  1  0  0  0
 82171  1  0  0  0
 82172  1  0  0  0
 82 86  1  0  0  0
 83 84  1  0  0  0
 83173  1  0  0  0
 83174  1  0  0  0
 84 88  1  0  0  0
 84175  1  0  0  0
 84176  1  0  0  0
 85 88  1  0  0  0
 85177  1  0  0  0
 85178  1  0  0  0
 86 87  1  0  0  0
 86179  1  0  0  0
M  ISO  4   1 100  68 101  85 101  86 100
M  END
> <chiral flag>
0

> <version>
0

> <s_m_source_file>
/data/baiqing/PycharmProjects/Reinvent-master-3.2/result/LINK_invent/BTK/process_docking_weight1_custom_sum_contain_oxygen_bond_distance_aromatic_linkinvent_7_9_3/rearranged_h_0065.sdf

> <i_m_source_file_index>
73

> <r_mmod_Potential_Energy-OPLS-2005>
127.739738464355

> <r_mmod_Stretch_Energy-OPLS-2005>
49.2355270385742

> <r_mmod_Bend_Energy-OPLS-2005>
135.908599853516

> <r_mmod_Torsional_Energy-OPLS-2005>
184.721923828125

> <r_mmod_Improper_Torsional_Energy-OPLS-2005>
4.8076171875

> <r_mmod_Van_der_Waal_Energy-OPLS-2005>
167.103149414062

> <r_mmod_Electrostatic_Energy-OPLS-2005>
-243.291549682617

> <r_mmod_Solvation_Energy-OPLS-2005>
-184.678955078125

> <b_mmod_Minimization_Converged-OPLS-2005>
0

> <r_mmod_RMS_Derivative-OPLS-2005>
3.98505210876465

$$$$
78
                    3D
 Structure written by MMmdl.
174182  0  0  1  0            999 V2000
  -30.6250  -14.7187   20.4557 C   0  0  0  0  0  0
  -30.4263  -12.4335   19.4856 C   0  0  0  0  0  0
  -29.5214  -12.5111   18.2374 C   0  0  0  0  0  0
  -28.0420  -12.3451   18.6388 C   0  0  0  0  0  0
  -27.6399  -13.2353   19.8457 C   0  0  2  0  0  0
  -28.6733  -13.1739   20.9856 C   0  0  0  0  0  0
  -25.2535  -13.8231   20.5706 C   0  0  0  0  0  0
  -24.1811  -13.0455   20.9217 C   0  0  0  0  0  0
  -24.6406  -11.6950   20.8740 C   0  0  0  0  0  0
  -23.9081  -10.4309   21.0443 C   0  0  0  0  0  0
  -24.3640   -9.4220   21.9211 C   0  0  0  0  0  0
  -23.6341   -8.2249   22.0770 C   0  0  0  0  0  0
  -22.4317   -8.0274   21.3565 C   0  0  0  0  0  0
  -21.9957   -9.0238   20.4661 C   0  0  0  0  0  0
  -22.7266  -10.2137   20.3082 C   0  0  0  0  0  0
  -21.6870   -6.0737   22.5292 C   0  0  0  0  0  0
  -21.4023   -6.5636   23.8214 C   0  0  0  0  0  0
  -21.3671   -5.6786   24.9179 C   0  0  0  0  0  0
  -21.6068   -4.3049   24.7238 C   0  0  0  0  0  0
  -21.8832   -3.8150   23.4352 C   0  0  0  0  0  0
  -21.9210   -4.6971   22.3407 C   0  0  0  0  0  0
  -22.7831  -13.5239   21.1852 C   0  0  0  0  0  0
  -22.1673   -4.2156   21.0984 F   0  0  0  0  0  0
  -21.5638   -3.4524   25.7751 F   0  0  0  0  0  0
  -29.9849  -13.4985   20.4191 N   0  0  0  0  0  0
  -26.2919  -12.9423   20.3226 N   0  0  0  0  0  0
  -25.9326  -11.6568   20.5701 N   0  0  0  0  0  0
  -22.0407  -12.8257   22.0383 N   0  0  0  0  0  0
  -25.4300  -15.1972   20.4181 N   0  0  0  0  0  0
  -31.8239  -14.7755   20.1629 O   0  0  0  0  0  0
  -21.6668   -6.8890   21.4254 O   0  0  0  0  0  0
  -22.3514  -14.5500   20.6641 O   0  0  0  0  0  0
  -24.6274  -31.8572   23.1994 C   0  0  0  0  0  0
  -25.9115  -32.4764   23.8325 C   0  0  1  0  0  0
  -27.2240  -27.2799   20.1611 C   0  0  0  0  0  0
  -25.5918  -33.8560   24.2267 N   0  0  0  0  0  0
  -23.4223  -30.4781   21.5415 C   0  0  2  0  0  0
  -24.8696  -28.9206   20.1117 C   0  0  0  0  0  0
  -22.7463  -29.4627   22.4938 C   0  0  0  0  0  0
  -18.0285  -28.1380   22.8509 C   0  0  0  0  0  0
  -24.1493  -36.7289   23.2648 C   0  0  0  0  0  0
  -25.9621  -30.7808   21.3704 C   0  0  0  0  0  0
  -26.0346  -29.4022   20.7189 C   0  0  0  0  0  0
  -27.2106  -28.5940   20.7292 C   0  0  0  0  0  0
  -26.0370  -26.8474   19.5267 C   0  0  0  0  0  0
  -24.8763  -27.6524   19.5025 C   0  0  0  0  0  0
  -23.6362  -29.8048   20.1583 C   0  0  0  0  0  0
  -25.4126  -36.3087   24.0333 C   0  0  1  0  0  0
  -20.5879  -28.3697   23.1293 C   0  0  2  0  0  0
  -20.6773  -26.9416   22.5428 C   0  0  0  0  0  0
  -19.5760  -26.6373   21.5228 C   0  0  0  0  0  0
  -18.1923  -26.7942   22.1610 C   0  0  0  0  0  0
  -19.1539  -28.8854   23.2889 C   0  0  0  0  0  0
  -18.9454  -30.1463   23.8891 C   0  0  0  0  0  0
  -17.6455  -30.6594   24.0568 C   0  0  0  0  0  0
  -25.9058  -34.9452   23.5117 C   0  0  0  0  0  0
  -16.5348  -29.9095   23.6334 C   0  0  0  0  0  0
  -16.7272  -28.6505   23.0375 C   0  0  0  0  0  0
  -26.4500  -31.6590   25.0701 C   0  0  0  0  0  0
  -25.3721  -31.3706   26.1412 C   0  0  0  0  0  0
  -27.0373  -30.3027   24.6163 C   0  0  0  0  0  0
  -27.6041  -32.4342   25.7475 C   0  0  0  0  0  0
  -27.5599  -37.1801   24.8466 C   0  0  0  0  0  0
  -21.4175  -29.3053   22.3671 N   0  0  0  0  0  0
  -26.4307  -37.3778   23.9411 N   0  0  0  0  0  0
  -24.6891  -31.0560   22.0951 N   0  0  0  0  0  0
  -23.4173  -28.8176   23.3031 O   0  0  0  0  0  0
  -28.3614  -26.4590   20.2698 O   0  0  0  0  0  0
  -26.5634  -34.8934   22.4685 O   0  0  0  0  0  0
  -23.5431  -32.1375   23.7304 O   0  0  0  0  0  0
  -29.8584  -16.1018   20.5395 C   0  0  0  0  0  0
  -29.5162  -18.2755   20.7262 C   0  0  0  0  0  0
  -27.2727  -20.5987   20.6577 C   0  0  0  0  0  0
  -29.0418  -21.3539   19.0700 C   0  0  0  0  0  0
  -28.4858  -22.2677   22.8380 C   0  0  0  0  0  0
  -30.3839  -22.9579   21.4077 C   0  0  0  0  0  0
  -31.3714  -15.8486   23.1820 C   0  0  0  0  0  0
  -29.8835  -17.6638   23.7987 C   0  0  0  0  0  0
  -32.1113  -18.1274   22.6221 C   0  0  0  0  0  0
  -29.7213  -19.8311   21.0286 C   0  0  0  0  0  0
  -28.0153  -23.8416   20.9514 C   0  0  0  0  0  0
  -28.4280  -25.0066   19.9172 C   0  0  0  0  0  0
  -28.7432  -21.0738   20.5603 C   0  0  0  0  0  0
  -28.9027  -22.5166   21.3600 C   0  0  0  0  0  0
  -30.8617  -17.2223   22.6833 C   0  0  0  0  0  0
  -29.0377  -16.4844   19.5457 N   0  0  0  0  0  0
  -28.8456  -17.8521   19.6469 N   0  0  0  0  0  0
  -30.1252  -17.1904   21.3795 N   0  0  0  0  0  0
  -31.4718  -12.5430   19.1902 H   0  0  0  0  0  0
  -30.3538  -11.4506   19.9564 H   0  0  0  0  0  0
  -29.7974  -11.7433   17.5125 H   0  0  0  0  0  0
  -29.6770  -13.4726   17.7438 H   0  0  0  0  0  0
  -27.8933  -11.2935   18.8869 H   0  0  0  0  0  0
  -27.3965  -12.5551   17.7852 H   0  0  0  0  0  0
  -27.6275  -14.2558   19.4695 H   0  0  0  0  0  0
  -28.6886  -12.1812   21.4393 H   0  0  0  0  0  0
  -28.4134  -13.8721   21.7822 H   0  0  0  0  0  0
  -25.2794   -9.5690   22.4768 H   0  0  0  0  0  0
  -24.0078   -7.4643   22.7488 H   0  0  0  0  0  0
  -21.0895   -8.8747   19.8952 H   0  0  0  0  0  0
  -22.3746  -10.9663   19.6175 H   0  0  0  0  0  0
  -21.1990   -7.6142   23.9716 H   0  0  0  0  0  0
  -21.1485   -6.0513   25.9078 H   0  0  0  0  0  0
  -22.0600   -2.7611   23.2845 H   0  0  0  0  0  0
  -22.3998  -11.9971   22.4905 H   0  0  0  0  0  0
  -21.0967  -13.1250   22.2353 H   0  0  0  0  0  0
  -24.6867  -15.8679   20.5724 H   0  0  0  0  0  0
  -26.2943  -15.6348   20.1189 H   0  0  0  0  0  0
  -26.7172  -32.5429   23.1056 H   0  0  0  0  0  0
  -25.0092  -33.9700   25.0435 H   0  0  0  0  0  0
  -22.7187  -31.2994   21.3951 H   0  0  0  0  0  0
  -23.3777  -35.9599   23.3295 H   0  0  0  0  0  0
  -24.3571  -36.8924   22.2060 H   0  0  0  0  0  0
  -23.7217  -37.6475   23.6679 H   0  0  0  0  0  0
  -26.0926  -31.5401   20.5980 H   0  0  0  0  0  0
  -26.8428  -30.8341   21.9988 H   0  0  0  0  0  0
  -28.1029  -28.9571   21.2182 H   0  0  0  0  0  0
  -25.9776  -25.8669   19.0767 H   0  0  0  0  0  0
  -23.9778  -27.2760   19.0329 H   0  0  0  0  0  0
  -23.7547  -30.5779   19.3988 H   0  0  0  0  0  0
  -22.7545  -29.2340   19.8600 H   0  0  0  0  0  0
  -25.1313  -36.1964   25.0822 H   0  0  0  0  0  0
  -20.9979  -28.3290   24.1415 H   0  0  0  0  0  0
  -20.5703  -26.2303   23.3628 H   0  0  0  0  0  0
  -21.6647  -26.7450   22.1229 H   0  0  0  0  0  0
  -19.6932  -25.6277   21.1278 H   0  0  0  0  0  0
  -19.6719  -27.3173   20.6752 H   0  0  0  0  0  0
  -17.4215  -26.6739   21.3972 H   0  0  0  0  0  0
  -18.0274  -26.0050   22.8964 H   0  0  0  0  0  0
  -19.7916  -30.7291   24.2253 H   0  0  0  0  0  0
  -17.5005  -31.6276   24.5162 H   0  0  0  0  0  0
  -15.5361  -30.3008   23.7639 H   0  0  0  0  0  0
  -15.8671  -28.0827   22.7110 H   0  0  0  0  0  0
  -24.5915  -30.7040   25.7731 H   0  0  0  0  0  0
  -24.8879  -32.2852   26.4828 H   0  0  0  0  0  0
  -25.8029  -30.8888   27.0193 H   0  0  0  0  0  0
  -26.2962  -29.6737   24.1209 H   0  0  0  0  0  0
  -27.4123  -29.7317   25.4670 H   0  0  0  0  0  0
  -27.8796  -30.4351   23.9366 H   0  0  0  0  0  0
  -27.2649  -33.3652   26.2024 H   0  0  0  0  0  0
  -28.3846  -32.6882   25.0296 H   0  0  0  0  0  0
  -28.0710  -31.8485   26.5400 H   0  0  0  0  0  0
  -28.2615  -38.0106   24.7541 H   0  0  0  0  0  0
  -28.1107  -36.2632   24.6289 H   0  0  0  0  0  0
  -27.2299  -37.1451   25.8864 H   0  0  0  0  0  0
  -20.9351  -29.8775   21.6881 H   0  0  0  0  0  0
  -26.0211  -38.2865   24.1401 H   0  0  0  0  0  0
  -27.0567  -19.7944   19.9569 H   0  0  0  0  0  0
  -26.5584  -21.3891   20.4313 H   0  0  0  0  0  0
  -27.0434  -20.2267   21.6572 H   0  0  0  0  0  0
  -28.8622  -20.4771   18.4478 H   0  0  0  0  0  0
  -30.0839  -21.6349   18.9156 H   0  0  0  0  0  0
  -28.4235  -22.1609   18.6739 H   0  0  0  0  0  0
  -28.7307  -23.1191   23.4741 H   0  0  0  0  0  0
  -28.9752  -21.4153   23.3014 H   0  0  0  0  0  0
  -27.4085  -22.1148   22.9301 H   0  0  0  0  0  0
  -30.4905  -23.8903   21.9650 H   0  0  0  0  0  0
  -30.7960  -23.1394   20.4167 H   0  0  0  0  0  0
  -31.0234  -22.2230   21.8973 H   0  0  0  0  0  0
  -31.8222  -15.9483   24.1718 H   0  0  0  0  0  0
  -32.1634  -15.4347   22.5605 H   0  0  0  0  0  0
  -30.5681  -15.1185   23.2895 H   0  0  0  0  0  0
  -30.3556  -17.6283   24.7804 H   0  0  0  0  0  0
  -29.0269  -16.9889   23.8364 H   0  0  0  0  0  0
  -29.4830  -18.6670   23.6950 H   0  0  0  0  0  0
  -32.7107  -18.0194   23.5280 H   0  0  0  0  0  0
  -31.8900  -19.1896   22.5485 H   0  0  0  0  0  0
  -32.7561  -17.8510   21.7863 H   0  0  0  0  0  0
  -30.7271  -20.0670   20.6806 H   0  0  0  0  0  0
  -29.7987  -19.9122   22.1002 H   0  0  0  0  0  0
  -27.0104  -23.5172   20.6892 H   0  0  0  0  0  0
  -27.8449  -24.4011   21.8721 H   0  0  0  0  0  0
  -27.8985  -24.8395   18.9812 H   0  0  0  0  0  0
  -29.4729  -24.8509   19.6524 H   0  0  0  0  0  0
  1 25  1  0  0  0
  1 30  2  0  0  0
  1 71  1  0  0  0
  2  3  1  0  0  0
  2 25  1  0  0  0
  2 89  1  0  0  0
  2 90  1  0  0  0
  3  4  1  0  0  0
  3 91  1  0  0  0
  3 92  1  0  0  0
  4  5  1  0  0  0
  4 93  1  0  0  0
  4 94  1  0  0  0
  5  6  1  0  0  0
  5 26  1  0  0  0
  5 95  1  0  0  0
  6 25  1  0  0  0
  6 96  1  0  0  0
  6 97  1  0  0  0
  7  8  2  0  0  0
  7 26  1  0  0  0
  7 29  1  0  0  0
  8  9  1  0  0  0
  8 22  1  0  0  0
  9 10  1  0  0  0
  9 27  2  0  0  0
 10 11  2  0  0  0
 10 15  1  0  0  0
 11 12  1  0  0  0
 11 98  1  0  0  0
 12 13  2  0  0  0
 12 99  1  0  0  0
 13 14  1  0  0  0
 13 31  1  0  0  0
 14 15  2  0  0  0
 14100  1  0  0  0
 15101  1  0  0  0
 16 17  2  0  0  0
 16 21  1  0  0  0
 16 31  1  0  0  0
 17 18  1  0  0  0
 17102  1  0  0  0
 18 19  2  0  0  0
 18103  1  0  0  0
 19 20  1  0  0  0
 19 24  1  0  0  0
 20 21  2  0  0  0
 20104  1  0  0  0
 21 23  1  0  0  0
 22 28  1  0  0  0
 22 32  2  0  0  0
 26 27  1  0  0  0
 28105  1  0  0  0
 28106  1  0  0  0
 29107  1  0  0  0
 29108  1  0  0  0
 33 34  1  0  0  0
 33 66  1  0  0  0
 33 70  2  0  0  0
 34 36  1  0  0  0
 34 59  1  0  0  0
 34109  1  0  0  0
 35 44  2  0  0  0
 35 45  1  0  0  0
 35 68  1  0  0  0
 36 56  1  0  0  0
 36110  1  0  0  0
 37 39  1  0  0  0
 37 47  1  0  0  0
 37 66  1  0  0  0
 37111  1  0  0  0
 38 43  2  0  0  0
 38 46  1  0  0  0
 38 47  1  0  0  0
 39 64  1  0  0  0
 39 67  2  0  0  0
 40 52  1  0  0  0
 40 53  2  0  0  0
 40 58  1  0  0  0
 41112  1  0  0  0
 41113  1  0  0  0
 41114  1  0  0  0
 41 48  1  0  0  0
 42 43  1  0  0  0
 42 66  1  0  0  0
 42115  1  0  0  0
 42116  1  0  0  0
 43 44  1  0  0  0
 44117  1  0  0  0
 45 46  2  0  0  0
 45118  1  0  0  0
 46119  1  0  0  0
 47120  1  0  0  0
 47121  1  0  0  0
 48 56  1  0  0  0
 48 65  1  0  0  0
 48122  1  0  0  0
 49 50  1  0  0  0
 49 53  1  0  0  0
 49 64  1  0  0  0
 49123  1  0  0  0
 50 51  1  0  0  0
 50124  1  0  0  0
 50125  1  0  0  0
 51 52  1  0  0  0
 51126  1  0  0  0
 51127  1  0  0  0
 52128  1  0  0  0
 52129  1  0  0  0
 53 54  1  0  0  0
 54 55  2  0  0  0
 54130  1  0  0  0
 55 57  1  0  0  0
 55131  1  0  0  0
 56 69  2  0  0  0
 57 58  2  0  0  0
 57132  1  0  0  0
 58133  1  0  0  0
 59 60  1  0  0  0
 59 61  1  0  0  0
 59 62  1  0  0  0
 60134  1  0  0  0
 60135  1  0  0  0
 60136  1  0  0  0
 61137  1  0  0  0
 61138  1  0  0  0
 61139  1  0  0  0
 62140  1  0  0  0
 62141  1  0  0  0
 62142  1  0  0  0
 63 65  1  0  0  0
 63143  1  0  0  0
 63144  1  0  0  0
 63145  1  0  0  0
 64146  1  0  0  0
 65147  1  0  0  0
 68 82  1  0  0  0
 71 86  2  0  0  0
 71 88  1  0  0  0
 72 80  1  0  0  0
 72 87  2  0  0  0
 72 88  1  0  0  0
 73148  1  0  0  0
 73149  1  0  0  0
 73150  1  0  0  0
 73 83  1  0  0  0
 74 83  1  0  0  0
 74151  1  0  0  0
 74152  1  0  0  0
 74153  1  0  0  0
 75154  1  0  0  0
 75155  1  0  0  0
 75156  1  0  0  0
 75 84  1  0  0  0
 76 84  1  0  0  0
 76157  1  0  0  0
 76158  1  0  0  0
 76159  1  0  0  0
 77160  1  0  0  0
 77161  1  0  0  0
 77162  1  0  0  0
 77 85  1  0  0  0
 78 85  1  0  0  0
 78163  1  0  0  0
 78164  1  0  0  0
 78165  1  0  0  0
 79 85  1  0  0  0
 79166  1  0  0  0
 79167  1  0  0  0
 79168  1  0  0  0
 80 83  1  0  0  0
 80169  1  0  0  0
 80170  1  0  0  0
 81 82  1  0  0  0
 81 84  1  0  0  0
 81171  1  0  0  0
 81172  1  0  0  0
 82173  1  0  0  0
 82174  1  0  0  0
 83 84  1  0  0  0
 85 88  1  0  0  0
 86 87  1  0  0  0
M  ISO  4   1 100  68 101  71 100  82 101
M  END
> <chiral flag>
0

> <version>
0

> <s_m_source_file>
/data/baiqing/PycharmProjects/Reinvent-master-3.2/result/LINK_invent/BTK/process_docking_weight1_custom_sum_contain_oxygen_bond_distance_aromatic_linkinvent_7_9_3/rearranged_h_0065.sdf

> <i_m_source_file_index>
74

> <r_mmod_Potential_Energy-OPLS-2005>
512.426452636719

> <r_mmod_Stretch_Energy-OPLS-2005>
159.066528320312

> <r_mmod_Bend_Energy-OPLS-2005>
253.716262817383

> <r_mmod_Torsional_Energy-OPLS-2005>
308.478179931641

> <r_mmod_Improper_Torsional_Energy-OPLS-2005>
9.6705961227417

> <r_mmod_Van_der_Waal_Energy-OPLS-2005>
127.259498596191

> <r_mmod_Electrostatic_Energy-OPLS-2005>
-237.342697143555

> <r_mmod_Solvation_Energy-OPLS-2005>
-183.300048828125

> <b_mmod_Minimization_Converged-OPLS-2005>
0

> <r_mmod_RMS_Derivative-OPLS-2005>
4.01986026763916

$$$$
79
                    3D
 Structure written by MMmdl.
179187  0  0  1  0            999 V2000
  -30.8686  -14.5502   20.4404 C   0  0  0  0  0  0
  -30.3269  -12.3416   19.4950 C   0  0  0  0  0  0
  -29.4628  -12.4807   18.2329 C   0  0  0  0  0  0
  -27.9949  -12.3440   18.6464 C   0  0  0  0  0  0
  -27.6214  -13.2620   19.8409 C   0  0  2  0  0  0
  -28.6717  -13.2846   20.9766 C   0  0  0  0  0  0
  -25.2345  -13.8158   20.5726 C   0  0  0  0  0  0
  -24.1683  -13.0362   20.9220 C   0  0  0  0  0  0
  -24.6375  -11.6890   20.8797 C   0  0  0  0  0  0
  -23.9070  -10.4264   21.0436 C   0  0  0  0  0  0
  -24.3615   -9.4187   21.9209 C   0  0  0  0  0  0
  -23.6284   -8.2222   22.0762 C   0  0  0  0  0  0
  -22.4273   -8.0266   21.3529 C   0  0  0  0  0  0
  -21.9913   -9.0244   20.4634 C   0  0  0  0  0  0
  -22.7242  -10.2125   20.3073 C   0  0  0  0  0  0
  -21.6862   -6.0719   22.5271 C   0  0  0  0  0  0
  -21.4005   -6.5631   23.8196 C   0  0  0  0  0  0
  -21.3666   -5.6796   24.9170 C   0  0  0  0  0  0
  -21.6039   -4.3053   24.7225 C   0  0  0  0  0  0
  -21.8825   -3.8135   23.4351 C   0  0  0  0  0  0
  -21.9191   -4.6943   22.3404 C   0  0  0  0  0  0
  -22.7716  -13.5130   21.1871 C   0  0  0  0  0  0
  -22.1655   -4.2121   21.0984 F   0  0  0  0  0  0
  -21.5651   -3.4556   25.7750 F   0  0  0  0  0  0
  -29.9926  -13.4931   20.3794 N   0  0  0  0  0  0
  -26.2857  -12.9491   20.3378 N   0  0  0  0  0  0
  -25.9339  -11.6597   20.5863 N   0  0  0  0  0  0
  -22.0400  -12.8121   22.0458 N   0  0  0  0  0  0
  -25.3952  -15.1806   20.4080 N   0  0  0  0  0  0
  -32.0283  -14.2593   20.1581 O   0  0  0  0  0  0
  -21.6628   -6.8868   21.4232 O   0  0  0  0  0  0
  -22.3403  -14.5457   20.6770 O   0  0  0  0  0  0
  -24.6188  -31.8644   23.2061 C   0  0  0  0  0  0
  -25.9063  -32.4800   23.8389 C   0  0  1  0  0  0
  -27.2020  -27.3741   20.1164 C   0  0  0  0  0  0
  -25.5906  -33.8588   24.2330 N   0  0  0  0  0  0
  -23.4096  -30.4891   21.5489 C   0  0  2  0  0  0
  -24.8492  -28.9521   20.1107 C   0  0  0  0  0  0
  -22.7443  -29.4652   22.4968 C   0  0  0  0  0  0
  -18.0289  -28.1389   22.8466 C   0  0  0  0  0  0
  -24.1486  -36.7309   23.2643 C   0  0  0  0  0  0
  -25.9439  -30.8166   21.3621 C   0  0  0  0  0  0
  -26.0157  -29.4474   20.7073 C   0  0  0  0  0  0
  -27.2010  -28.6679   20.6992 C   0  0  0  0  0  0
  -26.0247  -26.9131   19.4979 C   0  0  0  0  0  0
  -24.8539  -27.6910   19.4942 C   0  0  0  0  0  0
  -23.6161  -29.8267   20.1614 C   0  0  0  0  0  0
  -25.4109  -36.3087   24.0338 C   0  0  1  0  0  0
  -20.5871  -28.3690   23.1307 C   0  0  2  0  0  0
  -20.6750  -26.9414   22.5445 C   0  0  0  0  0  0
  -19.5751  -26.6363   21.5222 C   0  0  0  0  0  0
  -18.1926  -26.7929   22.1602 C   0  0  0  0  0  0
  -19.1534  -28.8848   23.2872 C   0  0  0  0  0  0
  -18.9465  -30.1435   23.8893 C   0  0  0  0  0  0
  -17.6485  -30.6584   24.0561 C   0  0  0  0  0  0
  -25.9041  -34.9451   23.5121 C   0  0  0  0  0  0
  -16.5367  -29.9099   23.6322 C   0  0  0  0  0  0
  -16.7275  -28.6519   23.0310 C   0  0  0  0  0  0
  -26.4456  -31.6571   25.0719 C   0  0  0  0  0  0
  -25.3726  -31.3666   26.1462 C   0  0  0  0  0  0
  -27.0303  -30.3026   24.6088 C   0  0  0  0  0  0
  -27.6033  -32.4270   25.7480 C   0  0  0  0  0  0
  -27.5576  -37.1806   24.8461 C   0  0  0  0  0  0
  -21.4156  -29.3095   22.3752 N   0  0  0  0  0  0
  -26.4301  -37.3771   23.9399 N   0  0  0  0  0  0
  -24.6769  -31.0717   22.0984 N   0  0  0  0  0  0
  -23.4203  -28.8147   23.2983 O   0  0  0  0  0  0
  -28.3178  -26.5578   20.1318 O   0  0  0  0  0  0
  -26.5598  -34.8891   22.4683 O   0  0  0  0  0  0
  -23.5372  -32.1388   23.7453 O   0  0  0  0  0  0
  -29.8849  -18.5025   20.8878 C   0  0  0  0  0  0
  -27.3386  -17.7966   20.7122 C   0  0  0  0  0  0
  -29.5568  -17.1135   20.8009 C   0  0  0  0  0  0
  -27.6933  -19.1880   20.7103 C   0  0  0  0  0  0
  -27.2926  -22.2271   24.0113 C   0  0  0  0  0  0
  -24.3910  -22.1444   22.4077 C   0  0  0  0  0  0
  -31.7339  -16.4286   21.8536 C   0  0  0  0  0  0
  -31.4502  -16.6822   19.3172 C   0  0  0  0  0  0
  -25.2603  -19.8483   20.5342 C   0  0  0  0  0  0
  -26.8628  -20.8210   18.9698 C   0  0  0  0  0  0
  -27.2724  -21.1965   22.8617 C   0  0  0  0  0  0
  -25.5954  -22.5902   21.5354 C   0  0  0  0  0  0
  -27.8514  -23.9900   20.1280 C   0  0  0  0  0  0
  -28.0861  -22.6581   20.9499 C   0  0  0  0  0  0
  -28.1912  -25.3220   20.8943 C   0  0  0  0  0  0
  -30.7845  -16.1436   20.6453 C   0  0  0  0  0  0
  -26.7097  -20.3976   20.4492 C   0  0  0  0  0  0
  -26.8920  -21.6960   21.4262 C   0  0  0  0  0  0
  -28.2476  -16.7605   20.7208 N   0  0  0  0  0  0
  -28.9967  -19.5106   20.7864 N   0  0  0  0  0  0
  -31.3742  -12.2596   19.2042 H   0  0  0  0  0  0
  -30.1107  -11.4011   20.0031 H   0  0  0  0  0  0
  -29.7232  -11.7159   17.4996 H   0  0  0  0  0  0
  -29.6343  -13.4440   17.7506 H   0  0  0  0  0  0
  -27.8356  -11.3013   18.9170 H   0  0  0  0  0  0
  -27.3375  -12.5391   17.7979 H   0  0  0  0  0  0
  -27.5906  -14.2692   19.4252 H   0  0  0  0  0  0
  -28.4458  -14.0828   21.6856 H   0  0  0  0  0  0
  -28.6572  -12.3521   21.5427 H   0  0  0  0  0  0
  -25.2762   -9.5674   22.4767 H   0  0  0  0  0  0
  -24.0001   -7.4630   22.7491 H   0  0  0  0  0  0
  -21.0847   -8.8746   19.8948 H   0  0  0  0  0  0
  -22.3691  -10.9655   19.6180 H   0  0  0  0  0  0
  -21.1989   -7.6140   23.9687 H   0  0  0  0  0  0
  -21.1484   -6.0534   25.9069 H   0  0  0  0  0  0
  -22.0601   -2.7594   23.2864 H   0  0  0  0  0  0
  -22.4041  -11.9767   22.4769 H   0  0  0  0  0  0
  -21.1031  -13.1124   22.2713 H   0  0  0  0  0  0
  -24.6447  -15.8456   20.5570 H   0  0  0  0  0  0
  -26.2970  -15.6093   20.2255 H   0  0  0  0  0  0
  -26.7149  -32.5499   23.1175 H   0  0  0  0  0  0
  -25.0053  -33.9740   25.0464 H   0  0  0  0  0  0
  -22.7000  -31.3084   21.4149 H   0  0  0  0  0  0
  -23.3729  -35.9661   23.3305 H   0  0  0  0  0  0
  -24.3599  -36.8901   22.2059 H   0  0  0  0  0  0
  -23.7241  -37.6520   23.6655 H   0  0  0  0  0  0
  -26.0591  -31.5853   20.5959 H   0  0  0  0  0  0
  -26.8314  -30.8692   21.9835 H   0  0  0  0  0  0
  -28.0995  -29.0432   21.1697 H   0  0  0  0  0  0
  -26.0004  -25.9505   19.0134 H   0  0  0  0  0  0
  -23.9603  -27.3093   19.0191 H   0  0  0  0  0  0
  -23.7326  -30.6032   19.4038 H   0  0  0  0  0  0
  -22.7343  -29.2542   19.8635 H   0  0  0  0  0  0
  -25.1275  -36.1977   25.0839 H   0  0  0  0  0  0
  -20.9911  -28.3237   24.1452 H   0  0  0  0  0  0
  -20.5580  -26.2322   23.3658 H   0  0  0  0  0  0
  -21.6624  -26.7416   22.1266 H   0  0  0  0  0  0
  -19.6911  -25.6272   21.1243 H   0  0  0  0  0  0
  -19.6685  -27.3178   20.6759 H   0  0  0  0  0  0
  -17.4192  -26.6677   21.3997 H   0  0  0  0  0  0
  -18.0338  -26.0098   22.9033 H   0  0  0  0  0  0
  -19.7964  -30.7213   24.2257 H   0  0  0  0  0  0
  -17.5076  -31.6247   24.5203 H   0  0  0  0  0  0
  -15.5375  -30.3001   23.7671 H   0  0  0  0  0  0
  -15.8683  -28.0858   22.6985 H   0  0  0  0  0  0
  -24.5904  -30.6996   25.7805 H   0  0  0  0  0  0
  -24.8921  -32.2816   26.4944 H   0  0  0  0  0  0
  -25.8085  -30.8832   27.0208 H   0  0  0  0  0  0
  -26.2879  -29.6786   24.1102 H   0  0  0  0  0  0
  -27.4033  -29.7241   25.4539 H   0  0  0  0  0  0
  -27.8710  -30.4343   23.9275 H   0  0  0  0  0  0
  -27.2677  -33.3554   26.2105 H   0  0  0  0  0  0
  -28.3843  -32.6834   25.0313 H   0  0  0  0  0  0
  -28.0711  -31.8367   26.5365 H   0  0  0  0  0  0
  -28.2595  -38.0098   24.7492 H   0  0  0  0  0  0
  -28.1067  -36.2621   24.6316 H   0  0  0  0  0  0
  -27.2296  -37.1487   25.8864 H   0  0  0  0  0  0
  -20.9325  -29.8971   21.7102 H   0  0  0  0  0  0
  -26.0177  -38.2846   24.1396 H   0  0  0  0  0  0
  -30.9027  -18.8561   20.9472 H   0  0  0  0  0  0
  -26.3065  -17.4997   20.6577 H   0  0  0  0  0  0
  -26.3169  -22.6685   24.2040 H   0  0  0  0  0  0
  -27.9956  -23.0414   23.8409 H   0  0  0  0  0  0
  -27.5962  -21.7347   24.9331 H   0  0  0  0  0  0
  -24.5682  -21.2423   22.9893 H   0  0  0  0  0  0
  -23.5054  -21.9688   21.7952 H   0  0  0  0  0  0
  -24.1212  -22.9306   23.1152 H   0  0  0  0  0  0
  -32.5926  -15.7582   21.9232 H   0  0  0  0  0  0
  -32.1886  -17.4146   21.8159 H   0  0  0  0  0  0
  -31.1959  -16.3481   22.7995 H   0  0  0  0  0  0
  -31.7143  -17.7344   19.3420 H   0  0  0  0  0  0
  -32.3922  -16.2170   19.0281 H   0  0  0  0  0  0
  -30.7709  -16.5470   18.4736 H   0  0  0  0  0  0
  -25.0900  -19.0371   19.8282 H   0  0  0  0  0  0
  -24.5141  -20.5915   20.2645 H   0  0  0  0  0  0
  -25.0258  -19.4664   21.5266 H   0  0  0  0  0  0
  -27.8926  -21.0678   18.7176 H   0  0  0  0  0  0
  -26.2444  -21.6878   18.7364 H   0  0  0  0  0  0
  -26.5668  -20.0241   18.2850 H   0  0  0  0  0  0
  -26.6008  -20.3900   23.1534 H   0  0  0  0  0  0
  -28.2654  -20.7489   22.8480 H   0  0  0  0  0  0
  -25.8855  -23.5624   21.9325 H   0  0  0  0  0  0
  -25.2134  -22.8110   20.5394 H   0  0  0  0  0  0
  -28.5052  -23.9438   19.2549 H   0  0  0  0  0  0
  -26.8517  -24.0247   19.7052 H   0  0  0  0  0  0
  -28.6824  -22.9425   21.8110 H   0  0  0  0  0  0
  -28.8162  -22.0717   20.3958 H   0  0  0  0  0  0
  -29.1603  -25.1856   21.3752 H   0  0  0  0  0  0
  -27.4901  -25.4679   21.7195 H   0  0  0  0  0  0
  1 25  1  0  0  0
  1 30  2  0  0  0
  1 86  1  0  0  0
  2  3  1  0  0  0
  2 25  1  0  0  0
  2 91  1  0  0  0
  2 92  1  0  0  0
  3  4  1  0  0  0
  3 93  1  0  0  0
  3 94  1  0  0  0
  4  5  1  0  0  0
  4 95  1  0  0  0
  4 96  1  0  0  0
  5  6  1  0  0  0
  5 26  1  0  0  0
  5 97  1  0  0  0
  6 25  1  0  0  0
  6 98  1  0  0  0
  6 99  1  0  0  0
  7  8  2  0  0  0
  7 26  1  0  0  0
  7 29  1  0  0  0
  8  9  1  0  0  0
  8 22  1  0  0  0
  9 10  1  0  0  0
  9 27  2  0  0  0
 10 11  2  0  0  0
 10 15  1  0  0  0
 11 12  1  0  0  0
 11100  1  0  0  0
 12 13  2  0  0  0
 12101  1  0  0  0
 13 14  1  0  0  0
 13 31  1  0  0  0
 14 15  2  0  0  0
 14102  1  0  0  0
 15103  1  0  0  0
 16 17  2  0  0  0
 16 21  1  0  0  0
 16 31  1  0  0  0
 17 18  1  0  0  0
 17104  1  0  0  0
 18 19  2  0  0  0
 18105  1  0  0  0
 19 20  1  0  0  0
 19 24  1  0  0  0
 20 21  2  0  0  0
 20106  1  0  0  0
 21 23  1  0  0  0
 22 28  1  0  0  0
 22 32  2  0  0  0
 26 27  1  0  0  0
 28107  1  0  0  0
 28108  1  0  0  0
 29109  1  0  0  0
 29110  1  0  0  0
 33 34  1  0  0  0
 33 66  1  0  0  0
 33 70  2  0  0  0
 34 36  1  0  0  0
 34 59  1  0  0  0
 34111  1  0  0  0
 35 44  2  0  0  0
 35 45  1  0  0  0
 35 68  1  0  0  0
 36 56  1  0  0  0
 36112  1  0  0  0
 37 39  1  0  0  0
 37 47  1  0  0  0
 37 66  1  0  0  0
 37113  1  0  0  0
 38 43  2  0  0  0
 38 46  1  0  0  0
 38 47  1  0  0  0
 39 64  1  0  0  0
 39 67  2  0  0  0
 40 52  1  0  0  0
 40 53  2  0  0  0
 40 58  1  0  0  0
 41114  1  0  0  0
 41115  1  0  0  0
 41116  1  0  0  0
 41 48  1  0  0  0
 42 43  1  0  0  0
 42 66  1  0  0  0
 42117  1  0  0  0
 42118  1  0  0  0
 43 44  1  0  0  0
 44119  1  0  0  0
 45 46  2  0  0  0
 45120  1  0  0  0
 46121  1  0  0  0
 47122  1  0  0  0
 47123  1  0  0  0
 48 56  1  0  0  0
 48 65  1  0  0  0
 48124  1  0  0  0
 49 50  1  0  0  0
 49 53  1  0  0  0
 49 64  1  0  0  0
 49125  1  0  0  0
 50 51  1  0  0  0
 50126  1  0  0  0
 50127  1  0  0  0
 51 52  1  0  0  0
 51128  1  0  0  0
 51129  1  0  0  0
 52130  1  0  0  0
 52131  1  0  0  0
 53 54  1  0  0  0
 54 55  2  0  0  0
 54132  1  0  0  0
 55 57  1  0  0  0
 55133  1  0  0  0
 56 69  2  0  0  0
 57 58  2  0  0  0
 57134  1  0  0  0
 58135  1  0  0  0
 59 60  1  0  0  0
 59 61  1  0  0  0
 59 62  1  0  0  0
 60136  1  0  0  0
 60137  1  0  0  0
 60138  1  0  0  0
 61139  1  0  0  0
 61140  1  0  0  0
 61141  1  0  0  0
 62142  1  0  0  0
 62143  1  0  0  0
 62144  1  0  0  0
 63 65  1  0  0  0
 63145  1  0  0  0
 63146  1  0  0  0
 63147  1  0  0  0
 64148  1  0  0  0
 65149  1  0  0  0
 68 85  1  0  0  0
 71 73  2  0  0  0
 71 90  1  0  0  0
 71150  1  0  0  0
 72 74  1  0  0  0
 72 89  2  0  0  0
 72151  1  0  0  0
 73 86  1  0  0  0
 73 89  1  0  0  0
 74 87  1  0  0  0
 74 90  2  0  0  0
 75 81  1  0  0  0
 75152  1  0  0  0
 75153  1  0  0  0
 75154  1  0  0  0
 76 82  1  0  0  0
 76155  1  0  0  0
 76156  1  0  0  0
 76157  1  0  0  0
 77158  1  0  0  0
 77159  1  0  0  0
 77160  1  0  0  0
 77 86  1  0  0  0
 78 86  1  0  0  0
 78161  1  0  0  0
 78162  1  0  0  0
 78163  1  0  0  0
 79164  1  0  0  0
 79165  1  0  0  0
 79166  1  0  0  0
 79 87  1  0  0  0
 80 87  1  0  0  0
 80167  1  0  0  0
 80168  1  0  0  0
 80169  1  0  0  0
 81170  1  0  0  0
 81171  1  0  0  0
 81 88  1  0  0  0
 82 88  1  0  0  0
 82172  1  0  0  0
 82173  1  0  0  0
 83 84  1  0  0  0
 83 85  1  0  0  0
 83174  1  0  0  0
 83175  1  0  0  0
 84 88  1  0  0  0
 84176  1  0  0  0
 84177  1  0  0  0
 85178  1  0  0  0
 85179  1  0  0  0
 87 88  1  0  0  0
M  ISO  4   1 100  68 101  85 101  86 100
M  END
> <chiral flag>
0

> <version>
0

> <s_m_source_file>
/data/baiqing/PycharmProjects/Reinvent-master-3.2/result/LINK_invent/BTK/process_docking_weight1_custom_sum_contain_oxygen_bond_distance_aromatic_linkinvent_7_9_3/rearranged_h_0065.sdf

> <i_m_source_file_index>
75

> <r_mmod_Potential_Energy-OPLS-2005>
557.650268554688

> <r_mmod_Stretch_Energy-OPLS-2005>
101.522361755371

> <r_mmod_Bend_Energy-OPLS-2005>
301.278717041016

> <r_mmod_Torsional_Energy-OPLS-2005>
264.136535644531

> <r_mmod_Improper_Torsional_Energy-OPLS-2005>
4.03802490234375

> <r_mmod_Van_der_Waal_Energy-OPLS-2005>
218.13117980957

> <r_mmod_Electrostatic_Energy-OPLS-2005>
-244.46940612793

> <r_mmod_Solvation_Energy-OPLS-2005>
-161.670837402344

> <b_mmod_Minimization_Converged-OPLS-2005>
0

> <r_mmod_RMS_Derivative-OPLS-2005>
4.13003349304199

$$$$
81
                    3D
 Structure written by MMmdl.
177185  0  0  1  0            999 V2000
  -30.6422  -14.5660   20.4965 C   0  0  0  0  0  0
  -30.4549  -12.3423   19.4283 C   0  0  0  0  0  0
  -29.4970  -12.3920   18.2218 C   0  0  0  0  0  0
  -28.0053  -12.3605   18.6429 C   0  0  0  0  0  0
  -27.6712  -13.1781   19.9190 C   0  0  2  0  0  0
  -28.7383  -12.9434   21.0018 C   0  0  0  0  0  0
  -25.2682  -13.8031   20.5785 C   0  0  0  0  0  0
  -24.1916  -13.0384   20.9166 C   0  0  0  0  0  0
  -24.6431  -11.6805   20.8841 C   0  0  0  0  0  0
  -23.9093  -10.4236   21.0464 C   0  0  0  0  0  0
  -24.3639   -9.4123   21.9211 C   0  0  0  0  0  0
  -23.6299   -8.2189   22.0761 C   0  0  0  0  0  0
  -22.4263   -8.0259   21.3532 C   0  0  0  0  0  0
  -21.9926   -9.0239   20.4640 C   0  0  0  0  0  0
  -22.7280  -10.2106   20.3098 C   0  0  0  0  0  0
  -21.6824   -6.0733   22.5267 C   0  0  0  0  0  0
  -21.3988   -6.5647   23.8190 C   0  0  0  0  0  0
  -21.3678   -5.6811   24.9164 C   0  0  0  0  0  0
  -21.6063   -4.3067   24.7220 C   0  0  0  0  0  0
  -21.8834   -3.8139   23.4344 C   0  0  0  0  0  0
  -21.9189   -4.6958   22.3390 C   0  0  0  0  0  0
  -22.7944  -13.5183   21.1794 C   0  0  0  0  0  0
  -22.1669   -4.2152   21.0960 F   0  0  0  0  0  0
  -21.5657   -3.4570   25.7742 F   0  0  0  0  0  0
  -30.0182  -13.3528   20.4037 N   0  0  0  0  0  0
  -26.3138  -12.9169   20.3756 N   0  0  0  0  0  0
  -25.9379  -11.6359   20.6114 N   0  0  0  0  0  0
  -22.0608  -12.8186   22.0354 N   0  0  0  0  0  0
  -25.4457  -15.1768   20.4144 N   0  0  0  0  0  0
  -31.8144  -14.6979   20.1197 O   0  0  0  0  0  0
  -21.6620   -6.8869   21.4220 O   0  0  0  0  0  0
  -22.3655  -14.5534   20.6671 O   0  0  0  0  0  0
  -24.6186  -31.8649   23.2084 C   0  0  0  0  0  0
  -25.9071  -32.4809   23.8392 C   0  0  1  0  0  0
  -27.2393  -27.4257   20.0790 C   0  0  0  0  0  0
  -25.5916  -33.8609   24.2313 N   0  0  0  0  0  0
  -23.4081  -30.4888   21.5456 C   0  0  2  0  0  0
  -24.8521  -28.9485   20.1144 C   0  0  0  0  0  0
  -22.7435  -29.4649   22.4946 C   0  0  0  0  0  0
  -18.0282  -28.1402   22.8479 C   0  0  0  0  0  0
  -24.1479  -36.7345   23.2630 C   0  0  0  0  0  0
  -25.9363  -30.8249   21.3617 C   0  0  0  0  0  0
  -26.0104  -29.4548   20.7158 C   0  0  0  0  0  0
  -27.2009  -28.6949   20.7034 C   0  0  0  0  0  0
  -26.0642  -26.9396   19.4628 C   0  0  0  0  0  0
  -24.8728  -27.6897   19.4909 C   0  0  0  0  0  0
  -23.6207  -29.8217   20.1594 C   0  0  0  0  0  0
  -25.4098  -36.3103   24.0315 C   0  0  1  0  0  0
  -20.5875  -28.3702   23.1289 C   0  0  2  0  0  0
  -20.6769  -26.9431   22.5411 C   0  0  0  0  0  0
  -19.5744  -26.6403   21.5212 C   0  0  0  0  0  0
  -18.1920  -26.7951   22.1615 C   0  0  0  0  0  0
  -19.1532  -28.8868   23.2885 C   0  0  0  0  0  0
  -18.9462  -30.1463   23.8915 C   0  0  0  0  0  0
  -17.6470  -30.6600   24.0591 C   0  0  0  0  0  0
  -25.9037  -34.9469   23.5116 C   0  0  0  0  0  0
  -16.5357  -29.9123   23.6315 C   0  0  0  0  0  0
  -16.7272  -28.6538   23.0327 C   0  0  0  0  0  0
  -26.4494  -31.6615   25.0749 C   0  0  0  0  0  0
  -25.3765  -31.3772   26.1514 C   0  0  0  0  0  0
  -27.0325  -30.3046   24.6159 C   0  0  0  0  0  0
  -27.6059  -32.4344   25.7539 C   0  0  0  0  0  0
  -27.5575  -37.1821   24.8452 C   0  0  0  0  0  0
  -21.4156  -29.3065   22.3702 N   0  0  0  0  0  0
  -26.4283  -37.3795   23.9402 N   0  0  0  0  0  0
  -24.6728  -31.0735   22.0989 N   0  0  0  0  0  0
  -23.4200  -28.8164   23.2984 O   0  0  0  0  0  0
  -28.4339  -26.7323   20.1033 O   0  0  0  0  0  0
  -26.5579  -34.8926   22.4662 O   0  0  0  0  0  0
  -23.5365  -32.1409   23.7457 O   0  0  0  0  0  0
  -32.5502  -20.5959   18.9100 C   0  0  0  0  0  0
  -31.7761  -19.5791   18.3404 C   0  0  0  0  0  0
  -31.9009  -21.6363   19.5935 C   0  0  0  0  0  0
  -30.3656  -19.6180   18.4844 C   0  0  0  0  0  0
  -30.4929  -21.6565   19.6218 C   0  0  0  0  0  0
  -32.7418  -22.6829   20.2931 C   0  0  0  0  0  0
  -30.2111  -17.8747   16.7164 C   0  0  0  0  0  0
  -28.2070  -19.2677   17.2042 C   0  0  0  0  0  0
  -27.7936  -18.0660   19.8484 C   0  0  0  0  0  0
  -28.2142  -16.3011   18.1804 C   0  0  0  0  0  0
  -29.2187  -15.9290   21.9602 C   0  0  0  0  0  0
  -27.9136  -24.2832   20.2981 C   0  0  0  0  0  0
  -30.0712  -16.9294   19.8616 C   0  0  0  0  0  0
  -28.5644  -25.4360   19.4971 C   0  0  0  0  0  0
  -28.4097  -22.8726   19.8952 C   0  0  0  0  0  0
  -29.4208  -18.5454   17.8794 C   0  0  0  0  0  0
  -28.9033  -17.4612   18.9388 C   0  0  0  0  0  0
  -29.7599  -20.6454   19.1190 N   0  0  0  0  0  0
  -29.8394  -15.6722   20.6492 N   0  0  0  0  0  0
  -29.8162  -22.7395   20.1554 O   0  0  0  0  0  0
  -31.4712  -12.5084   19.0658 H   0  0  0  0  0  0
  -30.4636  -11.3653   19.9111 H   0  0  0  0  0  0
  -29.7105  -11.5482   17.5642 H   0  0  0  0  0  0
  -29.7034  -13.2809   17.6257 H   0  0  0  0  0  0
  -27.7156  -11.3187   18.7995 H   0  0  0  0  0  0
  -27.3913  -12.7223   17.8206 H   0  0  0  0  0  0
  -27.7221  -14.2299   19.6891 H   0  0  0  0  0  0
  -28.7654  -11.8866   21.2711 H   0  0  0  0  0  0
  -28.5308  -13.4532   21.9355 H   0  0  0  0  0  0
  -25.2821   -9.5563   22.4764 H   0  0  0  0  0  0
  -23.9998   -7.4570   22.7484 H   0  0  0  0  0  0
  -21.0880   -8.8783   19.8916 H   0  0  0  0  0  0
  -22.3802  -10.9669   19.6203 H   0  0  0  0  0  0
  -21.1938   -7.6126   23.9716 H   0  0  0  0  0  0
  -21.1525   -6.0515   25.9070 H   0  0  0  0  0  0
  -22.0591   -2.7590   23.2861 H   0  0  0  0  0  0
  -22.4315  -11.9840   22.4659 H   0  0  0  0  0  0
  -21.1234  -13.1180   22.2602 H   0  0  0  0  0  0
  -24.6870  -15.8363   20.5316 H   0  0  0  0  0  0
  -26.3168  -15.6146   20.1471 H   0  0  0  0  0  0
  -26.7151  -32.5518   23.1160 H   0  0  0  0  0  0
  -25.0109  -33.9771   25.0490 H   0  0  0  0  0  0
  -22.6994  -31.3055   21.4007 H   0  0  0  0  0  0
  -23.3715  -35.9707   23.3288 H   0  0  0  0  0  0
  -24.3571  -36.8984   22.2045 H   0  0  0  0  0  0
  -23.7271  -37.6561   23.6667 H   0  0  0  0  0  0
  -26.0346  -31.5784   20.5787 H   0  0  0  0  0  0
  -26.8328  -30.8946   21.9688 H   0  0  0  0  0  0
  -28.0990  -29.0779   21.1680 H   0  0  0  0  0  0
  -26.0437  -25.9906   18.9480 H   0  0  0  0  0  0
  -23.9830  -27.2987   19.0146 H   0  0  0  0  0  0
  -23.7504  -30.5963   19.4022 H   0  0  0  0  0  0
  -22.7441  -29.2506   19.8499 H   0  0  0  0  0  0
  -25.1267  -36.1961   25.0809 H   0  0  0  0  0  0
  -20.9958  -28.3276   24.1412 H   0  0  0  0  0  0
  -20.5658  -26.2321   23.3612 H   0  0  0  0  0  0
  -21.6639  -26.7458   22.1217 H   0  0  0  0  0  0
  -19.6905  -25.6310   21.1253 H   0  0  0  0  0  0
  -19.6678  -27.3212   20.6736 H   0  0  0  0  0  0
  -17.4186  -26.6694   21.4019 H   0  0  0  0  0  0
  -18.0316  -26.0102   22.9017 H   0  0  0  0  0  0
  -19.7941  -30.7268   24.2306 H   0  0  0  0  0  0
  -17.5028  -31.6265   24.5221 H   0  0  0  0  0  0
  -15.5367  -30.3047   23.7612 H   0  0  0  0  0  0
  -15.8669  -28.0889   22.7021 H   0  0  0  0  0  0
  -24.5892  -30.7149   25.7893 H   0  0  0  0  0  0
  -24.9022  -32.2968   26.4962 H   0  0  0  0  0  0
  -25.8120  -30.8951   27.0280 H   0  0  0  0  0  0
  -26.2885  -29.6815   24.1182 H   0  0  0  0  0  0
  -27.4050  -29.7273   25.4637 H   0  0  0  0  0  0
  -27.8740  -30.4358   23.9347 H   0  0  0  0  0  0
  -27.2660  -33.3622   26.2165 H   0  0  0  0  0  0
  -28.3877  -32.6949   25.0389 H   0  0  0  0  0  0
  -28.0735  -31.8453   26.5448 H   0  0  0  0  0  0
  -28.2572  -38.0129   24.7475 H   0  0  0  0  0  0
  -28.1073  -36.2655   24.6279 H   0  0  0  0  0  0
  -27.2293  -37.1488   25.8853 H   0  0  0  0  0  0
  -20.9332  -29.8848   21.6972 H   0  0  0  0  0  0
  -26.0157  -38.2862   24.1423 H   0  0  0  0  0  0
  -33.6276  -20.5672   18.8251 H   0  0  0  0  0  0
  -32.3034  -18.8012   17.8066 H   0  0  0  0  0  0
  -33.4391  -22.1769   20.9625 H   0  0  0  0  0  0
  -32.1338  -23.3588   20.8938 H   0  0  0  0  0  0
  -33.3262  -23.2681   19.5793 H   0  0  0  0  0  0
  -30.6428  -18.6488   16.0803 H   0  0  0  0  0  0
  -29.5947  -17.2711   16.0565 H   0  0  0  0  0  0
  -31.0398  -17.2487   17.0538 H   0  0  0  0  0  0
  -28.5212  -19.8909   16.3672 H   0  0  0  0  0  0
  -27.6692  -19.9170   17.8964 H   0  0  0  0  0  0
  -27.4588  -18.5792   16.8213 H   0  0  0  0  0  0
  -27.4368  -17.3723   20.6080 H   0  0  0  0  0  0
  -26.9050  -18.3204   19.2718 H   0  0  0  0  0  0
  -28.1271  -18.9634   20.3692 H   0  0  0  0  0  0
  -27.3151  -15.9962   18.7018 H   0  0  0  0  0  0
  -28.8646  -15.4415   18.0622 H   0  0  0  0  0  0
  -27.8579  -16.5554   17.1854 H   0  0  0  0  0  0
  -29.2001  -16.9883   22.2276 H   0  0  0  0  0  0
  -29.7216  -15.4099   22.7799 H   0  0  0  0  0  0
  -28.1760  -15.6176   21.9512 H   0  0  0  0  0  0
  -26.8325  -24.3160   20.1700 H   0  0  0  0  0  0
  -28.0904  -24.4260   21.3619 H   0  0  0  0  0  0
  -30.3577  -17.7352   20.5429 H   0  0  0  0  0  0
  -30.9544  -16.8074   19.2361 H   0  0  0  0  0  0
  -28.2420  -25.4446   18.4538 H   0  0  0  0  0  0
  -29.6391  -25.2495   19.4611 H   0  0  0  0  0  0
  -28.1668  -22.6992   18.8446 H   0  0  0  0  0  0
  -27.8708  -22.1126   20.4652 H   0  0  0  0  0  0
  1 25  1  0  0  0
  1 30  2  0  0  0
  1 89  1  0  0  0
  2  3  1  0  0  0
  2 25  1  0  0  0
  2 91  1  0  0  0
  2 92  1  0  0  0
  3  4  1  0  0  0
  3 93  1  0  0  0
  3 94  1  0  0  0
  4  5  1  0  0  0
  4 95  1  0  0  0
  4 96  1  0  0  0
  5  6  1  0  0  0
  5 26  1  0  0  0
  5 97  1  0  0  0
  6 25  1  0  0  0
  6 98  1  0  0  0
  6 99  1  0  0  0
  7  8  2  0  0  0
  7 26  1  0  0  0
  7 29  1  0  0  0
  8  9  1  0  0  0
  8 22  1  0  0  0
  9 10  1  0  0  0
  9 27  2  0  0  0
 10 11  2  0  0  0
 10 15  1  0  0  0
 11 12  1  0  0  0
 11100  1  0  0  0
 12 13  2  0  0  0
 12101  1  0  0  0
 13 14  1  0  0  0
 13 31  1  0  0  0
 14 15  2  0  0  0
 14102  1  0  0  0
 15103  1  0  0  0
 16 17  2  0  0  0
 16 21  1  0  0  0
 16 31  1  0  0  0
 17 18  1  0  0  0
 17104  1  0  0  0
 18 19  2  0  0  0
 18105  1  0  0  0
 19 20  1  0  0  0
 19 24  1  0  0  0
 20 21  2  0  0  0
 20106  1  0  0  0
 21 23  1  0  0  0
 22 28  1  0  0  0
 22 32  2  0  0  0
 26 27  1  0  0  0
 28107  1  0  0  0
 28108  1  0  0  0
 29109  1  0  0  0
 29110  1  0  0  0
 33 34  1  0  0  0
 33 66  1  0  0  0
 33 70  2  0  0  0
 34 36  1  0  0  0
 34 59  1  0  0  0
 34111  1  0  0  0
 35 44  2  0  0  0
 35 45  1  0  0  0
 35 68  1  0  0  0
 36 56  1  0  0  0
 36112  1  0  0  0
 37 39  1  0  0  0
 37 47  1  0  0  0
 37 66  1  0  0  0
 37113  1  0  0  0
 38 43  2  0  0  0
 38 46  1  0  0  0
 38 47  1  0  0  0
 39 64  1  0  0  0
 39 67  2  0  0  0
 40 52  1  0  0  0
 40 53  2  0  0  0
 40 58  1  0  0  0
 41114  1  0  0  0
 41115  1  0  0  0
 41116  1  0  0  0
 41 48  1  0  0  0
 42 43  1  0  0  0
 42 66  1  0  0  0
 42117  1  0  0  0
 42118  1  0  0  0
 43 44  1  0  0  0
 44119  1  0  0  0
 45 46  2  0  0  0
 45120  1  0  0  0
 46121  1  0  0  0
 47122  1  0  0  0
 47123  1  0  0  0
 48 56  1  0  0  0
 48 65  1  0  0  0
 48124  1  0  0  0
 49 50  1  0  0  0
 49 53  1  0  0  0
 49 64  1  0  0  0
 49125  1  0  0  0
 50 51  1  0  0  0
 50126  1  0  0  0
 50127  1  0  0  0
 51 52  1  0  0  0
 51128  1  0  0  0
 51129  1  0  0  0
 52130  1  0  0  0
 52131  1  0  0  0
 53 54  1  0  0  0
 54 55  2  0  0  0
 54132  1  0  0  0
 55 57  1  0  0  0
 55133  1  0  0  0
 56 69  2  0  0  0
 57 58  2  0  0  0
 57134  1  0  0  0
 58135  1  0  0  0
 59 60  1  0  0  0
 59 61  1  0  0  0
 59 62  1  0  0  0
 60136  1  0  0  0
 60137  1  0  0  0
 60138  1  0  0  0
 61139  1  0  0  0
 61140  1  0  0  0
 61141  1  0  0  0
 62142  1  0  0  0
 62143  1  0  0  0
 62144  1  0  0  0
 63 65  1  0  0  0
 63145  1  0  0  0
 63146  1  0  0  0
 63147  1  0  0  0
 64148  1  0  0  0
 65149  1  0  0  0
 68 84  1  0  0  0
 71 72  2  0  0  0
 71 73  1  0  0  0
 71150  1  0  0  0
 72 74  1  0  0  0
 72151  1  0  0  0
 73 75  2  0  0  0
 73 76  1  0  0  0
 74 86  1  0  0  0
 74 88  2  0  0  0
 75 88  1  0  0  0
 75 90  1  0  0  0
 76152  1  0  0  0
 76153  1  0  0  0
 76154  1  0  0  0
 77155  1  0  0  0
 77156  1  0  0  0
 77157  1  0  0  0
 77 86  1  0  0  0
 78 86  1  0  0  0
 78158  1  0  0  0
 78159  1  0  0  0
 78160  1  0  0  0
 79161  1  0  0  0
 79162  1  0  0  0
 79163  1  0  0  0
 79 87  1  0  0  0
 80 87  1  0  0  0
 80164  1  0  0  0
 80165  1  0  0  0
 80166  1  0  0  0
 81 89  1  0  0  0
 81167  1  0  0  0
 81168  1  0  0  0
 81169  1  0  0  0
 82 84  1  0  0  0
 82 85  1  0  0  0
 82170  1  0  0  0
 82171  1  0  0  0
 83 87  1  0  0  0
 83 89  1  0  0  0
 83172  1  0  0  0
 83173  1  0  0  0
 84174  1  0  0  0
 84175  1  0  0  0
 85 90  1  0  0  0
 85176  1  0  0  0
 85177  1  0  0  0
 86 87  1  0  0  0
M  ISO  4   1 100  68 101  84 101  89 100
M  END
> <chiral flag>
0

> <version>
0

> <s_m_source_file>
/data/baiqing/PycharmProjects/Reinvent-master-3.2/result/LINK_invent/BTK/process_docking_weight1_custom_sum_contain_oxygen_bond_distance_aromatic_linkinvent_7_9_3/rearranged_h_0065.sdf

> <i_m_source_file_index>
76

> <r_mmod_Potential_Energy-OPLS-2005>
6.1733922958374

> <r_mmod_Stretch_Energy-OPLS-2005>
59.0556755065918

> <r_mmod_Bend_Energy-OPLS-2005>
147.428146362305

> <r_mmod_Torsional_Energy-OPLS-2005>
283.592407226562

> <r_mmod_Improper_Torsional_Energy-OPLS-2005>
12.0673246383667

> <r_mmod_Van_der_Waal_Energy-OPLS-2005>
195.172760009766

> <r_mmod_Electrostatic_Energy-OPLS-2005>
-528.294067382812

> <r_mmod_Solvation_Energy-OPLS-2005>
-187.859405517578

> <b_mmod_Minimization_Converged-OPLS-2005>
0

> <r_mmod_RMS_Derivative-OPLS-2005>
7.94411849975586

$$$$
82
                    3D
 Structure written by MMmdl.
188196  0  0  1  0            999 V2000
  -30.6705  -14.8324   20.3259 C   0  0  0  0  0  0
  -30.4146  -12.4965   19.4773 C   0  0  0  0  0  0
  -29.4961  -12.4583   18.2372 C   0  0  0  0  0  0
  -28.0333  -12.2370   18.6673 C   0  0  0  0  0  0
  -27.6040  -13.1853   19.8093 C   0  0  2  0  0  0
  -28.6665  -13.3126   20.9272 C   0  0  0  0  0  0
  -25.2458  -13.8045   20.5764 C   0  0  0  0  0  0
  -24.1728  -13.0337   20.9331 C   0  0  0  0  0  0
  -24.6276  -11.6831   20.8859 C   0  0  0  0  0  0
  -23.8956  -10.4253   21.0467 C   0  0  0  0  0  0
  -24.3566   -9.4173   21.9216 C   0  0  0  0  0  0
  -23.6255   -8.2202   22.0754 C   0  0  0  0  0  0
  -22.4232   -8.0273   21.3536 C   0  0  0  0  0  0
  -21.9855   -9.0230   20.4616 C   0  0  0  0  0  0
  -22.7167  -10.2111   20.3057 C   0  0  0  0  0  0
  -21.6817   -6.0750   22.5294 C   0  0  0  0  0  0
  -21.3989   -6.5638   23.8240 C   0  0  0  0  0  0
  -21.3653   -5.6775   24.9192 C   0  0  0  0  0  0
  -21.6045   -4.3047   24.7224 C   0  0  0  0  0  0
  -21.8817   -3.8156   23.4340 C   0  0  0  0  0  0
  -21.9182   -4.6977   22.3403 C   0  0  0  0  0  0
  -22.7781  -13.5196   21.1962 C   0  0  0  0  0  0
  -22.1652   -4.2185   21.0976 F   0  0  0  0  0  0
  -21.5630   -3.4513   25.7730 F   0  0  0  0  0  0
  -29.9694  -13.6325   20.3216 N   0  0  0  0  0  0
  -26.2766  -12.9098   20.3264 N   0  0  0  0  0  0
  -25.9184  -11.6318   20.5847 N   0  0  0  0  0  0
  -22.0344  -12.8210   22.0483 N   0  0  0  0  0  0
  -25.4087  -15.1760   20.4140 N   0  0  0  0  0  0
  -31.9016  -14.7299   20.2878 O   0  0  0  0  0  0
  -21.6585   -6.8884   21.4256 O   0  0  0  0  0  0
  -22.3539  -14.5507   20.6786 O   0  0  0  0  0  0
  -24.6308  -31.8522   23.2033 C   0  0  0  0  0  0
  -25.9143  -32.4697   23.8369 C   0  0  1  0  0  0
  -27.2170  -27.2768   20.1363 C   0  0  0  0  0  0
  -25.5955  -33.8524   24.2274 N   0  0  0  0  0  0
  -23.4248  -30.4739   21.5476 C   0  0  2  0  0  0
  -24.8654  -28.9179   20.1104 C   0  0  0  0  0  0
  -22.7509  -29.4580   22.4997 C   0  0  0  0  0  0
  -18.0276  -28.1354   22.8435 C   0  0  0  0  0  0
  -24.1467  -36.7245   23.2666 C   0  0  0  0  0  0
  -25.9705  -30.7609   21.3884 C   0  0  0  0  0  0
  -26.0318  -29.3919   20.7201 C   0  0  0  0  0  0
  -27.2036  -28.5795   20.7259 C   0  0  0  0  0  0
  -26.0382  -26.8637   19.4804 C   0  0  0  0  0  0
  -24.8717  -27.6578   19.4830 C   0  0  0  0  0  0
  -23.6368  -29.8054   20.1640 C   0  0  0  0  0  0
  -25.4105  -36.3075   24.0365 C   0  0  1  0  0  0
  -20.5879  -28.3645   23.1276 C   0  0  2  0  0  0
  -20.6761  -26.9374   22.5406 C   0  0  0  0  0  0
  -19.5761  -26.6352   21.5186 C   0  0  0  0  0  0
  -18.1919  -26.7900   22.1568 C   0  0  0  0  0  0
  -19.1529  -28.8827   23.2813 C   0  0  0  0  0  0
  -18.9473  -30.1433   23.8820 C   0  0  0  0  0  0
  -17.6475  -30.6551   24.0538 C   0  0  0  0  0  0
  -25.9079  -34.9423   23.5135 C   0  0  0  0  0  0
  -16.5350  -29.9052   23.6348 C   0  0  0  0  0  0
  -16.7268  -28.6468   23.0364 C   0  0  0  0  0  0
  -26.4525  -31.6575   25.0781 C   0  0  0  0  0  0
  -25.3802  -31.3707   26.1566 C   0  0  0  0  0  0
  -27.0435  -30.3009   24.6318 C   0  0  0  0  0  0
  -27.6105  -32.4382   25.7462 C   0  0  0  0  0  0
  -27.5570  -37.1783   24.8492 C   0  0  0  0  0  0
  -21.4237  -29.2984   22.3702 N   0  0  0  0  0  0
  -26.4275  -37.3768   23.9447 N   0  0  0  0  0  0
  -24.6933  -31.0512   22.0995 N   0  0  0  0  0  0
  -23.4229  -28.8184   23.3129 O   0  0  0  0  0  0
  -28.3334  -26.4345   20.2716 O   0  0  0  0  0  0
  -26.5661  -34.8913   22.4716 O   0  0  0  0  0  0
  -23.5470  -32.1377   23.7326 O   0  0  0  0  0  0
  -30.0345  -19.6206   22.7901 C   0  0  0  0  0  0
  -30.9772  -18.5362   22.8114 C   0  0  0  0  0  0
  -29.3827  -19.7863   21.5106 C   0  0  0  0  0  0
  -30.0953  -17.5611   20.9221 C   0  0  0  0  0  0
  -33.1878  -19.6414   23.2440 C   0  0  0  0  0  0
  -31.0524  -22.5055   25.0503 C   0  0  0  0  0  0
  -28.8042  -22.8970   24.1191 C   0  0  0  0  0  0
  -28.1326  -20.1179   24.3742 C   0  0  0  0  0  0
  -30.2118  -19.8024   25.4319 C   0  0  0  0  0  0
  -30.9873  -16.7914   18.7122 C   0  0  0  0  0  0
  -28.6938  -16.2380   19.2849 C   0  0  0  0  0  0
  -26.9800  -23.9792   21.4065 C   0  0  0  0  0  0
  -27.0414  -23.0759   19.0919 C   0  0  0  0  0  0
  -32.2584  -18.4918   23.6415 C   0  0  0  0  0  0
  -28.4612  -21.0200   21.0492 C   0  0  0  0  0  0
  -28.9820  -22.5008   20.6226 C   0  0  0  0  0  0
  -28.4876  -25.0850   19.6563 C   0  0  0  0  0  0
  -30.0131  -21.9482   24.0418 C   0  0  0  0  0  0
  -29.6420  -20.4068   24.1096 C   0  0  0  0  0  0
  -30.0935  -16.3273   19.8993 C   0  0  0  0  0  0
  -27.9102  -23.6699   20.2227 C   0  0  0  0  0  0
  -30.9579  -17.5326   21.9169 N   0  0  0  0  0  0
  -29.4241  -18.7166   20.6348 N   0  0  0  0  0  0
  -31.4544  -12.5953   19.1587 H   0  0  0  0  0  0
  -30.3551  -11.5596   20.0327 H   0  0  0  0  0  0
  -29.8045  -11.6537   17.5679 H   0  0  0  0  0  0
  -29.5881  -13.3830   17.6675 H   0  0  0  0  0  0
  -27.9376  -11.1995   18.9912 H   0  0  0  0  0  0
  -27.3671  -12.3553   17.8120 H   0  0  0  0  0  0
  -27.4672  -14.1140   19.2921 H   0  0  0  0  0  0
  -28.7312  -12.3835   21.4929 H   0  0  0  0  0  0
  -28.3781  -14.0890   21.6367 H   0  0  0  0  0  0
  -25.2720   -9.5647   22.4776 H   0  0  0  0  0  0
  -23.9967   -7.4578   22.7437 H   0  0  0  0  0  0
  -21.0815   -8.8729   19.8902 H   0  0  0  0  0  0
  -22.3656  -10.9655   19.6152 H   0  0  0  0  0  0
  -21.1965   -7.6145   23.9757 H   0  0  0  0  0  0
  -21.1464   -6.0499   25.9100 H   0  0  0  0  0  0
  -22.0599   -2.7624   23.2815 H   0  0  0  0  0  0
  -22.3901  -11.9896   22.4935 H   0  0  0  0  0  0
  -21.0929  -13.1264   22.2545 H   0  0  0  0  0  0
  -24.6277  -15.8151   20.5106 H   0  0  0  0  0  0
  -26.2457  -15.6232   20.0644 H   0  0  0  0  0  0
  -26.7177  -32.5296   23.1074 H   0  0  0  0  0  0
  -25.0142  -33.9654   25.0449 H   0  0  0  0  0  0
  -22.7182  -31.2937   21.4013 H   0  0  0  0  0  0
  -23.3768  -35.9536   23.3329 H   0  0  0  0  0  0
  -24.3542  -36.8863   22.2081 H   0  0  0  0  0  0
  -23.7155  -37.6435   23.6652 H   0  0  0  0  0  0
  -26.1575  -31.5276   20.6363 H   0  0  0  0  0  0
  -26.8331  -30.7723   22.0412 H   0  0  0  0  0  0
  -28.0917  -28.9262   21.2313 H   0  0  0  0  0  0
  -25.9892  -25.8965   19.0048 H   0  0  0  0  0  0
  -23.9760  -27.2816   19.0092 H   0  0  0  0  0  0
  -23.7592  -30.5802   19.4088 H   0  0  0  0  0  0
  -22.7510  -29.2439   19.8626 H   0  0  0  0  0  0
  -25.1247  -36.1959   25.0842 H   0  0  0  0  0  0
  -20.9860  -28.3176   24.1445 H   0  0  0  0  0  0
  -20.5630  -26.2238   23.3582 H   0  0  0  0  0  0
  -21.6630  -26.7420   22.1208 H   0  0  0  0  0  0
  -19.6957  -25.6268   21.1217 H   0  0  0  0  0  0
  -19.6721  -27.3136   20.6705 H   0  0  0  0  0  0
  -17.4189  -26.6613   21.3957 H   0  0  0  0  0  0
  -18.0321  -26.0050   22.8971 H   0  0  0  0  0  0
  -19.7976  -30.7239   24.2131 H   0  0  0  0  0  0
  -17.5070  -31.6235   24.5150 H   0  0  0  0  0  0
  -15.5356  -30.2931   23.7767 H   0  0  0  0  0  0
  -15.8649  -28.0775   22.7163 H   0  0  0  0  0  0
  -24.5964  -30.7013   25.7982 H   0  0  0  0  0  0
  -24.8997  -32.2840   26.5096 H   0  0  0  0  0  0
  -25.8216  -30.8896   27.0311 H   0  0  0  0  0  0
  -26.3072  -29.6689   24.1326 H   0  0  0  0  0  0
  -27.4125  -29.7325   25.4881 H   0  0  0  0  0  0
  -27.8924  -30.4343   23.9603 H   0  0  0  0  0  0
  -27.2743  -33.3694   26.2059 H   0  0  0  0  0  0
  -28.3828  -32.6974   25.0186 H   0  0  0  0  0  0
  -28.0875  -31.8528   26.5347 H   0  0  0  0  0  0
  -28.2625  -38.0055   24.7565 H   0  0  0  0  0  0
  -28.1033  -36.2602   24.6273 H   0  0  0  0  0  0
  -27.2311  -37.1406   25.8904 H   0  0  0  0  0  0
  -20.9479  -29.8629   21.6811 H   0  0  0  0  0  0
  -26.0181  -38.2851   24.1435 H   0  0  0  0  0  0
  -33.5944  -19.4642   22.2466 H   0  0  0  0  0  0
  -34.0125  -19.7475   23.9448 H   0  0  0  0  0  0
  -32.6440  -20.5847   23.2129 H   0  0  0  0  0  0
  -31.2321  -23.5662   24.8619 H   0  0  0  0  0  0
  -32.0252  -22.0232   24.9701 H   0  0  0  0  0  0
  -30.7155  -22.4341   26.0865 H   0  0  0  0  0  0
  -28.3945  -22.9389   25.1309 H   0  0  0  0  0  0
  -28.0013  -22.5934   23.4572 H   0  0  0  0  0  0
  -29.0796  -23.9153   23.8398 H   0  0  0  0  0  0
  -27.9584  -19.0437   24.4629 H   0  0  0  0  0  0
  -27.4306  -20.4505   23.6239 H   0  0  0  0  0  0
  -27.7894  -20.5613   25.3099 H   0  0  0  0  0  0
  -30.0818  -18.7195   25.4793 H   0  0  0  0  0  0
  -29.7028  -20.1813   26.3187 H   0  0  0  0  0  0
  -31.2578  -20.0316   25.6177 H   0  0  0  0  0  0
  -30.6049  -17.7089   18.2610 H   0  0  0  0  0  0
  -31.0316  -16.0416   17.9218 H   0  0  0  0  0  0
  -32.0093  -17.0095   19.0218 H   0  0  0  0  0  0
  -27.9543  -16.0272   20.0520 H   0  0  0  0  0  0
  -28.6881  -15.5038   18.4824 H   0  0  0  0  0  0
  -28.3850  -17.1706   18.8137 H   0  0  0  0  0  0
  -27.5072  -24.5121   22.1987 H   0  0  0  0  0  0
  -26.5401  -23.0767   21.8320 H   0  0  0  0  0  0
  -26.1470  -24.6108   21.1028 H   0  0  0  0  0  0
  -26.4634  -22.2104   19.4146 H   0  0  0  0  0  0
  -27.6587  -22.7568   18.2547 H   0  0  0  0  0  0
  -26.3252  -23.7953   18.6963 H   0  0  0  0  0  0
  -32.7927  -17.5652   23.4141 H   0  0  0  0  0  0
  -32.1202  -18.4171   24.7132 H   0  0  0  0  0  0
  -27.6608  -21.1434   21.7614 H   0  0  0  0  0  0
  -27.9359  -20.6490   20.1709 H   0  0  0  0  0  0
  -29.6714  -22.3628   19.7880 H   0  0  0  0  0  0
  -29.5949  -22.9113   21.4167 H   0  0  0  0  0  0
  -28.2007  -25.2074   18.6128 H   0  0  0  0  0  0
  -29.5697  -24.9649   19.5944 H   0  0  0  0  0  0
  -30.5134  -22.0945   23.0878 H   0  0  0  0  0  0
  1 25  1  0  0  0
  1 30  2  0  0  0
  1 90  1  0  0  0
  2  3  1  0  0  0
  2 25  1  0  0  0
  2 94  1  0  0  0
  2 95  1  0  0  0
  3  4  1  0  0  0
  3 96  1  0  0  0
  3 97  1  0  0  0
  4  5  1  0  0  0
  4 98  1  0  0  0
  4 99  1  0  0  0
  5  6  1  0  0  0
  5 26  1  0  0  0
  5100  1  0  0  0
  6 25  1  0  0  0
  6101  1  0  0  0
  6102  1  0  0  0
  7  8  2  0  0  0
  7 26  1  0  0  0
  7 29  1  0  0  0
  8  9  1  0  0  0
  8 22  1  0  0  0
  9 10  1  0  0  0
  9 27  2  0  0  0
 10 11  2  0  0  0
 10 15  1  0  0  0
 11 12  1  0  0  0
 11103  1  0  0  0
 12 13  2  0  0  0
 12104  1  0  0  0
 13 14  1  0  0  0
 13 31  1  0  0  0
 14 15  2  0  0  0
 14105  1  0  0  0
 15106  1  0  0  0
 16 17  2  0  0  0
 16 21  1  0  0  0
 16 31  1  0  0  0
 17 18  1  0  0  0
 17107  1  0  0  0
 18 19  2  0  0  0
 18108  1  0  0  0
 19 20  1  0  0  0
 19 24  1  0  0  0
 20 21  2  0  0  0
 20109  1  0  0  0
 21 23  1  0  0  0
 22 28  1  0  0  0
 22 32  2  0  0  0
 26 27  1  0  0  0
 28110  1  0  0  0
 28111  1  0  0  0
 29112  1  0  0  0
 29113  1  0  0  0
 33 34  1  0  0  0
 33 66  1  0  0  0
 33 70  2  0  0  0
 34 36  1  0  0  0
 34 59  1  0  0  0
 34114  1  0  0  0
 35 44  2  0  0  0
 35 45  1  0  0  0
 35 68  1  0  0  0
 36 56  1  0  0  0
 36115  1  0  0  0
 37 39  1  0  0  0
 37 47  1  0  0  0
 37 66  1  0  0  0
 37116  1  0  0  0
 38 43  2  0  0  0
 38 46  1  0  0  0
 38 47  1  0  0  0
 39 64  1  0  0  0
 39 67  2  0  0  0
 40 52  1  0  0  0
 40 53  2  0  0  0
 40 58  1  0  0  0
 41117  1  0  0  0
 41118  1  0  0  0
 41119  1  0  0  0
 41 48  1  0  0  0
 42 43  1  0  0  0
 42 66  1  0  0  0
 42120  1  0  0  0
 42121  1  0  0  0
 43 44  1  0  0  0
 44122  1  0  0  0
 45 46  2  0  0  0
 45123  1  0  0  0
 46124  1  0  0  0
 47125  1  0  0  0
 47126  1  0  0  0
 48 56  1  0  0  0
 48 65  1  0  0  0
 48127  1  0  0  0
 49 50  1  0  0  0
 49 53  1  0  0  0
 49 64  1  0  0  0
 49128  1  0  0  0
 50 51  1  0  0  0
 50129  1  0  0  0
 50130  1  0  0  0
 51 52  1  0  0  0
 51131  1  0  0  0
 51132  1  0  0  0
 52133  1  0  0  0
 52134  1  0  0  0
 53 54  1  0  0  0
 54 55  2  0  0  0
 54135  1  0  0  0
 55 57  1  0  0  0
 55136  1  0  0  0
 56 69  2  0  0  0
 57 58  2  0  0  0
 57137  1  0  0  0
 58138  1  0  0  0
 59 60  1  0  0  0
 59 61  1  0  0  0
 59 62  1  0  0  0
 60139  1  0  0  0
 60140  1  0  0  0
 60141  1  0  0  0
 61142  1  0  0  0
 61143  1  0  0  0
 61144  1  0  0  0
 62145  1  0  0  0
 62146  1  0  0  0
 62147  1  0  0  0
 63 65  1  0  0  0
 63148  1  0  0  0
 63149  1  0  0  0
 63150  1  0  0  0
 64151  1  0  0  0
 65152  1  0  0  0
 68 87  1  0  0  0
 71 72  2  0  0  0
 71 73  1  0  0  0
 71 89  1  0  0  0
 72 84  1  0  0  0
 72 92  1  0  0  0
 73 85  1  0  0  0
 73 93  2  0  0  0
 74 90  1  0  0  0
 74 92  2  0  0  0
 74 93  1  0  0  0
 75 84  1  0  0  0
 75153  1  0  0  0
 75154  1  0  0  0
 75155  1  0  0  0
 76156  1  0  0  0
 76157  1  0  0  0
 76158  1  0  0  0
 76 88  1  0  0  0
 77 88  1  0  0  0
 77159  1  0  0  0
 77160  1  0  0  0
 77161  1  0  0  0
 78162  1  0  0  0
 78163  1  0  0  0
 78164  1  0  0  0
 78 89  1  0  0  0
 79 89  1  0  0  0
 79165  1  0  0  0
 79166  1  0  0  0
 79167  1  0  0  0
 80168  1  0  0  0
 80169  1  0  0  0
 80170  1  0  0  0
 80 90  1  0  0  0
 81 90  1  0  0  0
 81171  1  0  0  0
 81172  1  0  0  0
 81173  1  0  0  0
 82174  1  0  0  0
 82175  1  0  0  0
 82176  1  0  0  0
 82 91  1  0  0  0
 83 91  1  0  0  0
 83177  1  0  0  0
 83178  1  0  0  0
 83179  1  0  0  0
 84180  1  0  0  0
 84181  1  0  0  0
 85 86  1  0  0  0
 85182  1  0  0  0
 85183  1  0  0  0
 86 91  1  0  0  0
 86184  1  0  0  0
 86185  1  0  0  0
 87 91  1  0  0  0
 87186  1  0  0  0
 87187  1  0  0  0
 88 89  1  0  0  0
 88188  1  0  0  0
M  ISO  4   1 100  68 101  87 101  90 100
M  END
> <chiral flag>
0

> <version>
0

> <s_m_source_file>
/data/baiqing/PycharmProjects/Reinvent-master-3.2/result/LINK_invent/BTK/process_docking_weight1_custom_sum_contain_oxygen_bond_distance_aromatic_linkinvent_7_9_3/rearranged_h_0065.sdf

> <i_m_source_file_index>
77

> <r_mmod_Potential_Energy-OPLS-2005>
203.471313476562

> <r_mmod_Stretch_Energy-OPLS-2005>
165.081130981445

> <r_mmod_Bend_Energy-OPLS-2005>
297.923370361328

> <r_mmod_Torsional_Energy-OPLS-2005>
290.047760009766

> <r_mmod_Improper_Torsional_Energy-OPLS-2005>
16.8353233337402

> <r_mmod_Van_der_Waal_Energy-OPLS-2005>
189.729232788086

> <r_mmod_Electrostatic_Energy-OPLS-2005>
-689.295959472656

> <r_mmod_Solvation_Energy-OPLS-2005>
-192.460632324219

> <b_mmod_Minimization_Converged-OPLS-2005>
0

> <r_mmod_RMS_Derivative-OPLS-2005>
5.56203174591064

$$$$
83
                    3D
 Structure written by MMmdl.
178186  0  0  1  0            999 V2000
  -30.7395  -14.5313   20.5547 C   0  0  0  0  0  0
  -30.4022  -12.3375   19.4556 C   0  0  0  0  0  0
  -29.4919  -12.5088   18.2219 C   0  0  0  0  0  0
  -28.0118  -12.3671   18.6226 C   0  0  0  0  0  0
  -27.6516  -13.2145   19.8702 C   0  0  2  0  0  0
  -28.6955  -13.0189   20.9930 C   0  0  0  0  0  0
  -25.2521  -13.8163   20.5675 C   0  0  0  0  0  0
  -24.1817  -13.0419   20.9199 C   0  0  0  0  0  0
  -24.6399  -11.6892   20.8745 C   0  0  0  0  0  0
  -23.9066  -10.4283   21.0412 C   0  0  0  0  0  0
  -24.3620   -9.4189   21.9172 C   0  0  0  0  0  0
  -23.6302   -8.2217   22.0732 C   0  0  0  0  0  0
  -22.4275   -8.0268   21.3532 C   0  0  0  0  0  0
  -21.9920   -9.0236   20.4624 C   0  0  0  0  0  0
  -22.7248  -10.2110   20.3051 C   0  0  0  0  0  0
  -21.6849   -6.0735   22.5284 C   0  0  0  0  0  0
  -21.4016   -6.5637   23.8220 C   0  0  0  0  0  0
  -21.3664   -5.6792   24.9179 C   0  0  0  0  0  0
  -21.6052   -4.3056   24.7229 C   0  0  0  0  0  0
  -21.8823   -3.8141   23.4352 C   0  0  0  0  0  0
  -21.9189   -4.6961   22.3402 C   0  0  0  0  0  0
  -22.7839  -13.5189   21.1887 C   0  0  0  0  0  0
  -22.1659   -4.2131   21.0989 F   0  0  0  0  0  0
  -21.5624   -3.4558   25.7752 F   0  0  0  0  0  0
  -30.0164  -13.3661   20.4489 N   0  0  0  0  0  0
  -26.2971  -12.9368   20.3352 N   0  0  0  0  0  0
  -25.9313  -11.6506   20.5756 N   0  0  0  0  0  0
  -22.0512  -12.8157   22.0456 N   0  0  0  0  0  0
  -25.4180  -15.1891   20.4057 N   0  0  0  0  0  0
  -31.8728  -14.5565   20.0645 O   0  0  0  0  0  0
  -21.6627   -6.8874   21.4248 O   0  0  0  0  0  0
  -22.3497  -14.5481   20.6734 O   0  0  0  0  0  0
  -24.6173  -31.8661   23.2052 C   0  0  0  0  0  0
  -25.9055  -32.4816   23.8358 C   0  0  1  0  0  0
  -27.2359  -27.3970   20.1059 C   0  0  0  0  0  0
  -25.5903  -33.8610   24.2304 N   0  0  0  0  0  0
  -23.4076  -30.4888   21.5472 C   0  0  2  0  0  0
  -24.8539  -28.9491   20.1144 C   0  0  0  0  0  0
  -22.7425  -29.4667   22.4973 C   0  0  0  0  0  0
  -18.0278  -28.1384   22.8490 C   0  0  0  0  0  0
  -24.1497  -36.7309   23.2639 C   0  0  0  0  0  0
  -25.9397  -30.8223   21.3607 C   0  0  0  0  0  0
  -26.0174  -29.4538   20.7075 C   0  0  0  0  0  0
  -27.2107  -28.6882   20.6937 C   0  0  0  0  0  0
  -26.0498  -26.9202   19.4988 C   0  0  0  0  0  0
  -24.8675  -27.6839   19.5048 C   0  0  0  0  0  0
  -23.6163  -29.8190   20.1627 C   0  0  0  0  0  0
  -25.4118  -36.3109   24.0338 C   0  0  1  0  0  0
  -20.5872  -28.3685   23.1306 C   0  0  2  0  0  0
  -20.6769  -26.9413   22.5428 C   0  0  0  0  0  0
  -19.5760  -26.6390   21.5210 C   0  0  0  0  0  0
  -18.1925  -26.7933   22.1609 C   0  0  0  0  0  0
  -19.1527  -28.8846   23.2899 C   0  0  0  0  0  0
  -18.9449  -30.1445   23.8923 C   0  0  0  0  0  0
  -17.6454  -30.6591   24.0567 C   0  0  0  0  0  0
  -25.9043  -34.9473   23.5122 C   0  0  0  0  0  0
  -16.5346  -29.9095   23.6317 C   0  0  0  0  0  0
  -16.7265  -28.6508   23.0349 C   0  0  0  0  0  0
  -26.4465  -31.6598   25.0695 C   0  0  0  0  0  0
  -25.3714  -31.3709   26.1429 C   0  0  0  0  0  0
  -27.0297  -30.3040   24.6079 C   0  0  0  0  0  0
  -27.6043  -32.4318   25.7451 C   0  0  0  0  0  0
  -27.5598  -37.1803   24.8461 C   0  0  0  0  0  0
  -21.4149  -29.3047   22.3701 N   0  0  0  0  0  0
  -26.4312  -37.3790   23.9409 N   0  0  0  0  0  0
  -24.6737  -31.0736   22.0963 N   0  0  0  0  0  0
  -23.4180  -28.8211   23.3032 O   0  0  0  0  0  0
  -28.3956  -26.6328   20.1413 O   0  0  0  0  0  0
  -26.5617  -34.8929   22.4693 O   0  0  0  0  0  0
  -23.5355  -32.1425   23.7429 O   0  0  0  0  0  0
  -31.8806  -18.9223   20.6210 C   0  0  0  0  0  0
  -31.8936  -20.2900   20.5312 C   0  0  0  0  0  0
  -30.5461  -20.6093   20.1387 C   0  0  0  0  0  0
  -32.2823  -21.9590   23.0661 C   0  0  0  0  0  0
  -29.0701  -16.9204   19.0281 C   0  0  0  0  0  0
  -33.6007  -21.7148   19.3597 C   0  0  0  0  0  0
  -34.3026  -20.3763   21.3175 C   0  0  0  0  0  0
  -28.9315  -16.0070   21.8809 C   0  0  0  0  0  0
  -31.3346  -16.2772   22.2434 C   0  0  0  0  0  0
  -29.9649  -21.9725   19.7186 C   0  0  0  0  0  0
  -32.8300  -22.3658   21.6848 C   0  0  0  0  0  0
  -29.3519  -22.8728   20.8346 C   0  0  0  0  0  0
  -29.4876  -24.4282   20.6397 C   0  0  0  0  0  0
  -28.2518  -25.1899   20.0794 C   0  0  0  0  0  0
  -30.2953  -17.0249   19.9651 C   0  0  2  0  0  0
  -33.1219  -21.1841   20.7275 C   0  0  0  0  0  0
  -30.2883  -15.9390   21.1457 C   0  0  0  0  0  0
  -29.8041  -19.4960   20.0293 N   0  0  0  0  0  0
  -30.6375  -18.4401   20.2797 N   0  0  0  0  0  0
  -31.4508  -12.3829   19.1599 H   0  0  0  0  0  0
  -30.2799  -11.3399   19.8797 H   0  0  0  0  0  0
  -29.7457  -11.7703   17.4607 H   0  0  0  0  0  0
  -29.6571  -13.4885   17.7663 H   0  0  0  0  0  0
  -27.8253  -11.3137   18.8256 H   0  0  0  0  0  0
  -27.3655  -12.6353   17.7881 H   0  0  0  0  0  0
  -27.6807  -14.2546   19.5509 H   0  0  0  0  0  0
  -28.6956  -11.9739   21.3066 H   0  0  0  0  0  0
  -28.4394  -13.5499   21.9013 H   0  0  0  0  0  0
  -25.2772   -9.5661   22.4719 H   0  0  0  0  0  0
  -24.0025   -7.4611   22.7444 H   0  0  0  0  0  0
  -21.0861   -8.8778   19.8909 H   0  0  0  0  0  0
  -22.3752  -10.9653   19.6145 H   0  0  0  0  0  0
  -21.2029   -7.6147   23.9721 H   0  0  0  0  0  0
  -21.1470   -6.0516   25.9077 H   0  0  0  0  0  0
  -22.0597   -2.7606   23.2859 H   0  0  0  0  0  0
  -22.4202  -11.9850   22.4840 H   0  0  0  0  0  0
  -21.1082  -13.1050   22.2623 H   0  0  0  0  0  0
  -24.6439  -15.8363   20.5074 H   0  0  0  0  0  0
  -26.2671  -15.6341   20.0841 H   0  0  0  0  0  0
  -26.7127  -32.5519   23.1115 H   0  0  0  0  0  0
  -25.0028  -33.9761   25.0438 H   0  0  0  0  0  0
  -22.6978  -31.3063   21.4057 H   0  0  0  0  0  0
  -23.3769  -35.9632   23.3289 H   0  0  0  0  0  0
  -24.3588  -36.8939   22.2056 H   0  0  0  0  0  0
  -23.7233  -37.6503   23.6663 H   0  0  0  0  0  0
  -26.0526  -31.5852   20.5888 H   0  0  0  0  0  0
  -26.8273  -30.8793   21.9789 H   0  0  0  0  0  0
  -28.1073  -29.0734   21.1585 H   0  0  0  0  0  0
  -26.0156  -25.9516   19.0217 H   0  0  0  0  0  0
  -23.9728  -27.2882   19.0436 H   0  0  0  0  0  0
  -23.7227  -30.5928   19.4008 H   0  0  0  0  0  0
  -22.7391  -29.2386   19.8705 H   0  0  0  0  0  0
  -25.1294  -36.1974   25.0834 H   0  0  0  0  0  0
  -20.9964  -28.3257   24.1427 H   0  0  0  0  0  0
  -20.5654  -26.2288   23.3615 H   0  0  0  0  0  0
  -21.6643  -26.7437   22.1236 H   0  0  0  0  0  0
  -19.6920  -25.6301   21.1235 H   0  0  0  0  0  0
  -19.6707  -27.3197   20.6739 H   0  0  0  0  0  0
  -17.4204  -26.6694   21.3997 H   0  0  0  0  0  0
  -18.0311  -26.0067   22.8992 H   0  0  0  0  0  0
  -19.7925  -30.7245   24.2309 H   0  0  0  0  0  0
  -17.5011  -31.6267   24.5179 H   0  0  0  0  0  0
  -15.5348  -30.3011   23.7624 H   0  0  0  0  0  0
  -15.8662  -28.0829   22.7063 H   0  0  0  0  0  0
  -24.5915  -30.7031   25.7753 H   0  0  0  0  0  0
  -24.8867  -32.2864   26.4831 H   0  0  0  0  0  0
  -25.8054  -30.8908   27.0209 H   0  0  0  0  0  0
  -26.2836  -29.6794   24.1149 H   0  0  0  0  0  0
  -27.4088  -29.7283   25.4534 H   0  0  0  0  0  0
  -27.8662  -30.4356   23.9207 H   0  0  0  0  0  0
  -27.2670  -33.3615   26.2046 H   0  0  0  0  0  0
  -28.3832  -32.6889   25.0259 H   0  0  0  0  0  0
  -28.0736  -31.8430   26.5344 H   0  0  0  0  0  0
  -28.2614  -38.0105   24.7527 H   0  0  0  0  0  0
  -28.1105  -36.2639   24.6273 H   0  0  0  0  0  0
  -27.2318  -37.1433   25.8865 H   0  0  0  0  0  0
  -20.9303  -29.8758   21.6917 H   0  0  0  0  0  0
  -26.0206  -38.2876   24.1410 H   0  0  0  0  0  0
  -32.6937  -18.2412   20.8248 H   0  0  0  0  0  0
  -32.0826  -22.8380   23.6794 H   0  0  0  0  0  0
  -32.9893  -21.3369   23.6132 H   0  0  0  0  0  0
  -31.3517  -21.3981   22.9875 H   0  0  0  0  0  0
  -28.9659  -15.9134   18.6263 H   0  0  0  0  0  0
  -29.1768  -17.5883   18.1742 H   0  0  0  0  0  0
  -28.1419  -17.1919   19.5298 H   0  0  0  0  0  0
  -33.8877  -20.8963   18.6974 H   0  0  0  0  0  0
  -34.4735  -22.3610   19.4699 H   0  0  0  0  0  0
  -32.8430  -22.2929   18.8356 H   0  0  0  0  0  0
  -34.6515  -19.6050   20.6302 H   0  0  0  0  0  0
  -34.0389  -19.8781   22.2500 H   0  0  0  0  0  0
  -35.1570  -21.0214   21.5258 H   0  0  0  0  0  0
  -28.6988  -17.0369   22.1543 H   0  0  0  0  0  0
  -28.9398  -15.4400   22.8135 H   0  0  0  0  0  0
  -28.0995  -15.6644   21.2739 H   0  0  0  0  0  0
  -31.3375  -15.5211   23.0291 H   0  0  0  0  0  0
  -31.1264  -17.2307   22.7299 H   0  0  0  0  0  0
  -32.3540  -16.3149   21.8589 H   0  0  0  0  0  0
  -29.2119  -21.8275   18.9430 H   0  0  0  0  0  0
  -30.7444  -22.5366   19.2145 H   0  0  0  0  0  0
  -33.7409  -22.9487   21.8309 H   0  0  0  0  0  0
  -32.1321  -23.0579   21.2173 H   0  0  0  0  0  0
  -29.8810  -22.6373   21.7554 H   0  0  0  0  0  0
  -28.3188  -22.5845   21.0345 H   0  0  0  0  0  0
  -30.3672  -24.6585   20.0376 H   0  0  0  0  0  0
  -29.7005  -24.8583   21.6204 H   0  0  0  0  0  0
  -27.3819  -24.8870   20.6648 H   0  0  0  0  0  0
  -28.0692  -24.8826   19.0488 H   0  0  0  0  0  0
  -31.1202  -16.7513   19.3073 H   0  0  0  0  0  0
  1 25  1  0  0  0
  1 30  2  0  0  0
  1 87  1  0  0  0
  2  3  1  0  0  0
  2 25  1  0  0  0
  2 90  1  0  0  0
  2 91  1  0  0  0
  3  4  1  0  0  0
  3 92  1  0  0  0
  3 93  1  0  0  0
  4  5  1  0  0  0
  4 94  1  0  0  0
  4 95  1  0  0  0
  5  6  1  0  0  0
  5 26  1  0  0  0
  5 96  1  0  0  0
  6 25  1  0  0  0
  6 97  1  0  0  0
  6 98  1  0  0  0
  7  8  2  0  0  0
  7 26  1  0  0  0
  7 29  1  0  0  0
  8  9  1  0  0  0
  8 22  1  0  0  0
  9 10  1  0  0  0
  9 27  2  0  0  0
 10 11  2  0  0  0
 10 15  1  0  0  0
 11 12  1  0  0  0
 11 99  1  0  0  0
 12 13  2  0  0  0
 12100  1  0  0  0
 13 14  1  0  0  0
 13 31  1  0  0  0
 14 15  2  0  0  0
 14101  1  0  0  0
 15102  1  0  0  0
 16 17  2  0  0  0
 16 21  1  0  0  0
 16 31  1  0  0  0
 17 18  1  0  0  0
 17103  1  0  0  0
 18 19  2  0  0  0
 18104  1  0  0  0
 19 20  1  0  0  0
 19 24  1  0  0  0
 20 21  2  0  0  0
 20105  1  0  0  0
 21 23  1  0  0  0
 22 28  1  0  0  0
 22 32  2  0  0  0
 26 27  1  0  0  0
 28106  1  0  0  0
 28107  1  0  0  0
 29108  1  0  0  0
 29109  1  0  0  0
 33 34  1  0  0  0
 33 66  1  0  0  0
 33 70  2  0  0  0
 34 36  1  0  0  0
 34 59  1  0  0  0
 34110  1  0  0  0
 35 44  2  0  0  0
 35 45  1  0  0  0
 35 68  1  0  0  0
 36 56  1  0  0  0
 36111  1  0  0  0
 37 39  1  0  0  0
 37 47  1  0  0  0
 37 66  1  0  0  0
 37112  1  0  0  0
 38 43  2  0  0  0
 38 46  1  0  0  0
 38 47  1  0  0  0
 39 64  1  0  0  0
 39 67  2  0  0  0
 40 52  1  0  0  0
 40 53  2  0  0  0
 40 58  1  0  0  0
 41113  1  0  0  0
 41114  1  0  0  0
 41115  1  0  0  0
 41 48  1  0  0  0
 42 43  1  0  0  0
 42 66  1  0  0  0
 42116  1  0  0  0
 42117  1  0  0  0
 43 44  1  0  0  0
 44118  1  0  0  0
 45 46  2  0  0  0
 45119  1  0  0  0
 46120  1  0  0  0
 47121  1  0  0  0
 47122  1  0  0  0
 48 56  1  0  0  0
 48 65  1  0  0  0
 48123  1  0  0  0
 49 50  1  0  0  0
 49 53  1  0  0  0
 49 64  1  0  0  0
 49124  1  0  0  0
 50 51  1  0  0  0
 50125  1  0  0  0
 50126  1  0  0  0
 51 52  1  0  0  0
 51127  1  0  0  0
 51128  1  0  0  0
 52129  1  0  0  0
 52130  1  0  0  0
 53 54  1  0  0  0
 54 55  2  0  0  0
 54131  1  0  0  0
 55 57  1  0  0  0
 55132  1  0  0  0
 56 69  2  0  0  0
 57 58  2  0  0  0
 57133  1  0  0  0
 58134  1  0  0  0
 59 60  1  0  0  0
 59 61  1  0  0  0
 59 62  1  0  0  0
 60135  1  0  0  0
 60136  1  0  0  0
 60137  1  0  0  0
 61138  1  0  0  0
 61139  1  0  0  0
 61140  1  0  0  0
 62141  1  0  0  0
 62142  1  0  0  0
 62143  1  0  0  0
 63 65  1  0  0  0
 63144  1  0  0  0
 63145  1  0  0  0
 63146  1  0  0  0
 64147  1  0  0  0
 65148  1  0  0  0
 68 84  1  0  0  0
 71 72  2  0  0  0
 71 89  1  0  0  0
 71149  1  0  0  0
 72 73  1  0  0  0
 72 86  1  0  0  0
 73 80  1  0  0  0
 73 88  2  0  0  0
 74 81  1  0  0  0
 74150  1  0  0  0
 74151  1  0  0  0
 74152  1  0  0  0
 75153  1  0  0  0
 75154  1  0  0  0
 75155  1  0  0  0
 75 85  1  0  0  0
 76156  1  0  0  0
 76157  1  0  0  0
 76158  1  0  0  0
 76 86  1  0  0  0
 77 86  1  0  0  0
 77159  1  0  0  0
 77160  1  0  0  0
 77161  1  0  0  0
 78162  1  0  0  0
 78163  1  0  0  0
 78164  1  0  0  0
 78 87  1  0  0  0
 79 87  1  0  0  0
 79165  1  0  0  0
 79166  1  0  0  0
 79167  1  0  0  0
 80 82  1  0  0  0
 80168  1  0  0  0
 80169  1  0  0  0
 81 86  1  0  0  0
 81170  1  0  0  0
 81171  1  0  0  0
 82 83  1  0  0  0
 82172  1  0  0  0
 82173  1  0  0  0
 83 84  1  0  0  0
 83174  1  0  0  0
 83175  1  0  0  0
 84176  1  0  0  0
 84177  1  0  0  0
 85 87  1  0  0  0
 85 89  1  0  0  0
 85178  1  0  0  0
 88 89  1  0  0  0
M  ISO  4   1 100  68 101  84 101  87 100
M  END
> <chiral flag>
0

> <version>
0

> <s_m_source_file>
/data/baiqing/PycharmProjects/Reinvent-master-3.2/result/LINK_invent/BTK/process_docking_weight1_custom_sum_contain_oxygen_bond_distance_aromatic_linkinvent_7_9_3/rearranged_h_0065.sdf

> <i_m_source_file_index>
78

> <r_mmod_Potential_Energy-OPLS-2005>
80.7678756713867

> <r_mmod_Stretch_Energy-OPLS-2005>
64.1539001464844

> <r_mmod_Bend_Energy-OPLS-2005>
164.476455688477

> <r_mmod_Torsional_Energy-OPLS-2005>
223.265747070312

> <r_mmod_Improper_Torsional_Energy-OPLS-2005>
4.16168594360352

> <r_mmod_Van_der_Waal_Energy-OPLS-2005>
143.115844726562

> <r_mmod_Electrostatic_Energy-OPLS-2005>
-362.317321777344

> <r_mmod_Solvation_Energy-OPLS-2005>
-178.676849365234

> <b_mmod_Minimization_Converged-OPLS-2005>
0

> <r_mmod_RMS_Derivative-OPLS-2005>
2.82687044143677

$$$$
84
                    3D
 Structure written by MMmdl.
164172  0  0  1  0            999 V2000
  -30.7728  -14.3879   20.6166 C   0  0  0  0  0  0
  -30.3999  -12.2750   19.4136 C   0  0  0  0  0  0
  -29.4825  -12.5089   18.1998 C   0  0  0  0  0  0
  -28.0048  -12.3778   18.6121 C   0  0  0  0  0  0
  -27.6589  -13.2136   19.8742 C   0  0  2  0  0  0
  -28.6986  -12.9925   20.9961 C   0  0  0  0  0  0
  -25.2560  -13.8184   20.5710 C   0  0  0  0  0  0
  -24.1813  -13.0441   20.9180 C   0  0  0  0  0  0
  -24.6382  -11.6915   20.8733 C   0  0  0  0  0  0
  -23.9059  -10.4290   21.0394 C   0  0  0  0  0  0
  -24.3619   -9.4208   21.9169 C   0  0  0  0  0  0
  -23.6300   -8.2244   22.0752 C   0  0  0  0  0  0
  -22.4271   -8.0290   21.3554 C   0  0  0  0  0  0
  -21.9898   -9.0254   20.4648 C   0  0  0  0  0  0
  -22.7227  -10.2131   20.3051 C   0  0  0  0  0  0
  -21.6855   -6.0747   22.5281 C   0  0  0  0  0  0
  -21.4018   -6.5648   23.8215 C   0  0  0  0  0  0
  -21.3658   -5.6799   24.9175 C   0  0  0  0  0  0
  -21.6044   -4.3060   24.7218 C   0  0  0  0  0  0
  -21.8817   -3.8155   23.4335 C   0  0  0  0  0  0
  -21.9188   -4.6976   22.3397 C   0  0  0  0  0  0
  -22.7830  -13.5228   21.1839 C   0  0  0  0  0  0
  -22.1656   -4.2167   21.0973 F   0  0  0  0  0  0
  -21.5621   -3.4538   25.7722 F   0  0  0  0  0  0
  -30.0398  -13.2580   20.4468 N   0  0  0  0  0  0
  -26.3004  -12.9372   20.3371 N   0  0  0  0  0  0
  -25.9310  -11.6519   20.5763 N   0  0  0  0  0  0
  -22.0476  -12.8240   22.0416 N   0  0  0  0  0  0
  -25.4275  -15.1913   20.4184 N   0  0  0  0  0  0
  -31.8450  -14.5838   20.0400 O   0  0  0  0  0  0
  -21.6649   -6.8884   21.4240 O   0  0  0  0  0  0
  -22.3509  -14.5529   20.6683 O   0  0  0  0  0  0
  -24.6121  -31.8686   23.2112 C   0  0  0  0  0  0
  -25.9031  -32.4823   23.8388 C   0  0  1  0  0  0
  -27.2282  -27.4496   20.0914 C   0  0  0  0  0  0
  -25.5899  -33.8623   24.2319 N   0  0  0  0  0  0
  -23.3974  -30.4945   21.5493 C   0  0  2  0  0  0
  -24.8401  -28.9617   20.1130 C   0  0  0  0  0  0
  -22.7393  -29.4665   22.4972 C   0  0  0  0  0  0
  -18.0270  -28.1383   22.8490 C   0  0  0  0  0  0
  -24.1490  -36.7325   23.2637 C   0  0  0  0  0  0
  -25.9239  -30.8397   21.3584 C   0  0  0  0  0  0
  -25.9983  -29.4750   20.7087 C   0  0  0  0  0  0
  -27.1927  -28.7241   20.6957 C   0  0  0  0  0  0
  -26.0525  -26.9477   19.4855 C   0  0  0  0  0  0
  -24.8616  -27.6962   19.5017 C   0  0  0  0  0  0
  -23.6033  -29.8284   20.1629 C   0  0  0  0  0  0
  -25.4105  -36.3109   24.0341 C   0  0  1  0  0  0
  -20.5860  -28.3658   23.1324 C   0  0  2  0  0  0
  -20.6756  -26.9398   22.5411 C   0  0  0  0  0  0
  -19.5738  -26.6400   21.5204 C   0  0  0  0  0  0
  -18.1916  -26.7935   22.1614 C   0  0  0  0  0  0
  -19.1520  -28.8837   23.2907 C   0  0  0  0  0  0
  -18.9454  -30.1442   23.8918 C   0  0  0  0  0  0
  -17.6458  -30.6581   24.0583 C   0  0  0  0  0  0
  -25.9030  -34.9475   23.5124 C   0  0  0  0  0  0
  -16.5348  -29.9096   23.6329 C   0  0  0  0  0  0
  -16.7261  -28.6521   23.0335 C   0  0  0  0  0  0
  -26.4470  -31.6599   25.0707 C   0  0  0  0  0  0
  -25.3755  -31.3723   26.1476 C   0  0  0  0  0  0
  -27.0295  -30.3049   24.6052 C   0  0  0  0  0  0
  -27.6063  -32.4308   25.7453 C   0  0  0  0  0  0
  -27.5579  -37.1806   24.8465 C   0  0  0  0  0  0
  -21.4121  -29.3043   22.3736 N   0  0  0  0  0  0
  -26.4290  -37.3788   23.9412 N   0  0  0  0  0  0
  -24.6629  -31.0822   22.0987 N   0  0  0  0  0  0
  -23.4192  -28.8189   23.2976 O   0  0  0  0  0  0
  -28.4186  -26.7591   20.1090 O   0  0  0  0  0  0
  -26.5592  -34.8927   22.4683 O   0  0  0  0  0  0
  -23.5330  -32.1418   23.7537 O   0  0  0  0  0  0
  -30.4712  -20.3761   19.9457 C   0  0  0  0  0  0
  -30.0255  -18.9670   21.4102 C   0  0  0  0  0  0
  -30.1966  -19.2228   24.5657 C   0  0  0  0  0  0
  -28.6717  -17.2496   22.6505 C   0  0  0  0  0  0
  -30.8364  -18.1440   23.6716 C   0  0  0  0  0  0
  -29.9819  -23.3404   20.4653 C   0  0  0  0  0  0
  -29.5457  -24.7798   20.7932 C   0  0  0  0  0  0
  -28.9276  -22.2397   20.7086 C   0  0  0  0  0  0
  -30.9610  -16.5823   21.7264 C   0  0  0  0  0  0
  -28.4074  -25.3423   19.9295 C   0  0  0  0  0  0
  -30.1059  -17.7557   22.3486 C   0  0  2  0  0  0
  -30.8580  -19.1687   20.3377 N   0  0  0  0  0  0
  -29.2095  -19.9977   21.6712 N   0  0  0  0  0  0
  -29.5420  -20.9180   20.7330 N   0  0  0  0  0  0
  -30.2630  -15.3206   21.4301 N   0  0  0  0  0  0
  -31.4475  -12.3385   19.1141 H   0  0  0  0  0  0
  -30.2669  -11.2643   19.8022 H   0  0  0  0  0  0
  -29.7144  -11.7937   17.4098 H   0  0  0  0  0  0
  -29.6641  -13.5000   17.7815 H   0  0  0  0  0  0
  -27.8071  -11.3217   18.7999 H   0  0  0  0  0  0
  -27.3569  -12.6624   17.7823 H   0  0  0  0  0  0
  -27.7044  -14.2638   19.5845 H   0  0  0  0  0  0
  -28.6517  -11.9633   21.3539 H   0  0  0  0  0  0
  -28.4609  -13.6108   21.8617 H   0  0  0  0  0  0
  -25.2756   -9.5696   22.4749 H   0  0  0  0  0  0
  -24.0016   -7.4633   22.7464 H   0  0  0  0  0  0
  -21.0828   -8.8758   19.8963 H   0  0  0  0  0  0
  -22.3661  -10.9672   19.6178 H   0  0  0  0  0  0
  -21.2024   -7.6156   23.9725 H   0  0  0  0  0  0
  -21.1485   -6.0527   25.9081 H   0  0  0  0  0  0
  -22.0598   -2.7621   23.2825 H   0  0  0  0  0  0
  -22.4093  -11.9918   22.4827 H   0  0  0  0  0  0
  -21.1098  -13.1283   22.2617 H   0  0  0  0  0  0
  -24.6663  -15.8484   20.5493 H   0  0  0  0  0  0
  -26.2912  -15.6355   20.1339 H   0  0  0  0  0  0
  -26.7097  -32.5530   23.1151 H   0  0  0  0  0  0
  -25.0086  -33.9783   25.0491 H   0  0  0  0  0  0
  -22.6840  -31.3094   21.4112 H   0  0  0  0  0  0
  -23.3743  -35.9669   23.3308 H   0  0  0  0  0  0
  -24.3596  -36.8922   22.2051 H   0  0  0  0  0  0
  -23.7251  -37.6541   23.6638 H   0  0  0  0  0  0
  -26.0294  -31.6011   20.5849 H   0  0  0  0  0  0
  -26.8180  -30.8986   21.9675 H   0  0  0  0  0  0
  -28.0892  -29.1149   21.1559 H   0  0  0  0  0  0
  -26.0394  -25.9883   18.9895 H   0  0  0  0  0  0
  -23.9709  -27.2965   19.0357 H   0  0  0  0  0  0
  -23.7110  -30.6034   19.4030 H   0  0  0  0  0  0
  -22.7271  -29.2484   19.8664 H   0  0  0  0  0  0
  -25.1269  -36.1980   25.0832 H   0  0  0  0  0  0
  -20.9958  -28.3226   24.1440 H   0  0  0  0  0  0
  -20.5663  -26.2261   23.3593 H   0  0  0  0  0  0
  -21.6627  -26.7442   22.1196 H   0  0  0  0  0  0
  -19.6908  -25.6329   21.1198 H   0  0  0  0  0  0
  -19.6688  -27.3245   20.6770 H   0  0  0  0  0  0
  -17.4187  -26.6695   21.4015 H   0  0  0  0  0  0
  -18.0309  -26.0065   22.8998 H   0  0  0  0  0  0
  -19.7931  -30.7246   24.2292 H   0  0  0  0  0  0
  -17.5022  -31.6260   24.5187 H   0  0  0  0  0  0
  -15.5356  -30.3013   23.7647 H   0  0  0  0  0  0
  -15.8654  -28.0865   22.7025 H   0  0  0  0  0  0
  -24.5943  -30.7024   25.7855 H   0  0  0  0  0  0
  -24.8932  -32.2891   26.4881 H   0  0  0  0  0  0
  -25.8139  -30.8954   27.0256 H   0  0  0  0  0  0
  -26.2823  -29.6805   24.1140 H   0  0  0  0  0  0
  -27.4129  -29.7274   25.4475 H   0  0  0  0  0  0
  -27.8623  -30.4379   23.9143 H   0  0  0  0  0  0
  -27.2695  -33.3594   26.2071 H   0  0  0  0  0  0
  -28.3853  -32.6890   25.0267 H   0  0  0  0  0  0
  -28.0756  -31.8408   26.5333 H   0  0  0  0  0  0
  -28.2602  -38.0094   24.7495 H   0  0  0  0  0  0
  -28.1057  -36.2626   24.6294 H   0  0  0  0  0  0
  -27.2299  -37.1464   25.8867 H   0  0  0  0  0  0
  -20.9266  -29.8796   21.7003 H   0  0  0  0  0  0
  -26.0186  -38.2869   24.1414 H   0  0  0  0  0  0
  -30.9078  -20.8935   19.1016 H   0  0  0  0  0  0
  -30.7490  -19.3182   25.5006 H   0  0  0  0  0  0
  -29.1678  -18.9814   24.8301 H   0  0  0  0  0  0
  -30.2097  -20.2033   24.0919 H   0  0  0  0  0  0
  -28.0504  -18.0247   23.0976 H   0  0  0  0  0  0
  -28.6789  -16.4117   23.3465 H   0  0  0  0  0  0
  -28.1603  -16.9349   21.7400 H   0  0  0  0  0  0
  -30.9443  -17.2486   24.2852 H   0  0  0  0  0  0
  -31.8528  -18.4626   23.4313 H   0  0  0  0  0  0
  -30.8524  -23.1262   21.0867 H   0  0  0  0  0  0
  -30.3325  -23.2914   19.4337 H   0  0  0  0  0  0
  -30.4190  -25.4233   20.6757 H   0  0  0  0  0  0
  -29.2670  -24.8519   21.8453 H   0  0  0  0  0  0
  -28.1573  -22.2561   19.9366 H   0  0  0  0  0  0
  -28.4266  -22.4058   21.6643 H   0  0  0  0  0  0
  -31.7587  -16.2938   22.4121 H   0  0  0  0  0  0
  -31.5161  -16.9037   20.8461 H   0  0  0  0  0  0
  -27.4725  -24.8791   20.2489 H   0  0  0  0  0  0
  -28.5572  -25.1096   18.8744 H   0  0  0  0  0  0
  -29.3811  -15.1362   21.8838 H   0  0  0  0  0  0
  1 25  1  0  0  0
  1 30  2  0  0  0
  1 85  1  0  0  0
  2  3  1  0  0  0
  2 25  1  0  0  0
  2 86  1  0  0  0
  2 87  1  0  0  0
  3  4  1  0  0  0
  3 88  1  0  0  0
  3 89  1  0  0  0
  4  5  1  0  0  0
  4 90  1  0  0  0
  4 91  1  0  0  0
  5  6  1  0  0  0
  5 26  1  0  0  0
  5 92  1  0  0  0
  6 25  1  0  0  0
  6 93  1  0  0  0
  6 94  1  0  0  0
  7  8  2  0  0  0
  7 26  1  0  0  0
  7 29  1  0  0  0
  8  9  1  0  0  0
  8 22  1  0  0  0
  9 10  1  0  0  0
  9 27  2  0  0  0
 10 11  2  0  0  0
 10 15  1  0  0  0
 11 12  1  0  0  0
 11 95  1  0  0  0
 12 13  2  0  0  0
 12 96  1  0  0  0
 13 14  1  0  0  0
 13 31  1  0  0  0
 14 15  2  0  0  0
 14 97  1  0  0  0
 15 98  1  0  0  0
 16 17  2  0  0  0
 16 21  1  0  0  0
 16 31  1  0  0  0
 17 18  1  0  0  0
 17 99  1  0  0  0
 18 19  2  0  0  0
 18100  1  0  0  0
 19 20  1  0  0  0
 19 24  1  0  0  0
 20 21  2  0  0  0
 20101  1  0  0  0
 21 23  1  0  0  0
 22 28  1  0  0  0
 22 32  2  0  0  0
 26 27  1  0  0  0
 28102  1  0  0  0
 28103  1  0  0  0
 29104  1  0  0  0
 29105  1  0  0  0
 33 34  1  0  0  0
 33 66  1  0  0  0
 33 70  2  0  0  0
 34 36  1  0  0  0
 34 59  1  0  0  0
 34106  1  0  0  0
 35 44  2  0  0  0
 35 45  1  0  0  0
 35 68  1  0  0  0
 36 56  1  0  0  0
 36107  1  0  0  0
 37 39  1  0  0  0
 37 47  1  0  0  0
 37 66  1  0  0  0
 37108  1  0  0  0
 38 43  2  0  0  0
 38 46  1  0  0  0
 38 47  1  0  0  0
 39 64  1  0  0  0
 39 67  2  0  0  0
 40 52  1  0  0  0
 40 53  2  0  0  0
 40 58  1  0  0  0
 41109  1  0  0  0
 41110  1  0  0  0
 41111  1  0  0  0
 41 48  1  0  0  0
 42 43  1  0  0  0
 42 66  1  0  0  0
 42112  1  0  0  0
 42113  1  0  0  0
 43 44  1  0  0  0
 44114  1  0  0  0
 45 46  2  0  0  0
 45115  1  0  0  0
 46116  1  0  0  0
 47117  1  0  0  0
 47118  1  0  0  0
 48 56  1  0  0  0
 48 65  1  0  0  0
 48119  1  0  0  0
 49 50  1  0  0  0
 49 53  1  0  0  0
 49 64  1  0  0  0
 49120  1  0  0  0
 50 51  1  0  0  0
 50121  1  0  0  0
 50122  1  0  0  0
 51 52  1  0  0  0
 51123  1  0  0  0
 51124  1  0  0  0
 52125  1  0  0  0
 52126  1  0  0  0
 53 54  1  0  0  0
 54 55  2  0  0  0
 54127  1  0  0  0
 55 57  1  0  0  0
 55128  1  0  0  0
 56 69  2  0  0  0
 57 58  2  0  0  0
 57129  1  0  0  0
 58130  1  0  0  0
 59 60  1  0  0  0
 59 61  1  0  0  0
 59 62  1  0  0  0
 60131  1  0  0  0
 60132  1  0  0  0
 60133  1  0  0  0
 61134  1  0  0  0
 61135  1  0  0  0
 61136  1  0  0  0
 62137  1  0  0  0
 62138  1  0  0  0
 62139  1  0  0  0
 63 65  1  0  0  0
 63140  1  0  0  0
 63141  1  0  0  0
 63142  1  0  0  0
 64143  1  0  0  0
 65144  1  0  0  0
 68 80  1  0  0  0
 71 82  2  0  0  0
 71 84  1  0  0  0
 71145  1  0  0  0
 72 81  1  0  0  0
 72 82  1  0  0  0
 72 83  2  0  0  0
 73 75  1  0  0  0
 73146  1  0  0  0
 73147  1  0  0  0
 73148  1  0  0  0
 74149  1  0  0  0
 74150  1  0  0  0
 74151  1  0  0  0
 74 81  1  0  0  0
 75 81  1  0  0  0
 75152  1  0  0  0
 75153  1  0  0  0
 76 77  1  0  0  0
 76 78  1  0  0  0
 76154  1  0  0  0
 76155  1  0  0  0
 77 80  1  0  0  0
 77156  1  0  0  0
 77157  1  0  0  0
 78 84  1  0  0  0
 78158  1  0  0  0
 78159  1  0  0  0
 79 81  1  0  0  0
 79 85  1  0  0  0
 79160  1  0  0  0
 79161  1  0  0  0
 80162  1  0  0  0
 80163  1  0  0  0
 83 84  1  0  0  0
 85164  1  0  0  0
M  ISO  4   1 100  68 101  80 101  85 100
M  END
> <chiral flag>
0

> <version>
0

> <s_m_source_file>
/data/baiqing/PycharmProjects/Reinvent-master-3.2/result/LINK_invent/BTK/process_docking_weight1_custom_sum_contain_oxygen_bond_distance_aromatic_linkinvent_7_9_3/rearranged_h_0065.sdf

> <i_m_source_file_index>
79

> <r_mmod_Potential_Energy-OPLS-2005>
-32.3639259338379

> <r_mmod_Stretch_Energy-OPLS-2005>
39.415111541748

> <r_mmod_Bend_Energy-OPLS-2005>
116.673881530762

> <r_mmod_Torsional_Energy-OPLS-2005>
233.256439208984

> <r_mmod_Improper_Torsional_Energy-OPLS-2005>
2.19014453887939

> <r_mmod_Van_der_Waal_Energy-OPLS-2005>
151.840927124023

> <r_mmod_Electrostatic_Energy-OPLS-2005>
-363.611236572266

> <r_mmod_Solvation_Energy-OPLS-2005>
-221.984115600586

> <b_mmod_Minimization_Converged-OPLS-2005>
0

> <r_mmod_RMS_Derivative-OPLS-2005>
1.79996621608734

$$$$
85
                    3D
 Structure written by MMmdl.
169178  0  0  1  0            999 V2000
  -30.7173  -14.4874   20.6606 C   0  0  0  0  0  0
  -30.4337  -12.3486   19.4194 C   0  0  0  0  0  0
  -29.4990  -12.5340   18.2033 C   0  0  0  0  0  0
  -28.0156  -12.3936   18.6048 C   0  0  0  0  0  0
  -27.6692  -13.2002   19.8835 C   0  0  2  0  0  0
  -28.7071  -12.8823   20.9719 C   0  0  0  0  0  0
  -25.2643  -13.8145   20.5651 C   0  0  0  0  0  0
  -24.1852  -13.0457   20.9129 C   0  0  0  0  0  0
  -24.6376  -11.6910   20.8699 C   0  0  0  0  0  0
  -23.9045  -10.4300   21.0385 C   0  0  0  0  0  0
  -24.3609   -9.4234   21.9172 C   0  0  0  0  0  0
  -23.6297   -8.2264   22.0756 C   0  0  0  0  0  0
  -22.4278   -8.0286   21.3542 C   0  0  0  0  0  0
  -21.9901   -9.0252   20.4643 C   0  0  0  0  0  0
  -22.7222  -10.2138   20.3048 C   0  0  0  0  0  0
  -21.6861   -6.0723   22.5266 C   0  0  0  0  0  0
  -21.4010   -6.5633   23.8203 C   0  0  0  0  0  0
  -21.3660   -5.6785   24.9172 C   0  0  0  0  0  0
  -21.6039   -4.3049   24.7226 C   0  0  0  0  0  0
  -21.8824   -3.8141   23.4351 C   0  0  0  0  0  0
  -21.9197   -4.6949   22.3401 C   0  0  0  0  0  0
  -22.7890  -13.5279   21.1793 C   0  0  0  0  0  0
  -22.1659   -4.2140   21.0986 F   0  0  0  0  0  0
  -21.5641   -3.4548   25.7755 F   0  0  0  0  0  0
  -30.0287  -13.3072   20.4771 N   0  0  0  0  0  0
  -26.3067  -12.9281   20.3381 N   0  0  0  0  0  0
  -25.9319  -11.6457   20.5748 N   0  0  0  0  0  0
  -22.0531  -12.8288   22.0369 N   0  0  0  0  0  0
  -25.4411  -15.1859   20.4076 N   0  0  0  0  0  0
  -31.7855  -14.6261   20.0492 O   0  0  0  0  0  0
  -21.6641   -6.8874   21.4238 O   0  0  0  0  0  0
  -22.3577  -14.5579   20.6664 O   0  0  0  0  0  0
  -24.6144  -31.8718   23.2076 C   0  0  0  0  0  0
  -25.9029  -32.4836   23.8397 C   0  0  1  0  0  0
  -27.2278  -27.4357   20.0973 C   0  0  0  0  0  0
  -25.5878  -33.8619   24.2330 N   0  0  0  0  0  0
  -23.4039  -30.4876   21.5534 C   0  0  2  0  0  0
  -24.8524  -28.9546   20.1172 C   0  0  0  0  0  0
  -22.7425  -29.4629   22.5046 C   0  0  0  0  0  0
  -18.0255  -28.1401   22.8494 C   0  0  0  0  0  0
  -24.1483  -36.7292   23.2638 C   0  0  0  0  0  0
  -25.9307  -30.8393   21.3577 C   0  0  0  0  0  0
  -26.0122  -29.4690   20.7116 C   0  0  0  0  0  0
  -27.2072  -28.7101   20.7050 C   0  0  0  0  0  0
  -26.0606  -26.9336   19.4951 C   0  0  0  0  0  0
  -24.8700  -27.6830   19.5099 C   0  0  0  0  0  0
  -23.6113  -29.8169   20.1709 C   0  0  0  0  0  0
  -25.4103  -36.3112   24.0354 C   0  0  1  0  0  0
  -20.5848  -28.3651   23.1359 C   0  0  2  0  0  0
  -20.6750  -26.9388   22.5461 C   0  0  0  0  0  0
  -19.5732  -26.6392   21.5251 C   0  0  0  0  0  0
  -18.1884  -26.7947   22.1625 C   0  0  0  0  0  0
  -19.1508  -28.8833   23.2901 C   0  0  0  0  0  0
  -18.9445  -30.1430   23.8904 C   0  0  0  0  0  0
  -17.6454  -30.6589   24.0565 C   0  0  0  0  0  0
  -25.9052  -34.9477   23.5155 C   0  0  0  0  0  0
  -16.5333  -29.9092   23.6351 C   0  0  0  0  0  0
  -16.7252  -28.6525   23.0360 C   0  0  0  0  0  0
  -26.4448  -31.6626   25.0743 C   0  0  0  0  0  0
  -25.3682  -31.3689   26.1478 C   0  0  0  0  0  0
  -27.0314  -30.3111   24.6071 C   0  0  0  0  0  0
  -27.6057  -32.4338   25.7481 C   0  0  0  0  0  0
  -27.5567  -37.1768   24.8459 C   0  0  0  0  0  0
  -21.4160  -29.2996   22.3766 N   0  0  0  0  0  0
  -26.4276  -37.3808   23.9427 N   0  0  0  0  0  0
  -24.6679  -31.0773   22.0982 N   0  0  0  0  0  0
  -23.4179  -28.8143   23.3083 O   0  0  0  0  0  0
  -28.3560  -26.6516   20.0908 O   0  0  0  0  0  0
  -26.5620  -34.8934   22.4716 O   0  0  0  0  0  0
  -23.5331  -32.1427   23.7472 O   0  0  0  0  0  0
  -29.7994  -23.6709   21.3804 C   0  0  0  0  0  0
  -29.7362  -22.2650   21.4867 C   0  0  0  0  0  0
  -28.6732  -19.0997   19.5131 C   0  0  0  0  0  0
  -28.5975  -24.3813   21.1705 C   0  0  0  0  0  0
  -28.4666  -21.6441   21.4101 C   0  0  0  0  0  0
  -28.9877  -17.9238   18.8215 C   0  0  0  0  0  0
  -28.9039  -19.1133   20.8963 C   0  0  0  0  0  0
  -29.7684  -16.9411   20.7632 C   0  0  0  0  0  0
  -28.6746  -17.7780   17.3473 C   0  0  0  0  0  0
  -26.7837  -19.7642   21.9849 C   0  0  0  0  0  0
  -28.8887  -20.0265   23.2692 C   0  0  0  0  0  0
  -29.1769  -15.3969   22.6228 C   0  0  0  0  0  0
  -28.5497  -25.9135   21.3104 C   0  0  0  0  0  0
  -28.2773  -20.1601   21.8494 C   0  0  0  0  0  0
  -30.2847  -15.7150   21.5876 C   0  0  1  0  0  0
  -31.5641  -16.1199   22.4132 C   0  0  0  0  0  0
  -29.5151  -16.8529   19.4509 N   0  0  0  0  0  0
  -29.4384  -18.0198   21.4775 N   0  0  0  0  0  0
  -27.4167  -23.7264   21.0118 N   0  0  0  0  0  0
  -27.3556  -22.3899   21.1440 N   0  0  0  0  0  0
  -31.3003  -17.0093   23.3770 F   0  0  0  0  0  0
  -32.0788  -15.0523   23.0338 F   0  0  0  0  0  0
  -32.5375  -16.6458   21.6614 F   0  0  0  0  0  0
  -31.4739  -12.4576   19.1053 H   0  0  0  0  0  0
  -30.3780  -11.3227   19.7887 H   0  0  0  0  0  0
  -29.7465  -11.8041   17.4303 H   0  0  0  0  0  0
  -29.6684  -13.5204   17.7628 H   0  0  0  0  0  0
  -27.8239  -11.3332   18.7776 H   0  0  0  0  0  0
  -27.3683  -12.6916   17.7803 H   0  0  0  0  0  0
  -27.7370  -14.2604   19.6405 H   0  0  0  0  0  0
  -28.7196  -11.8031   21.1279 H   0  0  0  0  0  0
  -28.4068  -13.2170   21.9520 H   0  0  0  0  0  0
  -25.2763   -9.5732   22.4734 H   0  0  0  0  0  0
  -24.0010   -7.4670   22.7491 H   0  0  0  0  0  0
  -21.0829   -8.8766   19.8963 H   0  0  0  0  0  0
  -22.3669  -10.9672   19.6152 H   0  0  0  0  0  0
  -21.1977   -7.6141   23.9703 H   0  0  0  0  0  0
  -21.1479   -6.0521   25.9070 H   0  0  0  0  0  0
  -22.0599   -2.7609   23.2860 H   0  0  0  0  0  0
  -22.4158  -11.9946   22.4741 H   0  0  0  0  0  0
  -21.1150  -13.1341   22.2556 H   0  0  0  0  0  0
  -24.6748  -15.8435   20.4975 H   0  0  0  0  0  0
  -26.2981  -15.6206   20.0905 H   0  0  0  0  0  0
  -26.7090  -32.5570   23.1149 H   0  0  0  0  0  0
  -25.0027  -33.9805   25.0462 H   0  0  0  0  0  0
  -22.6926  -31.3024   21.4091 H   0  0  0  0  0  0
  -23.3786  -35.9590   23.3327 H   0  0  0  0  0  0
  -24.3545  -36.8914   22.2044 H   0  0  0  0  0  0
  -23.7212  -37.6477   23.6651 H   0  0  0  0  0  0
  -26.0262  -31.5977   20.5778 H   0  0  0  0  0  0
  -26.8213  -30.9082   21.9690 H   0  0  0  0  0  0
  -28.1071  -29.0955   21.1586 H   0  0  0  0  0  0
  -26.0713  -25.9552   19.0347 H   0  0  0  0  0  0
  -23.9738  -27.2714   19.0636 H   0  0  0  0  0  0
  -23.7093  -30.5856   19.4054 H   0  0  0  0  0  0
  -22.7376  -29.2294   19.8854 H   0  0  0  0  0  0
  -25.1262  -36.1979   25.0855 H   0  0  0  0  0  0
  -20.9885  -28.3209   24.1497 H   0  0  0  0  0  0
  -20.5678  -26.2236   23.3634 H   0  0  0  0  0  0
  -21.6616  -26.7470   22.1197 H   0  0  0  0  0  0
  -19.6911  -25.6310   21.1250 H   0  0  0  0  0  0
  -19.6698  -27.3229   20.6799 H   0  0  0  0  0  0
  -17.4176  -26.6740   21.3993 H   0  0  0  0  0  0
  -18.0200  -26.0092   22.9010 H   0  0  0  0  0  0
  -19.7930  -30.7228   24.2288 H   0  0  0  0  0  0
  -17.5026  -31.6282   24.5145 H   0  0  0  0  0  0
  -15.5318  -30.2985   23.7718 H   0  0  0  0  0  0
  -15.8672  -28.0843   22.7094 H   0  0  0  0  0  0
  -24.5933  -30.6974   25.7778 H   0  0  0  0  0  0
  -24.8723  -32.2786   26.4877 H   0  0  0  0  0  0
  -25.7991  -30.8903   27.0273 H   0  0  0  0  0  0
  -26.2863  -29.6837   24.1168 H   0  0  0  0  0  0
  -27.4223  -29.7397   25.4478 H   0  0  0  0  0  0
  -27.8609  -30.4545   23.9155 H   0  0  0  0  0  0
  -27.2779  -33.3702   26.1988 H   0  0  0  0  0  0
  -28.3843  -32.6781   25.0259 H   0  0  0  0  0  0
  -28.0696  -31.8479   26.5401 H   0  0  0  0  0  0
  -28.2569  -38.0082   24.7564 H   0  0  0  0  0  0
  -28.1099  -36.2615   24.6231 H   0  0  0  0  0  0
  -27.2285  -37.1364   25.8867 H   0  0  0  0  0  0
  -20.9338  -29.8735   21.6987 H   0  0  0  0  0  0
  -26.0192  -38.2892   24.1499 H   0  0  0  0  0  0
  -30.7365  -24.1882   21.5256 H   0  0  0  0  0  0
  -30.6230  -21.6981   21.7259 H   0  0  0  0  0  0
  -28.1894  -19.9269   19.0118 H   0  0  0  0  0  0
  -27.6268  -18.0144   17.1630 H   0  0  0  0  0  0
  -28.8480  -16.7625   16.9894 H   0  0  0  0  0  0
  -29.2856  -18.4575   16.7542 H   0  0  0  0  0  0
  -26.2395  -19.8846   21.0473 H   0  0  0  0  0  0
  -26.2733  -20.3571   22.7411 H   0  0  0  0  0  0
  -26.6864  -18.7174   22.2790 H   0  0  0  0  0  0
  -29.9723  -20.1204   23.2452 H   0  0  0  0  0  0
  -28.6695  -19.0551   23.7118 H   0  0  0  0  0  0
  -28.5033  -20.7812   23.9497 H   0  0  0  0  0  0
  -29.0374  -16.2256   23.3156 H   0  0  0  0  0  0
  -29.4262  -14.5379   23.2440 H   0  0  0  0  0  0
  -28.2049  -15.2800   22.1450 H   0  0  0  0  0  0
  -29.4815  -26.2520   21.7635 H   0  0  0  0  0  0
  -27.7732  -26.1413   22.0428 H   0  0  0  0  0  0
  1 25  1  0  0  0
  1 30  2  0  0  0
  1 85  1  0  0  0
  2  3  1  0  0  0
  2 25  1  0  0  0
  2 94  1  0  0  0
  2 95  1  0  0  0
  3  4  1  0  0  0
  3 96  1  0  0  0
  3 97  1  0  0  0
  4  5  1  0  0  0
  4 98  1  0  0  0
  4 99  1  0  0  0
  5  6  1  0  0  0
  5 26  1  0  0  0
  5100  1  0  0  0
  6 25  1  0  0  0
  6101  1  0  0  0
  6102  1  0  0  0
  7  8  2  0  0  0
  7 26  1  0  0  0
  7 29  1  0  0  0
  8  9  1  0  0  0
  8 22  1  0  0  0
  9 10  1  0  0  0
  9 27  2  0  0  0
 10 11  2  0  0  0
 10 15  1  0  0  0
 11 12  1  0  0  0
 11103  1  0  0  0
 12 13  2  0  0  0
 12104  1  0  0  0
 13 14  1  0  0  0
 13 31  1  0  0  0
 14 15  2  0  0  0
 14105  1  0  0  0
 15106  1  0  0  0
 16 17  2  0  0  0
 16 21  1  0  0  0
 16 31  1  0  0  0
 17 18  1  0  0  0
 17107  1  0  0  0
 18 19  2  0  0  0
 18108  1  0  0  0
 19 20  1  0  0  0
 19 24  1  0  0  0
 20 21  2  0  0  0
 20109  1  0  0  0
 21 23  1  0  0  0
 22 28  1  0  0  0
 22 32  2  0  0  0
 26 27  1  0  0  0
 28110  1  0  0  0
 28111  1  0  0  0
 29112  1  0  0  0
 29113  1  0  0  0
 33 34  1  0  0  0
 33 66  1  0  0  0
 33 70  2  0  0  0
 34 36  1  0  0  0
 34 59  1  0  0  0
 34114  1  0  0  0
 35 44  2  0  0  0
 35 45  1  0  0  0
 35 68  1  0  0  0
 36 56  1  0  0  0
 36115  1  0  0  0
 37 39  1  0  0  0
 37 47  1  0  0  0
 37 66  1  0  0  0
 37116  1  0  0  0
 38 43  2  0  0  0
 38 46  1  0  0  0
 38 47  1  0  0  0
 39 64  1  0  0  0
 39 67  2  0  0  0
 40 52  1  0  0  0
 40 53  2  0  0  0
 40 58  1  0  0  0
 41117  1  0  0  0
 41118  1  0  0  0
 41119  1  0  0  0
 41 48  1  0  0  0
 42 43  1  0  0  0
 42 66  1  0  0  0
 42120  1  0  0  0
 42121  1  0  0  0
 43 44  1  0  0  0
 44122  1  0  0  0
 45 46  2  0  0  0
 45123  1  0  0  0
 46124  1  0  0  0
 47125  1  0  0  0
 47126  1  0  0  0
 48 56  1  0  0  0
 48 65  1  0  0  0
 48127  1  0  0  0
 49 50  1  0  0  0
 49 53  1  0  0  0
 49 64  1  0  0  0
 49128  1  0  0  0
 50 51  1  0  0  0
 50129  1  0  0  0
 50130  1  0  0  0
 51 52  1  0  0  0
 51131  1  0  0  0
 51132  1  0  0  0
 52133  1  0  0  0
 52134  1  0  0  0
 53 54  1  0  0  0
 54 55  2  0  0  0
 54135  1  0  0  0
 55 57  1  0  0  0
 55136  1  0  0  0
 56 69  2  0  0  0
 57 58  2  0  0  0
 57137  1  0  0  0
 58138  1  0  0  0
 59 60  1  0  0  0
 59 61  1  0  0  0
 59 62  1  0  0  0
 60139  1  0  0  0
 60140  1  0  0  0
 60141  1  0  0  0
 61142  1  0  0  0
 61143  1  0  0  0
 61144  1  0  0  0
 62145  1  0  0  0
 62146  1  0  0  0
 62147  1  0  0  0
 63 65  1  0  0  0
 63148  1  0  0  0
 63149  1  0  0  0
 63150  1  0  0  0
 64151  1  0  0  0
 65152  1  0  0  0
 68 83  1  0  0  0
 71 72  2  0  0  0
 71 74  1  0  0  0
 71153  1  0  0  0
 72 75  1  0  0  0
 72154  1  0  0  0
 73 76  2  0  0  0
 73 77  1  0  0  0
 73155  1  0  0  0
 74 83  1  0  0  0
 74 89  2  0  0  0
 75 84  1  0  0  0
 75 90  2  0  0  0
 76 79  1  0  0  0
 76 87  1  0  0  0
 77 84  1  0  0  0
 77 88  2  0  0  0
 78 85  1  0  0  0
 78 87  2  0  0  0
 78 88  1  0  0  0
 79156  1  0  0  0
 79157  1  0  0  0
 79158  1  0  0  0
 80159  1  0  0  0
 80160  1  0  0  0
 80161  1  0  0  0
 80 84  1  0  0  0
 81 84  1  0  0  0
 81162  1  0  0  0
 81163  1  0  0  0
 81164  1  0  0  0
 82165  1  0  0  0
 82166  1  0  0  0
 82167  1  0  0  0
 82 85  1  0  0  0
 83168  1  0  0  0
 83169  1  0  0  0
 85 86  1  0  0  0
 86 91  1  0  0  0
 86 92  1  0  0  0
 86 93  1  0  0  0
 89 90  1  0  0  0
M  ISO  4   1 100  68 101  83 101  85 100
M  END
> <chiral flag>
0

> <version>
0

> <s_m_source_file>
/data/baiqing/PycharmProjects/Reinvent-master-3.2/result/LINK_invent/BTK/process_docking_weight1_custom_sum_contain_oxygen_bond_distance_aromatic_linkinvent_7_9_3/rearranged_h_0065.sdf

> <i_m_source_file_index>
80

> <r_mmod_Potential_Energy-OPLS-2005>
3.41614985466003

> <r_mmod_Stretch_Energy-OPLS-2005>
61.906063079834

> <r_mmod_Bend_Energy-OPLS-2005>
154.177001953125

> <r_mmod_Torsional_Energy-OPLS-2005>
209.278091430664

> <r_mmod_Improper_Torsional_Energy-OPLS-2005>
6.53538751602173

> <r_mmod_Van_der_Waal_Energy-OPLS-2005>
203.033493041992

> <r_mmod_Electrostatic_Energy-OPLS-2005>
-438.153686523438

> <r_mmod_Solvation_Energy-OPLS-2005>
-207.057235717773

> <b_mmod_Minimization_Converged-OPLS-2005>
0

> <r_mmod_RMS_Derivative-OPLS-2005>
5.53937339782715

$$$$
86
                    3D
 Structure written by MMmdl.
172180  0  0  1  0            999 V2000
  -30.2738  -14.2829   20.8977 C   0  0  0  0  0  0
  -30.6134  -12.4163   19.2319 C   0  0  0  0  0  0
  -29.6413  -12.5724   18.0055 C   0  0  0  0  0  0
  -28.1183  -12.4942   18.3074 C   0  0  0  0  0  0
  -27.8987  -13.2404   19.6059 C   0  0  2  0  0  0
  -28.7846  -12.4369   20.5956 C   0  0  0  0  0  0
  -25.1411  -14.2582   20.0630 C   0  0  0  0  0  0
  -24.1623  -13.4582   21.0176 C   0  0  0  0  0  0
  -24.7827  -12.0644   21.4793 C   0  0  0  0  0  0
  -24.0055  -10.6730   21.4101 C   0  0  0  0  0  0
  -24.4373   -9.5241   22.1227 C   0  0  0  0  0  0
  -23.7159   -8.2930   22.1410 C   0  0  0  0  0  0
  -22.5237   -8.1123   21.3974 C   0  0  0  0  0  0
  -22.1355   -9.1784   20.5670 C   0  0  0  0  0  0
  -22.8533  -10.4075   20.5765 C   0  0  0  0  0  0
  -21.7208   -6.1136   22.5122 C   0  0  0  0  0  0
  -21.4276   -6.5886   23.8108 C   0  0  0  0  0  0
  -21.3730   -5.6992   24.9035 C   0  0  0  0  0  0
  -21.6006   -4.3232   24.7067 C   0  0  0  0  0  0
  -21.8705   -3.8365   23.4159 C   0  0  0  0  0  0
  -21.9271   -4.7265   22.3238 C   0  0  0  0  0  0
  -22.7064  -13.7337   21.1912 C   0  0  0  0  0  0
  -22.1708   -4.2390   21.0850 F   0  0  0  0  0  0
  -21.5565   -3.4678   25.7560 F   0  0  0  0  0  0
  -30.0366  -13.0411   20.4328 N   0  0  0  0  0  0
  -26.6100  -13.2564   20.0837 N   0  0  0  0  0  0
  -26.2242  -12.0254   21.0655 N   0  0  0  0  0  0
  -22.0020  -12.9512   22.0097 N   0  0  0  0  0  0
  -25.0170  -15.4546   19.4551 N   0  0  0  0  0  0
  -31.3400  -14.8072   20.4931 O   0  0  0  0  0  0
  -21.7535   -6.9565   21.4177 O   0  0  0  0  0  0
  -22.1990  -14.6832   20.6140 O   0  0  0  0  0  0
  -24.6585  -31.8346   23.1832 C   0  0  0  0  0  0
  -25.9291  -32.4667   23.8242 C   0  0  1  0  0  0
  -27.0085  -26.8770   20.2885 C   0  0  0  0  0  0
  -25.5978  -33.8485   24.2152 N   0  0  0  0  0  0
  -23.4628  -30.4619   21.5331 C   0  0  2  0  0  0
  -24.8888  -28.8733   20.0960 C   0  0  0  0  0  0
  -22.7648  -29.4496   22.4788 C   0  0  0  0  0  0
  -18.0313  -28.1400   22.8475 C   0  0  0  0  0  0
  -24.1482  -36.7237   23.2634 C   0  0  0  0  0  0
  -26.0326  -30.6300   21.4206 C   0  0  0  0  0  0
  -26.0674  -29.2233   20.7663 C   0  0  0  0  0  0
  -27.1457  -28.2392   20.8399 C   0  0  0  0  0  0
  -25.8813  -26.7255   19.4704 C   0  0  0  0  0  0
  -24.8295  -27.6591   19.4046 C   0  0  0  0  0  0
  -23.6938  -29.8141   20.1425 C   0  0  0  0  0  0
  -25.4130  -36.3042   24.0311 C   0  0  1  0  0  0
  -20.5942  -28.3743   23.1200 C   0  0  2  0  0  0
  -20.6791  -26.9418   22.5408 C   0  0  0  0  0  0
  -19.5760  -26.6360   21.5226 C   0  0  0  0  0  0
  -18.1942  -26.7939   22.1629 C   0  0  0  0  0  0
  -19.1574  -28.8895   23.2820 C   0  0  0  0  0  0
  -18.9480  -30.1486   23.8846 C   0  0  0  0  0  0
  -17.6469  -30.6589   24.0553 C   0  0  0  0  0  0
  -25.9090  -34.9414   23.5046 C   0  0  0  0  0  0
  -16.5364  -29.9068   23.6344 C   0  0  0  0  0  0
  -16.7291  -28.6493   23.0363 C   0  0  0  0  0  0
  -26.4527  -31.6613   25.0779 C   0  0  0  0  0  0
  -25.3625  -31.3879   26.1425 C   0  0  0  0  0  0
  -27.0427  -30.2981   24.6536 C   0  0  0  0  0  0
  -27.6052  -32.4404   25.7555 C   0  0  0  0  0  0
  -27.5590  -37.1784   24.8458 C   0  0  0  0  0  0
  -21.4323  -29.3051   22.3559 N   0  0  0  0  0  0
  -26.4299  -37.3765   23.9407 N   0  0  0  0  0  0
  -24.7403  -31.0046   22.0964 N   0  0  0  0  0  0
  -23.4254  -28.8025   23.2953 O   0  0  0  0  0  0
  -27.7796  -25.6371   20.4973 O   0  0  0  0  0  0
  -26.5677  -34.8925   22.4630 O   0  0  0  0  0  0
  -23.5673  -32.1305   23.6954 O   0  0  0  0  0  0
  -26.0032  -18.4127   22.6149 C   0  0  0  0  0  0
  -26.6257  -19.2097   21.5590 C   0  0  0  0  0  0
  -27.0729  -18.1606   20.6559 C   0  0  0  0  0  0
  -26.2857  -16.0557   21.8372 C   0  0  0  0  0  0
  -27.6788  -18.5696   19.3321 C   0  0  0  0  0  0
  -30.6288  -15.7995   23.6078 C   0  0  0  0  0  0
  -30.2887  -17.2366   21.5402 C   0  0  0  0  0  0
  -24.9071  -12.2507   19.1634 C   0  0  0  0  0  0
  -26.5276  -20.9730   21.4378 C   0  0  0  0  0  0
  -27.4716  -22.4125   20.8898 C   0  0  0  0  0  0
  -27.9091  -14.2701   22.4333 C   0  0  0  0  0  0
  -27.0568  -24.1774   20.8307 C   0  0  0  0  0  0
  -29.6835  -16.1224   22.4294 C   0  0  0  0  0  0
  -26.2049  -14.2252   22.0030 C   0  0  1  0  0  0
  -25.6199  -13.8652   23.4725 C   0  0  0  0  0  0
  -25.8419  -16.9992   22.7335 N   0  0  0  0  0  0
  -26.9539  -16.7461   20.8257 N   0  0  0  0  0  0
  -29.2498  -14.8613   21.7331 N   0  0  0  0  0  0
  -25.9890  -12.6381   23.8515 F   0  0  0  0  0  0
  -24.2996  -13.9309   23.6121 F   0  0  0  0  0  0
  -26.0572  -14.6662   24.4454 F   0  0  0  0  0  0
  -31.5846  -12.8519   18.9902 H   0  0  0  0  0  0
  -30.8314  -11.3644   19.4288 H   0  0  0  0  0  0
  -29.9035  -11.8528   17.2312 H   0  0  0  0  0  0
  -29.8242  -13.5523   17.5606 H   0  0  0  0  0  0
  -27.7863  -11.4557   18.3706 H   0  0  0  0  0  0
  -27.5570  -12.9489   17.4917 H   0  0  0  0  0  0
  -28.1488  -14.2909   19.4391 H   0  0  0  0  0  0
  -28.8028  -11.3869   20.2905 H   0  0  0  0  0  0
  -28.5526  -12.1899   21.6132 H   0  0  0  0  0  0
  -25.3278   -9.6082   22.7286 H   0  0  0  0  0  0
  -24.0825   -7.4871   22.7591 H   0  0  0  0  0  0
  -21.2538   -9.0822   19.9483 H   0  0  0  0  0  0
  -22.4532  -11.1895   19.9523 H   0  0  0  0  0  0
  -21.2474   -7.6425   23.9736 H   0  0  0  0  0  0
  -21.1586   -6.0697   25.8966 H   0  0  0  0  0  0
  -22.0350   -2.7809   23.2605 H   0  0  0  0  0  0
  -22.4104  -12.1674   22.4943 H   0  0  0  0  0  0
  -21.0164  -13.1298   22.1376 H   0  0  0  0  0  0
  -24.1296  -15.9246   19.6119 H   0  0  0  0  0  0
  -25.8050  -16.0999   19.5742 H   0  0  0  0  0  0
  -26.7349  -32.5199   23.0934 H   0  0  0  0  0  0
  -25.0113  -33.9580   25.0296 H   0  0  0  0  0  0
  -22.7728  -31.2960   21.3887 H   0  0  0  0  0  0
  -23.3799  -35.9506   23.3272 H   0  0  0  0  0  0
  -24.3540  -36.8910   22.2047 H   0  0  0  0  0  0
  -23.7172  -37.6397   23.6698 H   0  0  0  0  0  0
  -26.2272  -31.3703   20.6442 H   0  0  0  0  0  0
  -26.8918  -30.6730   22.0792 H   0  0  0  0  0  0
  -28.0261  -28.4740   21.4217 H   0  0  0  0  0  0
  -25.7355  -25.8020   18.9323 H   0  0  0  0  0  0
  -23.9460  -27.4153   18.8325 H   0  0  0  0  0  0
  -23.8675  -30.5999   19.4071 H   0  0  0  0  0  0
  -22.7966  -29.2907   19.8096 H   0  0  0  0  0  0
  -25.1319  -36.1857   25.0806 H   0  0  0  0  0  0
  -21.0018  -28.3332   24.1328 H   0  0  0  0  0  0
  -20.5706  -26.2332   23.3634 H   0  0  0  0  0  0
  -21.6648  -26.7413   22.1187 H   0  0  0  0  0  0
  -19.6899  -25.6256   21.1285 H   0  0  0  0  0  0
  -19.6696  -27.3149   20.6744 H   0  0  0  0  0  0
  -17.4210  -26.6695   21.4026 H   0  0  0  0  0  0
  -18.0310  -26.0093   22.9035 H   0  0  0  0  0  0
  -19.7949  -30.7319   24.2198 H   0  0  0  0  0  0
  -17.5013  -31.6272   24.5149 H   0  0  0  0  0  0
  -15.5360  -30.2940   23.7706 H   0  0  0  0  0  0
  -15.8700  -28.0791   22.7104 H   0  0  0  0  0  0
  -24.5782  -30.7273   25.7713 H   0  0  0  0  0  0
  -24.8818  -32.3087   26.4750 H   0  0  0  0  0  0
  -25.7802  -30.9081   27.0281 H   0  0  0  0  0  0
  -26.3083  -29.6654   24.1549 H   0  0  0  0  0  0
  -27.3954  -29.7372   25.5202 H   0  0  0  0  0  0
  -27.9043  -30.4200   23.9972 H   0  0  0  0  0  0
  -27.2657  -33.3743   26.2042 H   0  0  0  0  0  0
  -28.3889  -32.6903   25.0397 H   0  0  0  0  0  0
  -28.0687  -31.8582   26.5528 H   0  0  0  0  0  0
  -28.2599  -38.0101   24.7577 H   0  0  0  0  0  0
  -28.1114  -36.2644   24.6218 H   0  0  0  0  0  0
  -27.2313  -37.1343   25.8861 H   0  0  0  0  0  0
  -20.9542  -29.8785   21.6744 H   0  0  0  0  0  0
  -26.0178  -38.2841   24.1413 H   0  0  0  0  0  0
  -25.5475  -18.9597   23.4277 H   0  0  0  0  0  0
  -28.0863  -19.5807   19.3700 H   0  0  0  0  0  0
  -26.9172  -18.5345   18.5561 H   0  0  0  0  0  0
  -28.4771  -17.8968   19.0281 H   0  0  0  0  0  0
  -30.2021  -15.0465   24.2694 H   0  0  0  0  0  0
  -30.8289  -16.6833   24.2136 H   0  0  0  0  0  0
  -31.5961  -15.4260   23.2670 H   0  0  0  0  0  0
  -31.3505  -17.0986   21.3413 H   0  0  0  0  0  0
  -30.1948  -18.2093   22.0213 H   0  0  0  0  0  0
  -29.7894  -17.3046   20.5807 H   0  0  0  0  0  0
  -25.3276  -12.5672   18.1984 H   0  0  0  0  0  0
  -23.8453  -12.3549   18.9182 H   0  0  0  0  0  0
  -25.1170  -11.1753   19.1327 H   0  0  0  0  0  0
  -26.3203  -21.2363   22.4752 H   0  0  0  0  0  0
  -25.5608  -21.1009   20.9482 H   0  0  0  0  0  0
  -27.7677  -22.1760   19.8694 H   0  0  0  0  0  0
  -28.4026  -22.3731   21.4545 H   0  0  0  0  0  0
  -28.1733  -13.4029   23.0333 H   0  0  0  0  0  0
  -27.8922  -14.9026   23.3101 H   0  0  0  0  0  0
  -26.6575  -24.3704   21.8266 H   0  0  0  0  0  0
  -26.1663  -24.1717   20.2065 H   0  0  0  0  0  0
  -28.8171  -16.6252   22.8530 H   0  0  0  0  0  0
  1 25  1  0  0  0
  1 30  2  0  0  0
  1 88  1  0  0  0
  2  3  1  0  0  0
  2 25  1  0  0  0
  2 92  1  0  0  0
  2 93  1  0  0  0
  3  4  1  0  0  0
  3 94  1  0  0  0
  3 95  1  0  0  0
  4  5  1  0  0  0
  4 96  1  0  0  0
  4 97  1  0  0  0
  5  6  1  0  0  0
  5 26  1  0  0  0
  5 98  1  0  0  0
  6 25  1  0  0  0
  6 99  1  0  0  0
  6100  1  0  0  0
  7  8  2  0  0  0
  7 26  1  0  0  0
  7 29  1  0  0  0
  8  9  1  0  0  0
  8 22  1  0  0  0
  9 10  1  0  0  0
  9 27  2  0  0  0
 10 11  2  0  0  0
 10 15  1  0  0  0
 11 12  1  0  0  0
 11101  1  0  0  0
 12 13  2  0  0  0
 12102  1  0  0  0
 13 14  1  0  0  0
 13 31  1  0  0  0
 14 15  2  0  0  0
 14103  1  0  0  0
 15104  1  0  0  0
 16 17  2  0  0  0
 16 21  1  0  0  0
 16 31  1  0  0  0
 17 18  1  0  0  0
 17105  1  0  0  0
 18 19  2  0  0  0
 18106  1  0  0  0
 19 20  1  0  0  0
 19 24  1  0  0  0
 20 21  2  0  0  0
 20107  1  0  0  0
 21 23  1  0  0  0
 22 28  1  0  0  0
 22 32  2  0  0  0
 26 27  1  0  0  0
 28108  1  0  0  0
 28109  1  0  0  0
 29110  1  0  0  0
 29111  1  0  0  0
 33 34  1  0  0  0
 33 66  1  0  0  0
 33 70  2  0  0  0
 34 36  1  0  0  0
 34 59  1  0  0  0
 34112  1  0  0  0
 35 44  2  0  0  0
 35 45  1  0  0  0
 35 68  1  0  0  0
 36 56  1  0  0  0
 36113  1  0  0  0
 37 39  1  0  0  0
 37 47  1  0  0  0
 37 66  1  0  0  0
 37114  1  0  0  0
 38 43  2  0  0  0
 38 46  1  0  0  0
 38 47  1  0  0  0
 39 64  1  0  0  0
 39 67  2  0  0  0
 40 52  1  0  0  0
 40 53  2  0  0  0
 40 58  1  0  0  0
 41115  1  0  0  0
 41116  1  0  0  0
 41117  1  0  0  0
 41 48  1  0  0  0
 42 43  1  0  0  0
 42 66  1  0  0  0
 42118  1  0  0  0
 42119  1  0  0  0
 43 44  1  0  0  0
 44120  1  0  0  0
 45 46  2  0  0  0
 45121  1  0  0  0
 46122  1  0  0  0
 47123  1  0  0  0
 47124  1  0  0  0
 48 56  1  0  0  0
 48 65  1  0  0  0
 48125  1  0  0  0
 49 50  1  0  0  0
 49 53  1  0  0  0
 49 64  1  0  0  0
 49126  1  0  0  0
 50 51  1  0  0  0
 50127  1  0  0  0
 50128  1  0  0  0
 51 52  1  0  0  0
 51129  1  0  0  0
 51130  1  0  0  0
 52131  1  0  0  0
 52132  1  0  0  0
 53 54  1  0  0  0
 54 55  2  0  0  0
 54133  1  0  0  0
 55 57  1  0  0  0
 55134  1  0  0  0
 56 69  2  0  0  0
 57 58  2  0  0  0
 57135  1  0  0  0
 58136  1  0  0  0
 59 60  1  0  0  0
 59 61  1  0  0  0
 59 62  1  0  0  0
 60137  1  0  0  0
 60138  1  0  0  0
 60139  1  0  0  0
 61140  1  0  0  0
 61141  1  0  0  0
 61142  1  0  0  0
 62143  1  0  0  0
 62144  1  0  0  0
 62145  1  0  0  0
 63 65  1  0  0  0
 63146  1  0  0  0
 63147  1  0  0  0
 63148  1  0  0  0
 64149  1  0  0  0
 65150  1  0  0  0
 68 82  1  0  0  0
 71 72  2  0  0  0
 71 86  1  0  0  0
 71151  1  0  0  0
 72 73  1  0  0  0
 72 79  1  0  0  0
 73 75  1  0  0  0
 73 87  2  0  0  0
 74 84  1  0  0  0
 74 86  2  0  0  0
 74 87  1  0  0  0
 75152  1  0  0  0
 75153  1  0  0  0
 75154  1  0  0  0
 76155  1  0  0  0
 76156  1  0  0  0
 76157  1  0  0  0
 76 83  1  0  0  0
 77 83  1  0  0  0
 77158  1  0  0  0
 77159  1  0  0  0
 77160  1  0  0  0
 78161  1  0  0  0
 78162  1  0  0  0
 78163  1  0  0  0
 78 84  1  0  0  0
 79 80  1  0  0  0
 79164  1  0  0  0
 79165  1  0  0  0
 80 82  1  0  0  0
 80166  1  0  0  0
 80167  1  0  0  0
 81 84  1  0  0  0
 81 88  1  0  0  0
 81168  1  0  0  0
 81169  1  0  0  0
 82170  1  0  0  0
 82171  1  0  0  0
 83 88  1  0  0  0
 83172  1  0  0  0
 84 85  1  0  0  0
 85 89  1  0  0  0
 85 90  1  0  0  0
 85 91  1  0  0  0
M  ISO  4   1 100  68 101  82 101  88 100
M  END
> <chiral flag>
0

> <version>
0

> <s_m_source_file>
/data/baiqing/PycharmProjects/Reinvent-master-3.2/result/LINK_invent/BTK/process_docking_weight1_custom_sum_contain_oxygen_bond_distance_aromatic_linkinvent_7_9_3/rearranged_h_0065.sdf

> <i_m_source_file_index>
81

> <r_mmod_Potential_Energy-OPLS-2005>
10172.1904296875

> <r_mmod_Stretch_Energy-OPLS-2005>
6711.818359375

> <r_mmod_Bend_Energy-OPLS-2005>
762.938842773438

> <r_mmod_Torsional_Energy-OPLS-2005>
365.628875732422

> <r_mmod_Improper_Torsional_Energy-OPLS-2005>
26.3518829345703

> <r_mmod_Van_der_Waal_Energy-OPLS-2005>
2225.611328125

> <r_mmod_Electrostatic_Energy-OPLS-2005>
-563.662170410156

> <r_mmod_Solvation_Energy-OPLS-2005>
-184.156097412109

> <b_mmod_Minimization_Converged-OPLS-2005>
0

> <r_mmod_RMS_Derivative-OPLS-2005>
8.78985786437988

$$$$
87
                    3D
 Structure written by MMmdl.
172181  0  0  1  0            999 V2000
  -30.6745  -14.5116   20.4411 C   0  0  0  0  0  0
  -30.4357  -12.2917   19.4375 C   0  0  0  0  0  0
  -29.4937  -12.4076   18.2151 C   0  0  0  0  0  0
  -28.0202  -12.2785   18.6458 C   0  0  0  0  0  0
  -27.6508  -13.1796   19.8501 C   0  0  2  0  0  0
  -28.7009  -13.0495   20.9765 C   0  0  0  0  0  0
  -25.2609  -13.8052   20.5695 C   0  0  0  0  0  0
  -24.1862  -13.0376   20.9275 C   0  0  0  0  0  0
  -24.6334  -11.6819   20.8806 C   0  0  0  0  0  0
  -23.9025  -10.4199   21.0468 C   0  0  0  0  0  0
  -24.3594   -9.4108   21.9237 C   0  0  0  0  0  0
  -23.6276   -8.2142   22.0770 C   0  0  0  0  0  0
  -22.4255   -8.0208   21.3546 C   0  0  0  0  0  0
  -21.9887   -9.0180   20.4646 C   0  0  0  0  0  0
  -22.7213  -10.2056   20.3094 C   0  0  0  0  0  0
  -21.6799   -6.0706   22.5283 C   0  0  0  0  0  0
  -21.3951   -6.5620   23.8191 C   0  0  0  0  0  0
  -21.3680   -5.6787   24.9172 C   0  0  0  0  0  0
  -21.6084   -4.3049   24.7221 C   0  0  0  0  0  0
  -21.8822   -3.8128   23.4342 C   0  0  0  0  0  0
  -21.9165   -4.6945   22.3391 C   0  0  0  0  0  0
  -22.7890  -13.5218   21.1906 C   0  0  0  0  0  0
  -22.1657   -4.2151   21.0965 F   0  0  0  0  0  0
  -21.5690   -3.4526   25.7724 F   0  0  0  0  0  0
  -30.0381  -13.3080   20.4258 N   0  0  0  0  0  0
  -26.2964  -12.9166   20.3305 N   0  0  0  0  0  0
  -25.9225  -11.6361   20.5742 N   0  0  0  0  0  0
  -22.0461  -12.8224   22.0421 N   0  0  0  0  0  0
  -25.4427  -15.1746   20.4052 N   0  0  0  0  0  0
  -31.8870  -14.6292   20.2578 O   0  0  0  0  0  0
  -21.6618   -6.8816   21.4227 O   0  0  0  0  0  0
  -22.3597  -14.5521   20.6694 O   0  0  0  0  0  0
  -24.6098  -31.8717   23.2154 C   0  0  0  0  0  0
  -25.9010  -32.4834   23.8431 C   0  0  1  0  0  0
  -27.2268  -27.4644   20.0873 C   0  0  0  0  0  0
  -25.5873  -33.8632   24.2368 N   0  0  0  0  0  0
  -23.3936  -30.5018   21.5589 C   0  0  2  0  0  0
  -24.8366  -28.9730   20.1148 C   0  0  0  0  0  0
  -22.7363  -29.4715   22.5046 C   0  0  0  0  0  0
  -18.0330  -28.1339   22.8466 C   0  0  0  0  0  0
  -24.1494  -36.7321   23.2647 C   0  0  0  0  0  0
  -25.9223  -30.8454   21.3651 C   0  0  0  0  0  0
  -25.9988  -29.4879   20.7042 C   0  0  0  0  0  0
  -27.1980  -28.7442   20.6831 C   0  0  0  0  0  0
  -26.0529  -26.9699   19.4724 C   0  0  0  0  0  0
  -24.8585  -27.7108   19.4980 C   0  0  0  0  0  0
  -23.5977  -29.8379   20.1714 C   0  0  0  0  0  0
  -25.4112  -36.3134   24.0360 C   0  0  1  0  0  0
  -20.5902  -28.3619   23.1341 C   0  0  2  0  0  0
  -20.6748  -26.9401   22.5362 C   0  0  0  0  0  0
  -19.5815  -26.6546   21.5088 C   0  0  0  0  0  0
  -18.1951  -26.7956   22.1466 C   0  0  0  0  0  0
  -19.1559  -28.8789   23.2933 C   0  0  0  0  0  0
  -18.9491  -30.1372   23.8932 C   0  0  0  0  0  0
  -17.6487  -30.6544   24.0521 C   0  0  0  0  0  0
  -25.9044  -34.9478   23.5167 C   0  0  0  0  0  0
  -16.5376  -29.9069   23.6254 C   0  0  0  0  0  0
  -16.7308  -28.6461   23.0331 C   0  0  0  0  0  0
  -26.4429  -31.6585   25.0727 C   0  0  0  0  0  0
  -25.3699  -31.3676   26.1489 C   0  0  0  0  0  0
  -27.0267  -30.3045   24.6054 C   0  0  0  0  0  0
  -27.6027  -32.4286   25.7453 C   0  0  0  0  0  0
  -27.5584  -37.1818   24.8470 C   0  0  0  0  0  0
  -21.4095  -29.3067   22.3792 N   0  0  0  0  0  0
  -26.4307  -37.3804   23.9397 N   0  0  0  0  0  0
  -24.6618  -31.0852   22.1047 N   0  0  0  0  0  0
  -23.4143  -28.8236   23.3058 O   0  0  0  0  0  0
  -28.3873  -26.7245   20.1214 O   0  0  0  0  0  0
  -26.5587  -34.8934   22.4718 O   0  0  0  0  0  0
  -23.5282  -32.1484   23.7548 O   0  0  0  0  0  0
  -30.5692  -20.1262   21.8941 C   0  0  0  0  0  0
  -28.3105  -19.0712   22.9386 C   0  0  0  0  0  0
  -28.9743  -16.8384   18.2429 C   0  0  0  0  0  0
  -29.5955  -20.9439   22.5170 C   0  0  0  0  0  0
  -29.2476  -18.2613   22.2518 C   0  0  0  0  0  0
  -28.4245  -17.2826   19.4240 C   0  0  0  0  0  0
  -29.8422  -15.6361   19.8685 C   0  0  0  0  0  0
  -27.7187  -19.6051   18.7938 C   0  0  0  0  0  0
  -30.6562  -24.8664   20.6988 C   0  0  0  0  0  0
  -29.1864  -25.5698   22.6372 C   0  0  0  0  0  0
  -29.7666  -22.4616   22.6083 C   0  0  0  0  0  0
  -28.9185  -16.8044   21.9056 C   0  0  0  0  0  0
  -27.3789  -18.3471   19.6064 C   0  0  0  0  0  0
  -28.8893  -23.2509   21.5996 C   0  0  0  0  0  0
  -28.2194  -25.3162   20.3315 C   0  0  0  0  0  0
  -29.2566  -24.7460   21.3313 C   0  0  0  0  0  0
  -28.4687  -20.4137   23.0558 N   0  0  0  0  0  0
  -30.3986  -18.7842   21.7531 N   0  0  0  0  0  0
  -29.0531  -16.5689   20.4457 N   0  0  0  0  0  0
  -29.8730  -15.8664   18.5587 N   0  3  0  0  0  0
  -31.4788  -12.3983   19.1254 H   0  0  0  0  0  0
  -30.3663  -11.2978   19.8829 H   0  0  0  0  0  0
  -29.7343  -11.6208   17.4982 H   0  0  0  0  0  0
  -29.6450  -13.3442   17.6848 H   0  0  0  0  0  0
  -27.8574  -11.2352   18.9180 H   0  0  0  0  0  0
  -27.3561  -12.4738   17.8050 H   0  0  0  0  0  0
  -27.6512  -14.1950   19.4684 H   0  0  0  0  0  0
  -28.4750  -13.7233   21.8058 H   0  0  0  0  0  0
  -28.6789  -12.0439   21.4013 H   0  0  0  0  0  0
  -25.2721   -9.5612   22.4823 H   0  0  0  0  0  0
  -23.9988   -7.4521   22.7484 H   0  0  0  0  0  0
  -21.0821   -8.8701   19.8931 H   0  0  0  0  0  0
  -22.3683  -10.9621   19.6212 H   0  0  0  0  0  0
  -21.1891   -7.6120   23.9684 H   0  0  0  0  0  0
  -21.1543   -6.0533   25.9089 H   0  0  0  0  0  0
  -22.0588   -2.7606   23.2822 H   0  0  0  0  0  0
  -22.3994  -11.9896   22.4837 H   0  0  0  0  0  0
  -21.1047  -13.1215   22.2483 H   0  0  0  0  0  0
  -24.6714  -15.8250   20.5073 H   0  0  0  0  0  0
  -26.2454  -15.5756   19.9438 H   0  0  0  0  0  0
  -26.7066  -32.5563   23.1181 H   0  0  0  0  0  0
  -25.0009  -33.9793   25.0506 H   0  0  0  0  0  0
  -22.6813  -31.3207   21.4273 H   0  0  0  0  0  0
  -23.3752  -35.9655   23.3330 H   0  0  0  0  0  0
  -24.3615  -36.8891   22.2056 H   0  0  0  0  0  0
  -23.7240  -37.6536   23.6632 H   0  0  0  0  0  0
  -26.0406  -31.6226   20.6100 H   0  0  0  0  0  0
  -26.8067  -30.8906   21.9881 H   0  0  0  0  0  0
  -28.0940  -29.1397   21.1423 H   0  0  0  0  0  0
  -26.0589  -26.0136   18.9687 H   0  0  0  0  0  0
  -23.9673  -27.3123   19.0348 H   0  0  0  0  0  0
  -23.7117  -30.6215   19.4218 H   0  0  0  0  0  0
  -22.7209  -29.2627   19.8689 H   0  0  0  0  0  0
  -25.1282  -36.2018   25.0850 H   0  0  0  0  0  0
  -21.0006  -28.3069   24.1424 H   0  0  0  0  0  0
  -20.5594  -26.2166   23.3448 H   0  0  0  0  0  0
  -21.6636  -26.7489   22.1175 H   0  0  0  0  0  0
  -19.6976  -25.6509   21.0962 H   0  0  0  0  0  0
  -19.6761  -27.3557   20.6773 H   0  0  0  0  0  0
  -17.4279  -26.6877   21.3800 H   0  0  0  0  0  0
  -18.0337  -25.9947   22.8679 H   0  0  0  0  0  0
  -19.7908  -30.7108   24.2469 H   0  0  0  0  0  0
  -17.5078  -31.6188   24.5149 H   0  0  0  0  0  0
  -15.5365  -30.3052   23.7501 H   0  0  0  0  0  0
  -15.8718  -28.0819   22.7058 H   0  0  0  0  0  0
  -24.5874  -30.7015   25.7826 H   0  0  0  0  0  0
  -24.8887  -32.2827   26.4956 H   0  0  0  0  0  0
  -25.8071  -30.8836   27.0238 H   0  0  0  0  0  0
  -26.2823  -29.6802   24.1094 H   0  0  0  0  0  0
  -27.4067  -29.7258   25.4479 H   0  0  0  0  0  0
  -27.8633  -30.4408   23.9199 H   0  0  0  0  0  0
  -27.2681  -33.3581   26.2080 H   0  0  0  0  0  0
  -28.3788  -32.6845   25.0224 H   0  0  0  0  0  0
  -28.0748  -31.8374   26.5312 H   0  0  0  0  0  0
  -28.2632  -38.0089   24.7502 H   0  0  0  0  0  0
  -28.1058  -36.2620   24.6327 H   0  0  0  0  0  0
  -27.2313  -37.1504   25.8883 H   0  0  0  0  0  0
  -20.9178  -29.8723   21.6999 H   0  0  0  0  0  0
  -26.0213  -38.2902   24.1340 H   0  0  0  0  0  0
  -31.4733  -20.5508   21.4773 H   0  0  0  0  0  0
  -27.3875  -18.6543   23.3182 H   0  0  0  0  0  0
  -28.7978  -17.1417   17.2196 H   0  0  0  0  0  0
  -27.5534  -19.4339   17.7287 H   0  0  0  0  0  0
  -28.7598  -19.9026   18.9251 H   0  0  0  0  0  0
  -27.1023  -20.4571   19.0919 H   0  0  0  0  0  0
  -31.4486  -24.6301   21.4097 H   0  0  0  0  0  0
  -30.8365  -25.8821   20.3391 H   0  0  0  0  0  0
  -30.7690  -24.2021   19.8391 H   0  0  0  0  0  0
  -29.8872  -25.2172   23.3946 H   0  0  0  0  0  0
  -28.1826  -25.5419   23.0659 H   0  0  0  0  0  0
  -29.4277  -26.6213   22.4657 H   0  0  0  0  0  0
  -30.8228  -22.6928   22.4796 H   0  0  0  0  0  0
  -29.5178  -22.7590   23.6244 H   0  0  0  0  0  0
  -27.8851  -16.5890   22.1855 H   0  0  0  0  0  0
  -29.5582  -16.1198   22.4615 H   0  0  0  0  0  0
  -26.4169  -17.9499   19.2785 H   0  0  0  0  0  0
  -27.2403  -18.6050   20.6499 H   0  0  0  0  0  0
  -27.8529  -23.1909   21.9383 H   0  0  0  0  0  0
  -28.9044  -22.7236   20.6474 H   0  0  0  0  0  0
  -27.2316  -25.0978   20.7356 H   0  0  0  0  0  0
  -28.2788  -24.8095   19.3667 H   0  0  0  0  0  0
  -30.4706  -15.3732   17.9105 H   0  0  0  0  0  0
  1 25  1  0  0  0
  1 30  2  0  0  0
  1 77  1  0  0  0
  2  3  1  0  0  0
  2 25  1  0  0  0
  2 91  1  0  0  0
  2 92  1  0  0  0
  3  4  1  0  0  0
  3 93  1  0  0  0
  3 94  1  0  0  0
  4  5  1  0  0  0
  4 95  1  0  0  0
  4 96  1  0  0  0
  5  6  1  0  0  0
  5 26  1  0  0  0
  5 97  1  0  0  0
  6 25  1  0  0  0
  6 98  1  0  0  0
  6 99  1  0  0  0
  7  8  2  0  0  0
  7 26  1  0  0  0
  7 29  1  0  0  0
  8  9  1  0  0  0
  8 22  1  0  0  0
  9 10  1  0  0  0
  9 27  2  0  0  0
 10 11  2  0  0  0
 10 15  1  0  0  0
 11 12  1  0  0  0
 11100  1  0  0  0
 12 13  2  0  0  0
 12101  1  0  0  0
 13 14  1  0  0  0
 13 31  1  0  0  0
 14 15  2  0  0  0
 14102  1  0  0  0
 15103  1  0  0  0
 16 17  2  0  0  0
 16 21  1  0  0  0
 16 31  1  0  0  0
 17 18  1  0  0  0
 17104  1  0  0  0
 18 19  2  0  0  0
 18105  1  0  0  0
 19 20  1  0  0  0
 19 24  1  0  0  0
 20 21  2  0  0  0
 20106  1  0  0  0
 21 23  1  0  0  0
 22 28  1  0  0  0
 22 32  2  0  0  0
 26 27  1  0  0  0
 28107  1  0  0  0
 28108  1  0  0  0
 29109  1  0  0  0
 29110  1  0  0  0
 33 34  1  0  0  0
 33 66  1  0  0  0
 33 70  2  0  0  0
 34 36  1  0  0  0
 34 59  1  0  0  0
 34111  1  0  0  0
 35 44  2  0  0  0
 35 45  1  0  0  0
 35 68  1  0  0  0
 36 56  1  0  0  0
 36112  1  0  0  0
 37 39  1  0  0  0
 37 47  1  0  0  0
 37 66  1  0  0  0
 37113  1  0  0  0
 38 43  2  0  0  0
 38 46  1  0  0  0
 38 47  1  0  0  0
 39 64  1  0  0  0
 39 67  2  0  0  0
 40 52  1  0  0  0
 40 53  2  0  0  0
 40 58  1  0  0  0
 41114  1  0  0  0
 41115  1  0  0  0
 41116  1  0  0  0
 41 48  1  0  0  0
 42 43  1  0  0  0
 42 66  1  0  0  0
 42117  1  0  0  0
 42118  1  0  0  0
 43 44  1  0  0  0
 44119  1  0  0  0
 45 46  2  0  0  0
 45120  1  0  0  0
 46121  1  0  0  0
 47122  1  0  0  0
 47123  1  0  0  0
 48 56  1  0  0  0
 48 65  1  0  0  0
 48124  1  0  0  0
 49 50  1  0  0  0
 49 53  1  0  0  0
 49 64  1  0  0  0
 49125  1  0  0  0
 50 51  1  0  0  0
 50126  1  0  0  0
 50127  1  0  0  0
 51 52  1  0  0  0
 51128  1  0  0  0
 51129  1  0  0  0
 52130  1  0  0  0
 52131  1  0  0  0
 53 54  1  0  0  0
 54 55  2  0  0  0
 54132  1  0  0  0
 55 57  1  0  0  0
 55133  1  0  0  0
 56 69  2  0  0  0
 57 58  2  0  0  0
 57134  1  0  0  0
 58135  1  0  0  0
 59 60  1  0  0  0
 59 61  1  0  0  0
 59 62  1  0  0  0
 60136  1  0  0  0
 60137  1  0  0  0
 60138  1  0  0  0
 61139  1  0  0  0
 61140  1  0  0  0
 61141  1  0  0  0
 62142  1  0  0  0
 62143  1  0  0  0
 62144  1  0  0  0
 63 65  1  0  0  0
 63145  1  0  0  0
 63146  1  0  0  0
 63147  1  0  0  0
 64148  1  0  0  0
 65149  1  0  0  0
 68 85  1  0  0  0
 71 74  2  0  0  0
 71 88  1  0  0  0
 71150  1  0  0  0
 72 75  1  0  0  0
 72 87  2  0  0  0
 72151  1  0  0  0
 73 76  2  0  0  0
 73 90  1  0  0  0
 73152  1  0  0  0
 74 81  1  0  0  0
 74 87  1  0  0  0
 75 82  1  0  0  0
 75 88  2  0  0  0
 76 83  1  0  0  0
 76 89  1  0  0  0
 77 89  1  0  0  0
 77 90  2  0  0  0
 78 83  1  0  0  0
 78153  1  0  0  0
 78154  1  0  0  0
 78155  1  0  0  0
 79156  1  0  0  0
 79157  1  0  0  0
 79158  1  0  0  0
 79 86  1  0  0  0
 80 86  1  0  0  0
 80159  1  0  0  0
 80160  1  0  0  0
 80161  1  0  0  0
 81 84  1  0  0  0
 81162  1  0  0  0
 81163  1  0  0  0
 82 89  1  0  0  0
 82164  1  0  0  0
 82165  1  0  0  0
 83166  1  0  0  0
 83167  1  0  0  0
 84 86  1  0  0  0
 84168  1  0  0  0
 84169  1  0  0  0
 85 86  1  0  0  0
 85170  1  0  0  0
 85171  1  0  0  0
 90172  1  0  0  0
M  CHG  1  90   1
M  ISO  4   1 100  68 101  77 100  85 101
M  END
> <chiral flag>
0

> <version>
0

> <s_m_source_file>
/data/baiqing/PycharmProjects/Reinvent-master-3.2/result/LINK_invent/BTK/process_docking_weight1_custom_sum_contain_oxygen_bond_distance_aromatic_linkinvent_7_9_3/rearranged_h_0065.sdf

> <i_m_source_file_index>
82

> <r_mmod_Potential_Energy-OPLS-2005>
61.6785316467285

> <r_mmod_Stretch_Energy-OPLS-2005>
41.5960350036621

> <r_mmod_Bend_Energy-OPLS-2005>
120.366752624512

> <r_mmod_Torsional_Energy-OPLS-2005>
276.054168701172

> <r_mmod_Improper_Torsional_Energy-OPLS-2005>
28.7810325622559

> <r_mmod_Van_der_Waal_Energy-OPLS-2005>
137.661849975586

> <r_mmod_Electrostatic_Energy-OPLS-2005>
-157.691665649414

> <r_mmod_Solvation_Energy-OPLS-2005>
-412.741882324219

> <b_mmod_Minimization_Converged-OPLS-2005>
0

> <r_mmod_RMS_Derivative-OPLS-2005>
6.75502014160156

$$$$
88
                    3D
 Structure written by MMmdl.
184193  0  0  1  0            999 V2000
  -30.7903  -14.4455   20.6632 C   0  0  0  0  0  0
  -30.3863  -12.3199   19.4317 C   0  0  0  0  0  0
  -29.4800  -12.5418   18.2019 C   0  0  0  0  0  0
  -27.9932  -12.4213   18.5892 C   0  0  0  0  0  0
  -27.6560  -13.2238   19.8698 C   0  0  2  0  0  0
  -28.6929  -12.9486   20.9790 C   0  0  0  0  0  0
  -25.2524  -13.8261   20.5641 C   0  0  0  0  0  0
  -24.1806  -13.0540   20.9129 C   0  0  0  0  0  0
  -24.6351  -11.6990   20.8664 C   0  0  0  0  0  0
  -23.9049  -10.4355   21.0298 C   0  0  0  0  0  0
  -24.3657   -9.4282   21.9060 C   0  0  0  0  0  0
  -23.6360   -8.2310   22.0696 C   0  0  0  0  0  0
  -22.4310   -8.0300   21.3525 C   0  0  0  0  0  0
  -21.9923   -9.0234   20.4597 C   0  0  0  0  0  0
  -22.7223  -10.2119   20.2953 C   0  0  0  0  0  0
  -21.6905   -6.0744   22.5277 C   0  0  0  0  0  0
  -21.4068   -6.5644   23.8211 C   0  0  0  0  0  0
  -21.3660   -5.6767   24.9153 C   0  0  0  0  0  0
  -21.6047   -4.3038   24.7181 C   0  0  0  0  0  0
  -21.8851   -3.8148   23.4311 C   0  0  0  0  0  0
  -21.9234   -4.6983   22.3381 C   0  0  0  0  0  0
  -22.7804  -13.5207   21.1863 C   0  0  0  0  0  0
  -22.1686   -4.2189   21.0942 F   0  0  0  0  0  0
  -21.5626   -3.4508   25.7677 F   0  0  0  0  0  0
  -30.0297  -13.3116   20.4749 N   0  0  0  0  0  0
  -26.2970  -12.9473   20.3328 N   0  0  0  0  0  0
  -25.9282  -11.6610   20.5707 N   0  0  0  0  0  0
  -22.0594  -12.8119   22.0447 N   0  0  0  0  0  0
  -25.4348  -15.2001   20.4010 N   0  0  0  0  0  0
  -31.7808  -14.6053   19.9394 O   0  0  0  0  0  0
  -21.6692   -6.8881   21.4234 O   0  0  0  0  0  0
  -22.3390  -14.5481   20.6703 O   0  0  0  0  0  0
  -24.6141  -31.8620   23.2109 C   0  0  0  0  0  0
  -25.9042  -32.4763   23.8409 C   0  0  1  0  0  0
  -27.2457  -27.4422   20.0809 C   0  0  0  0  0  0
  -25.5895  -33.8579   24.2350 N   0  0  0  0  0  0
  -23.4032  -30.4892   21.5427 C   0  0  2  0  0  0
  -24.8514  -28.9432   20.1287 C   0  0  0  0  0  0
  -22.7403  -29.4601   22.4881 C   0  0  0  0  0  0
  -18.0272  -28.1382   22.8482 C   0  0  0  0  0  0
  -24.1496  -36.7323   23.2647 C   0  0  0  0  0  0
  -25.9360  -30.8266   21.3662 C   0  0  0  0  0  0
  -26.0123  -29.4560   20.7243 C   0  0  0  0  0  0
  -27.2135  -28.7087   20.7072 C   0  0  0  0  0  0
  -26.0702  -26.9401   19.4887 C   0  0  0  0  0  0
  -24.8677  -27.6752   19.5212 C   0  0  0  0  0  0
  -23.6188  -29.8166   20.1610 C   0  0  0  0  0  0
  -25.4096  -36.3105   24.0346 C   0  0  1  0  0  0
  -20.5874  -28.3635   23.1302 C   0  0  2  0  0  0
  -20.6750  -26.9355   22.5392 C   0  0  0  0  0  0
  -19.5734  -26.6362   21.5191 C   0  0  0  0  0  0
  -18.1904  -26.7924   22.1620 C   0  0  0  0  0  0
  -19.1533  -28.8826   23.2893 C   0  0  0  0  0  0
  -18.9466  -30.1460   23.8856 C   0  0  0  0  0  0
  -17.6469  -30.6567   24.0597 C   0  0  0  0  0  0
  -25.9007  -34.9455   23.5149 C   0  0  0  0  0  0
  -16.5357  -29.9070   23.6374 C   0  0  0  0  0  0
  -16.7262  -28.6523   23.0314 C   0  0  0  0  0  0
  -26.4464  -31.6558   25.0754 C   0  0  0  0  0  0
  -25.3754  -31.3701   26.1551 C   0  0  0  0  0  0
  -27.0304  -30.2996   24.6135 C   0  0  0  0  0  0
  -27.6049  -32.4271   25.7501 C   0  0  0  0  0  0
  -27.5580  -37.1808   24.8467 C   0  0  0  0  0  0
  -21.4117  -29.3012   22.3693 N   0  0  0  0  0  0
  -26.4293  -37.3798   23.9425 N   0  0  0  0  0  0
  -24.6674  -31.0792   22.0960 N   0  0  0  0  0  0
  -23.4206  -28.8073   23.2845 O   0  0  0  0  0  0
  -28.4034  -26.7064   19.9480 O   0  0  0  0  0  0
  -26.5582  -34.8914   22.4723 O   0  0  0  0  0  0
  -23.5326  -32.1272   23.7571 O   0  0  0  0  0  0
  -29.6141  -18.9808   20.8400 C   0  0  0  0  0  0
  -30.2027  -16.9339   21.1465 C   0  0  0  0  0  0
  -27.8580  -20.8448   20.5503 C   0  0  0  0  0  0
  -30.2492  -21.4956   20.4089 C   0  0  0  0  0  0
  -27.4456  -22.2724   20.9762 C   0  0  0  0  0  0
  -29.9114  -22.9496   20.8609 C   0  0  0  0  0  0
  -29.2783  -20.4708   21.0321 C   0  0  2  0  0  0
  -28.4466  -23.4049   20.6023 C   0  0  2  0  0  0
  -32.0607  -15.6223   22.4189 C   0  0  0  0  0  0
  -29.6290  -15.2610   22.9086 C   0  0  0  0  0  0
  -30.7383  -21.1561   24.7409 C   0  0  0  0  0  0
  -30.8066  -19.1771   26.2975 C   0  0  0  0  0  0
  -28.6996  -20.5332   25.9693 C   0  0  0  0  0  0
  -28.0871  -24.7002   21.4020 C   0  0  0  0  0  0
  -29.4529  -18.9847   24.1415 C   0  0  0  0  0  0
  -30.5580  -18.5331   23.1481 C   0  0  0  0  0  0
  -28.8720  -26.0065   21.0990 C   0  0  0  0  0  0
  -30.6315  -15.5746   21.7833 C   0  0  0  0  0  0
  -29.9398  -19.9442   25.2747 C   0  0  0  0  0  0
  -29.4290  -18.3606   19.6719 N   0  0  0  0  0  0
  -29.7776  -17.0447   19.8747 N   0  0  0  0  0  0
  -30.1251  -18.1462   21.7987 N   0  0  0  0  0  0
  -31.4398  -12.3444   19.1526 H   0  0  0  0  0  0
  -30.2373  -11.3115   19.8197 H   0  0  0  0  0  0
  -29.7077  -11.8159   17.4189 H   0  0  0  0  0  0
  -29.6752  -13.5264   17.7724 H   0  0  0  0  0  0
  -27.7498  -11.3683   18.7284 H   0  0  0  0  0  0
  -27.3635  -12.7593   17.7634 H   0  0  0  0  0  0
  -27.7128  -14.2791   19.6069 H   0  0  0  0  0  0
  -28.6837  -11.8871   21.2068 H   0  0  0  0  0  0
  -28.3698  -13.3898   21.9080 H   0  0  0  0  0  0
  -25.2848   -9.5830   22.4532 H   0  0  0  0  0  0
  -24.0151   -7.4727   22.7409 H   0  0  0  0  0  0
  -21.0875   -8.8677   19.8903 H   0  0  0  0  0  0
  -22.3648  -10.9593   19.6021 H   0  0  0  0  0  0
  -21.2064   -7.6154   23.9732 H   0  0  0  0  0  0
  -21.1453   -6.0472   25.9053 H   0  0  0  0  0  0
  -22.0629   -2.7616   23.2771 H   0  0  0  0  0  0
  -22.4331  -11.9742   22.4710 H   0  0  0  0  0  0
  -21.1180  -13.1001   22.2742 H   0  0  0  0  0  0
  -24.7055  -15.8864   20.5651 H   0  0  0  0  0  0
  -26.2911  -15.6182   20.0588 H   0  0  0  0  0  0
  -26.7091  -32.5470   23.1162 H   0  0  0  0  0  0
  -25.0076  -33.9763   25.0511 H   0  0  0  0  0  0
  -22.6943  -31.3066   21.3996 H   0  0  0  0  0  0
  -23.3739  -35.9683   23.3286 H   0  0  0  0  0  0
  -24.3591  -36.8946   22.2064 H   0  0  0  0  0  0
  -23.7256  -37.6537   23.6644 H   0  0  0  0  0  0
  -26.0633  -31.5812   20.5897 H   0  0  0  0  0  0
  -26.8253  -30.8789   21.9839 H   0  0  0  0  0  0
  -28.1164  -29.1136   21.1422 H   0  0  0  0  0  0
  -26.0829  -25.9782   18.9948 H   0  0  0  0  0  0
  -23.9721  -27.2709   19.0688 H   0  0  0  0  0  0
  -23.7469  -30.5890   19.4021 H   0  0  0  0  0  0
  -22.7424  -29.2404   19.8567 H   0  0  0  0  0  0
  -25.1268  -36.1959   25.0828 H   0  0  0  0  0  0
  -21.0031  -28.3186   24.1414 H   0  0  0  0  0  0
  -20.5618  -26.2210   23.3582 H   0  0  0  0  0  0
  -21.6606  -26.7328   22.1204 H   0  0  0  0  0  0
  -19.6874  -25.6267   21.1207 H   0  0  0  0  0  0
  -19.6710  -27.3201   20.6766 H   0  0  0  0  0  0
  -17.4173  -26.6675   21.4027 H   0  0  0  0  0  0
  -18.0321  -26.0057   22.9016 H   0  0  0  0  0  0
  -19.7929  -30.7326   24.2138 H   0  0  0  0  0  0
  -17.5013  -31.6242   24.5205 H   0  0  0  0  0  0
  -15.5363  -30.2982   23.7715 H   0  0  0  0  0  0
  -15.8652  -28.0901   22.6974 H   0  0  0  0  0  0
  -24.5921  -30.7003   25.7982 H   0  0  0  0  0  0
  -24.8955  -32.2882   26.4965 H   0  0  0  0  0  0
  -25.8158  -30.8941   27.0332 H   0  0  0  0  0  0
  -26.2859  -29.6726   24.1201 H   0  0  0  0  0  0
  -27.4110  -29.7257   25.4605 H   0  0  0  0  0  0
  -27.8688  -30.4355   23.9294 H   0  0  0  0  0  0
  -27.2668  -33.3579   26.2088 H   0  0  0  0  0  0
  -28.3862  -32.6772   25.0306 H   0  0  0  0  0  0
  -28.0696  -31.8344   26.5405 H   0  0  0  0  0  0
  -28.2593  -38.0114   24.7510 H   0  0  0  0  0  0
  -28.1065  -36.2631   24.6261 H   0  0  0  0  0  0
  -27.2309  -37.1454   25.8883 H   0  0  0  0  0  0
  -20.9212  -29.8824   21.7018 H   0  0  0  0  0  0
  -26.0153  -38.2873   24.1433 H   0  0  0  0  0  0
  -27.8078  -20.7537   19.4645 H   0  0  0  0  0  0
  -27.1253  -20.1398   20.9522 H   0  0  0  0  0  0
  -31.2754  -21.2708   20.7013 H   0  0  0  0  0  0
  -30.2185  -21.4211   19.3234 H   0  0  0  0  0  0
  -27.3059  -22.2605   22.0584 H   0  0  0  0  0  0
  -26.4653  -22.5072   20.5546 H   0  0  0  0  0  0
  -30.5965  -23.6502   20.3786 H   0  0  0  0  0  0
  -30.1117  -23.0302   21.9291 H   0  0  0  0  0  0
  -29.3018  -20.6759   22.0937 H   0  0  0  0  0  0
  -28.3341  -23.6277   19.5377 H   0  0  0  0  0  0
  -32.0905  -15.9929   23.4378 H   0  0  0  0  0  0
  -32.7562  -16.2126   21.8188 H   0  0  0  0  0  0
  -32.4847  -14.6171   22.5080 H   0  0  0  0  0  0
  -28.6106  -15.2968   22.5335 H   0  0  0  0  0  0
  -29.8264  -14.3083   23.4025 H   0  0  0  0  0  0
  -29.6592  -16.0225   23.6848 H   0  0  0  0  0  0
  -30.9949  -21.8469   25.5448 H   0  0  0  0  0  0
  -30.1617  -21.7146   24.0057 H   0  0  0  0  0  0
  -31.6893  -20.8817   24.2859 H   0  0  0  0  0  0
  -31.0914  -19.8038   27.1444 H   0  0  0  0  0  0
  -31.7327  -18.8183   25.8418 H   0  0  0  0  0  0
  -30.2823  -18.3124   26.7026 H   0  0  0  0  0  0
  -28.9668  -21.2569   26.7411 H   0  0  0  0  0  0
  -28.0895  -19.7649   26.4424 H   0  0  0  0  0  0
  -28.0689  -21.0606   25.2495 H   0  0  0  0  0  0
  -28.2299  -24.4844   22.4633 H   0  0  0  0  0  0
  -27.0211  -24.9110   21.3014 H   0  0  0  0  0  0
  -28.9823  -18.1014   24.5823 H   0  0  0  0  0  0
  -28.6288  -19.4543   23.6140 H   0  0  0  0  0  0
  -31.1112  -17.7389   23.6220 H   0  0  0  0  0  0
  -31.2853  -19.3191   22.9852 H   0  0  0  0  0  0
  -29.9263  -25.7885   20.9407 H   0  0  0  0  0  0
  -28.8339  -26.6715   21.9631 H   0  0  0  0  0  0
  1 25  1  0  0  0
  1 30  2  0  0  0
  1 88  1  0  0  0
  2  3  1  0  0  0
  2 25  1  0  0  0
  2 93  1  0  0  0
  2 94  1  0  0  0
  3  4  1  0  0  0
  3 95  1  0  0  0
  3 96  1  0  0  0
  4  5  1  0  0  0
  4 97  1  0  0  0
  4 98  1  0  0  0
  5  6  1  0  0  0
  5 26  1  0  0  0
  5 99  1  0  0  0
  6 25  1  0  0  0
  6100  1  0  0  0
  6101  1  0  0  0
  7  8  2  0  0  0
  7 26  1  0  0  0
  7 29  1  0  0  0
  8  9  1  0  0  0
  8 22  1  0  0  0
  9 10  1  0  0  0
  9 27  2  0  0  0
 10 11  2  0  0  0
 10 15  1  0  0  0
 11 12  1  0  0  0
 11102  1  0  0  0
 12 13  2  0  0  0
 12103  1  0  0  0
 13 14  1  0  0  0
 13 31  1  0  0  0
 14 15  2  0  0  0
 14104  1  0  0  0
 15105  1  0  0  0
 16 17  2  0  0  0
 16 21  1  0  0  0
 16 31  1  0  0  0
 17 18  1  0  0  0
 17106  1  0  0  0
 18 19  2  0  0  0
 18107  1  0  0  0
 19 20  1  0  0  0
 19 24  1  0  0  0
 20 21  2  0  0  0
 20108  1  0  0  0
 21 23  1  0  0  0
 22 28  1  0  0  0
 22 32  2  0  0  0
 26 27  1  0  0  0
 28109  1  0  0  0
 28110  1  0  0  0
 29111  1  0  0  0
 29112  1  0  0  0
 33 34  1  0  0  0
 33 66  1  0  0  0
 33 70  2  0  0  0
 34 36  1  0  0  0
 34 59  1  0  0  0
 34113  1  0  0  0
 35 44  2  0  0  0
 35 45  1  0  0  0
 35 68  1  0  0  0
 36 56  1  0  0  0
 36114  1  0  0  0
 37 39  1  0  0  0
 37 47  1  0  0  0
 37 66  1  0  0  0
 37115  1  0  0  0
 38 43  2  0  0  0
 38 46  1  0  0  0
 38 47  1  0  0  0
 39 64  1  0  0  0
 39 67  2  0  0  0
 40 52  1  0  0  0
 40 53  2  0  0  0
 40 58  1  0  0  0
 41116  1  0  0  0
 41117  1  0  0  0
 41118  1  0  0  0
 41 48  1  0  0  0
 42 43  1  0  0  0
 42 66  1  0  0  0
 42119  1  0  0  0
 42120  1  0  0  0
 43 44  1  0  0  0
 44121  1  0  0  0
 45 46  2  0  0  0
 45122  1  0  0  0
 46123  1  0  0  0
 47124  1  0  0  0
 47125  1  0  0  0
 48 56  1  0  0  0
 48 65  1  0  0  0
 48126  1  0  0  0
 49 50  1  0  0  0
 49 53  1  0  0  0
 49 64  1  0  0  0
 49127  1  0  0  0
 50 51  1  0  0  0
 50128  1  0  0  0
 50129  1  0  0  0
 51 52  1  0  0  0
 51130  1  0  0  0
 51131  1  0  0  0
 52132  1  0  0  0
 52133  1  0  0  0
 53 54  1  0  0  0
 54 55  2  0  0  0
 54134  1  0  0  0
 55 57  1  0  0  0
 55135  1  0  0  0
 56 69  2  0  0  0
 57 58  2  0  0  0
 57136  1  0  0  0
 58137  1  0  0  0
 59 60  1  0  0  0
 59 61  1  0  0  0
 59 62  1  0  0  0
 60138  1  0  0  0
 60139  1  0  0  0
 60140  1  0  0  0
 61141  1  0  0  0
 61142  1  0  0  0
 61143  1  0  0  0
 62144  1  0  0  0
 62145  1  0  0  0
 62146  1  0  0  0
 63 65  1  0  0  0
 63147  1  0  0  0
 63148  1  0  0  0
 63149  1  0  0  0
 64150  1  0  0  0
 65151  1  0  0  0
 68 87  1  0  0  0
 71 90  2  0  0  0
 71 92  1  0  0  0
 71 77  1  0  0  0
 72 88  1  0  0  0
 72 91  2  0  0  0
 72 92  1  0  0  0
 73 75  1  0  0  0
 73 77  1  0  0  0
 73152  1  0  0  0
 73153  1  0  0  0
 74 76  1  0  0  0
 74 77  1  0  0  0
 74154  1  0  0  0
 74155  1  0  0  0
 75 78  1  0  0  0
 75156  1  0  0  0
 75157  1  0  0  0
 76 78  1  0  0  0
 76158  1  0  0  0
 76159  1  0  0  0
 77160  1  0  0  0
 78 84  1  0  0  0
 78161  1  0  0  0
 79162  1  0  0  0
 79163  1  0  0  0
 79164  1  0  0  0
 79 88  1  0  0  0
 80 88  1  0  0  0
 80165  1  0  0  0
 80166  1  0  0  0
 80167  1  0  0  0
 81168  1  0  0  0
 81169  1  0  0  0
 81170  1  0  0  0
 81 89  1  0  0  0
 82 89  1  0  0  0
 82171  1  0  0  0
 82172  1  0  0  0
 82173  1  0  0  0
 83 89  1  0  0  0
 83174  1  0  0  0
 83175  1  0  0  0
 83176  1  0  0  0
 84 87  1  0  0  0
 84177  1  0  0  0
 84178  1  0  0  0
 85 86  1  0  0  0
 85 89  1  0  0  0
 85179  1  0  0  0
 85180  1  0  0  0
 86 92  1  0  0  0
 86181  1  0  0  0
 86182  1  0  0  0
 87183  1  0  0  0
 87184  1  0  0  0
 90 91  1  0  0  0
M  ISO  4   1 100  68 101  87 101  88 100
M  END
> <chiral flag>
0

> <version>
0

> <s_m_source_file>
/data/baiqing/PycharmProjects/Reinvent-master-3.2/result/LINK_invent/BTK/process_docking_weight1_custom_sum_contain_oxygen_bond_distance_aromatic_linkinvent_7_9_3/rearranged_h_0065.sdf

> <i_m_source_file_index>
83

> <r_mmod_Potential_Energy-OPLS-2005>
198.791900634766

> <r_mmod_Stretch_Energy-OPLS-2005>
68.0438537597656

> <r_mmod_Bend_Energy-OPLS-2005>
181.652114868164

> <r_mmod_Torsional_Energy-OPLS-2005>
260.732025146484

> <r_mmod_Improper_Torsional_Energy-OPLS-2005>
2.62842535972595

> <r_mmod_Van_der_Waal_Energy-OPLS-2005>
144.345367431641

> <r_mmod_Electrostatic_Energy-OPLS-2005>
-271.259185791016

> <r_mmod_Solvation_Energy-OPLS-2005>
-200.394607543945

> <b_mmod_Minimization_Converged-OPLS-2005>
0

> <r_mmod_RMS_Derivative-OPLS-2005>
7.21658802032471

$$$$
89
                    3D
 Structure written by MMmdl.
183192  0  0  1  0            999 V2000
  -30.7990  -14.3422   20.7468 C   0  0  0  0  0  0
  -30.4128  -12.3094   19.3849 C   0  0  0  0  0  0
  -29.4776  -12.5567   18.1863 C   0  0  0  0  0  0
  -28.0006  -12.4092   18.5974 C   0  0  0  0  0  0
  -27.6706  -13.1958   19.8923 C   0  0  2  0  0  0
  -28.7091  -12.8534   20.9797 C   0  0  0  0  0  0
  -25.2629  -13.8133   20.5668 C   0  0  0  0  0  0
  -24.1859  -13.0429   20.9129 C   0  0  0  0  0  0
  -24.6392  -11.6894   20.8696 C   0  0  0  0  0  0
  -23.9053  -10.4295   21.0382 C   0  0  0  0  0  0
  -24.3610   -9.4223   21.9169 C   0  0  0  0  0  0
  -23.6288   -8.2259   22.0754 C   0  0  0  0  0  0
  -22.4272   -8.0289   21.3543 C   0  0  0  0  0  0
  -21.9903   -9.0256   20.4641 C   0  0  0  0  0  0
  -22.7224  -10.2134   20.3036 C   0  0  0  0  0  0
  -21.6860   -6.0731   22.5275 C   0  0  0  0  0  0
  -21.4015   -6.5629   23.8205 C   0  0  0  0  0  0
  -21.3655   -5.6784   24.9171 C   0  0  0  0  0  0
  -21.6052   -4.3050   24.7221 C   0  0  0  0  0  0
  -21.8823   -3.8140   23.4346 C   0  0  0  0  0  0
  -21.9196   -4.6958   22.3403 C   0  0  0  0  0  0
  -22.7889  -13.5233   21.1807 C   0  0  0  0  0  0
  -22.1658   -4.2135   21.0976 F   0  0  0  0  0  0
  -21.5638   -3.4536   25.7744 F   0  0  0  0  0  0
  -30.0402  -13.2334   20.4773 N   0  0  0  0  0  0
  -26.3069  -12.9289   20.3425 N   0  0  0  0  0  0
  -25.9314  -11.6449   20.5732 N   0  0  0  0  0  0
  -22.0548  -12.8211   22.0367 N   0  0  0  0  0  0
  -25.4389  -15.1845   20.4087 N   0  0  0  0  0  0
  -31.7816  -14.5828   20.0287 O   0  0  0  0  0  0
  -21.6649   -6.8876   21.4238 O   0  0  0  0  0  0
  -22.3560  -14.5543   20.6670 O   0  0  0  0  0  0
  -24.6085  -31.8721   23.2146 C   0  0  0  0  0  0
  -25.9001  -32.4844   23.8425 C   0  0  1  0  0  0
  -27.2382  -27.4934   20.0740 C   0  0  0  0  0  0
  -25.5886  -33.8642   24.2359 N   0  0  0  0  0  0
  -23.3938  -30.4946   21.5545 C   0  0  2  0  0  0
  -24.8392  -28.9586   20.1256 C   0  0  0  0  0  0
  -22.7369  -29.4677   22.5034 C   0  0  0  0  0  0
  -18.0259  -28.1371   22.8501 C   0  0  0  0  0  0
  -24.1479  -36.7320   23.2636 C   0  0  0  0  0  0
  -25.9162  -30.8491   21.3618 C   0  0  0  0  0  0
  -25.9940  -29.4818   20.7221 C   0  0  0  0  0  0
  -27.1958  -28.7475   20.7102 C   0  0  0  0  0  0
  -26.0682  -26.9580   19.4965 C   0  0  0  0  0  0
  -24.8654  -27.6888   19.5200 C   0  0  0  0  0  0
  -23.6002  -29.8220   20.1707 C   0  0  0  0  0  0
  -25.4099  -36.3125   24.0344 C   0  0  1  0  0  0
  -20.5843  -28.3649   23.1339 C   0  0  2  0  0  0
  -20.6749  -26.9393   22.5421 C   0  0  0  0  0  0
  -19.5730  -26.6388   21.5213 C   0  0  0  0  0  0
  -18.1906  -26.7925   22.1617 C   0  0  0  0  0  0
  -19.1506  -28.8826   23.2918 C   0  0  0  0  0  0
  -18.9439  -30.1436   23.8922 C   0  0  0  0  0  0
  -17.6444  -30.6583   24.0569 C   0  0  0  0  0  0
  -25.9031  -34.9487   23.5150 C   0  0  0  0  0  0
  -16.5337  -29.9089   23.6324 C   0  0  0  0  0  0
  -16.7252  -28.6503   23.0351 C   0  0  0  0  0  0
  -26.4453  -31.6605   25.0727 C   0  0  0  0  0  0
  -25.3743  -31.3680   26.1492 C   0  0  0  0  0  0
  -27.0274  -30.3062   24.6054 C   0  0  0  0  0  0
  -27.6045  -32.4308   25.7479 C   0  0  0  0  0  0
  -27.5584  -37.1805   24.8460 C   0  0  0  0  0  0
  -21.4106  -29.3030   22.3763 N   0  0  0  0  0  0
  -26.4287  -37.3808   23.9422 N   0  0  0  0  0  0
  -24.6574  -31.0857   22.1028 N   0  0  0  0  0  0
  -23.4159  -28.8229   23.3068 O   0  0  0  0  0  0
  -28.4286  -26.8292   19.9678 O   0  0  0  0  0  0
  -26.5594  -34.8927   22.4711 O   0  0  0  0  0  0
  -23.5290  -32.1456   23.7567 O   0  0  0  0  0  0
  -31.4468  -18.8375   21.2779 C   0  0  0  0  0  0
  -29.9862  -22.5432   20.0670 C   0  0  0  0  0  0
  -30.6968  -22.4998   17.7950 C   0  0  0  0  0  0
  -30.3743  -23.2539   18.9280 C   0  0  0  0  0  0
  -30.6125  -18.3561   20.2394 C   0  0  0  0  0  0
  -31.5599  -17.8287   22.2025 C   0  0  0  0  0  0
  -30.3045  -20.5582   18.9582 C   0  0  0  0  0  0
  -28.6399  -18.7260   18.7073 C   0  0  0  0  0  0
  -30.9715  -18.3832   17.7994 C   0  0  0  0  0  0
  -32.6121  -19.5006   23.7922 C   0  0  0  0  0  0
  -33.5574  -17.2642   23.7317 C   0  0  0  0  0  0
  -31.2325  -17.7300   24.7341 C   0  0  0  0  0  0
  -31.6511  -14.6420   22.9898 C   0  0  0  0  0  0
  -29.2499  -15.3770   22.6813 C   0  0  0  0  0  0
  -30.4061  -24.7661   18.9268 C   0  0  0  0  0  0
  -29.1832  -25.3611   18.2175 C   0  0  0  0  0  0
  -28.9340  -26.8104   18.6313 C   0  0  0  0  0  0
  -30.1389  -19.0184   18.9402 C   0  0  0  0  0  0
  -32.2160  -18.0158   23.5773 C   0  0  0  0  0  0
  -30.6420  -15.2865   22.0120 C   0  0  0  0  0  0
  -29.9374  -21.2052   20.0652 N   0  0  0  0  0  0
  -30.6369  -21.1591   17.8125 N   0  0  0  0  0  0
  -30.3077  -17.0974   20.4734 N   0  0  0  0  0  0
  -30.9487  -16.6968   21.6081 N   0  0  0  0  0  0
  -31.4517  -12.4091   19.0674 H   0  0  0  0  0  0
  -30.3276  -11.2749   19.7223 H   0  0  0  0  0  0
  -29.7109  -11.8622   17.3781 H   0  0  0  0  0  0
  -29.6486  -13.5604   17.7916 H   0  0  0  0  0  0
  -27.7993  -11.3481   18.7491 H   0  0  0  0  0  0
  -27.3477  -12.7281   17.7845 H   0  0  0  0  0  0
  -27.7505  -14.2605   19.6697 H   0  0  0  0  0  0
  -28.6945  -11.7765   21.1544 H   0  0  0  0  0  0
  -28.4181  -13.2394   21.9422 H   0  0  0  0  0  0
  -25.2762   -9.5720   22.4726 H   0  0  0  0  0  0
  -24.0015   -7.4666   22.7474 H   0  0  0  0  0  0
  -21.0837   -8.8768   19.8938 H   0  0  0  0  0  0
  -22.3683  -10.9672   19.6137 H   0  0  0  0  0  0
  -21.1994   -7.6139   23.9702 H   0  0  0  0  0  0
  -21.1459   -6.0513   25.9069 H   0  0  0  0  0  0
  -22.0595   -2.7598   23.2847 H   0  0  0  0  0  0
  -22.4178  -11.9849   22.4699 H   0  0  0  0  0  0
  -21.1176  -13.1231   22.2624 H   0  0  0  0  0  0
  -24.6779  -15.8468   20.5149 H   0  0  0  0  0  0
  -26.3094  -15.6205   20.1323 H   0  0  0  0  0  0
  -26.7077  -32.5580   23.1203 H   0  0  0  0  0  0
  -25.0053  -33.9816   25.0514 H   0  0  0  0  0  0
  -22.6807  -31.3095   21.4149 H   0  0  0  0  0  0
  -23.3750  -35.9641   23.3281 H   0  0  0  0  0  0
  -24.3578  -36.8951   22.2055 H   0  0  0  0  0  0
  -23.7209  -37.6510   23.6658 H   0  0  0  0  0  0
  -26.0159  -31.6090   20.5855 H   0  0  0  0  0  0
  -26.8094  -30.9117   21.9714 H   0  0  0  0  0  0
  -28.0949  -29.1547   21.1512 H   0  0  0  0  0  0
  -26.0960  -25.9925   19.0110 H   0  0  0  0  0  0
  -23.9762  -27.2775   19.0621 H   0  0  0  0  0  0
  -23.7041  -30.5935   19.4071 H   0  0  0  0  0  0
  -22.7257  -29.2376   19.8790 H   0  0  0  0  0  0
  -25.1265  -36.2000   25.0835 H   0  0  0  0  0  0
  -20.9932  -28.3205   24.1460 H   0  0  0  0  0  0
  -20.5654  -26.2257   23.3600 H   0  0  0  0  0  0
  -21.6622  -26.7441   22.1216 H   0  0  0  0  0  0
  -19.6895  -25.6306   21.1227 H   0  0  0  0  0  0
  -19.6679  -27.3216   20.6757 H   0  0  0  0  0  0
  -17.4185  -26.6692   21.4009 H   0  0  0  0  0  0
  -18.0294  -26.0050   22.8993 H   0  0  0  0  0  0
  -19.7915  -30.7245   24.2306 H   0  0  0  0  0  0
  -17.5000  -31.6264   24.5167 H   0  0  0  0  0  0
  -15.5340  -30.3003   23.7626 H   0  0  0  0  0  0
  -15.8651  -28.0832   22.7054 H   0  0  0  0  0  0
  -24.5912  -30.7033   25.7829 H   0  0  0  0  0  0
  -24.8939  -32.2821   26.4987 H   0  0  0  0  0  0
  -25.8122  -30.8818   27.0219 H   0  0  0  0  0  0
  -26.2792  -29.6831   24.1144 H   0  0  0  0  0  0
  -27.4108  -29.7288   25.4478 H   0  0  0  0  0  0
  -27.8596  -30.4403   23.9140 H   0  0  0  0  0  0
  -27.2694  -33.3622   26.2053 H   0  0  0  0  0  0
  -28.3854  -32.6839   25.0296 H   0  0  0  0  0  0
  -28.0705  -31.8423   26.5393 H   0  0  0  0  0  0
  -28.2580  -38.0124   24.7549 H   0  0  0  0  0  0
  -28.1100  -36.2658   24.6231 H   0  0  0  0  0  0
  -27.2309  -37.1395   25.8862 H   0  0  0  0  0  0
  -20.9262  -29.8760   21.6996 H   0  0  0  0  0  0
  -26.0179  -38.2879   24.1453 H   0  0  0  0  0  0
  -31.8472  -19.8372   21.3528 H   0  0  0  0  0  0
  -29.7020  -23.0463   20.9796 H   0  0  0  0  0  0
  -30.9870  -22.9699   16.8665 H   0  0  0  0  0  0
  -28.0355  -19.1160   19.5262 H   0  0  0  0  0  0
  -28.4407  -17.6575   18.6303 H   0  0  0  0  0  0
  -28.2905  -19.1951   17.7881 H   0  0  0  0  0  0
  -32.0322  -18.5997   17.9255 H   0  0  0  0  0  0
  -30.6659  -18.7518   16.8201 H   0  0  0  0  0  0
  -30.8587  -17.2996   17.7830 H   0  0  0  0  0  0
  -33.3604  -19.8321   23.0708 H   0  0  0  0  0  0
  -33.0417  -19.6664   24.7820 H   0  0  0  0  0  0
  -31.7523  -20.1673   23.7109 H   0  0  0  0  0  0
  -34.2311  -17.5021   22.9070 H   0  0  0  0  0  0
  -33.4838  -16.1895   23.7854 H   0  0  0  0  0  0
  -34.0647  -17.5540   24.6525 H   0  0  0  0  0  0
  -30.3886  -18.4202   24.7003 H   0  0  0  0  0  0
  -31.7133  -17.8551   25.7045 H   0  0  0  0  0  0
  -30.7992  -16.7393   24.7273 H   0  0  0  0  0  0
  -31.6581  -15.0634   23.9851 H   0  0  0  0  0  0
  -32.6636  -14.6571   22.5856 H   0  0  0  0  0  0
  -31.4077  -13.5902   23.1472 H   0  0  0  0  0  0
  -29.1474  -16.2947   23.2581 H   0  0  0  0  0  0
  -29.0763  -14.5712   23.3937 H   0  0  0  0  0  0
  -28.4463  -15.4135   21.9453 H   0  0  0  0  0  0
  -31.3251  -25.1187   18.4554 H   0  0  0  0  0  0
  -30.4463  -25.1119   19.9611 H   0  0  0  0  0  0
  -28.2863  -24.7844   18.4489 H   0  0  0  0  0  0
  -29.3177  -25.2961   17.1363 H   0  0  0  0  0  0
  -28.2546  -27.2764   17.9141 H   0  0  0  0  0  0
  -29.8583  -27.3871   18.5880 H   0  0  0  0  0  0
  1 25  1  0  0  0
  1 30  2  0  0  0
  1 90  1  0  0  0
  2  3  1  0  0  0
  2 25  1  0  0  0
  2 95  1  0  0  0
  2 96  1  0  0  0
  3  4  1  0  0  0
  3 97  1  0  0  0
  3 98  1  0  0  0
  4  5  1  0  0  0
  4 99  1  0  0  0
  4100  1  0  0  0
  5  6  1  0  0  0
  5 26  1  0  0  0
  5101  1  0  0  0
  6 25  1  0  0  0
  6102  1  0  0  0
  6103  1  0  0  0
  7  8  2  0  0  0
  7 26  1  0  0  0
  7 29  1  0  0  0
  8  9  1  0  0  0
  8 22  1  0  0  0
  9 10  1  0  0  0
  9 27  2  0  0  0
 10 11  2  0  0  0
 10 15  1  0  0  0
 11 12  1  0  0  0
 11104  1  0  0  0
 12 13  2  0  0  0
 12105  1  0  0  0
 13 14  1  0  0  0
 13 31  1  0  0  0
 14 15  2  0  0  0
 14106  1  0  0  0
 15107  1  0  0  0
 16 17  2  0  0  0
 16 21  1  0  0  0
 16 31  1  0  0  0
 17 18  1  0  0  0
 17108  1  0  0  0
 18 19  2  0  0  0
 18109  1  0  0  0
 19 20  1  0  0  0
 19 24  1  0  0  0
 20 21  2  0  0  0
 20110  1  0  0  0
 21 23  1  0  0  0
 22 28  1  0  0  0
 22 32  2  0  0  0
 26 27  1  0  0  0
 28111  1  0  0  0
 28112  1  0  0  0
 29113  1  0  0  0
 29114  1  0  0  0
 33 34  1  0  0  0
 33 66  1  0  0  0
 33 70  2  0  0  0
 34 36  1  0  0  0
 34 59  1  0  0  0
 34115  1  0  0  0
 35 44  2  0  0  0
 35 45  1  0  0  0
 35 68  1  0  0  0
 36 56  1  0  0  0
 36116  1  0  0  0
 37 39  1  0  0  0
 37 47  1  0  0  0
 37 66  1  0  0  0
 37117  1  0  0  0
 38 43  2  0  0  0
 38 46  1  0  0  0
 38 47  1  0  0  0
 39 64  1  0  0  0
 39 67  2  0  0  0
 40 52  1  0  0  0
 40 53  2  0  0  0
 40 58  1  0  0  0
 41118  1  0  0  0
 41119  1  0  0  0
 41120  1  0  0  0
 41 48  1  0  0  0
 42 43  1  0  0  0
 42 66  1  0  0  0
 42121  1  0  0  0
 42122  1  0  0  0
 43 44  1  0  0  0
 44123  1  0  0  0
 45 46  2  0  0  0
 45124  1  0  0  0
 46125  1  0  0  0
 47126  1  0  0  0
 47127  1  0  0  0
 48 56  1  0  0  0
 48 65  1  0  0  0
 48128  1  0  0  0
 49 50  1  0  0  0
 49 53  1  0  0  0
 49 64  1  0  0  0
 49129  1  0  0  0
 50 51  1  0  0  0
 50130  1  0  0  0
 50131  1  0  0  0
 51 52  1  0  0  0
 51132  1  0  0  0
 51133  1  0  0  0
 52134  1  0  0  0
 52135  1  0  0  0
 53 54  1  0  0  0
 54 55  2  0  0  0
 54136  1  0  0  0
 55 57  1  0  0  0
 55137  1  0  0  0
 56 69  2  0  0  0
 57 58  2  0  0  0
 57138  1  0  0  0
 58139  1  0  0  0
 59 60  1  0  0  0
 59 61  1  0  0  0
 59 62  1  0  0  0
 60140  1  0  0  0
 60141  1  0  0  0
 60142  1  0  0  0
 61143  1  0  0  0
 61144  1  0  0  0
 61145  1  0  0  0
 62146  1  0  0  0
 62147  1  0  0  0
 62148  1  0  0  0
 63 65  1  0  0  0
 63149  1  0  0  0
 63150  1  0  0  0
 63151  1  0  0  0
 64152  1  0  0  0
 65153  1  0  0  0
 68 87  1  0  0  0
 71 75  1  0  0  0
 71 76  2  0  0  0
 71154  1  0  0  0
 72 74  2  0  0  0
 72 91  1  0  0  0
 72155  1  0  0  0
 73 74  1  0  0  0
 73 92  2  0  0  0
 73156  1  0  0  0
 74 85  1  0  0  0
 75 88  1  0  0  0
 75 93  2  0  0  0
 76 89  1  0  0  0
 76 94  1  0  0  0
 77 88  1  0  0  0
 77 91  2  0  0  0
 77 92  1  0  0  0
 78157  1  0  0  0
 78158  1  0  0  0
 78159  1  0  0  0
 78 88  1  0  0  0
 79 88  1  0  0  0
 79160  1  0  0  0
 79161  1  0  0  0
 79162  1  0  0  0
 80163  1  0  0  0
 80164  1  0  0  0
 80165  1  0  0  0
 80 89  1  0  0  0
 81 89  1  0  0  0
 81166  1  0  0  0
 81167  1  0  0  0
 81168  1  0  0  0
 82 89  1  0  0  0
 82169  1  0  0  0
 82170  1  0  0  0
 82171  1  0  0  0
 83172  1  0  0  0
 83173  1  0  0  0
 83174  1  0  0  0
 83 90  1  0  0  0
 84 90  1  0  0  0
 84175  1  0  0  0
 84176  1  0  0  0
 84177  1  0  0  0
 85 86  1  0  0  0
 85178  1  0  0  0
 85179  1  0  0  0
 86 87  1  0  0  0
 86180  1  0  0  0
 86181  1  0  0  0
 87182  1  0  0  0
 87183  1  0  0  0
 90 94  1  0  0  0
 93 94  1  0  0  0
M  ISO  4   1 100  68 101  87 101  90 100
M  END
> <chiral flag>
0

> <version>
0

> <s_m_source_file>
/data/baiqing/PycharmProjects/Reinvent-master-3.2/result/LINK_invent/BTK/process_docking_weight1_custom_sum_contain_oxygen_bond_distance_aromatic_linkinvent_7_9_3/rearranged_h_0065.sdf

> <i_m_source_file_index>
84

> <r_mmod_Potential_Energy-OPLS-2005>
-106.905601501465

> <r_mmod_Stretch_Energy-OPLS-2005>
52.4075126647949

> <r_mmod_Bend_Energy-OPLS-2005>
175.202774047852

> <r_mmod_Torsional_Energy-OPLS-2005>
239.501388549805

> <r_mmod_Improper_Torsional_Energy-OPLS-2005>
4.90137577056885

> <r_mmod_Van_der_Waal_Energy-OPLS-2005>
200.47346496582

> <r_mmod_Electrostatic_Energy-OPLS-2005>
-595.28955078125

> <r_mmod_Solvation_Energy-OPLS-2005>
-194.331192016602

> <b_mmod_Minimization_Converged-OPLS-2005>
0

> <r_mmod_RMS_Derivative-OPLS-2005>
1.32231450080872

$$$$
90
                    3D
 Structure written by MMmdl.
176184  0  0  1  0            999 V2000
  -30.5474  -14.8755   20.3525 C   0  0  0  0  0  0
  -30.4697  -12.5073   19.4861 C   0  0  0  0  0  0
  -29.5299  -12.3636   18.2589 C   0  0  0  0  0  0
  -28.0384  -12.2444   18.6586 C   0  0  0  0  0  0
  -27.6285  -13.1676   19.8322 C   0  0  2  0  0  0
  -28.6963  -13.1477   20.9483 C   0  0  0  0  0  0
  -25.2364  -13.7896   20.5687 C   0  0  0  0  0  0
  -24.1690  -13.0222   20.9276 C   0  0  0  0  0  0
  -24.6298  -11.6734   20.8839 C   0  0  0  0  0  0
  -23.8990  -10.4176   21.0474 C   0  0  0  0  0  0
  -24.3569   -9.4101   21.9230 C   0  0  0  0  0  0
  -23.6254   -8.2141   22.0758 C   0  0  0  0  0  0
  -22.4237   -8.0215   21.3541 C   0  0  0  0  0  0
  -21.9876   -9.0178   20.4637 C   0  0  0  0  0  0
  -22.7193  -10.2055   20.3078 C   0  0  0  0  0  0
  -21.6827   -6.0713   22.5286 C   0  0  0  0  0  0
  -21.3997   -6.5619   23.8215 C   0  0  0  0  0  0
  -21.3656   -5.6776   24.9180 C   0  0  0  0  0  0
  -21.6038   -4.3039   24.7232 C   0  0  0  0  0  0
  -21.8822   -3.8130   23.4352 C   0  0  0  0  0  0
  -21.9189   -4.6948   22.3409 C   0  0  0  0  0  0
  -22.7733  -13.5074   21.1931 C   0  0  0  0  0  0
  -22.1662   -4.2144   21.0984 F   0  0  0  0  0  0
  -21.5643   -3.4531   25.7750 F   0  0  0  0  0  0
  -29.9718  -13.6015   20.3630 N   0  0  0  0  0  0
  -26.2844  -12.9076   20.3298 N   0  0  0  0  0  0
  -25.9216  -11.6295   20.5874 N   0  0  0  0  0  0
  -22.0377  -12.8101   22.0503 N   0  0  0  0  0  0
  -25.3613  -15.1617   20.4040 N   0  0  0  0  0  0
  -31.7765  -14.9181   20.2228 O   0  0  0  0  0  0
  -21.6578   -6.8848   21.4251 O   0  0  0  0  0  0
  -22.3448  -14.5403   20.6783 O   0  0  0  0  0  0
  -24.6242  -31.8560   23.1967 C   0  0  0  0  0  0
  -25.9076  -32.4769   23.8324 C   0  0  1  0  0  0
  -27.2557  -27.3084   20.1295 C   0  0  0  0  0  0
  -25.5874  -33.8575   24.2245 N   0  0  0  0  0  0
  -23.4232  -30.4712   21.5386 C   0  0  2  0  0  0
  -24.8786  -28.9134   20.1116 C   0  0  0  0  0  0
  -22.7468  -29.4591   22.4932 C   0  0  0  0  0  0
  -18.0268  -28.1392   22.8488 C   0  0  0  0  0  0
  -24.1496  -36.7303   23.2648 C   0  0  0  0  0  0
  -25.9616  -30.7818   21.3699 C   0  0  0  0  0  0
  -26.0394  -29.4038   20.7193 C   0  0  0  0  0  0
  -27.2226  -28.6110   20.7182 C   0  0  0  0  0  0
  -26.0715  -26.8599   19.5027 C   0  0  0  0  0  0
  -24.8969  -27.6478   19.4951 C   0  0  0  0  0  0
  -23.6409  -29.7905   20.1589 C   0  0  0  0  0  0
  -25.4121  -36.3085   24.0326 C   0  0  1  0  0  0
  -20.5869  -28.3689   23.1298 C   0  0  2  0  0  0
  -20.6753  -26.9411   22.5426 C   0  0  0  0  0  0
  -19.5740  -26.6386   21.5220 C   0  0  0  0  0  0
  -18.1919  -26.7933   22.1630 C   0  0  0  0  0  0
  -19.1524  -28.8851   23.2891 C   0  0  0  0  0  0
  -18.9452  -30.1456   23.8906 C   0  0  0  0  0  0
  -17.6451  -30.6595   24.0570 C   0  0  0  0  0  0
  -25.9053  -34.9449   23.5104 C   0  0  0  0  0  0
  -16.5342  -29.9096   23.6336 C   0  0  0  0  0  0
  -16.7261  -28.6516   23.0352 C   0  0  0  0  0  0
  -26.4457  -31.6581   25.0705 C   0  0  0  0  0  0
  -25.3667  -31.3708   26.1410 C   0  0  0  0  0  0
  -27.0312  -30.3007   24.6175 C   0  0  0  0  0  0
  -27.6018  -32.4305   25.7481 C   0  0  0  0  0  0
  -27.5581  -37.1799   24.8459 C   0  0  0  0  0  0
  -21.4174  -29.3033   22.3684 N   0  0  0  0  0  0
  -26.4296  -37.3775   23.9402 N   0  0  0  0  0  0
  -24.6884  -31.0539   22.0924 N   0  0  0  0  0  0
  -23.4184  -28.8138   23.3024 O   0  0  0  0  0  0
  -28.4228  -26.5280   20.2119 O   0  0  0  0  0  0
  -26.5647  -34.8919   22.4691 O   0  0  0  0  0  0
  -23.5399  -32.1366   23.7277 O   0  0  0  0  0  0
  -30.2294  -18.8671   19.7042 C   0  0  0  0  0  0
  -29.9974  -20.0444   20.3996 C   0  0  0  0  0  0
  -30.2704  -18.2743   21.8183 C   0  0  0  0  0  0
  -30.8881  -22.0062   19.1308 C   0  0  0  0  0  0
  -28.4930  -21.3229   18.8690 C   0  0  0  0  0  0
  -30.7312  -16.2049   23.2811 C   0  0  0  0  0  0
  -28.8669  -17.7903   23.8561 C   0  0  0  0  0  0
  -31.2461  -18.4683   24.1167 C   0  0  0  0  0  0
  -28.2792  -16.2976   20.7089 C   0  0  0  0  0  0
  -28.2447  -23.8807   20.6358 C   0  0  0  0  0  0
  -29.2252  -22.6211   20.9388 C   0  0  0  0  0  0
  -28.5881  -25.1381   19.7110 C   0  0  0  0  0  0
  -29.6463  -21.4930   19.8764 C   0  0  0  0  0  0
  -30.2706  -17.6693   23.2212 C   0  0  0  0  0  0
  -29.7092  -16.2979   20.1177 C   0  0  2  0  0  0
  -29.5252  -16.3637   18.5483 C   0  0  0  0  0  0
  -30.1900  -17.7428   20.5560 N   0  0  0  0  0  0
  -30.1191  -19.6212   21.6963 N   0  3  0  0  0  0
  -29.0351  -15.2521   18.0290 F   0  0  0  0  0  0
  -28.6517  -17.3030   18.1664 F   0  0  0  0  0  0
  -30.6898  -16.5844   17.9332 F   0  0  0  0  0  0
  -31.4912  -12.6873   19.1462 H   0  0  0  0  0  0
  -30.5139  -11.5701   20.0434 H   0  0  0  0  0  0
  -29.8100  -11.4713   17.6970 H   0  0  0  0  0  0
  -29.6913  -13.1721   17.5538 H   0  0  0  0  0  0
  -27.8656  -11.2059   18.9414 H   0  0  0  0  0  0
  -27.3994  -12.4269   17.7944 H   0  0  0  0  0  0
  -27.5693  -14.1348   19.3710 H   0  0  0  0  0  0
  -28.7984  -12.1291   21.3264 H   0  0  0  0  0  0
  -28.4114  -13.7096   21.8317 H   0  0  0  0  0  0
  -25.2722   -9.5580   22.4801 H   0  0  0  0  0  0
  -23.9970   -7.4512   22.7451 H   0  0  0  0  0  0
  -21.0827   -8.8685   19.8916 H   0  0  0  0  0  0
  -22.3676  -10.9606   19.6181 H   0  0  0  0  0  0
  -21.1968   -7.6122   23.9721 H   0  0  0  0  0  0
  -21.1490   -6.0505   25.9085 H   0  0  0  0  0  0
  -22.0613   -2.7597   23.2840 H   0  0  0  0  0  0
  -22.3986  -11.9738   22.4855 H   0  0  0  0  0  0
  -21.0996  -13.1134   22.2726 H   0  0  0  0  0  0
  -24.5624  -15.7786   20.5076 H   0  0  0  0  0  0
  -26.1798  -15.6350   20.0525 H   0  0  0  0  0  0
  -26.7145  -32.5446   23.1066 H   0  0  0  0  0  0
  -24.9921  -33.9713   25.0317 H   0  0  0  0  0  0
  -22.7180  -31.2917   21.3867 H   0  0  0  0  0  0
  -23.3752  -35.9637   23.3306 H   0  0  0  0  0  0
  -24.3590  -36.8943   22.2069 H   0  0  0  0  0  0
  -23.7246  -37.6499   23.6678 H   0  0  0  0  0  0
  -26.0889  -31.5399   20.5960 H   0  0  0  0  0  0
  -26.8423  -30.8389   21.9987 H   0  0  0  0  0  0
  -28.1145  -28.9854   21.2018 H   0  0  0  0  0  0
  -26.0337  -25.8875   19.0338 H   0  0  0  0  0  0
  -24.0035  -27.2652   19.0199 H   0  0  0  0  0  0
  -23.7524  -30.5611   19.3947 H   0  0  0  0  0  0
  -22.7637  -29.2111   19.8661 H   0  0  0  0  0  0
  -25.1300  -36.1947   25.0811 H   0  0  0  0  0  0
  -20.9955  -28.3270   24.1417 H   0  0  0  0  0  0
  -20.5640  -26.2304   23.3622 H   0  0  0  0  0  0
  -21.6628  -26.7426   22.1233 H   0  0  0  0  0  0
  -19.6907  -25.6294   21.1256 H   0  0  0  0  0  0
  -19.6692  -27.3197   20.6756 H   0  0  0  0  0  0
  -17.4179  -26.6666   21.4046 H   0  0  0  0  0  0
  -18.0331  -26.0083   22.9047 H   0  0  0  0  0  0
  -19.7925  -30.7273   24.2287 H   0  0  0  0  0  0
  -17.5003  -31.6281   24.5177 H   0  0  0  0  0  0
  -15.5338  -30.3000   23.7664 H   0  0  0  0  0  0
  -15.8660  -28.0849   22.7045 H   0  0  0  0  0  0
  -24.5846  -30.7067   25.7691 H   0  0  0  0  0  0
  -24.8834  -32.2869   26.4822 H   0  0  0  0  0  0
  -25.7954  -30.8865   27.0193 H   0  0  0  0  0  0
  -26.2905  -29.6756   24.1173 H   0  0  0  0  0  0
  -27.3980  -29.7264   25.4693 H   0  0  0  0  0  0
  -27.8776  -30.4300   23.9426 H   0  0  0  0  0  0
  -27.2638  -33.3606   26.2068 H   0  0  0  0  0  0
  -28.3819  -32.6870   25.0292 H   0  0  0  0  0  0
  -28.0693  -31.8419   26.5386 H   0  0  0  0  0  0
  -28.2577  -38.0120   24.7511 H   0  0  0  0  0  0
  -28.1104  -36.2643   24.6279 H   0  0  0  0  0  0
  -27.2302  -37.1436   25.8864 H   0  0  0  0  0  0
  -20.9344  -29.8780   21.6919 H   0  0  0  0  0  0
  -26.0193  -38.2853   24.1386 H   0  0  0  0  0  0
  -30.2432  -18.7958   18.6283 H   0  0  0  0  0  0
  -31.1667  -21.3530   18.3024 H   0  0  0  0  0  0
  -31.7472  -22.0639   19.8013 H   0  0  0  0  0  0
  -30.7254  -23.0026   18.7211 H   0  0  0  0  0  0
  -28.7441  -20.6208   18.0725 H   0  0  0  0  0  0
  -28.2357  -22.2646   18.3839 H   0  0  0  0  0  0
  -27.5957  -20.9500   19.3623 H   0  0  0  0  0  0
  -29.9879  -15.5252   22.8761 H   0  0  0  0  0  0
  -30.8809  -15.8802   24.3119 H   0  0  0  0  0  0
  -31.6805  -16.0618   22.7630 H   0  0  0  0  0  0
  -28.1058  -17.2419   23.3062 H   0  0  0  0  0  0
  -28.5343  -18.8275   23.9108 H   0  0  0  0  0  0
  -28.8575  -17.3996   24.8745 H   0  0  0  0  0  0
  -32.2597  -18.4529   23.7141 H   0  0  0  0  0  0
  -31.2916  -18.0537   25.1248 H   0  0  0  0  0  0
  -30.9523  -19.5115   24.2335 H   0  0  0  0  0  0
  -27.9308  -17.2904   20.9938 H   0  0  0  0  0  0
  -28.1353  -15.6907   21.5922 H   0  0  0  0  0  0
  -27.5692  -16.0498   19.9408 H   0  0  0  0  0  0
  -28.0289  -24.3097   21.6139 H   0  0  0  0  0  0
  -27.2781  -23.4888   20.3156 H   0  0  0  0  0  0
  -28.6992  -22.0779   21.7230 H   0  0  0  0  0  0
  -30.1218  -22.9923   21.4360 H   0  0  0  0  0  0
  -28.0831  -25.0288   18.7512 H   0  0  0  0  0  0
  -29.6461  -25.0619   19.4615 H   0  0  0  0  0  0
  -30.0522  -20.2418   22.4946 H   0  0  0  0  0  0
  1 25  1  0  0  0
  1 30  2  0  0  0
  1 85  1  0  0  0
  2  3  1  0  0  0
  2 25  1  0  0  0
  2 92  1  0  0  0
  2 93  1  0  0  0
  3  4  1  0  0  0
  3 94  1  0  0  0
  3 95  1  0  0  0
  4  5  1  0  0  0
  4 96  1  0  0  0
  4 97  1  0  0  0
  5  6  1  0  0  0
  5 26  1  0  0  0
  5 98  1  0  0  0
  6 25  1  0  0  0
  6 99  1  0  0  0
  6100  1  0  0  0
  7  8  2  0  0  0
  7 26  1  0  0  0
  7 29  1  0  0  0
  8  9  1  0  0  0
  8 22  1  0  0  0
  9 10  1  0  0  0
  9 27  2  0  0  0
 10 11  2  0  0  0
 10 15  1  0  0  0
 11 12  1  0  0  0
 11101  1  0  0  0
 12 13  2  0  0  0
 12102  1  0  0  0
 13 14  1  0  0  0
 13 31  1  0  0  0
 14 15  2  0  0  0
 14103  1  0  0  0
 15104  1  0  0  0
 16 17  2  0  0  0
 16 21  1  0  0  0
 16 31  1  0  0  0
 17 18  1  0  0  0
 17105  1  0  0  0
 18 19  2  0  0  0
 18106  1  0  0  0
 19 20  1  0  0  0
 19 24  1  0  0  0
 20 21  2  0  0  0
 20107  1  0  0  0
 21 23  1  0  0  0
 22 28  1  0  0  0
 22 32  2  0  0  0
 26 27  1  0  0  0
 28108  1  0  0  0
 28109  1  0  0  0
 29110  1  0  0  0
 29111  1  0  0  0
 33 34  1  0  0  0
 33 66  1  0  0  0
 33 70  2  0  0  0
 34 36  1  0  0  0
 34 59  1  0  0  0
 34112  1  0  0  0
 35 44  2  0  0  0
 35 45  1  0  0  0
 35 68  1  0  0  0
 36 56  1  0  0  0
 36113  1  0  0  0
 37 39  1  0  0  0
 37 47  1  0  0  0
 37 66  1  0  0  0
 37114  1  0  0  0
 38 43  2  0  0  0
 38 46  1  0  0  0
 38 47  1  0  0  0
 39 64  1  0  0  0
 39 67  2  0  0  0
 40 52  1  0  0  0
 40 53  2  0  0  0
 40 58  1  0  0  0
 41115  1  0  0  0
 41116  1  0  0  0
 41117  1  0  0  0
 41 48  1  0  0  0
 42 43  1  0  0  0
 42 66  1  0  0  0
 42118  1  0  0  0
 42119  1  0  0  0
 43 44  1  0  0  0
 44120  1  0  0  0
 45 46  2  0  0  0
 45121  1  0  0  0
 46122  1  0  0  0
 47123  1  0  0  0
 47124  1  0  0  0
 48 56  1  0  0  0
 48 65  1  0  0  0
 48125  1  0  0  0
 49 50  1  0  0  0
 49 53  1  0  0  0
 49 64  1  0  0  0
 49126  1  0  0  0
 50 51  1  0  0  0
 50127  1  0  0  0
 50128  1  0  0  0
 51 52  1  0  0  0
 51129  1  0  0  0
 51130  1  0  0  0
 52131  1  0  0  0
 52132  1  0  0  0
 53 54  1  0  0  0
 54 55  2  0  0  0
 54133  1  0  0  0
 55 57  1  0  0  0
 55134  1  0  0  0
 56 69  2  0  0  0
 57 58  2  0  0  0
 57135  1  0  0  0
 58136  1  0  0  0
 59 60  1  0  0  0
 59 61  1  0  0  0
 59 62  1  0  0  0
 60137  1  0  0  0
 60138  1  0  0  0
 60139  1  0  0  0
 61140  1  0  0  0
 61141  1  0  0  0
 61142  1  0  0  0
 62143  1  0  0  0
 62144  1  0  0  0
 62145  1  0  0  0
 63 65  1  0  0  0
 63146  1  0  0  0
 63147  1  0  0  0
 63148  1  0  0  0
 64149  1  0  0  0
 65150  1  0  0  0
 68 82  1  0  0  0
 71 72  2  0  0  0
 71 87  1  0  0  0
 71151  1  0  0  0
 72 83  1  0  0  0
 72 88  1  0  0  0
 73 84  1  0  0  0
 73 87  1  0  0  0
 73 88  2  0  0  0
 74152  1  0  0  0
 74153  1  0  0  0
 74154  1  0  0  0
 74 83  1  0  0  0
 75 83  1  0  0  0
 75155  1  0  0  0
 75156  1  0  0  0
 75157  1  0  0  0
 76158  1  0  0  0
 76159  1  0  0  0
 76160  1  0  0  0
 76 84  1  0  0  0
 77 84  1  0  0  0
 77161  1  0  0  0
 77162  1  0  0  0
 77163  1  0  0  0
 78 84  1  0  0  0
 78164  1  0  0  0
 78165  1  0  0  0
 78166  1  0  0  0
 79167  1  0  0  0
 79168  1  0  0  0
 79169  1  0  0  0
 79 85  1  0  0  0
 80 81  1  0  0  0
 80 82  1  0  0  0
 80170  1  0  0  0
 80171  1  0  0  0
 81 83  1  0  0  0
 81172  1  0  0  0
 81173  1  0  0  0
 82174  1  0  0  0
 82175  1  0  0  0
 85 86  1  0  0  0
 85 87  1  0  0  0
 86 89  1  0  0  0
 86 90  1  0  0  0
 86 91  1  0  0  0
 88176  1  0  0  0
M  CHG  1  88   1
M  ISO  4   1 100  68 101  82 101  85 100
M  END
> <chiral flag>
0

> <version>
0

> <s_m_source_file>
/data/baiqing/PycharmProjects/Reinvent-master-3.2/result/LINK_invent/BTK/process_docking_weight1_custom_sum_contain_oxygen_bond_distance_aromatic_linkinvent_7_9_3/rearranged_h_0065.sdf

> <i_m_source_file_index>
85

> <r_mmod_Potential_Energy-OPLS-2005>
462.076141357422

> <r_mmod_Stretch_Energy-OPLS-2005>
149.632568359375

> <r_mmod_Bend_Energy-OPLS-2005>
280.656280517578

> <r_mmod_Torsional_Energy-OPLS-2005>
321.554443359375

> <r_mmod_Improper_Torsional_Energy-OPLS-2005>
14.2648773193359

> <r_mmod_Van_der_Waal_Energy-OPLS-2005>
161.487609863281

> <r_mmod_Electrostatic_Energy-OPLS-2005>
-207.907684326172

> <r_mmod_Solvation_Energy-OPLS-2005>
-370.035125732422

> <b_mmod_Minimization_Converged-OPLS-2005>
0

> <r_mmod_RMS_Derivative-OPLS-2005>
2.19774150848389

$$$$
