0
                    3D
 Structure written by MMmdl.
181189  0  0  1  0            999 V2000
  -30.6087  -14.6216   20.5225 C   0  0  0  0  0  0
  -30.4402  -12.3831   19.4485 C   0  0  0  0  0  0
  -29.5078  -12.5225   18.2243 C   0  0  0  0  0  0
  -28.0271  -12.3735   18.6290 C   0  0  0  0  0  0
  -27.6605  -13.2162   19.8802 C   0  0  2  0  0  0
  -28.7041  -13.0284   21.0041 C   0  0  0  0  0  0
  -25.2581  -13.8167   20.5700 C   0  0  0  0  0  0
  -24.1838  -13.0440   20.9171 C   0  0  0  0  0  0
  -24.6405  -11.6909   20.8748 C   0  0  0  0  0  0
  -23.9070  -10.4297   21.0409 C   0  0  0  0  0  0
  -24.3616   -9.4212   21.9190 C   0  0  0  0  0  0
  -23.6297   -8.2250   22.0766 C   0  0  0  0  0  0
  -22.4286   -8.0290   21.3546 C   0  0  0  0  0  0
  -21.9927   -9.0254   20.4639 C   0  0  0  0  0  0
  -22.7252  -10.2135   20.3045 C   0  0  0  0  0  0
  -21.6853   -6.0749   22.5286 C   0  0  0  0  0  0
  -21.4007   -6.5642   23.8219 C   0  0  0  0  0  0
  -21.3660   -5.6790   24.9182 C   0  0  0  0  0  0
  -21.6050   -4.3058   24.7225 C   0  0  0  0  0  0
  -21.8822   -3.8152   23.4341 C   0  0  0  0  0  0
  -21.9191   -4.6976   22.3400 C   0  0  0  0  0  0
  -22.7857  -13.5233   21.1825 C   0  0  0  0  0  0
  -22.1665   -4.2159   21.0981 F   0  0  0  0  0  0
  -21.5629   -3.4540   25.7735 F   0  0  0  0  0  0
  -30.0224  -13.3844   20.4512 N   0  0  0  0  0  0
  -26.3031  -12.9352   20.3408 N   0  0  0  0  0  0
  -25.9339  -11.6505   20.5785 N   0  0  0  0  0  0
  -22.0482  -12.8217   22.0363 N   0  0  0  0  0  0
  -25.4312  -15.1874   20.4115 N   0  0  0  0  0  0
  -31.7424  -14.8250   20.0744 O   0  0  0  0  0  0
  -21.6645   -6.8893   21.4247 O   0  0  0  0  0  0
  -22.3549  -14.5546   20.6691 O   0  0  0  0  0  0
  -24.6246  -31.8613   23.2019 C   0  0  0  0  0  0
  -25.9109  -32.4790   23.8340 C   0  0  1  0  0  0
  -27.2277  -27.3381   20.1273 C   0  0  0  0  0  0
  -25.5930  -33.8585   24.2275 N   0  0  0  0  0  0
  -23.4171  -30.4807   21.5457 C   0  0  2  0  0  0
  -24.8651  -28.9326   20.1150 C   0  0  0  0  0  0
  -22.7467  -29.4617   22.4976 C   0  0  0  0  0  0
  -18.0275  -28.1379   22.8487 C   0  0  0  0  0  0
  -24.1481  -36.7285   23.2645 C   0  0  0  0  0  0
  -25.9538  -30.8004   21.3664 C   0  0  0  0  0  0
  -26.0321  -29.4262   20.7140 C   0  0  0  0  0  0
  -27.2204  -28.6408   20.7067 C   0  0  0  0  0  0
  -26.0427  -26.8848   19.5126 C   0  0  0  0  0  0
  -24.8709  -27.6667   19.5051 C   0  0  0  0  0  0
  -23.6308  -29.8096   20.1624 C   0  0  0  0  0  0
  -25.4116  -36.3087   24.0326 C   0  0  1  0  0  0
  -20.5875  -28.3679   23.1295 C   0  0  2  0  0  0
  -20.6769  -26.9411   22.5403 C   0  0  0  0  0  0
  -19.5739  -26.6383   21.5206 C   0  0  0  0  0  0
  -18.1912  -26.7923   22.1616 C   0  0  0  0  0  0
  -19.1529  -28.8847   23.2880 C   0  0  0  0  0  0
  -18.9455  -30.1452   23.8881 C   0  0  0  0  0  0
  -17.6459  -30.6590   24.0543 C   0  0  0  0  0  0
  -25.9056  -34.9458   23.5101 C   0  0  0  0  0  0
  -16.5351  -29.9082   23.6330 C   0  0  0  0  0  0
  -16.7264  -28.6502   23.0353 C   0  0  0  0  0  0
  -26.4499  -31.6599   25.0709 C   0  0  0  0  0  0
  -25.3729  -31.3685   26.1418 C   0  0  0  0  0  0
  -27.0382  -30.3049   24.6135 C   0  0  0  0  0  0
  -27.6015  -32.4362   25.7530 C   0  0  0  0  0  0
  -27.5564  -37.1820   24.8476 C   0  0  0  0  0  0
  -21.4184  -29.3042   22.3713 N   0  0  0  0  0  0
  -26.4289  -37.3786   23.9404 N   0  0  0  0  0  0
  -24.6840  -31.0628   22.0962 N   0  0  0  0  0  0
  -23.4193  -28.8169   23.3063 O   0  0  0  0  0  0
  -28.3504  -26.5078   20.1285 O   0  0  0  0  0  0
  -26.5611  -34.8925   22.4657 O   0  0  0  0  0  0
  -23.5415  -32.1405   23.7362 O   0  0  0  0  0  0
  -30.5288  -17.8408   20.0063 C   0  0  0  0  0  0
  -30.2781  -19.2270   19.8220 C   0  0  0  0  0  0
  -28.2164  -19.0863   21.1724 C   0  0  0  0  0  0
  -29.6947  -17.0537   20.8185 C   0  0  0  0  0  0
  -29.1382  -19.8941   20.3765 C   0  0  0  0  0  0
  -28.5979  -17.7036   21.4556 C   0  0  0  0  0  0
  -31.2753  -19.9979   18.9634 C   0  0  0  0  0  0
  -29.7655  -16.6599   24.0562 C   0  0  0  0  0  0
  -27.3812  -16.0861   24.6127 C   0  0  0  0  0  0
  -29.9821  -22.5923   21.8267 C   0  0  0  0  0  0
  -26.0882  -20.4404   20.4959 C   0  0  0  0  0  0
  -26.9830  -20.5286   22.9151 C   0  0  0  0  0  0
  -25.7176  -18.6349   22.0144 C   0  0  0  0  0  0
  -28.7363  -23.8834   19.9760 C   0  0  0  0  0  0
  -28.2129  -25.1751   20.7480 C   0  0  0  0  0  0
  -28.2896  -16.9824   23.7635 C   0  0  0  0  0  0
  -28.8423  -22.5138   20.7981 C   0  0  1  0  0  0
  -26.8175  -19.6715   21.6384 C   0  0  0  0  0  0
  -29.8234  -15.6137   21.0293 N   0  0  0  0  0  0
  -29.0027  -21.2775   19.9663 N   0  0  0  0  0  0
  -27.9162  -16.8562   22.3535 N   0  0  0  0  0  0
  -31.4804  -12.5141   19.1447 H   0  0  0  0  0  0
  -30.3735  -11.3784   19.8680 H   0  0  0  0  0  0
  -29.7608  -11.7821   17.4646 H   0  0  0  0  0  0
  -29.6626  -13.4981   17.7608 H   0  0  0  0  0  0
  -27.8382  -11.3170   18.8242 H   0  0  0  0  0  0
  -27.3810  -12.6471   17.7944 H   0  0  0  0  0  0
  -27.6904  -14.2619   19.5733 H   0  0  0  0  0  0
  -28.7114  -11.9927   21.3480 H   0  0  0  0  0  0
  -28.4469  -13.6253   21.8803 H   0  0  0  0  0  0
  -25.2754   -9.5694   22.4771 H   0  0  0  0  0  0
  -24.0004   -7.4645   22.7495 H   0  0  0  0  0  0
  -21.0866   -8.8764   19.8933 H   0  0  0  0  0  0
  -22.3716  -10.9673   19.6149 H   0  0  0  0  0  0
  -21.1996   -7.6150   23.9722 H   0  0  0  0  0  0
  -21.1481   -6.0527   25.9087 H   0  0  0  0  0  0
  -22.0599   -2.7613   23.2844 H   0  0  0  0  0  0
  -22.4091  -11.9870   22.4745 H   0  0  0  0  0  0
  -21.1087  -13.1236   22.2531 H   0  0  0  0  0  0
  -24.6720  -15.8474   20.5279 H   0  0  0  0  0  0
  -26.3098  -15.6233   20.1603 H   0  0  0  0  0  0
  -26.7185  -32.5478   23.1102 H   0  0  0  0  0  0
  -25.0099  -33.9727   25.0432 H   0  0  0  0  0  0
  -22.7093  -31.2987   21.4006 H   0  0  0  0  0  0
  -23.3752  -35.9606   23.3310 H   0  0  0  0  0  0
  -24.3556  -36.8915   22.2058 H   0  0  0  0  0  0
  -23.7220  -37.6474   23.6676 H   0  0  0  0  0  0
  -26.0724  -31.5632   20.5956 H   0  0  0  0  0  0
  -26.8380  -30.8574   21.9900 H   0  0  0  0  0  0
  -28.1203  -29.0166   21.1735 H   0  0  0  0  0  0
  -26.0205  -25.9102   19.0447 H   0  0  0  0  0  0
  -23.9776  -27.2802   19.0351 H   0  0  0  0  0  0
  -23.7449  -30.5806   19.3995 H   0  0  0  0  0  0
  -22.7525  -29.2329   19.8655 H   0  0  0  0  0  0
  -25.1295  -36.1941   25.0817 H   0  0  0  0  0  0
  -20.9934  -28.3231   24.1432 H   0  0  0  0  0  0
  -20.5691  -26.2276   23.3590 H   0  0  0  0  0  0
  -21.6634  -26.7460   22.1190 H   0  0  0  0  0  0
  -19.6895  -25.6291   21.1240 H   0  0  0  0  0  0
  -19.6665  -27.3183   20.6723 H   0  0  0  0  0  0
  -17.4187  -26.6675   21.4014 H   0  0  0  0  0  0
  -18.0301  -26.0056   22.9006 H   0  0  0  0  0  0
  -19.7931  -30.7258   24.2257 H   0  0  0  0  0  0
  -17.5021  -31.6272   24.5135 H   0  0  0  0  0  0
  -15.5354  -30.2983   23.7662 H   0  0  0  0  0  0
  -15.8662  -28.0816   22.7087 H   0  0  0  0  0  0
  -24.5897  -30.7071   25.7703 H   0  0  0  0  0  0
  -24.8935  -32.2839   26.4892 H   0  0  0  0  0  0
  -25.8051  -30.8798   27.0162 H   0  0  0  0  0  0
  -26.2967  -29.6785   24.1168 H   0  0  0  0  0  0
  -27.4128  -29.7307   25.4618 H   0  0  0  0  0  0
  -27.8796  -30.4368   23.9328 H   0  0  0  0  0  0
  -27.2574  -33.3668   26.2052 H   0  0  0  0  0  0
  -28.3877  -32.6929   25.0421 H   0  0  0  0  0  0
  -28.0623  -31.8532   26.5513 H   0  0  0  0  0  0
  -28.2592  -38.0108   24.7514 H   0  0  0  0  0  0
  -28.1051  -36.2635   24.6337 H   0  0  0  0  0  0
  -27.2256  -37.1506   25.8871 H   0  0  0  0  0  0
  -20.9368  -29.8792   21.6943 H   0  0  0  0  0  0
  -26.0163  -38.2861   24.1381 H   0  0  0  0  0  0
  -31.3767  -17.3816   19.5189 H   0  0  0  0  0  0
  -32.1376  -19.3859   18.6984 H   0  0  0  0  0  0
  -31.6498  -20.8706   19.5004 H   0  0  0  0  0  0
  -30.8102  -20.3337   18.0354 H   0  0  0  0  0  0
  -29.9839  -16.7931   25.1166 H   0  0  0  0  0  0
  -30.4466  -17.3174   23.5154 H   0  0  0  0  0  0
  -30.0147  -15.6295   23.8038 H   0  0  0  0  0  0
  -27.6155  -16.1819   25.6734 H   0  0  0  0  0  0
  -27.4955  -15.0349   24.3440 H   0  0  0  0  0  0
  -26.3293  -16.3464   24.4929 H   0  0  0  0  0  0
  -29.8255  -23.4072   22.5343 H   0  0  0  0  0  0
  -30.9424  -22.7600   21.3385 H   0  0  0  0  0  0
  -30.0677  -21.6757   22.4102 H   0  0  0  0  0  0
  -26.5715  -21.3371   20.1362 H   0  0  0  0  0  0
  -25.0976  -20.7804   20.8004 H   0  0  0  0  0  0
  -25.9504  -19.7956   19.6268 H   0  0  0  0  0  0
  -27.8371  -21.1923   22.8897 H   0  0  0  0  0  0
  -27.1444  -19.9109   23.7960 H   0  0  0  0  0  0
  -26.0942  -21.1282   23.1124 H   0  0  0  0  0  0
  -25.5642  -17.8955   21.2288 H   0  0  0  0  0  0
  -24.7524  -19.1160   22.1815 H   0  0  0  0  0  0
  -25.8981  -18.1258   22.9575 H   0  0  0  0  0  0
  -29.7145  -24.1134   19.5516 H   0  0  0  0  0  0
  -28.0760  -23.7319   19.1216 H   0  0  0  0  0  0
  -28.7586  -25.2478   21.6891 H   0  0  0  0  0  0
  -27.1796  -24.9947   21.0500 H   0  0  0  0  0  0
  -28.1195  -18.0153   24.0663 H   0  0  0  0  0  0
  -27.8972  -22.4507   21.3265 H   0  0  0  0  0  0
  -29.0164  -15.2846   21.5432 H   0  0  0  0  0  0
  -29.5123  -21.4680   19.1098 H   0  0  0  0  0  0
  -26.9130  -16.9715   22.2539 H   0  0  0  0  0  0
  1 25  1  0  0  0
  1 30  2  0  0  0
  1 89  1  0  0  0
  2  3  1  0  0  0
  2 25  1  0  0  0
  2 92  1  0  0  0
  2 93  1  0  0  0
  3  4  1  0  0  0
  3 94  1  0  0  0
  3 95  1  0  0  0
  4  5  1  0  0  0
  4 96  1  0  0  0
  4 97  1  0  0  0
  5  6  1  0  0  0
  5 26  1  0  0  0
  5 98  1  0  0  0
  6 25  1  0  0  0
  6 99  1  0  0  0
  6100  1  0  0  0
  7  8  2  0  0  0
  7 26  1  0  0  0
  7 29  1  0  0  0
  8  9  1  0  0  0
  8 22  1  0  0  0
  9 10  1  0  0  0
  9 27  2  0  0  0
 10 11  2  0  0  0
 10 15  1  0  0  0
 11 12  1  0  0  0
 11101  1  0  0  0
 12 13  2  0  0  0
 12102  1  0  0  0
 13 14  1  0  0  0
 13 31  1  0  0  0
 14 15  2  0  0  0
 14103  1  0  0  0
 15104  1  0  0  0
 16 17  2  0  0  0
 16 21  1  0  0  0
 16 31  1  0  0  0
 17 18  1  0  0  0
 17105  1  0  0  0
 18 19  2  0  0  0
 18106  1  0  0  0
 19 20  1  0  0  0
 19 24  1  0  0  0
 20 21  2  0  0  0
 20107  1  0  0  0
 21 23  1  0  0  0
 22 28  1  0  0  0
 22 32  2  0  0  0
 26 27  1  0  0  0
 28108  1  0  0  0
 28109  1  0  0  0
 29110  1  0  0  0
 29111  1  0  0  0
 33 34  1  0  0  0
 33 66  1  0  0  0
 33 70  2  0  0  0
 34 36  1  0  0  0
 34 59  1  0  0  0
 34112  1  0  0  0
 35 44  2  0  0  0
 35 45  1  0  0  0
 35 68  1  0  0  0
 36 56  1  0  0  0
 36113  1  0  0  0
 37 39  1  0  0  0
 37 47  1  0  0  0
 37 66  1  0  0  0
 37114  1  0  0  0
 38 43  2  0  0  0
 38 46  1  0  0  0
 38 47  1  0  0  0
 39 64  1  0  0  0
 39 67  2  0  0  0
 40 52  1  0  0  0
 40 53  2  0  0  0
 40 58  1  0  0  0
 41115  1  0  0  0
 41116  1  0  0  0
 41117  1  0  0  0
 41 48  1  0  0  0
 42 43  1  0  0  0
 42 66  1  0  0  0
 42118  1  0  0  0
 42119  1  0  0  0
 43 44  1  0  0  0
 44120  1  0  0  0
 45 46  2  0  0  0
 45121  1  0  0  0
 46122  1  0  0  0
 47123  1  0  0  0
 47124  1  0  0  0
 48 56  1  0  0  0
 48 65  1  0  0  0
 48125  1  0  0  0
 49 50  1  0  0  0
 49 53  1  0  0  0
 49 64  1  0  0  0
 49126  1  0  0  0
 50 51  1  0  0  0
 50127  1  0  0  0
 50128  1  0  0  0
 51 52  1  0  0  0
 51129  1  0  0  0
 51130  1  0  0  0
 52131  1  0  0  0
 52132  1  0  0  0
 53 54  1  0  0  0
 54 55  2  0  0  0
 54133  1  0  0  0
 55 57  1  0  0  0
 55134  1  0  0  0
 56 69  2  0  0  0
 57 58  2  0  0  0
 57135  1  0  0  0
 58136  1  0  0  0
 59 60  1  0  0  0
 59 61  1  0  0  0
 59 62  1  0  0  0
 60137  1  0  0  0
 60138  1  0  0  0
 60139  1  0  0  0
 61140  1  0  0  0
 61141  1  0  0  0
 61142  1  0  0  0
 62143  1  0  0  0
 62144  1  0  0  0
 62145  1  0  0  0
 63 65  1  0  0  0
 63146  1  0  0  0
 63147  1  0  0  0
 63148  1  0  0  0
 64149  1  0  0  0
 65150  1  0  0  0
 68 85  1  0  0  0
 71 72  2  0  0  0
 71 74  1  0  0  0
 71151  1  0  0  0
 72 75  1  0  0  0
 72 77  1  0  0  0
 73 75  2  0  0  0
 73 76  1  0  0  0
 73 88  1  0  0  0
 74 76  2  0  0  0
 74 89  1  0  0  0
 75 90  1  0  0  0
 76 91  1  0  0  0
 77152  1  0  0  0
 77153  1  0  0  0
 77154  1  0  0  0
 78155  1  0  0  0
 78156  1  0  0  0
 78157  1  0  0  0
 78 86  1  0  0  0
 79 86  1  0  0  0
 79158  1  0  0  0
 79159  1  0  0  0
 79160  1  0  0  0
 80161  1  0  0  0
 80162  1  0  0  0
 80163  1  0  0  0
 80 87  1  0  0  0
 81164  1  0  0  0
 81165  1  0  0  0
 81166  1  0  0  0
 81 88  1  0  0  0
 82 88  1  0  0  0
 82167  1  0  0  0
 82168  1  0  0  0
 82169  1  0  0  0
 83 88  1  0  0  0
 83170  1  0  0  0
 83171  1  0  0  0
 83172  1  0  0  0
 84 85  1  0  0  0
 84 87  1  0  0  0
 84173  1  0  0  0
 84174  1  0  0  0
 85175  1  0  0  0
 85176  1  0  0  0
 86 91  1  0  0  0
 86177  1  0  0  0
 87 90  1  0  0  0
 87178  1  0  0  0
 89179  1  0  0  0
 90180  1  0  0  0
 91181  1  0  0  0
M  ISO  4   1 100  68 101  85 101  89 100
M  END
> <chiral flag>
0

> <version>
0

> <s_m_source_file>
/data/baiqing/PycharmProjects/Reinvent-master-3.2/result/LINK_invent/BTK/process_docking_weight1_custom_sum_contain_oxygen_bond_distance_aromatic_linkinvent_7_9_3/rearranged_h_0016.sdf

> <i_m_source_file_index>
1

> <r_mmod_Potential_Energy-OPLS-2005>
127.967811584473

> <r_mmod_Stretch_Energy-OPLS-2005>
100.033851623535

> <r_mmod_Bend_Energy-OPLS-2005>
202.880386352539

> <r_mmod_Torsional_Energy-OPLS-2005>
274.494689941406

> <r_mmod_Improper_Torsional_Energy-OPLS-2005>
11.5580005645752

> <r_mmod_Van_der_Waal_Energy-OPLS-2005>
167.988555908203

> <r_mmod_Electrostatic_Energy-OPLS-2005>
-490.210845947266

> <r_mmod_Solvation_Energy-OPLS-2005>
-178.795852661133

> <b_mmod_Minimization_Converged-OPLS-2005>
0

> <r_mmod_RMS_Derivative-OPLS-2005>
1.78986632823944

$$$$
1
                    3D
 Structure written by MMmdl.
159167  0  0  1  0            999 V2000
  -30.6460  -14.7172   20.4472 C   0  0  0  0  0  0
  -30.4184  -12.4338   19.4774 C   0  0  0  0  0  0
  -29.5044  -12.4987   18.2363 C   0  0  0  0  0  0
  -28.0300  -12.3335   18.6486 C   0  0  0  0  0  0
  -27.6379  -13.2365   19.8491 C   0  0  2  0  0  0
  -28.6818  -13.1804   20.9859 C   0  0  0  0  0  0
  -25.2479  -13.8207   20.5695 C   0  0  0  0  0  0
  -24.1779  -13.0443   20.9201 C   0  0  0  0  0  0
  -24.6380  -11.6927   20.8752 C   0  0  0  0  0  0
  -23.9059  -10.4297   21.0409 C   0  0  0  0  0  0
  -24.3615   -9.4212   21.9182 C   0  0  0  0  0  0
  -23.6298   -8.2244   22.0753 C   0  0  0  0  0  0
  -22.4280   -8.0279   21.3545 C   0  0  0  0  0  0
  -21.9910   -9.0247   20.4641 C   0  0  0  0  0  0
  -22.7235  -10.2129   20.3055 C   0  0  0  0  0  0
  -21.6853   -6.0734   22.5277 C   0  0  0  0  0  0
  -21.4014   -6.5637   23.8210 C   0  0  0  0  0  0
  -21.3664   -5.6790   24.9174 C   0  0  0  0  0  0
  -21.6047   -4.3052   24.7223 C   0  0  0  0  0  0
  -21.8821   -3.8144   23.4343 C   0  0  0  0  0  0
  -21.9191   -4.6961   22.3401 C   0  0  0  0  0  0
  -22.7799  -13.5216   21.1862 C   0  0  0  0  0  0
  -22.1660   -4.2147   21.0977 F   0  0  0  0  0  0
  -21.5633   -3.4535   25.7736 F   0  0  0  0  0  0
  -29.9856  -13.5107   20.3995 N   0  0  0  0  0  0
  -26.2913  -12.9427   20.3286 N   0  0  0  0  0  0
  -25.9311  -11.6562   20.5760 N   0  0  0  0  0  0
  -22.0449  -12.8209   22.0426 N   0  0  0  0  0  0
  -25.4146  -15.1932   20.4127 N   0  0  0  0  0  0
  -31.8417  -14.7381   20.1548 O   0  0  0  0  0  0
  -21.6646   -6.8879   21.4240 O   0  0  0  0  0  0
  -22.3476  -14.5516   20.6706 O   0  0  0  0  0  0
  -24.6295  -31.8545   23.1975 C   0  0  0  0  0  0
  -25.9130  -32.4745   23.8320 C   0  0  1  0  0  0
  -27.2237  -27.2760   20.1214 C   0  0  0  0  0  0
  -25.5931  -33.8547   24.2246 N   0  0  0  0  0  0
  -23.4247  -30.4765   21.5405 C   0  0  2  0  0  0
  -24.8707  -28.9219   20.1088 C   0  0  0  0  0  0
  -22.7489  -29.4596   22.4917 C   0  0  0  0  0  0
  -18.0283  -28.1388   22.8487 C   0  0  0  0  0  0
  -24.1484  -36.7282   23.2641 C   0  0  0  0  0  0
  -25.9686  -30.7726   21.3727 C   0  0  0  0  0  0
  -26.0392  -29.3956   20.7160 C   0  0  0  0  0  0
  -27.2146  -28.5834   20.7121 C   0  0  0  0  0  0
  -26.0270  -26.8567   19.4983 C   0  0  0  0  0  0
  -24.8689  -27.6603   19.4917 C   0  0  0  0  0  0
  -23.6401  -29.8068   20.1565 C   0  0  0  0  0  0
  -25.4113  -36.3062   24.0323 C   0  0  1  0  0  0
  -20.5887  -28.3688   23.1280 C   0  0  2  0  0  0
  -20.6777  -26.9405   22.5411 C   0  0  0  0  0  0
  -19.5745  -26.6381   21.5218 C   0  0  0  0  0  0
  -18.1927  -26.7932   22.1627 C   0  0  0  0  0  0
  -19.1538  -28.8859   23.2874 C   0  0  0  0  0  0
  -18.9459  -30.1464   23.8883 C   0  0  0  0  0  0
  -17.6457  -30.6587   24.0565 C   0  0  0  0  0  0
  -25.9053  -34.9433   23.5088 C   0  0  0  0  0  0
  -16.5348  -29.9085   23.6334 C   0  0  0  0  0  0
  -16.7268  -28.6503   23.0354 C   0  0  0  0  0  0
  -26.4506  -31.6578   25.0710 C   0  0  0  0  0  0
  -25.3734  -31.3737   26.1437 C   0  0  0  0  0  0
  -27.0365  -30.2995   24.6202 C   0  0  0  0  0  0
  -27.6051  -32.4333   25.7486 C   0  0  0  0  0  0
  -27.5574  -37.1796   24.8463 C   0  0  0  0  0  0
  -21.4197  -29.3034   22.3670 N   0  0  0  0  0  0
  -26.4286  -37.3762   23.9407 N   0  0  0  0  0  0
  -24.6935  -31.0531   22.0933 N   0  0  0  0  0  0
  -23.4203  -28.8138   23.3005 O   0  0  0  0  0  0
  -28.3568  -26.4402   20.1960 O   0  0  0  0  0  0
  -26.5616  -34.8912   22.4650 O   0  0  0  0  0  0
  -23.5453  -32.1354   23.7288 O   0  0  0  0  0  0
  -31.5928  -17.6843   20.0131 C   0  0  0  0  0  0
  -31.9972  -19.0238   19.8533 C   0  0  0  0  0  0
  -29.7572  -19.8496   20.4650 C   0  0  0  0  0  0
  -30.2877  -17.3261   20.4260 C   0  0  0  0  0  0
  -31.1058  -20.0926   20.0940 C   0  0  0  0  0  0
  -29.3774  -18.4452   20.6344 C   0  0  0  0  0  0
  -33.4322  -19.3047   19.4346 C   0  0  0  0  0  0
  -26.8499  -23.5696   21.0407 C   0  0  0  0  0  0
  -28.8170  -21.0987   20.8132 C   0  0  0  0  0  0
  -28.4409  -25.0481   19.6455 C   0  0  0  0  0  0
  -28.3105  -23.7285   20.5762 C   0  0  2  0  0  0
  -29.9162  -15.8901   20.6202 N   0  0  0  0  0  0
  -28.8505  -22.4012   19.9902 N   0  3  0  0  0  0
  -31.7220  -21.7092   19.9619 Cl  0  0  0  0  0  0
  -27.7714  -18.0652   21.1491 Cl  0  0  0  0  0  0
  -31.4629  -12.5301   19.1762 H   0  0  0  0  0  0
  -30.3401  -11.4606   19.9643 H   0  0  0  0  0  0
  -29.7822  -11.7231   17.5208 H   0  0  0  0  0  0
  -29.6417  -13.4524   17.7245 H   0  0  0  0  0  0
  -27.8819  -11.2858   18.9122 H   0  0  0  0  0  0
  -27.3733  -12.5266   17.7994 H   0  0  0  0  0  0
  -27.6294  -14.2570   19.4650 H   0  0  0  0  0  0
  -28.7091  -12.1898   21.4423 H   0  0  0  0  0  0
  -28.4229  -13.8791   21.7832 H   0  0  0  0  0  0
  -25.2757   -9.5692   22.4754 H   0  0  0  0  0  0
  -24.0008   -7.4637   22.7473 H   0  0  0  0  0  0
  -21.0840   -8.8757   19.8949 H   0  0  0  0  0  0
  -22.3685  -10.9663   19.6164 H   0  0  0  0  0  0
  -21.2008   -7.6146   23.9713 H   0  0  0  0  0  0
  -21.1484   -6.0521   25.9078 H   0  0  0  0  0  0
  -22.0597   -2.7605   23.2841 H   0  0  0  0  0  0
  -22.4074  -11.9876   22.4817 H   0  0  0  0  0  0
  -21.1062  -13.1222   22.2627 H   0  0  0  0  0  0
  -24.6484  -15.8449   20.5409 H   0  0  0  0  0  0
  -26.2670  -15.6441   20.1081 H   0  0  0  0  0  0
  -26.7197  -32.5394   23.1065 H   0  0  0  0  0  0
  -25.0103  -33.9685   25.0408 H   0  0  0  0  0  0
  -22.7200  -31.2979   21.3941 H   0  0  0  0  0  0
  -23.3743  -35.9617   23.3298 H   0  0  0  0  0  0
  -24.3581  -36.8909   22.2058 H   0  0  0  0  0  0
  -23.7244  -37.6485   23.6669 H   0  0  0  0  0  0
  -26.1064  -31.5328   20.6023 H   0  0  0  0  0  0
  -26.8481  -30.8217   22.0038 H   0  0  0  0  0  0
  -28.1115  -28.9433   21.1965 H   0  0  0  0  0  0
  -25.9445  -25.8871   19.0333 H   0  0  0  0  0  0
  -23.9696  -27.2895   19.0195 H   0  0  0  0  0  0
  -23.7596  -30.5809   19.3977 H   0  0  0  0  0  0
  -22.7591  -29.2362   19.8560 H   0  0  0  0  0  0
  -25.1299  -36.1905   25.0816 H   0  0  0  0  0  0
  -20.9978  -28.3258   24.1401 H   0  0  0  0  0  0
  -20.5688  -26.2285   23.3608 H   0  0  0  0  0  0
  -21.6645  -26.7433   22.1197 H   0  0  0  0  0  0
  -19.6897  -25.6293   21.1242 H   0  0  0  0  0  0
  -19.6692  -27.3197   20.6753 H   0  0  0  0  0  0
  -17.4201  -26.6684   21.4023 H   0  0  0  0  0  0
  -18.0308  -26.0079   22.9023 H   0  0  0  0  0  0
  -19.7936  -30.7289   24.2237 H   0  0  0  0  0  0
  -17.5008  -31.6262   24.5173 H   0  0  0  0  0  0
  -15.5348  -30.2984   23.7668 H   0  0  0  0  0  0
  -15.8665  -28.0823   22.7071 H   0  0  0  0  0  0
  -24.5902  -30.7088   25.7778 H   0  0  0  0  0  0
  -24.8937  -32.2914   26.4846 H   0  0  0  0  0  0
  -25.8056  -30.8929   27.0222 H   0  0  0  0  0  0
  -26.2955  -29.6728   24.1226 H   0  0  0  0  0  0
  -27.4050  -29.7270   25.4726 H   0  0  0  0  0  0
  -27.8824  -30.4269   23.9444 H   0  0  0  0  0  0
  -27.2641  -33.3638   26.2037 H   0  0  0  0  0  0
  -28.3875  -32.6891   25.0330 H   0  0  0  0  0  0
  -28.0706  -31.8484   26.5429 H   0  0  0  0  0  0
  -28.2588  -38.0095   24.7510 H   0  0  0  0  0  0
  -28.1073  -36.2628   24.6289 H   0  0  0  0  0  0
  -27.2292  -37.1442   25.8865 H   0  0  0  0  0  0
  -20.9367  -29.8758   21.6886 H   0  0  0  0  0  0
  -26.0158  -38.2830   24.1413 H   0  0  0  0  0  0
  -32.3447  -16.9405   19.8154 H   0  0  0  0  0  0
  -33.9961  -18.3868   19.2674 H   0  0  0  0  0  0
  -33.9511  -19.8751   20.2054 H   0  0  0  0  0  0
  -33.4552  -19.8791   18.5082 H   0  0  0  0  0  0
  -26.4757  -24.4965   21.4768 H   0  0  0  0  0  0
  -26.7452  -22.7962   21.8015 H   0  0  0  0  0  0
  -26.1928  -23.3129   20.2089 H   0  0  0  0  0  0
  -29.0572  -21.3632   21.8434 H   0  0  0  0  0  0
  -27.7808  -20.7633   20.8339 H   0  0  0  0  0  0
  -27.8130  -24.9375   18.7634 H   0  0  0  0  0  0
  -29.4494  -25.0153   19.2329 H   0  0  0  0  0  0
  -28.9178  -23.9228   21.4615 H   0  0  0  0  0  0
  -28.9476  -15.7420   20.8593 H   0  0  0  0  0  0
  -28.3974  -22.2131   19.1090 H   0  0  0  0  0  0
  -29.8295  -22.5500   19.7815 H   0  0  0  0  0  0
  1 25  1  0  0  0
  1 30  2  0  0  0
  1 82  1  0  0  0
  2  3  1  0  0  0
  2 25  1  0  0  0
  2 86  1  0  0  0
  2 87  1  0  0  0
  3  4  1  0  0  0
  3 88  1  0  0  0
  3 89  1  0  0  0
  4  5  1  0  0  0
  4 90  1  0  0  0
  4 91  1  0  0  0
  5  6  1  0  0  0
  5 26  1  0  0  0
  5 92  1  0  0  0
  6 25  1  0  0  0
  6 93  1  0  0  0
  6 94  1  0  0  0
  7  8  2  0  0  0
  7 26  1  0  0  0
  7 29  1  0  0  0
  8  9  1  0  0  0
  8 22  1  0  0  0
  9 10  1  0  0  0
  9 27  2  0  0  0
 10 11  2  0  0  0
 10 15  1  0  0  0
 11 12  1  0  0  0
 11 95  1  0  0  0
 12 13  2  0  0  0
 12 96  1  0  0  0
 13 14  1  0  0  0
 13 31  1  0  0  0
 14 15  2  0  0  0
 14 97  1  0  0  0
 15 98  1  0  0  0
 16 17  2  0  0  0
 16 21  1  0  0  0
 16 31  1  0  0  0
 17 18  1  0  0  0
 17 99  1  0  0  0
 18 19  2  0  0  0
 18100  1  0  0  0
 19 20  1  0  0  0
 19 24  1  0  0  0
 20 21  2  0  0  0
 20101  1  0  0  0
 21 23  1  0  0  0
 22 28  1  0  0  0
 22 32  2  0  0  0
 26 27  1  0  0  0
 28102  1  0  0  0
 28103  1  0  0  0
 29104  1  0  0  0
 29105  1  0  0  0
 33 34  1  0  0  0
 33 66  1  0  0  0
 33 70  2  0  0  0
 34 36  1  0  0  0
 34 59  1  0  0  0
 34106  1  0  0  0
 35 44  2  0  0  0
 35 45  1  0  0  0
 35 68  1  0  0  0
 36 56  1  0  0  0
 36107  1  0  0  0
 37 39  1  0  0  0
 37 47  1  0  0  0
 37 66  1  0  0  0
 37108  1  0  0  0
 38 43  2  0  0  0
 38 46  1  0  0  0
 38 47  1  0  0  0
 39 64  1  0  0  0
 39 67  2  0  0  0
 40 52  1  0  0  0
 40 53  2  0  0  0
 40 58  1  0  0  0
 41109  1  0  0  0
 41110  1  0  0  0
 41111  1  0  0  0
 41 48  1  0  0  0
 42 43  1  0  0  0
 42 66  1  0  0  0
 42112  1  0  0  0
 42113  1  0  0  0
 43 44  1  0  0  0
 44114  1  0  0  0
 45 46  2  0  0  0
 45115  1  0  0  0
 46116  1  0  0  0
 47117  1  0  0  0
 47118  1  0  0  0
 48 56  1  0  0  0
 48 65  1  0  0  0
 48119  1  0  0  0
 49 50  1  0  0  0
 49 53  1  0  0  0
 49 64  1  0  0  0
 49120  1  0  0  0
 50 51  1  0  0  0
 50121  1  0  0  0
 50122  1  0  0  0
 51 52  1  0  0  0
 51123  1  0  0  0
 51124  1  0  0  0
 52125  1  0  0  0
 52126  1  0  0  0
 53 54  1  0  0  0
 54 55  2  0  0  0
 54127  1  0  0  0
 55 57  1  0  0  0
 55128  1  0  0  0
 56 69  2  0  0  0
 57 58  2  0  0  0
 57129  1  0  0  0
 58130  1  0  0  0
 59 60  1  0  0  0
 59 61  1  0  0  0
 59 62  1  0  0  0
 60131  1  0  0  0
 60132  1  0  0  0
 60133  1  0  0  0
 61134  1  0  0  0
 61135  1  0  0  0
 61136  1  0  0  0
 62137  1  0  0  0
 62138  1  0  0  0
 62139  1  0  0  0
 63 65  1  0  0  0
 63140  1  0  0  0
 63141  1  0  0  0
 63142  1  0  0  0
 64143  1  0  0  0
 65144  1  0  0  0
 68 80  1  0  0  0
 71 72  2  0  0  0
 71 74  1  0  0  0
 71145  1  0  0  0
 72 75  1  0  0  0
 72 77  1  0  0  0
 73 75  2  0  0  0
 73 76  1  0  0  0
 73 79  1  0  0  0
 74 76  2  0  0  0
 74 82  1  0  0  0
 75 84  1  0  0  0
 76 85  1  0  0  0
 77146  1  0  0  0
 77147  1  0  0  0
 77148  1  0  0  0
 78149  1  0  0  0
 78150  1  0  0  0
 78151  1  0  0  0
 78 81  1  0  0  0
 79 83  1  0  0  0
 79152  1  0  0  0
 79153  1  0  0  0
 80 81  1  0  0  0
 80154  1  0  0  0
 80155  1  0  0  0
 81 83  1  0  0  0
 81156  1  0  0  0
 82157  1  0  0  0
 83158  1  0  0  0
 83159  1  0  0  0
M  CHG  1  83   1
M  ISO  4   1 100  68 101  80 101  82 100
M  END
> <chiral flag>
0

> <version>
0

> <s_m_source_file>
/data/baiqing/PycharmProjects/Reinvent-master-3.2/result/LINK_invent/BTK/process_docking_weight1_custom_sum_contain_oxygen_bond_distance_aromatic_linkinvent_7_9_3/rearranged_h_0016.sdf

> <i_m_source_file_index>
2

> <r_mmod_Potential_Energy-OPLS-2005>
-46.2703666687012

> <r_mmod_Stretch_Energy-OPLS-2005>
125.045333862305

> <r_mmod_Bend_Energy-OPLS-2005>
174.729095458984

> <r_mmod_Torsional_Energy-OPLS-2005>
206.457931518555

> <r_mmod_Improper_Torsional_Energy-OPLS-2005>
4.85166072845459

> <r_mmod_Van_der_Waal_Energy-OPLS-2005>
149.508834838867

> <r_mmod_Electrostatic_Energy-OPLS-2005>
-337.751220703125

> <r_mmod_Solvation_Energy-OPLS-2005>
-443.147369384766

> <b_mmod_Minimization_Converged-OPLS-2005>
0

> <r_mmod_RMS_Derivative-OPLS-2005>
0.955882012844086

$$$$
2
                    3D
 Structure written by MMmdl.
164172  0  0  1  0            999 V2000
  -30.6204  -14.7219   20.4140 C   0  0  0  0  0  0
  -30.4485  -12.4128   19.4862 C   0  0  0  0  0  0
  -29.5294  -12.4168   18.2437 C   0  0  0  0  0  0
  -28.0414  -12.3223   18.6427 C   0  0  0  0  0  0
  -27.6507  -13.2307   19.8419 C   0  0  2  0  0  0
  -28.6960  -13.1555   20.9765 C   0  0  0  0  0  0
  -25.2530  -13.8193   20.5608 C   0  0  0  0  0  0
  -24.1832  -13.0442   20.9185 C   0  0  0  0  0  0
  -24.6426  -11.6912   20.8754 C   0  0  0  0  0  0
  -23.9094  -10.4294   21.0426 C   0  0  0  0  0  0
  -24.3628   -9.4204   21.9209 C   0  0  0  0  0  0
  -23.6275   -8.2251   22.0738 C   0  0  0  0  0  0
  -22.4251   -8.0305   21.3538 C   0  0  0  0  0  0
  -21.9926   -9.0276   20.4638 C   0  0  0  0  0  0
  -22.7277  -10.2140   20.3054 C   0  0  0  0  0  0
  -21.6846   -6.0741   22.5268 C   0  0  0  0  0  0
  -21.4008   -6.5635   23.8210 C   0  0  0  0  0  0
  -21.3635   -5.6760   24.9166 C   0  0  0  0  0  0
  -21.6031   -4.3027   24.7212 C   0  0  0  0  0  0
  -21.8816   -3.8147   23.4329 C   0  0  0  0  0  0
  -21.9196   -4.6970   22.3388 C   0  0  0  0  0  0
  -22.7848  -13.5235   21.1827 C   0  0  0  0  0  0
  -22.1670   -4.2162   21.0959 F   0  0  0  0  0  0
  -21.5635   -3.4513   25.7737 F   0  0  0  0  0  0
  -30.0039  -13.4896   20.3996 N   0  0  0  0  0  0
  -26.3000  -12.9409   20.3239 N   0  0  0  0  0  0
  -25.9372  -11.6565   20.5789 N   0  0  0  0  0  0
  -22.0458  -12.8261   22.0395 N   0  0  0  0  0  0
  -25.4183  -15.1902   20.3889 N   0  0  0  0  0  0
  -31.8073  -14.8266   20.0942 O   0  0  0  0  0  0
  -21.6610   -6.8895   21.4233 O   0  0  0  0  0  0
  -22.3558  -14.5536   20.6647 O   0  0  0  0  0  0
  -24.6306  -31.8574   23.1994 C   0  0  0  0  0  0
  -25.9136  -32.4762   23.8336 C   0  0  1  0  0  0
  -27.2197  -27.2765   20.1410 C   0  0  0  0  0  0
  -25.5949  -33.8563   24.2258 N   0  0  0  0  0  0
  -23.4275  -30.4803   21.5431 C   0  0  2  0  0  0
  -24.8755  -28.9362   20.1060 C   0  0  0  0  0  0
  -22.7522  -29.4603   22.4918 C   0  0  0  0  0  0
  -18.0297  -28.1398   22.8491 C   0  0  0  0  0  0
  -24.1487  -36.7271   23.2639 C   0  0  0  0  0  0
  -25.9725  -30.7781   21.3786 C   0  0  0  0  0  0
  -26.0449  -29.4041   20.7189 C   0  0  0  0  0  0
  -27.2192  -28.5865   20.7242 C   0  0  0  0  0  0
  -26.0289  -26.8821   19.4849 C   0  0  0  0  0  0
  -24.8737  -27.6857   19.4732 C   0  0  0  0  0  0
  -23.6436  -29.8172   20.1578 C   0  0  0  0  0  0
  -25.4114  -36.3068   24.0327 C   0  0  1  0  0  0
  -20.5906  -28.3692   23.1297 C   0  0  2  0  0  0
  -20.6789  -26.9413   22.5424 C   0  0  0  0  0  0
  -19.5760  -26.6383   21.5237 C   0  0  0  0  0  0
  -18.1936  -26.7945   22.1630 C   0  0  0  0  0  0
  -19.1551  -28.8868   23.2886 C   0  0  0  0  0  0
  -18.9461  -30.1483   23.8883 C   0  0  0  0  0  0
  -17.6453  -30.6598   24.0563 C   0  0  0  0  0  0
  -25.9058  -34.9441   23.5089 C   0  0  0  0  0  0
  -16.5349  -29.9084   23.6345 C   0  0  0  0  0  0
  -16.7280  -28.6509   23.0356 C   0  0  0  0  0  0
  -26.4497  -31.6592   25.0730 C   0  0  0  0  0  0
  -25.3703  -31.3736   26.1437 C   0  0  0  0  0  0
  -27.0350  -30.3014   24.6218 C   0  0  0  0  0  0
  -27.6058  -32.4332   25.7501 C   0  0  0  0  0  0
  -27.5577  -37.1790   24.8456 C   0  0  0  0  0  0
  -21.4231  -29.3024   22.3667 N   0  0  0  0  0  0
  -26.4279  -37.3774   23.9412 N   0  0  0  0  0  0
  -24.6951  -31.0571   22.0959 N   0  0  0  0  0  0
  -23.4216  -28.8153   23.3019 O   0  0  0  0  0  0
  -28.3113  -26.3821   20.2377 O   0  0  0  0  0  0
  -26.5624  -34.8922   22.4653 O   0  0  0  0  0  0
  -23.5457  -32.1382   23.7309 O   0  0  0  0  0  0
  -29.4073  -19.6896   18.6308 C   0  0  0  0  0  0
  -29.4830  -18.5026   17.8864 C   0  0  0  0  0  0
  -29.7121  -17.2538   18.5241 C   0  0  0  0  0  0
  -29.6845  -18.4291   20.6832 C   0  0  0  0  0  0
  -29.5194  -19.7312   20.0335 C   0  0  0  0  0  0
  -29.8052  -17.1715   19.9475 C   0  0  0  0  0  0
  -29.2722  -18.6287   16.3801 C   0  0  0  0  0  0
  -29.7858  -15.9962   17.6676 C   0  0  0  0  0  0
  -29.7022  -18.3202   22.1997 C   0  0  0  0  0  0
  -30.7433  -21.3066   21.4028 C   0  0  0  0  0  0
  -29.0190  -23.7538   20.6148 C   0  0  0  0  0  0
  -28.8699  -22.2664   19.9975 C   0  0  0  0  0  0
  -28.0721  -24.9181   20.0204 C   0  0  0  0  0  0
  -29.8311  -15.8429   20.6201 N   0  0  0  0  0  0
  -29.5040  -21.0500   20.6652 N   0  0  0  0  0  0
  -31.4885  -12.5358   19.1805 H   0  0  0  0  0  0
  -30.4058  -11.4451   19.9913 H   0  0  0  0  0  0
  -29.7764  -11.5661   17.6069 H   0  0  0  0  0  0
  -29.7184  -13.2923   17.6277 H   0  0  0  0  0  0
  -27.8630  -11.2792   18.9036 H   0  0  0  0  0  0
  -27.4035  -12.5324   17.7846 H   0  0  0  0  0  0
  -27.6486  -14.2533   19.4640 H   0  0  0  0  0  0
  -28.7190  -12.1607   21.4268 H   0  0  0  0  0  0
  -28.4364  -13.8464   21.7785 H   0  0  0  0  0  0
  -25.2767   -9.5691   22.4804 H   0  0  0  0  0  0
  -23.9995   -7.4647   22.7424 H   0  0  0  0  0  0
  -21.0882   -8.8807   19.8915 H   0  0  0  0  0  0
  -22.3778  -10.9686   19.6152 H   0  0  0  0  0  0
  -21.1981   -7.6139   23.9768 H   0  0  0  0  0  0
  -21.1447   -6.0444   25.9073 H   0  0  0  0  0  0
  -22.0623   -2.7621   23.2802 H   0  0  0  0  0  0
  -22.4091  -12.0051   22.4992 H   0  0  0  0  0  0
  -21.1087  -13.1348   22.2547 H   0  0  0  0  0  0
  -24.6331  -15.8308   20.4265 H   0  0  0  0  0  0
  -26.2534  -15.6160   20.0064 H   0  0  0  0  0  0
  -26.7209  -32.5420   23.1088 H   0  0  0  0  0  0
  -25.0103  -33.9702   25.0407 H   0  0  0  0  0  0
  -22.7212  -31.2999   21.3998 H   0  0  0  0  0  0
  -23.3770  -35.9585   23.3293 H   0  0  0  0  0  0
  -24.3579  -36.8903   22.2057 H   0  0  0  0  0  0
  -23.7217  -37.6460   23.6668 H   0  0  0  0  0  0
  -26.1134  -31.5426   20.6137 H   0  0  0  0  0  0
  -26.8486  -30.8229   22.0124 H   0  0  0  0  0  0
  -28.1107  -28.9384   21.2238 H   0  0  0  0  0  0
  -25.9525  -25.9257   18.9903 H   0  0  0  0  0  0
  -23.9826  -27.3228   18.9789 H   0  0  0  0  0  0
  -23.7581  -30.5927   19.4002 H   0  0  0  0  0  0
  -22.7651  -29.2430   19.8579 H   0  0  0  0  0  0
  -25.1301  -36.1911   25.0818 H   0  0  0  0  0  0
  -20.9994  -28.3265   24.1425 H   0  0  0  0  0  0
  -20.5753  -26.2279   23.3618 H   0  0  0  0  0  0
  -21.6647  -26.7481   22.1180 H   0  0  0  0  0  0
  -19.6917  -25.6294   21.1276 H   0  0  0  0  0  0
  -19.6718  -27.3189   20.6771 H   0  0  0  0  0  0
  -17.4227  -26.6733   21.4011 H   0  0  0  0  0  0
  -18.0297  -26.0098   22.9026 H   0  0  0  0  0  0
  -19.7932  -30.7323   24.2223 H   0  0  0  0  0  0
  -17.5000  -31.6280   24.5160 H   0  0  0  0  0  0
  -15.5346  -30.2964   23.7697 H   0  0  0  0  0  0
  -15.8685  -28.0833   22.7052 H   0  0  0  0  0  0
  -24.5878  -30.7099   25.7736 H   0  0  0  0  0  0
  -24.8888  -32.2902   26.4862 H   0  0  0  0  0  0
  -25.8000  -30.8893   27.0214 H   0  0  0  0  0  0
  -26.2934  -29.6765   24.1223 H   0  0  0  0  0  0
  -27.4012  -29.7286   25.4749 H   0  0  0  0  0  0
  -27.8824  -30.4303   23.9478 H   0  0  0  0  0  0
  -27.2676  -33.3637   26.2079 H   0  0  0  0  0  0
  -28.3865  -32.6886   25.0319 H   0  0  0  0  0  0
  -28.0733  -31.8451   26.5415 H   0  0  0  0  0  0
  -28.2576  -38.0107   24.7554 H   0  0  0  0  0  0
  -28.1097  -36.2646   24.6224 H   0  0  0  0  0  0
  -27.2311  -37.1371   25.8861 H   0  0  0  0  0  0
  -20.9418  -29.8671   21.6814 H   0  0  0  0  0  0
  -26.0163  -38.2846   24.1435 H   0  0  0  0  0  0
  -29.2649  -20.5933   18.0654 H   0  0  0  0  0  0
  -28.8993  -19.6155   16.1021 H   0  0  0  0  0  0
  -28.5245  -17.9178   16.0263 H   0  0  0  0  0  0
  -30.2041  -18.4683   15.8378 H   0  0  0  0  0  0
  -29.6494  -16.1613   16.6036 H   0  0  0  0  0  0
  -29.0025  -15.3092   17.9742 H   0  0  0  0  0  0
  -30.7551  -15.5112   17.7660 H   0  0  0  0  0  0
  -29.7320  -19.2810   22.7069 H   0  0  0  0  0  0
  -30.5632  -17.7369   22.5269 H   0  0  0  0  0  0
  -28.8054  -17.8042   22.5400 H   0  0  0  0  0  0
  -31.4006  -20.4366   21.4565 H   0  0  0  0  0  0
  -30.5201  -21.6091   22.4274 H   0  0  0  0  0  0
  -31.3245  -22.1016   20.9344 H   0  0  0  0  0  0
  -30.0536  -24.0742   20.4900 H   0  0  0  0  0  0
  -28.8518  -23.7057   21.6908 H   0  0  0  0  0  0
  -29.2376  -22.3607   18.9777 H   0  0  0  0  0  0
  -27.8048  -22.0519   19.9105 H   0  0  0  0  0  0
  -27.0868  -24.6771   20.4215 H   0  0  0  0  0  0
  -27.9939  -24.7781   18.9415 H   0  0  0  0  0  0
  -28.9891  -15.6419   21.1369 H   0  0  0  0  0  0
  1 25  1  0  0  0
  1 30  2  0  0  0
  1 84  1  0  0  0
  2  3  1  0  0  0
  2 25  1  0  0  0
  2 86  1  0  0  0
  2 87  1  0  0  0
  3  4  1  0  0  0
  3 88  1  0  0  0
  3 89  1  0  0  0
  4  5  1  0  0  0
  4 90  1  0  0  0
  4 91  1  0  0  0
  5  6  1  0  0  0
  5 26  1  0  0  0
  5 92  1  0  0  0
  6 25  1  0  0  0
  6 93  1  0  0  0
  6 94  1  0  0  0
  7  8  2  0  0  0
  7 26  1  0  0  0
  7 29  1  0  0  0
  8  9  1  0  0  0
  8 22  1  0  0  0
  9 10  1  0  0  0
  9 27  2  0  0  0
 10 11  2  0  0  0
 10 15  1  0  0  0
 11 12  1  0  0  0
 11 95  1  0  0  0
 12 13  2  0  0  0
 12 96  1  0  0  0
 13 14  1  0  0  0
 13 31  1  0  0  0
 14 15  2  0  0  0
 14 97  1  0  0  0
 15 98  1  0  0  0
 16 17  2  0  0  0
 16 21  1  0  0  0
 16 31  1  0  0  0
 17 18  1  0  0  0
 17 99  1  0  0  0
 18 19  2  0  0  0
 18100  1  0  0  0
 19 20  1  0  0  0
 19 24  1  0  0  0
 20 21  2  0  0  0
 20101  1  0  0  0
 21 23  1  0  0  0
 22 28  1  0  0  0
 22 32  2  0  0  0
 26 27  1  0  0  0
 28102  1  0  0  0
 28103  1  0  0  0
 29104  1  0  0  0
 29105  1  0  0  0
 33 34  1  0  0  0
 33 66  1  0  0  0
 33 70  2  0  0  0
 34 36  1  0  0  0
 34 59  1  0  0  0
 34106  1  0  0  0
 35 44  2  0  0  0
 35 45  1  0  0  0
 35 68  1  0  0  0
 36 56  1  0  0  0
 36107  1  0  0  0
 37 39  1  0  0  0
 37 47  1  0  0  0
 37 66  1  0  0  0
 37108  1  0  0  0
 38 43  2  0  0  0
 38 46  1  0  0  0
 38 47  1  0  0  0
 39 64  1  0  0  0
 39 67  2  0  0  0
 40 52  1  0  0  0
 40 53  2  0  0  0
 40 58  1  0  0  0
 41109  1  0  0  0
 41110  1  0  0  0
 41111  1  0  0  0
 41 48  1  0  0  0
 42 43  1  0  0  0
 42 66  1  0  0  0
 42112  1  0  0  0
 42113  1  0  0  0
 43 44  1  0  0  0
 44114  1  0  0  0
 45 46  2  0  0  0
 45115  1  0  0  0
 46116  1  0  0  0
 47117  1  0  0  0
 47118  1  0  0  0
 48 56  1  0  0  0
 48 65  1  0  0  0
 48119  1  0  0  0
 49 50  1  0  0  0
 49 53  1  0  0  0
 49 64  1  0  0  0
 49120  1  0  0  0
 50 51  1  0  0  0
 50121  1  0  0  0
 50122  1  0  0  0
 51 52  1  0  0  0
 51123  1  0  0  0
 51124  1  0  0  0
 52125  1  0  0  0
 52126  1  0  0  0
 53 54  1  0  0  0
 54 55  2  0  0  0
 54127  1  0  0  0
 55 57  1  0  0  0
 55128  1  0  0  0
 56 69  2  0  0  0
 57 58  2  0  0  0
 57129  1  0  0  0
 58130  1  0  0  0
 59 60  1  0  0  0
 59 61  1  0  0  0
 59 62  1  0  0  0
 60131  1  0  0  0
 60132  1  0  0  0
 60133  1  0  0  0
 61134  1  0  0  0
 61135  1  0  0  0
 61136  1  0  0  0
 62137  1  0  0  0
 62138  1  0  0  0
 62139  1  0  0  0
 63 65  1  0  0  0
 63140  1  0  0  0
 63141  1  0  0  0
 63142  1  0  0  0
 64143  1  0  0  0
 65144  1  0  0  0
 68 83  1  0  0  0
 71 72  2  0  0  0
 71 75  1  0  0  0
 71145  1  0  0  0
 72 73  1  0  0  0
 72 77  1  0  0  0
 73 76  2  0  0  0
 73 78  1  0  0  0
 74 75  2  0  0  0
 74 76  1  0  0  0
 74 79  1  0  0  0
 75 85  1  0  0  0
 76 84  1  0  0  0
 77146  1  0  0  0
 77147  1  0  0  0
 77148  1  0  0  0
 78149  1  0  0  0
 78150  1  0  0  0
 78151  1  0  0  0
 79152  1  0  0  0
 79153  1  0  0  0
 79154  1  0  0  0
 80 85  1  0  0  0
 80155  1  0  0  0
 80156  1  0  0  0
 80157  1  0  0  0
 81 82  1  0  0  0
 81 83  1  0  0  0
 81158  1  0  0  0
 81159  1  0  0  0
 82 85  1  0  0  0
 82160  1  0  0  0
 82161  1  0  0  0
 83162  1  0  0  0
 83163  1  0  0  0
 84164  1  0  0  0
M  ISO  4   1 100  68 101  83 101  84 100
M  END
> <chiral flag>
0

> <version>
0

> <s_m_source_file>
/data/baiqing/PycharmProjects/Reinvent-master-3.2/result/LINK_invent/BTK/process_docking_weight1_custom_sum_contain_oxygen_bond_distance_aromatic_linkinvent_7_9_3/rearranged_h_0016.sdf

> <i_m_source_file_index>
3

> <r_mmod_Potential_Energy-OPLS-2005>
186.990692138672

> <r_mmod_Stretch_Energy-OPLS-2005>
125.399253845215

> <r_mmod_Bend_Energy-OPLS-2005>
165.503784179688

> <r_mmod_Torsional_Energy-OPLS-2005>
260.274078369141

> <r_mmod_Improper_Torsional_Energy-OPLS-2005>
9.19150543212891

> <r_mmod_Van_der_Waal_Energy-OPLS-2005>
162.281677246094

> <r_mmod_Electrostatic_Energy-OPLS-2005>
-393.293243408203

> <r_mmod_Solvation_Energy-OPLS-2005>
-223.911514282227

> <b_mmod_Minimization_Converged-OPLS-2005>
0

> <r_mmod_RMS_Derivative-OPLS-2005>
4.14251327514648

$$$$
3
                    3D
 Structure written by MMmdl.
166174  0  0  1  0            999 V2000
  -30.7093  -14.4268   20.6065 C   0  0  0  0  0  0
  -30.4236  -12.2893   19.4093 C   0  0  0  0  0  0
  -29.4919  -12.5088   18.2005 C   0  0  0  0  0  0
  -28.0126  -12.3711   18.6119 C   0  0  0  0  0  0
  -27.6653  -13.1989   19.8783 C   0  0  2  0  0  0
  -28.7039  -12.9437   20.9934 C   0  0  0  0  0  0
  -25.2609  -13.8155   20.5668 C   0  0  0  0  0  0
  -24.1843  -13.0444   20.9155 C   0  0  0  0  0  0
  -24.6389  -11.6907   20.8726 C   0  0  0  0  0  0
  -23.9052  -10.4298   21.0403 C   0  0  0  0  0  0
  -24.3603   -9.4217   21.9184 C   0  0  0  0  0  0
  -23.6279   -8.2253   22.0758 C   0  0  0  0  0  0
  -22.4266   -8.0282   21.3546 C   0  0  0  0  0  0
  -21.9901   -9.0254   20.4646 C   0  0  0  0  0  0
  -22.7226  -10.2135   20.3053 C   0  0  0  0  0  0
  -21.6852   -6.0735   22.5285 C   0  0  0  0  0  0
  -21.4010   -6.5640   23.8216 C   0  0  0  0  0  0
  -21.3657   -5.6793   24.9180 C   0  0  0  0  0  0
  -21.6047   -4.3057   24.7229 C   0  0  0  0  0  0
  -21.8822   -3.8147   23.4351 C   0  0  0  0  0  0
  -21.9190   -4.6963   22.3404 C   0  0  0  0  0  0
  -22.7869  -13.5245   21.1823 C   0  0  0  0  0  0
  -22.1659   -4.2144   21.0980 F   0  0  0  0  0  0
  -21.5634   -3.4533   25.7739 F   0  0  0  0  0  0
  -30.0408  -13.2526   20.4516 N   0  0  0  0  0  0
  -26.3038  -12.9306   20.3369 N   0  0  0  0  0  0
  -25.9309  -11.6473   20.5748 N   0  0  0  0  0  0
  -22.0511  -12.8244   22.0388 N   0  0  0  0  0  0
  -25.4357  -15.1867   20.4094 N   0  0  0  0  0  0
  -31.8093  -14.6405   20.0871 O   0  0  0  0  0  0
  -21.6638   -6.8874   21.4242 O   0  0  0  0  0  0
  -22.3558  -14.5551   20.6669 O   0  0  0  0  0  0
  -24.6093  -31.8714   23.2122 C   0  0  0  0  0  0
  -25.9003  -32.4838   23.8407 C   0  0  1  0  0  0
  -27.2489  -27.4753   20.0949 C   0  0  0  0  0  0
  -25.5875  -33.8633   24.2343 N   0  0  0  0  0  0
  -23.3954  -30.4918   21.5528 C   0  0  2  0  0  0
  -24.8453  -28.9600   20.1160 C   0  0  0  0  0  0
  -22.7383  -29.4664   22.5031 C   0  0  0  0  0  0
  -18.0258  -28.1375   22.8495 C   0  0  0  0  0  0
  -24.1477  -36.7324   23.2645 C   0  0  0  0  0  0
  -25.9173  -30.8494   21.3581 C   0  0  0  0  0  0
  -25.9979  -29.4829   20.7151 C   0  0  0  0  0  0
  -27.1995  -28.7476   20.7115 C   0  0  0  0  0  0
  -26.0856  -26.9655   19.4844 C   0  0  0  0  0  0
  -24.8811  -27.6965   19.4994 C   0  0  0  0  0  0
  -23.6013  -29.8183   20.1679 C   0  0  0  0  0  0
  -25.4098  -36.3120   24.0345 C   0  0  1  0  0  0
  -20.5843  -28.3644   23.1341 C   0  0  2  0  0  0
  -20.6742  -26.9383   22.5428 C   0  0  0  0  0  0
  -19.5725  -26.6374   21.5217 C   0  0  0  0  0  0
  -18.1900  -26.7926   22.1619 C   0  0  0  0  0  0
  -19.1508  -28.8829   23.2910 C   0  0  0  0  0  0
  -18.9440  -30.1442   23.8905 C   0  0  0  0  0  0
  -17.6446  -30.6584   24.0564 C   0  0  0  0  0  0
  -25.9017  -34.9485   23.5142 C   0  0  0  0  0  0
  -16.5333  -29.9087   23.6328 C   0  0  0  0  0  0
  -16.7249  -28.6502   23.0350 C   0  0  0  0  0  0
  -26.4448  -31.6600   25.0719 C   0  0  0  0  0  0
  -25.3726  -31.3679   26.1471 C   0  0  0  0  0  0
  -27.0282  -30.3061   24.6056 C   0  0  0  0  0  0
  -27.6032  -32.4308   25.7489 C   0  0  0  0  0  0
  -27.5576  -37.1816   24.8471 C   0  0  0  0  0  0
  -21.4118  -29.3017   22.3761 N   0  0  0  0  0  0
  -26.4291  -37.3798   23.9411 N   0  0  0  0  0  0
  -24.6588  -31.0841   22.1007 N   0  0  0  0  0  0
  -23.4179  -28.8224   23.3066 O   0  0  0  0  0  0
  -28.3836  -26.6987   20.0452 O   0  0  0  0  0  0
  -26.5589  -34.8932   22.4708 O   0  0  0  0  0  0
  -23.5295  -32.1447   23.7539 O   0  0  0  0  0  0
  -31.0775  -17.4954   20.5781 C   0  0  0  0  0  0
  -31.3064  -18.8708   20.7740 C   0  0  0  0  0  0
  -29.6915  -17.4198   22.5883 C   0  0  0  0  0  0
  -29.9528  -18.8007   22.8087 C   0  0  0  0  0  0
  -30.2924  -16.7500   21.4893 C   0  0  0  0  0  0
  -30.7432  -19.5299   21.8859 C   0  0  0  0  0  0
  -32.1696  -19.6330   19.7841 C   0  0  0  0  0  0
  -28.7839  -16.6464   23.5437 C   0  0  0  0  0  0
  -29.4177  -19.5001   24.0527 C   0  0  0  0  0  0
  -29.6132  -24.2901   21.3302 C   0  0  0  0  0  0
  -30.2869  -25.6607   21.1238 C   0  0  0  0  0  0
  -30.6342  -23.1540   21.5178 C   0  0  0  0  0  0
  -29.3021  -26.8390   21.1232 C   0  0  0  0  0  0
  -29.9941  -21.7724   21.7313 C   0  0  0  0  0  0
  -30.0452  -15.3531   21.3213 N   0  0  0  0  0  0
  -31.0315  -20.8597   22.0780 O   0  0  0  0  0  0
  -31.4674  -12.3914   19.1062 H   0  0  0  0  0  0
  -30.3265  -11.2707   19.7883 H   0  0  0  0  0  0
  -29.7270  -11.7944   17.4101 H   0  0  0  0  0  0
  -29.6647  -13.5001   17.7794 H   0  0  0  0  0  0
  -27.8175  -11.3138   18.7941 H   0  0  0  0  0  0
  -27.3631  -12.6589   17.7840 H   0  0  0  0  0  0
  -27.7226  -14.2519   19.5996 H   0  0  0  0  0  0
  -28.6732  -11.8984   21.3031 H   0  0  0  0  0  0
  -28.4560  -13.5091   21.8921 H   0  0  0  0  0  0
  -25.2751   -9.5694   22.4755 H   0  0  0  0  0  0
  -23.9993   -7.4649   22.7485 H   0  0  0  0  0  0
  -21.0841   -8.8769   19.8946 H   0  0  0  0  0  0
  -22.3686  -10.9669   19.6154 H   0  0  0  0  0  0
  -21.2000   -7.6146   23.9716 H   0  0  0  0  0  0
  -21.1476   -6.0522   25.9081 H   0  0  0  0  0  0
  -22.0603   -2.7611   23.2855 H   0  0  0  0  0  0
  -22.4125  -11.9900   22.4770 H   0  0  0  0  0  0
  -21.1125  -13.1265   22.2581 H   0  0  0  0  0  0
  -24.6733  -15.8459   20.5218 H   0  0  0  0  0  0
  -26.2952  -15.6255   20.1032 H   0  0  0  0  0  0
  -26.7085  -32.5583   23.1191 H   0  0  0  0  0  0
  -25.0015  -33.9791   25.0481 H   0  0  0  0  0  0
  -22.6811  -31.3063   21.4147 H   0  0  0  0  0  0
  -23.3749  -35.9645   23.3279 H   0  0  0  0  0  0
  -24.3582  -36.8980   22.2070 H   0  0  0  0  0  0
  -23.7215  -37.6509   23.6688 H   0  0  0  0  0  0
  -26.0156  -31.6107   20.5829 H   0  0  0  0  0  0
  -26.8105  -30.9140   21.9674 H   0  0  0  0  0  0
  -28.0788  -29.1740   21.1711 H   0  0  0  0  0  0
  -26.1134  -25.9979   19.0033 H   0  0  0  0  0  0
  -23.9972  -27.2878   19.0298 H   0  0  0  0  0  0
  -23.7001  -30.5902   19.4037 H   0  0  0  0  0  0
  -22.7282  -29.2298   19.8800 H   0  0  0  0  0  0
  -25.1272  -36.1987   25.0839 H   0  0  0  0  0  0
  -20.9928  -28.3197   24.1465 H   0  0  0  0  0  0
  -20.5636  -26.2243   23.3607 H   0  0  0  0  0  0
  -21.6619  -26.7435   22.1226 H   0  0  0  0  0  0
  -19.6875  -25.6290   21.1237 H   0  0  0  0  0  0
  -19.6664  -27.3189   20.6753 H   0  0  0  0  0  0
  -17.4176  -26.6703   21.4005 H   0  0  0  0  0  0
  -18.0275  -26.0059   22.9001 H   0  0  0  0  0  0
  -19.7916  -30.7256   24.2271 H   0  0  0  0  0  0
  -17.5004  -31.6263   24.5171 H   0  0  0  0  0  0
  -15.5331  -30.2988   23.7653 H   0  0  0  0  0  0
  -15.8648  -28.0827   22.7056 H   0  0  0  0  0  0
  -24.5876  -30.7066   25.7788 H   0  0  0  0  0  0
  -24.8937  -32.2825   26.4976 H   0  0  0  0  0  0
  -25.8091  -30.8788   27.0188 H   0  0  0  0  0  0
  -26.2807  -29.6826   24.1144 H   0  0  0  0  0  0
  -27.4109  -29.7301   25.4488 H   0  0  0  0  0  0
  -27.8614  -30.4410   23.9158 H   0  0  0  0  0  0
  -27.2674  -33.3621   26.2066 H   0  0  0  0  0  0
  -28.3847  -32.6841   25.0312 H   0  0  0  0  0  0
  -28.0684  -31.8420   26.5406 H   0  0  0  0  0  0
  -28.2603  -38.0101   24.7508 H   0  0  0  0  0  0
  -28.1064  -36.2636   24.6316 H   0  0  0  0  0  0
  -27.2296  -37.1487   25.8874 H   0  0  0  0  0  0
  -20.9272  -29.8735   21.6987 H   0  0  0  0  0  0
  -26.0187  -38.2886   24.1389 H   0  0  0  0  0  0
  -31.5128  -17.0263   19.7087 H   0  0  0  0  0  0
  -32.8813  -18.9703   19.2906 H   0  0  0  0  0  0
  -32.7424  -20.4164   20.2806 H   0  0  0  0  0  0
  -31.5489  -20.1002   19.0195 H   0  0  0  0  0  0
  -28.0363  -17.2883   24.0067 H   0  0  0  0  0  0
  -29.3740  -16.1814   24.3339 H   0  0  0  0  0  0
  -28.2173  -15.8670   23.0355 H   0  0  0  0  0  0
  -29.4956  -18.8585   24.9301 H   0  0  0  0  0  0
  -28.3721  -19.7764   23.9143 H   0  0  0  0  0  0
  -29.9794  -20.4038   24.2874 H   0  0  0  0  0  0
  -28.9692  -24.0693   20.4779 H   0  0  0  0  0  0
  -28.9608  -24.3355   22.2033 H   0  0  0  0  0  0
  -30.8557  -25.6594   20.1930 H   0  0  0  0  0  0
  -31.0118  -25.8275   21.9218 H   0  0  0  0  0  0
  -31.2689  -23.3864   22.3737 H   0  0  0  0  0  0
  -31.2956  -23.1072   20.6515 H   0  0  0  0  0  0
  -29.8557  -27.7737   21.0230 H   0  0  0  0  0  0
  -28.7718  -26.8704   22.0777 H   0  0  0  0  0  0
  -29.4718  -21.4553   20.8264 H   0  0  0  0  0  0
  -29.2578  -21.8235   22.5338 H   0  0  0  0  0  0
  -29.2197  -15.0016   21.7789 H   0  0  0  0  0  0
  1 25  1  0  0  0
  1 30  2  0  0  0
  1 85  1  0  0  0
  2  3  1  0  0  0
  2 25  1  0  0  0
  2 87  1  0  0  0
  2 88  1  0  0  0
  3  4  1  0  0  0
  3 89  1  0  0  0
  3 90  1  0  0  0
  4  5  1  0  0  0
  4 91  1  0  0  0
  4 92  1  0  0  0
  5  6  1  0  0  0
  5 26  1  0  0  0
  5 93  1  0  0  0
  6 25  1  0  0  0
  6 94  1  0  0  0
  6 95  1  0  0  0
  7  8  2  0  0  0
  7 26  1  0  0  0
  7 29  1  0  0  0
  8  9  1  0  0  0
  8 22  1  0  0  0
  9 10  1  0  0  0
  9 27  2  0  0  0
 10 11  2  0  0  0
 10 15  1  0  0  0
 11 12  1  0  0  0
 11 96  1  0  0  0
 12 13  2  0  0  0
 12 97  1  0  0  0
 13 14  1  0  0  0
 13 31  1  0  0  0
 14 15  2  0  0  0
 14 98  1  0  0  0
 15 99  1  0  0  0
 16 17  2  0  0  0
 16 21  1  0  0  0
 16 31  1  0  0  0
 17 18  1  0  0  0
 17100  1  0  0  0
 18 19  2  0  0  0
 18101  1  0  0  0
 19 20  1  0  0  0
 19 24  1  0  0  0
 20 21  2  0  0  0
 20102  1  0  0  0
 21 23  1  0  0  0
 22 28  1  0  0  0
 22 32  2  0  0  0
 26 27  1  0  0  0
 28103  1  0  0  0
 28104  1  0  0  0
 29105  1  0  0  0
 29106  1  0  0  0
 33 34  1  0  0  0
 33 66  1  0  0  0
 33 70  2  0  0  0
 34 36  1  0  0  0
 34 59  1  0  0  0
 34107  1  0  0  0
 35 44  2  0  0  0
 35 45  1  0  0  0
 35 68  1  0  0  0
 36 56  1  0  0  0
 36108  1  0  0  0
 37 39  1  0  0  0
 37 47  1  0  0  0
 37 66  1  0  0  0
 37109  1  0  0  0
 38 43  2  0  0  0
 38 46  1  0  0  0
 38 47  1  0  0  0
 39 64  1  0  0  0
 39 67  2  0  0  0
 40 52  1  0  0  0
 40 53  2  0  0  0
 40 58  1  0  0  0
 41110  1  0  0  0
 41111  1  0  0  0
 41112  1  0  0  0
 41 48  1  0  0  0
 42 43  1  0  0  0
 42 66  1  0  0  0
 42113  1  0  0  0
 42114  1  0  0  0
 43 44  1  0  0  0
 44115  1  0  0  0
 45 46  2  0  0  0
 45116  1  0  0  0
 46117  1  0  0  0
 47118  1  0  0  0
 47119  1  0  0  0
 48 56  1  0  0  0
 48 65  1  0  0  0
 48120  1  0  0  0
 49 50  1  0  0  0
 49 53  1  0  0  0
 49 64  1  0  0  0
 49121  1  0  0  0
 50 51  1  0  0  0
 50122  1  0  0  0
 50123  1  0  0  0
 51 52  1  0  0  0
 51124  1  0  0  0
 51125  1  0  0  0
 52126  1  0  0  0
 52127  1  0  0  0
 53 54  1  0  0  0
 54 55  2  0  0  0
 54128  1  0  0  0
 55 57  1  0  0  0
 55129  1  0  0  0
 56 69  2  0  0  0
 57 58  2  0  0  0
 57130  1  0  0  0
 58131  1  0  0  0
 59 60  1  0  0  0
 59 61  1  0  0  0
 59 62  1  0  0  0
 60132  1  0  0  0
 60133  1  0  0  0
 60134  1  0  0  0
 61135  1  0  0  0
 61136  1  0  0  0
 61137  1  0  0  0
 62138  1  0  0  0
 62139  1  0  0  0
 62140  1  0  0  0
 63 65  1  0  0  0
 63141  1  0  0  0
 63142  1  0  0  0
 63143  1  0  0  0
 64144  1  0  0  0
 65145  1  0  0  0
 68 83  1  0  0  0
 71 72  2  0  0  0
 71 75  1  0  0  0
 71146  1  0  0  0
 72 76  1  0  0  0
 72 77  1  0  0  0
 73 74  1  0  0  0
 73 75  2  0  0  0
 73 78  1  0  0  0
 74 76  2  0  0  0
 74 79  1  0  0  0
 75 85  1  0  0  0
 76 86  1  0  0  0
 77147  1  0  0  0
 77148  1  0  0  0
 77149  1  0  0  0
 78150  1  0  0  0
 78151  1  0  0  0
 78152  1  0  0  0
 79153  1  0  0  0
 79154  1  0  0  0
 79155  1  0  0  0
 80 81  1  0  0  0
 80 82  1  0  0  0
 80156  1  0  0  0
 80157  1  0  0  0
 81 83  1  0  0  0
 81158  1  0  0  0
 81159  1  0  0  0
 82 84  1  0  0  0
 82160  1  0  0  0
 82161  1  0  0  0
 83162  1  0  0  0
 83163  1  0  0  0
 84 86  1  0  0  0
 84164  1  0  0  0
 84165  1  0  0  0
 85166  1  0  0  0
M  ISO  4   1 100  68 101  83 101  85 100
M  END
> <chiral flag>
0

> <version>
0

> <s_m_source_file>
/data/baiqing/PycharmProjects/Reinvent-master-3.2/result/LINK_invent/BTK/process_docking_weight1_custom_sum_contain_oxygen_bond_distance_aromatic_linkinvent_7_9_3/rearranged_h_0016.sdf

> <i_m_source_file_index>
4

> <r_mmod_Potential_Energy-OPLS-2005>
-73.6376342773438

> <r_mmod_Stretch_Energy-OPLS-2005>
34.9538383483887

> <r_mmod_Bend_Energy-OPLS-2005>
96.739860534668

> <r_mmod_Torsional_Energy-OPLS-2005>
241.163223266602

> <r_mmod_Improper_Torsional_Energy-OPLS-2005>
2.30423736572266

> <r_mmod_Van_der_Waal_Energy-OPLS-2005>
162.893051147461

> <r_mmod_Electrostatic_Energy-OPLS-2005>
-416.189147949219

> <r_mmod_Solvation_Energy-OPLS-2005>
-203.086685180664

> <b_mmod_Minimization_Converged-OPLS-2005>
0

> <r_mmod_RMS_Derivative-OPLS-2005>
1.18653476238251

$$$$
4
                    3D
 Structure written by MMmdl.
153161  0  0  1  0            999 V2000
  -30.2629  -15.7656   20.3265 C   0  0  0  0  0  0
  -30.4146  -13.1850   19.5344 C   0  0  0  0  0  0
  -29.5526  -12.6872   18.3346 C   0  0  0  0  0  0
  -28.1444  -12.2918   18.7984 C   0  0  0  0  0  0
  -27.5933  -13.3172   19.8117 C   0  0  2  0  0  0
  -28.6031  -13.7147   20.9183 C   0  0  0  0  0  0
  -25.2325  -13.8297   20.5839 C   0  0  0  0  0  0
  -24.1716  -13.0436   20.9311 C   0  0  0  0  0  0
  -24.6426  -11.6950   20.8775 C   0  0  0  0  0  0
  -23.9129  -10.4289   21.0393 C   0  0  0  0  0  0
  -24.3657   -9.4201   21.9182 C   0  0  0  0  0  0
  -23.6317   -8.2245   22.0757 C   0  0  0  0  0  0
  -22.4302   -8.0294   21.3543 C   0  0  0  0  0  0
  -21.9944   -9.0271   20.4641 C   0  0  0  0  0  0
  -22.7293  -10.2136   20.3044 C   0  0  0  0  0  0
  -21.6859   -6.0751   22.5283 C   0  0  0  0  0  0
  -21.4013   -6.5648   23.8218 C   0  0  0  0  0  0
  -21.3653   -5.6800   24.9179 C   0  0  0  0  0  0
  -21.6039   -4.3065   24.7231 C   0  0  0  0  0  0
  -21.8816   -3.8160   23.4351 C   0  0  0  0  0  0
  -21.9190   -4.6974   22.3403 C   0  0  0  0  0  0
  -22.7722  -13.5165   21.1932 C   0  0  0  0  0  0
  -22.1662   -4.2158   21.0981 F   0  0  0  0  0  0
  -21.5619   -3.4544   25.7741 F   0  0  0  0  0  0
  -29.7492  -14.3796   20.2464 N   0  0  0  0  0  0
  -26.2786  -12.9634   20.3270 N   0  0  0  0  0  0
  -25.9379  -11.6693   20.5711 N   0  0  0  0  0  0
  -22.0363  -12.8152   22.0471 N   0  0  0  0  0  0
  -25.3914  -15.2048   20.4304 N   0  0  0  0  0  0
  -31.5014  -15.6609   20.2016 O   0  0  0  0  0  0
  -21.6654   -6.8905   21.4253 O   0  0  0  0  0  0
  -22.3401  -14.5454   20.6755 O   0  0  0  0  0  0
  -24.6926  -31.7908   23.1398 C   0  0  0  0  0  0
  -25.9484  -32.4420   23.7978 C   0  0  1  0  0  0
  -27.2299  -26.6029   20.2311 C   0  0  0  0  0  0
  -25.6009  -33.8239   24.1878 N   0  0  0  0  0  0
  -23.5207  -30.3869   21.4988 C   0  0  2  0  0  0
  -24.9810  -28.7049   20.1226 C   0  0  0  0  0  0
  -22.7803  -29.4265   22.4708 C   0  0  0  0  0  0
  -18.0346  -28.1459   22.8472 C   0  0  0  0  0  0
  -24.1477  -36.7097   23.2652 C   0  0  0  0  0  0
  -26.1046  -30.4938   21.4158 C   0  0  0  0  0  0
  -26.1721  -29.0438   20.7751 C   0  0  0  0  0  0
  -27.2755  -28.0246   20.7943 C   0  0  0  0  0  0
  -26.0028  -26.4976   19.5203 C   0  0  0  0  0  0
  -24.9428  -27.4586   19.4691 C   0  0  0  0  0  0
  -23.7805  -29.6711   20.1398 C   0  0  0  0  0  0
  -25.4137  -36.2862   24.0283 C   0  0  1  0  0  0
  -20.5987  -28.3821   23.1157 C   0  0  2  0  0  0
  -20.6807  -26.9471   22.5425 C   0  0  0  0  0  0
  -19.5772  -26.6416   21.5238 C   0  0  0  0  0  0
  -18.1951  -26.7995   22.1635 C   0  0  0  0  0  0
  -19.1612  -28.8973   23.2783 C   0  0  0  0  0  0
  -18.9530  -30.1553   23.8830 C   0  0  0  0  0  0
  -17.6515  -30.6635   24.0576 C   0  0  0  0  0  0
  -25.9129  -34.9258   23.4929 C   0  0  0  0  0  0
  -16.5405  -29.9122   23.6367 C   0  0  0  0  0  0
  -16.7322  -28.6548   23.0379 C   0  0  0  0  0  0
  -26.4616  -31.6468   25.0620 C   0  0  0  0  0  0
  -25.3648  -31.3852   26.1219 C   0  0  0  0  0  0
  -27.0551  -30.2793   24.6564 C   0  0  0  0  0  0
  -27.6059  -32.4316   25.7441 C   0  0  0  0  0  0
  -27.5546  -37.1706   24.8471 C   0  0  0  0  0  0
  -21.4446  -29.3026   22.3454 N   0  0  0  0  0  0
  -26.4232  -37.3656   23.9439 N   0  0  0  0  0  0
  -24.7980  -30.9269   22.0691 N   0  0  0  0  0  0
  -23.4212  -28.7898   23.3102 O   0  0  0  0  0  0
  -28.1774  -25.3368   20.3119 O   0  0  0  0  0  0
  -26.5784  -34.8866   22.4540 O   0  0  0  0  0  0
  -23.5932  -32.1013   23.6313 O   0  0  0  0  0  0
  -31.1452  -20.8747   20.9959 C   0  0  0  0  0  0
  -30.2894  -21.9981   20.7624 C   0  0  0  0  0  0
  -30.8740  -19.4717   20.8537 C   0  0  0  0  0  0
  -28.9327  -21.8932   20.3563 C   0  0  0  0  0  0
  -28.6926  -20.2704   20.2067 C   0  0  0  0  0  0
  -29.6227  -18.9330   20.4207 C   0  0  0  0  0  0
  -30.9033  -23.3726   20.9718 C   0  0  0  0  0  0
  -32.0250  -18.5504   21.2156 C   0  0  0  0  0  0
  -27.2910  -19.9125   19.7522 C   0  0  0  0  0  0
  -27.9743  -23.5445   20.1468 C   0  0  0  0  0  0
  -29.5000  -17.1689   20.3305 N   0  0  0  0  0  0
  -31.3928  -13.4723   19.1484 H   0  0  0  0  0  0
  -30.6162  -12.3712   20.2324 H   0  0  0  0  0  0
  -30.0382  -11.8477   17.8336 H   0  0  0  0  0  0
  -29.4802  -13.4848   17.5949 H   0  0  0  0  0  0
  -28.2163  -11.3160   19.2824 H   0  0  0  0  0  0
  -27.4719  -12.1682   17.9494 H   0  0  0  0  0  0
  -27.4346  -14.2153   19.2125 H   0  0  0  0  0  0
  -28.9044  -12.8576   21.5227 H   0  0  0  0  0  0
  -28.1455  -14.4265   21.6061 H   0  0  0  0  0  0
  -25.2786   -9.5687   22.4780 H   0  0  0  0  0  0
  -24.0008   -7.4641   22.7492 H   0  0  0  0  0  0
  -21.0866   -8.8807   19.8956 H   0  0  0  0  0  0
  -22.3752  -10.9680   19.6166 H   0  0  0  0  0  0
  -21.2013   -7.6157   23.9726 H   0  0  0  0  0  0
  -21.1470   -6.0529   25.9079 H   0  0  0  0  0  0
  -22.0598   -2.7622   23.2852 H   0  0  0  0  0  0
  -22.3983  -11.9836   22.4885 H   0  0  0  0  0  0
  -21.0966  -13.1162   22.2633 H   0  0  0  0  0  0
  -24.6204  -15.8538   20.5459 H   0  0  0  0  0  0
  -26.2397  -15.6482   20.1049 H   0  0  0  0  0  0
  -26.7561  -32.4908   23.0686 H   0  0  0  0  0  0
  -25.0087  -33.9235   24.9993 H   0  0  0  0  0  0
  -22.8492  -31.2238   21.2996 H   0  0  0  0  0  0
  -23.3775  -35.9386   23.3247 H   0  0  0  0  0  0
  -24.3518  -36.8814   22.2071 H   0  0  0  0  0  0
  -23.7187  -37.6245   23.6758 H   0  0  0  0  0  0
  -26.3123  -31.2106   20.6199 H   0  0  0  0  0  0
  -26.9532  -30.5742   22.0811 H   0  0  0  0  0  0
  -28.1675  -28.2973   21.3437 H   0  0  0  0  0  0
  -25.8180  -25.5585   19.0188 H   0  0  0  0  0  0
  -24.0462  -27.1904   18.9271 H   0  0  0  0  0  0
  -23.9582  -30.4226   19.3700 H   0  0  0  0  0  0
  -22.8831  -29.1402   19.8189 H   0  0  0  0  0  0
  -25.1341  -36.1573   25.0766 H   0  0  0  0  0  0
  -21.0071  -28.3450   24.1290 H   0  0  0  0  0  0
  -20.5680  -26.2447   23.3702 H   0  0  0  0  0  0
  -21.6666  -26.7393   22.1257 H   0  0  0  0  0  0
  -19.6918  -25.6303   21.1322 H   0  0  0  0  0  0
  -19.6717  -27.3186   20.6735 H   0  0  0  0  0  0
  -17.4236  -26.6758   21.4022 H   0  0  0  0  0  0
  -18.0298  -26.0151   22.9043 H   0  0  0  0  0  0
  -19.7999  -30.7394   24.2153 H   0  0  0  0  0  0
  -17.5071  -31.6307   24.5201 H   0  0  0  0  0  0
  -15.5411  -30.3021   23.7733 H   0  0  0  0  0  0
  -15.8717  -28.0853   22.7156 H   0  0  0  0  0  0
  -24.5875  -30.7115   25.7571 H   0  0  0  0  0  0
  -24.8773  -32.3107   26.4316 H   0  0  0  0  0  0
  -25.7814  -30.9272   27.0192 H   0  0  0  0  0  0
  -26.3290  -29.6399   24.1536 H   0  0  0  0  0  0
  -27.3949  -29.7249   25.5322 H   0  0  0  0  0  0
  -27.9281  -30.3903   24.0113 H   0  0  0  0  0  0
  -27.2623  -33.3731   26.1730 H   0  0  0  0  0  0
  -28.4044  -32.6673   25.0384 H   0  0  0  0  0  0
  -28.0512  -31.8592   26.5589 H   0  0  0  0  0  0
  -28.2558  -38.0013   24.7545 H   0  0  0  0  0  0
  -28.1050  -36.2551   24.6264 H   0  0  0  0  0  0
  -27.2264  -37.1310   25.8872 H   0  0  0  0  0  0
  -20.9797  -29.8623   21.6447 H   0  0  0  0  0  0
  -26.0040  -38.2679   24.1500 H   0  0  0  0  0  0
  -32.1410  -21.1253   21.3345 H   0  0  0  0  0  0
  -31.9899  -23.3268   20.9087 H   0  0  0  0  0  0
  -30.6429  -23.7614   21.9567 H   0  0  0  0  0  0
  -30.5802  -24.0838   20.2110 H   0  0  0  0  0  0
  -32.7868  -19.0672   21.8001 H   0  0  0  0  0  0
  -32.5020  -18.1701   20.3117 H   0  0  0  0  0  0
  -31.6899  -17.7159   21.8296 H   0  0  0  0  0  0
  -26.6087  -20.7556   19.8495 H   0  0  0  0  0  0
  -26.8905  -19.0873   20.3425 H   0  0  0  0  0  0
  -27.3093  -19.6053   18.7048 H   0  0  0  0  0  0
  -27.0749  -23.3640   20.7377 H   0  0  0  0  0  0
  -27.6206  -23.4578   19.1186 H   0  0  0  0  0  0
  -28.5211  -16.9255   20.2759 H   0  0  0  0  0  0
  1 25  1  0  0  0
  1 30  2  0  0  0
  1 81  1  0  0  0
  2  3  1  0  0  0
  2 25  1  0  0  0
  2 82  1  0  0  0
  2 83  1  0  0  0
  3  4  1  0  0  0
  3 84  1  0  0  0
  3 85  1  0  0  0
  4  5  1  0  0  0
  4 86  1  0  0  0
  4 87  1  0  0  0
  5  6  1  0  0  0
  5 26  1  0  0  0
  5 88  1  0  0  0
  6 25  1  0  0  0
  6 89  1  0  0  0
  6 90  1  0  0  0
  7  8  2  0  0  0
  7 26  1  0  0  0
  7 29  1  0  0  0
  8  9  1  0  0  0
  8 22  1  0  0  0
  9 10  1  0  0  0
  9 27  2  0  0  0
 10 11  2  0  0  0
 10 15  1  0  0  0
 11 12  1  0  0  0
 11 91  1  0  0  0
 12 13  2  0  0  0
 12 92  1  0  0  0
 13 14  1  0  0  0
 13 31  1  0  0  0
 14 15  2  0  0  0
 14 93  1  0  0  0
 15 94  1  0  0  0
 16 17  2  0  0  0
 16 21  1  0  0  0
 16 31  1  0  0  0
 17 18  1  0  0  0
 17 95  1  0  0  0
 18 19  2  0  0  0
 18 96  1  0  0  0
 19 20  1  0  0  0
 19 24  1  0  0  0
 20 21  2  0  0  0
 20 97  1  0  0  0
 21 23  1  0  0  0
 22 28  1  0  0  0
 22 32  2  0  0  0
 26 27  1  0  0  0
 28 98  1  0  0  0
 28 99  1  0  0  0
 29100  1  0  0  0
 29101  1  0  0  0
 33 34  1  0  0  0
 33 66  1  0  0  0
 33 70  2  0  0  0
 34 36  1  0  0  0
 34 59  1  0  0  0
 34102  1  0  0  0
 35 44  2  0  0  0
 35 45  1  0  0  0
 35 68  1  0  0  0
 36 56  1  0  0  0
 36103  1  0  0  0
 37 39  1  0  0  0
 37 47  1  0  0  0
 37 66  1  0  0  0
 37104  1  0  0  0
 38 43  2  0  0  0
 38 46  1  0  0  0
 38 47  1  0  0  0
 39 64  1  0  0  0
 39 67  2  0  0  0
 40 52  1  0  0  0
 40 53  2  0  0  0
 40 58  1  0  0  0
 41105  1  0  0  0
 41106  1  0  0  0
 41107  1  0  0  0
 41 48  1  0  0  0
 42 43  1  0  0  0
 42 66  1  0  0  0
 42108  1  0  0  0
 42109  1  0  0  0
 43 44  1  0  0  0
 44110  1  0  0  0
 45 46  2  0  0  0
 45111  1  0  0  0
 46112  1  0  0  0
 47113  1  0  0  0
 47114  1  0  0  0
 48 56  1  0  0  0
 48 65  1  0  0  0
 48115  1  0  0  0
 49 50  1  0  0  0
 49 53  1  0  0  0
 49 64  1  0  0  0
 49116  1  0  0  0
 50 51  1  0  0  0
 50117  1  0  0  0
 50118  1  0  0  0
 51 52  1  0  0  0
 51119  1  0  0  0
 51120  1  0  0  0
 52121  1  0  0  0
 52122  1  0  0  0
 53 54  1  0  0  0
 54 55  2  0  0  0
 54123  1  0  0  0
 55 57  1  0  0  0
 55124  1  0  0  0
 56 69  2  0  0  0
 57 58  2  0  0  0
 57125  1  0  0  0
 58126  1  0  0  0
 59 60  1  0  0  0
 59 61  1  0  0  0
 59 62  1  0  0  0
 60127  1  0  0  0
 60128  1  0  0  0
 60129  1  0  0  0
 61130  1  0  0  0
 61131  1  0  0  0
 61132  1  0  0  0
 62133  1  0  0  0
 62134  1  0  0  0
 62135  1  0  0  0
 63 65  1  0  0  0
 63136  1  0  0  0
 63137  1  0  0  0
 63138  1  0  0  0
 64139  1  0  0  0
 65140  1  0  0  0
 68 80  1  0  0  0
 71 72  2  0  0  0
 71 73  1  0  0  0
 71141  1  0  0  0
 72 74  1  0  0  0
 72 77  1  0  0  0
 73 76  2  0  0  0
 73 78  1  0  0  0
 74 75  2  0  0  0
 74 80  1  0  0  0
 75 76  1  0  0  0
 75 79  1  0  0  0
 76 81  1  0  0  0
 77142  1  0  0  0
 77143  1  0  0  0
 77144  1  0  0  0
 78145  1  0  0  0
 78146  1  0  0  0
 78147  1  0  0  0
 79148  1  0  0  0
 79149  1  0  0  0
 79150  1  0  0  0
 80151  1  0  0  0
 80152  1  0  0  0
 81153  1  0  0  0
M  ISO  4   1 100  68 101  80 101  81 100
M  END
> <chiral flag>
0

> <version>
0

> <s_m_source_file>
/data/baiqing/PycharmProjects/Reinvent-master-3.2/result/LINK_invent/BTK/process_docking_weight1_custom_sum_contain_oxygen_bond_distance_aromatic_linkinvent_7_9_3/rearranged_h_0016.sdf

> <i_m_source_file_index>
5

> <r_mmod_Potential_Energy-OPLS-2005>
2802.1328125

> <r_mmod_Stretch_Energy-OPLS-2005>
1277.92749023438

> <r_mmod_Bend_Energy-OPLS-2005>
643.240356445312

> <r_mmod_Torsional_Energy-OPLS-2005>
223.104019165039

> <r_mmod_Improper_Torsional_Energy-OPLS-2005>
4.76089096069336

> <r_mmod_Van_der_Waal_Energy-OPLS-2005>
132.802398681641

> <r_mmod_Electrostatic_Energy-OPLS-2005>
-385.983306884766

> <r_mmod_Solvation_Energy-OPLS-2005>
-206.680892944336

> <b_mmod_Minimization_Converged-OPLS-2005>
0

> <r_mmod_RMS_Derivative-OPLS-2005>
3.52881741523743

$$$$
5
                    3D
 Structure written by MMmdl.
174182  0  0  1  0            999 V2000
  -30.6666  -14.5285   20.5299 C   0  0  0  0  0  0
  -30.4351  -12.3172   19.4510 C   0  0  0  0  0  0
  -29.5133  -12.4742   18.2219 C   0  0  0  0  0  0
  -28.0285  -12.3563   18.6253 C   0  0  0  0  0  0
  -27.6646  -13.2076   19.8727 C   0  0  2  0  0  0
  -28.7051  -13.0105   20.9993 C   0  0  0  0  0  0
  -25.2605  -13.8160   20.5686 C   0  0  0  0  0  0
  -24.1858  -13.0433   20.9172 C   0  0  0  0  0  0
  -24.6407  -11.6908   20.8730 C   0  0  0  0  0  0
  -23.9055  -10.4308   21.0394 C   0  0  0  0  0  0
  -24.3614   -9.4234   21.9177 C   0  0  0  0  0  0
  -23.6294   -8.2265   22.0753 C   0  0  0  0  0  0
  -22.4258   -8.0302   21.3560 C   0  0  0  0  0  0
  -21.9899   -9.0258   20.4647 C   0  0  0  0  0  0
  -22.7233  -10.2140   20.3048 C   0  0  0  0  0  0
  -21.6850   -6.0734   22.5285 C   0  0  0  0  0  0
  -21.4011   -6.5627   23.8220 C   0  0  0  0  0  0
  -21.3678   -5.6778   24.9175 C   0  0  0  0  0  0
  -21.6060   -4.3040   24.7221 C   0  0  0  0  0  0
  -21.8825   -3.8138   23.4340 C   0  0  0  0  0  0
  -21.9193   -4.6961   22.3402 C   0  0  0  0  0  0
  -22.7886  -13.5248   21.1833 C   0  0  0  0  0  0
  -22.1650   -4.2155   21.0981 F   0  0  0  0  0  0
  -21.5649   -3.4535   25.7749 F   0  0  0  0  0  0
  -30.0366  -13.3210   20.4516 N   0  0  0  0  0  0
  -26.3043  -12.9328   20.3338 N   0  0  0  0  0  0
  -25.9331  -11.6487   20.5728 N   0  0  0  0  0  0
  -22.0506  -12.8262   22.0395 N   0  0  0  0  0  0
  -25.4300  -15.1879   20.4149 N   0  0  0  0  0  0
  -31.8041  -14.7184   20.0909 O   0  0  0  0  0  0
  -21.6644   -6.8876   21.4251 O   0  0  0  0  0  0
  -22.3584  -14.5543   20.6660 O   0  0  0  0  0  0
  -24.6158  -31.8676   23.2086 C   0  0  0  0  0  0
  -25.9043  -32.4822   23.8390 C   0  0  1  0  0  0
  -27.2291  -27.4224   20.1103 C   0  0  0  0  0  0
  -25.5895  -33.8618   24.2323 N   0  0  0  0  0  0
  -23.4043  -30.4911   21.5484 C   0  0  2  0  0  0
  -24.8500  -28.9563   20.1133 C   0  0  0  0  0  0
  -22.7419  -29.4665   22.4973 C   0  0  0  0  0  0
  -18.0278  -28.1383   22.8490 C   0  0  0  0  0  0
  -24.1486  -36.7320   23.2635 C   0  0  0  0  0  0
  -25.9327  -30.8323   21.3606 C   0  0  0  0  0  0
  -26.0110  -29.4660   20.7082 C   0  0  0  0  0  0
  -27.2060  -28.7089   20.6984 C   0  0  0  0  0  0
  -26.0518  -26.9319   19.5033 C   0  0  0  0  0  0
  -24.8659  -27.6895   19.5055 C   0  0  0  0  0  0
  -23.6128  -29.8235   20.1631 C   0  0  0  0  0  0
  -25.4104  -36.3113   24.0340 C   0  0  1  0  0  0
  -20.5871  -28.3679   23.1315 C   0  0  2  0  0  0
  -20.6772  -26.9413   22.5419 C   0  0  0  0  0  0
  -19.5749  -26.6389   21.5218 C   0  0  0  0  0  0
  -18.1925  -26.7929   22.1623 C   0  0  0  0  0  0
  -19.1525  -28.8850   23.2901 C   0  0  0  0  0  0
  -18.9449  -30.1453   23.8920 C   0  0  0  0  0  0
  -17.6449  -30.6587   24.0572 C   0  0  0  0  0  0
  -25.9035  -34.9476   23.5131 C   0  0  0  0  0  0
  -16.5345  -29.9088   23.6322 C   0  0  0  0  0  0
  -16.7266  -28.6506   23.0342 C   0  0  0  0  0  0
  -26.4463  -31.6603   25.0725 C   0  0  0  0  0  0
  -25.3732  -31.3710   26.1477 C   0  0  0  0  0  0
  -27.0292  -30.3047   24.6101 C   0  0  0  0  0  0
  -27.6048  -32.4319   25.7484 C   0  0  0  0  0  0
  -27.5586  -37.1809   24.8460 C   0  0  0  0  0  0
  -21.4148  -29.3042   22.3717 N   0  0  0  0  0  0
  -26.4292  -37.3799   23.9414 N   0  0  0  0  0  0
  -24.6693  -31.0777   22.0982 N   0  0  0  0  0  0
  -23.4186  -28.8207   23.3017 O   0  0  0  0  0  0
  -28.3807  -26.6602   20.1477 O   0  0  0  0  0  0
  -26.5593  -34.8926   22.4690 O   0  0  0  0  0  0
  -23.5353  -32.1423   23.7489 O   0  0  0  0  0  0
  -29.5555  -17.8469   21.6811 C   0  0  0  0  0  0
  -29.2842  -19.2147   21.4409 C   0  0  0  0  0  0
  -29.6922  -18.8505   19.0632 C   0  0  0  0  0  0
  -29.3159  -19.7346   20.1188 C   0  0  0  0  0  0
  -29.9041  -17.4549   19.3087 C   0  0  0  0  0  0
  -29.8472  -16.9398   20.6394 C   0  0  0  0  0  0
  -28.9162  -20.0865   22.6346 C   0  0  0  0  0  0
  -29.8107  -19.3878   17.6376 C   0  0  0  0  0  0
  -30.1061  -16.5155   18.1225 C   0  0  0  0  0  0
  -29.9423  -24.4193   16.6647 C   0  0  0  0  0  0
  -30.8648  -24.4558   19.5294 C   0  0  0  0  0  0
  -28.8164  -21.1793   19.8214 C   0  0  0  0  0  0
  -29.8037  -23.2188   17.6237 C   0  0  0  0  0  0
  -28.3090  -24.2599   19.4237 C   0  0  0  0  0  0
  -28.2155  -25.2916   20.5820 C   0  0  0  0  0  0
  -29.6813  -23.5336   19.1507 C   0  0  2  0  0  0
  -29.8989  -15.5411   20.9992 N   0  0  0  0  0  0
  -29.8476  -22.2523   19.9324 N   0  3  0  0  0  0
  -31.4824  -12.4171   19.1598 H   0  0  0  0  0  0
  -30.3377  -11.3138   19.8693 H   0  0  0  0  0  0
  -29.7562  -11.7158   17.4763 H   0  0  0  0  0  0
  -29.6995  -13.4297   17.7367 H   0  0  0  0  0  0
  -27.8402  -11.3026   18.8346 H   0  0  0  0  0  0
  -27.3847  -12.6185   17.7861 H   0  0  0  0  0  0
  -27.6999  -14.2521   19.5614 H   0  0  0  0  0  0
  -28.6884  -11.9817   21.3622 H   0  0  0  0  0  0
  -28.4612  -13.6276   21.8645 H   0  0  0  0  0  0
  -25.2760   -9.5718   22.4750 H   0  0  0  0  0  0
  -24.0028   -7.4641   22.7457 H   0  0  0  0  0  0
  -21.0841   -8.8751   19.8939 H   0  0  0  0  0  0
  -22.3674  -10.9666   19.6152 H   0  0  0  0  0  0
  -21.1980   -7.6129   23.9735 H   0  0  0  0  0  0
  -21.1503   -6.0494   25.9086 H   0  0  0  0  0  0
  -22.0582   -2.7602   23.2833 H   0  0  0  0  0  0
  -22.4089  -11.9922   22.4796 H   0  0  0  0  0  0
  -21.1123  -13.1318   22.2567 H   0  0  0  0  0  0
  -24.6617  -15.8401   20.5349 H   0  0  0  0  0  0
  -26.2867  -15.6390   20.1197 H   0  0  0  0  0  0
  -26.7119  -32.5531   23.1167 H   0  0  0  0  0  0
  -25.0063  -33.9777   25.0482 H   0  0  0  0  0  0
  -22.6941  -31.3080   21.4084 H   0  0  0  0  0  0
  -23.3749  -35.9651   23.3284 H   0  0  0  0  0  0
  -24.3592  -36.8949   22.2053 H   0  0  0  0  0  0
  -23.7234  -37.6521   23.6656 H   0  0  0  0  0  0
  -26.0437  -31.5969   20.5907 H   0  0  0  0  0  0
  -26.8217  -30.8881   21.9770 H   0  0  0  0  0  0
  -28.1007  -29.0946   21.1678 H   0  0  0  0  0  0
  -26.0390  -25.9606   19.0319 H   0  0  0  0  0  0
  -23.9735  -27.2910   19.0431 H   0  0  0  0  0  0
  -23.7225  -30.5967   19.4020 H   0  0  0  0  0  0
  -22.7370  -29.2433   19.8675 H   0  0  0  0  0  0
  -25.1276  -36.1976   25.0835 H   0  0  0  0  0  0
  -20.9965  -28.3241   24.1434 H   0  0  0  0  0  0
  -20.5682  -26.2284   23.3605 H   0  0  0  0  0  0
  -21.6640  -26.7456   22.1203 H   0  0  0  0  0  0
  -19.6905  -25.6302   21.1238 H   0  0  0  0  0  0
  -19.6683  -27.3208   20.6755 H   0  0  0  0  0  0
  -17.4195  -26.6688   21.4022 H   0  0  0  0  0  0
  -18.0316  -26.0069   22.9017 H   0  0  0  0  0  0
  -19.7929  -30.7262   24.2296 H   0  0  0  0  0  0
  -17.5009  -31.6271   24.5169 H   0  0  0  0  0  0
  -15.5349  -30.2999   23.7639 H   0  0  0  0  0  0
  -15.8664  -28.0840   22.7039 H   0  0  0  0  0  0
  -24.5911  -30.7044   25.7819 H   0  0  0  0  0  0
  -24.8915  -32.2865   26.4928 H   0  0  0  0  0  0
  -25.8090  -30.8884   27.0238 H   0  0  0  0  0  0
  -26.2834  -29.6815   24.1150 H   0  0  0  0  0  0
  -27.4056  -29.7274   25.4560 H   0  0  0  0  0  0
  -27.8674  -30.4366   23.9255 H   0  0  0  0  0  0
  -27.2677  -33.3618   26.2081 H   0  0  0  0  0  0
  -28.3851  -32.6879   25.0303 H   0  0  0  0  0  0
  -28.0725  -31.8429   26.5389 H   0  0  0  0  0  0
  -28.2588  -38.0122   24.7531 H   0  0  0  0  0  0
  -28.1096  -36.2656   24.6246 H   0  0  0  0  0  0
  -27.2312  -37.1413   25.8864 H   0  0  0  0  0  0
  -20.9308  -29.8770   21.6949 H   0  0  0  0  0  0
  -26.0179  -38.2876   24.1420 H   0  0  0  0  0  0
  -29.4925  -17.4730   22.6926 H   0  0  0  0  0  0
  -29.1940  -19.6090   23.5753 H   0  0  0  0  0  0
  -27.8408  -20.2659   22.6659 H   0  0  0  0  0  0
  -29.4263  -21.0485   22.6044 H   0  0  0  0  0  0
  -30.0938  -20.4342   17.6173 H   0  0  0  0  0  0
  -28.8625  -19.2802   17.1083 H   0  0  0  0  0  0
  -30.5922  -18.8801   17.0723 H   0  0  0  0  0  0
  -31.1691  -16.3530   17.9395 H   0  0  0  0  0  0
  -29.6488  -16.8781   17.2048 H   0  0  0  0  0  0
  -29.6234  -15.5597   18.2974 H   0  0  0  0  0  0
  -30.0396  -24.0700   15.6369 H   0  0  0  0  0  0
  -30.8288  -25.0161   16.8750 H   0  0  0  0  0  0
  -29.0811  -25.0849   16.6868 H   0  0  0  0  0  0
  -30.7404  -25.4598   19.1231 H   0  0  0  0  0  0
  -31.8136  -24.0694   19.1551 H   0  0  0  0  0  0
  -30.9762  -24.5707   20.6069 H   0  0  0  0  0  0
  -27.9941  -21.4178   20.4952 H   0  0  0  0  0  0
  -28.3440  -21.1897   18.8416 H   0  0  0  0  0  0
  -30.6788  -22.5914   17.4541 H   0  0  0  0  0  0
  -28.9469  -22.6375   17.2862 H   0  0  0  0  0  0
  -27.9952  -24.7960   18.5315 H   0  0  0  0  0  0
  -27.5186  -23.5217   19.5517 H   0  0  0  0  0  0
  -28.9436  -25.0726   21.3617 H   0  0  0  0  0  0
  -27.2561  -25.1665   21.0882 H   0  0  0  0  0  0
  -29.1203  -15.2277   21.5576 H   0  0  0  0  0  0
  -30.7241  -21.8415   19.6556 H   0  0  0  0  0  0
  -29.9395  -22.4777   20.9101 H   0  0  0  0  0  0
  1 25  1  0  0  0
  1 30  2  0  0  0
  1 87  1  0  0  0
  2  3  1  0  0  0
  2 25  1  0  0  0
  2 89  1  0  0  0
  2 90  1  0  0  0
  3  4  1  0  0  0
  3 91  1  0  0  0
  3 92  1  0  0  0
  4  5  1  0  0  0
  4 93  1  0  0  0
  4 94  1  0  0  0
  5  6  1  0  0  0
  5 26  1  0  0  0
  5 95  1  0  0  0
  6 25  1  0  0  0
  6 96  1  0  0  0
  6 97  1  0  0  0
  7  8  2  0  0  0
  7 26  1  0  0  0
  7 29  1  0  0  0
  8  9  1  0  0  0
  8 22  1  0  0  0
  9 10  1  0  0  0
  9 27  2  0  0  0
 10 11  2  0  0  0
 10 15  1  0  0  0
 11 12  1  0  0  0
 11 98  1  0  0  0
 12 13  2  0  0  0
 12 99  1  0  0  0
 13 14  1  0  0  0
 13 31  1  0  0  0
 14 15  2  0  0  0
 14100  1  0  0  0
 15101  1  0  0  0
 16 17  2  0  0  0
 16 21  1  0  0  0
 16 31  1  0  0  0
 17 18  1  0  0  0
 17102  1  0  0  0
 18 19  2  0  0  0
 18103  1  0  0  0
 19 20  1  0  0  0
 19 24  1  0  0  0
 20 21  2  0  0  0
 20104  1  0  0  0
 21 23  1  0  0  0
 22 28  1  0  0  0
 22 32  2  0  0  0
 26 27  1  0  0  0
 28105  1  0  0  0
 28106  1  0  0  0
 29107  1  0  0  0
 29108  1  0  0  0
 33 34  1  0  0  0
 33 66  1  0  0  0
 33 70  2  0  0  0
 34 36  1  0  0  0
 34 59  1  0  0  0
 34109  1  0  0  0
 35 44  2  0  0  0
 35 45  1  0  0  0
 35 68  1  0  0  0
 36 56  1  0  0  0
 36110  1  0  0  0
 37 39  1  0  0  0
 37 47  1  0  0  0
 37 66  1  0  0  0
 37111  1  0  0  0
 38 43  2  0  0  0
 38 46  1  0  0  0
 38 47  1  0  0  0
 39 64  1  0  0  0
 39 67  2  0  0  0
 40 52  1  0  0  0
 40 53  2  0  0  0
 40 58  1  0  0  0
 41112  1  0  0  0
 41113  1  0  0  0
 41114  1  0  0  0
 41 48  1  0  0  0
 42 43  1  0  0  0
 42 66  1  0  0  0
 42115  1  0  0  0
 42116  1  0  0  0
 43 44  1  0  0  0
 44117  1  0  0  0
 45 46  2  0  0  0
 45118  1  0  0  0
 46119  1  0  0  0
 47120  1  0  0  0
 47121  1  0  0  0
 48 56  1  0  0  0
 48 65  1  0  0  0
 48122  1  0  0  0
 49 50  1  0  0  0
 49 53  1  0  0  0
 49 64  1  0  0  0
 49123  1  0  0  0
 50 51  1  0  0  0
 50124  1  0  0  0
 50125  1  0  0  0
 51 52  1  0  0  0
 51126  1  0  0  0
 51127  1  0  0  0
 52128  1  0  0  0
 52129  1  0  0  0
 53 54  1  0  0  0
 54 55  2  0  0  0
 54130  1  0  0  0
 55 57  1  0  0  0
 55131  1  0  0  0
 56 69  2  0  0  0
 57 58  2  0  0  0
 57132  1  0  0  0
 58133  1  0  0  0
 59 60  1  0  0  0
 59 61  1  0  0  0
 59 62  1  0  0  0
 60134  1  0  0  0
 60135  1  0  0  0
 60136  1  0  0  0
 61137  1  0  0  0
 61138  1  0  0  0
 61139  1  0  0  0
 62140  1  0  0  0
 62141  1  0  0  0
 62142  1  0  0  0
 63 65  1  0  0  0
 63143  1  0  0  0
 63144  1  0  0  0
 63145  1  0  0  0
 64146  1  0  0  0
 65147  1  0  0  0
 68 85  1  0  0  0
 71 72  2  0  0  0
 71 76  1  0  0  0
 71148  1  0  0  0
 72 74  1  0  0  0
 72 77  1  0  0  0
 73 74  2  0  0  0
 73 75  1  0  0  0
 73 78  1  0  0  0
 74 82  1  0  0  0
 75 76  2  0  0  0
 75 79  1  0  0  0
 76 87  1  0  0  0
 77149  1  0  0  0
 77150  1  0  0  0
 77151  1  0  0  0
 78152  1  0  0  0
 78153  1  0  0  0
 78154  1  0  0  0
 79155  1  0  0  0
 79156  1  0  0  0
 79157  1  0  0  0
 80 83  1  0  0  0
 80158  1  0  0  0
 80159  1  0  0  0
 80160  1  0  0  0
 81161  1  0  0  0
 81162  1  0  0  0
 81163  1  0  0  0
 81 86  1  0  0  0
 82 88  1  0  0  0
 82164  1  0  0  0
 82165  1  0  0  0
 83 86  1  0  0  0
 83166  1  0  0  0
 83167  1  0  0  0
 84 85  1  0  0  0
 84 86  1  0  0  0
 84168  1  0  0  0
 84169  1  0  0  0
 85170  1  0  0  0
 85171  1  0  0  0
 86 88  1  0  0  0
 87172  1  0  0  0
 88173  1  0  0  0
 88174  1  0  0  0
M  CHG  1  88   1
M  ISO  4   1 100  68 101  85 101  87 100
M  END
> <chiral flag>
0

> <version>
0

> <s_m_source_file>
/data/baiqing/PycharmProjects/Reinvent-master-3.2/result/LINK_invent/BTK/process_docking_weight1_custom_sum_contain_oxygen_bond_distance_aromatic_linkinvent_7_9_3/rearranged_h_0016.sdf

> <i_m_source_file_index>
6

> <r_mmod_Potential_Energy-OPLS-2005>
-107.322227478027

> <r_mmod_Stretch_Energy-OPLS-2005>
54.7113418579102

> <r_mmod_Bend_Energy-OPLS-2005>
124.403053283691

> <r_mmod_Torsional_Energy-OPLS-2005>
281.040130615234

> <r_mmod_Improper_Torsional_Energy-OPLS-2005>
4.9957275390625

> <r_mmod_Van_der_Waal_Energy-OPLS-2005>
165.640213012695

> <r_mmod_Electrostatic_Energy-OPLS-2005>
-317.030975341797

> <r_mmod_Solvation_Energy-OPLS-2005>
-440.291015625

> <b_mmod_Minimization_Converged-OPLS-2005>
0

> <r_mmod_RMS_Derivative-OPLS-2005>
2.85665702819824

$$$$
6
                    3D
 Structure written by MMmdl.
150158  0  0  1  0            999 V2000
  -30.2878  -15.7194   20.3462 C   0  0  0  0  0  0
  -30.4149  -13.1583   19.5148 C   0  0  0  0  0  0
  -29.5462  -12.6686   18.3200 C   0  0  0  0  0  0
  -28.1310  -12.2917   18.7807 C   0  0  0  0  0  0
  -27.5902  -13.3131   19.8052 C   0  0  2  0  0  0
  -28.6067  -13.6981   20.9073 C   0  0  0  0  0  0
  -25.2322  -13.8292   20.5828 C   0  0  0  0  0  0
  -24.1710  -13.0433   20.9297 C   0  0  0  0  0  0
  -24.6420  -11.6948   20.8774 C   0  0  0  0  0  0
  -23.9124  -10.4293   21.0399 C   0  0  0  0  0  0
  -24.3656   -9.4204   21.9179 C   0  0  0  0  0  0
  -23.6315   -8.2247   22.0751 C   0  0  0  0  0  0
  -22.4297   -8.0290   21.3541 C   0  0  0  0  0  0
  -21.9945   -9.0267   20.4642 C   0  0  0  0  0  0
  -22.7290  -10.2138   20.3050 C   0  0  0  0  0  0
  -21.6859   -6.0746   22.5279 C   0  0  0  0  0  0
  -21.4017   -6.5645   23.8212 C   0  0  0  0  0  0
  -21.3657   -5.6795   24.9171 C   0  0  0  0  0  0
  -21.6044   -4.3057   24.7220 C   0  0  0  0  0  0
  -21.8819   -3.8153   23.4340 C   0  0  0  0  0  0
  -21.9194   -4.6971   22.3398 C   0  0  0  0  0  0
  -22.7722  -13.5166   21.1924 C   0  0  0  0  0  0
  -22.1665   -4.2157   21.0976 F   0  0  0  0  0  0
  -21.5625   -3.4541   25.7731 F   0  0  0  0  0  0
  -29.7511  -14.3531   20.2219 N   0  0  0  0  0  0
  -26.2770  -12.9629   20.3260 N   0  0  0  0  0  0
  -25.9369  -11.6695   20.5705 N   0  0  0  0  0  0
  -22.0389  -12.8140   22.0474 N   0  0  0  0  0  0
  -25.3919  -15.2035   20.4291 N   0  0  0  0  0  0
  -31.5294  -15.6017   20.2667 O   0  0  0  0  0  0
  -21.6650   -6.8892   21.4242 O   0  0  0  0  0  0
  -22.3398  -14.5463   20.6757 O   0  0  0  0  0  0
  -24.6906  -31.7927   23.1452 C   0  0  0  0  0  0
  -25.9448  -32.4435   23.8027 C   0  0  1  0  0  0
  -27.2270  -26.6324   20.2322 C   0  0  0  0  0  0
  -25.6003  -33.8263   24.1913 N   0  0  0  0  0  0
  -23.5195  -30.3914   21.5013 C   0  0  2  0  0  0
  -24.9756  -28.7140   20.1286 C   0  0  0  0  0  0
  -22.7800  -29.4275   22.4693 C   0  0  0  0  0  0
  -18.0344  -28.1424   22.8451 C   0  0  0  0  0  0
  -24.1491  -36.7139   23.2657 C   0  0  0  0  0  0
  -26.1039  -30.5041   21.4183 C   0  0  0  0  0  0
  -26.1682  -29.0592   20.7754 C   0  0  0  0  0  0
  -27.2793  -28.0515   20.7844 C   0  0  0  0  0  0
  -25.9962  -26.5106   19.5346 C   0  0  0  0  0  0
  -24.9321  -27.4651   19.4844 C   0  0  0  0  0  0
  -23.7782  -29.6809   20.1412 C   0  0  0  0  0  0
  -25.4142  -36.2876   24.0280 C   0  0  1  0  0  0
  -20.5984  -28.3786   23.1133 C   0  0  2  0  0  0
  -20.6809  -26.9439   22.5406 C   0  0  0  0  0  0
  -19.5786  -26.6368   21.5220 C   0  0  0  0  0  0
  -18.1966  -26.7951   22.1617 C   0  0  0  0  0  0
  -19.1612  -28.8931   23.2772 C   0  0  0  0  0  0
  -18.9517  -30.1514   23.8818 C   0  0  0  0  0  0
  -17.6506  -30.6607   24.0548 C   0  0  0  0  0  0
  -25.9130  -34.9270   23.4935 C   0  0  0  0  0  0
  -16.5394  -29.9089   23.6353 C   0  0  0  0  0  0
  -16.7324  -28.6511   23.0368 C   0  0  0  0  0  0
  -26.4605  -31.6491   25.0675 C   0  0  0  0  0  0
  -25.3652  -31.3825   26.1272 C   0  0  0  0  0  0
  -27.0546  -30.2824   24.6619 C   0  0  0  0  0  0
  -27.6041  -32.4367   25.7495 C   0  0  0  0  0  0
  -27.5556  -37.1724   24.8470 C   0  0  0  0  0  0
  -21.4439  -29.3022   22.3447 N   0  0  0  0  0  0
  -26.4260  -37.3645   23.9414 N   0  0  0  0  0  0
  -24.7959  -30.9309   22.0741 N   0  0  0  0  0  0
  -23.4214  -28.7881   23.3065 O   0  0  0  0  0  0
  -28.2128  -25.4074   20.2110 O   0  0  0  0  0  0
  -26.5782  -34.8860   22.4560 O   0  0  0  0  0  0
  -23.5909  -32.1027   23.6359 O   0  0  0  0  0  0
  -30.3569  -18.5879   22.0618 C   0  0  0  0  0  0
  -30.4754  -19.9154   22.5437 C   0  0  0  0  0  0
  -29.6965  -18.6294   20.8406 C   0  0  0  0  0  0
  -30.8935  -17.4225   22.8684 C   0  0  0  0  0  0
  -31.1635  -20.3808   23.7980 C   0  0  0  0  0  0
  -28.6921  -21.8052   19.9698 C   0  0  0  0  0  0
  -28.1714  -23.6379   20.5436 C   0  0  0  0  0  0
  -29.8904  -20.8173   21.8039 N   0  0  0  0  0  0
  -29.3032  -20.2757   20.7192 N   0  0  0  0  0  0
  -29.5774  -17.1399   20.2905 N   0  0  0  0  0  0
  -31.3936  -13.4412   19.1251 H   0  0  0  0  0  0
  -30.6139  -12.3437   20.2127 H   0  0  0  0  0  0
  -30.0204  -11.8209   17.8236 H   0  0  0  0  0  0
  -29.4827  -13.4641   17.5763 H   0  0  0  0  0  0
  -28.1824  -11.3065   19.2458 H   0  0  0  0  0  0
  -27.4572  -12.1958   17.9288 H   0  0  0  0  0  0
  -27.4335  -14.2156   19.2127 H   0  0  0  0  0  0
  -28.9009  -12.8402   21.5131 H   0  0  0  0  0  0
  -28.1572  -14.4170   21.5942 H   0  0  0  0  0  0
  -25.2795   -9.5681   22.4764 H   0  0  0  0  0  0
  -24.0013   -7.4644   22.7485 H   0  0  0  0  0  0
  -21.0869   -8.8802   19.8952 H   0  0  0  0  0  0
  -22.3748  -10.9683   19.6166 H   0  0  0  0  0  0
  -21.2015   -7.6154   23.9717 H   0  0  0  0  0  0
  -21.1476   -6.0523   25.9072 H   0  0  0  0  0  0
  -22.0600   -2.7616   23.2837 H   0  0  0  0  0  0
  -22.4033  -11.9811   22.4856 H   0  0  0  0  0  0
  -21.0995  -13.1132   22.2680 H   0  0  0  0  0  0
  -24.6236  -15.8539   20.5528 H   0  0  0  0  0  0
  -26.2412  -15.6499   20.1109 H   0  0  0  0  0  0
  -26.7535  -32.4894   23.0744 H   0  0  0  0  0  0
  -25.0059  -33.9290   25.0007 H   0  0  0  0  0  0
  -22.8487  -31.2304   21.3041 H   0  0  0  0  0  0
  -23.3774  -35.9448   23.3268 H   0  0  0  0  0  0
  -24.3558  -36.8857   22.2082 H   0  0  0  0  0  0
  -23.7230  -37.6296   23.6772 H   0  0  0  0  0  0
  -26.3118  -31.2216   20.6237 H   0  0  0  0  0  0
  -26.9538  -30.5780   22.0845 H   0  0  0  0  0  0
  -28.1863  -28.3340   21.3001 H   0  0  0  0  0  0
  -25.8230  -25.5728   19.0256 H   0  0  0  0  0  0
  -24.0338  -27.1912   18.9483 H   0  0  0  0  0  0
  -23.9654  -30.4372   19.3780 H   0  0  0  0  0  0
  -22.8810  -29.1535   19.8125 H   0  0  0  0  0  0
  -25.1353  -36.1626   25.0771 H   0  0  0  0  0  0
  -21.0064  -28.3411   24.1261 H   0  0  0  0  0  0
  -20.5674  -26.2405   23.3667 H   0  0  0  0  0  0
  -21.6667  -26.7376   22.1219 H   0  0  0  0  0  0
  -19.6942  -25.6261   21.1295 H   0  0  0  0  0  0
  -19.6733  -27.3139   20.6718 H   0  0  0  0  0  0
  -17.4237  -26.6698   21.4020 H   0  0  0  0  0  0
  -18.0349  -26.0115   22.9032 H   0  0  0  0  0  0
  -19.7993  -30.7352   24.2149 H   0  0  0  0  0  0
  -17.5058  -31.6278   24.5167 H   0  0  0  0  0  0
  -15.5395  -30.2968   23.7721 H   0  0  0  0  0  0
  -15.8722  -28.0808   22.7124 H   0  0  0  0  0  0
  -24.5865  -30.7150   25.7563 H   0  0  0  0  0  0
  -24.8811  -32.3052   26.4484 H   0  0  0  0  0  0
  -25.7807  -30.9122   27.0192 H   0  0  0  0  0  0
  -26.3274  -29.6418   24.1622 H   0  0  0  0  0  0
  -27.3967  -29.7296   25.5380 H   0  0  0  0  0  0
  -27.9259  -30.3941   24.0161 H   0  0  0  0  0  0
  -27.2576  -33.3750   26.1838 H   0  0  0  0  0  0
  -28.3966  -32.6799   25.0405 H   0  0  0  0  0  0
  -28.0585  -31.8656   26.5600 H   0  0  0  0  0  0
  -28.2540  -38.0048   24.7513 H   0  0  0  0  0  0
  -28.1079  -36.2570   24.6297 H   0  0  0  0  0  0
  -27.2274  -37.1364   25.8872 H   0  0  0  0  0  0
  -20.9754  -29.8677   21.6502 H   0  0  0  0  0  0
  -26.0083  -38.2689   24.1437 H   0  0  0  0  0  0
  -31.1340  -17.7010   23.8940 H   0  0  0  0  0  0
  -31.8146  -17.0210   22.4475 H   0  0  0  0  0  0
  -30.1722  -16.6109   22.9602 H   0  0  0  0  0  0
  -32.1662  -19.9597   23.8738 H   0  0  0  0  0  0
  -30.6080  -20.0782   24.6859 H   0  0  0  0  0  0
  -31.2685  -21.4661   23.8299 H   0  0  0  0  0  0
  -29.4668  -22.0162   19.2330 H   0  0  0  0  0  0
  -27.8600  -21.4765   19.3477 H   0  0  0  0  0  0
  -28.6559  -23.6642   21.5196 H   0  0  0  0  0  0
  -27.1210  -23.5045   20.8028 H   0  0  0  0  0  0
  -28.6610  -17.0071   19.8893 H   0  0  0  0  0  0
  1 25  1  0  0  0
  1 30  2  0  0  0
  1 80  1  0  0  0
  2  3  1  0  0  0
  2 25  1  0  0  0
  2 81  1  0  0  0
  2 82  1  0  0  0
  3  4  1  0  0  0
  3 83  1  0  0  0
  3 84  1  0  0  0
  4  5  1  0  0  0
  4 85  1  0  0  0
  4 86  1  0  0  0
  5  6  1  0  0  0
  5 26  1  0  0  0
  5 87  1  0  0  0
  6 25  1  0  0  0
  6 88  1  0  0  0
  6 89  1  0  0  0
  7  8  2  0  0  0
  7 26  1  0  0  0
  7 29  1  0  0  0
  8  9  1  0  0  0
  8 22  1  0  0  0
  9 10  1  0  0  0
  9 27  2  0  0  0
 10 11  2  0  0  0
 10 15  1  0  0  0
 11 12  1  0  0  0
 11 90  1  0  0  0
 12 13  2  0  0  0
 12 91  1  0  0  0
 13 14  1  0  0  0
 13 31  1  0  0  0
 14 15  2  0  0  0
 14 92  1  0  0  0
 15 93  1  0  0  0
 16 17  2  0  0  0
 16 21  1  0  0  0
 16 31  1  0  0  0
 17 18  1  0  0  0
 17 94  1  0  0  0
 18 19  2  0  0  0
 18 95  1  0  0  0
 19 20  1  0  0  0
 19 24  1  0  0  0
 20 21  2  0  0  0
 20 96  1  0  0  0
 21 23  1  0  0  0
 22 28  1  0  0  0
 22 32  2  0  0  0
 26 27  1  0  0  0
 28 97  1  0  0  0
 28 98  1  0  0  0
 29 99  1  0  0  0
 29100  1  0  0  0
 33 34  1  0  0  0
 33 66  1  0  0  0
 33 70  2  0  0  0
 34 36  1  0  0  0
 34 59  1  0  0  0
 34101  1  0  0  0
 35 44  2  0  0  0
 35 45  1  0  0  0
 35 68  1  0  0  0
 36 56  1  0  0  0
 36102  1  0  0  0
 37 39  1  0  0  0
 37 47  1  0  0  0
 37 66  1  0  0  0
 37103  1  0  0  0
 38 43  2  0  0  0
 38 46  1  0  0  0
 38 47  1  0  0  0
 39 64  1  0  0  0
 39 67  2  0  0  0
 40 52  1  0  0  0
 40 53  2  0  0  0
 40 58  1  0  0  0
 41104  1  0  0  0
 41105  1  0  0  0
 41106  1  0  0  0
 41 48  1  0  0  0
 42 43  1  0  0  0
 42 66  1  0  0  0
 42107  1  0  0  0
 42108  1  0  0  0
 43 44  1  0  0  0
 44109  1  0  0  0
 45 46  2  0  0  0
 45110  1  0  0  0
 46111  1  0  0  0
 47112  1  0  0  0
 47113  1  0  0  0
 48 56  1  0  0  0
 48 65  1  0  0  0
 48114  1  0  0  0
 49 50  1  0  0  0
 49 53  1  0  0  0
 49 64  1  0  0  0
 49115  1  0  0  0
 50 51  1  0  0  0
 50116  1  0  0  0
 50117  1  0  0  0
 51 52  1  0  0  0
 51118  1  0  0  0
 51119  1  0  0  0
 52120  1  0  0  0
 52121  1  0  0  0
 53 54  1  0  0  0
 54 55  2  0  0  0
 54122  1  0  0  0
 55 57  1  0  0  0
 55123  1  0  0  0
 56 69  2  0  0  0
 57 58  2  0  0  0
 57124  1  0  0  0
 58125  1  0  0  0
 59 60  1  0  0  0
 59 61  1  0  0  0
 59 62  1  0  0  0
 60126  1  0  0  0
 60127  1  0  0  0
 60128  1  0  0  0
 61129  1  0  0  0
 61130  1  0  0  0
 61131  1  0  0  0
 62132  1  0  0  0
 62133  1  0  0  0
 62134  1  0  0  0
 63 65  1  0  0  0
 63135  1  0  0  0
 63136  1  0  0  0
 63137  1  0  0  0
 64138  1  0  0  0
 65139  1  0  0  0
 68 77  1  0  0  0
 71 72  1  0  0  0
 71 73  2  0  0  0
 71 74  1  0  0  0
 72 75  1  0  0  0
 72 78  2  0  0  0
 73 79  1  0  0  0
 73 80  1  0  0  0
 74140  1  0  0  0
 74141  1  0  0  0
 74142  1  0  0  0
 75143  1  0  0  0
 75144  1  0  0  0
 75145  1  0  0  0
 76 77  1  0  0  0
 76 79  1  0  0  0
 76146  1  0  0  0
 76147  1  0  0  0
 77148  1  0  0  0
 77149  1  0  0  0
 78 79  1  0  0  0
 80150  1  0  0  0
M  ISO  4   1 100  68 101  77 101  80 100
M  END
> <chiral flag>
0

> <version>
0

> <s_m_source_file>
/data/baiqing/PycharmProjects/Reinvent-master-3.2/result/LINK_invent/BTK/process_docking_weight1_custom_sum_contain_oxygen_bond_distance_aromatic_linkinvent_7_9_3/rearranged_h_0016.sdf

> <i_m_source_file_index>
7

> <r_mmod_Potential_Energy-OPLS-2005>
2872.04931640625

> <r_mmod_Stretch_Energy-OPLS-2005>
1291.88623046875

> <r_mmod_Bend_Energy-OPLS-2005>
807.357360839844

> <r_mmod_Torsional_Energy-OPLS-2005>
264.847717285156

> <r_mmod_Improper_Torsional_Energy-OPLS-2005>
8.16232395172119

> <r_mmod_Van_der_Waal_Energy-OPLS-2005>
116.810302734375

> <r_mmod_Electrostatic_Energy-OPLS-2005>
-421.9697265625

> <r_mmod_Solvation_Energy-OPLS-2005>
-225.21272277832

> <b_mmod_Minimization_Converged-OPLS-2005>
0

> <r_mmod_RMS_Derivative-OPLS-2005>
0.796458065509796

$$$$
7
                    3D
 Structure written by MMmdl.
163171  0  0  1  0            999 V2000
  -30.6518  -14.4217   20.6433 C   0  0  0  0  0  0
  -30.4418  -12.3087   19.3843 C   0  0  0  0  0  0
  -29.4907  -12.5305   18.1879 C   0  0  0  0  0  0
  -28.0083  -12.3922   18.6018 C   0  0  0  0  0  0
  -27.6706  -13.1862   19.8896 C   0  0  2  0  0  0
  -28.7061  -12.8623   20.9827 C   0  0  0  0  0  0
  -25.2644  -13.8104   20.5692 C   0  0  0  0  0  0
  -24.1841  -13.0416   20.9148 C   0  0  0  0  0  0
  -24.6385  -11.6890   20.8731 C   0  0  0  0  0  0
  -23.9052  -10.4299   21.0434 C   0  0  0  0  0  0
  -24.3626   -9.4214   21.9181 C   0  0  0  0  0  0
  -23.6294   -8.2247   22.0777 C   0  0  0  0  0  0
  -22.4255   -8.0288   21.3579 C   0  0  0  0  0  0
  -21.9899   -9.0269   20.4663 C   0  0  0  0  0  0
  -22.7256  -10.2147   20.3060 C   0  0  0  0  0  0
  -21.6870   -6.0745   22.5283 C   0  0  0  0  0  0
  -21.3990   -6.5632   23.8215 C   0  0  0  0  0  0
  -21.3664   -5.6809   24.9168 C   0  0  0  0  0  0
  -21.6034   -4.3073   24.7242 C   0  0  0  0  0  0
  -21.8830   -3.8152   23.4368 C   0  0  0  0  0  0
  -21.9175   -4.6958   22.3397 C   0  0  0  0  0  0
  -22.7894  -13.5270   21.1846 C   0  0  0  0  0  0
  -22.1661   -4.2151   21.0997 F   0  0  0  0  0  0
  -21.5646   -3.4547   25.7751 F   0  0  0  0  0  0
  -30.0378  -13.2235   20.4572 N   0  0  0  0  0  0
  -26.3056  -12.9240   20.3417 N   0  0  0  0  0  0
  -25.9303  -11.6421   20.5750 N   0  0  0  0  0  0
  -22.0531  -12.8240   22.0382 N   0  0  0  0  0  0
  -25.4431  -15.1794   20.4111 N   0  0  0  0  0  0
  -31.7361  -14.7135   20.1309 O   0  0  0  0  0  0
  -21.6647   -6.8880   21.4235 O   0  0  0  0  0  0
  -22.3593  -14.5594   20.6720 O   0  0  0  0  0  0
  -24.6126  -31.8698   23.2065 C   0  0  0  0  0  0
  -25.9041  -32.4811   23.8369 C   0  0  1  0  0  0
  -27.2332  -27.4538   20.0781 C   0  0  0  0  0  0
  -25.5922  -33.8603   24.2325 N   0  0  0  0  0  0
  -23.3995  -30.4935   21.5462 C   0  0  2  0  0  0
  -24.8445  -28.9524   20.1176 C   0  0  0  0  0  0
  -22.7394  -29.4700   22.4953 C   0  0  0  0  0  0
  -18.0290  -28.1402   22.8458 C   0  0  0  0  0  0
  -24.1495  -36.7319   23.2630 C   0  0  0  0  0  0
  -25.9281  -30.8332   21.3662 C   0  0  0  0  0  0
  -26.0029  -29.4690   20.7118 C   0  0  0  0  0  0
  -27.2049  -28.7274   20.6869 C   0  0  0  0  0  0
  -26.0608  -26.9393   19.4934 C   0  0  0  0  0  0
  -24.8655  -27.6836   19.5097 C   0  0  0  0  0  0
  -23.6062  -29.8176   20.1641 C   0  0  0  0  0  0
  -25.4110  -36.3091   24.0330 C   0  0  1  0  0  0
  -20.5870  -28.3718   23.1313 C   0  0  2  0  0  0
  -20.6800  -26.9447   22.5464 C   0  0  0  0  0  0
  -19.5813  -26.6369   21.5250 C   0  0  0  0  0  0
  -18.1957  -26.7932   22.1576 C   0  0  0  0  0  0
  -19.1527  -28.8868   23.2881 C   0  0  0  0  0  0
  -18.9457  -30.1474   23.8918 C   0  0  0  0  0  0
  -17.6468  -30.6612   24.0566 C   0  0  0  0  0  0
  -25.9048  -34.9468   23.5103 C   0  0  0  0  0  0
  -16.5367  -29.9126   23.6337 C   0  0  0  0  0  0
  -16.7274  -28.6543   23.0336 C   0  0  0  0  0  0
  -26.4482  -31.6588   25.0706 C   0  0  0  0  0  0
  -25.3747  -31.3755   26.1462 C   0  0  0  0  0  0
  -27.0357  -30.3008   24.6167 C   0  0  0  0  0  0
  -27.6049  -32.4316   25.7485 C   0  0  0  0  0  0
  -27.5577  -37.1797   24.8457 C   0  0  0  0  0  0
  -21.4129  -29.3045   22.3672 N   0  0  0  0  0  0
  -26.4289  -37.3784   23.9405 N   0  0  0  0  0  0
  -24.6640  -31.0839   22.0975 N   0  0  0  0  0  0
  -23.4175  -28.8286   23.3009 O   0  0  0  0  0  0
  -28.3959  -26.7232   20.0354 O   0  0  0  0  0  0
  -26.5612  -34.8914   22.4666 O   0  0  0  0  0  0
  -23.5326  -32.1461   23.7483 O   0  0  0  0  0  0
  -30.6439  -17.5272   20.7243 C   0  0  0  0  0  0
  -30.5243  -18.9283   20.8201 C   0  0  0  0  0  0
  -28.7157  -17.2294   22.1914 C   0  0  0  0  0  0
  -28.5326  -18.6425   22.2066 C   0  0  0  0  0  0
  -29.7847  -16.6667   21.4395 C   0  0  0  0  0  0
  -29.4622  -19.4945   21.5608 C   0  0  0  0  0  0
  -31.5760  -19.7938   20.1532 C   0  0  0  0  0  0
  -27.7591  -16.3392   22.9861 C   0  0  0  0  0  0
  -27.3389  -19.2951   22.8964 C   0  0  0  0  0  0
  -28.5404  -24.2304   20.2066 C   0  0  0  0  0  0
  -28.8047  -23.1096   21.2358 C   0  0  0  0  0  0
  -28.4242  -25.6008   20.9195 C   0  0  0  0  0  0
  -28.8647  -21.6640   20.7043 C   0  0  0  0  0  0
  -29.9327  -15.2479   21.4299 N   0  0  0  0  0  0
  -29.3716  -20.8545   21.7672 O   0  0  0  0  0  0
  -31.4760  -12.4754   19.0802 H   0  0  0  0  0  0
  -30.3934  -11.2768   19.7327 H   0  0  0  0  0  0
  -29.7160  -11.8164   17.3953 H   0  0  0  0  0  0
  -29.6606  -13.5173   17.7554 H   0  0  0  0  0  0
  -27.8010  -11.3338   18.7536 H   0  0  0  0  0  0
  -27.3570  -12.7099   17.7862 H   0  0  0  0  0  0
  -27.7487  -14.2459   19.6471 H   0  0  0  0  0  0
  -28.6823  -11.7956   21.2034 H   0  0  0  0  0  0
  -28.4430  -13.3382   21.9265 H   0  0  0  0  0  0
  -25.2771   -9.5689   22.4761 H   0  0  0  0  0  0
  -24.0004   -7.4628   22.7491 H   0  0  0  0  0  0
  -21.0844   -8.8800   19.8967 H   0  0  0  0  0  0
  -22.3716  -10.9693   19.6175 H   0  0  0  0  0  0
  -21.1980   -7.6155   23.9714 H   0  0  0  0  0  0
  -21.1475   -6.0546   25.9092 H   0  0  0  0  0  0
  -22.0593   -2.7614   23.2873 H   0  0  0  0  0  0
  -22.4139  -11.9890   22.4719 H   0  0  0  0  0  0
  -21.1173  -13.1317   22.2629 H   0  0  0  0  0  0
  -24.7038  -15.8532   20.5693 H   0  0  0  0  0  0
  -26.3259  -15.6136   20.1605 H   0  0  0  0  0  0
  -26.7113  -32.5541   23.1140 H   0  0  0  0  0  0
  -25.0043  -33.9769   25.0447 H   0  0  0  0  0  0
  -22.6861  -31.3084   21.4031 H   0  0  0  0  0  0
  -23.3739  -35.9675   23.3312 H   0  0  0  0  0  0
  -24.3575  -36.8912   22.2038 H   0  0  0  0  0  0
  -23.7289  -37.6535   23.6646 H   0  0  0  0  0  0
  -26.0563  -31.6011   20.6022 H   0  0  0  0  0  0
  -26.8116  -30.8764   21.9916 H   0  0  0  0  0  0
  -28.1005  -29.1229   21.1470 H   0  0  0  0  0  0
  -26.0781  -25.9656   19.0247 H   0  0  0  0  0  0
  -23.9735  -27.2801   19.0536 H   0  0  0  0  0  0
  -23.7068  -30.5896   19.4008 H   0  0  0  0  0  0
  -22.7330  -29.2321   19.8666 H   0  0  0  0  0  0
  -25.1282  -36.1913   25.0823 H   0  0  0  0  0  0
  -20.9983  -28.3366   24.1424 H   0  0  0  0  0  0
  -20.5706  -26.2359   23.3688 H   0  0  0  0  0  0
  -21.6699  -26.7531   22.1302 H   0  0  0  0  0  0
  -19.7009  -25.6268   21.1362 H   0  0  0  0  0  0
  -19.6798  -27.3108   20.6747 H   0  0  0  0  0  0
  -17.4259  -26.6734   21.3924 H   0  0  0  0  0  0
  -18.0313  -26.0048   22.8936 H   0  0  0  0  0  0
  -19.7955  -30.7250   24.2300 H   0  0  0  0  0  0
  -17.5032  -31.6289   24.5161 H   0  0  0  0  0  0
  -15.5368  -30.3020   23.7672 H   0  0  0  0  0  0
  -15.8655  -28.0900   22.7040 H   0  0  0  0  0  0
  -24.5835  -30.7206   25.7802 H   0  0  0  0  0  0
  -24.9071  -32.2971   26.4932 H   0  0  0  0  0  0
  -25.8057  -30.8855   27.0201 H   0  0  0  0  0  0
  -26.2961  -29.6720   24.1207 H   0  0  0  0  0  0
  -27.4083  -29.7264   25.4666 H   0  0  0  0  0  0
  -27.8801  -30.4300   23.9394 H   0  0  0  0  0  0
  -27.2625  -33.3542   26.2178 H   0  0  0  0  0  0
  -28.3813  -32.6998   25.0315 H   0  0  0  0  0  0
  -28.0805  -31.8395   26.5313 H   0  0  0  0  0  0
  -28.2586  -38.0097   24.7480 H   0  0  0  0  0  0
  -28.1064  -36.2617   24.6290 H   0  0  0  0  0  0
  -27.2292  -37.1465   25.8858 H   0  0  0  0  0  0
  -20.9307  -29.8634   21.6777 H   0  0  0  0  0  0
  -26.0156  -38.2851   24.1384 H   0  0  0  0  0  0
  -31.4380  -17.1266   20.1167 H   0  0  0  0  0  0
  -32.5348  -19.2756   20.1072 H   0  0  0  0  0  0
  -31.7284  -20.7247   20.6978 H   0  0  0  0  0  0
  -31.2807  -20.0275   19.1323 H   0  0  0  0  0  0
  -26.7715  -16.3512   22.5283 H   0  0  0  0  0  0
  -27.6517  -16.7117   24.0026 H   0  0  0  0  0  0
  -28.0700  -15.3032   23.0998 H   0  0  0  0  0  0
  -26.7253  -18.6185   23.4911 H   0  0  0  0  0  0
  -26.6885  -19.7213   22.1304 H   0  0  0  0  0  0
  -27.6718  -20.1025   23.5506 H   0  0  0  0  0  0
  -27.6250  -24.0183   19.6530 H   0  0  0  0  0  0
  -29.3493  -24.2589   19.4718 H   0  0  0  0  0  0
  -28.0370  -23.1563   22.0108 H   0  0  0  0  0  0
  -29.7521  -23.3289   21.7292 H   0  0  0  0  0  0
  -29.2843  -25.7482   21.5738 H   0  0  0  0  0  0
  -27.5538  -25.5874   21.5792 H   0  0  0  0  0  0
  -27.8671  -21.3407   20.4083 H   0  0  0  0  0  0
  -29.5027  -21.5988   19.8253 H   0  0  0  0  0  0
  -29.1763  -14.7623   21.8880 H   0  0  0  0  0  0
  1 25  1  0  0  0
  1 30  2  0  0  0
  1 84  1  0  0  0
  2  3  1  0  0  0
  2 25  1  0  0  0
  2 86  1  0  0  0
  2 87  1  0  0  0
  3  4  1  0  0  0
  3 88  1  0  0  0
  3 89  1  0  0  0
  4  5  1  0  0  0
  4 90  1  0  0  0
  4 91  1  0  0  0
  5  6  1  0  0  0
  5 26  1  0  0  0
  5 92  1  0  0  0
  6 25  1  0  0  0
  6 93  1  0  0  0
  6 94  1  0  0  0
  7  8  2  0  0  0
  7 26  1  0  0  0
  7 29  1  0  0  0
  8  9  1  0  0  0
  8 22  1  0  0  0
  9 10  1  0  0  0
  9 27  2  0  0  0
 10 11  2  0  0  0
 10 15  1  0  0  0
 11 12  1  0  0  0
 11 95  1  0  0  0
 12 13  2  0  0  0
 12 96  1  0  0  0
 13 14  1  0  0  0
 13 31  1  0  0  0
 14 15  2  0  0  0
 14 97  1  0  0  0
 15 98  1  0  0  0
 16 17  2  0  0  0
 16 21  1  0  0  0
 16 31  1  0  0  0
 17 18  1  0  0  0
 17 99  1  0  0  0
 18 19  2  0  0  0
 18100  1  0  0  0
 19 20  1  0  0  0
 19 24  1  0  0  0
 20 21  2  0  0  0
 20101  1  0  0  0
 21 23  1  0  0  0
 22 28  1  0  0  0
 22 32  2  0  0  0
 26 27  1  0  0  0
 28102  1  0  0  0
 28103  1  0  0  0
 29104  1  0  0  0
 29105  1  0  0  0
 33 34  1  0  0  0
 33 66  1  0  0  0
 33 70  2  0  0  0
 34 36  1  0  0  0
 34 59  1  0  0  0
 34106  1  0  0  0
 35 44  2  0  0  0
 35 45  1  0  0  0
 35 68  1  0  0  0
 36 56  1  0  0  0
 36107  1  0  0  0
 37 39  1  0  0  0
 37 47  1  0  0  0
 37 66  1  0  0  0
 37108  1  0  0  0
 38 43  2  0  0  0
 38 46  1  0  0  0
 38 47  1  0  0  0
 39 64  1  0  0  0
 39 67  2  0  0  0
 40 52  1  0  0  0
 40 53  2  0  0  0
 40 58  1  0  0  0
 41109  1  0  0  0
 41110  1  0  0  0
 41111  1  0  0  0
 41 48  1  0  0  0
 42 43  1  0  0  0
 42 66  1  0  0  0
 42112  1  0  0  0
 42113  1  0  0  0
 43 44  1  0  0  0
 44114  1  0  0  0
 45 46  2  0  0  0
 45115  1  0  0  0
 46116  1  0  0  0
 47117  1  0  0  0
 47118  1  0  0  0
 48 56  1  0  0  0
 48 65  1  0  0  0
 48119  1  0  0  0
 49 50  1  0  0  0
 49 53  1  0  0  0
 49 64  1  0  0  0
 49120  1  0  0  0
 50 51  1  0  0  0
 50121  1  0  0  0
 50122  1  0  0  0
 51 52  1  0  0  0
 51123  1  0  0  0
 51124  1  0  0  0
 52125  1  0  0  0
 52126  1  0  0  0
 53 54  1  0  0  0
 54 55  2  0  0  0
 54127  1  0  0  0
 55 57  1  0  0  0
 55128  1  0  0  0
 56 69  2  0  0  0
 57 58  2  0  0  0
 57129  1  0  0  0
 58130  1  0  0  0
 59 60  1  0  0  0
 59 61  1  0  0  0
 59 62  1  0  0  0
 60131  1  0  0  0
 60132  1  0  0  0
 60133  1  0  0  0
 61134  1  0  0  0
 61135  1  0  0  0
 61136  1  0  0  0
 62137  1  0  0  0
 62138  1  0  0  0
 62139  1  0  0  0
 63 65  1  0  0  0
 63140  1  0  0  0
 63141  1  0  0  0
 63142  1  0  0  0
 64143  1  0  0  0
 65144  1  0  0  0
 68 82  1  0  0  0
 71 72  2  0  0  0
 71 75  1  0  0  0
 71145  1  0  0  0
 72 76  1  0  0  0
 72 77  1  0  0  0
 73 74  1  0  0  0
 73 75  2  0  0  0
 73 78  1  0  0  0
 74 76  2  0  0  0
 74 79  1  0  0  0
 75 84  1  0  0  0
 76 85  1  0  0  0
 77146  1  0  0  0
 77147  1  0  0  0
 77148  1  0  0  0
 78149  1  0  0  0
 78150  1  0  0  0
 78151  1  0  0  0
 79152  1  0  0  0
 79153  1  0  0  0
 79154  1  0  0  0
 80 81  1  0  0  0
 80 82  1  0  0  0
 80155  1  0  0  0
 80156  1  0  0  0
 81 83  1  0  0  0
 81157  1  0  0  0
 81158  1  0  0  0
 82159  1  0  0  0
 82160  1  0  0  0
 83 85  1  0  0  0
 83161  1  0  0  0
 83162  1  0  0  0
 84163  1  0  0  0
M  ISO  4   1 100  68 101  82 101  84 100
M  END
> <chiral flag>
0

> <version>
0

> <s_m_source_file>
/data/baiqing/PycharmProjects/Reinvent-master-3.2/result/LINK_invent/BTK/process_docking_weight1_custom_sum_contain_oxygen_bond_distance_aromatic_linkinvent_7_9_3/rearranged_h_0016.sdf

> <i_m_source_file_index>
8

> <r_mmod_Potential_Energy-OPLS-2005>
-48.3715858459473

> <r_mmod_Stretch_Energy-OPLS-2005>
36.5190048217773

> <r_mmod_Bend_Energy-OPLS-2005>
107.711456298828

> <r_mmod_Torsional_Energy-OPLS-2005>
267.283355712891

> <r_mmod_Improper_Torsional_Energy-OPLS-2005>
3.4386899471283

> <r_mmod_Van_der_Waal_Energy-OPLS-2005>
156.826995849609

> <r_mmod_Electrostatic_Energy-OPLS-2005>
-430.328582763672

> <r_mmod_Solvation_Energy-OPLS-2005>
-200.970489501953

> <b_mmod_Minimization_Converged-OPLS-2005>
0

> <r_mmod_RMS_Derivative-OPLS-2005>
6.81737995147705

$$$$
8
                    3D
 Structure written by MMmdl.
159167  0  0  1  0            999 V2000
  -30.6161  -14.7168   20.4333 C   0  0  0  0  0  0
  -30.4346  -12.4248   19.4795 C   0  0  0  0  0  0
  -29.5103  -12.4720   18.2420 C   0  0  0  0  0  0
  -28.0343  -12.3183   18.6537 C   0  0  0  0  0  0
  -27.6451  -13.2264   19.8506 C   0  0  2  0  0  0
  -28.6887  -13.1537   20.9875 C   0  0  0  0  0  0
  -25.2530  -13.8196   20.5686 C   0  0  0  0  0  0
  -24.1814  -13.0444   20.9201 C   0  0  0  0  0  0
  -24.6394  -11.6919   20.8750 C   0  0  0  0  0  0
  -23.9070  -10.4295   21.0407 C   0  0  0  0  0  0
  -24.3619   -9.4208   21.9185 C   0  0  0  0  0  0
  -23.6292   -8.2243   22.0755 C   0  0  0  0  0  0
  -22.4277   -8.0282   21.3543 C   0  0  0  0  0  0
  -21.9913   -9.0256   20.4645 C   0  0  0  0  0  0
  -22.7241  -10.2134   20.3055 C   0  0  0  0  0  0
  -21.6854   -6.0736   22.5276 C   0  0  0  0  0  0
  -21.4014   -6.5640   23.8211 C   0  0  0  0  0  0
  -21.3660   -5.6791   24.9174 C   0  0  0  0  0  0
  -21.6043   -4.3053   24.7224 C   0  0  0  0  0  0
  -21.8821   -3.8147   23.4343 C   0  0  0  0  0  0
  -21.9193   -4.6963   22.3400 C   0  0  0  0  0  0
  -22.7834  -13.5227   21.1862 C   0  0  0  0  0  0
  -22.1661   -4.2148   21.0978 F   0  0  0  0  0  0
  -21.5630   -3.4539   25.7738 F   0  0  0  0  0  0
  -29.9972  -13.4888   20.4105 N   0  0  0  0  0  0
  -26.2954  -12.9393   20.3282 N   0  0  0  0  0  0
  -25.9325  -11.6540   20.5764 N   0  0  0  0  0  0
  -22.0483  -12.8211   22.0415 N   0  0  0  0  0  0
  -25.4229  -15.1918   20.4110 N   0  0  0  0  0  0
  -31.8074  -14.8169   20.1284 O   0  0  0  0  0  0
  -21.6641   -6.8880   21.4237 O   0  0  0  0  0  0
  -22.3515  -14.5533   20.6712 O   0  0  0  0  0  0
  -24.6285  -31.8580   23.2003 C   0  0  0  0  0  0
  -25.9124  -32.4767   23.8337 C   0  0  1  0  0  0
  -27.2175  -27.2780   20.1240 C   0  0  0  0  0  0
  -25.5921  -33.8567   24.2260 N   0  0  0  0  0  0
  -23.4243  -30.4813   21.5442 C   0  0  2  0  0  0
  -24.8712  -28.9347   20.1072 C   0  0  0  0  0  0
  -22.7494  -29.4613   22.4922 C   0  0  0  0  0  0
  -18.0290  -28.1385   22.8484 C   0  0  0  0  0  0
  -24.1493  -36.7292   23.2640 C   0  0  0  0  0  0
  -25.9691  -30.7740   21.3801 C   0  0  0  0  0  0
  -26.0411  -29.3989   20.7214 C   0  0  0  0  0  0
  -27.2148  -28.5809   20.7241 C   0  0  0  0  0  0
  -26.0297  -26.8921   19.4581 C   0  0  0  0  0  0
  -24.8697  -27.6884   19.4656 C   0  0  0  0  0  0
  -23.6411  -29.8186   20.1588 C   0  0  0  0  0  0
  -25.4117  -36.3077   24.0326 C   0  0  1  0  0  0
  -20.5888  -28.3697   23.1274 C   0  0  2  0  0  0
  -20.6780  -26.9416   22.5410 C   0  0  0  0  0  0
  -19.5757  -26.6384   21.5215 C   0  0  0  0  0  0
  -18.1936  -26.7926   22.1623 C   0  0  0  0  0  0
  -19.1542  -28.8858   23.2870 C   0  0  0  0  0  0
  -18.9464  -30.1458   23.8888 C   0  0  0  0  0  0
  -17.6465  -30.6587   24.0566 C   0  0  0  0  0  0
  -25.9057  -34.9448   23.5100 C   0  0  0  0  0  0
  -16.5357  -29.9084   23.6332 C   0  0  0  0  0  0
  -16.7277  -28.6504   23.0347 C   0  0  0  0  0  0
  -26.4493  -31.6583   25.0717 C   0  0  0  0  0  0
  -25.3708  -31.3729   26.1429 C   0  0  0  0  0  0
  -27.0346  -30.2999   24.6197 C   0  0  0  0  0  0
  -27.6050  -32.4326   25.7487 C   0  0  0  0  0  0
  -27.5581  -37.1797   24.8462 C   0  0  0  0  0  0
  -21.4203  -29.3043   22.3665 N   0  0  0  0  0  0
  -26.4297  -37.3770   23.9404 N   0  0  0  0  0  0
  -24.6929  -31.0554   22.0978 N   0  0  0  0  0  0
  -23.4208  -28.8152   23.3013 O   0  0  0  0  0  0
  -28.3144  -26.3897   20.2095 O   0  0  0  0  0  0
  -26.5643  -34.8922   22.4678 O   0  0  0  0  0  0
  -23.5442  -32.1400   23.7308 O   0  0  0  0  0  0
  -30.2370  -18.6444   18.0627 C   0  0  0  0  0  0
  -29.6421  -18.4332   20.7823 C   0  0  0  0  0  0
  -29.6573  -19.7590   20.1633 C   0  0  0  0  0  0
  -29.9306  -17.2044   20.0437 C   0  0  0  0  0  0
  -29.9812  -19.8135   18.7944 C   0  0  0  0  0  0
  -30.1977  -17.3666   18.6514 C   0  0  0  0  0  0
  -29.3290  -18.3331   22.2686 C   0  0  0  0  0  0
  -28.7689  -23.8848   22.1965 C   0  0  0  0  0  0
  -29.4506  -21.1555   20.9059 C   0  0  0  0  0  0
  -28.1124  -24.9253   19.9430 C   0  0  0  0  0  0
  -28.9999  -23.7910   20.6734 C   0  0  2  0  0  0
  -29.8312  -15.8402   20.6290 N   0  0  0  0  0  0
  -28.8114  -22.3414   20.1682 N   0  3  0  0  0  0
  -30.0414  -21.0118   18.1620 F   0  0  0  0  0  0
  -30.4072  -16.0392   17.5623 Cl  0  0  0  0  0  0
  -31.4754  -12.5439   19.1738 H   0  0  0  0  0  0
  -30.3767  -11.4505   19.9674 H   0  0  0  0  0  0
  -29.7841  -11.6838   17.5394 H   0  0  0  0  0  0
  -29.6447  -13.4108   17.7077 H   0  0  0  0  0  0
  -27.8812  -11.2723   18.9217 H   0  0  0  0  0  0
  -27.3810  -12.5105   17.8017 H   0  0  0  0  0  0
  -27.6441  -14.2470   19.4668 H   0  0  0  0  0  0
  -28.7120  -12.1565   21.4296 H   0  0  0  0  0  0
  -28.4280  -13.8390   21.7955 H   0  0  0  0  0  0
  -25.2765   -9.5684   22.4758 H   0  0  0  0  0  0
  -24.0003   -7.4636   22.7475 H   0  0  0  0  0  0
  -21.0846   -8.8773   19.8949 H   0  0  0  0  0  0
  -22.3700  -10.9673   19.6164 H   0  0  0  0  0  0
  -21.2008   -7.6147   23.9712 H   0  0  0  0  0  0
  -21.1480   -6.0523   25.9076 H   0  0  0  0  0  0
  -22.0600   -2.7607   23.2845 H   0  0  0  0  0  0
  -22.4105  -11.9872   22.4796 H   0  0  0  0  0  0
  -21.1099  -13.1228   22.2626 H   0  0  0  0  0  0
  -24.6527  -15.8433   20.5181 H   0  0  0  0  0  0
  -26.2673  -15.6312   20.0679 H   0  0  0  0  0  0
  -26.7190  -32.5423   23.1079 H   0  0  0  0  0  0
  -25.0019  -33.9702   25.0371 H   0  0  0  0  0  0
  -22.7194  -31.3028   21.4006 H   0  0  0  0  0  0
  -23.3757  -35.9624   23.3298 H   0  0  0  0  0  0
  -24.3584  -36.8921   22.2055 H   0  0  0  0  0  0
  -23.7248  -37.6489   23.6673 H   0  0  0  0  0  0
  -26.1071  -31.5361   20.6121 H   0  0  0  0  0  0
  -26.8473  -30.8212   22.0118 H   0  0  0  0  0  0
  -28.1063  -28.9264   21.2290 H   0  0  0  0  0  0
  -25.9591  -25.9543   18.9286 H   0  0  0  0  0  0
  -23.9762  -27.3329   18.9700 H   0  0  0  0  0  0
  -23.7623  -30.5971   19.4043 H   0  0  0  0  0  0
  -22.7600  -29.2497   19.8561 H   0  0  0  0  0  0
  -25.1296  -36.1933   25.0819 H   0  0  0  0  0  0
  -20.9973  -28.3284   24.1396 H   0  0  0  0  0  0
  -20.5698  -26.2303   23.3611 H   0  0  0  0  0  0
  -21.6647  -26.7457   22.1191 H   0  0  0  0  0  0
  -19.6929  -25.6296   21.1240 H   0  0  0  0  0  0
  -19.6696  -27.3200   20.6750 H   0  0  0  0  0  0
  -17.4204  -26.6670   21.4027 H   0  0  0  0  0  0
  -18.0338  -26.0071   22.9021 H   0  0  0  0  0  0
  -19.7946  -30.7268   24.2256 H   0  0  0  0  0  0
  -17.5028  -31.6268   24.5169 H   0  0  0  0  0  0
  -15.5359  -30.2986   23.7664 H   0  0  0  0  0  0
  -15.8675  -28.0829   22.7057 H   0  0  0  0  0  0
  -24.5895  -30.7068   25.7745 H   0  0  0  0  0  0
  -24.8876  -32.2895   26.4825 H   0  0  0  0  0  0
  -25.8006  -30.8919   27.0226 H   0  0  0  0  0  0
  -26.2931  -29.6735   24.1221 H   0  0  0  0  0  0
  -27.4029  -29.7267   25.4716 H   0  0  0  0  0  0
  -27.8807  -30.4270   23.9441 H   0  0  0  0  0  0
  -27.2664  -33.3646   26.2028 H   0  0  0  0  0  0
  -28.3868  -32.6858   25.0312 H   0  0  0  0  0  0
  -28.0706  -31.8469   26.5422 H   0  0  0  0  0  0
  -28.2588  -38.0104   24.7516 H   0  0  0  0  0  0
  -28.1091  -36.2632   24.6286 H   0  0  0  0  0  0
  -27.2298  -37.1434   25.8865 H   0  0  0  0  0  0
  -20.9393  -29.8757   21.6858 H   0  0  0  0  0  0
  -26.0182  -38.2847   24.1404 H   0  0  0  0  0  0
  -30.4508  -18.7299   17.0079 H   0  0  0  0  0  0
  -29.9046  -19.0646   22.8356 H   0  0  0  0  0  0
  -29.5717  -17.3560   22.6845 H   0  0  0  0  0  0
  -28.2691  -18.5169   22.4450 H   0  0  0  0  0  0
  -28.9255  -24.9052   22.5494 H   0  0  0  0  0  0
  -29.4525  -23.2488   22.7586 H   0  0  0  0  0  0
  -27.7502  -23.6015   22.4641 H   0  0  0  0  0  0
  -30.4425  -21.4696   21.2308 H   0  0  0  0  0  0
  -28.8750  -20.9917   21.8164 H   0  0  0  0  0  0
  -27.0853  -24.6597   20.1913 H   0  0  0  0  0  0
  -28.2044  -24.7936   18.8645 H   0  0  0  0  0  0
  -30.0457  -24.0384   20.4862 H   0  0  0  0  0  0
  -28.9498  -15.6440   21.0765 H   0  0  0  0  0  0
  -27.8252  -22.1415   20.1002 H   0  0  0  0  0  0
  -29.1763  -22.2918   19.2248 H   0  0  0  0  0  0
  1 25  1  0  0  0
  1 30  2  0  0  0
  1 82  1  0  0  0
  2  3  1  0  0  0
  2 25  1  0  0  0
  2 86  1  0  0  0
  2 87  1  0  0  0
  3  4  1  0  0  0
  3 88  1  0  0  0
  3 89  1  0  0  0
  4  5  1  0  0  0
  4 90  1  0  0  0
  4 91  1  0  0  0
  5  6  1  0  0  0
  5 26  1  0  0  0
  5 92  1  0  0  0
  6 25  1  0  0  0
  6 93  1  0  0  0
  6 94  1  0  0  0
  7  8  2  0  0  0
  7 26  1  0  0  0
  7 29  1  0  0  0
  8  9  1  0  0  0
  8 22  1  0  0  0
  9 10  1  0  0  0
  9 27  2  0  0  0
 10 11  2  0  0  0
 10 15  1  0  0  0
 11 12  1  0  0  0
 11 95  1  0  0  0
 12 13  2  0  0  0
 12 96  1  0  0  0
 13 14  1  0  0  0
 13 31  1  0  0  0
 14 15  2  0  0  0
 14 97  1  0  0  0
 15 98  1  0  0  0
 16 17  2  0  0  0
 16 21  1  0  0  0
 16 31  1  0  0  0
 17 18  1  0  0  0
 17 99  1  0  0  0
 18 19  2  0  0  0
 18100  1  0  0  0
 19 20  1  0  0  0
 19 24  1  0  0  0
 20 21  2  0  0  0
 20101  1  0  0  0
 21 23  1  0  0  0
 22 28  1  0  0  0
 22 32  2  0  0  0
 26 27  1  0  0  0
 28102  1  0  0  0
 28103  1  0  0  0
 29104  1  0  0  0
 29105  1  0  0  0
 33 34  1  0  0  0
 33 66  1  0  0  0
 33 70  2  0  0  0
 34 36  1  0  0  0
 34 59  1  0  0  0
 34106  1  0  0  0
 35 44  2  0  0  0
 35 45  1  0  0  0
 35 68  1  0  0  0
 36 56  1  0  0  0
 36107  1  0  0  0
 37 39  1  0  0  0
 37 47  1  0  0  0
 37 66  1  0  0  0
 37108  1  0  0  0
 38 43  2  0  0  0
 38 46  1  0  0  0
 38 47  1  0  0  0
 39 64  1  0  0  0
 39 67  2  0  0  0
 40 52  1  0  0  0
 40 53  2  0  0  0
 40 58  1  0  0  0
 41109  1  0  0  0
 41110  1  0  0  0
 41111  1  0  0  0
 41 48  1  0  0  0
 42 43  1  0  0  0
 42 66  1  0  0  0
 42112  1  0  0  0
 42113  1  0  0  0
 43 44  1  0  0  0
 44114  1  0  0  0
 45 46  2  0  0  0
 45115  1  0  0  0
 46116  1  0  0  0
 47117  1  0  0  0
 47118  1  0  0  0
 48 56  1  0  0  0
 48 65  1  0  0  0
 48119  1  0  0  0
 49 50  1  0  0  0
 49 53  1  0  0  0
 49 64  1  0  0  0
 49120  1  0  0  0
 50 51  1  0  0  0
 50121  1  0  0  0
 50122  1  0  0  0
 51 52  1  0  0  0
 51123  1  0  0  0
 51124  1  0  0  0
 52125  1  0  0  0
 52126  1  0  0  0
 53 54  1  0  0  0
 54 55  2  0  0  0
 54127  1  0  0  0
 55 57  1  0  0  0
 55128  1  0  0  0
 56 69  2  0  0  0
 57 58  2  0  0  0
 57129  1  0  0  0
 58130  1  0  0  0
 59 60  1  0  0  0
 59 61  1  0  0  0
 59 62  1  0  0  0
 60131  1  0  0  0
 60132  1  0  0  0
 60133  1  0  0  0
 61134  1  0  0  0
 61135  1  0  0  0
 61136  1  0  0  0
 62137  1  0  0  0
 62138  1  0  0  0
 62139  1  0  0  0
 63 65  1  0  0  0
 63140  1  0  0  0
 63141  1  0  0  0
 63142  1  0  0  0
 64143  1  0  0  0
 65144  1  0  0  0
 68 80  1  0  0  0
 71 75  2  0  0  0
 71 76  1  0  0  0
 71145  1  0  0  0
 72 73  2  0  0  0
 72 74  1  0  0  0
 72 77  1  0  0  0
 73 75  1  0  0  0
 73 79  1  0  0  0
 74 76  2  0  0  0
 74 82  1  0  0  0
 75 84  1  0  0  0
 76 85  1  0  0  0
 77146  1  0  0  0
 77147  1  0  0  0
 77148  1  0  0  0
 78149  1  0  0  0
 78150  1  0  0  0
 78151  1  0  0  0
 78 81  1  0  0  0
 79 83  1  0  0  0
 79152  1  0  0  0
 79153  1  0  0  0
 80 81  1  0  0  0
 80154  1  0  0  0
 80155  1  0  0  0
 81 83  1  0  0  0
 81156  1  0  0  0
 82157  1  0  0  0
 83158  1  0  0  0
 83159  1  0  0  0
M  CHG  1  83   1
M  ISO  4   1 100  68 101  80 101  82 100
M  END
> <chiral flag>
0

> <version>
0

> <s_m_source_file>
/data/baiqing/PycharmProjects/Reinvent-master-3.2/result/LINK_invent/BTK/process_docking_weight1_custom_sum_contain_oxygen_bond_distance_aromatic_linkinvent_7_9_3/rearranged_h_0016.sdf

> <i_m_source_file_index>
9

> <r_mmod_Potential_Energy-OPLS-2005>
-36.5170783996582

> <r_mmod_Stretch_Energy-OPLS-2005>
119.002395629883

> <r_mmod_Bend_Energy-OPLS-2005>
152.551406860352

> <r_mmod_Torsional_Energy-OPLS-2005>
241.319793701172

> <r_mmod_Improper_Torsional_Energy-OPLS-2005>
5.24637794494629

> <r_mmod_Van_der_Waal_Energy-OPLS-2005>
147.548446655273

> <r_mmod_Electrostatic_Energy-OPLS-2005>
-322.677459716797

> <r_mmod_Solvation_Energy-OPLS-2005>
-457.132659912109

> <b_mmod_Minimization_Converged-OPLS-2005>
0

> <r_mmod_RMS_Derivative-OPLS-2005>
0.830117106437683

$$$$
9
                    3D
 Structure written by MMmdl.
181189  0  0  1  0            999 V2000
  -30.7234  -14.3746   20.6270 C   0  0  0  0  0  0
  -30.4182  -12.2726   19.3930 C   0  0  0  0  0  0
  -29.4845  -12.5283   18.1927 C   0  0  0  0  0  0
  -28.0053  -12.3939   18.6086 C   0  0  0  0  0  0
  -27.6695  -13.1870   19.9008 C   0  0  2  0  0  0
  -28.7121  -12.9032   21.0040 C   0  0  0  0  0  0
  -25.2612  -13.8112   20.5690 C   0  0  0  0  0  0
  -24.1863  -13.0430   20.9245 C   0  0  0  0  0  0
  -24.6382  -11.6881   20.8799 C   0  0  0  0  0  0
  -23.9038  -10.4282   21.0440 C   0  0  0  0  0  0
  -24.3594   -9.4191   21.9205 C   0  0  0  0  0  0
  -23.6278   -8.2223   22.0754 C   0  0  0  0  0  0
  -22.4262   -8.0273   21.3541 C   0  0  0  0  0  0
  -21.9897   -9.0249   20.4649 C   0  0  0  0  0  0
  -22.7215  -10.2135   20.3077 C   0  0  0  0  0  0
  -21.6846   -6.0728   22.5274 C   0  0  0  0  0  0
  -21.4009   -6.5633   23.8208 C   0  0  0  0  0  0
  -21.3660   -5.6791   24.9177 C   0  0  0  0  0  0
  -21.6045   -4.3052   24.7230 C   0  0  0  0  0  0
  -21.8820   -3.8139   23.4352 C   0  0  0  0  0  0
  -21.9189   -4.6955   22.3405 C   0  0  0  0  0  0
  -22.7894  -13.5252   21.1861 C   0  0  0  0  0  0
  -22.1656   -4.2140   21.0987 F   0  0  0  0  0  0
  -21.5635   -3.4538   25.7743 F   0  0  0  0  0  0
  -30.0482  -13.2115   20.4581 N   0  0  0  0  0  0
  -26.3055  -12.9241   20.3490 N   0  0  0  0  0  0
  -25.9301  -11.6426   20.5847 N   0  0  0  0  0  0
  -22.0489  -12.8265   22.0390 N   0  0  0  0  0  0
  -25.4300  -15.1807   20.3836 N   0  0  0  0  0  0
  -31.7976  -14.6327   20.0748 O   0  0  0  0  0  0
  -21.6628   -6.8866   21.4235 O   0  0  0  0  0  0
  -22.3642  -14.5578   20.6691 O   0  0  0  0  0  0
  -24.6068  -31.8728   23.2143 C   0  0  0  0  0  0
  -25.9005  -32.4844   23.8421 C   0  0  1  0  0  0
  -27.2403  -27.4959   20.0872 C   0  0  0  0  0  0
  -25.5899  -33.8654   24.2347 N   0  0  0  0  0  0
  -23.3929  -30.4917   21.5530 C   0  0  2  0  0  0
  -24.8421  -28.9639   20.1173 C   0  0  0  0  0  0
  -22.7385  -29.4653   22.5032 C   0  0  0  0  0  0
  -18.0276  -28.1339   22.8530 C   0  0  0  0  0  0
  -24.1487  -36.7328   23.2632 C   0  0  0  0  0  0
  -25.9157  -30.8534   21.3625 C   0  0  0  0  0  0
  -25.9953  -29.4914   20.7128 C   0  0  0  0  0  0
  -27.1981  -28.7616   20.7006 C   0  0  0  0  0  0
  -26.0806  -26.9672   19.4853 C   0  0  0  0  0  0
  -24.8759  -27.6963   19.5061 C   0  0  0  0  0  0
  -23.5984  -29.8206   20.1677 C   0  0  0  0  0  0
  -25.4111  -36.3130   24.0327 C   0  0  1  0  0  0
  -20.5864  -28.3614   23.1361 C   0  0  2  0  0  0
  -20.6771  -26.9364   22.5417 C   0  0  0  0  0  0
  -19.5732  -26.6375   21.5224 C   0  0  0  0  0  0
  -18.1926  -26.7885   22.1667 C   0  0  0  0  0  0
  -19.1526  -28.8789   23.2939 C   0  0  0  0  0  0
  -18.9461  -30.1399   23.8929 C   0  0  0  0  0  0
  -17.6468  -30.6559   24.0557 C   0  0  0  0  0  0
  -25.9031  -34.9497   23.5128 C   0  0  0  0  0  0
  -16.5350  -29.9071   23.6321 C   0  0  0  0  0  0
  -16.7267  -28.6476   23.0369 C   0  0  0  0  0  0
  -26.4448  -31.6613   25.0730 C   0  0  0  0  0  0
  -25.3734  -31.3738   26.1499 C   0  0  0  0  0  0
  -27.0262  -30.3045   24.6099 C   0  0  0  0  0  0
  -27.6022  -32.4335   25.7497 C   0  0  0  0  0  0
  -27.5588  -37.1817   24.8464 C   0  0  0  0  0  0
  -21.4116  -29.3008   22.3795 N   0  0  0  0  0  0
  -26.4303  -37.3807   23.9407 N   0  0  0  0  0  0
  -24.6552  -31.0872   22.1005 N   0  0  0  0  0  0
  -23.4195  -28.8202   23.3047 O   0  0  0  0  0  0
  -28.4054  -26.7800   20.0800 O   0  0  0  0  0  0
  -26.5583  -34.8946   22.4684 O   0  0  0  0  0  0
  -23.5277  -32.1446   23.7577 O   0  0  0  0  0  0
  -25.7288  -21.9809   24.0850 C   0  0  0  0  0  0
  -25.5028  -20.6971   24.6232 C   0  0  0  0  0  0
  -26.1058  -19.6744   22.4708 C   0  0  0  0  0  0
  -26.1255  -22.1120   22.7413 C   0  0  0  0  0  0
  -25.7066  -19.5429   23.8268 C   0  0  0  0  0  0
  -26.2704  -20.9705   21.9277 C   0  0  0  0  0  0
  -27.5249  -24.0417   22.3928 C   0  0  0  0  0  0
  -25.0541  -20.5696   26.0671 C   0  0  0  0  0  0
  -27.4680  -16.2533   17.3030 C   0  0  0  0  0  0
  -27.8362  -18.5085   16.2593 C   0  0  0  0  0  0
  -26.4083  -18.4628   21.5866 C   0  0  0  0  0  0
  -28.1867  -24.6508   21.1578 C   0  0  0  0  0  0
  -29.8642  -17.4868   20.1922 C   0  0  0  0  0  0
  -27.8961  -18.3210   18.7796 C   0  0  0  0  0  0
  -30.4131  -16.7084   21.4130 C   0  0  0  0  0  0
  -28.6432  -26.1091   21.3157 C   0  0  0  0  0  0
  -28.1996  -17.5971   17.4432 C   0  0  0  0  0  0
  -28.3213  -17.6325   20.1136 C   0  0  2  0  0  0
  -26.3959  -23.3643   22.1528 N   0  0  0  0  0  0
  -30.0711  -15.2910   21.3511 N   0  0  0  0  0  0
  -27.8617  -18.4216   21.2868 N   0  3  0  0  0  0
  -28.0139  -24.1849   23.5163 O   0  0  0  0  0  0
  -25.4778  -17.9786   24.5343 Cl  0  0  0  0  0  0
  -26.7243  -21.1836   20.2665 Cl  0  0  0  0  0  0
  -31.4631  -12.3697   19.0928 H   0  0  0  0  0  0
  -30.3078  -11.2479   19.7495 H   0  0  0  0  0  0
  -29.7091  -11.8310   17.3844 H   0  0  0  0  0  0
  -29.6625  -13.5280   17.7910 H   0  0  0  0  0  0
  -27.7979  -11.3338   18.7599 H   0  0  0  0  0  0
  -27.3545  -12.7135   17.7939 H   0  0  0  0  0  0
  -27.7367  -14.2462   19.6766 H   0  0  0  0  0  0
  -28.6800  -11.8513   21.2922 H   0  0  0  0  0  0
  -28.4780  -13.4533   21.9161 H   0  0  0  0  0  0
  -25.2737   -9.5669   22.4784 H   0  0  0  0  0  0
  -23.9992   -7.4607   22.7461 H   0  0  0  0  0  0
  -21.0833   -8.8762   19.8951 H   0  0  0  0  0  0
  -22.3670  -10.9684   19.6200 H   0  0  0  0  0  0
  -21.1998   -7.6139   23.9711 H   0  0  0  0  0  0
  -21.1484   -6.0522   25.9079 H   0  0  0  0  0  0
  -22.0601   -2.7602   23.2856 H   0  0  0  0  0  0
  -22.4069  -11.9916   22.4795 H   0  0  0  0  0  0
  -21.1111  -13.1320   22.2558 H   0  0  0  0  0  0
  -24.5586  -15.6935   20.3040 H   0  0  0  0  0  0
  -26.0856  -15.4416   19.6615 H   0  0  0  0  0  0
  -26.7085  -32.5578   23.1206 H   0  0  0  0  0  0
  -25.0090  -33.9837   25.0516 H   0  0  0  0  0  0
  -22.6768  -31.3037   21.4158 H   0  0  0  0  0  0
  -23.3748  -35.9661   23.3309 H   0  0  0  0  0  0
  -24.3572  -36.8927   22.2044 H   0  0  0  0  0  0
  -23.7245  -37.6543   23.6627 H   0  0  0  0  0  0
  -26.0255  -31.6222   20.5962 H   0  0  0  0  0  0
  -26.8035  -30.9048   21.9820 H   0  0  0  0  0  0
  -28.0905  -29.1659   21.1580 H   0  0  0  0  0  0
  -26.1090  -26.0000   19.0034 H   0  0  0  0  0  0
  -23.9895  -27.2851   19.0435 H   0  0  0  0  0  0
  -23.6962  -30.5914   19.4019 H   0  0  0  0  0  0
  -22.7258  -29.2318   19.8782 H   0  0  0  0  0  0
  -25.1285  -36.1992   25.0811 H   0  0  0  0  0  0
  -20.9961  -28.3165   24.1478 H   0  0  0  0  0  0
  -20.5697  -26.2204   23.3576 H   0  0  0  0  0  0
  -21.6639  -26.7407   22.1191 H   0  0  0  0  0  0
  -19.6880  -25.6299   21.1214 H   0  0  0  0  0  0
  -19.6651  -27.3221   20.6774 H   0  0  0  0  0  0
  -17.4189  -26.6610   21.4078 H   0  0  0  0  0  0
  -18.0350  -26.0004   22.9045 H   0  0  0  0  0  0
  -19.7934  -30.7206   24.2314 H   0  0  0  0  0  0
  -17.5027  -31.6240   24.5153 H   0  0  0  0  0  0
  -15.5353  -30.2995   23.7615 H   0  0  0  0  0  0
  -15.8669  -28.0788   22.7093 H   0  0  0  0  0  0
  -24.5903  -30.7068   25.7881 H   0  0  0  0  0  0
  -24.8930  -32.2909   26.4920 H   0  0  0  0  0  0
  -25.8115  -30.8953   27.0266 H   0  0  0  0  0  0
  -26.2803  -29.6850   24.1100 H   0  0  0  0  0  0
  -27.3973  -29.7233   25.4554 H   0  0  0  0  0  0
  -27.8667  -30.4367   23.9277 H   0  0  0  0  0  0
  -27.2619  -33.3622   26.2099 H   0  0  0  0  0  0
  -28.3824  -32.6928   25.0326 H   0  0  0  0  0  0
  -28.0695  -31.8448   26.5402 H   0  0  0  0  0  0
  -28.2616  -38.0104   24.7508 H   0  0  0  0  0  0
  -28.1069  -36.2640   24.6283 H   0  0  0  0  0  0
  -27.2304  -37.1467   25.8866 H   0  0  0  0  0  0
  -20.9241  -29.8770   21.7080 H   0  0  0  0  0  0
  -26.0191  -38.2884   24.1405 H   0  0  0  0  0  0
  -25.6006  -22.8612   24.6998 H   0  0  0  0  0  0
  -24.9158  -21.5460   26.5312 H   0  0  0  0  0  0
  -25.7920  -20.0206   26.6517 H   0  0  0  0  0  0
  -24.1052  -20.0362   26.1241 H   0  0  0  0  0  0
  -27.5806  -15.8428   16.2986 H   0  0  0  0  0  0
  -26.3991  -16.3487   17.4990 H   0  0  0  0  0  0
  -27.8812  -15.5153   17.9824 H   0  0  0  0  0  0
  -28.0787  -18.0370   15.3058 H   0  0  0  0  0  0
  -28.3827  -19.4515   16.3017 H   0  0  0  0  0  0
  -26.7710  -18.7437   16.2491 H   0  0  0  0  0  0
  -25.8036  -18.5561   20.6856 H   0  0  0  0  0  0
  -26.1042  -17.5196   22.0383 H   0  0  0  0  0  0
  -27.4902  -24.5698   20.3223 H   0  0  0  0  0  0
  -29.0396  -24.0289   20.8836 H   0  0  0  0  0  0
  -30.2362  -16.9977   19.2925 H   0  0  0  0  0  0
  -30.3174  -18.4791   20.1786 H   0  0  0  0  0  0
  -26.8263  -18.5201   18.7854 H   0  0  0  0  0  0
  -28.3715  -19.3019   18.7410 H   0  0  0  0  0  0
  -30.0424  -17.1215   22.3512 H   0  0  0  0  0  0
  -31.4987  -16.8198   21.4559 H   0  0  0  0  0  0
  -28.1459  -26.6065   22.1522 H   0  0  0  0  0  0
  -29.7099  -26.1437   21.5382 H   0  0  0  0  0  0
  -29.2701  -17.4061   17.3636 H   0  0  0  0  0  0
  -27.8680  -16.6430   20.1712 H   0  0  0  0  0  0
  -26.1066  -23.4235   21.1849 H   0  0  0  0  0  0
  -29.2293  -14.9773   21.8125 H   0  0  0  0  0  0
  -28.3228  -18.0778   22.1150 H   0  0  0  0  0  0
  -28.1626  -19.3739   21.1448 H   0  0  0  0  0  0
  1 25  1  0  0  0
  1 30  2  0  0  0
  1 90  1  0  0  0
  2  3  1  0  0  0
  2 25  1  0  0  0
  2 95  1  0  0  0
  2 96  1  0  0  0
  3  4  1  0  0  0
  3 97  1  0  0  0
  3 98  1  0  0  0
  4  5  1  0  0  0
  4 99  1  0  0  0
  4100  1  0  0  0
  5  6  1  0  0  0
  5 26  1  0  0  0
  5101  1  0  0  0
  6 25  1  0  0  0
  6102  1  0  0  0
  6103  1  0  0  0
  7  8  2  0  0  0
  7 26  1  0  0  0
  7 29  1  0  0  0
  8  9  1  0  0  0
  8 22  1  0  0  0
  9 10  1  0  0  0
  9 27  2  0  0  0
 10 11  2  0  0  0
 10 15  1  0  0  0
 11 12  1  0  0  0
 11104  1  0  0  0
 12 13  2  0  0  0
 12105  1  0  0  0
 13 14  1  0  0  0
 13 31  1  0  0  0
 14 15  2  0  0  0
 14106  1  0  0  0
 15107  1  0  0  0
 16 17  2  0  0  0
 16 21  1  0  0  0
 16 31  1  0  0  0
 17 18  1  0  0  0
 17108  1  0  0  0
 18 19  2  0  0  0
 18109  1  0  0  0
 19 20  1  0  0  0
 19 24  1  0  0  0
 20 21  2  0  0  0
 20110  1  0  0  0
 21 23  1  0  0  0
 22 28  1  0  0  0
 22 32  2  0  0  0
 26 27  1  0  0  0
 28111  1  0  0  0
 28112  1  0  0  0
 29113  1  0  0  0
 29114  1  0  0  0
 33 34  1  0  0  0
 33 66  1  0  0  0
 33 70  2  0  0  0
 34 36  1  0  0  0
 34 59  1  0  0  0
 34115  1  0  0  0
 35 44  2  0  0  0
 35 45  1  0  0  0
 35 68  1  0  0  0
 36 56  1  0  0  0
 36116  1  0  0  0
 37 39  1  0  0  0
 37 47  1  0  0  0
 37 66  1  0  0  0
 37117  1  0  0  0
 38 43  2  0  0  0
 38 46  1  0  0  0
 38 47  1  0  0  0
 39 64  1  0  0  0
 39 67  2  0  0  0
 40 52  1  0  0  0
 40 53  2  0  0  0
 40 58  1  0  0  0
 41118  1  0  0  0
 41119  1  0  0  0
 41120  1  0  0  0
 41 48  1  0  0  0
 42 43  1  0  0  0
 42 66  1  0  0  0
 42121  1  0  0  0
 42122  1  0  0  0
 43 44  1  0  0  0
 44123  1  0  0  0
 45 46  2  0  0  0
 45124  1  0  0  0
 46125  1  0  0  0
 47126  1  0  0  0
 47127  1  0  0  0
 48 56  1  0  0  0
 48 65  1  0  0  0
 48128  1  0  0  0
 49 50  1  0  0  0
 49 53  1  0  0  0
 49 64  1  0  0  0
 49129  1  0  0  0
 50 51  1  0  0  0
 50130  1  0  0  0
 50131  1  0  0  0
 51 52  1  0  0  0
 51132  1  0  0  0
 51133  1  0  0  0
 52134  1  0  0  0
 52135  1  0  0  0
 53 54  1  0  0  0
 54 55  2  0  0  0
 54136  1  0  0  0
 55 57  1  0  0  0
 55137  1  0  0  0
 56 69  2  0  0  0
 57 58  2  0  0  0
 57138  1  0  0  0
 58139  1  0  0  0
 59 60  1  0  0  0
 59 61  1  0  0  0
 59 62  1  0  0  0
 60140  1  0  0  0
 60141  1  0  0  0
 60142  1  0  0  0
 61143  1  0  0  0
 61144  1  0  0  0
 61145  1  0  0  0
 62146  1  0  0  0
 62147  1  0  0  0
 62148  1  0  0  0
 63 65  1  0  0  0
 63149  1  0  0  0
 63150  1  0  0  0
 63151  1  0  0  0
 64152  1  0  0  0
 65153  1  0  0  0
 68 86  1  0  0  0
 71 72  2  0  0  0
 71 74  1  0  0  0
 71154  1  0  0  0
 72 75  1  0  0  0
 72 78  1  0  0  0
 73 75  2  0  0  0
 73 76  1  0  0  0
 73 81  1  0  0  0
 74 76  2  0  0  0
 74 89  1  0  0  0
 75 93  1  0  0  0
 76 94  1  0  0  0
 77 82  1  0  0  0
 77 89  1  0  0  0
 77 92  2  0  0  0
 78155  1  0  0  0
 78156  1  0  0  0
 78157  1  0  0  0
 79158  1  0  0  0
 79159  1  0  0  0
 79160  1  0  0  0
 79 87  1  0  0  0
 80 87  1  0  0  0
 80161  1  0  0  0
 80162  1  0  0  0
 80163  1  0  0  0
 81 91  1  0  0  0
 81164  1  0  0  0
 81165  1  0  0  0
 82 86  1  0  0  0
 82166  1  0  0  0
 82167  1  0  0  0
 83 85  1  0  0  0
 83168  1  0  0  0
 83169  1  0  0  0
 83 88  1  0  0  0
 84 87  1  0  0  0
 84 88  1  0  0  0
 84170  1  0  0  0
 84171  1  0  0  0
 85 90  1  0  0  0
 85172  1  0  0  0
 85173  1  0  0  0
 86174  1  0  0  0
 86175  1  0  0  0
 87176  1  0  0  0
 88 91  1  0  0  0
 88177  1  0  0  0
 89178  1  0  0  0
 90179  1  0  0  0
 91180  1  0  0  0
 91181  1  0  0  0
M  CHG  1  91   1
M  ISO  4   1 100  68 101  86 101  90 100
M  END
> <chiral flag>
0

> <version>
0

> <s_m_source_file>
/data/baiqing/PycharmProjects/Reinvent-master-3.2/result/LINK_invent/BTK/process_docking_weight1_custom_sum_contain_oxygen_bond_distance_aromatic_linkinvent_7_9_3/rearranged_h_0016.sdf

> <i_m_source_file_index>
10

> <r_mmod_Potential_Energy-OPLS-2005>
-253.818374633789

> <r_mmod_Stretch_Energy-OPLS-2005>
34.7900505065918

> <r_mmod_Bend_Energy-OPLS-2005>
97.3194198608398

> <r_mmod_Torsional_Energy-OPLS-2005>
293.792755126953

> <r_mmod_Improper_Torsional_Energy-OPLS-2005>
11.2060279846191

> <r_mmod_Van_der_Waal_Energy-OPLS-2005>
141.832275390625

> <r_mmod_Electrostatic_Energy-OPLS-2005>
-364.442138671875

> <r_mmod_Solvation_Energy-OPLS-2005>
-475.421722412109

> <b_mmod_Minimization_Converged-OPLS-2005>
0

> <r_mmod_RMS_Derivative-OPLS-2005>
1.97476089000702

$$$$
10
                    3D
 Structure written by MMmdl.
153161  0  0  1  0            999 V2000
  -30.4114  -15.3178   20.3549 C   0  0  0  0  0  0
  -30.4354  -12.8397   19.5457 C   0  0  0  0  0  0
  -29.5402  -12.5937   18.3029 C   0  0  0  0  0  0
  -28.0903  -12.3058   18.7258 C   0  0  0  0  0  0
  -27.6103  -13.2826   19.8273 C   0  0  2  0  0  0
  -28.6372  -13.4738   20.9658 C   0  0  0  0  0  0
  -25.2370  -13.8262   20.5756 C   0  0  0  0  0  0
  -24.1728  -13.0439   20.9257 C   0  0  0  0  0  0
  -24.6392  -11.6940   20.8754 C   0  0  0  0  0  0
  -23.9089  -10.4295   21.0396 C   0  0  0  0  0  0
  -24.3632   -9.4210   21.9177 C   0  0  0  0  0  0
  -23.6301   -8.2246   22.0752 C   0  0  0  0  0  0
  -22.4282   -8.0282   21.3541 C   0  0  0  0  0  0
  -21.9923   -9.0255   20.4641 C   0  0  0  0  0  0
  -22.7257  -10.2131   20.3048 C   0  0  0  0  0  0
  -21.6858   -6.0733   22.5275 C   0  0  0  0  0  0
  -21.4018   -6.5638   23.8208 C   0  0  0  0  0  0
  -21.3662   -5.6791   24.9171 C   0  0  0  0  0  0
  -21.6045   -4.3052   24.7223 C   0  0  0  0  0  0
  -21.8819   -3.8143   23.4344 C   0  0  0  0  0  0
  -21.9194   -4.6960   22.3399 C   0  0  0  0  0  0
  -22.7745  -13.5184   21.1908 C   0  0  0  0  0  0
  -22.1663   -4.2144   21.0975 F   0  0  0  0  0  0
  -21.5629   -3.4536   25.7736 F   0  0  0  0  0  0
  -29.8702  -13.9927   20.3494 N   0  0  0  0  0  0
  -26.2803  -12.9550   20.3228 N   0  0  0  0  0  0
  -25.9332  -11.6647   20.5715 N   0  0  0  0  0  0
  -22.0411  -12.8159   22.0464 N   0  0  0  0  0  0
  -25.3997  -15.1999   20.4204 N   0  0  0  0  0  0
  -31.6223  -15.3171   20.0834 O   0  0  0  0  0  0
  -21.6645   -6.8877   21.4238 O   0  0  0  0  0  0
  -22.3421  -14.5486   20.6751 O   0  0  0  0  0  0
  -24.6659  -31.8188   23.1666 C   0  0  0  0  0  0
  -25.9327  -32.4562   23.8142 C   0  0  1  0  0  0
  -27.2230  -26.8909   20.1872 C   0  0  0  0  0  0
  -25.5979  -33.8378   24.2046 N   0  0  0  0  0  0
  -23.4831  -30.4278   21.5156 C   0  0  2  0  0  0
  -24.9384  -28.8073   20.1075 C   0  0  0  0  0  0
  -22.7684  -29.4408   22.4760 C   0  0  0  0  0  0
  -18.0323  -28.1413   22.8465 C   0  0  0  0  0  0
  -24.1492  -36.7200   23.2648 C   0  0  0  0  0  0
  -26.0528  -30.6125   21.4031 C   0  0  0  0  0  0
  -26.1199  -29.1984   20.7484 C   0  0  0  0  0  0
  -27.2512  -28.2598   20.7663 C   0  0  0  0  0  0
  -26.0164  -26.6643   19.4852 C   0  0  0  0  0  0
  -24.9146  -27.5628   19.4550 C   0  0  0  0  0  0
  -23.7250  -29.7392   20.1426 C   0  0  0  0  0  0
  -25.4133  -36.2953   24.0296 C   0  0  1  0  0  0
  -20.5949  -28.3758   23.1179 C   0  0  2  0  0  0
  -20.6797  -26.9433   22.5404 C   0  0  0  0  0  0
  -19.5772  -26.6373   21.5216 C   0  0  0  0  0  0
  -18.1953  -26.7949   22.1616 C   0  0  0  0  0  0
  -19.1585  -28.8908   23.2809 C   0  0  0  0  0  0
  -18.9499  -30.1497   23.8843 C   0  0  0  0  0  0
  -17.6494  -30.6605   24.0552 C   0  0  0  0  0  0
  -25.9100  -34.9338   23.4997 C   0  0  0  0  0  0
  -16.5382  -29.9092   23.6346 C   0  0  0  0  0  0
  -16.7305  -28.6512   23.0363 C   0  0  0  0  0  0
  -26.4563  -31.6529   25.0694 C   0  0  0  0  0  0
  -25.3678  -31.3802   26.1347 C   0  0  0  0  0  0
  -27.0466  -30.2890   24.6463 C   0  0  0  0  0  0
  -27.6050  -32.4353   25.7497 C   0  0  0  0  0  0
  -27.5566  -37.1755   24.8464 C   0  0  0  0  0  0
  -21.4348  -29.3044   22.3527 N   0  0  0  0  0  0
  -26.4274  -37.3694   23.9408 N   0  0  0  0  0  0
  -24.7554  -30.9814   22.0820 N   0  0  0  0  0  0
  -23.4218  -28.7979   23.3014 O   0  0  0  0  0  0
  -28.2222  -25.7758   20.3181 O   0  0  0  0  0  0
  -26.5717  -34.8884   22.4597 O   0  0  0  0  0  0
  -23.5722  -32.1175   23.6739 O   0  0  0  0  0  0
  -30.6518  -18.4704   19.0952 C   0  0  0  0  0  0
  -29.2599  -20.9619   20.0825 C   0  0  0  0  0  0
  -29.0811  -19.5030   20.6085 C   0  0  0  0  0  0
  -30.2172  -20.9626   19.0246 C   0  0  0  0  0  0
  -29.7681  -18.1808   20.1500 C   0  0  0  0  0  0
  -30.8559  -19.7664   18.5536 C   0  0  0  0  0  0
  -28.1102  -19.3636   21.7621 C   0  0  0  0  0  0
  -30.6031  -22.2953   18.3881 C   0  0  0  0  0  0
  -28.6910  -22.5531   20.6444 C   0  0  0  0  0  0
  -28.1765  -24.1546   19.9057 C   0  0  0  0  0  0
  -29.6460  -16.5942   20.5352 N   0  0  0  0  0  0
  -31.9690  -19.8338   17.2285 Cl  0  0  0  0  0  0
  -31.4553  -13.0414   19.2162 H   0  0  0  0  0  0
  -30.5047  -11.9381   20.1564 H   0  0  0  0  0  0
  -29.9304  -11.7668   17.7078 H   0  0  0  0  0  0
  -29.5640  -13.4747   17.6600 H   0  0  0  0  0  0
  -28.0532  -11.2831   19.1032 H   0  0  0  0  0  0
  -27.4241  -12.3392   17.8631 H   0  0  0  0  0  0
  -27.5209  -14.2459   19.3236 H   0  0  0  0  0  0
  -28.8090  -12.5443   21.5103 H   0  0  0  0  0  0
  -28.2634  -14.1940   21.6949 H   0  0  0  0  0  0
  -25.2772   -9.5688   22.4760 H   0  0  0  0  0  0
  -24.0005   -7.4640   22.7478 H   0  0  0  0  0  0
  -21.0853   -8.8772   19.8948 H   0  0  0  0  0  0
  -22.3708  -10.9667   19.6159 H   0  0  0  0  0  0
  -21.2013   -7.6145   23.9709 H   0  0  0  0  0  0
  -21.1487   -6.0521   25.9073 H   0  0  0  0  0  0
  -22.0596   -2.7605   23.2843 H   0  0  0  0  0  0
  -22.4050  -11.9825   22.4843 H   0  0  0  0  0  0
  -21.1023  -13.1160   22.2678 H   0  0  0  0  0  0
  -24.6264  -15.8468   20.5301 H   0  0  0  0  0  0
  -26.2367  -15.6418   20.0635 H   0  0  0  0  0  0
  -26.7398  -32.5089   23.0854 H   0  0  0  0  0  0
  -25.0074  -33.9446   25.0162 H   0  0  0  0  0  0
  -22.7985  -31.2605   21.3415 H   0  0  0  0  0  0
  -23.3764  -35.9520   23.3274 H   0  0  0  0  0  0
  -24.3566  -36.8890   22.2070 H   0  0  0  0  0  0
  -23.7242  -37.6372   23.6734 H   0  0  0  0  0  0
  -26.2359  -31.3512   20.6216 H   0  0  0  0  0  0
  -26.9117  -30.6718   22.0593 H   0  0  0  0  0  0
  -28.1402  -28.5540   21.3062 H   0  0  0  0  0  0
  -25.8823  -25.7164   18.9860 H   0  0  0  0  0  0
  -24.0185  -27.2584   18.9318 H   0  0  0  0  0  0
  -23.8820  -30.5067   19.3838 H   0  0  0  0  0  0
  -22.8342  -29.1942   19.8253 H   0  0  0  0  0  0
  -25.1331  -36.1739   25.0785 H   0  0  0  0  0  0
  -21.0032  -28.3374   24.1303 H   0  0  0  0  0  0
  -20.5677  -26.2375   23.3651 H   0  0  0  0  0  0
  -21.6660  -26.7405   22.1210 H   0  0  0  0  0  0
  -19.6928  -25.6267   21.1289 H   0  0  0  0  0  0
  -19.6721  -27.3149   20.6721 H   0  0  0  0  0  0
  -17.4224  -26.6699   21.4016 H   0  0  0  0  0  0
  -18.0329  -26.0105   22.9020 H   0  0  0  0  0  0
  -19.7975  -30.7322   24.2190 H   0  0  0  0  0  0
  -17.5048  -31.6281   24.5161 H   0  0  0  0  0  0
  -15.5380  -30.2976   23.7707 H   0  0  0  0  0  0
  -15.8703  -28.0817   22.7103 H   0  0  0  0  0  0
  -24.5876  -30.7133   25.7658 H   0  0  0  0  0  0
  -24.8850  -32.3013   26.4625 H   0  0  0  0  0  0
  -25.7898  -30.9069   27.0222 H   0  0  0  0  0  0
  -26.3141  -29.6551   24.1455 H   0  0  0  0  0  0
  -27.3960  -29.7275   25.5135 H   0  0  0  0  0  0
  -27.9095  -30.4052   23.9906 H   0  0  0  0  0  0
  -27.2621  -33.3721   26.1898 H   0  0  0  0  0  0
  -28.3946  -32.6803   25.0383 H   0  0  0  0  0  0
  -28.0615  -31.8594   26.5555 H   0  0  0  0  0  0
  -28.2557  -38.0075   24.7511 H   0  0  0  0  0  0
  -28.1090  -36.2601   24.6289 H   0  0  0  0  0  0
  -27.2286  -37.1391   25.8868 H   0  0  0  0  0  0
  -20.9604  -29.8748   21.6666 H   0  0  0  0  0  0
  -26.0119  -38.2749   24.1427 H   0  0  0  0  0  0
  -31.1989  -17.6547   18.6458 H   0  0  0  0  0  0
  -28.4523  -19.9496   22.6154 H   0  0  0  0  0  0
  -28.0102  -18.3274   22.0846 H   0  0  0  0  0  0
  -27.1228  -19.7238   21.4726 H   0  0  0  0  0  0
  -30.7286  -23.0743   19.1380 H   0  0  0  0  0  0
  -29.8411  -22.6060   17.6734 H   0  0  0  0  0  0
  -31.5548  -22.2701   17.8620 H   0  0  0  0  0  0
  -29.5152  -22.8449   21.2955 H   0  0  0  0  0  0
  -27.8970  -22.3108   21.3504 H   0  0  0  0  0  0
  -27.1471  -23.9781   19.5974 H   0  0  0  0  0  0
  -28.7060  -24.1908   18.9566 H   0  0  0  0  0  0
  -28.7444  -16.3812   20.9363 H   0  0  0  0  0  0
  1 25  1  0  0  0
  1 30  2  0  0  0
  1 81  1  0  0  0
  2  3  1  0  0  0
  2 25  1  0  0  0
  2 83  1  0  0  0
  2 84  1  0  0  0
  3  4  1  0  0  0
  3 85  1  0  0  0
  3 86  1  0  0  0
  4  5  1  0  0  0
  4 87  1  0  0  0
  4 88  1  0  0  0
  5  6  1  0  0  0
  5 26  1  0  0  0
  5 89  1  0  0  0
  6 25  1  0  0  0
  6 90  1  0  0  0
  6 91  1  0  0  0
  7  8  2  0  0  0
  7 26  1  0  0  0
  7 29  1  0  0  0
  8  9  1  0  0  0
  8 22  1  0  0  0
  9 10  1  0  0  0
  9 27  2  0  0  0
 10 11  2  0  0  0
 10 15  1  0  0  0
 11 12  1  0  0  0
 11 92  1  0  0  0
 12 13  2  0  0  0
 12 93  1  0  0  0
 13 14  1  0  0  0
 13 31  1  0  0  0
 14 15  2  0  0  0
 14 94  1  0  0  0
 15 95  1  0  0  0
 16 17  2  0  0  0
 16 21  1  0  0  0
 16 31  1  0  0  0
 17 18  1  0  0  0
 17 96  1  0  0  0
 18 19  2  0  0  0
 18 97  1  0  0  0
 19 20  1  0  0  0
 19 24  1  0  0  0
 20 21  2  0  0  0
 20 98  1  0  0  0
 21 23  1  0  0  0
 22 28  1  0  0  0
 22 32  2  0  0  0
 26 27  1  0  0  0
 28 99  1  0  0  0
 28100  1  0  0  0
 29101  1  0  0  0
 29102  1  0  0  0
 33 34  1  0  0  0
 33 66  1  0  0  0
 33 70  2  0  0  0
 34 36  1  0  0  0
 34 59  1  0  0  0
 34103  1  0  0  0
 35 44  2  0  0  0
 35 45  1  0  0  0
 35 68  1  0  0  0
 36 56  1  0  0  0
 36104  1  0  0  0
 37 39  1  0  0  0
 37 47  1  0  0  0
 37 66  1  0  0  0
 37105  1  0  0  0
 38 43  2  0  0  0
 38 46  1  0  0  0
 38 47  1  0  0  0
 39 64  1  0  0  0
 39 67  2  0  0  0
 40 52  1  0  0  0
 40 53  2  0  0  0
 40 58  1  0  0  0
 41106  1  0  0  0
 41107  1  0  0  0
 41108  1  0  0  0
 41 48  1  0  0  0
 42 43  1  0  0  0
 42 66  1  0  0  0
 42109  1  0  0  0
 42110  1  0  0  0
 43 44  1  0  0  0
 44111  1  0  0  0
 45 46  2  0  0  0
 45112  1  0  0  0
 46113  1  0  0  0
 47114  1  0  0  0
 47115  1  0  0  0
 48 56  1  0  0  0
 48 65  1  0  0  0
 48116  1  0  0  0
 49 50  1  0  0  0
 49 53  1  0  0  0
 49 64  1  0  0  0
 49117  1  0  0  0
 50 51  1  0  0  0
 50118  1  0  0  0
 50119  1  0  0  0
 51 52  1  0  0  0
 51120  1  0  0  0
 51121  1  0  0  0
 52122  1  0  0  0
 52123  1  0  0  0
 53 54  1  0  0  0
 54 55  2  0  0  0
 54124  1  0  0  0
 55 57  1  0  0  0
 55125  1  0  0  0
 56 69  2  0  0  0
 57 58  2  0  0  0
 57126  1  0  0  0
 58127  1  0  0  0
 59 60  1  0  0  0
 59 61  1  0  0  0
 59 62  1  0  0  0
 60128  1  0  0  0
 60129  1  0  0  0
 60130  1  0  0  0
 61131  1  0  0  0
 61132  1  0  0  0
 61133  1  0  0  0
 62134  1  0  0  0
 62135  1  0  0  0
 62136  1  0  0  0
 63 65  1  0  0  0
 63137  1  0  0  0
 63138  1  0  0  0
 63139  1  0  0  0
 64140  1  0  0  0
 65141  1  0  0  0
 68 80  1  0  0  0
 71 75  2  0  0  0
 71 76  1  0  0  0
 71142  1  0  0  0
 72 73  2  0  0  0
 72 74  1  0  0  0
 72 79  1  0  0  0
 73 75  1  0  0  0
 73 77  1  0  0  0
 74 76  2  0  0  0
 74 78  1  0  0  0
 75 81  1  0  0  0
 76 82  1  0  0  0
 77143  1  0  0  0
 77144  1  0  0  0
 77145  1  0  0  0
 78146  1  0  0  0
 78147  1  0  0  0
 78148  1  0  0  0
 79 80  1  0  0  0
 79149  1  0  0  0
 79150  1  0  0  0
 80151  1  0  0  0
 80152  1  0  0  0
 81153  1  0  0  0
M  ISO  4   1 100  68 101  80 101  81 100
M  END
> <chiral flag>
0

> <version>
0

> <s_m_source_file>
/data/baiqing/PycharmProjects/Reinvent-master-3.2/result/LINK_invent/BTK/process_docking_weight1_custom_sum_contain_oxygen_bond_distance_aromatic_linkinvent_7_9_3/rearranged_h_0016.sdf

> <i_m_source_file_index>
11

> <r_mmod_Potential_Energy-OPLS-2005>
1405.99548339844

> <r_mmod_Stretch_Energy-OPLS-2005>
663.478698730469

> <r_mmod_Bend_Energy-OPLS-2005>
447.311065673828

> <r_mmod_Torsional_Energy-OPLS-2005>
225.444976806641

> <r_mmod_Improper_Torsional_Energy-OPLS-2005>
3.80065083503723

> <r_mmod_Van_der_Waal_Energy-OPLS-2005>
130.851058959961

> <r_mmod_Electrostatic_Energy-OPLS-2005>
-369.526550292969

> <r_mmod_Solvation_Energy-OPLS-2005>
-210.792861938477

> <b_mmod_Minimization_Converged-OPLS-2005>
0

> <r_mmod_RMS_Derivative-OPLS-2005>
0.649025917053223

$$$$
11
                    3D
 Structure written by MMmdl.
158166  0  0  1  0            999 V2000
  -30.6332  -14.7539   20.5225 C   0  0  0  0  0  0
  -30.4445  -12.4804   19.4846 C   0  0  0  0  0  0
  -29.5211  -12.5378   18.2491 C   0  0  0  0  0  0
  -28.0510  -12.3374   18.6622 C   0  0  0  0  0  0
  -27.6483  -13.2398   19.8581 C   0  0  2  0  0  0
  -28.6896  -13.1744   20.9984 C   0  0  0  0  0  0
  -25.2510  -13.8252   20.5760 C   0  0  0  0  0  0
  -24.1767  -13.0471   20.9222 C   0  0  0  0  0  0
  -24.6362  -11.6961   20.8702 C   0  0  0  0  0  0
  -23.9026  -10.4329   21.0353 C   0  0  0  0  0  0
  -24.3577   -9.4264   21.9123 C   0  0  0  0  0  0
  -23.6287   -8.2282   22.0722 C   0  0  0  0  0  0
  -22.4286   -8.0270   21.3512 C   0  0  0  0  0  0
  -21.9911   -9.0245   20.4622 C   0  0  0  0  0  0
  -22.7196  -10.2138   20.3012 C   0  0  0  0  0  0
  -21.6872   -6.0726   22.5267 C   0  0  0  0  0  0
  -21.4018   -6.5619   23.8197 C   0  0  0  0  0  0
  -21.3646   -5.6750   24.9144 C   0  0  0  0  0  0
  -21.6053   -4.3029   24.7189 C   0  0  0  0  0  0
  -21.8820   -3.8131   23.4306 C   0  0  0  0  0  0
  -21.9211   -4.6954   22.3372 C   0  0  0  0  0  0
  -22.7755  -13.5225   21.1823 C   0  0  0  0  0  0
  -22.1649   -4.2152   21.0936 F   0  0  0  0  0  0
  -21.5670   -3.4504   25.7692 F   0  0  0  0  0  0
  -29.9939  -13.5363   20.4197 N   0  0  0  0  0  0
  -26.2955  -12.9471   20.3268 N   0  0  0  0  0  0
  -25.9286  -11.6611   20.5665 N   0  0  0  0  0  0
  -22.0367  -12.8233   22.0355 N   0  0  0  0  0  0
  -25.4236  -15.1997   20.4320 N   0  0  0  0  0  0
  -31.8109  -14.8595   20.1726 O   0  0  0  0  0  0
  -21.6641   -6.8868   21.4237 O   0  0  0  0  0  0
  -22.3461  -14.5524   20.6667 O   0  0  0  0  0  0
  -24.6275  -31.8555   23.1928 C   0  0  0  0  0  0
  -25.9106  -32.4773   23.8274 C   0  0  1  0  0  0
  -27.2500  -27.2920   20.1325 C   0  0  0  0  0  0
  -25.5935  -33.8555   24.2210 N   0  0  0  0  0  0
  -23.4262  -30.4718   21.5364 C   0  0  2  0  0  0
  -24.8791  -28.9119   20.1175 C   0  0  0  0  0  0
  -22.7497  -29.4583   22.4888 C   0  0  0  0  0  0
  -18.0309  -28.1406   22.8528 C   0  0  0  0  0  0
  -24.1490  -36.7243   23.2627 C   0  0  0  0  0  0
  -25.9617  -30.7867   21.3579 C   0  0  0  0  0  0
  -26.0474  -29.4017   20.7171 C   0  0  0  0  0  0
  -27.2334  -28.6044   20.7115 C   0  0  0  0  0  0
  -26.0551  -26.8569   19.5179 C   0  0  0  0  0  0
  -24.8856  -27.6443   19.5107 C   0  0  0  0  0  0
  -23.6461  -29.7937   20.1565 C   0  0  0  0  0  0
  -25.4107  -36.3048   24.0315 C   0  0  1  0  0  0
  -20.5918  -28.3703   23.1299 C   0  0  2  0  0  0
  -20.6803  -26.9422   22.5452 C   0  0  0  0  0  0
  -19.5747  -26.6423   21.5257 C   0  0  0  0  0  0
  -18.1916  -26.7971   22.1645 C   0  0  0  0  0  0
  -19.1563  -28.8854   23.2922 C   0  0  0  0  0  0
  -18.9490  -30.1461   23.8931 C   0  0  0  0  0  0
  -17.6493  -30.6617   24.0570 C   0  0  0  0  0  0
  -25.9079  -34.9449   23.5052 C   0  0  0  0  0  0
  -16.5380  -29.9137   23.6334 C   0  0  0  0  0  0
  -16.7303  -28.6544   23.0380 C   0  0  0  0  0  0
  -26.4543  -31.6587   25.0627 C   0  0  0  0  0  0
  -25.3821  -31.3761   26.1388 C   0  0  0  0  0  0
  -27.0352  -30.3002   24.6033 C   0  0  0  0  0  0
  -27.6049  -32.4357   25.7456 C   0  0  0  0  0  0
  -27.5566  -37.1734   24.8434 C   0  0  0  0  0  0
  -21.4199  -29.3048   22.3657 N   0  0  0  0  0  0
  -26.4228  -37.3777   23.9466 N   0  0  0  0  0  0
  -24.6909  -31.0546   22.0893 N   0  0  0  0  0  0
  -23.4211  -28.8105   23.2956 O   0  0  0  0  0  0
  -28.3843  -26.4513   20.1032 O   0  0  0  0  0  0
  -26.5630  -34.8919   22.4624 O   0  0  0  0  0  0
  -23.5433  -32.1350   23.7275 O   0  0  0  0  0  0
  -29.6560  -18.4610   20.5052 C   0  0  0  0  0  0
  -31.4448  -18.8974   22.5692 C   0  0  0  0  0  0
  -29.9534  -19.8463   20.8597 C   0  0  0  0  0  0
  -30.2539  -17.2889   21.1353 C   0  0  0  0  0  0
  -31.1552  -17.5638   22.2056 C   0  0  0  0  0  0
  -30.8745  -20.0140   21.9242 C   0  0  0  0  0  0
  -30.4820  -24.1403   19.5082 C   0  0  0  0  0  0
  -29.4449  -21.1228   20.0341 C   0  0  0  0  0  0
  -28.2982  -25.0441   20.6201 C   0  0  0  0  0  0
  -29.0350  -23.7775   19.9130 C   0  0  2  0  0  0
  -29.8764  -15.8817   20.8185 N   0  0  0  0  0  0
  -31.7374  -16.5300   22.9521 N   0  0  0  0  0  0
  -29.0405  -22.4485   20.7093 N   0  3  0  0  0  0
  -32.4618  -16.8166   24.0934 F   0  0  0  0  0  0
  -31.3601  -21.5808   22.4725 Cl  0  0  0  0  0  0
  -31.4866  -12.6091   19.1904 H   0  0  0  0  0  0
  -30.3944  -11.5020   19.9664 H   0  0  0  0  0  0
  -29.8244  -11.7861   17.5194 H   0  0  0  0  0  0
  -29.6273  -13.5085   17.7620 H   0  0  0  0  0  0
  -27.9227  -11.2875   18.9361 H   0  0  0  0  0  0
  -27.3924  -12.5228   17.8118 H   0  0  0  0  0  0
  -27.6486  -14.2639   19.4826 H   0  0  0  0  0  0
  -28.7220  -12.1748   21.4326 H   0  0  0  0  0  0
  -28.4105  -13.8488   21.8097 H   0  0  0  0  0  0
  -25.2721   -9.5816   22.4708 H   0  0  0  0  0  0
  -24.0015   -7.4723   22.7465 H   0  0  0  0  0  0
  -21.0849   -8.8719   19.8955 H   0  0  0  0  0  0
  -22.3582  -10.9642   19.6134 H   0  0  0  0  0  0
  -21.1955   -7.6128   23.9683 H   0  0  0  0  0  0
  -21.1470   -6.0468   25.9041 H   0  0  0  0  0  0
  -22.0618   -2.7623   23.2747 H   0  0  0  0  0  0
  -22.4012  -11.9967   22.4854 H   0  0  0  0  0  0
  -21.0988  -13.1297   22.2494 H   0  0  0  0  0  0
  -24.6682  -15.8561   20.6005 H   0  0  0  0  0  0
  -26.2462  -15.6473   20.0478 H   0  0  0  0  0  0
  -26.7168  -32.5442   23.1012 H   0  0  0  0  0  0
  -25.0168  -33.9714   25.0423 H   0  0  0  0  0  0
  -22.7242  -31.2932   21.3849 H   0  0  0  0  0  0
  -23.3789  -35.9538   23.3239 H   0  0  0  0  0  0
  -24.3627  -36.8933   22.2063 H   0  0  0  0  0  0
  -23.7203  -37.6392   23.6713 H   0  0  0  0  0  0
  -26.0704  -31.5414   20.5756 H   0  0  0  0  0  0
  -26.8497  -30.8574   21.9754 H   0  0  0  0  0  0
  -28.1299  -28.9849   21.1820 H   0  0  0  0  0  0
  -26.0269  -25.8895   19.0382 H   0  0  0  0  0  0
  -23.9864  -27.2691   19.0395 H   0  0  0  0  0  0
  -23.7678  -30.5611   19.3899 H   0  0  0  0  0  0
  -22.7709  -29.2170   19.8527 H   0  0  0  0  0  0
  -25.1305  -36.1825   25.0798 H   0  0  0  0  0  0
  -21.0050  -28.3301   24.1398 H   0  0  0  0  0  0
  -20.5735  -26.2311   23.3671 H   0  0  0  0  0  0
  -21.6655  -26.7480   22.1180 H   0  0  0  0  0  0
  -19.6900  -25.6350   21.1237 H   0  0  0  0  0  0
  -19.6658  -27.3282   20.6816 H   0  0  0  0  0  0
  -17.4221  -26.6795   21.4002 H   0  0  0  0  0  0
  -18.0227  -26.0098   22.8998 H   0  0  0  0  0  0
  -19.7964  -30.7261   24.2310 H   0  0  0  0  0  0
  -17.5061  -31.6284   24.5203 H   0  0  0  0  0  0
  -15.5384  -30.3049   23.7633 H   0  0  0  0  0  0
  -15.8710  -28.0872   22.7090 H   0  0  0  0  0  0
  -24.5973  -30.7118   25.7750 H   0  0  0  0  0  0
  -24.9066  -32.2969   26.4764 H   0  0  0  0  0  0
  -25.8192  -30.8994   27.0170 H   0  0  0  0  0  0
  -26.2859  -29.6751   24.1130 H   0  0  0  0  0  0
  -27.4151  -29.7239   25.4478 H   0  0  0  0  0  0
  -27.8716  -30.4276   23.9143 H   0  0  0  0  0  0
  -27.2570  -33.3643   26.1984 H   0  0  0  0  0  0
  -28.3913  -32.6929   25.0356 H   0  0  0  0  0  0
  -28.0654  -31.8526   26.5439 H   0  0  0  0  0  0
  -28.2474  -38.0122   24.7644 H   0  0  0  0  0  0
  -28.1151  -36.2667   24.6067 H   0  0  0  0  0  0
  -27.2319  -37.1161   25.8826 H   0  0  0  0  0  0
  -20.9365  -29.8810   21.6912 H   0  0  0  0  0  0
  -26.0074  -38.2785   24.1665 H   0  0  0  0  0  0
  -28.9624  -18.3032   19.6945 H   0  0  0  0  0  0
  -32.1334  -19.0934   23.3784 H   0  0  0  0  0  0
  -30.5556  -25.1604   19.1234 H   0  0  0  0  0  0
  -30.8486  -23.4859   18.7130 H   0  0  0  0  0  0
  -31.1693  -24.0562   20.3504 H   0  0  0  0  0  0
  -28.6164  -20.8151   19.3919 H   0  0  0  0  0  0
  -30.2637  -21.3381   19.3441 H   0  0  0  0  0  0
  -28.6853  -25.1122   21.6361 H   0  0  0  0  0  0
  -27.2508  -24.7789   20.7362 H   0  0  0  0  0  0
  -28.4859  -23.5943   18.9876 H   0  0  0  0  0  0
  -28.8893  -15.6912   20.8948 H   0  0  0  0  0  0
  -31.4434  -15.5771   22.7720 H   0  0  0  0  0  0
  -29.6721  -22.5735   21.4885 H   0  0  0  0  0  0
  -28.1211  -22.3018   21.1044 H   0  0  0  0  0  0
  1 25  1  0  0  0
  1 30  2  0  0  0
  1 81  1  0  0  0
  2  3  1  0  0  0
  2 25  1  0  0  0
  2 86  1  0  0  0
  2 87  1  0  0  0
  3  4  1  0  0  0
  3 88  1  0  0  0
  3 89  1  0  0  0
  4  5  1  0  0  0
  4 90  1  0  0  0
  4 91  1  0  0  0
  5  6  1  0  0  0
  5 26  1  0  0  0
  5 92  1  0  0  0
  6 25  1  0  0  0
  6 93  1  0  0  0
  6 94  1  0  0  0
  7  8  2  0  0  0
  7 26  1  0  0  0
  7 29  1  0  0  0
  8  9  1  0  0  0
  8 22  1  0  0  0
  9 10  1  0  0  0
  9 27  2  0  0  0
 10 11  2  0  0  0
 10 15  1  0  0  0
 11 12  1  0  0  0
 11 95  1  0  0  0
 12 13  2  0  0  0
 12 96  1  0  0  0
 13 14  1  0  0  0
 13 31  1  0  0  0
 14 15  2  0  0  0
 14 97  1  0  0  0
 15 98  1  0  0  0
 16 17  2  0  0  0
 16 21  1  0  0  0
 16 31  1  0  0  0
 17 18  1  0  0  0
 17 99  1  0  0  0
 18 19  2  0  0  0
 18100  1  0  0  0
 19 20  1  0  0  0
 19 24  1  0  0  0
 20 21  2  0  0  0
 20101  1  0  0  0
 21 23  1  0  0  0
 22 28  1  0  0  0
 22 32  2  0  0  0
 26 27  1  0  0  0
 28102  1  0  0  0
 28103  1  0  0  0
 29104  1  0  0  0
 29105  1  0  0  0
 33 34  1  0  0  0
 33 66  1  0  0  0
 33 70  2  0  0  0
 34 36  1  0  0  0
 34 59  1  0  0  0
 34106  1  0  0  0
 35 44  2  0  0  0
 35 45  1  0  0  0
 35 68  1  0  0  0
 36 56  1  0  0  0
 36107  1  0  0  0
 37 39  1  0  0  0
 37 47  1  0  0  0
 37 66  1  0  0  0
 37108  1  0  0  0
 38 43  2  0  0  0
 38 46  1  0  0  0
 38 47  1  0  0  0
 39 64  1  0  0  0
 39 67  2  0  0  0
 40 52  1  0  0  0
 40 53  2  0  0  0
 40 58  1  0  0  0
 41109  1  0  0  0
 41110  1  0  0  0
 41111  1  0  0  0
 41 48  1  0  0  0
 42 43  1  0  0  0
 42 66  1  0  0  0
 42112  1  0  0  0
 42113  1  0  0  0
 43 44  1  0  0  0
 44114  1  0  0  0
 45 46  2  0  0  0
 45115  1  0  0  0
 46116  1  0  0  0
 47117  1  0  0  0
 47118  1  0  0  0
 48 56  1  0  0  0
 48 65  1  0  0  0
 48119  1  0  0  0
 49 50  1  0  0  0
 49 53  1  0  0  0
 49 64  1  0  0  0
 49120  1  0  0  0
 50 51  1  0  0  0
 50121  1  0  0  0
 50122  1  0  0  0
 51 52  1  0  0  0
 51123  1  0  0  0
 51124  1  0  0  0
 52125  1  0  0  0
 52126  1  0  0  0
 53 54  1  0  0  0
 54 55  2  0  0  0
 54127  1  0  0  0
 55 57  1  0  0  0
 55128  1  0  0  0
 56 69  2  0  0  0
 57 58  2  0  0  0
 57129  1  0  0  0
 58130  1  0  0  0
 59 60  1  0  0  0
 59 61  1  0  0  0
 59 62  1  0  0  0
 60131  1  0  0  0
 60132  1  0  0  0
 60133  1  0  0  0
 61134  1  0  0  0
 61135  1  0  0  0
 61136  1  0  0  0
 62137  1  0  0  0
 62138  1  0  0  0
 62139  1  0  0  0
 63 65  1  0  0  0
 63140  1  0  0  0
 63141  1  0  0  0
 63142  1  0  0  0
 64143  1  0  0  0
 65144  1  0  0  0
 68 79  1  0  0  0
 71 73  2  0  0  0
 71 74  1  0  0  0
 71145  1  0  0  0
 72 75  1  0  0  0
 72 76  2  0  0  0
 72146  1  0  0  0
 73 76  1  0  0  0
 73 78  1  0  0  0
 74 75  2  0  0  0
 74 81  1  0  0  0
 75 82  1  0  0  0
 76 85  1  0  0  0
 77147  1  0  0  0
 77148  1  0  0  0
 77149  1  0  0  0
 77 80  1  0  0  0
 78 83  1  0  0  0
 78150  1  0  0  0
 78151  1  0  0  0
 79 80  1  0  0  0
 79152  1  0  0  0
 79153  1  0  0  0
 80 83  1  0  0  0
 80154  1  0  0  0
 81155  1  0  0  0
 82 84  1  0  0  0
 82156  1  0  0  0
 83157  1  0  0  0
 83158  1  0  0  0
M  CHG  1  83   1
M  ISO  4   1 100  68 101  79 101  81 100
M  END
> <chiral flag>
0

> <version>
0

> <s_m_source_file>
/data/baiqing/PycharmProjects/Reinvent-master-3.2/result/LINK_invent/BTK/process_docking_weight1_custom_sum_contain_oxygen_bond_distance_aromatic_linkinvent_7_9_3/rearranged_h_0016.sdf

> <i_m_source_file_index>
12

> <r_mmod_Potential_Energy-OPLS-2005>
-37.5249137878418

> <r_mmod_Stretch_Energy-OPLS-2005>
126.806098937988

> <r_mmod_Bend_Energy-OPLS-2005>
169.647323608398

> <r_mmod_Torsional_Energy-OPLS-2005>
252.92854309082

> <r_mmod_Improper_Torsional_Energy-OPLS-2005>
6.05989027023315

> <r_mmod_Van_der_Waal_Energy-OPLS-2005>
139.74186706543

> <r_mmod_Electrostatic_Energy-OPLS-2005>
-330.183227539062

> <r_mmod_Solvation_Energy-OPLS-2005>
-478.461486816406

> <b_mmod_Minimization_Converged-OPLS-2005>
0

> <r_mmod_RMS_Derivative-OPLS-2005>
6.1017279624939

$$$$
12
                    3D
 Structure written by MMmdl.
177185  0  0  1  0            999 V2000
  -30.6746  -14.4856   20.4242 C   0  0  0  0  0  0
  -30.4541  -12.2244   19.4893 C   0  0  0  0  0  0
  -29.5339  -12.3121   18.2577 C   0  0  0  0  0  0
  -28.0435  -12.2275   18.6777 C   0  0  0  0  0  0
  -27.6727  -13.1527   19.8737 C   0  0  2  0  0  0
  -28.7182  -13.0111   21.0040 C   0  0  0  0  0  0
  -25.2716  -13.8009   20.5571 C   0  0  0  0  0  0
  -24.1923  -13.0401   20.9183 C   0  0  0  0  0  0
  -24.6410  -11.6883   20.8824 C   0  0  0  0  0  0
  -23.9024  -10.4287   21.0462 C   0  0  0  0  0  0
  -24.3589   -9.4207   21.9228 C   0  0  0  0  0  0
  -23.6262   -8.2258   22.0787 C   0  0  0  0  0  0
  -22.4246   -8.0311   21.3585 C   0  0  0  0  0  0
  -21.9875   -9.0299   20.4704 C   0  0  0  0  0  0
  -22.7211  -10.2169   20.3109 C   0  0  0  0  0  0
  -21.6877   -6.0744   22.5289 C   0  0  0  0  0  0
  -21.4033   -6.5643   23.8218 C   0  0  0  0  0  0
  -21.3618   -5.6801   24.9172 C   0  0  0  0  0  0
  -21.6047   -4.3059   24.7225 C   0  0  0  0  0  0
  -21.8830   -3.8155   23.4336 C   0  0  0  0  0  0
  -21.9209   -4.6980   22.3399 C   0  0  0  0  0  0
  -22.7987  -13.5271   21.1823 C   0  0  0  0  0  0
  -22.1678   -4.2133   21.0982 F   0  0  0  0  0  0
  -21.5595   -3.4573   25.7734 F   0  0  0  0  0  0
  -30.0541  -13.2767   20.4312 N   0  0  0  0  0  0
  -26.3124  -12.9094   20.3434 N   0  0  0  0  0  0
  -25.9314  -11.6318   20.5923 N   0  0  0  0  0  0
  -22.0597  -12.8296   22.0369 N   0  0  0  0  0  0
  -25.4391  -15.1673   20.3780 N   0  0  0  0  0  0
  -31.8516  -14.6566   20.0869 O   0  0  0  0  0  0
  -21.6677   -6.8884   21.4246 O   0  0  0  0  0  0
  -22.3723  -14.5617   20.6695 O   0  0  0  0  0  0
  -24.6033  -31.8588   23.2093 C   0  0  0  0  0  0
  -25.8945  -32.4789   23.8329 C   0  0  1  0  0  0
  -27.2586  -27.4568   20.0845 C   0  0  0  0  0  0
  -25.5842  -33.8573   24.2273 N   0  0  0  0  0  0
  -23.3928  -30.4655   21.5483 C   0  0  2  0  0  0
  -24.8465  -28.9485   20.1062 C   0  0  0  0  0  0
  -22.7339  -29.4365   22.4990 C   0  0  0  0  0  0
  -18.0178  -28.1348   22.8484 C   0  0  0  0  0  0
  -24.1494  -36.7314   23.2638 C   0  0  0  0  0  0
  -25.9112  -30.8348   21.3526 C   0  0  0  0  0  0
  -25.9981  -29.4634   20.7180 C   0  0  0  0  0  0
  -27.1932  -28.7200   20.7174 C   0  0  0  0  0  0
  -26.0960  -26.9566   19.4588 C   0  0  0  0  0  0
  -24.8928  -27.6948   19.4716 C   0  0  0  0  0  0
  -23.6062  -29.8046   20.1587 C   0  0  0  0  0  0
  -25.4103  -36.3073   24.0335 C   0  0  1  0  0  0
  -20.5828  -28.3398   23.1529 C   0  0  2  0  0  0
  -20.6347  -26.9043   22.5852 C   0  0  0  0  0  0
  -19.5749  -26.6935   21.5064 C   0  0  0  0  0  0
  -18.1910  -26.7870   22.1600 C   0  0  0  0  0  0
  -19.1488  -28.8755   23.2958 C   0  0  0  0  0  0
  -18.9514  -30.1420   23.8875 C   0  0  0  0  0  0
  -17.6512  -30.6540   24.0595 C   0  0  0  0  0  0
  -25.9025  -34.9457   23.5082 C   0  0  0  0  0  0
  -16.5373  -29.9114   23.6382 C   0  0  0  0  0  0
  -16.7174  -28.6502   23.0348 C   0  0  0  0  0  0
  -26.4463  -31.6573   25.0623 C   0  0  0  0  0  0
  -25.3764  -31.3616   26.1371 C   0  0  0  0  0  0
  -27.0258  -30.3046   24.5914 C   0  0  0  0  0  0
  -27.6045  -32.4260   25.7421 C   0  0  0  0  0  0
  -27.5568  -37.1797   24.8457 C   0  0  0  0  0  0
  -21.4108  -29.2483   22.3636 N   0  0  0  0  0  0
  -26.4294  -37.3770   23.9404 N   0  0  0  0  0  0
  -24.6548  -31.0670   22.0981 N   0  0  0  0  0  0
  -23.4187  -28.8178   23.3162 O   0  0  0  0  0  0
  -28.4753  -26.8004   20.1151 O   0  0  0  0  0  0
  -26.5575  -34.8889   22.4653 O   0  0  0  0  0  0
  -23.5267  -32.1387   23.7519 O   0  0  0  0  0  0
  -27.9490  -18.8780   20.0888 C   0  0  0  0  0  0
  -27.6354  -17.7773   19.2800 C   0  0  0  0  0  0
  -29.2495  -19.0340   20.6278 C   0  0  0  0  0  0
  -28.6430  -16.8379   18.9858 C   0  0  0  0  0  0
  -30.1327  -17.9180   20.5753 C   0  0  0  0  0  0
  -29.7164  -16.7327   19.9126 C   0  0  0  0  0  0
  -31.5380  -18.0050   21.1556 C   0  0  0  0  0  0
  -29.5020  -22.4269   23.6123 C   0  0  0  0  0  0
  -27.8529  -15.3486   17.0249 C   0  0  0  0  0  0
  -30.2705  -16.0690   17.1616 C   0  0  0  0  0  0
  -28.4781  -17.6757   16.5990 C   0  0  0  0  0  0
  -29.6703  -20.3675   21.2636 C   0  0  0  0  0  0
  -28.1455  -24.4061   20.6125 C   0  0  0  0  0  0
  -29.2745  -23.6154   21.3188 C   0  0  0  0  0  0
  -28.6055  -25.4738   19.5958 C   0  0  0  0  0  0
  -28.7300  -22.5263   22.2875 C   0  0  1  0  0  0
  -28.8078  -16.4560   17.4913 C   0  0  0  0  0  0
  -29.8384  -15.5055   20.6434 N   0  0  0  0  0  0
  -28.5010  -21.1978   21.6528 N   0  3  0  0  0  0
  -31.4975  -12.3105   19.1929 H   0  0  0  0  0  0
  -30.3639  -11.2506   19.9765 H   0  0  0  0  0  0
  -29.7678  -11.4871   17.5800 H   0  0  0  0  0  0
  -29.7637  -13.2085   17.6906 H   0  0  0  0  0  0
  -27.8687  -11.1905   18.9698 H   0  0  0  0  0  0
  -27.3917  -12.3900   17.8202 H   0  0  0  0  0  0
  -27.7010  -14.1827   19.5335 H   0  0  0  0  0  0
  -28.6926  -12.0079   21.4295 H   0  0  0  0  0  0
  -28.4838  -13.6758   21.8376 H   0  0  0  0  0  0
  -25.2766   -9.5713   22.4753 H   0  0  0  0  0  0
  -24.0029   -7.4669   22.7472 H   0  0  0  0  0  0
  -21.0823   -8.8864   19.8990 H   0  0  0  0  0  0
  -22.3725  -10.9751   19.6212 H   0  0  0  0  0  0
  -21.2059   -7.6161   23.9705 H   0  0  0  0  0  0
  -21.1396   -6.0532   25.9056 H   0  0  0  0  0  0
  -22.0630   -2.7616   23.2877 H   0  0  0  0  0  0
  -22.4209  -12.0018   22.4890 H   0  0  0  0  0  0
  -21.1254  -13.1460   22.2546 H   0  0  0  0  0  0
  -24.6424  -15.7864   20.4341 H   0  0  0  0  0  0
  -26.2692  -15.6169   20.0190 H   0  0  0  0  0  0
  -26.6961  -32.5576   23.1069 H   0  0  0  0  0  0
  -25.0064  -33.9728   25.0451 H   0  0  0  0  0  0
  -22.6749  -31.2675   21.4065 H   0  0  0  0  0  0
  -23.3740  -35.9676   23.3341 H   0  0  0  0  0  0
  -24.3585  -36.8902   22.2049 H   0  0  0  0  0  0
  -23.7262  -37.6535   23.6654 H   0  0  0  0  0  0
  -25.9924  -31.5897   20.5651 H   0  0  0  0  0  0
  -26.8150  -30.9175   21.9450 H   0  0  0  0  0  0
  -28.0824  -29.1076   21.2001 H   0  0  0  0  0  0
  -26.0939  -26.0106   18.9366 H   0  0  0  0  0  0
  -24.0184  -27.2941   18.9765 H   0  0  0  0  0  0
  -23.7111  -30.5817   19.4030 H   0  0  0  0  0  0
  -22.7467  -29.2041   19.8567 H   0  0  0  0  0  0
  -25.1294  -36.1951   25.0844 H   0  0  0  0  0  0
  -20.9943  -28.2967   24.1662 H   0  0  0  0  0  0
  -20.3688  -26.2216   23.3938 H   0  0  0  0  0  0
  -21.6322  -26.6052   22.2813 H   0  0  0  0  0  0
  -19.7064  -25.7338   21.0122 H   0  0  0  0  0  0
  -19.6786  -27.4656   20.7371 H   0  0  0  0  0  0
  -17.4099  -26.6302   21.4148 H   0  0  0  0  0  0
  -18.0907  -26.0034   22.9137 H   0  0  0  0  0  0
  -19.8032  -30.7200   24.2244 H   0  0  0  0  0  0
  -17.5133  -31.6154   24.5288 H   0  0  0  0  0  0
  -15.5398  -30.3043   23.7809 H   0  0  0  0  0  0
  -15.8524  -28.0880   22.6934 H   0  0  0  0  0  0
  -24.5971  -30.6946   25.7662 H   0  0  0  0  0  0
  -24.8939  -32.2764   26.4861 H   0  0  0  0  0  0
  -25.8171  -30.8743   27.0076 H   0  0  0  0  0  0
  -26.2718  -29.6795   24.1125 H   0  0  0  0  0  0
  -27.4238  -29.7294   25.4273 H   0  0  0  0  0  0
  -27.8474  -30.4391   23.8862 H   0  0  0  0  0  0
  -27.2679  -33.3540   26.2070 H   0  0  0  0  0  0
  -28.3899  -32.6824   25.0284 H   0  0  0  0  0  0
  -28.0680  -31.8304   26.5316 H   0  0  0  0  0  0
  -28.2579  -38.0091   24.7485 H   0  0  0  0  0  0
  -28.1056  -36.2611   24.6338 H   0  0  0  0  0  0
  -27.2266  -37.1505   25.8850 H   0  0  0  0  0  0
  -20.9288  -29.7672   21.6418 H   0  0  0  0  0  0
  -26.0181  -38.2851   24.1434 H   0  0  0  0  0  0
  -27.2008  -19.6500   20.1580 H   0  0  0  0  0  0
  -26.7168  -17.8044   18.7106 H   0  0  0  0  0  0
  -31.5172  -18.3274   22.1927 H   0  0  0  0  0  0
  -32.1245  -18.7126   20.5672 H   0  0  0  0  0  0
  -32.0539  -17.0432   21.1189 H   0  0  0  0  0  0
  -29.4169  -23.3667   24.1641 H   0  0  0  0  0  0
  -30.5609  -22.2182   23.4610 H   0  0  0  0  0  0
  -29.0788  -21.6488   24.2519 H   0  0  0  0  0  0
  -28.0877  -14.4187   17.5054 H   0  0  0  0  0  0
  -27.9509  -15.1562   15.9560 H   0  0  0  0  0  0
  -26.8025  -15.5700   17.2171 H   0  0  0  0  0  0
  -30.6130  -15.1816   17.6883 H   0  0  0  0  0  0
  -30.9615  -16.8721   17.4150 H   0  0  0  0  0  0
  -30.3969  -15.8543   16.1015 H   0  0  0  0  0  0
  -28.9978  -18.5705   16.9493 H   0  0  0  0  0  0
  -27.4118  -17.8864   16.5897 H   0  0  0  0  0  0
  -28.7544  -17.5225   15.5537 H   0  0  0  0  0  0
  -30.3121  -20.8977   20.5547 H   0  0  0  0  0  0
  -30.2644  -20.1597   22.1520 H   0  0  0  0  0  0
  -27.5119  -24.8717   21.3730 H   0  0  0  0  0  0
  -27.5089  -23.7028   20.0855 H   0  0  0  0  0  0
  -29.8662  -24.3240   21.8946 H   0  0  0  0  0  0
  -29.9634  -23.1973   20.5887 H   0  0  0  0  0  0
  -28.0981  -25.3740   18.6388 H   0  0  0  0  0  0
  -29.6528  -25.3026   19.3589 H   0  0  0  0  0  0
  -27.7348  -22.8627   22.5754 H   0  0  0  0  0  0
  -28.9742  -15.1749   21.0493 H   0  0  0  0  0  0
  -27.9377  -20.6417   22.2768 H   0  0  0  0  0  0
  -27.9511  -21.3297   20.8212 H   0  0  0  0  0  0
  1 25  1  0  0  0
  1 30  2  0  0  0
  1 88  1  0  0  0
  2  3  1  0  0  0
  2 25  1  0  0  0
  2 90  1  0  0  0
  2 91  1  0  0  0
  3  4  1  0  0  0
  3 92  1  0  0  0
  3 93  1  0  0  0
  4  5  1  0  0  0
  4 94  1  0  0  0
  4 95  1  0  0  0
  5  6  1  0  0  0
  5 26  1  0  0  0
  5 96  1  0  0  0
  6 25  1  0  0  0
  6 97  1  0  0  0
  6 98  1  0  0  0
  7  8  2  0  0  0
  7 26  1  0  0  0
  7 29  1  0  0  0
  8  9  1  0  0  0
  8 22  1  0  0  0
  9 10  1  0  0  0
  9 27  2  0  0  0
 10 11  2  0  0  0
 10 15  1  0  0  0
 11 12  1  0  0  0
 11 99  1  0  0  0
 12 13  2  0  0  0
 12100  1  0  0  0
 13 14  1  0  0  0
 13 31  1  0  0  0
 14 15  2  0  0  0
 14101  1  0  0  0
 15102  1  0  0  0
 16 17  2  0  0  0
 16 21  1  0  0  0
 16 31  1  0  0  0
 17 18  1  0  0  0
 17103  1  0  0  0
 18 19  2  0  0  0
 18104  1  0  0  0
 19 20  1  0  0  0
 19 24  1  0  0  0
 20 21  2  0  0  0
 20105  1  0  0  0
 21 23  1  0  0  0
 22 28  1  0  0  0
 22 32  2  0  0  0
 26 27  1  0  0  0
 28106  1  0  0  0
 28107  1  0  0  0
 29108  1  0  0  0
 29109  1  0  0  0
 33 34  1  0  0  0
 33 66  1  0  0  0
 33 70  2  0  0  0
 34 36  1  0  0  0
 34 59  1  0  0  0
 34110  1  0  0  0
 35 44  2  0  0  0
 35 45  1  0  0  0
 35 68  1  0  0  0
 36 56  1  0  0  0
 36111  1  0  0  0
 37 39  1  0  0  0
 37 47  1  0  0  0
 37 66  1  0  0  0
 37112  1  0  0  0
 38 43  2  0  0  0
 38 46  1  0  0  0
 38 47  1  0  0  0
 39 64  1  0  0  0
 39 67  2  0  0  0
 40 52  1  0  0  0
 40 53  2  0  0  0
 40 58  1  0  0  0
 41113  1  0  0  0
 41114  1  0  0  0
 41115  1  0  0  0
 41 48  1  0  0  0
 42 43  1  0  0  0
 42 66  1  0  0  0
 42116  1  0  0  0
 42117  1  0  0  0
 43 44  1  0  0  0
 44118  1  0  0  0
 45 46  2  0  0  0
 45119  1  0  0  0
 46120  1  0  0  0
 47121  1  0  0  0
 47122  1  0  0  0
 48 56  1  0  0  0
 48 65  1  0  0  0
 48123  1  0  0  0
 49 50  1  0  0  0
 49 53  1  0  0  0
 49 64  1  0  0  0
 49124  1  0  0  0
 50 51  1  0  0  0
 50125  1  0  0  0
 50126  1  0  0  0
 51 52  1  0  0  0
 51127  1  0  0  0
 51128  1  0  0  0
 52129  1  0  0  0
 52130  1  0  0  0
 53 54  1  0  0  0
 54 55  2  0  0  0
 54131  1  0  0  0
 55 57  1  0  0  0
 55132  1  0  0  0
 56 69  2  0  0  0
 57 58  2  0  0  0
 57133  1  0  0  0
 58134  1  0  0  0
 59 60  1  0  0  0
 59 61  1  0  0  0
 59 62  1  0  0  0
 60135  1  0  0  0
 60136  1  0  0  0
 60137  1  0  0  0
 61138  1  0  0  0
 61139  1  0  0  0
 61140  1  0  0  0
 62141  1  0  0  0
 62142  1  0  0  0
 62143  1  0  0  0
 63 65  1  0  0  0
 63144  1  0  0  0
 63145  1  0  0  0
 63146  1  0  0  0
 64147  1  0  0  0
 65148  1  0  0  0
 68 85  1  0  0  0
 71 72  2  0  0  0
 71 73  1  0  0  0
 71149  1  0  0  0
 72 74  1  0  0  0
 72150  1  0  0  0
 73 75  2  0  0  0
 73 82  1  0  0  0
 74 76  2  0  0  0
 74 87  1  0  0  0
 75 76  1  0  0  0
 75 77  1  0  0  0
 76 88  1  0  0  0
 77151  1  0  0  0
 77152  1  0  0  0
 77153  1  0  0  0
 78154  1  0  0  0
 78155  1  0  0  0
 78156  1  0  0  0
 78 86  1  0  0  0
 79157  1  0  0  0
 79158  1  0  0  0
 79159  1  0  0  0
 79 87  1  0  0  0
 80 87  1  0  0  0
 80160  1  0  0  0
 80161  1  0  0  0
 80162  1  0  0  0
 81 87  1  0  0  0
 81163  1  0  0  0
 81164  1  0  0  0
 81165  1  0  0  0
 82 89  1  0  0  0
 82166  1  0  0  0
 82167  1  0  0  0
 83 84  1  0  0  0
 83 85  1  0  0  0
 83168  1  0  0  0
 83169  1  0  0  0
 84 86  1  0  0  0
 84170  1  0  0  0
 84171  1  0  0  0
 85172  1  0  0  0
 85173  1  0  0  0
 86 89  1  0  0  0
 86174  1  0  0  0
 88175  1  0  0  0
 89176  1  0  0  0
 89177  1  0  0  0
M  CHG  1  89   1
M  ISO  4   1 100  68 101  85 101  88 100
M  END
> <chiral flag>
0

> <version>
0

> <s_m_source_file>
/data/baiqing/PycharmProjects/Reinvent-master-3.2/result/LINK_invent/BTK/process_docking_weight1_custom_sum_contain_oxygen_bond_distance_aromatic_linkinvent_7_9_3/rearranged_h_0016.sdf

> <i_m_source_file_index>
13

> <r_mmod_Potential_Energy-OPLS-2005>
42.8292427062988

> <r_mmod_Stretch_Energy-OPLS-2005>
44.2353210449219

> <r_mmod_Bend_Energy-OPLS-2005>
131.323654174805

> <r_mmod_Torsional_Energy-OPLS-2005>
439.475433349609

> <r_mmod_Improper_Torsional_Energy-OPLS-2005>
23.2753772735596

> <r_mmod_Van_der_Waal_Energy-OPLS-2005>
166.815628051758

> <r_mmod_Electrostatic_Energy-OPLS-2005>
-351.136962890625

> <r_mmod_Solvation_Energy-OPLS-2005>
-442.156280517578

> <b_mmod_Minimization_Converged-OPLS-2005>
0

> <r_mmod_RMS_Derivative-OPLS-2005>
11.443398475647

$$$$
13
                    3D
 Structure written by MMmdl.
165173  0  0  1  0            999 V2000
  -30.6506  -14.7489   20.4883 C   0  0  0  0  0  0
  -30.4231  -12.4606   19.4923 C   0  0  0  0  0  0
  -29.5120  -12.5233   18.2468 C   0  0  0  0  0  0
  -28.0386  -12.3418   18.6547 C   0  0  0  0  0  0
  -27.6421  -13.2423   19.8555 C   0  0  2  0  0  0
  -28.6854  -13.1928   20.9983 C   0  0  0  0  0  0
  -25.2470  -13.8212   20.5696 C   0  0  0  0  0  0
  -24.1779  -13.0434   20.9223 C   0  0  0  0  0  0
  -24.6393  -11.6921   20.8754 C   0  0  0  0  0  0
  -23.9074  -10.4288   21.0404 C   0  0  0  0  0  0
  -24.3630   -9.4212   21.9181 C   0  0  0  0  0  0
  -23.6305   -8.2248   22.0749 C   0  0  0  0  0  0
  -22.4290   -8.0283   21.3536 C   0  0  0  0  0  0
  -21.9925   -9.0262   20.4642 C   0  0  0  0  0  0
  -22.7262  -10.2139   20.3050 C   0  0  0  0  0  0
  -21.6859   -6.0744   22.5275 C   0  0  0  0  0  0
  -21.4036   -6.5643   23.8216 C   0  0  0  0  0  0
  -21.3659   -5.6789   24.9164 C   0  0  0  0  0  0
  -21.6038   -4.3052   24.7222 C   0  0  0  0  0  0
  -21.8809   -3.8150   23.4337 C   0  0  0  0  0  0
  -21.9189   -4.6970   22.3394 C   0  0  0  0  0  0
  -22.7796  -13.5213   21.1858 C   0  0  0  0  0  0
  -22.1650   -4.2153   21.0971 F   0  0  0  0  0  0
  -21.5618   -3.4527   25.7733 F   0  0  0  0  0  0
  -29.9920  -13.5355   20.4231 N   0  0  0  0  0  0
  -26.2930  -12.9456   20.3305 N   0  0  0  0  0  0
  -25.9337  -11.6583   20.5774 N   0  0  0  0  0  0
  -22.0431  -12.8229   22.0423 N   0  0  0  0  0  0
  -25.4099  -15.1941   20.4071 N   0  0  0  0  0  0
  -31.8018  -14.8057   20.0507 O   0  0  0  0  0  0
  -21.6640   -6.8893   21.4240 O   0  0  0  0  0  0
  -22.3479  -14.5505   20.6672 O   0  0  0  0  0  0
  -24.6309  -31.8548   23.1981 C   0  0  0  0  0  0
  -25.9139  -32.4752   23.8331 C   0  0  1  0  0  0
  -27.2238  -27.2523   20.1374 C   0  0  0  0  0  0
  -25.5943  -33.8552   24.2260 N   0  0  0  0  0  0
  -23.4282  -30.4785   21.5387 C   0  0  2  0  0  0
  -24.8776  -28.9229   20.1065 C   0  0  0  0  0  0
  -22.7504  -29.4614   22.4888 C   0  0  0  0  0  0
  -18.0296  -28.1387   22.8487 C   0  0  0  0  0  0
  -24.1487  -36.7286   23.2639 C   0  0  0  0  0  0
  -25.9727  -30.7647   21.3800 C   0  0  0  0  0  0
  -26.0450  -29.3851   20.7254 C   0  0  0  0  0  0
  -27.2151  -28.5594   20.7348 C   0  0  0  0  0  0
  -26.0398  -26.8711   19.4652 C   0  0  0  0  0  0
  -24.8818  -27.6755   19.4641 C   0  0  0  0  0  0
  -23.6481  -29.8110   20.1545 C   0  0  0  0  0  0
  -25.4110  -36.3068   24.0329 C   0  0  1  0  0  0
  -20.5900  -28.3708   23.1259 C   0  0  2  0  0  0
  -20.6779  -26.9423   22.5406 C   0  0  0  0  0  0
  -19.5758  -26.6382   21.5208 C   0  0  0  0  0  0
  -18.1936  -26.7930   22.1619 C   0  0  0  0  0  0
  -19.1548  -28.8860   23.2870 C   0  0  0  0  0  0
  -18.9469  -30.1454   23.8903 C   0  0  0  0  0  0
  -17.6466  -30.6588   24.0563 C   0  0  0  0  0  0
  -25.9051  -34.9437   23.5092 C   0  0  0  0  0  0
  -16.5361  -29.9088   23.6322 C   0  0  0  0  0  0
  -16.7281  -28.6500   23.0357 C   0  0  0  0  0  0
  -26.4508  -31.6577   25.0720 C   0  0  0  0  0  0
  -25.3727  -31.3736   26.1440 C   0  0  0  0  0  0
  -27.0354  -30.2992   24.6207 C   0  0  0  0  0  0
  -27.6055  -32.4325   25.7498 C   0  0  0  0  0  0
  -27.5577  -37.1802   24.8463 C   0  0  0  0  0  0
  -21.4206  -29.3060   22.3641 N   0  0  0  0  0  0
  -26.4290  -37.3769   23.9404 N   0  0  0  0  0  0
  -24.6960  -31.0518   22.0953 N   0  0  0  0  0  0
  -23.4194  -28.8159   23.2993 O   0  0  0  0  0  0
  -28.3333  -26.3749   20.2378 O   0  0  0  0  0  0
  -26.5617  -34.8919   22.4655 O   0  0  0  0  0  0
  -23.5460  -32.1375   23.7280 O   0  0  0  0  0  0
  -31.3520  -20.0740   21.0680 C   0  0  0  0  0  0
  -32.2104  -19.0031   21.3708 C   0  0  0  0  0  0
  -31.7351  -17.6674   21.4223 C   0  0  0  0  0  0
  -29.5292  -18.5052   20.7503 C   0  0  0  0  0  0
  -29.9776  -19.9006   20.8140 C   0  0  0  0  0  0
  -30.4108  -17.3443   20.9780 C   0  0  0  0  0  0
  -29.4159  -22.2937   20.2967 C   0  0  0  0  0  0
  -33.6608  -19.3337   21.7031 C   0  0  0  0  0  0
  -32.6647  -16.6420   22.0757 C   0  0  0  0  0  0
  -28.0506  -18.2797   20.4803 C   0  0  0  0  0  0
  -30.3694  -22.3939   19.1133 C   0  0  0  0  0  0
  -28.2831  -24.8958   19.9076 C   0  0  0  0  0  0
  -28.9608  -23.7544   20.8647 C   0  0  2  0  0  0
  -30.1471  -24.3793   21.6440 C   0  0  0  0  0  0
  -29.1437  -21.1119   20.8445 N   0  0  0  0  0  0
  -29.9711  -15.9053   20.8798 N   0  0  0  0  0  0
  -30.7280  -23.4912   22.4550 F   0  0  0  0  0  0
  -29.7200  -25.3837   22.4113 F   0  0  0  0  0  0
  -31.0752  -24.8527   20.8085 F   0  0  0  0  0  0
  -31.4694  -12.5495   19.1967 H   0  0  0  0  0  0
  -30.3426  -11.4863   19.9766 H   0  0  0  0  0  0
  -29.8052  -11.7638   17.5220 H   0  0  0  0  0  0
  -29.6378  -13.4856   17.7489 H   0  0  0  0  0  0
  -27.8984  -11.2933   18.9185 H   0  0  0  0  0  0
  -27.3836  -12.5314   17.8026 H   0  0  0  0  0  0
  -27.6361  -14.2633   19.4717 H   0  0  0  0  0  0
  -28.7186  -12.2035   21.4584 H   0  0  0  0  0  0
  -28.4156  -13.8906   21.7920 H   0  0  0  0  0  0
  -25.2773   -9.5697   22.4754 H   0  0  0  0  0  0
  -24.0005   -7.4650   22.7476 H   0  0  0  0  0  0
  -21.0846   -8.8796   19.8966 H   0  0  0  0  0  0
  -22.3713  -10.9677   19.6150 H   0  0  0  0  0  0
  -21.2061   -7.6159   23.9732 H   0  0  0  0  0  0
  -21.1479   -6.0509   25.9071 H   0  0  0  0  0  0
  -22.0593   -2.7614   23.2825 H   0  0  0  0  0  0
  -22.4050  -11.9924   22.4882 H   0  0  0  0  0  0
  -21.1039  -13.1257   22.2591 H   0  0  0  0  0  0
  -24.6327  -15.8371   20.5094 H   0  0  0  0  0  0
  -26.2398  -15.6331   20.0317 H   0  0  0  0  0  0
  -26.7202  -32.5408   23.1065 H   0  0  0  0  0  0
  -25.0110  -33.9692   25.0424 H   0  0  0  0  0  0
  -22.7252  -31.3008   21.3913 H   0  0  0  0  0  0
  -23.3754  -35.9619   23.3294 H   0  0  0  0  0  0
  -24.3578  -36.8916   22.2056 H   0  0  0  0  0  0
  -23.7241  -37.6484   23.6669 H   0  0  0  0  0  0
  -26.1096  -31.5242   20.6092 H   0  0  0  0  0  0
  -26.8501  -30.8173   22.0129 H   0  0  0  0  0  0
  -28.1034  -28.9051   21.2442 H   0  0  0  0  0  0
  -25.9717  -25.9358   18.9327 H   0  0  0  0  0  0
  -23.9927  -27.3236   18.9582 H   0  0  0  0  0  0
  -23.7768  -30.5859   19.3987 H   0  0  0  0  0  0
  -22.7656  -29.2471   19.8466 H   0  0  0  0  0  0
  -25.1294  -36.1910   25.0826 H   0  0  0  0  0  0
  -21.0007  -28.3292   24.1376 H   0  0  0  0  0  0
  -20.5662  -26.2333   23.3619 H   0  0  0  0  0  0
  -21.6645  -26.7439   22.1213 H   0  0  0  0  0  0
  -19.6919  -25.6286   21.1251 H   0  0  0  0  0  0
  -19.6686  -27.3178   20.6725 H   0  0  0  0  0  0
  -17.4209  -26.6684   21.4014 H   0  0  0  0  0  0
  -18.0337  -26.0066   22.9010 H   0  0  0  0  0  0
  -19.7941  -30.7256   24.2292 H   0  0  0  0  0  0
  -17.5024  -31.6266   24.5165 H   0  0  0  0  0  0
  -15.5361  -30.2991   23.7639 H   0  0  0  0  0  0
  -15.8684  -28.0811   22.7080 H   0  0  0  0  0  0
  -24.5902  -30.7088   25.7763 H   0  0  0  0  0  0
  -24.8925  -32.2913   26.4842 H   0  0  0  0  0  0
  -25.8041  -30.8920   27.0225 H   0  0  0  0  0  0
  -26.2932  -29.6734   24.1239 H   0  0  0  0  0  0
  -27.4039  -29.7261   25.4722 H   0  0  0  0  0  0
  -27.8811  -30.4257   23.9445 H   0  0  0  0  0  0
  -27.2657  -33.3638   26.2040 H   0  0  0  0  0  0
  -28.3888  -32.6863   25.0345 H   0  0  0  0  0  0
  -28.0699  -31.8476   26.5444 H   0  0  0  0  0  0
  -28.2595  -38.0101   24.7506 H   0  0  0  0  0  0
  -28.1077  -36.2628   24.6293 H   0  0  0  0  0  0
  -27.2302  -37.1459   25.8873 H   0  0  0  0  0  0
  -20.9391  -29.8791   21.6855 H   0  0  0  0  0  0
  -26.0165  -38.2849   24.1397 H   0  0  0  0  0  0
  -31.7601  -21.0715   21.1379 H   0  0  0  0  0  0
  -33.9450  -20.3156   21.3254 H   0  0  0  0  0  0
  -34.3463  -18.6146   21.2515 H   0  0  0  0  0  0
  -33.8187  -19.3352   22.7812 H   0  0  0  0  0  0
  -33.4259  -16.2964   21.3765 H   0  0  0  0  0  0
  -32.1304  -15.7848   22.4769 H   0  0  0  0  0  0
  -33.1809  -17.0694   22.9356 H   0  0  0  0  0  0
  -27.7780  -18.7009   19.5117 H   0  0  0  0  0  0
  -27.4543  -18.7793   21.2452 H   0  0  0  0  0  0
  -27.7722  -17.2280   20.4887 H   0  0  0  0  0  0
  -30.1131  -23.2217   18.4565 H   0  0  0  0  0  0
  -30.3400  -21.4872   18.5099 H   0  0  0  0  0  0
  -31.3923  -22.5492   19.4543 H   0  0  0  0  0  0
  -27.2547  -24.5671   19.7842 H   0  0  0  0  0  0
  -28.7235  -24.8292   18.9149 H   0  0  0  0  0  0
  -28.2151  -23.5361   21.6293 H   0  0  0  0  0  0
  -28.9933  -15.7464   21.0648 H   0  0  0  0  0  0
  1 25  1  0  0  0
  1 30  2  0  0  0
  1 86  1  0  0  0
  2  3  1  0  0  0
  2 25  1  0  0  0
  2 90  1  0  0  0
  2 91  1  0  0  0
  3  4  1  0  0  0
  3 92  1  0  0  0
  3 93  1  0  0  0
  4  5  1  0  0  0
  4 94  1  0  0  0
  4 95  1  0  0  0
  5  6  1  0  0  0
  5 26  1  0  0  0
  5 96  1  0  0  0
  6 25  1  0  0  0
  6 97  1  0  0  0
  6 98  1  0  0  0
  7  8  2  0  0  0
  7 26  1  0  0  0
  7 29  1  0  0  0
  8  9  1  0  0  0
  8 22  1  0  0  0
  9 10  1  0  0  0
  9 27  2  0  0  0
 10 11  2  0  0  0
 10 15  1  0  0  0
 11 12  1  0  0  0
 11 99  1  0  0  0
 12 13  2  0  0  0
 12100  1  0  0  0
 13 14  1  0  0  0
 13 31  1  0  0  0
 14 15  2  0  0  0
 14101  1  0  0  0
 15102  1  0  0  0
 16 17  2  0  0  0
 16 21  1  0  0  0
 16 31  1  0  0  0
 17 18  1  0  0  0
 17103  1  0  0  0
 18 19  2  0  0  0
 18104  1  0  0  0
 19 20  1  0  0  0
 19 24  1  0  0  0
 20 21  2  0  0  0
 20105  1  0  0  0
 21 23  1  0  0  0
 22 28  1  0  0  0
 22 32  2  0  0  0
 26 27  1  0  0  0
 28106  1  0  0  0
 28107  1  0  0  0
 29108  1  0  0  0
 29109  1  0  0  0
 33 34  1  0  0  0
 33 66  1  0  0  0
 33 70  2  0  0  0
 34 36  1  0  0  0
 34 59  1  0  0  0
 34110  1  0  0  0
 35 44  2  0  0  0
 35 45  1  0  0  0
 35 68  1  0  0  0
 36 56  1  0  0  0
 36111  1  0  0  0
 37 39  1  0  0  0
 37 47  1  0  0  0
 37 66  1  0  0  0
 37112  1  0  0  0
 38 43  2  0  0  0
 38 46  1  0  0  0
 38 47  1  0  0  0
 39 64  1  0  0  0
 39 67  2  0  0  0
 40 52  1  0  0  0
 40 53  2  0  0  0
 40 58  1  0  0  0
 41113  1  0  0  0
 41114  1  0  0  0
 41115  1  0  0  0
 41 48  1  0  0  0
 42 43  1  0  0  0
 42 66  1  0  0  0
 42116  1  0  0  0
 42117  1  0  0  0
 43 44  1  0  0  0
 44118  1  0  0  0
 45 46  2  0  0  0
 45119  1  0  0  0
 46120  1  0  0  0
 47121  1  0  0  0
 47122  1  0  0  0
 48 56  1  0  0  0
 48 65  1  0  0  0
 48123  1  0  0  0
 49 50  1  0  0  0
 49 53  1  0  0  0
 49 64  1  0  0  0
 49124  1  0  0  0
 50 51  1  0  0  0
 50125  1  0  0  0
 50126  1  0  0  0
 51 52  1  0  0  0
 51127  1  0  0  0
 51128  1  0  0  0
 52129  1  0  0  0
 52130  1  0  0  0
 53 54  1  0  0  0
 54 55  2  0  0  0
 54131  1  0  0  0
 55 57  1  0  0  0
 55132  1  0  0  0
 56 69  2  0  0  0
 57 58  2  0  0  0
 57133  1  0  0  0
 58134  1  0  0  0
 59 60  1  0  0  0
 59 61  1  0  0  0
 59 62  1  0  0  0
 60135  1  0  0  0
 60136  1  0  0  0
 60137  1  0  0  0
 61138  1  0  0  0
 61139  1  0  0  0
 61140  1  0  0  0
 62141  1  0  0  0
 62142  1  0  0  0
 62143  1  0  0  0
 63 65  1  0  0  0
 63144  1  0  0  0
 63145  1  0  0  0
 63146  1  0  0  0
 64147  1  0  0  0
 65148  1  0  0  0
 68 82  1  0  0  0
 71 72  2  0  0  0
 71 75  1  0  0  0
 71149  1  0  0  0
 72 73  1  0  0  0
 72 78  1  0  0  0
 73 76  2  0  0  0
 73 79  1  0  0  0
 74 75  2  0  0  0
 74 76  1  0  0  0
 74 80  1  0  0  0
 75 85  1  0  0  0
 76 86  1  0  0  0
 77 81  1  0  0  0
 77 83  1  0  0  0
 77 85  2  0  0  0
 78150  1  0  0  0
 78151  1  0  0  0
 78152  1  0  0  0
 79153  1  0  0  0
 79154  1  0  0  0
 79155  1  0  0  0
 80156  1  0  0  0
 80157  1  0  0  0
 80158  1  0  0  0
 81159  1  0  0  0
 81160  1  0  0  0
 81161  1  0  0  0
 82162  1  0  0  0
 82163  1  0  0  0
 82 83  1  0  0  0
 83 84  1  0  0  0
 83164  1  0  0  0
 84 87  1  0  0  0
 84 88  1  0  0  0
 84 89  1  0  0  0
 86165  1  0  0  0
M  ISO  4   1 100  68 101  82 101  86 100
M  END
> <chiral flag>
0

> <version>
0

> <s_m_source_file>
/data/baiqing/PycharmProjects/Reinvent-master-3.2/result/LINK_invent/BTK/process_docking_weight1_custom_sum_contain_oxygen_bond_distance_aromatic_linkinvent_7_9_3/rearranged_h_0016.sdf

> <i_m_source_file_index>
14

> <r_mmod_Potential_Energy-OPLS-2005>
288.186279296875

> <r_mmod_Stretch_Energy-OPLS-2005>
162.249618530273

> <r_mmod_Bend_Energy-OPLS-2005>
191.891540527344

> <r_mmod_Torsional_Energy-OPLS-2005>
280.929016113281

> <r_mmod_Improper_Torsional_Energy-OPLS-2005>
6.85664558410645

> <r_mmod_Van_der_Waal_Energy-OPLS-2005>
161.836837768555

> <r_mmod_Electrostatic_Energy-OPLS-2005>
-395.416259765625

> <r_mmod_Solvation_Energy-OPLS-2005>
-207.069808959961

> <b_mmod_Minimization_Converged-OPLS-2005>
0

> <r_mmod_RMS_Derivative-OPLS-2005>
2.82692384719849

$$$$
14
                    3D
 Structure written by MMmdl.
179187  0  0  1  0            999 V2000
  -30.7706  -14.3558   20.7087 C   0  0  0  0  0  0
  -30.4231  -12.2927   19.3961 C   0  0  0  0  0  0
  -29.4899  -12.5361   18.1953 C   0  0  0  0  0  0
  -28.0138  -12.3864   18.6079 C   0  0  0  0  0  0
  -27.6696  -13.2024   19.8809 C   0  0  2  0  0  0
  -28.7053  -12.9336   20.9955 C   0  0  0  0  0  0
  -25.2610  -13.8153   20.5645 C   0  0  0  0  0  0
  -24.1856  -13.0441   20.9161 C   0  0  0  0  0  0
  -24.6405  -11.6907   20.8725 C   0  0  0  0  0  0
  -23.9061  -10.4295   21.0393 C   0  0  0  0  0  0
  -24.3613   -9.4212   21.9171 C   0  0  0  0  0  0
  -23.6290   -8.2250   22.0749 C   0  0  0  0  0  0
  -22.4270   -8.0287   21.3547 C   0  0  0  0  0  0
  -21.9903   -9.0253   20.4640 C   0  0  0  0  0  0
  -22.7232  -10.2128   20.3041 C   0  0  0  0  0  0
  -21.6854   -6.0738   22.5280 C   0  0  0  0  0  0
  -21.4008   -6.5637   23.8212 C   0  0  0  0  0  0
  -21.3657   -5.6787   24.9174 C   0  0  0  0  0  0
  -21.6045   -4.3054   24.7224 C   0  0  0  0  0  0
  -21.8821   -3.8145   23.4345 C   0  0  0  0  0  0
  -21.9194   -4.6966   22.3403 C   0  0  0  0  0  0
  -22.7881  -13.5249   21.1825 C   0  0  0  0  0  0
  -22.1664   -4.2153   21.0980 F   0  0  0  0  0  0
  -21.5628   -3.4532   25.7735 F   0  0  0  0  0  0
  -30.0546  -13.2254   20.4708 N   0  0  0  0  0  0
  -26.3060  -12.9326   20.3357 N   0  0  0  0  0  0
  -25.9329  -11.6487   20.5745 N   0  0  0  0  0  0
  -22.0509  -12.8252   22.0384 N   0  0  0  0  0  0
  -25.4322  -15.1858   20.3998 N   0  0  0  0  0  0
  -31.7598  -14.6815   20.0430 O   0  0  0  0  0  0
  -21.6640   -6.8881   21.4243 O   0  0  0  0  0  0
  -22.3572  -14.5561   20.6678 O   0  0  0  0  0  0
  -24.6094  -31.8707   23.2123 C   0  0  0  0  0  0
  -25.9002  -32.4840   23.8417 C   0  0  1  0  0  0
  -27.2500  -27.4733   20.0915 C   0  0  0  0  0  0
  -25.5868  -33.8636   24.2344 N   0  0  0  0  0  0
  -23.3974  -30.4927   21.5511 C   0  0  2  0  0  0
  -24.8482  -28.9615   20.1189 C   0  0  0  0  0  0
  -22.7391  -29.4663   22.5000 C   0  0  0  0  0  0
  -18.0267  -28.1386   22.8489 C   0  0  0  0  0  0
  -24.1477  -36.7323   23.2639 C   0  0  0  0  0  0
  -25.9207  -30.8477   21.3608 C   0  0  0  0  0  0
  -26.0026  -29.4807   20.7182 C   0  0  0  0  0  0
  -27.2053  -28.7432   20.7144 C   0  0  0  0  0  0
  -26.0803  -26.9632   19.4940 C   0  0  0  0  0  0
  -24.8778  -27.6955   19.5087 C   0  0  0  0  0  0
  -23.6063  -29.8217   20.1665 C   0  0  0  0  0  0
  -25.4095  -36.3121   24.0348 C   0  0  1  0  0  0
  -20.5857  -28.3654   23.1330 C   0  0  2  0  0  0
  -20.6759  -26.9397   22.5417 C   0  0  0  0  0  0
  -19.5735  -26.6385   21.5219 C   0  0  0  0  0  0
  -18.1911  -26.7933   22.1619 C   0  0  0  0  0  0
  -19.1517  -28.8836   23.2907 C   0  0  0  0  0  0
  -18.9451  -30.1445   23.8916 C   0  0  0  0  0  0
  -17.6454  -30.6589   24.0570 C   0  0  0  0  0  0
  -25.9021  -34.9486   23.5146 C   0  0  0  0  0  0
  -16.5342  -29.9097   23.6330 C   0  0  0  0  0  0
  -16.7259  -28.6519   23.0344 C   0  0  0  0  0  0
  -26.4446  -31.6602   25.0723 C   0  0  0  0  0  0
  -25.3729  -31.3720   26.1489 C   0  0  0  0  0  0
  -27.0254  -30.3046   24.6059 C   0  0  0  0  0  0
  -27.6035  -32.4307   25.7479 C   0  0  0  0  0  0
  -27.5582  -37.1806   24.8460 C   0  0  0  0  0  0
  -21.4122  -29.3026   22.3740 N   0  0  0  0  0  0
  -26.4283  -37.3806   23.9422 N   0  0  0  0  0  0
  -24.6605  -31.0840   22.1009 N   0  0  0  0  0  0
  -23.4181  -28.8211   23.3035 O   0  0  0  0  0  0
  -28.3748  -26.6862   20.0018 O   0  0  0  0  0  0
  -26.5585  -34.8931   22.4708 O   0  0  0  0  0  0
  -23.5297  -32.1446   23.7535 O   0  0  0  0  0  0
  -30.0031  -18.7598   22.1680 C   0  0  0  0  0  0
  -29.6993  -17.3970   21.9074 C   0  0  0  0  0  0
  -31.2836  -19.1182   22.6707 C   0  0  0  0  0  0
  -31.9683  -16.7483   22.5978 C   0  0  0  0  0  0
  -30.6945  -16.4009   22.0784 C   0  0  0  0  0  0
  -32.2671  -18.1115   22.8653 C   0  0  0  0  0  0
  -34.7002  -18.4709   22.7329 C   0  0  0  0  0  0
  -32.6134  -22.7750   22.0794 C   0  0  0  0  0  0
  -28.9440  -19.8333   21.9064 C   0  0  0  0  0  0
  -28.2987  -17.0059   21.4350 C   0  0  0  0  0  0
  -32.9954  -15.6553   22.8966 C   0  0  0  0  0  0
  -35.9188  -18.9469   23.5106 C   0  0  0  0  0  0
  -31.6166  -20.5823   22.9946 C   0  0  0  0  0  0
  -32.2558  -21.3127   21.7951 C   0  0  0  0  0  0
  -31.7792  -25.9906   21.4589 C   0  0  0  0  0  0
  -30.5314  -25.8759   20.5673 C   0  0  0  0  0  0
  -32.9171  -25.0327   21.0565 C   0  0  0  0  0  0
  -29.5036  -26.9918   20.8069 C   0  0  0  0  0  0
  -33.5337  -18.4811   23.3936 N   0  0  0  0  0  0
  -30.3726  -15.0465   21.7873 N   0  0  0  0  0  0
  -32.5085  -23.6288   21.0532 N   0  0  0  0  0  0
  -34.8220  -18.1057   21.5617 O   0  0  0  0  0  0
  -33.0059  -23.1229   23.1948 O   0  0  0  0  0  0
  -31.4661  -12.4007   19.0937 H   0  0  0  0  0  0
  -30.3283  -11.2661   19.7529 H   0  0  0  0  0  0
  -29.7257  -11.8408   17.3883 H   0  0  0  0  0  0
  -29.6586  -13.5378   17.7969 H   0  0  0  0  0  0
  -27.8209  -11.3272   18.7817 H   0  0  0  0  0  0
  -27.3624  -12.6823   17.7848 H   0  0  0  0  0  0
  -27.7311  -14.2579   19.6157 H   0  0  0  0  0  0
  -28.6649  -11.8868   21.3001 H   0  0  0  0  0  0
  -28.4449  -13.4986   21.8896 H   0  0  0  0  0  0
  -25.2762   -9.5697   22.4741 H   0  0  0  0  0  0
  -24.0006   -7.4646   22.7468 H   0  0  0  0  0  0
  -21.0835   -8.8761   19.8948 H   0  0  0  0  0  0
  -22.3690  -10.9659   19.6144 H   0  0  0  0  0  0
  -21.1989   -7.6140   23.9720 H   0  0  0  0  0  0
  -21.1476   -6.0511   25.9076 H   0  0  0  0  0  0
  -22.0601   -2.7608   23.2839 H   0  0  0  0  0  0
  -22.4104  -11.9905   22.4773 H   0  0  0  0  0  0
  -21.1129  -13.1292   22.2575 H   0  0  0  0  0  0
  -24.6643  -15.8408   20.4996 H   0  0  0  0  0  0
  -26.2762  -15.6156   20.0455 H   0  0  0  0  0  0
  -26.7081  -32.5574   23.1199 H   0  0  0  0  0  0
  -25.0009  -33.9800   25.0483 H   0  0  0  0  0  0
  -22.6844  -31.3075   21.4105 H   0  0  0  0  0  0
  -23.3747  -35.9644   23.3281 H   0  0  0  0  0  0
  -24.3586  -36.8951   22.2057 H   0  0  0  0  0  0
  -23.7206  -37.6517   23.6659 H   0  0  0  0  0  0
  -26.0200  -31.6096   20.5865 H   0  0  0  0  0  0
  -26.8122  -30.9116   21.9724 H   0  0  0  0  0  0
  -28.0849  -29.1671   21.1765 H   0  0  0  0  0  0
  -26.1036  -25.9948   19.0137 H   0  0  0  0  0  0
  -23.9917  -27.2853   19.0441 H   0  0  0  0  0  0
  -23.7107  -30.5937   19.4038 H   0  0  0  0  0  0
  -22.7329  -29.2360   19.8734 H   0  0  0  0  0  0
  -25.1270  -36.1993   25.0843 H   0  0  0  0  0  0
  -20.9944  -28.3216   24.1450 H   0  0  0  0  0  0
  -20.5658  -26.2272   23.3601 H   0  0  0  0  0  0
  -21.6630  -26.7439   22.1209 H   0  0  0  0  0  0
  -19.6891  -25.6295   21.1242 H   0  0  0  0  0  0
  -19.6689  -27.3205   20.6758 H   0  0  0  0  0  0
  -17.4188  -26.6692   21.4014 H   0  0  0  0  0  0
  -18.0296  -26.0073   22.9011 H   0  0  0  0  0  0
  -19.7932  -30.7255   24.2291 H   0  0  0  0  0  0
  -17.5019  -31.6277   24.5157 H   0  0  0  0  0  0
  -15.5350  -30.3014   23.7643 H   0  0  0  0  0  0
  -15.8656  -28.0853   22.7045 H   0  0  0  0  0  0
  -24.5871  -30.7097   25.7839 H   0  0  0  0  0  0
  -24.8961  -32.2888   26.4967 H   0  0  0  0  0  0
  -25.8087  -30.8865   27.0227 H   0  0  0  0  0  0
  -26.2778  -29.6833   24.1110 H   0  0  0  0  0  0
  -27.4034  -29.7251   25.4491 H   0  0  0  0  0  0
  -27.8610  -30.4371   23.9182 H   0  0  0  0  0  0
  -27.2668  -33.3605   26.2073 H   0  0  0  0  0  0
  -28.3839  -32.6858   25.0301 H   0  0  0  0  0  0
  -28.0698  -31.8414   26.5383 H   0  0  0  0  0  0
  -28.2584  -38.0119   24.7543 H   0  0  0  0  0  0
  -28.1095  -36.2660   24.6235 H   0  0  0  0  0  0
  -27.2318  -37.1387   25.8864 H   0  0  0  0  0  0
  -20.9273  -29.8771   21.6982 H   0  0  0  0  0  0
  -26.0180  -38.2876   24.1465 H   0  0  0  0  0  0
  -28.2858  -19.5719   21.0784 H   0  0  0  0  0  0
  -29.3739  -20.7935   21.6274 H   0  0  0  0  0  0
  -28.3299  -19.9799   22.7949 H   0  0  0  0  0  0
  -28.1982  -17.1855   20.3648 H   0  0  0  0  0  0
  -27.5320  -17.5792   21.9551 H   0  0  0  0  0  0
  -28.0528  -15.9630   21.6271 H   0  0  0  0  0  0
  -32.5205  -14.7184   23.1848 H   0  0  0  0  0  0
  -33.6556  -15.9228   23.7211 H   0  0  0  0  0  0
  -33.6080  -15.4700   22.0143 H   0  0  0  0  0  0
  -36.0019  -18.4151   24.4589 H   0  0  0  0  0  0
  -35.8443  -20.0139   23.7189 H   0  0  0  0  0  0
  -36.8327  -18.7710   22.9430 H   0  0  0  0  0  0
  -32.2816  -20.6316   23.8568 H   0  0  0  0  0  0
  -30.7275  -21.1139   23.3325 H   0  0  0  0  0  0
  -33.1714  -20.8008   21.4987 H   0  0  0  0  0  0
  -31.5871  -21.2645   20.9356 H   0  0  0  0  0  0
  -31.5028  -25.8213   22.5004 H   0  0  0  0  0  0
  -32.1597  -27.0124   21.4117 H   0  0  0  0  0  0
  -30.0567  -24.9085   20.7358 H   0  0  0  0  0  0
  -30.8282  -25.8918   19.5178 H   0  0  0  0  0  0
  -33.7775  -25.1787   21.7126 H   0  0  0  0  0  0
  -33.2642  -25.2816   20.0523 H   0  0  0  0  0  0
  -29.9274  -27.9574   20.5272 H   0  0  0  0  0  0
  -29.2200  -27.0313   21.8597 H   0  0  0  0  0  0
  -33.5393  -18.8887   24.3185 H   0  0  0  0  0  0
  -29.5620  -14.6674   22.2519 H   0  0  0  0  0  0
  -32.1806  -23.2545   20.1718 H   0  0  0  0  0  0
  1 25  1  0  0  0
  1 30  2  0  0  0
  1 90  1  0  0  0
  2  3  1  0  0  0
  2 25  1  0  0  0
  2 94  1  0  0  0
  2 95  1  0  0  0
  3  4  1  0  0  0
  3 96  1  0  0  0
  3 97  1  0  0  0
  4  5  1  0  0  0
  4 98  1  0  0  0
  4 99  1  0  0  0
  5  6  1  0  0  0
  5 26  1  0  0  0
  5100  1  0  0  0
  6 25  1  0  0  0
  6101  1  0  0  0
  6102  1  0  0  0
  7  8  2  0  0  0
  7 26  1  0  0  0
  7 29  1  0  0  0
  8  9  1  0  0  0
  8 22  1  0  0  0
  9 10  1  0  0  0
  9 27  2  0  0  0
 10 11  2  0  0  0
 10 15  1  0  0  0
 11 12  1  0  0  0
 11103  1  0  0  0
 12 13  2  0  0  0
 12104  1  0  0  0
 13 14  1  0  0  0
 13 31  1  0  0  0
 14 15  2  0  0  0
 14105  1  0  0  0
 15106  1  0  0  0
 16 17  2  0  0  0
 16 21  1  0  0  0
 16 31  1  0  0  0
 17 18  1  0  0  0
 17107  1  0  0  0
 18 19  2  0  0  0
 18108  1  0  0  0
 19 20  1  0  0  0
 19 24  1  0  0  0
 20 21  2  0  0  0
 20109  1  0  0  0
 21 23  1  0  0  0
 22 28  1  0  0  0
 22 32  2  0  0  0
 26 27  1  0  0  0
 28110  1  0  0  0
 28111  1  0  0  0
 29112  1  0  0  0
 29113  1  0  0  0
 33 34  1  0  0  0
 33 66  1  0  0  0
 33 70  2  0  0  0
 34 36  1  0  0  0
 34 59  1  0  0  0
 34114  1  0  0  0
 35 44  2  0  0  0
 35 45  1  0  0  0
 35 68  1  0  0  0
 36 56  1  0  0  0
 36115  1  0  0  0
 37 39  1  0  0  0
 37 47  1  0  0  0
 37 66  1  0  0  0
 37116  1  0  0  0
 38 43  2  0  0  0
 38 46  1  0  0  0
 38 47  1  0  0  0
 39 64  1  0  0  0
 39 67  2  0  0  0
 40 52  1  0  0  0
 40 53  2  0  0  0
 40 58  1  0  0  0
 41117  1  0  0  0
 41118  1  0  0  0
 41119  1  0  0  0
 41 48  1  0  0  0
 42 43  1  0  0  0
 42 66  1  0  0  0
 42120  1  0  0  0
 42121  1  0  0  0
 43 44  1  0  0  0
 44122  1  0  0  0
 45 46  2  0  0  0
 45123  1  0  0  0
 46124  1  0  0  0
 47125  1  0  0  0
 47126  1  0  0  0
 48 56  1  0  0  0
 48 65  1  0  0  0
 48127  1  0  0  0
 49 50  1  0  0  0
 49 53  1  0  0  0
 49 64  1  0  0  0
 49128  1  0  0  0
 50 51  1  0  0  0
 50129  1  0  0  0
 50130  1  0  0  0
 51 52  1  0  0  0
 51131  1  0  0  0
 51132  1  0  0  0
 52133  1  0  0  0
 52134  1  0  0  0
 53 54  1  0  0  0
 54 55  2  0  0  0
 54135  1  0  0  0
 55 57  1  0  0  0
 55136  1  0  0  0
 56 69  2  0  0  0
 57 58  2  0  0  0
 57137  1  0  0  0
 58138  1  0  0  0
 59 60  1  0  0  0
 59 61  1  0  0  0
 59 62  1  0  0  0
 60139  1  0  0  0
 60140  1  0  0  0
 60141  1  0  0  0
 61142  1  0  0  0
 61143  1  0  0  0
 61144  1  0  0  0
 62145  1  0  0  0
 62146  1  0  0  0
 62147  1  0  0  0
 63 65  1  0  0  0
 63148  1  0  0  0
 63149  1  0  0  0
 63150  1  0  0  0
 64151  1  0  0  0
 65152  1  0  0  0
 68 88  1  0  0  0
 71 72  2  0  0  0
 71 73  1  0  0  0
 71 79  1  0  0  0
 72 75  1  0  0  0
 72 80  1  0  0  0
 73 76  2  0  0  0
 73 83  1  0  0  0
 74 75  2  0  0  0
 74 76  1  0  0  0
 74 81  1  0  0  0
 75 90  1  0  0  0
 76 89  1  0  0  0
 77 82  1  0  0  0
 77 89  1  0  0  0
 77 92  2  0  0  0
 78 84  1  0  0  0
 78 91  1  0  0  0
 78 93  2  0  0  0
 79153  1  0  0  0
 79154  1  0  0  0
 79155  1  0  0  0
 80156  1  0  0  0
 80157  1  0  0  0
 80158  1  0  0  0
 81159  1  0  0  0
 81160  1  0  0  0
 81161  1  0  0  0
 82162  1  0  0  0
 82163  1  0  0  0
 82164  1  0  0  0
 83 84  1  0  0  0
 83165  1  0  0  0
 83166  1  0  0  0
 84167  1  0  0  0
 84168  1  0  0  0
 85 86  1  0  0  0
 85 87  1  0  0  0
 85169  1  0  0  0
 85170  1  0  0  0
 86 88  1  0  0  0
 86171  1  0  0  0
 86172  1  0  0  0
 87 91  1  0  0  0
 87173  1  0  0  0
 87174  1  0  0  0
 88175  1  0  0  0
 88176  1  0  0  0
 89177  1  0  0  0
 90178  1  0  0  0
 91179  1  0  0  0
M  ISO  4   1 100  68 101  88 101  90 100
M  END
> <chiral flag>
0

> <version>
0

> <s_m_source_file>
/data/baiqing/PycharmProjects/Reinvent-master-3.2/result/LINK_invent/BTK/process_docking_weight1_custom_sum_contain_oxygen_bond_distance_aromatic_linkinvent_7_9_3/rearranged_h_0016.sdf

> <i_m_source_file_index>
15

> <r_mmod_Potential_Energy-OPLS-2005>
-233.946228027344

> <r_mmod_Stretch_Energy-OPLS-2005>
38.2118263244629

> <r_mmod_Bend_Energy-OPLS-2005>
99.3722152709961

> <r_mmod_Torsional_Energy-OPLS-2005>
259.829742431641

> <r_mmod_Improper_Torsional_Energy-OPLS-2005>
3.89061641693115

> <r_mmod_Van_der_Waal_Energy-OPLS-2005>
165.228927612305

> <r_mmod_Electrostatic_Energy-OPLS-2005>
-543.235534667969

> <r_mmod_Solvation_Energy-OPLS-2005>
-263.641693115234

> <b_mmod_Minimization_Converged-OPLS-2005>
0

> <r_mmod_RMS_Derivative-OPLS-2005>
1.24653422832489

$$$$
15
                    3D
 Structure written by MMmdl.
158166  0  0  1  0            999 V2000
  -30.5268  -15.0102   20.3857 C   0  0  0  0  0  0
  -30.4382  -12.6265   19.5037 C   0  0  0  0  0  0
  -29.5222  -12.5342   18.2613 C   0  0  0  0  0  0
  -28.0592  -12.3086   18.6843 C   0  0  0  0  0  0
  -27.6258  -13.2547   19.8340 C   0  0  2  0  0  0
  -28.6677  -13.3179   20.9703 C   0  0  0  0  0  0
  -25.2452  -13.8232   20.5724 C   0  0  0  0  0  0
  -24.1778  -13.0447   20.9244 C   0  0  0  0  0  0
  -24.6400  -11.6933   20.8768 C   0  0  0  0  0  0
  -23.9087  -10.4299   21.0416 C   0  0  0  0  0  0
  -24.3633   -9.4208   21.9190 C   0  0  0  0  0  0
  -23.6304   -8.2244   22.0755 C   0  0  0  0  0  0
  -22.4284   -8.0287   21.3547 C   0  0  0  0  0  0
  -21.9927   -9.0262   20.4647 C   0  0  0  0  0  0
  -22.7260  -10.2140   20.3061 C   0  0  0  0  0  0
  -21.6855   -6.0740   22.5279 C   0  0  0  0  0  0
  -21.4014   -6.5642   23.8212 C   0  0  0  0  0  0
  -21.3660   -5.6794   24.9175 C   0  0  0  0  0  0
  -21.6045   -4.3057   24.7226 C   0  0  0  0  0  0
  -21.8818   -3.8149   23.4347 C   0  0  0  0  0  0
  -21.9193   -4.6966   22.3403 C   0  0  0  0  0  0
  -22.7796  -13.5211   21.1896 C   0  0  0  0  0  0
  -22.1662   -4.2150   21.0981 F   0  0  0  0  0  0
  -21.5629   -3.4541   25.7739 F   0  0  0  0  0  0
  -29.9353  -13.7418   20.3623 N   0  0  0  0  0  0
  -26.2875  -12.9472   20.3244 N   0  0  0  0  0  0
  -25.9332  -11.6596   20.5747 N   0  0  0  0  0  0
  -22.0450  -12.8191   22.0446 N   0  0  0  0  0  0
  -25.4115  -15.1961   20.4131 N   0  0  0  0  0  0
  -31.7468  -15.0296   20.1911 O   0  0  0  0  0  0
  -21.6646   -6.8885   21.4242 O   0  0  0  0  0  0
  -22.3475  -14.5514   20.6739 O   0  0  0  0  0  0
  -24.6484  -31.8400   23.1841 C   0  0  0  0  0  0
  -25.9238  -32.4675   23.8247 C   0  0  1  0  0  0
  -27.2119  -27.0826   20.1665 C   0  0  0  0  0  0
  -25.5964  -33.8482   24.2163 N   0  0  0  0  0  0
  -23.4549  -30.4573   21.5312 C   0  0  2  0  0  0
  -24.9035  -28.8735   20.1136 C   0  0  0  0  0  0
  -22.7593  -29.4523   22.4847 C   0  0  0  0  0  0
  -18.0307  -28.1393   22.8471 C   0  0  0  0  0  0
  -24.1493  -36.7245   23.2646 C   0  0  0  0  0  0
  -26.0137  -30.6968   21.3907 C   0  0  0  0  0  0
  -26.0833  -29.3014   20.7361 C   0  0  0  0  0  0
  -27.2389  -28.4243   20.7412 C   0  0  0  0  0  0
  -26.0084  -26.7723   19.4969 C   0  0  0  0  0  0
  -24.8817  -27.6240   19.4764 C   0  0  0  0  0  0
  -23.6844  -29.7843   20.1521 C   0  0  0  0  0  0
  -25.4127  -36.3021   24.0314 C   0  0  1  0  0  0
  -20.5923  -28.3729   23.1218 C   0  0  2  0  0  0
  -20.6794  -26.9428   22.5395 C   0  0  0  0  0  0
  -19.5770  -26.6378   21.5204 C   0  0  0  0  0  0
  -18.1949  -26.7931   22.1614 C   0  0  0  0  0  0
  -19.1564  -28.8877   23.2836 C   0  0  0  0  0  0
  -18.9485  -30.1470   23.8867 C   0  0  0  0  0  0
  -17.6485  -30.6593   24.0550 C   0  0  0  0  0  0
  -25.9082  -34.9397   23.5052 C   0  0  0  0  0  0
  -16.5373  -29.9085   23.6336 C   0  0  0  0  0  0
  -16.7291  -28.6502   23.0357 C   0  0  0  0  0  0
  -26.4538  -31.6560   25.0709 C   0  0  0  0  0  0
  -25.3701  -31.3756   26.1391 C   0  0  0  0  0  0
  -27.0424  -30.2956   24.6321 C   0  0  0  0  0  0
  -27.6060  -32.4335   25.7499 C   0  0  0  0  0  0
  -27.5575  -37.1781   24.8467 C   0  0  0  0  0  0
  -21.4278  -29.3050   22.3590 N   0  0  0  0  0  0
  -26.4286  -37.3738   23.9410 N   0  0  0  0  0  0
  -24.7258  -31.0208   22.0899 N   0  0  0  0  0  0
  -23.4210  -28.8076   23.3022 O   0  0  0  0  0  0
  -28.2555  -26.0711   20.2030 O   0  0  0  0  0  0
  -26.5674  -34.8903   22.4636 O   0  0  0  0  0  0
  -23.5592  -32.1292   23.7035 O   0  0  0  0  0  0
  -30.2710  -20.4973   19.1146 C   0  0  0  0  0  0
  -30.9099  -19.3956   18.5030 C   0  0  0  0  0  0
  -29.2032  -18.9298   20.6267 C   0  0  0  0  0  0
  -29.3584  -20.3729   20.1769 C   0  0  0  0  0  0
  -29.9122  -17.7213   20.0613 C   0  0  0  0  0  0
  -30.7166  -18.0514   18.9270 C   0  0  0  0  0  0
  -31.8144  -19.6899   17.3146 C   0  0  0  0  0  0
  -28.1985  -18.6217   21.7258 C   0  0  0  0  0  0
  -28.4253  -21.6543   22.0731 C   0  0  0  0  0  0
  -28.9708  -23.1595   20.1155 C   0  0  0  0  0  0
  -27.9740  -24.5275   20.4193 C   0  0  0  0  0  0
  -29.7460  -16.2184   20.4790 N   0  0  0  0  0  0
  -28.7413  -21.6755   20.6476 N   0  0  0  0  0  0
  -31.4037  -16.8273   17.9083 Cl  0  0  0  0  0  0
  -31.4696  -12.7882   19.1874 H   0  0  0  0  0  0
  -30.4413  -11.6852   20.0551 H   0  0  0  0  0  0
  -29.8514  -11.7276   17.6049 H   0  0  0  0  0  0
  -29.5980  -13.4549   17.6803 H   0  0  0  0  0  0
  -27.9708  -11.2718   19.0115 H   0  0  0  0  0  0
  -27.3917  -12.4157   17.8287 H   0  0  0  0  0  0
  -27.5788  -14.2487   19.3877 H   0  0  0  0  0  0
  -28.7699  -12.3526   21.4686 H   0  0  0  0  0  0
  -28.3582  -14.0308   21.7359 H   0  0  0  0  0  0
  -25.2774   -9.5682   22.4771 H   0  0  0  0  0  0
  -24.0009   -7.4635   22.7474 H   0  0  0  0  0  0
  -21.0858   -8.8788   19.8952 H   0  0  0  0  0  0
  -22.3721  -10.9683   19.6174 H   0  0  0  0  0  0
  -21.2006   -7.6149   23.9717 H   0  0  0  0  0  0
  -21.1484   -6.0525   25.9078 H   0  0  0  0  0  0
  -22.0595   -2.7611   23.2848 H   0  0  0  0  0  0
  -22.4076  -11.9850   22.4823 H   0  0  0  0  0  0
  -21.1062  -13.1198   22.2659 H   0  0  0  0  0  0
  -24.6373  -15.8430   20.5148 H   0  0  0  0  0  0
  -26.2433  -15.6321   20.0380 H   0  0  0  0  0  0
  -26.7305  -32.5261   23.0973 H   0  0  0  0  0  0
  -25.0078  -33.9581   25.0289 H   0  0  0  0  0  0
  -22.7601  -31.2849   21.3741 H   0  0  0  0  0  0
  -23.3765  -35.9569   23.3292 H   0  0  0  0  0  0
  -24.3575  -36.8896   22.2064 H   0  0  0  0  0  0
  -23.7236  -37.6430   23.6697 H   0  0  0  0  0  0
  -26.1741  -31.4474   20.6156 H   0  0  0  0  0  0
  -26.8822  -30.7496   22.0355 H   0  0  0  0  0  0
  -28.1385  -28.7497   21.2447 H   0  0  0  0  0  0
  -25.9095  -25.8273   18.9850 H   0  0  0  0  0  0
  -23.9847  -27.2934   18.9703 H   0  0  0  0  0  0
  -23.8289  -30.5581   19.3973 H   0  0  0  0  0  0
  -22.7972  -29.2315   19.8384 H   0  0  0  0  0  0
  -25.1315  -36.1847   25.0804 H   0  0  0  0  0  0
  -21.0004  -28.3326   24.1342 H   0  0  0  0  0  0
  -20.5687  -26.2343   23.3620 H   0  0  0  0  0  0
  -21.6661  -26.7429   22.1195 H   0  0  0  0  0  0
  -19.6934  -25.6280   21.1254 H   0  0  0  0  0  0
  -19.6709  -27.3171   20.6721 H   0  0  0  0  0  0
  -17.4215  -26.6666   21.4018 H   0  0  0  0  0  0
  -18.0352  -26.0076   22.9014 H   0  0  0  0  0  0
  -19.7966  -30.7281   24.2230 H   0  0  0  0  0  0
  -17.5044  -31.6271   24.5160 H   0  0  0  0  0  0
  -15.5373  -30.2981   23.7680 H   0  0  0  0  0  0
  -15.8688  -28.0811   22.7095 H   0  0  0  0  0  0
  -24.5899  -30.7090   25.7699 H   0  0  0  0  0  0
  -24.8868  -32.2937   26.4739 H   0  0  0  0  0  0
  -25.7964  -30.8975   27.0219 H   0  0  0  0  0  0
  -26.3058  -29.6655   24.1326 H   0  0  0  0  0  0
  -27.4027  -29.7284   25.4913 H   0  0  0  0  0  0
  -27.8962  -30.4195   23.9659 H   0  0  0  0  0  0
  -27.2657  -33.3670   26.1992 H   0  0  0  0  0  0
  -28.3910  -32.6838   25.0350 H   0  0  0  0  0  0
  -28.0681  -31.8511   26.5478 H   0  0  0  0  0  0
  -28.2583  -38.0089   24.7518 H   0  0  0  0  0  0
  -28.1080  -36.2614   24.6292 H   0  0  0  0  0  0
  -27.2288  -37.1420   25.8870 H   0  0  0  0  0  0
  -20.9503  -29.8769   21.6762 H   0  0  0  0  0  0
  -26.0152  -38.2804   24.1418 H   0  0  0  0  0  0
  -30.4835  -21.4779   18.7181 H   0  0  0  0  0  0
  -31.9406  -20.7603   17.1494 H   0  0  0  0  0  0
  -31.3975  -19.2632   16.4017 H   0  0  0  0  0  0
  -32.8061  -19.2653   17.4729 H   0  0  0  0  0  0
  -27.2724  -19.1703   21.5606 H   0  0  0  0  0  0
  -28.6010  -18.8816   22.7038 H   0  0  0  0  0  0
  -27.9270  -17.5678   21.7554 H   0  0  0  0  0  0
  -29.1391  -21.0495   22.6338 H   0  0  0  0  0  0
  -27.4200  -21.2712   22.2487 H   0  0  0  0  0  0
  -28.4677  -22.6509   22.5118 H   0  0  0  0  0  0
  -29.9716  -23.4317   20.4515 H   0  0  0  0  0  0
  -29.0518  -23.0938   19.0305 H   0  0  0  0  0  0
  -27.7211  -24.4820   21.4778 H   0  0  0  0  0  0
  -27.0356  -24.2927   19.9220 H   0  0  0  0  0  0
  -28.8216  -16.0150   20.8245 H   0  0  0  0  0  0
  1 25  1  0  0  0
  1 30  2  0  0  0
  1 82  1  0  0  0
  2  3  1  0  0  0
  2 25  1  0  0  0
  2 85  1  0  0  0
  2 86  1  0  0  0
  3  4  1  0  0  0
  3 87  1  0  0  0
  3 88  1  0  0  0
  4  5  1  0  0  0
  4 89  1  0  0  0
  4 90  1  0  0  0
  5  6  1  0  0  0
  5 26  1  0  0  0
  5 91  1  0  0  0
  6 25  1  0  0  0
  6 92  1  0  0  0
  6 93  1  0  0  0
  7  8  2  0  0  0
  7 26  1  0  0  0
  7 29  1  0  0  0
  8  9  1  0  0  0
  8 22  1  0  0  0
  9 10  1  0  0  0
  9 27  2  0  0  0
 10 11  2  0  0  0
 10 15  1  0  0  0
 11 12  1  0  0  0
 11 94  1  0  0  0
 12 13  2  0  0  0
 12 95  1  0  0  0
 13 14  1  0  0  0
 13 31  1  0  0  0
 14 15  2  0  0  0
 14 96  1  0  0  0
 15 97  1  0  0  0
 16 17  2  0  0  0
 16 21  1  0  0  0
 16 31  1  0  0  0
 17 18  1  0  0  0
 17 98  1  0  0  0
 18 19  2  0  0  0
 18 99  1  0  0  0
 19 20  1  0  0  0
 19 24  1  0  0  0
 20 21  2  0  0  0
 20100  1  0  0  0
 21 23  1  0  0  0
 22 28  1  0  0  0
 22 32  2  0  0  0
 26 27  1  0  0  0
 28101  1  0  0  0
 28102  1  0  0  0
 29103  1  0  0  0
 29104  1  0  0  0
 33 34  1  0  0  0
 33 66  1  0  0  0
 33 70  2  0  0  0
 34 36  1  0  0  0
 34 59  1  0  0  0
 34105  1  0  0  0
 35 44  2  0  0  0
 35 45  1  0  0  0
 35 68  1  0  0  0
 36 56  1  0  0  0
 36106  1  0  0  0
 37 39  1  0  0  0
 37 47  1  0  0  0
 37 66  1  0  0  0
 37107  1  0  0  0
 38 43  2  0  0  0
 38 46  1  0  0  0
 38 47  1  0  0  0
 39 64  1  0  0  0
 39 67  2  0  0  0
 40 52  1  0  0  0
 40 53  2  0  0  0
 40 58  1  0  0  0
 41108  1  0  0  0
 41109  1  0  0  0
 41110  1  0  0  0
 41 48  1  0  0  0
 42 43  1  0  0  0
 42 66  1  0  0  0
 42111  1  0  0  0
 42112  1  0  0  0
 43 44  1  0  0  0
 44113  1  0  0  0
 45 46  2  0  0  0
 45114  1  0  0  0
 46115  1  0  0  0
 47116  1  0  0  0
 47117  1  0  0  0
 48 56  1  0  0  0
 48 65  1  0  0  0
 48118  1  0  0  0
 49 50  1  0  0  0
 49 53  1  0  0  0
 49 64  1  0  0  0
 49119  1  0  0  0
 50 51  1  0  0  0
 50120  1  0  0  0
 50121  1  0  0  0
 51 52  1  0  0  0
 51122  1  0  0  0
 51123  1  0  0  0
 52124  1  0  0  0
 52125  1  0  0  0
 53 54  1  0  0  0
 54 55  2  0  0  0
 54126  1  0  0  0
 55 57  1  0  0  0
 55127  1  0  0  0
 56 69  2  0  0  0
 57 58  2  0  0  0
 57128  1  0  0  0
 58129  1  0  0  0
 59 60  1  0  0  0
 59 61  1  0  0  0
 59 62  1  0  0  0
 60130  1  0  0  0
 60131  1  0  0  0
 60132  1  0  0  0
 61133  1  0  0  0
 61134  1  0  0  0
 61135  1  0  0  0
 62136  1  0  0  0
 62137  1  0  0  0
 62138  1  0  0  0
 63 65  1  0  0  0
 63139  1  0  0  0
 63140  1  0  0  0
 63141  1  0  0  0
 64142  1  0  0  0
 65143  1  0  0  0
 68 81  1  0  0  0
 71 72  2  0  0  0
 71 74  1  0  0  0
 71144  1  0  0  0
 72 76  1  0  0  0
 72 77  1  0  0  0
 73 74  2  0  0  0
 73 75  1  0  0  0
 73 78  1  0  0  0
 74 83  1  0  0  0
 75 76  2  0  0  0
 75 82  1  0  0  0
 76 84  1  0  0  0
 77145  1  0  0  0
 77146  1  0  0  0
 77147  1  0  0  0
 78148  1  0  0  0
 78149  1  0  0  0
 78150  1  0  0  0
 79 83  1  0  0  0
 79151  1  0  0  0
 79152  1  0  0  0
 79153  1  0  0  0
 80 81  1  0  0  0
 80 83  1  0  0  0
 80154  1  0  0  0
 80155  1  0  0  0
 81156  1  0  0  0
 81157  1  0  0  0
 82158  1  0  0  0
M  ISO  4   1 100  68 101  81 101  82 100
M  END
> <chiral flag>
0

> <version>
0

> <s_m_source_file>
/data/baiqing/PycharmProjects/Reinvent-master-3.2/result/LINK_invent/BTK/process_docking_weight1_custom_sum_contain_oxygen_bond_distance_aromatic_linkinvent_7_9_3/rearranged_h_0016.sdf

> <i_m_source_file_index>
16

> <r_mmod_Potential_Energy-OPLS-2005>
641.806518554688

> <r_mmod_Stretch_Energy-OPLS-2005>
335.779357910156

> <r_mmod_Bend_Energy-OPLS-2005>
286.351104736328

> <r_mmod_Torsional_Energy-OPLS-2005>
231.914306640625

> <r_mmod_Improper_Torsional_Energy-OPLS-2005>
6.19643402099609

> <r_mmod_Van_der_Waal_Energy-OPLS-2005>
149.637985229492

> <r_mmod_Electrostatic_Energy-OPLS-2005>
-375.617980957031

> <r_mmod_Solvation_Energy-OPLS-2005>
-231.321578979492

> <b_mmod_Minimization_Converged-OPLS-2005>
0

> <r_mmod_RMS_Derivative-OPLS-2005>
0.795424461364746

$$$$
16
                    3D
 Structure written by MMmdl.
156164  0  0  1  0            999 V2000
  -30.6123  -14.6915   20.4859 C   0  0  0  0  0  0
  -30.4376  -12.4275   19.4504 C   0  0  0  0  0  0
  -29.5053  -12.5018   18.2214 C   0  0  0  0  0  0
  -28.0313  -12.3293   18.6399 C   0  0  0  0  0  0
  -27.6446  -13.2200   19.8505 C   0  0  2  0  0  0
  -28.6925  -13.1213   20.9805 C   0  0  0  0  0  0
  -25.2533  -13.8174   20.5681 C   0  0  0  0  0  0
  -24.1816  -13.0434   20.9207 C   0  0  0  0  0  0
  -24.6391  -11.6907   20.8752 C   0  0  0  0  0  0
  -23.9065  -10.4288   21.0412 C   0  0  0  0  0  0
  -24.3618   -9.4203   21.9187 C   0  0  0  0  0  0
  -23.6293   -8.2238   22.0756 C   0  0  0  0  0  0
  -22.4274   -8.0278   21.3545 C   0  0  0  0  0  0
  -21.9909   -9.0254   20.4649 C   0  0  0  0  0  0
  -22.7238  -10.2133   20.3061 C   0  0  0  0  0  0
  -21.6852   -6.0736   22.5280 C   0  0  0  0  0  0
  -21.4012   -6.5640   23.8213 C   0  0  0  0  0  0
  -21.3658   -5.6794   24.9176 C   0  0  0  0  0  0
  -21.6042   -4.3057   24.7226 C   0  0  0  0  0  0
  -21.8820   -3.8148   23.4348 C   0  0  0  0  0  0
  -21.9193   -4.6964   22.3403 C   0  0  0  0  0  0
  -22.7839  -13.5224   21.1867 C   0  0  0  0  0  0
  -22.1662   -4.2147   21.0981 F   0  0  0  0  0  0
  -21.5628   -3.4540   25.7740 F   0  0  0  0  0  0
  -29.9945  -13.4700   20.3976 N   0  0  0  0  0  0
  -26.2949  -12.9356   20.3276 N   0  0  0  0  0  0
  -25.9316  -11.6511   20.5754 N   0  0  0  0  0  0
  -22.0484  -12.8218   22.0424 N   0  0  0  0  0  0
  -25.4218  -15.1898   20.4070 N   0  0  0  0  0  0
  -31.8044  -14.8160   20.1912 O   0  0  0  0  0  0
  -21.6639   -6.8875   21.4239 O   0  0  0  0  0  0
  -22.3525  -14.5530   20.6713 O   0  0  0  0  0  0
  -24.6276  -31.8566   23.1992 C   0  0  0  0  0  0
  -25.9112  -32.4767   23.8333 C   0  0  1  0  0  0
  -27.2258  -27.2989   20.1357 C   0  0  0  0  0  0
  -25.5922  -33.8567   24.2264 N   0  0  0  0  0  0
  -23.4227  -30.4769   21.5424 C   0  0  2  0  0  0
  -24.8710  -28.9217   20.1160 C   0  0  0  0  0  0
  -22.7480  -29.4601   22.4937 C   0  0  0  0  0  0
  -18.0285  -28.1382   22.8488 C   0  0  0  0  0  0
  -24.1487  -36.7286   23.2641 C   0  0  0  0  0  0
  -25.9637  -30.7836   21.3702 C   0  0  0  0  0  0
  -26.0399  -29.4067   20.7173 C   0  0  0  0  0  0
  -27.2240  -28.6090   20.7103 C   0  0  0  0  0  0
  -26.0362  -26.8603   19.5209 C   0  0  0  0  0  0
  -24.8713  -27.6552   19.5072 C   0  0  0  0  0  0
  -23.6387  -29.8041   20.1606 C   0  0  0  0  0  0
  -25.4113  -36.3076   24.0329 C   0  0  1  0  0  0
  -20.5886  -28.3679   23.1287 C   0  0  2  0  0  0
  -20.6773  -26.9399   22.5418 C   0  0  0  0  0  0
  -19.5752  -26.6378   21.5216 C   0  0  0  0  0  0
  -18.1927  -26.7930   22.1618 C   0  0  0  0  0  0
  -19.1538  -28.8846   23.2884 C   0  0  0  0  0  0
  -18.9462  -30.1453   23.8894 C   0  0  0  0  0  0
  -17.6462  -30.6587   24.0557 C   0  0  0  0  0  0
  -25.9047  -34.9446   23.5098 C   0  0  0  0  0  0
  -16.5350  -29.9082   23.6333 C   0  0  0  0  0  0
  -16.7271  -28.6499   23.0358 C   0  0  0  0  0  0
  -26.4495  -31.6588   25.0711 C   0  0  0  0  0  0
  -25.3728  -31.3741   26.1443 C   0  0  0  0  0  0
  -27.0336  -30.3012   24.6170 C   0  0  0  0  0  0
  -27.6057  -32.4325   25.7476 C   0  0  0  0  0  0
  -27.5582  -37.1790   24.8462 C   0  0  0  0  0  0
  -21.4193  -29.3031   22.3683 N   0  0  0  0  0  0
  -26.4289  -37.3776   23.9415 N   0  0  0  0  0  0
  -24.6903  -31.0564   22.0945 N   0  0  0  0  0  0
  -23.4196  -28.8146   23.3028 O   0  0  0  0  0  0
  -28.3428  -26.4501   20.1273 O   0  0  0  0  0  0
  -26.5622  -34.8921   22.4668 O   0  0  0  0  0  0
  -23.5434  -32.1358   23.7317 O   0  0  0  0  0  0
  -30.5809  -19.8877   21.7886 C   0  0  0  0  0  0
  -31.2012  -18.7927   22.4298 C   0  0  0  0  0  0
  -29.6833  -19.7061   20.7143 C   0  0  0  0  0  0
  -30.0860  -17.1920   20.9343 C   0  0  0  0  0  0
  -30.9594  -17.4664   22.0109 C   0  0  0  0  0  0
  -29.4417  -18.3304   20.3053 C   0  0  0  0  0  0
  -32.1330  -19.0378   23.6015 C   0  0  0  0  0  0
  -29.0789  -20.9916   19.9946 C   0  0  0  0  0  0
  -28.9209  -22.4065   20.7586 C   0  0  0  0  0  0
  -28.6171  -23.7589   19.9320 C   0  0  0  0  0  0
  -28.2260  -25.0958   20.7351 C   0  0  0  0  0  0
  -29.7867  -15.7883   20.6053 N   0  0  0  0  0  0
  -31.5380  -16.4491   22.6966 F   0  0  0  0  0  0
  -28.3485  -18.0231   19.0008 Cl  0  0  0  0  0  0
  -31.4762  -12.5645   19.1436 H   0  0  0  0  0  0
  -30.3885  -11.4425   19.9173 H   0  0  0  0  0  0
  -29.7791  -11.7372   17.4931 H   0  0  0  0  0  0
  -29.6336  -13.4624   17.7192 H   0  0  0  0  0  0
  -27.8837  -11.2792   18.8943 H   0  0  0  0  0  0
  -27.3716  -12.5321   17.7953 H   0  0  0  0  0  0
  -27.6460  -14.2453   19.4812 H   0  0  0  0  0  0
  -28.7205  -12.1143   21.3995 H   0  0  0  0  0  0
  -28.4381  -13.7881   21.8063 H   0  0  0  0  0  0
  -25.2766   -9.5678   22.4759 H   0  0  0  0  0  0
  -24.0004   -7.4628   22.7474 H   0  0  0  0  0  0
  -21.0842   -8.8772   19.8958 H   0  0  0  0  0  0
  -22.3697  -10.9672   19.6171 H   0  0  0  0  0  0
  -21.2003   -7.6149   23.9715 H   0  0  0  0  0  0
  -21.1478   -6.0525   25.9077 H   0  0  0  0  0  0
  -22.0599   -2.7609   23.2849 H   0  0  0  0  0  0
  -22.4102  -11.9879   22.4809 H   0  0  0  0  0  0
  -21.1102  -13.1242   22.2633 H   0  0  0  0  0  0
  -24.6462  -15.8351   20.5083 H   0  0  0  0  0  0
  -26.2527  -15.6317   20.0369 H   0  0  0  0  0  0
  -26.7172  -32.5429   23.1074 H   0  0  0  0  0  0
  -25.0077  -33.9709   25.0413 H   0  0  0  0  0  0
  -22.7174  -31.2975   21.3948 H   0  0  0  0  0  0
  -23.3758  -35.9609   23.3293 H   0  0  0  0  0  0
  -24.3578  -36.8914   22.2058 H   0  0  0  0  0  0
  -23.7230  -37.6480   23.6666 H   0  0  0  0  0  0
  -26.0940  -31.5440   20.5987 H   0  0  0  0  0  0
  -26.8446  -30.8363   21.9985 H   0  0  0  0  0  0
  -28.1256  -28.9804   21.1768 H   0  0  0  0  0  0
  -26.0050  -25.8848   19.0561 H   0  0  0  0  0  0
  -23.9744  -27.2763   19.0374 H   0  0  0  0  0  0
  -23.7574  -30.5759   19.3995 H   0  0  0  0  0  0
  -22.7591  -29.2316   19.8603 H   0  0  0  0  0  0
  -25.1294  -36.1920   25.0821 H   0  0  0  0  0  0
  -20.9973  -28.3248   24.1409 H   0  0  0  0  0  0
  -20.5670  -26.2282   23.3618 H   0  0  0  0  0  0
  -21.6641  -26.7426   22.1208 H   0  0  0  0  0  0
  -19.6912  -25.6290   21.1241 H   0  0  0  0  0  0
  -19.6700  -27.3191   20.6751 H   0  0  0  0  0  0
  -17.4205  -26.6686   21.4013 H   0  0  0  0  0  0
  -18.0313  -26.0071   22.9009 H   0  0  0  0  0  0
  -19.7940  -30.7269   24.2260 H   0  0  0  0  0  0
  -17.5016  -31.6269   24.5157 H   0  0  0  0  0  0
  -15.5352  -30.2981   23.7669 H   0  0  0  0  0  0
  -15.8669  -28.0815   22.7084 H   0  0  0  0  0  0
  -24.5910  -30.7075   25.7786 H   0  0  0  0  0  0
  -24.8914  -32.2916   26.4842 H   0  0  0  0  0  0
  -25.8058  -30.8949   27.0235 H   0  0  0  0  0  0
  -26.2906  -29.6763   24.1204 H   0  0  0  0  0  0
  -27.4046  -29.7272   25.4671 H   0  0  0  0  0  0
  -27.8767  -30.4302   23.9380 H   0  0  0  0  0  0
  -27.2670  -33.3632   26.2044 H   0  0  0  0  0  0
  -28.3869  -32.6878   25.0302 H   0  0  0  0  0  0
  -28.0723  -31.8458   26.5398 H   0  0  0  0  0  0
  -28.2593  -38.0097   24.7526 H   0  0  0  0  0  0
  -28.1087  -36.2631   24.6260 H   0  0  0  0  0  0
  -27.2306  -37.1398   25.8866 H   0  0  0  0  0  0
  -20.9373  -29.8746   21.6885 H   0  0  0  0  0  0
  -26.0169  -38.2846   24.1440 H   0  0  0  0  0  0
  -30.8135  -20.8823   22.1364 H   0  0  0  0  0  0
  -32.2082  -20.0971   23.8480 H   0  0  0  0  0  0
  -33.1335  -18.6707   23.3717 H   0  0  0  0  0  0
  -31.7725  -18.5120   24.4865 H   0  0  0  0  0  0
  -28.0995  -20.7233   19.5981 H   0  0  0  0  0  0
  -29.7040  -21.1584   19.1169 H   0  0  0  0  0  0
  -29.8371  -22.6100   21.3102 H   0  0  0  0  0  0
  -28.1497  -22.2859   21.5198 H   0  0  0  0  0  0
  -27.8206  -23.5569   19.2156 H   0  0  0  0  0  0
  -29.4988  -23.9767   19.3283 H   0  0  0  0  0  0
  -28.8760  -25.1352   21.6095 H   0  0  0  0  0  0
  -27.2260  -24.9632   21.1506 H   0  0  0  0  0  0
  -28.8060  -15.5819   20.5157 H   0  0  0  0  0  0
  1 25  1  0  0  0
  1 30  2  0  0  0
  1 82  1  0  0  0
  2  3  1  0  0  0
  2 25  1  0  0  0
  2 85  1  0  0  0
  2 86  1  0  0  0
  3  4  1  0  0  0
  3 87  1  0  0  0
  3 88  1  0  0  0
  4  5  1  0  0  0
  4 89  1  0  0  0
  4 90  1  0  0  0
  5  6  1  0  0  0
  5 26  1  0  0  0
  5 91  1  0  0  0
  6 25  1  0  0  0
  6 92  1  0  0  0
  6 93  1  0  0  0
  7  8  2  0  0  0
  7 26  1  0  0  0
  7 29  1  0  0  0
  8  9  1  0  0  0
  8 22  1  0  0  0
  9 10  1  0  0  0
  9 27  2  0  0  0
 10 11  2  0  0  0
 10 15  1  0  0  0
 11 12  1  0  0  0
 11 94  1  0  0  0
 12 13  2  0  0  0
 12 95  1  0  0  0
 13 14  1  0  0  0
 13 31  1  0  0  0
 14 15  2  0  0  0
 14 96  1  0  0  0
 15 97  1  0  0  0
 16 17  2  0  0  0
 16 21  1  0  0  0
 16 31  1  0  0  0
 17 18  1  0  0  0
 17 98  1  0  0  0
 18 19  2  0  0  0
 18 99  1  0  0  0
 19 20  1  0  0  0
 19 24  1  0  0  0
 20 21  2  0  0  0
 20100  1  0  0  0
 21 23  1  0  0  0
 22 28  1  0  0  0
 22 32  2  0  0  0
 26 27  1  0  0  0
 28101  1  0  0  0
 28102  1  0  0  0
 29103  1  0  0  0
 29104  1  0  0  0
 33 34  1  0  0  0
 33 66  1  0  0  0
 33 70  2  0  0  0
 34 36  1  0  0  0
 34 59  1  0  0  0
 34105  1  0  0  0
 35 44  2  0  0  0
 35 45  1  0  0  0
 35 68  1  0  0  0
 36 56  1  0  0  0
 36106  1  0  0  0
 37 39  1  0  0  0
 37 47  1  0  0  0
 37 66  1  0  0  0
 37107  1  0  0  0
 38 43  2  0  0  0
 38 46  1  0  0  0
 38 47  1  0  0  0
 39 64  1  0  0  0
 39 67  2  0  0  0
 40 52  1  0  0  0
 40 53  2  0  0  0
 40 58  1  0  0  0
 41108  1  0  0  0
 41109  1  0  0  0
 41110  1  0  0  0
 41 48  1  0  0  0
 42 43  1  0  0  0
 42 66  1  0  0  0
 42111  1  0  0  0
 42112  1  0  0  0
 43 44  1  0  0  0
 44113  1  0  0  0
 45 46  2  0  0  0
 45114  1  0  0  0
 46115  1  0  0  0
 47116  1  0  0  0
 47117  1  0  0  0
 48 56  1  0  0  0
 48 65  1  0  0  0
 48118  1  0  0  0
 49 50  1  0  0  0
 49 53  1  0  0  0
 49 64  1  0  0  0
 49119  1  0  0  0
 50 51  1  0  0  0
 50120  1  0  0  0
 50121  1  0  0  0
 51 52  1  0  0  0
 51122  1  0  0  0
 51123  1  0  0  0
 52124  1  0  0  0
 52125  1  0  0  0
 53 54  1  0  0  0
 54 55  2  0  0  0
 54126  1  0  0  0
 55 57  1  0  0  0
 55127  1  0  0  0
 56 69  2  0  0  0
 57 58  2  0  0  0
 57128  1  0  0  0
 58129  1  0  0  0
 59 60  1  0  0  0
 59 61  1  0  0  0
 59 62  1  0  0  0
 60130  1  0  0  0
 60131  1  0  0  0
 60132  1  0  0  0
 61133  1  0  0  0
 61134  1  0  0  0
 61135  1  0  0  0
 62136  1  0  0  0
 62137  1  0  0  0
 62138  1  0  0  0
 63 65  1  0  0  0
 63139  1  0  0  0
 63140  1  0  0  0
 63141  1  0  0  0
 64142  1  0  0  0
 65143  1  0  0  0
 68 81  1  0  0  0
 71 72  2  0  0  0
 71 73  1  0  0  0
 71144  1  0  0  0
 72 75  1  0  0  0
 72 77  1  0  0  0
 73 76  2  0  0  0
 73 78  1  0  0  0
 74 75  2  0  0  0
 74 76  1  0  0  0
 74 82  1  0  0  0
 75 83  1  0  0  0
 76 84  1  0  0  0
 77145  1  0  0  0
 77146  1  0  0  0
 77147  1  0  0  0
 78 79  1  0  0  0
 78148  1  0  0  0
 78149  1  0  0  0
 79 80  1  0  0  0
 79150  1  0  0  0
 79151  1  0  0  0
 80 81  1  0  0  0
 80152  1  0  0  0
 80153  1  0  0  0
 81154  1  0  0  0
 81155  1  0  0  0
 82156  1  0  0  0
M  ISO  4   1 100  68 101  81 101  82 100
M  END
> <chiral flag>
0

> <version>
0

> <s_m_source_file>
/data/baiqing/PycharmProjects/Reinvent-master-3.2/result/LINK_invent/BTK/process_docking_weight1_custom_sum_contain_oxygen_bond_distance_aromatic_linkinvent_7_9_3/rearranged_h_0016.sdf

> <i_m_source_file_index>
17

> <r_mmod_Potential_Energy-OPLS-2005>
82.1782608032227

> <r_mmod_Stretch_Energy-OPLS-2005>
101.906272888184

> <r_mmod_Bend_Energy-OPLS-2005>
140.767791748047

> <r_mmod_Torsional_Energy-OPLS-2005>
249.235778808594

> <r_mmod_Improper_Torsional_Energy-OPLS-2005>
8.2908239364624

> <r_mmod_Van_der_Waal_Energy-OPLS-2005>
134.143142700195

> <r_mmod_Electrostatic_Energy-OPLS-2005>
-419.092895507812

> <r_mmod_Solvation_Energy-OPLS-2005>
-195.942367553711

> <b_mmod_Minimization_Converged-OPLS-2005>
0

> <r_mmod_RMS_Derivative-OPLS-2005>
0.75877046585083

$$$$
17
                    3D
 Structure written by MMmdl.
150158  0  0  1  0            999 V2000
  -30.2467  -15.7715   20.3174 C   0  0  0  0  0  0
  -30.4156  -13.1832   19.5415 C   0  0  0  0  0  0
  -29.5558  -12.6897   18.3382 C   0  0  0  0  0  0
  -28.1403  -12.3024   18.7887 C   0  0  0  0  0  0
  -27.5911  -13.3208   19.8106 C   0  0  2  0  0  0
  -28.5983  -13.7112   20.9212 C   0  0  0  0  0  0
  -25.2304  -13.8303   20.5816 C   0  0  0  0  0  0
  -24.1707  -13.0435   20.9302 C   0  0  0  0  0  0
  -24.6426  -11.6952   20.8768 C   0  0  0  0  0  0
  -23.9133  -10.4294   21.0398 C   0  0  0  0  0  0
  -24.3663   -9.4206   21.9181 C   0  0  0  0  0  0
  -23.6321   -8.2249   22.0754 C   0  0  0  0  0  0
  -22.4300   -8.0292   21.3545 C   0  0  0  0  0  0
  -21.9951   -9.0269   20.4645 C   0  0  0  0  0  0
  -22.7297  -10.2138   20.3051 C   0  0  0  0  0  0
  -21.6860   -6.0747   22.5280 C   0  0  0  0  0  0
  -21.4018   -6.5648   23.8214 C   0  0  0  0  0  0
  -21.3659   -5.6797   24.9174 C   0  0  0  0  0  0
  -21.6044   -4.3060   24.7224 C   0  0  0  0  0  0
  -21.8818   -3.8154   23.4343 C   0  0  0  0  0  0
  -21.9194   -4.6974   22.3401 C   0  0  0  0  0  0
  -22.7715  -13.5156   21.1929 C   0  0  0  0  0  0
  -22.1662   -4.2159   21.0979 F   0  0  0  0  0  0
  -21.5626   -3.4541   25.7735 F   0  0  0  0  0  0
  -29.7493  -14.3777   20.2562 N   0  0  0  0  0  0
  -26.2764  -12.9657   20.3250 N   0  0  0  0  0  0
  -25.9378  -11.6714   20.5697 N   0  0  0  0  0  0
  -22.0383  -12.8128   22.0479 N   0  0  0  0  0  0
  -25.3874  -15.2048   20.4255 N   0  0  0  0  0  0
  -31.4863  -15.6919   20.1787 O   0  0  0  0  0  0
  -21.6651   -6.8896   21.4245 O   0  0  0  0  0  0
  -22.3385  -14.5453   20.6764 O   0  0  0  0  0  0
  -24.6940  -31.7879   23.1427 C   0  0  0  0  0  0
  -25.9472  -32.4407   23.8013 C   0  0  1  0  0  0
  -27.2304  -26.5977   20.2265 C   0  0  0  0  0  0
  -25.6007  -33.8237   24.1893 N   0  0  0  0  0  0
  -23.5250  -30.3852   21.4992 C   0  0  2  0  0  0
  -24.9834  -28.7033   20.1225 C   0  0  0  0  0  0
  -22.7811  -29.4254   22.4683 C   0  0  0  0  0  0
  -18.0346  -28.1427   22.8450 C   0  0  0  0  0  0
  -24.1498  -36.7124   23.2655 C   0  0  0  0  0  0
  -26.1102  -30.4866   21.4224 C   0  0  0  0  0  0
  -26.1750  -29.0393   20.7754 C   0  0  0  0  0  0
  -27.2793  -28.0185   20.7899 C   0  0  0  0  0  0
  -26.0035  -26.4974   19.5150 C   0  0  0  0  0  0
  -24.9428  -27.4594   19.4676 C   0  0  0  0  0  0
  -23.7849  -29.6717   20.1396 C   0  0  0  0  0  0
  -25.4153  -36.2861   24.0275 C   0  0  1  0  0  0
  -20.5986  -28.3794   23.1121 C   0  0  2  0  0  0
  -20.6804  -26.9443   22.5404 C   0  0  0  0  0  0
  -19.5783  -26.6371   21.5215 C   0  0  0  0  0  0
  -18.1967  -26.7952   22.1618 C   0  0  0  0  0  0
  -19.1614  -28.8938   23.2763 C   0  0  0  0  0  0
  -18.9516  -30.1517   23.8815 C   0  0  0  0  0  0
  -17.6505  -30.6607   24.0550 C   0  0  0  0  0  0
  -25.9137  -34.9252   23.4930 C   0  0  0  0  0  0
  -16.5394  -29.9087   23.6352 C   0  0  0  0  0  0
  -16.7324  -28.6509   23.0370 C   0  0  0  0  0  0
  -26.4618  -31.6482   25.0677 C   0  0  0  0  0  0
  -25.3658  -31.3826   26.1275 C   0  0  0  0  0  0
  -27.0567  -30.2809   24.6650 C   0  0  0  0  0  0
  -27.6048  -32.4364   25.7502 C   0  0  0  0  0  0
  -27.5561  -37.1722   24.8469 C   0  0  0  0  0  0
  -21.4449  -29.3020   22.3428 N   0  0  0  0  0  0
  -26.4271  -37.3631   23.9405 N   0  0  0  0  0  0
  -24.8011  -30.9222   22.0736 N   0  0  0  0  0  0
  -23.4202  -28.7874   23.3081 O   0  0  0  0  0  0
  -28.1805  -25.3312   20.2897 O   0  0  0  0  0  0
  -26.5792  -34.8850   22.4556 O   0  0  0  0  0  0
  -23.5936  -32.1000   23.6316 O   0  0  0  0  0  0
  -30.8941  -19.4505   20.3078 C   0  0  0  0  0  0
  -31.2370  -20.8490   20.2914 C   0  0  0  0  0  0
  -28.6334  -20.2581   20.2945 C   0  0  0  0  0  0
  -28.9189  -21.8753   20.2733 C   0  0  0  0  0  0
  -29.5816  -18.9219   20.3143 C   0  0  0  0  0  0
  -30.3326  -21.9710   20.2750 C   0  0  0  0  0  0
  -32.7183  -21.1849   20.2846 C   0  0  0  0  0  0
  -27.1595  -19.9122   20.2931 C   0  0  0  0  0  0
  -27.9554  -23.5340   20.2078 C   0  0  0  0  0  0
  -29.4645  -17.1609   20.3436 N   0  0  0  0  0  0
  -30.8717  -23.2141   20.2527 F   0  0  0  0  0  0
  -31.3973  -13.4675   19.1614 H   0  0  0  0  0  0
  -30.6121  -12.3657   20.2375 H   0  0  0  0  0  0
  -30.0386  -11.8472   17.8412 H   0  0  0  0  0  0
  -29.4920  -13.4878   17.5972 H   0  0  0  0  0  0
  -28.1936  -11.3168   19.2527 H   0  0  0  0  0  0
  -27.4723  -12.2070   17.9316 H   0  0  0  0  0  0
  -27.4350  -14.2233   19.2176 H   0  0  0  0  0  0
  -28.8909  -12.8521   21.5270 H   0  0  0  0  0  0
  -28.1384  -14.4243   21.6069 H   0  0  0  0  0  0
  -25.2803   -9.5676   22.4767 H   0  0  0  0  0  0
  -24.0019   -7.4641   22.7480 H   0  0  0  0  0  0
  -21.0879   -8.8802   19.8951 H   0  0  0  0  0  0
  -22.3760  -10.9682   19.6163 H   0  0  0  0  0  0
  -21.2014   -7.6156   23.9721 H   0  0  0  0  0  0
  -21.1480   -6.0527   25.9078 H   0  0  0  0  0  0
  -22.0595   -2.7617   23.2841 H   0  0  0  0  0  0
  -22.4028  -11.9806   22.4871 H   0  0  0  0  0  0
  -21.0987  -13.1117   22.2678 H   0  0  0  0  0  0
  -24.6128  -15.8501   20.5369 H   0  0  0  0  0  0
  -26.2235  -15.6470   20.0688 H   0  0  0  0  0  0
  -26.7564  -32.4857   23.0729 H   0  0  0  0  0  0
  -25.0050  -33.9253   24.9978 H   0  0  0  0  0  0
  -22.8565  -31.2253   21.2997 H   0  0  0  0  0  0
  -23.3779  -35.9433   23.3267 H   0  0  0  0  0  0
  -24.3556  -36.8839   22.2078 H   0  0  0  0  0  0
  -23.7240  -37.6280   23.6770 H   0  0  0  0  0  0
  -26.3235  -31.2037   20.6285 H   0  0  0  0  0  0
  -26.9571  -30.5592   22.0920 H   0  0  0  0  0  0
  -28.1750  -28.2868   21.3323 H   0  0  0  0  0  0
  -25.8183  -25.5625   19.0056 H   0  0  0  0  0  0
  -24.0463  -27.1909   18.9256 H   0  0  0  0  0  0
  -23.9692  -30.4262   19.3742 H   0  0  0  0  0  0
  -22.8874  -29.1434   19.8134 H   0  0  0  0  0  0
  -25.1367  -36.1610   25.0765 H   0  0  0  0  0  0
  -21.0066  -28.3430   24.1249 H   0  0  0  0  0  0
  -20.5653  -26.2423   23.3676 H   0  0  0  0  0  0
  -21.6666  -26.7367   22.1233 H   0  0  0  0  0  0
  -19.6937  -25.6260   21.1298 H   0  0  0  0  0  0
  -19.6728  -27.3135   20.6709 H   0  0  0  0  0  0
  -17.4235  -26.6691   21.4023 H   0  0  0  0  0  0
  -18.0357  -26.0114   22.9033 H   0  0  0  0  0  0
  -19.7991  -30.7353   24.2150 H   0  0  0  0  0  0
  -17.5055  -31.6278   24.5168 H   0  0  0  0  0  0
  -15.5391  -30.2963   23.7723 H   0  0  0  0  0  0
  -15.8724  -28.0799   22.7136 H   0  0  0  0  0  0
  -24.5882  -30.7134   25.7575 H   0  0  0  0  0  0
  -24.8807  -32.3054   26.4465 H   0  0  0  0  0  0
  -25.7817  -30.9147   27.0207 H   0  0  0  0  0  0
  -26.3307  -29.6396   24.1645 H   0  0  0  0  0  0
  -27.3957  -29.7292   25.5428 H   0  0  0  0  0  0
  -27.9300  -30.3912   24.0220 H   0  0  0  0  0  0
  -27.2577  -33.3743   26.1850 H   0  0  0  0  0  0
  -28.3978  -32.6800   25.0418 H   0  0  0  0  0  0
  -28.0590  -31.8649   26.5608 H   0  0  0  0  0  0
  -28.2553  -38.0040   24.7504 H   0  0  0  0  0  0
  -28.1083  -36.2560   24.6318 H   0  0  0  0  0  0
  -27.2269  -37.1382   25.8869 H   0  0  0  0  0  0
  -20.9781  -29.8650   21.6455 H   0  0  0  0  0  0
  -26.0091  -38.2677   24.1408 H   0  0  0  0  0  0
  -31.7029  -18.7334   20.3167 H   0  0  0  0  0  0
  -33.3445  -20.2972   20.3760 H   0  0  0  0  0  0
  -32.9609  -21.8495   21.1144 H   0  0  0  0  0  0
  -32.9853  -21.6898   19.3558 H   0  0  0  0  0  0
  -26.5367  -20.8065   20.2666 H   0  0  0  0  0  0
  -26.9033  -19.3472   21.1896 H   0  0  0  0  0  0
  -26.9145  -19.3025   19.4232 H   0  0  0  0  0  0
  -27.1974  -23.3737   20.9742 H   0  0  0  0  0  0
  -27.4006  -23.4238   19.2762 H   0  0  0  0  0  0
  -28.4888  -16.9053   20.3913 H   0  0  0  0  0  0
  1 25  1  0  0  0
  1 30  2  0  0  0
  1 80  1  0  0  0
  2  3  1  0  0  0
  2 25  1  0  0  0
  2 82  1  0  0  0
  2 83  1  0  0  0
  3  4  1  0  0  0
  3 84  1  0  0  0
  3 85  1  0  0  0
  4  5  1  0  0  0
  4 86  1  0  0  0
  4 87  1  0  0  0
  5  6  1  0  0  0
  5 26  1  0  0  0
  5 88  1  0  0  0
  6 25  1  0  0  0
  6 89  1  0  0  0
  6 90  1  0  0  0
  7  8  2  0  0  0
  7 26  1  0  0  0
  7 29  1  0  0  0
  8  9  1  0  0  0
  8 22  1  0  0  0
  9 10  1  0  0  0
  9 27  2  0  0  0
 10 11  2  0  0  0
 10 15  1  0  0  0
 11 12  1  0  0  0
 11 91  1  0  0  0
 12 13  2  0  0  0
 12 92  1  0  0  0
 13 14  1  0  0  0
 13 31  1  0  0  0
 14 15  2  0  0  0
 14 93  1  0  0  0
 15 94  1  0  0  0
 16 17  2  0  0  0
 16 21  1  0  0  0
 16 31  1  0  0  0
 17 18  1  0  0  0
 17 95  1  0  0  0
 18 19  2  0  0  0
 18 96  1  0  0  0
 19 20  1  0  0  0
 19 24  1  0  0  0
 20 21  2  0  0  0
 20 97  1  0  0  0
 21 23  1  0  0  0
 22 28  1  0  0  0
 22 32  2  0  0  0
 26 27  1  0  0  0
 28 98  1  0  0  0
 28 99  1  0  0  0
 29100  1  0  0  0
 29101  1  0  0  0
 33 34  1  0  0  0
 33 66  1  0  0  0
 33 70  2  0  0  0
 34 36  1  0  0  0
 34 59  1  0  0  0
 34102  1  0  0  0
 35 44  2  0  0  0
 35 45  1  0  0  0
 35 68  1  0  0  0
 36 56  1  0  0  0
 36103  1  0  0  0
 37 39  1  0  0  0
 37 47  1  0  0  0
 37 66  1  0  0  0
 37104  1  0  0  0
 38 43  2  0  0  0
 38 46  1  0  0  0
 38 47  1  0  0  0
 39 64  1  0  0  0
 39 67  2  0  0  0
 40 52  1  0  0  0
 40 53  2  0  0  0
 40 58  1  0  0  0
 41105  1  0  0  0
 41106  1  0  0  0
 41107  1  0  0  0
 41 48  1  0  0  0
 42 43  1  0  0  0
 42 66  1  0  0  0
 42108  1  0  0  0
 42109  1  0  0  0
 43 44  1  0  0  0
 44110  1  0  0  0
 45 46  2  0  0  0
 45111  1  0  0  0
 46112  1  0  0  0
 47113  1  0  0  0
 47114  1  0  0  0
 48 56  1  0  0  0
 48 65  1  0  0  0
 48115  1  0  0  0
 49 50  1  0  0  0
 49 53  1  0  0  0
 49 64  1  0  0  0
 49116  1  0  0  0
 50 51  1  0  0  0
 50117  1  0  0  0
 50118  1  0  0  0
 51 52  1  0  0  0
 51119  1  0  0  0
 51120  1  0  0  0
 52121  1  0  0  0
 52122  1  0  0  0
 53 54  1  0  0  0
 54 55  2  0  0  0
 54123  1  0  0  0
 55 57  1  0  0  0
 55124  1  0  0  0
 56 69  2  0  0  0
 57 58  2  0  0  0
 57125  1  0  0  0
 58126  1  0  0  0
 59 60  1  0  0  0
 59 61  1  0  0  0
 59 62  1  0  0  0
 60127  1  0  0  0
 60128  1  0  0  0
 60129  1  0  0  0
 61130  1  0  0  0
 61131  1  0  0  0
 61132  1  0  0  0
 62133  1  0  0  0
 62134  1  0  0  0
 62135  1  0  0  0
 63 65  1  0  0  0
 63136  1  0  0  0
 63137  1  0  0  0
 63138  1  0  0  0
 64139  1  0  0  0
 65140  1  0  0  0
 68 79  1  0  0  0
 71 72  2  0  0  0
 71 75  1  0  0  0
 71141  1  0  0  0
 72 76  1  0  0  0
 72 77  1  0  0  0
 73 74  1  0  0  0
 73 75  2  0  0  0
 73 78  1  0  0  0
 74 76  2  0  0  0
 74 79  1  0  0  0
 75 80  1  0  0  0
 76 81  1  0  0  0
 77142  1  0  0  0
 77143  1  0  0  0
 77144  1  0  0  0
 78145  1  0  0  0
 78146  1  0  0  0
 78147  1  0  0  0
 79148  1  0  0  0
 79149  1  0  0  0
 80150  1  0  0  0
M  ISO  4   1 100  68 101  79 101  80 100
M  END
> <chiral flag>
0

> <version>
0

> <s_m_source_file>
/data/baiqing/PycharmProjects/Reinvent-master-3.2/result/LINK_invent/BTK/process_docking_weight1_custom_sum_contain_oxygen_bond_distance_aromatic_linkinvent_7_9_3/rearranged_h_0016.sdf

> <i_m_source_file_index>
18

> <r_mmod_Potential_Energy-OPLS-2005>
2816.72290039062

> <r_mmod_Stretch_Energy-OPLS-2005>
1263.48022460938

> <r_mmod_Bend_Energy-OPLS-2005>
641.416564941406

> <r_mmod_Torsional_Energy-OPLS-2005>
222.809600830078

> <r_mmod_Improper_Torsional_Energy-OPLS-2005>
3.94266510009766

> <r_mmod_Van_der_Waal_Energy-OPLS-2005>
124.171363830566

> <r_mmod_Electrostatic_Energy-OPLS-2005>
-353.09521484375

> <r_mmod_Solvation_Energy-OPLS-2005>
-211.466873168945

> <b_mmod_Minimization_Converged-OPLS-2005>
0

> <r_mmod_RMS_Derivative-OPLS-2005>
0.324918895959854

$$$$
18
                    3D
 Structure written by MMmdl.
167174  0  0  1  0            999 V2000
  -30.5981  -14.6826   20.5052 C   0  0  0  0  0  0
  -30.4570  -12.4134   19.4672 C   0  0  0  0  0  0
  -29.5205  -12.5007   18.2363 C   0  0  0  0  0  0
  -28.0440  -12.3293   18.6479 C   0  0  0  0  0  0
  -27.6586  -13.2082   19.8643 C   0  0  2  0  0  0
  -28.7037  -13.0910   20.9941 C   0  0  0  0  0  0
  -25.2641  -13.8151   20.5746 C   0  0  0  0  0  0
  -24.1872  -13.0415   20.9173 C   0  0  0  0  0  0
  -24.6423  -11.6888   20.8739 C   0  0  0  0  0  0
  -23.9078  -10.4279   21.0422 C   0  0  0  0  0  0
  -24.3627   -9.4201   21.9198 C   0  0  0  0  0  0
  -23.6294   -8.2248   22.0777 C   0  0  0  0  0  0
  -22.4278   -8.0296   21.3554 C   0  0  0  0  0  0
  -21.9913   -9.0272   20.4648 C   0  0  0  0  0  0
  -22.7252  -10.2144   20.3066 C   0  0  0  0  0  0
  -21.6860   -6.0744   22.5285 C   0  0  0  0  0  0
  -21.4022   -6.5651   23.8213 C   0  0  0  0  0  0
  -21.3660   -5.6804   24.9180 C   0  0  0  0  0  0
  -21.6030   -4.3068   24.7217 C   0  0  0  0  0  0
  -21.8830   -3.8153   23.4348 C   0  0  0  0  0  0
  -21.9191   -4.6968   22.3396 C   0  0  0  0  0  0
  -22.7916  -13.5249   21.1814 C   0  0  0  0  0  0
  -22.1667   -4.2157   21.0980 F   0  0  0  0  0  0
  -21.5607   -3.4552   25.7733 F   0  0  0  0  0  0
  -30.0174  -13.4399   20.4347 N   0  0  0  0  0  0
  -26.3045  -12.9299   20.3352 N   0  0  0  0  0  0
  -25.9358  -11.6454   20.5780 N   0  0  0  0  0  0
  -22.0525  -12.8261   22.0363 N   0  0  0  0  0  0
  -25.4400  -15.1874   20.4297 N   0  0  0  0  0  0
  -31.7570  -14.8525   20.1089 O   0  0  0  0  0  0
  -21.6632   -6.8906   21.4263 O   0  0  0  0  0  0
  -22.3616  -14.5552   20.6653 O   0  0  0  0  0  0
  -24.6231  -31.8642   23.2084 C   0  0  0  0  0  0
  -25.9081  -32.4826   23.8390 C   0  0  1  0  0  0
  -27.2178  -27.3299   20.1194 C   0  0  0  0  0  0
  -25.5922  -33.8636   24.2327 N   0  0  0  0  0  0
  -23.4157  -30.4871   21.5538 C   0  0  2  0  0  0
  -24.8623  -28.9460   20.1107 C   0  0  0  0  0  0
  -22.7440  -29.4650   22.4992 C   0  0  0  0  0  0
  -18.0277  -28.1391   22.8511 C   0  0  0  0  0  0
  -24.1487  -36.7298   23.2648 C   0  0  0  0  0  0
  -25.9543  -30.7945   21.3805 C   0  0  0  0  0  0
  -26.0288  -29.4226   20.7229 C   0  0  0  0  0  0
  -27.2092  -28.6231   20.7253 C   0  0  0  0  0  0
  -26.0397  -26.9159   19.4612 C   0  0  0  0  0  0
  -24.8693  -27.6969   19.4701 C   0  0  0  0  0  0
  -23.6270  -29.8236   20.1679 C   0  0  0  0  0  0
  -25.4123  -36.3138   24.0351 C   0  0  1  0  0  0
  -20.5868  -28.3695   23.1331 C   0  0  2  0  0  0
  -20.6787  -26.9423   22.5443 C   0  0  0  0  0  0
  -19.5759  -26.6381   21.5254 C   0  0  0  0  0  0
  -18.1917  -26.7950   22.1621 C   0  0  0  0  0  0
  -19.1521  -28.8859   23.2907 C   0  0  0  0  0  0
  -18.9447  -30.1472   23.8899 C   0  0  0  0  0  0
  -17.6448  -30.6603   24.0566 C   0  0  0  0  0  0
  -25.9040  -34.9492   23.5131 C   0  0  0  0  0  0
  -16.5340  -29.9097   23.6351 C   0  0  0  0  0  0
  -16.7258  -28.6509   23.0373 C   0  0  0  0  0  0
  -26.4455  -31.6636   25.0747 C   0  0  0  0  0  0
  -25.3676  -31.3761   26.1457 C   0  0  0  0  0  0
  -27.0314  -30.3088   24.6174 C   0  0  0  0  0  0
  -27.6037  -32.4349   25.7492 C   0  0  0  0  0  0
  -27.5587  -37.1821   24.8463 C   0  0  0  0  0  0
  -21.4145  -29.3059   22.3715 N   0  0  0  0  0  0
  -26.4312  -37.3822   23.9382 N   0  0  0  0  0  0
  -24.6834  -31.0641   22.1052 N   0  0  0  0  0  0
  -23.4152  -28.8195   23.3084 O   0  0  0  0  0  0
  -28.3265  -26.4735   20.1440 O   0  0  0  0  0  0
  -26.5578  -34.8936   22.4677 O   0  0  0  0  0  0
  -23.5399  -32.1438   23.7419 O   0  0  0  0  0  0
  -28.7710  -19.6061   24.7693 C   0  0  0  0  0  0
  -29.6109  -18.4758   20.4779 C   0  0  0  0  0  0
  -30.5219  -21.2350   23.9580 C   0  0  0  0  0  0
  -30.1377  -21.0961   18.7793 C   0  0  0  0  0  0
  -29.7374  -15.9351   20.9798 C   0  0  0  0  0  0
  -29.0672  -23.9229   20.0609 C   0  0  0  0  0  0
  -28.7871  -22.4263   20.5617 C   0  0  0  0  0  0
  -28.0905  -25.0715   20.5631 C   0  0  0  0  0  0
  -29.7688  -19.9286   23.6318 C   0  0  2  0  0  0
  -29.9207  -19.9015   21.1183 C   0  0  1  0  0  0
  -29.8915  -21.2912   20.2837 C   0  0  1  0  0  0
  -29.3226  -18.9626   26.0622 C   0  0  0  0  0  0
  -30.2460  -17.3595   20.9656 N   0  0  0  0  0  0
  -29.0844  -20.0360   22.3226 N   0  0  0  0  0  0
  -27.5692  -19.8932   24.6719 O   0  0  0  0  0  0
  -28.7044  -18.3700   19.6518 O   0  0  0  0  0  0
  -30.2036  -18.0016   25.7701 F   0  0  0  0  0  0
  -29.9225  -19.8825   26.8217 F   0  0  0  0  0  0
  -28.3268  -18.4229   26.7688 F   0  0  0  0  0  0
  -31.4954  -12.5512   19.1619 H   0  0  0  0  0  0
  -30.4081  -11.4240   19.9230 H   0  0  0  0  0  0
  -29.7881  -11.7364   17.5051 H   0  0  0  0  0  0
  -29.6556  -13.4633   17.7390 H   0  0  0  0  0  0
  -27.8928  -11.2778   18.8933 H   0  0  0  0  0  0
  -27.3877  -12.5438   17.8055 H   0  0  0  0  0  0
  -27.6691  -14.2352   19.5066 H   0  0  0  0  0  0
  -28.7279  -12.0797   21.4002 H   0  0  0  0  0  0
  -28.4373  -13.7324   21.8343 H   0  0  0  0  0  0
  -25.2788   -9.5680   22.4741 H   0  0  0  0  0  0
  -23.9983   -7.4656   22.7524 H   0  0  0  0  0  0
  -21.0833   -8.8817   19.8950 H   0  0  0  0  0  0
  -22.3732  -10.9694   19.6165 H   0  0  0  0  0  0
  -21.2055   -7.6171   23.9733 H   0  0  0  0  0  0
  -21.1449   -6.0531   25.9083 H   0  0  0  0  0  0
  -22.0600   -2.7610   23.2845 H   0  0  0  0  0  0
  -22.4119  -11.9912   22.4751 H   0  0  0  0  0  0
  -21.1152  -13.1344   22.2532 H   0  0  0  0  0  0
  -24.6882  -15.8487   20.5900 H   0  0  0  0  0  0
  -26.3023  -15.6380   20.1493 H   0  0  0  0  0  0
  -26.7147  -32.5505   23.1139 H   0  0  0  0  0  0
  -25.0147  -33.9802   25.0524 H   0  0  0  0  0  0
  -22.7084  -31.3083   21.4173 H   0  0  0  0  0  0
  -23.3801  -35.9577   23.3310 H   0  0  0  0  0  0
  -24.3577  -36.8905   22.2057 H   0  0  0  0  0  0
  -23.7159  -37.6471   23.6659 H   0  0  0  0  0  0
  -26.0750  -31.5569   20.6104 H   0  0  0  0  0  0
  -26.8399  -30.8493   22.0024 H   0  0  0  0  0  0
  -28.0985  -28.9765   21.2302 H   0  0  0  0  0  0
  -26.0112  -25.9745   18.9328 H   0  0  0  0  0  0
  -23.9804  -27.3347   18.9722 H   0  0  0  0  0  0
  -23.7319  -30.6047   19.4140 H   0  0  0  0  0  0
  -22.7465  -29.2486   19.8749 H   0  0  0  0  0  0
  -25.1304  -36.2041   25.0857 H   0  0  0  0  0  0
  -20.9960  -28.3290   24.1454 H   0  0  0  0  0  0
  -20.5774  -26.2281   23.3628 H   0  0  0  0  0  0
  -21.6651  -26.7515   22.1188 H   0  0  0  0  0  0
  -19.6928  -25.6294   21.1278 H   0  0  0  0  0  0
  -19.6735  -27.3203   20.6800 H   0  0  0  0  0  0
  -17.4229  -26.6783   21.3967 H   0  0  0  0  0  0
  -18.0232  -26.0066   22.8972 H   0  0  0  0  0  0
  -19.7913  -30.7305   24.2246 H   0  0  0  0  0  0
  -17.4999  -31.6297   24.5140 H   0  0  0  0  0  0
  -15.5335  -30.2993   23.7690 H   0  0  0  0  0  0
  -15.8655  -28.0833   22.7090 H   0  0  0  0  0  0
  -24.5900  -30.7051   25.7775 H   0  0  0  0  0  0
  -24.8791  -32.2918   26.4813 H   0  0  0  0  0  0
  -25.7989  -30.8998   27.0271 H   0  0  0  0  0  0
  -26.2909  -29.6836   24.1176 H   0  0  0  0  0  0
  -27.4014  -29.7340   25.4667 H   0  0  0  0  0  0
  -27.8758  -30.4406   23.9407 H   0  0  0  0  0  0
  -27.2707  -33.3691   26.2019 H   0  0  0  0  0  0
  -28.3862  -32.6828   25.0311 H   0  0  0  0  0  0
  -28.0673  -31.8486   26.5427 H   0  0  0  0  0  0
  -28.2653  -38.0078   24.7526 H   0  0  0  0  0  0
  -28.1050  -36.2623   24.6328 H   0  0  0  0  0  0
  -27.2285  -37.1501   25.8859 H   0  0  0  0  0  0
  -20.9300  -29.8770   21.6930 H   0  0  0  0  0  0
  -26.0232  -38.2913   24.1390 H   0  0  0  0  0  0
  -31.1069  -21.1296   24.8716 H   0  0  0  0  0  0
  -29.8393  -22.0754   24.1033 H   0  0  0  0  0  0
  -31.2249  -21.5138   23.1735 H   0  0  0  0  0  0
  -30.3312  -22.0474   18.2834 H   0  0  0  0  0  0
  -29.2855  -20.6321   18.2812 H   0  0  0  0  0  0
  -31.0130  -20.4676   18.6109 H   0  0  0  0  0  0
  -28.8019  -15.9130   20.4231 H   0  0  0  0  0  0
  -29.4568  -15.7466   22.0144 H   0  0  0  0  0  0
  -29.0596  -23.9343   18.9711 H   0  0  0  0  0  0
  -30.0802  -24.2042   20.3480 H   0  0  0  0  0  0
  -27.8313  -22.0945   20.1508 H   0  0  0  0  0  0
  -28.6230  -22.5021   21.6365 H   0  0  0  0  0  0
  -28.1349  -25.0824   21.6515 H   0  0  0  0  0  0
  -27.0777  -24.7408   20.3405 H   0  0  0  0  0  0
  -30.4897  -19.1113   23.5825 H   0  0  0  0  0  0
  -30.9612  -19.8014   21.4306 H   0  0  0  0  0  0
  -30.8061  -21.7790   20.6251 H   0  0  0  0  0  0
  -31.0205  -17.5345   21.5912 H   0  0  0  0  0  0
  -28.4286  -20.8072   22.2662 H   0  0  0  0  0  0
  1 25  1  0  0  0
  1 30  2  0  0  0
  1 75  1  0  0  0
  2  3  1  0  0  0
  2 25  1  0  0  0
  2 90  1  0  0  0
  2 91  1  0  0  0
  3  4  1  0  0  0
  3 92  1  0  0  0
  3 93  1  0  0  0
  4  5  1  0  0  0
  4 94  1  0  0  0
  4 95  1  0  0  0
  5  6  1  0  0  0
  5 26  1  0  0  0
  5 96  1  0  0  0
  6 25  1  0  0  0
  6 97  1  0  0  0
  6 98  1  0  0  0
  7  8  2  0  0  0
  7 26  1  0  0  0
  7 29  1  0  0  0
  8  9  1  0  0  0
  8 22  1  0  0  0
  9 10  1  0  0  0
  9 27  2  0  0  0
 10 11  2  0  0  0
 10 15  1  0  0  0
 11 12  1  0  0  0
 11 99  1  0  0  0
 12 13  2  0  0  0
 12100  1  0  0  0
 13 14  1  0  0  0
 13 31  1  0  0  0
 14 15  2  0  0  0
 14101  1  0  0  0
 15102  1  0  0  0
 16 17  2  0  0  0
 16 21  1  0  0  0
 16 31  1  0  0  0
 17 18  1  0  0  0
 17103  1  0  0  0
 18 19  2  0  0  0
 18104  1  0  0  0
 19 20  1  0  0  0
 19 24  1  0  0  0
 20 21  2  0  0  0
 20105  1  0  0  0
 21 23  1  0  0  0
 22 28  1  0  0  0
 22 32  2  0  0  0
 26 27  1  0  0  0
 28106  1  0  0  0
 28107  1  0  0  0
 29108  1  0  0  0
 29109  1  0  0  0
 33 34  1  0  0  0
 33 66  1  0  0  0
 33 70  2  0  0  0
 34 36  1  0  0  0
 34 59  1  0  0  0
 34110  1  0  0  0
 35 44  2  0  0  0
 35 45  1  0  0  0
 35 68  1  0  0  0
 36 56  1  0  0  0
 36111  1  0  0  0
 37 39  1  0  0  0
 37 47  1  0  0  0
 37 66  1  0  0  0
 37112  1  0  0  0
 38 43  2  0  0  0
 38 46  1  0  0  0
 38 47  1  0  0  0
 39 64  1  0  0  0
 39 67  2  0  0  0
 40 52  1  0  0  0
 40 53  2  0  0  0
 40 58  1  0  0  0
 41113  1  0  0  0
 41114  1  0  0  0
 41115  1  0  0  0
 41 48  1  0  0  0
 42 43  1  0  0  0
 42 66  1  0  0  0
 42116  1  0  0  0
 42117  1  0  0  0
 43 44  1  0  0  0
 44118  1  0  0  0
 45 46  2  0  0  0
 45119  1  0  0  0
 46120  1  0  0  0
 47121  1  0  0  0
 47122  1  0  0  0
 48 56  1  0  0  0
 48 65  1  0  0  0
 48123  1  0  0  0
 49 50  1  0  0  0
 49 53  1  0  0  0
 49 64  1  0  0  0
 49124  1  0  0  0
 50 51  1  0  0  0
 50125  1  0  0  0
 50126  1  0  0  0
 51 52  1  0  0  0
 51127  1  0  0  0
 51128  1  0  0  0
 52129  1  0  0  0
 52130  1  0  0  0
 53 54  1  0  0  0
 54 55  2  0  0  0
 54131  1  0  0  0
 55 57  1  0  0  0
 55132  1  0  0  0
 56 69  2  0  0  0
 57 58  2  0  0  0
 57133  1  0  0  0
 58134  1  0  0  0
 59 60  1  0  0  0
 59 61  1  0  0  0
 59 62  1  0  0  0
 60135  1  0  0  0
 60136  1  0  0  0
 60137  1  0  0  0
 61138  1  0  0  0
 61139  1  0  0  0
 61140  1  0  0  0
 62141  1  0  0  0
 62142  1  0  0  0
 62143  1  0  0  0
 63 65  1  0  0  0
 63144  1  0  0  0
 63145  1  0  0  0
 63146  1  0  0  0
 64147  1  0  0  0
 65148  1  0  0  0
 68 78  1  0  0  0
 71 79  1  0  0  0
 71 82  1  0  0  0
 71 85  2  0  0  0
 72 80  1  0  0  0
 72 83  1  0  0  0
 72 86  2  0  0  0
 73149  1  0  0  0
 73150  1  0  0  0
 73151  1  0  0  0
 73 79  1  0  0  0
 74152  1  0  0  0
 74153  1  0  0  0
 74154  1  0  0  0
 74 81  1  0  0  0
 75 83  1  0  0  0
 75155  1  0  0  0
 75156  1  0  0  0
 76 77  1  0  0  0
 76 78  1  0  0  0
 76157  1  0  0  0
 76158  1  0  0  0
 77 81  1  0  0  0
 77159  1  0  0  0
 77160  1  0  0  0
 78161  1  0  0  0
 78162  1  0  0  0
 79 84  1  0  0  0
 79163  1  0  0  0
 80 81  1  0  0  0
 80 84  1  0  0  0
 80164  1  0  0  0
 81165  1  0  0  0
 82 87  1  0  0  0
 82 88  1  0  0  0
 82 89  1  0  0  0
 83166  1  0  0  0
 84167  1  0  0  0
M  ISO  4   1 100  68 101  75 100  78 101
M  END
> <chiral flag>
0

> <version>
0

> <s_m_source_file>
/data/baiqing/PycharmProjects/Reinvent-master-3.2/result/LINK_invent/BTK/process_docking_weight1_custom_sum_contain_oxygen_bond_distance_aromatic_linkinvent_7_9_3/rearranged_h_0016.sdf

> <i_m_source_file_index>
19

> <r_mmod_Potential_Energy-OPLS-2005>
225.397476196289

> <r_mmod_Stretch_Energy-OPLS-2005>
95.1945343017578

> <r_mmod_Bend_Energy-OPLS-2005>
167.219284057617

> <r_mmod_Torsional_Energy-OPLS-2005>
246.227172851562

> <r_mmod_Improper_Torsional_Energy-OPLS-2005>
5.01372051239014

> <r_mmod_Van_der_Waal_Energy-OPLS-2005>
120.984924316406

> <r_mmod_Electrostatic_Energy-OPLS-2005>
-236.250030517578

> <r_mmod_Solvation_Energy-OPLS-2005>
-227.89192199707

> <b_mmod_Minimization_Converged-OPLS-2005>
0

> <r_mmod_RMS_Derivative-OPLS-2005>
3.52554178237915

$$$$
19
                    3D
 Structure written by MMmdl.
158166  0  0  1  0            999 V2000
  -30.6051  -14.7648   20.4278 C   0  0  0  0  0  0
  -30.4357  -12.4556   19.5027 C   0  0  0  0  0  0
  -29.5223  -12.4864   18.2554 C   0  0  0  0  0  0
  -28.0484  -12.3135   18.6651 C   0  0  0  0  0  0
  -27.6418  -13.2297   19.8491 C   0  0  2  0  0  0
  -28.6809  -13.1949   20.9916 C   0  0  0  0  0  0
  -25.2543  -13.8189   20.5710 C   0  0  0  0  0  0
  -24.1830  -13.0444   20.9211 C   0  0  0  0  0  0
  -24.6395  -11.6919   20.8753 C   0  0  0  0  0  0
  -23.9056  -10.4308   21.0421 C   0  0  0  0  0  0
  -24.3613   -9.4216   21.9191 C   0  0  0  0  0  0
  -23.6288   -8.2250   22.0762 C   0  0  0  0  0  0
  -22.4267   -8.0297   21.3556 C   0  0  0  0  0  0
  -21.9906   -9.0271   20.4665 C   0  0  0  0  0  0
  -22.7223  -10.2155   20.3071 C   0  0  0  0  0  0
  -21.6855   -6.0753   22.5286 C   0  0  0  0  0  0
  -21.4020   -6.5654   23.8219 C   0  0  0  0  0  0
  -21.3658   -5.6795   24.9172 C   0  0  0  0  0  0
  -21.6036   -4.3057   24.7210 C   0  0  0  0  0  0
  -21.8812   -3.8161   23.4330 C   0  0  0  0  0  0
  -21.9191   -4.6982   22.3395 C   0  0  0  0  0  0
  -22.7860  -13.5237   21.1842 C   0  0  0  0  0  0
  -22.1666   -4.2173   21.0970 F   0  0  0  0  0  0
  -21.5609   -3.4534   25.7719 F   0  0  0  0  0  0
  -29.9846  -13.5342   20.4127 N   0  0  0  0  0  0
  -26.2940  -12.9376   20.3262 N   0  0  0  0  0  0
  -25.9320  -11.6520   20.5757 N   0  0  0  0  0  0
  -22.0502  -12.8273   22.0425 N   0  0  0  0  0  0
  -25.4247  -15.1910   20.4140 N   0  0  0  0  0  0
  -31.8057  -14.8342   20.1594 O   0  0  0  0  0  0
  -21.6631   -6.8906   21.4257 O   0  0  0  0  0  0
  -22.3559  -14.5530   20.6655 O   0  0  0  0  0  0
  -24.6276  -31.8547   23.1973 C   0  0  0  0  0  0
  -25.9118  -32.4735   23.8319 C   0  0  1  0  0  0
  -27.2185  -27.2754   20.1381 C   0  0  0  0  0  0
  -25.5920  -33.8540   24.2233 N   0  0  0  0  0  0
  -23.4242  -30.4760   21.5388 C   0  0  2  0  0  0
  -24.8702  -28.9115   20.1203 C   0  0  0  0  0  0
  -22.7465  -29.4628   22.4908 C   0  0  0  0  0  0
  -18.0282  -28.1415   22.8468 C   0  0  0  0  0  0
  -24.1487  -36.7289   23.2640 C   0  0  0  0  0  0
  -25.9673  -30.7708   21.3736 C   0  0  0  0  0  0
  -26.0402  -29.3910   20.7232 C   0  0  0  0  0  0
  -27.2214  -28.5863   20.7170 C   0  0  0  0  0  0
  -26.0282  -26.8446   19.5228 C   0  0  0  0  0  0
  -24.8664  -27.6447   19.5116 C   0  0  0  0  0  0
  -23.6428  -29.8015   20.1577 C   0  0  0  0  0  0
  -25.4107  -36.3048   24.0320 C   0  0  1  0  0  0
  -20.5881  -28.3731   23.1259 C   0  0  2  0  0  0
  -20.6784  -26.9449   22.5404 C   0  0  0  0  0  0
  -19.5769  -26.6406   21.5205 C   0  0  0  0  0  0
  -18.1943  -26.7953   22.1614 C   0  0  0  0  0  0
  -19.1536  -28.8884   23.2863 C   0  0  0  0  0  0
  -18.9466  -30.1481   23.8892 C   0  0  0  0  0  0
  -17.6476  -30.6605   24.0577 C   0  0  0  0  0  0
  -25.9051  -34.9420   23.5081 C   0  0  0  0  0  0
  -16.5362  -29.9112   23.6334 C   0  0  0  0  0  0
  -16.7278  -28.6536   23.0331 C   0  0  0  0  0  0
  -26.4501  -31.6573   25.0713 C   0  0  0  0  0  0
  -25.3748  -31.3751   26.1463 C   0  0  0  0  0  0
  -27.0360  -30.2980   24.6224 C   0  0  0  0  0  0
  -27.6032  -32.4342   25.7485 C   0  0  0  0  0  0
  -27.5569  -37.1785   24.8452 C   0  0  0  0  0  0
  -21.4176  -29.3071   22.3633 N   0  0  0  0  0  0
  -26.4269  -37.3752   23.9415 N   0  0  0  0  0  0
  -24.6919  -31.0528   22.0926 N   0  0  0  0  0  0
  -23.4169  -28.8187   23.3017 O   0  0  0  0  0  0
  -28.3361  -26.4281   20.0896 O   0  0  0  0  0  0
  -26.5624  -34.8904   22.4646 O   0  0  0  0  0  0
  -23.5435  -32.1371   23.7281 O   0  0  0  0  0  0
  -30.3011  -19.9341   18.8856 C   0  0  0  0  0  0
  -29.4458  -19.8212   19.9997 C   0  0  0  0  0  0
  -29.9982  -17.2951   20.0465 C   0  0  0  0  0  0
  -30.9498  -18.8091   18.3410 C   0  0  0  0  0  0
  -29.3119  -18.4766   20.5645 C   0  0  0  0  0  0
  -30.7840  -17.5179   18.8843 C   0  0  0  0  0  0
  -28.8626  -22.4565   22.3158 C   0  0  0  0  0  0
  -30.6058  -22.6241   20.5446 C   0  0  0  0  0  0
  -28.3104  -23.6476   20.1073 C   0  0  0  0  0  0
  -28.3316  -25.1190   20.8069 C   0  0  0  0  0  0
  -29.1002  -22.3935   20.7939 C   0  0  0  0  0  0
  -29.8286  -15.9077   20.5912 N   0  0  0  0  0  0
  -28.6656  -20.9842   20.3978 N   0  0  0  0  0  0
  -31.7208  -18.9666   17.2380 F   0  0  0  0  0  0
  -28.4754  -18.3122   21.6191 F   0  0  0  0  0  0
  -31.3506  -16.4893   18.2112 F   0  0  0  0  0  0
  -31.4795  -12.5742   19.2069 H   0  0  0  0  0  0
  -30.3783  -11.4890   20.0066 H   0  0  0  0  0  0
  -29.8055  -11.6947   17.5601 H   0  0  0  0  0  0
  -29.6524  -13.4291   17.7207 H   0  0  0  0  0  0
  -27.9180  -11.2706   18.9521 H   0  0  0  0  0  0
  -27.3904  -12.4786   17.8117 H   0  0  0  0  0  0
  -27.6248  -14.2432   19.4488 H   0  0  0  0  0  0
  -28.7186  -12.2116   21.4587 H   0  0  0  0  0  0
  -28.4037  -13.8985   21.7800 H   0  0  0  0  0  0
  -25.2789   -9.5651   22.4737 H   0  0  0  0  0  0
  -24.0002   -7.4624   22.7458 H   0  0  0  0  0  0
  -21.0840   -8.8766   19.8970 H   0  0  0  0  0  0
  -22.3688  -10.9680   19.6165 H   0  0  0  0  0  0
  -21.2033   -7.6168   23.9721 H   0  0  0  0  0  0
  -21.1488   -6.0534   25.9070 H   0  0  0  0  0  0
  -22.0597   -2.7621   23.2808 H   0  0  0  0  0  0
  -22.4119  -11.9965   22.4878 H   0  0  0  0  0  0
  -21.1108  -13.1309   22.2577 H   0  0  0  0  0  0
  -24.6545  -15.8398   20.5292 H   0  0  0  0  0  0
  -26.2626  -15.6314   20.0565 H   0  0  0  0  0  0
  -26.7177  -32.5389   23.1057 H   0  0  0  0  0  0
  -25.0057  -33.9680   25.0372 H   0  0  0  0  0  0
  -22.7223  -31.2974   21.3863 H   0  0  0  0  0  0
  -23.3732  -35.9637   23.3277 H   0  0  0  0  0  0
  -24.3582  -36.8942   22.2062 H   0  0  0  0  0  0
  -23.7265  -37.6489   23.6694 H   0  0  0  0  0  0
  -26.1024  -31.5271   20.5999 H   0  0  0  0  0  0
  -26.8453  -30.8227   22.0054 H   0  0  0  0  0  0
  -28.1258  -28.9544   21.1803 H   0  0  0  0  0  0
  -25.9985  -25.8731   19.0485 H   0  0  0  0  0  0
  -23.9686  -27.2690   19.0401 H   0  0  0  0  0  0
  -23.7751  -30.5731   19.3981 H   0  0  0  0  0  0
  -22.7614  -29.2353   19.8510 H   0  0  0  0  0  0
  -25.1286  -36.1874   25.0810 H   0  0  0  0  0  0
  -20.9971  -28.3334   24.1385 H   0  0  0  0  0  0
  -20.5691  -26.2355   23.3617 H   0  0  0  0  0  0
  -21.6659  -26.7492   22.1202 H   0  0  0  0  0  0
  -19.6946  -25.6312   21.1249 H   0  0  0  0  0  0
  -19.6709  -27.3206   20.6725 H   0  0  0  0  0  0
  -17.4209  -26.6667   21.4022 H   0  0  0  0  0  0
  -18.0369  -26.0106   22.9028 H   0  0  0  0  0  0
  -19.7947  -30.7284   24.2262 H   0  0  0  0  0  0
  -17.5039  -31.6278   24.5196 H   0  0  0  0  0  0
  -15.5369  -30.3028   23.7670 H   0  0  0  0  0  0
  -15.8669  -28.0878   22.7036 H   0  0  0  0  0  0
  -24.5867  -30.7154   25.7819 H   0  0  0  0  0  0
  -24.9035  -32.2955   26.4924 H   0  0  0  0  0  0
  -25.8091  -30.8899   27.0216 H   0  0  0  0  0  0
  -26.2963  -29.6706   24.1241 H   0  0  0  0  0  0
  -27.4018  -29.7262   25.4764 H   0  0  0  0  0  0
  -27.8843  -30.4237   23.9489 H   0  0  0  0  0  0
  -27.2587  -33.3615   26.2077 H   0  0  0  0  0  0
  -28.3832  -32.6955   25.0319 H   0  0  0  0  0  0
  -28.0722  -31.8485   26.5403 H   0  0  0  0  0  0
  -28.2552  -38.0109   24.7499 H   0  0  0  0  0  0
  -28.1089  -36.2637   24.6250 H   0  0  0  0  0  0
  -27.2300  -37.1398   25.8855 H   0  0  0  0  0  0
  -20.9368  -29.8775   21.6813 H   0  0  0  0  0  0
  -26.0132  -38.2809   24.1442 H   0  0  0  0  0  0
  -30.4195  -20.8781   18.3796 H   0  0  0  0  0  0
  -29.2275  -23.3837   22.7581 H   0  0  0  0  0  0
  -29.3720  -21.6455   22.8377 H   0  0  0  0  0  0
  -27.8002  -22.3866   22.5562 H   0  0  0  0  0  0
  -30.9349  -23.5730   20.9709 H   0  0  0  0  0  0
  -30.8461  -22.6825   19.4832 H   0  0  0  0  0  0
  -31.2248  -21.8505   20.9973 H   0  0  0  0  0  0
  -28.6749  -23.7549   19.0843 H   0  0  0  0  0  0
  -27.2613  -23.3702   19.9920 H   0  0  0  0  0  0
  -29.2558  -25.1764   21.3791 H   0  0  0  0  0  0
  -27.5496  -25.1449   21.5676 H   0  0  0  0  0  0
  -28.9483  -15.7498   21.0554 H   0  0  0  0  0  0
  -27.8657  -20.6863   20.9508 H   0  0  0  0  0  0
  1 25  1  0  0  0
  1 30  2  0  0  0
  1 82  1  0  0  0
  2  3  1  0  0  0
  2 25  1  0  0  0
  2 87  1  0  0  0
  2 88  1  0  0  0
  3  4  1  0  0  0
  3 89  1  0  0  0
  3 90  1  0  0  0
  4  5  1  0  0  0
  4 91  1  0  0  0
  4 92  1  0  0  0
  5  6  1  0  0  0
  5 26  1  0  0  0
  5 93  1  0  0  0
  6 25  1  0  0  0
  6 94  1  0  0  0
  6 95  1  0  0  0
  7  8  2  0  0  0
  7 26  1  0  0  0
  7 29  1  0  0  0
  8  9  1  0  0  0
  8 22  1  0  0  0
  9 10  1  0  0  0
  9 27  2  0  0  0
 10 11  2  0  0  0
 10 15  1  0  0  0
 11 12  1  0  0  0
 11 96  1  0  0  0
 12 13  2  0  0  0
 12 97  1  0  0  0
 13 14  1  0  0  0
 13 31  1  0  0  0
 14 15  2  0  0  0
 14 98  1  0  0  0
 15 99  1  0  0  0
 16 17  2  0  0  0
 16 21  1  0  0  0
 16 31  1  0  0  0
 17 18  1  0  0  0
 17100  1  0  0  0
 18 19  2  0  0  0
 18101  1  0  0  0
 19 20  1  0  0  0
 19 24  1  0  0  0
 20 21  2  0  0  0
 20102  1  0  0  0
 21 23  1  0  0  0
 22 28  1  0  0  0
 22 32  2  0  0  0
 26 27  1  0  0  0
 28103  1  0  0  0
 28104  1  0  0  0
 29105  1  0  0  0
 29106  1  0  0  0
 33 34  1  0  0  0
 33 66  1  0  0  0
 33 70  2  0  0  0
 34 36  1  0  0  0
 34 59  1  0  0  0
 34107  1  0  0  0
 35 44  2  0  0  0
 35 45  1  0  0  0
 35 68  1  0  0  0
 36 56  1  0  0  0
 36108  1  0  0  0
 37 39  1  0  0  0
 37 47  1  0  0  0
 37 66  1  0  0  0
 37109  1  0  0  0
 38 43  2  0  0  0
 38 46  1  0  0  0
 38 47  1  0  0  0
 39 64  1  0  0  0
 39 67  2  0  0  0
 40 52  1  0  0  0
 40 53  2  0  0  0
 40 58  1  0  0  0
 41110  1  0  0  0
 41111  1  0  0  0
 41112  1  0  0  0
 41 48  1  0  0  0
 42 43  1  0  0  0
 42 66  1  0  0  0
 42113  1  0  0  0
 42114  1  0  0  0
 43 44  1  0  0  0
 44115  1  0  0  0
 45 46  2  0  0  0
 45116  1  0  0  0
 46117  1  0  0  0
 47118  1  0  0  0
 47119  1  0  0  0
 48 56  1  0  0  0
 48 65  1  0  0  0
 48120  1  0  0  0
 49 50  1  0  0  0
 49 53  1  0  0  0
 49 64  1  0  0  0
 49121  1  0  0  0
 50 51  1  0  0  0
 50122  1  0  0  0
 50123  1  0  0  0
 51 52  1  0  0  0
 51124  1  0  0  0
 51125  1  0  0  0
 52126  1  0  0  0
 52127  1  0  0  0
 53 54  1  0  0  0
 54 55  2  0  0  0
 54128  1  0  0  0
 55 57  1  0  0  0
 55129  1  0  0  0
 56 69  2  0  0  0
 57 58  2  0  0  0
 57130  1  0  0  0
 58131  1  0  0  0
 59 60  1  0  0  0
 59 61  1  0  0  0
 59 62  1  0  0  0
 60132  1  0  0  0
 60133  1  0  0  0
 60134  1  0  0  0
 61135  1  0  0  0
 61136  1  0  0  0
 61137  1  0  0  0
 62138  1  0  0  0
 62139  1  0  0  0
 62140  1  0  0  0
 63 65  1  0  0  0
 63141  1  0  0  0
 63142  1  0  0  0
 63143  1  0  0  0
 64144  1  0  0  0
 65145  1  0  0  0
 68 80  1  0  0  0
 71 72  2  0  0  0
 71 74  1  0  0  0
 71146  1  0  0  0
 72 75  1  0  0  0
 72 83  1  0  0  0
 73 75  2  0  0  0
 73 76  1  0  0  0
 73 82  1  0  0  0
 74 76  2  0  0  0
 74 84  1  0  0  0
 75 85  1  0  0  0
 76 86  1  0  0  0
 77147  1  0  0  0
 77148  1  0  0  0
 77149  1  0  0  0
 77 81  1  0  0  0
 78 81  1  0  0  0
 78150  1  0  0  0
 78151  1  0  0  0
 78152  1  0  0  0
 79 80  1  0  0  0
 79 81  1  0  0  0
 79153  1  0  0  0
 79154  1  0  0  0
 80155  1  0  0  0
 80156  1  0  0  0
 81 83  1  0  0  0
 82157  1  0  0  0
 83158  1  0  0  0
M  ISO  4   1 100  68 101  80 101  82 100
M  END
> <chiral flag>
0

> <version>
0

> <s_m_source_file>
/data/baiqing/PycharmProjects/Reinvent-master-3.2/result/LINK_invent/BTK/process_docking_weight1_custom_sum_contain_oxygen_bond_distance_aromatic_linkinvent_7_9_3/rearranged_h_0016.sdf

> <i_m_source_file_index>
20

> <r_mmod_Potential_Energy-OPLS-2005>
227.599395751953

> <r_mmod_Stretch_Energy-OPLS-2005>
128.075866699219

> <r_mmod_Bend_Energy-OPLS-2005>
190.650772094727

> <r_mmod_Torsional_Energy-OPLS-2005>
274

> <r_mmod_Improper_Torsional_Energy-OPLS-2005>
7.75315427780151

> <r_mmod_Van_der_Waal_Energy-OPLS-2005>
140.555053710938

> <r_mmod_Electrostatic_Energy-OPLS-2005>
-396.5712890625

> <r_mmod_Solvation_Energy-OPLS-2005>
-201.602905273438

> <b_mmod_Minimization_Converged-OPLS-2005>
0

> <r_mmod_RMS_Derivative-OPLS-2005>
3.16519618034363

$$$$
20
                    3D
 Structure written by MMmdl.
167175  0  0  1  0            999 V2000
  -30.6180  -14.6287   20.5057 C   0  0  0  0  0  0
  -30.4417  -12.3866   19.4496 C   0  0  0  0  0  0
  -29.5097  -12.5118   18.2234 C   0  0  0  0  0  0
  -28.0318  -12.3502   18.6340 C   0  0  0  0  0  0
  -27.6565  -13.2143   19.8673 C   0  0  2  0  0  0
  -28.7009  -13.0531   20.9954 C   0  0  0  0  0  0
  -25.2576  -13.8165   20.5687 C   0  0  0  0  0  0
  -24.1836  -13.0432   20.9183 C   0  0  0  0  0  0
  -24.6403  -11.6902   20.8735 C   0  0  0  0  0  0
  -23.9071  -10.4287   21.0404 C   0  0  0  0  0  0
  -24.3620   -9.4202   21.9183 C   0  0  0  0  0  0
  -23.6293   -8.2240   22.0754 C   0  0  0  0  0  0
  -22.4276   -8.0281   21.3544 C   0  0  0  0  0  0
  -21.9913   -9.0255   20.4645 C   0  0  0  0  0  0
  -22.7244  -10.2133   20.3053 C   0  0  0  0  0  0
  -21.6853   -6.0737   22.5281 C   0  0  0  0  0  0
  -21.4015   -6.5641   23.8214 C   0  0  0  0  0  0
  -21.3659   -5.6794   24.9176 C   0  0  0  0  0  0
  -21.6043   -4.3056   24.7226 C   0  0  0  0  0  0
  -21.8821   -3.8148   23.4347 C   0  0  0  0  0  0
  -21.9193   -4.6965   22.3404 C   0  0  0  0  0  0
  -22.7859  -13.5228   21.1848 C   0  0  0  0  0  0
  -22.1662   -4.2150   21.0981 F   0  0  0  0  0  0
  -21.5627   -3.4539   25.7739 F   0  0  0  0  0  0
  -30.0182  -13.3988   20.4364 N   0  0  0  0  0  0
  -26.3006  -12.9342   20.3331 N   0  0  0  0  0  0
  -25.9331  -11.6499   20.5753 N   0  0  0  0  0  0
  -22.0503  -12.8216   22.0405 N   0  0  0  0  0  0
  -25.4290  -15.1886   20.4112 N   0  0  0  0  0  0
  -31.7766  -14.8039   20.1165 O   0  0  0  0  0  0
  -21.6638   -6.8880   21.4244 O   0  0  0  0  0  0
  -22.3542  -14.5533   20.6697 O   0  0  0  0  0  0
  -24.6252  -31.8609   23.2041 C   0  0  0  0  0  0
  -25.9103  -32.4786   23.8362 C   0  0  1  0  0  0
  -27.2246  -27.3288   20.1110 C   0  0  0  0  0  0
  -25.5924  -33.8586   24.2286 N   0  0  0  0  0  0
  -23.4183  -30.4853   21.5471 C   0  0  2  0  0  0
  -24.8641  -28.9443   20.1111 C   0  0  0  0  0  0
  -22.7471  -29.4626   22.4944 C   0  0  0  0  0  0
  -18.0284  -28.1383   22.8482 C   0  0  0  0  0  0
  -24.1489  -36.7296   23.2640 C   0  0  0  0  0  0
  -25.9591  -30.7947   21.3741 C   0  0  0  0  0  0
  -26.0338  -29.4237   20.7142 C   0  0  0  0  0  0
  -27.2171  -28.6279   20.7042 C   0  0  0  0  0  0
  -26.0289  -26.9017   19.4855 C   0  0  0  0  0  0
  -24.8631  -27.6879   19.4889 C   0  0  0  0  0  0
  -23.6321  -29.8229   20.1614 C   0  0  0  0  0  0
  -25.4115  -36.3088   24.0329 C   0  0  1  0  0  0
  -20.5884  -28.3684   23.1287 C   0  0  2  0  0  0
  -20.6773  -26.9409   22.5415 C   0  0  0  0  0  0
  -19.5755  -26.6384   21.5210 C   0  0  0  0  0  0
  -18.1930  -26.7930   22.1616 C   0  0  0  0  0  0
  -19.1536  -28.8850   23.2880 C   0  0  0  0  0  0
  -18.9461  -30.1452   23.8899 C   0  0  0  0  0  0
  -17.6461  -30.6586   24.0562 C   0  0  0  0  0  0
  -25.9051  -34.9456   23.5108 C   0  0  0  0  0  0
  -16.5352  -29.9085   23.6329 C   0  0  0  0  0  0
  -16.7272  -28.6503   23.0348 C   0  0  0  0  0  0
  -26.4494  -31.6593   25.0728 C   0  0  0  0  0  0
  -25.3727  -31.3720   26.1453 C   0  0  0  0  0  0
  -27.0340  -30.3020   24.6177 C   0  0  0  0  0  0
  -27.6052  -32.4328   25.7500 C   0  0  0  0  0  0
  -27.5581  -37.1806   24.8465 C   0  0  0  0  0  0
  -21.4186  -29.3039   22.3683 N   0  0  0  0  0  0
  -26.4294  -37.3779   23.9405 N   0  0  0  0  0  0
  -24.6863  -31.0629   22.0989 N   0  0  0  0  0  0
  -23.4197  -28.8164   23.3020 O   0  0  0  0  0  0
  -28.3455  -26.4843   20.1604 O   0  0  0  0  0  0
  -26.5620  -34.8920   22.4675 O   0  0  0  0  0  0
  -23.5418  -32.1404   23.7374 O   0  0  0  0  0  0
  -29.5928  -17.8998   21.9431 C   0  0  0  0  0  0
  -30.1361  -17.8318   19.5759 C   0  0  0  0  0  0
  -29.5362  -19.3338   21.8935 C   0  0  0  0  0  0
  -30.1593  -19.2706   19.5452 C   0  0  0  0  0  0
  -29.9058  -17.1188   20.7921 C   0  0  0  0  0  0
  -29.8574  -20.0546   20.7013 C   0  0  0  0  0  0
  -29.3041  -17.1797   23.2617 C   0  0  0  0  0  0
  -30.3268  -17.0494   18.2778 C   0  0  0  0  0  0
  -29.1347  -20.1001   23.1547 C   0  0  0  0  0  0
  -30.5263  -19.9804   18.2415 C   0  0  0  0  0  0
  -31.1266  -21.9439   21.5238 C   0  0  0  0  0  0
  -29.2674  -24.0077   20.4013 C   0  0  0  0  0  0
  -28.9012  -22.4496   20.4032 C   0  0  0  0  0  0
  -28.1136  -25.0288   20.0305 C   0  0  0  0  0  0
  -29.7960  -15.6595   20.8768 N   0  0  0  0  0  0
  -30.0136  -21.4887   20.6919 N   0  0  0  0  0  0
  -31.4826  -12.5162   19.1476 H   0  0  0  0  0  0
  -30.3779  -11.3874   19.8828 H   0  0  0  0  0  0
  -29.7720  -11.7656   17.4724 H   0  0  0  0  0  0
  -29.6540  -13.4847   17.7506 H   0  0  0  0  0  0
  -27.8654  -11.2960   18.8584 H   0  0  0  0  0  0
  -27.3785  -12.5881   17.7937 H   0  0  0  0  0  0
  -27.6789  -14.2523   19.5351 H   0  0  0  0  0  0
  -28.7100  -12.0262   21.3636 H   0  0  0  0  0  0
  -28.4469  -13.6722   21.8570 H   0  0  0  0  0  0
  -25.2770   -9.5675   22.4751 H   0  0  0  0  0  0
  -24.0004   -7.4632   22.7473 H   0  0  0  0  0  0
  -21.0845   -8.8774   19.8950 H   0  0  0  0  0  0
  -22.3708  -10.9670   19.6157 H   0  0  0  0  0  0
  -21.2011   -7.6150   23.9717 H   0  0  0  0  0  0
  -21.1477   -6.0524   25.9080 H   0  0  0  0  0  0
  -22.0601   -2.7610   23.2848 H   0  0  0  0  0  0
  -22.4126  -11.9880   22.4791 H   0  0  0  0  0  0
  -21.1118  -13.1234   22.2608 H   0  0  0  0  0  0
  -24.6619  -15.8426   20.5224 H   0  0  0  0  0  0
  -26.2801  -15.6305   20.0874 H   0  0  0  0  0  0
  -26.7170  -32.5458   23.1111 H   0  0  0  0  0  0
  -25.0065  -33.9734   25.0427 H   0  0  0  0  0  0
  -22.7114  -31.3056   21.4058 H   0  0  0  0  0  0
  -23.3752  -35.9628   23.3305 H   0  0  0  0  0  0
  -24.3578  -36.8918   22.2055 H   0  0  0  0  0  0
  -23.7242  -37.6498   23.6664 H   0  0  0  0  0  0
  -26.0899  -31.5604   20.6082 H   0  0  0  0  0  0
  -26.8395  -30.8419   22.0034 H   0  0  0  0  0  0
  -28.1143  -28.9915   21.1855 H   0  0  0  0  0  0
  -25.9617  -25.9440   18.9927 H   0  0  0  0  0  0
  -23.9664  -27.3146   19.0134 H   0  0  0  0  0  0
  -23.7514  -30.6009   19.4064 H   0  0  0  0  0  0
  -22.7521  -29.2527   19.8585 H   0  0  0  0  0  0
  -25.1296  -36.1944   25.0822 H   0  0  0  0  0  0
  -20.9971  -28.3260   24.1409 H   0  0  0  0  0  0
  -20.5670  -26.2294   23.3612 H   0  0  0  0  0  0
  -21.6643  -26.7440   22.1215 H   0  0  0  0  0  0
  -19.6918  -25.6296   21.1240 H   0  0  0  0  0  0
  -19.6698  -27.3192   20.6738 H   0  0  0  0  0  0
  -17.4205  -26.6680   21.4012 H   0  0  0  0  0  0
  -18.0325  -26.0068   22.9007 H   0  0  0  0  0  0
  -19.7938  -30.7263   24.2273 H   0  0  0  0  0  0
  -17.5019  -31.6265   24.5166 H   0  0  0  0  0  0
  -15.5355  -30.2988   23.7656 H   0  0  0  0  0  0
  -15.8670  -28.0825   22.7061 H   0  0  0  0  0  0
  -24.5919  -30.7049   25.7781 H   0  0  0  0  0  0
  -24.8894  -32.2879   26.4864 H   0  0  0  0  0  0
  -25.8057  -30.8917   27.0235 H   0  0  0  0  0  0
  -26.2914  -29.6769   24.1205 H   0  0  0  0  0  0
  -27.4046  -29.7278   25.4679 H   0  0  0  0  0  0
  -27.8779  -30.4312   23.9396 H   0  0  0  0  0  0
  -27.2661  -33.3624   26.2083 H   0  0  0  0  0  0
  -28.3860  -32.6896   25.0329 H   0  0  0  0  0  0
  -28.0724  -31.8451   26.5413 H   0  0  0  0  0  0
  -28.2604  -38.0097   24.7505 H   0  0  0  0  0  0
  -28.1071  -36.2629   24.6302 H   0  0  0  0  0  0
  -27.2298  -37.1471   25.8868 H   0  0  0  0  0  0
  -20.9360  -29.8769   21.6902 H   0  0  0  0  0  0
  -26.0179  -38.2856   24.1404 H   0  0  0  0  0  0
  -29.6585  -17.7453   24.1227 H   0  0  0  0  0  0
  -29.8052  -16.2148   23.3312 H   0  0  0  0  0  0
  -28.2325  -17.0144   23.3761 H   0  0  0  0  0  0
  -29.9676  -17.5954   17.4066 H   0  0  0  0  0  0
  -29.7643  -16.1168   18.2805 H   0  0  0  0  0  0
  -31.3806  -16.8152   18.1264 H   0  0  0  0  0  0
  -28.3268  -19.5989   23.6870 H   0  0  0  0  0  0
  -28.7643  -21.1001   22.9400 H   0  0  0  0  0  0
  -29.9869  -20.1956   23.8275 H   0  0  0  0  0  0
  -31.3442  -19.4701   17.7332 H   0  0  0  0  0  0
  -30.8626  -21.0056   18.3886 H   0  0  0  0  0  0
  -29.6658  -20.0075   17.5730 H   0  0  0  0  0  0
  -31.8048  -21.1292   21.7850 H   0  0  0  0  0  0
  -30.7667  -22.3900   22.4517 H   0  0  0  0  0  0
  -31.7136  -22.6956   20.9948 H   0  0  0  0  0  0
  -30.0996  -24.1758   19.7172 H   0  0  0  0  0  0
  -29.6344  -24.2803   21.3909 H   0  0  0  0  0  0
  -28.4894  -22.1900   19.4270 H   0  0  0  0  0  0
  -28.0943  -22.2768   21.1157 H   0  0  0  0  0  0
  -27.2525  -24.7677   20.6479 H   0  0  0  0  0  0
  -27.8303  -24.8207   18.9984 H   0  0  0  0  0  0
  -28.9343  -15.3344   21.2870 H   0  0  0  0  0  0
  1 25  1  0  0  0
  1 30  2  0  0  0
  1 85  1  0  0  0
  2  3  1  0  0  0
  2 25  1  0  0  0
  2 87  1  0  0  0
  2 88  1  0  0  0
  3  4  1  0  0  0
  3 89  1  0  0  0
  3 90  1  0  0  0
  4  5  1  0  0  0
  4 91  1  0  0  0
  4 92  1  0  0  0
  5  6  1  0  0  0
  5 26  1  0  0  0
  5 93  1  0  0  0
  6 25  1  0  0  0
  6 94  1  0  0  0
  6 95  1  0  0  0
  7  8  2  0  0  0
  7 26  1  0  0  0
  7 29  1  0  0  0
  8  9  1  0  0  0
  8 22  1  0  0  0
  9 10  1  0  0  0
  9 27  2  0  0  0
 10 11  2  0  0  0
 10 15  1  0  0  0
 11 12  1  0  0  0
 11 96  1  0  0  0
 12 13  2  0  0  0
 12 97  1  0  0  0
 13 14  1  0  0  0
 13 31  1  0  0  0
 14 15  2  0  0  0
 14 98  1  0  0  0
 15 99  1  0  0  0
 16 17  2  0  0  0
 16 21  1  0  0  0
 16 31  1  0  0  0
 17 18  1  0  0  0
 17100  1  0  0  0
 18 19  2  0  0  0
 18101  1  0  0  0
 19 20  1  0  0  0
 19 24  1  0  0  0
 20 21  2  0  0  0
 20102  1  0  0  0
 21 23  1  0  0  0
 22 28  1  0  0  0
 22 32  2  0  0  0
 26 27  1  0  0  0
 28103  1  0  0  0
 28104  1  0  0  0
 29105  1  0  0  0
 29106  1  0  0  0
 33 34  1  0  0  0
 33 66  1  0  0  0
 33 70  2  0  0  0
 34 36  1  0  0  0
 34 59  1  0  0  0
 34107  1  0  0  0
 35 44  2  0  0  0
 35 45  1  0  0  0
 35 68  1  0  0  0
 36 56  1  0  0  0
 36108  1  0  0  0
 37 39  1  0  0  0
 37 47  1  0  0  0
 37 66  1  0  0  0
 37109  1  0  0  0
 38 43  2  0  0  0
 38 46  1  0  0  0
 38 47  1  0  0  0
 39 64  1  0  0  0
 39 67  2  0  0  0
 40 52  1  0  0  0
 40 53  2  0  0  0
 40 58  1  0  0  0
 41110  1  0  0  0
 41111  1  0  0  0
 41112  1  0  0  0
 41 48  1  0  0  0
 42 43  1  0  0  0
 42 66  1  0  0  0
 42113  1  0  0  0
 42114  1  0  0  0
 43 44  1  0  0  0
 44115  1  0  0  0
 45 46  2  0  0  0
 45116  1  0  0  0
 46117  1  0  0  0
 47118  1  0  0  0
 47119  1  0  0  0
 48 56  1  0  0  0
 48 65  1  0  0  0
 48120  1  0  0  0
 49 50  1  0  0  0
 49 53  1  0  0  0
 49 64  1  0  0  0
 49121  1  0  0  0
 50 51  1  0  0  0
 50122  1  0  0  0
 50123  1  0  0  0
 51 52  1  0  0  0
 51124  1  0  0  0
 51125  1  0  0  0
 52126  1  0  0  0
 52127  1  0  0  0
 53 54  1  0  0  0
 54 55  2  0  0  0
 54128  1  0  0  0
 55 57  1  0  0  0
 55129  1  0  0  0
 56 69  2  0  0  0
 57 58  2  0  0  0
 57130  1  0  0  0
 58131  1  0  0  0
 59 60  1  0  0  0
 59 61  1  0  0  0
 59 62  1  0  0  0
 60132  1  0  0  0
 60133  1  0  0  0
 60134  1  0  0  0
 61135  1  0  0  0
 61136  1  0  0  0
 61137  1  0  0  0
 62138  1  0  0  0
 62139  1  0  0  0
 62140  1  0  0  0
 63 65  1  0  0  0
 63141  1  0  0  0
 63142  1  0  0  0
 63143  1  0  0  0
 64144  1  0  0  0
 65145  1  0  0  0
 68 84  1  0  0  0
 71 73  2  0  0  0
 71 75  1  0  0  0
 71 77  1  0  0  0
 72 74  1  0  0  0
 72 75  2  0  0  0
 72 78  1  0  0  0
 73 76  1  0  0  0
 73 79  1  0  0  0
 74 76  2  0  0  0
 74 80  1  0  0  0
 75 85  1  0  0  0
 76 86  1  0  0  0
 77146  1  0  0  0
 77147  1  0  0  0
 77148  1  0  0  0
 78149  1  0  0  0
 78150  1  0  0  0
 78151  1  0  0  0
 79152  1  0  0  0
 79153  1  0  0  0
 79154  1  0  0  0
 80155  1  0  0  0
 80156  1  0  0  0
 80157  1  0  0  0
 81 86  1  0  0  0
 81158  1  0  0  0
 81159  1  0  0  0
 81160  1  0  0  0
 82 83  1  0  0  0
 82 84  1  0  0  0
 82161  1  0  0  0
 82162  1  0  0  0
 83 86  1  0  0  0
 83163  1  0  0  0
 83164  1  0  0  0
 84165  1  0  0  0
 84166  1  0  0  0
 85167  1  0  0  0
M  ISO  4   1 100  68 101  84 101  85 100
M  END
> <chiral flag>
0

> <version>
0

> <s_m_source_file>
/data/baiqing/PycharmProjects/Reinvent-master-3.2/result/LINK_invent/BTK/process_docking_weight1_custom_sum_contain_oxygen_bond_distance_aromatic_linkinvent_7_9_3/rearranged_h_0016.sdf

> <i_m_source_file_index>
21

> <r_mmod_Potential_Energy-OPLS-2005>
40.2201271057129

> <r_mmod_Stretch_Energy-OPLS-2005>
83.9895248413086

> <r_mmod_Bend_Energy-OPLS-2005>
136.808441162109

> <r_mmod_Torsional_Energy-OPLS-2005>
260.701171875

> <r_mmod_Improper_Torsional_Energy-OPLS-2005>
6.44316005706787

> <r_mmod_Van_der_Waal_Energy-OPLS-2005>
166.702529907227

> <r_mmod_Electrostatic_Energy-OPLS-2005>
-449.59716796875

> <r_mmod_Solvation_Energy-OPLS-2005>
-209.614181518555

> <b_mmod_Minimization_Converged-OPLS-2005>
0

> <r_mmod_RMS_Derivative-OPLS-2005>
0.434820532798767

$$$$
21
                    3D
 Structure written by MMmdl.
159167  0  0  1  0            999 V2000
  -30.6994  -14.5362   20.4894 C   0  0  0  0  0  0
  -30.4071  -12.3242   19.4476 C   0  0  0  0  0  0
  -29.4916  -12.4863   18.2171 C   0  0  0  0  0  0
  -28.0133  -12.3500   18.6281 C   0  0  0  0  0  0
  -27.6494  -13.2202   19.8613 C   0  0  2  0  0  0
  -28.6928  -13.0778   20.9922 C   0  0  0  0  0  0
  -25.2533  -13.8193   20.5678 C   0  0  0  0  0  0
  -24.1813  -13.0446   20.9184 C   0  0  0  0  0  0
  -24.6393  -11.6918   20.8751 C   0  0  0  0  0  0
  -23.9073  -10.4297   21.0410 C   0  0  0  0  0  0
  -24.3629   -9.4204   21.9180 C   0  0  0  0  0  0
  -23.6304   -8.2241   22.0749 C   0  0  0  0  0  0
  -22.4285   -8.0287   21.3542 C   0  0  0  0  0  0
  -21.9924   -9.0255   20.4637 C   0  0  0  0  0  0
  -22.7253  -10.2134   20.3050 C   0  0  0  0  0  0
  -21.6849   -6.0746   22.5276 C   0  0  0  0  0  0
  -21.4014   -6.5644   23.8212 C   0  0  0  0  0  0
  -21.3661   -5.6789   24.9173 C   0  0  0  0  0  0
  -21.6044   -4.3054   24.7216 C   0  0  0  0  0  0
  -21.8821   -3.8153   23.4333 C   0  0  0  0  0  0
  -21.9191   -4.6974   22.3394 C   0  0  0  0  0  0
  -22.7832  -13.5219   21.1856 C   0  0  0  0  0  0
  -22.1657   -4.2163   21.0971 F   0  0  0  0  0  0
  -21.5633   -3.4534   25.7725 F   0  0  0  0  0  0
  -30.0154  -13.3598   20.4208 N   0  0  0  0  0  0
  -26.2966  -12.9383   20.3331 N   0  0  0  0  0  0
  -25.9318  -11.6532   20.5776 N   0  0  0  0  0  0
  -22.0501  -12.8191   22.0413 N   0  0  0  0  0  0
  -25.4251  -15.1914   20.4085 N   0  0  0  0  0  0
  -31.8858  -14.5923   20.1660 O   0  0  0  0  0  0
  -21.6640   -6.8892   21.4240 O   0  0  0  0  0  0
  -22.3504  -14.5524   20.6712 O   0  0  0  0  0  0
  -24.6175  -31.8639   23.2090 C   0  0  0  0  0  0
  -25.9053  -32.4793   23.8395 C   0  0  1  0  0  0
  -27.2308  -27.3951   20.1042 C   0  0  0  0  0  0
  -25.5864  -33.8590   24.2306 N   0  0  0  0  0  0
  -23.4082  -30.4893   21.5481 C   0  0  2  0  0  0
  -24.8541  -28.9519   20.1118 C   0  0  0  0  0  0
  -22.7450  -29.4643   22.4958 C   0  0  0  0  0  0
  -18.0301  -28.1378   22.8509 C   0  0  0  0  0  0
  -24.1483  -36.7336   23.2642 C   0  0  0  0  0  0
  -25.9411  -30.8192   21.3683 C   0  0  0  0  0  0
  -26.0156  -29.4518   20.7119 C   0  0  0  0  0  0
  -27.2044  -28.6803   20.7047 C   0  0  0  0  0  0
  -26.0474  -26.9215   19.4918 C   0  0  0  0  0  0
  -24.8665  -27.6880   19.4986 C   0  0  0  0  0  0
  -23.6200  -29.8254   20.1612 C   0  0  0  0  0  0
  -25.4098  -36.3096   24.0328 C   0  0  1  0  0  0
  -20.5896  -28.3662   23.1316 C   0  0  2  0  0  0
  -20.6791  -26.9391   22.5426 C   0  0  0  0  0  0
  -19.5763  -26.6392   21.5219 C   0  0  0  0  0  0
  -18.1944  -26.7935   22.1636 C   0  0  0  0  0  0
  -19.1554  -28.8834   23.2913 C   0  0  0  0  0  0
  -18.9482  -30.1444   23.8915 C   0  0  0  0  0  0
  -17.6484  -30.6592   24.0569 C   0  0  0  0  0  0
  -25.9031  -34.9455   23.5133 C   0  0  0  0  0  0
  -16.5372  -29.9096   23.6324 C   0  0  0  0  0  0
  -16.7292  -28.6511   23.0351 C   0  0  0  0  0  0
  -26.4470  -31.6580   25.0743 C   0  0  0  0  0  0
  -25.3728  -31.3672   26.1489 C   0  0  0  0  0  0
  -27.0298  -30.3013   24.6131 C   0  0  0  0  0  0
  -27.6053  -32.4274   25.7521 C   0  0  0  0  0  0
  -27.5578  -37.1812   24.8459 C   0  0  0  0  0  0
  -21.4175  -29.3022   22.3706 N   0  0  0  0  0  0
  -26.4288  -37.3771   23.9401 N   0  0  0  0  0  0
  -24.6734  -31.0731   22.0994 N   0  0  0  0  0  0
  -23.4216  -28.8181   23.2998 O   0  0  0  0  0  0
  -28.3972  -26.6452   20.1622 O   0  0  0  0  0  0
  -26.5639  -34.8915   22.4720 O   0  0  0  0  0  0
  -23.5356  -32.1387   23.7469 O   0  0  0  0  0  0
  -31.4216  -17.4121   19.6607 C   0  0  0  0  0  0
  -31.7772  -18.7550   19.4463 C   0  0  0  0  0  0
  -29.8485  -19.4951   20.7728 C   0  0  0  0  0  0
  -30.3150  -17.0517   20.4694 C   0  0  0  0  0  0
  -31.0084  -19.7920   20.0115 C   0  0  0  0  0  0
  -29.5147  -18.1143   20.9969 C   0  0  0  0  0  0
  -33.0146  -19.0712   18.6214 C   0  0  0  0  0  0
  -29.0727  -20.6680   21.4354 C   0  0  0  0  0  0
  -27.6310  -24.2012   20.4309 C   0  0  0  0  0  0
  -28.4016  -23.1002   21.2404 C   0  0  0  0  0  0
  -28.4511  -25.2866   19.6570 C   0  0  0  0  0  0
  -29.9737  -15.6618   20.7379 N   0  0  0  0  0  0
  -28.6382  -21.7933   20.5421 N   0  3  0  0  0  0
  -31.5246  -21.4303   19.7691 Cl  0  0  0  0  0  0
  -28.1344  -17.6878   21.9528 Cl  0  0  0  0  0  0
  -31.4547  -12.3941   19.1501 H   0  0  0  0  0  0
  -30.2893  -11.3321   19.8860 H   0  0  0  0  0  0
  -29.7373  -11.7405   17.4596 H   0  0  0  0  0  0
  -29.6567  -13.4604   17.7542 H   0  0  0  0  0  0
  -27.8300  -11.2977   18.8498 H   0  0  0  0  0  0
  -27.3638  -12.5976   17.7878 H   0  0  0  0  0  0
  -27.6698  -14.2557   19.5209 H   0  0  0  0  0  0
  -28.6748  -12.0694   21.4075 H   0  0  0  0  0  0
  -28.4634  -13.7494   21.8203 H   0  0  0  0  0  0
  -25.2780   -9.5673   22.4745 H   0  0  0  0  0  0
  -24.0013   -7.4630   22.7462 H   0  0  0  0  0  0
  -21.0864   -8.8779   19.8932 H   0  0  0  0  0  0
  -22.3727  -10.9675   19.6157 H   0  0  0  0  0  0
  -21.2007   -7.6151   23.9723 H   0  0  0  0  0  0
  -21.1480   -6.0516   25.9078 H   0  0  0  0  0  0
  -22.0600   -2.7616   23.2823 H   0  0  0  0  0  0
  -22.4150  -11.9849   22.4767 H   0  0  0  0  0  0
  -21.1108  -13.1177   22.2637 H   0  0  0  0  0  0
  -24.6637  -15.8501   20.5280 H   0  0  0  0  0  0
  -26.2841  -15.6312   20.1049 H   0  0  0  0  0  0
  -26.7137  -32.5497   23.1173 H   0  0  0  0  0  0
  -24.9858  -33.9720   25.0340 H   0  0  0  0  0  0
  -22.6986  -31.3067   21.4081 H   0  0  0  0  0  0
  -23.3714  -35.9702   23.3290 H   0  0  0  0  0  0
  -24.3585  -36.8978   22.2063 H   0  0  0  0  0  0
  -23.7273  -37.6547   23.6687 H   0  0  0  0  0  0
  -26.0635  -31.5860   20.6020 H   0  0  0  0  0  0
  -26.8250  -30.8676   21.9929 H   0  0  0  0  0  0
  -28.0993  -29.0599   21.1785 H   0  0  0  0  0  0
  -26.0102  -25.9538   19.0154 H   0  0  0  0  0  0
  -23.9718  -27.2974   19.0343 H   0  0  0  0  0  0
  -23.7373  -30.6028   19.4056 H   0  0  0  0  0  0
  -22.7412  -29.2527   19.8584 H   0  0  0  0  0  0
  -25.1264  -36.1957   25.0819 H   0  0  0  0  0  0
  -21.0004  -28.3257   24.1432 H   0  0  0  0  0  0
  -20.5718  -26.2255   23.3614 H   0  0  0  0  0  0
  -21.6653  -26.7447   22.1185 H   0  0  0  0  0  0
  -19.6921  -25.6312   21.1222 H   0  0  0  0  0  0
  -19.6708  -27.3234   20.6775 H   0  0  0  0  0  0
  -17.4207  -26.6687   21.4055 H   0  0  0  0  0  0
  -18.0342  -26.0072   22.9024 H   0  0  0  0  0  0
  -19.7963  -30.7249   24.2291 H   0  0  0  0  0  0
  -17.5050  -31.6279   24.5169 H   0  0  0  0  0  0
  -15.5376  -30.3002   23.7643 H   0  0  0  0  0  0
  -15.8697  -28.0844   22.7035 H   0  0  0  0  0  0
  -24.5954  -30.6944   25.7847 H   0  0  0  0  0  0
  -24.8847  -32.2800   26.4915 H   0  0  0  0  0  0
  -25.8096  -30.8898   27.0272 H   0  0  0  0  0  0
  -26.2847  -29.6788   24.1158 H   0  0  0  0  0  0
  -27.4020  -29.7237   25.4604 H   0  0  0  0  0  0
  -27.8712  -30.4316   23.9318 H   0  0  0  0  0  0
  -27.2701  -33.3570   26.2131 H   0  0  0  0  0  0
  -28.3882  -32.6809   25.0363 H   0  0  0  0  0  0
  -28.0700  -31.8351   26.5415 H   0  0  0  0  0  0
  -28.2569  -38.0133   24.7490 H   0  0  0  0  0  0
  -28.1091  -36.2648   24.6281 H   0  0  0  0  0  0
  -27.2298  -37.1457   25.8866 H   0  0  0  0  0  0
  -20.9340  -29.8731   21.6919 H   0  0  0  0  0  0
  -26.0173  -38.2853   24.1392 H   0  0  0  0  0  0
  -32.0413  -16.6696   19.1863 H   0  0  0  0  0  0
  -33.4937  -18.1678   18.2428 H   0  0  0  0  0  0
  -33.7472  -19.6046   19.2280 H   0  0  0  0  0  0
  -32.7591  -19.6967   17.7658 H   0  0  0  0  0  0
  -29.7341  -21.0693   22.2041 H   0  0  0  0  0  0
  -28.1936  -20.3116   21.9691 H   0  0  0  0  0  0
  -26.9927  -24.7304   21.1393 H   0  0  0  0  0  0
  -26.9314  -23.7222   19.7458 H   0  0  0  0  0  0
  -27.8002  -22.8752   22.1228 H   0  0  0  0  0  0
  -29.3418  -23.4995   21.6242 H   0  0  0  0  0  0
  -28.1659  -25.2891   18.6044 H   0  0  0  0  0  0
  -29.5020  -24.9957   19.6556 H   0  0  0  0  0  0
  -29.0400  -15.5096   21.0881 H   0  0  0  0  0  0
  -27.8037  -21.5061   20.0556 H   0  0  0  0  0  0
  -29.3726  -21.9297   19.8631 H   0  0  0  0  0  0
  1 25  1  0  0  0
  1 30  2  0  0  0
  1 82  1  0  0  0
  2  3  1  0  0  0
  2 25  1  0  0  0
  2 86  1  0  0  0
  2 87  1  0  0  0
  3  4  1  0  0  0
  3 88  1  0  0  0
  3 89  1  0  0  0
  4  5  1  0  0  0
  4 90  1  0  0  0
  4 91  1  0  0  0
  5  6  1  0  0  0
  5 26  1  0  0  0
  5 92  1  0  0  0
  6 25  1  0  0  0
  6 93  1  0  0  0
  6 94  1  0  0  0
  7  8  2  0  0  0
  7 26  1  0  0  0
  7 29  1  0  0  0
  8  9  1  0  0  0
  8 22  1  0  0  0
  9 10  1  0  0  0
  9 27  2  0  0  0
 10 11  2  0  0  0
 10 15  1  0  0  0
 11 12  1  0  0  0
 11 95  1  0  0  0
 12 13  2  0  0  0
 12 96  1  0  0  0
 13 14  1  0  0  0
 13 31  1  0  0  0
 14 15  2  0  0  0
 14 97  1  0  0  0
 15 98  1  0  0  0
 16 17  2  0  0  0
 16 21  1  0  0  0
 16 31  1  0  0  0
 17 18  1  0  0  0
 17 99  1  0  0  0
 18 19  2  0  0  0
 18100  1  0  0  0
 19 20  1  0  0  0
 19 24  1  0  0  0
 20 21  2  0  0  0
 20101  1  0  0  0
 21 23  1  0  0  0
 22 28  1  0  0  0
 22 32  2  0  0  0
 26 27  1  0  0  0
 28102  1  0  0  0
 28103  1  0  0  0
 29104  1  0  0  0
 29105  1  0  0  0
 33 34  1  0  0  0
 33 66  1  0  0  0
 33 70  2  0  0  0
 34 36  1  0  0  0
 34 59  1  0  0  0
 34106  1  0  0  0
 35 44  2  0  0  0
 35 45  1  0  0  0
 35 68  1  0  0  0
 36 56  1  0  0  0
 36107  1  0  0  0
 37 39  1  0  0  0
 37 47  1  0  0  0
 37 66  1  0  0  0
 37108  1  0  0  0
 38 43  2  0  0  0
 38 46  1  0  0  0
 38 47  1  0  0  0
 39 64  1  0  0  0
 39 67  2  0  0  0
 40 52  1  0  0  0
 40 53  2  0  0  0
 40 58  1  0  0  0
 41109  1  0  0  0
 41110  1  0  0  0
 41111  1  0  0  0
 41 48  1  0  0  0
 42 43  1  0  0  0
 42 66  1  0  0  0
 42112  1  0  0  0
 42113  1  0  0  0
 43 44  1  0  0  0
 44114  1  0  0  0
 45 46  2  0  0  0
 45115  1  0  0  0
 46116  1  0  0  0
 47117  1  0  0  0
 47118  1  0  0  0
 48 56  1  0  0  0
 48 65  1  0  0  0
 48119  1  0  0  0
 49 50  1  0  0  0
 49 53  1  0  0  0
 49 64  1  0  0  0
 49120  1  0  0  0
 50 51  1  0  0  0
 50121  1  0  0  0
 50122  1  0  0  0
 51 52  1  0  0  0
 51123  1  0  0  0
 51124  1  0  0  0
 52125  1  0  0  0
 52126  1  0  0  0
 53 54  1  0  0  0
 54 55  2  0  0  0
 54127  1  0  0  0
 55 57  1  0  0  0
 55128  1  0  0  0
 56 69  2  0  0  0
 57 58  2  0  0  0
 57129  1  0  0  0
 58130  1  0  0  0
 59 60  1  0  0  0
 59 61  1  0  0  0
 59 62  1  0  0  0
 60131  1  0  0  0
 60132  1  0  0  0
 60133  1  0  0  0
 61134  1  0  0  0
 61135  1  0  0  0
 61136  1  0  0  0
 62137  1  0  0  0
 62138  1  0  0  0
 62139  1  0  0  0
 63 65  1  0  0  0
 63140  1  0  0  0
 63141  1  0  0  0
 63142  1  0  0  0
 64143  1  0  0  0
 65144  1  0  0  0
 68 81  1  0  0  0
 71 72  2  0  0  0
 71 74  1  0  0  0
 71145  1  0  0  0
 72 75  1  0  0  0
 72 77  1  0  0  0
 73 75  2  0  0  0
 73 76  1  0  0  0
 73 78  1  0  0  0
 74 76  2  0  0  0
 74 82  1  0  0  0
 75 84  1  0  0  0
 76 85  1  0  0  0
 77146  1  0  0  0
 77147  1  0  0  0
 77148  1  0  0  0
 78 83  1  0  0  0
 78149  1  0  0  0
 78150  1  0  0  0
 79 80  1  0  0  0
 79 81  1  0  0  0
 79151  1  0  0  0
 79152  1  0  0  0
 80 83  1  0  0  0
 80153  1  0  0  0
 80154  1  0  0  0
 81155  1  0  0  0
 81156  1  0  0  0
 82157  1  0  0  0
 83158  1  0  0  0
 83159  1  0  0  0
M  CHG  1  83   1
M  ISO  4   1 100  68 101  81 101  82 100
M  END
> <chiral flag>
0

> <version>
0

> <s_m_source_file>
/data/baiqing/PycharmProjects/Reinvent-master-3.2/result/LINK_invent/BTK/process_docking_weight1_custom_sum_contain_oxygen_bond_distance_aromatic_linkinvent_7_9_3/rearranged_h_0016.sdf

> <i_m_source_file_index>
22

> <r_mmod_Potential_Energy-OPLS-2005>
-243.393463134766

> <r_mmod_Stretch_Energy-OPLS-2005>
54.1435813903809

> <r_mmod_Bend_Energy-OPLS-2005>
121.677604675293

> <r_mmod_Torsional_Energy-OPLS-2005>
224.516372680664

> <r_mmod_Improper_Torsional_Energy-OPLS-2005>
4.62114810943604

> <r_mmod_Van_der_Waal_Energy-OPLS-2005>
163.301574707031

> <r_mmod_Electrostatic_Energy-OPLS-2005>
-371.979400634766

> <r_mmod_Solvation_Energy-OPLS-2005>
-466.893035888672

> <b_mmod_Minimization_Converged-OPLS-2005>
0

> <r_mmod_RMS_Derivative-OPLS-2005>
1.45584833621979

$$$$
22
                    3D
 Structure written by MMmdl.
158166  0  0  1  0            999 V2000
  -30.6182  -14.7366   20.4458 C   0  0  0  0  0  0
  -30.4268  -12.4423   19.4718 C   0  0  0  0  0  0
  -29.5078  -12.5000   18.2324 C   0  0  0  0  0  0
  -28.0335  -12.3304   18.6467 C   0  0  0  0  0  0
  -27.6425  -13.2286   19.8515 C   0  0  2  0  0  0
  -28.6890  -13.1574   20.9873 C   0  0  0  0  0  0
  -25.2524  -13.8192   20.5700 C   0  0  0  0  0  0
  -24.1811  -13.0453   20.9189 C   0  0  0  0  0  0
  -24.6371  -11.6914   20.8731 C   0  0  0  0  0  0
  -23.9034  -10.4299   21.0389 C   0  0  0  0  0  0
  -24.3587   -9.4231   21.9175 C   0  0  0  0  0  0
  -23.6274   -8.2260   22.0758 C   0  0  0  0  0  0
  -22.4260   -8.0276   21.3543 C   0  0  0  0  0  0
  -21.9888   -9.0243   20.4642 C   0  0  0  0  0  0
  -22.7202  -10.2131   20.3043 C   0  0  0  0  0  0
  -21.6858   -6.0718   22.5263 C   0  0  0  0  0  0
  -21.4022   -6.5624   23.8192 C   0  0  0  0  0  0
  -21.3663   -5.6781   24.9166 C   0  0  0  0  0  0
  -21.6038   -4.3044   24.7225 C   0  0  0  0  0  0
  -21.8828   -3.8134   23.4344 C   0  0  0  0  0  0
  -21.9200   -4.6943   22.3394 C   0  0  0  0  0  0
  -22.7836  -13.5247   21.1838 C   0  0  0  0  0  0
  -22.1669   -4.2122   21.0973 F   0  0  0  0  0  0
  -21.5625   -3.4534   25.7742 F   0  0  0  0  0  0
  -29.9886  -13.5106   20.4014 N   0  0  0  0  0  0
  -26.2945  -12.9387   20.3292 N   0  0  0  0  0  0
  -25.9307  -11.6527   20.5740 N   0  0  0  0  0  0
  -22.0448  -12.8255   22.0379 N   0  0  0  0  0  0
  -25.4236  -15.1912   20.4131 N   0  0  0  0  0  0
  -31.7852  -14.8192   20.0597 O   0  0  0  0  0  0
  -21.6643   -6.8863   21.4224 O   0  0  0  0  0  0
  -22.3544  -14.5559   20.6673 O   0  0  0  0  0  0
  -24.6279  -31.8492   23.1969 C   0  0  0  0  0  0
  -25.9141  -32.4686   23.8295 C   0  0  1  0  0  0
  -27.2468  -27.2841   20.1031 C   0  0  0  0  0  0
  -25.5974  -33.8486   24.2222 N   0  0  0  0  0  0
  -23.4234  -30.4645   21.5388 C   0  0  2  0  0  0
  -24.8789  -28.9132   20.1075 C   0  0  0  0  0  0
  -22.7472  -29.4529   22.4942 C   0  0  0  0  0  0
  -18.0273  -28.1318   22.8453 C   0  0  0  0  0  0
  -24.1498  -36.7225   23.2630 C   0  0  0  0  0  0
  -25.9654  -30.7728   21.3725 C   0  0  0  0  0  0
  -26.0464  -29.3983   20.7076 C   0  0  0  0  0  0
  -27.2296  -28.5938   20.6940 C   0  0  0  0  0  0
  -26.0500  -26.8568   19.4892 C   0  0  0  0  0  0
  -24.8829  -27.6507   19.4918 C   0  0  0  0  0  0
  -23.6400  -29.7859   20.1602 C   0  0  0  0  0  0
  -25.4125  -36.2985   24.0301 C   0  0  1  0  0  0
  -20.5863  -28.3619   23.1259 C   0  0  2  0  0  0
  -20.6737  -26.9338   22.5397 C   0  0  0  0  0  0
  -19.5742  -26.6336   21.5160 C   0  0  0  0  0  0
  -18.1918  -26.7866   22.1571 C   0  0  0  0  0  0
  -19.1522  -28.8794   23.2831 C   0  0  0  0  0  0
  -18.9447  -30.1403   23.8826 C   0  0  0  0  0  0
  -17.6449  -30.6529   24.0513 C   0  0  0  0  0  0
  -25.9071  -34.9374   23.5048 C   0  0  0  0  0  0
  -16.5341  -29.9006   23.6321 C   0  0  0  0  0  0
  -16.7258  -28.6426   23.0342 C   0  0  0  0  0  0
  -26.4560  -31.6515   25.0678 C   0  0  0  0  0  0
  -25.3804  -31.3650   26.1409 C   0  0  0  0  0  0
  -27.0422  -30.2911   24.6188 C   0  0  0  0  0  0
  -27.6072  -32.4300   25.7462 C   0  0  0  0  0  0
  -27.5577  -37.1751   24.8458 C   0  0  0  0  0  0
  -21.4184  -29.2976   22.3684 N   0  0  0  0  0  0
  -26.4275  -37.3710   23.9417 N   0  0  0  0  0  0
  -24.6896  -31.0486   22.0913 N   0  0  0  0  0  0
  -23.4178  -28.8075   23.3037 O   0  0  0  0  0  0
  -28.3826  -26.4450   20.1721 O   0  0  0  0  0  0
  -26.5638  -34.8858   22.4606 O   0  0  0  0  0  0
  -23.5450  -32.1323   23.7309 O   0  0  0  0  0  0
  -30.8772  -20.1413   20.9583 C   0  0  0  0  0  0
  -31.7732  -19.1423   21.3951 C   0  0  0  0  0  0
  -29.5903  -19.8244   20.4873 C   0  0  0  0  0  0
  -30.2149  -17.3264   20.7655 C   0  0  0  0  0  0
  -31.4329  -17.7668   21.3588 C   0  0  0  0  0  0
  -29.2994  -18.3892   20.3536 C   0  0  0  0  0  0
  -33.1049  -19.5736   21.9874 C   0  0  0  0  0  0
  -27.3995  -20.8013   21.0194 C   0  0  0  0  0  0
  -28.4161  -23.6816   20.3462 C   0  0  0  0  0  0
  -28.9394  -22.2982   19.6568 C   0  0  0  0  0  0
  -28.5120  -25.0891   19.5341 C   0  0  0  0  0  0
  -29.8584  -15.8719   20.7053 N   0  0  0  0  0  0
  -28.6670  -20.9449   20.3093 N   0  0  0  0  0  0
  -32.4979  -16.6772   22.1911 Cl  0  0  0  0  0  0
  -27.7923  -17.8899   19.6637 Cl  0  0  0  0  0  0
  -31.4704  -12.5481   19.1717 H   0  0  0  0  0  0
  -30.3574  -11.4679   19.9558 H   0  0  0  0  0  0
  -29.7857  -11.7212   17.5201 H   0  0  0  0  0  0
  -29.6414  -13.4511   17.7145 H   0  0  0  0  0  0
  -27.8861  -11.2818   18.9080 H   0  0  0  0  0  0
  -27.3772  -12.5263   17.7989 H   0  0  0  0  0  0
  -27.6398  -14.2513   19.4747 H   0  0  0  0  0  0
  -28.7242  -12.1556   21.4181 H   0  0  0  0  0  0
  -28.4278  -13.8320   21.8042 H   0  0  0  0  0  0
  -25.2718   -9.5726   22.4766 H   0  0  0  0  0  0
  -23.9973   -7.4668   22.7501 H   0  0  0  0  0  0
  -21.0817   -8.8756   19.8958 H   0  0  0  0  0  0
  -22.3642  -10.9664   19.6164 H   0  0  0  0  0  0
  -21.2022   -7.6136   23.9688 H   0  0  0  0  0  0
  -21.1470   -6.0519   25.9065 H   0  0  0  0  0  0
  -22.0607   -2.7592   23.2855 H   0  0  0  0  0  0
  -22.4036  -11.9926   22.4802 H   0  0  0  0  0  0
  -21.1058  -13.1306   22.2516 H   0  0  0  0  0  0
  -24.6533  -15.8413   20.5194 H   0  0  0  0  0  0
  -26.2667  -15.6358   20.0736 H   0  0  0  0  0  0
  -26.7191  -32.5346   23.1032 H   0  0  0  0  0  0
  -25.0185  -33.9617   25.0409 H   0  0  0  0  0  0
  -22.7166  -31.2812   21.3856 H   0  0  0  0  0  0
  -23.3748  -35.9562   23.3248 H   0  0  0  0  0  0
  -24.3610  -36.8931   22.2062 H   0  0  0  0  0  0
  -23.7263  -37.6397   23.6720 H   0  0  0  0  0  0
  -26.1089  -31.5451   20.6172 H   0  0  0  0  0  0
  -26.8371  -30.8157   22.0124 H   0  0  0  0  0  0
  -28.1292  -28.9670   21.1643 H   0  0  0  0  0  0
  -25.9877  -25.8865   19.0244 H   0  0  0  0  0  0
  -23.9823  -27.2720   19.0286 H   0  0  0  0  0  0
  -23.7378  -30.5482   19.3864 H   0  0  0  0  0  0
  -22.7692  -29.1916   19.8762 H   0  0  0  0  0  0
  -25.1301  -36.1782   25.0785 H   0  0  0  0  0  0
  -20.9922  -28.3190   24.1394 H   0  0  0  0  0  0
  -20.5556  -26.2231   23.3593 H   0  0  0  0  0  0
  -21.6615  -26.7316   22.1250 H   0  0  0  0  0  0
  -19.6896  -25.6242   21.1204 H   0  0  0  0  0  0
  -19.6687  -27.3124   20.6672 H   0  0  0  0  0  0
  -17.4184  -26.6587   21.3979 H   0  0  0  0  0  0
  -18.0324  -25.9986   22.8947 H   0  0  0  0  0  0
  -19.7934  -30.7208   24.2176 H   0  0  0  0  0  0
  -17.5012  -31.6214   24.5109 H   0  0  0  0  0  0
  -15.5340  -30.2871   23.7685 H   0  0  0  0  0  0
  -15.8673  -28.0732   22.7074 H   0  0  0  0  0  0
  -24.6044  -30.6902   25.7785 H   0  0  0  0  0  0
  -24.8914  -32.2794   26.4746 H   0  0  0  0  0  0
  -25.8165  -30.8935   27.0224 H   0  0  0  0  0  0
  -26.2998  -29.6614   24.1265 H   0  0  0  0  0  0
  -27.4145  -29.7212   25.4720 H   0  0  0  0  0  0
  -27.8865  -30.4132   23.9395 H   0  0  0  0  0  0
  -27.2643  -33.3656   26.1881 H   0  0  0  0  0  0
  -28.3955  -32.6793   25.0345 H   0  0  0  0  0  0
  -28.0648  -31.8529   26.5513 H   0  0  0  0  0  0
  -28.2515  -38.0127   24.7560 H   0  0  0  0  0  0
  -28.1152  -36.2645   24.6195 H   0  0  0  0  0  0
  -27.2302  -37.1288   25.8864 H   0  0  0  0  0  0
  -20.9376  -29.8732   21.6917 H   0  0  0  0  0  0
  -26.0109  -38.2735   24.1500 H   0  0  0  0  0  0
  -31.1553  -21.1782   21.0770 H   0  0  0  0  0  0
  -33.2822  -20.6416   21.8649 H   0  0  0  0  0  0
  -33.9237  -19.0424   21.5019 H   0  0  0  0  0  0
  -33.1373  -19.3441   23.0527 H   0  0  0  0  0  0
  -27.2787  -19.8216   21.4832 H   0  0  0  0  0  0
  -26.5527  -20.9744   20.3544 H   0  0  0  0  0  0
  -27.3483  -21.5330   21.8280 H   0  0  0  0  0  0
  -28.9425  -23.7941   21.2942 H   0  0  0  0  0  0
  -27.3663  -23.5597   20.6107 H   0  0  0  0  0  0
  -30.0056  -22.3904   19.4527 H   0  0  0  0  0  0
  -28.4814  -22.2463   18.6676 H   0  0  0  0  0  0
  -27.8927  -25.0284   18.6416 H   0  0  0  0  0  0
  -29.5211  -25.1128   19.1197 H   0  0  0  0  0  0
  -28.8759  -15.6861   20.8241 H   0  0  0  0  0  0
  1 25  1  0  0  0
  1 30  2  0  0  0
  1 82  1  0  0  0
  2  3  1  0  0  0
  2 25  1  0  0  0
  2 86  1  0  0  0
  2 87  1  0  0  0
  3  4  1  0  0  0
  3 88  1  0  0  0
  3 89  1  0  0  0
  4  5  1  0  0  0
  4 90  1  0  0  0
  4 91  1  0  0  0
  5  6  1  0  0  0
  5 26  1  0  0  0
  5 92  1  0  0  0
  6 25  1  0  0  0
  6 93  1  0  0  0
  6 94  1  0  0  0
  7  8  2  0  0  0
  7 26  1  0  0  0
  7 29  1  0  0  0
  8  9  1  0  0  0
  8 22  1  0  0  0
  9 10  1  0  0  0
  9 27  2  0  0  0
 10 11  2  0  0  0
 10 15  1  0  0  0
 11 12  1  0  0  0
 11 95  1  0  0  0
 12 13  2  0  0  0
 12 96  1  0  0  0
 13 14  1  0  0  0
 13 31  1  0  0  0
 14 15  2  0  0  0
 14 97  1  0  0  0
 15 98  1  0  0  0
 16 17  2  0  0  0
 16 21  1  0  0  0
 16 31  1  0  0  0
 17 18  1  0  0  0
 17 99  1  0  0  0
 18 19  2  0  0  0
 18100  1  0  0  0
 19 20  1  0  0  0
 19 24  1  0  0  0
 20 21  2  0  0  0
 20101  1  0  0  0
 21 23  1  0  0  0
 22 28  1  0  0  0
 22 32  2  0  0  0
 26 27  1  0  0  0
 28102  1  0  0  0
 28103  1  0  0  0
 29104  1  0  0  0
 29105  1  0  0  0
 33 34  1  0  0  0
 33 66  1  0  0  0
 33 70  2  0  0  0
 34 36  1  0  0  0
 34 59  1  0  0  0
 34106  1  0  0  0
 35 44  2  0  0  0
 35 45  1  0  0  0
 35 68  1  0  0  0
 36 56  1  0  0  0
 36107  1  0  0  0
 37 39  1  0  0  0
 37 47  1  0  0  0
 37 66  1  0  0  0
 37108  1  0  0  0
 38 43  2  0  0  0
 38 46  1  0  0  0
 38 47  1  0  0  0
 39 64  1  0  0  0
 39 67  2  0  0  0
 40 52  1  0  0  0
 40 53  2  0  0  0
 40 58  1  0  0  0
 41109  1  0  0  0
 41110  1  0  0  0
 41111  1  0  0  0
 41 48  1  0  0  0
 42 43  1  0  0  0
 42 66  1  0  0  0
 42112  1  0  0  0
 42113  1  0  0  0
 43 44  1  0  0  0
 44114  1  0  0  0
 45 46  2  0  0  0
 45115  1  0  0  0
 46116  1  0  0  0
 47117  1  0  0  0
 47118  1  0  0  0
 48 56  1  0  0  0
 48 65  1  0  0  0
 48119  1  0  0  0
 49 50  1  0  0  0
 49 53  1  0  0  0
 49 64  1  0  0  0
 49120  1  0  0  0
 50 51  1  0  0  0
 50121  1  0  0  0
 50122  1  0  0  0
 51 52  1  0  0  0
 51123  1  0  0  0
 51124  1  0  0  0
 52125  1  0  0  0
 52126  1  0  0  0
 53 54  1  0  0  0
 54 55  2  0  0  0
 54127  1  0  0  0
 55 57  1  0  0  0
 55128  1  0  0  0
 56 69  2  0  0  0
 57 58  2  0  0  0
 57129  1  0  0  0
 58130  1  0  0  0
 59 60  1  0  0  0
 59 61  1  0  0  0
 59 62  1  0  0  0
 60131  1  0  0  0
 60132  1  0  0  0
 60133  1  0  0  0
 61134  1  0  0  0
 61135  1  0  0  0
 61136  1  0  0  0
 62137  1  0  0  0
 62138  1  0  0  0
 62139  1  0  0  0
 63 65  1  0  0  0
 63140  1  0  0  0
 63141  1  0  0  0
 63142  1  0  0  0
 64143  1  0  0  0
 65144  1  0  0  0
 68 81  1  0  0  0
 71 72  2  0  0  0
 71 73  1  0  0  0
 71145  1  0  0  0
 72 75  1  0  0  0
 72 77  1  0  0  0
 73 76  2  0  0  0
 73 83  1  0  0  0
 74 75  2  0  0  0
 74 76  1  0  0  0
 74 82  1  0  0  0
 75 84  1  0  0  0
 76 85  1  0  0  0
 77146  1  0  0  0
 77147  1  0  0  0
 77148  1  0  0  0
 78 83  1  0  0  0
 78149  1  0  0  0
 78150  1  0  0  0
 78151  1  0  0  0
 79 80  1  0  0  0
 79 81  1  0  0  0
 79152  1  0  0  0
 79153  1  0  0  0
 80 83  1  0  0  0
 80154  1  0  0  0
 80155  1  0  0  0
 81156  1  0  0  0
 81157  1  0  0  0
 82158  1  0  0  0
M  ISO  4   1 100  68 101  81 101  82 100
M  END
> <chiral flag>
0

> <version>
0

> <s_m_source_file>
/data/baiqing/PycharmProjects/Reinvent-master-3.2/result/LINK_invent/BTK/process_docking_weight1_custom_sum_contain_oxygen_bond_distance_aromatic_linkinvent_7_9_3/rearranged_h_0016.sdf

> <i_m_source_file_index>
23

> <r_mmod_Potential_Energy-OPLS-2005>
217.948745727539

> <r_mmod_Stretch_Energy-OPLS-2005>
137.295974731445

> <r_mmod_Bend_Energy-OPLS-2005>
195.464111328125

> <r_mmod_Torsional_Energy-OPLS-2005>
232.821426391602

> <r_mmod_Improper_Torsional_Energy-OPLS-2005>
6.661865234375

> <r_mmod_Van_der_Waal_Energy-OPLS-2005>
148.01335144043

> <r_mmod_Electrostatic_Energy-OPLS-2005>
-364.028961181641

> <r_mmod_Solvation_Energy-OPLS-2005>
-212.172897338867

> <b_mmod_Minimization_Converged-OPLS-2005>
0

> <r_mmod_RMS_Derivative-OPLS-2005>
3.32964372634888

$$$$
23
                    3D
 Structure written by MMmdl.
162171  0  0  1  0            999 V2000
  -30.5136  -15.0315   20.3803 C   0  0  0  0  0  0
  -30.4395  -12.6337   19.5222 C   0  0  0  0  0  0
  -29.5315  -12.5308   18.2733 C   0  0  0  0  0  0
  -28.0636  -12.3136   18.6837 C   0  0  0  0  0  0
  -27.6264  -13.2577   19.8338 C   0  0  2  0  0  0
  -28.6635  -13.3241   20.9754 C   0  0  0  0  0  0
  -25.2444  -13.8233   20.5696 C   0  0  0  0  0  0
  -24.1772  -13.0444   20.9222 C   0  0  0  0  0  0
  -24.6400  -11.6931   20.8749 C   0  0  0  0  0  0
  -23.9080  -10.4298   21.0400 C   0  0  0  0  0  0
  -24.3630   -9.4210   21.9172 C   0  0  0  0  0  0
  -23.6304   -8.2246   22.0745 C   0  0  0  0  0  0
  -22.4286   -8.0284   21.3539 C   0  0  0  0  0  0
  -21.9923   -9.0254   20.4635 C   0  0  0  0  0  0
  -22.7252  -10.2132   20.3042 C   0  0  0  0  0  0
  -21.6858   -6.0736   22.5274 C   0  0  0  0  0  0
  -21.4019   -6.5634   23.8210 C   0  0  0  0  0  0
  -21.3664   -5.6784   24.9170 C   0  0  0  0  0  0
  -21.6049   -4.3049   24.7219 C   0  0  0  0  0  0
  -21.8818   -3.8141   23.4339 C   0  0  0  0  0  0
  -21.9194   -4.6961   22.3396 C   0  0  0  0  0  0
  -22.7788  -13.5204   21.1880 C   0  0  0  0  0  0
  -22.1654   -4.2144   21.0973 F   0  0  0  0  0  0
  -21.5634   -3.4532   25.7732 F   0  0  0  0  0  0
  -29.9340  -13.7539   20.3775 N   0  0  0  0  0  0
  -26.2873  -12.9475   20.3214 N   0  0  0  0  0  0
  -25.9336  -11.6598   20.5726 N   0  0  0  0  0  0
  -22.0436  -12.8194   22.0435 N   0  0  0  0  0  0
  -25.4127  -15.1964   20.4126 N   0  0  0  0  0  0
  -31.7208  -15.0653   20.1146 O   0  0  0  0  0  0
  -21.6646   -6.8885   21.4236 O   0  0  0  0  0  0
  -22.3460  -14.5494   20.6707 O   0  0  0  0  0  0
  -24.6487  -31.8381   23.1820 C   0  0  0  0  0  0
  -25.9234  -32.4659   23.8234 C   0  0  1  0  0  0
  -27.2166  -27.0749   20.1597 C   0  0  0  0  0  0
  -25.5962  -33.8470   24.2148 N   0  0  0  0  0  0
  -23.4556  -30.4547   21.5289 C   0  0  2  0  0  0
  -24.9059  -28.8688   20.1100 C   0  0  0  0  0  0
  -22.7594  -29.4510   22.4831 C   0  0  0  0  0  0
  -18.0310  -28.1396   22.8469 C   0  0  0  0  0  0
  -24.1498  -36.7242   23.2643 C   0  0  0  0  0  0
  -26.0159  -30.6921   21.3893 C   0  0  0  0  0  0
  -26.0861  -29.2972   20.7310 C   0  0  0  0  0  0
  -27.2417  -28.4186   20.7335 C   0  0  0  0  0  0
  -26.0091  -26.7608   19.4992 C   0  0  0  0  0  0
  -24.8846  -27.6171   19.4759 C   0  0  0  0  0  0
  -23.6859  -29.7793   20.1502 C   0  0  0  0  0  0
  -25.4133  -36.3014   24.0308 C   0  0  1  0  0  0
  -20.5925  -28.3732   23.1218 C   0  0  2  0  0  0
  -20.6794  -26.9428   22.5403 C   0  0  0  0  0  0
  -19.5769  -26.6376   21.5211 C   0  0  0  0  0  0
  -18.1949  -26.7932   22.1617 C   0  0  0  0  0  0
  -19.1567  -28.8881   23.2835 C   0  0  0  0  0  0
  -18.9481  -30.1476   23.8864 C   0  0  0  0  0  0
  -17.6476  -30.6591   24.0556 C   0  0  0  0  0  0
  -25.9084  -34.9389   23.5040 C   0  0  0  0  0  0
  -16.5368  -29.9081   23.6338 C   0  0  0  0  0  0
  -16.7293  -28.6502   23.0355 C   0  0  0  0  0  0
  -26.4537  -31.6546   25.0696 C   0  0  0  0  0  0
  -25.3709  -31.3748   26.1381 C   0  0  0  0  0  0
  -27.0405  -30.2929   24.6317 C   0  0  0  0  0  0
  -27.6049  -32.4331   25.7494 C   0  0  0  0  0  0
  -27.5578  -37.1778   24.8464 C   0  0  0  0  0  0
  -21.4279  -29.3049   22.3584 N   0  0  0  0  0  0
  -26.4291  -37.3733   23.9403 N   0  0  0  0  0  0
  -24.7268  -31.0182   22.0883 N   0  0  0  0  0  0
  -23.4212  -28.8071   23.3012 O   0  0  0  0  0  0
  -28.2581  -26.0596   20.2295 O   0  0  0  0  0  0
  -26.5677  -34.8902   22.4626 O   0  0  0  0  0  0
  -23.5591  -32.1283   23.7003 O   0  0  0  0  0  0
  -30.0950  -19.1164   17.9352 C   0  0  0  0  0  0
  -30.1751  -17.8614   18.5830 C   0  0  0  0  0  0
  -29.6032  -20.3051   18.5193 C   0  0  0  0  0  0
  -29.7808  -17.6970   19.9425 C   0  0  0  0  0  0
  -29.2184  -20.3609   19.8871 C   0  0  0  0  0  0
  -29.2965  -18.9974   20.5497 C   0  0  0  0  0  0
  -30.9298  -24.2249   20.9084 C   0  0  0  0  0  0
  -29.8923  -23.4378   21.7042 C   0  0  0  0  0  0
  -30.4770  -23.3936   19.7125 C   0  0  0  0  0  0
  -29.1006  -23.2038   20.3958 C   0  0  0  0  0  0
  -30.6042  -16.6963   17.7017 C   0  0  0  0  0  0
  -29.4037  -21.4686   17.5556 C   0  0  0  0  0  0
  -28.0007  -24.4979   20.1086 C   0  0  0  0  0  0
  -29.7432  -16.2429   20.5347 N   0  0  0  0  0  0
  -28.6678  -21.6652   20.4270 N   0  0  0  0  0  0
  -28.7349  -18.9098   22.1808 Cl  0  0  0  0  0  0
  -31.4742  -12.7897   19.2136 H   0  0  0  0  0  0
  -30.4384  -11.6949   20.0786 H   0  0  0  0  0  0
  -29.8664  -11.7157   17.6301 H   0  0  0  0  0  0
  -29.6175  -13.4417   17.6805 H   0  0  0  0  0  0
  -27.9636  -11.2759   19.0039 H   0  0  0  0  0  0
  -27.4058  -12.4298   17.8220 H   0  0  0  0  0  0
  -27.5791  -14.2514   19.3878 H   0  0  0  0  0  0
  -28.7650  -12.3587   21.4728 H   0  0  0  0  0  0
  -28.3472  -14.0355   21.7399 H   0  0  0  0  0  0
  -25.2776   -9.5687   22.4743 H   0  0  0  0  0  0
  -24.0009   -7.4643   22.7470 H   0  0  0  0  0  0
  -21.0851   -8.8777   19.8950 H   0  0  0  0  0  0
  -22.3712  -10.9666   19.6149 H   0  0  0  0  0  0
  -21.2013   -7.6143   23.9711 H   0  0  0  0  0  0
  -21.1485   -6.0512   25.9072 H   0  0  0  0  0  0
  -22.0598   -2.7602   23.2836 H   0  0  0  0  0  0
  -22.4063  -11.9874   22.4850 H   0  0  0  0  0  0
  -21.1041  -13.1197   22.2617 H   0  0  0  0  0  0
  -24.6478  -15.8513   20.5317 H   0  0  0  0  0  0
  -26.2564  -15.6333   20.0645 H   0  0  0  0  0  0
  -26.7295  -32.5244   23.0955 H   0  0  0  0  0  0
  -25.0092  -33.9581   25.0283 H   0  0  0  0  0  0
  -22.7611  -31.2821   21.3690 H   0  0  0  0  0  0
  -23.3766  -35.9566   23.3288 H   0  0  0  0  0  0
  -24.3579  -36.8897   22.2060 H   0  0  0  0  0  0
  -23.7247  -37.6427   23.6699 H   0  0  0  0  0  0
  -26.1799  -31.4427   20.6148 H   0  0  0  0  0  0
  -26.8836  -30.7431   22.0357 H   0  0  0  0  0  0
  -28.1407  -28.7427   21.2385 H   0  0  0  0  0  0
  -25.9028  -25.8028   19.0133 H   0  0  0  0  0  0
  -23.9855  -27.2844   18.9749 H   0  0  0  0  0  0
  -23.8278  -30.5522   19.3937 H   0  0  0  0  0  0
  -22.7986  -29.2254   19.8374 H   0  0  0  0  0  0
  -25.1326  -36.1831   25.0799 H   0  0  0  0  0  0
  -21.0018  -28.3329   24.1339 H   0  0  0  0  0  0
  -20.5684  -26.2348   23.3630 H   0  0  0  0  0  0
  -21.6660  -26.7426   22.1203 H   0  0  0  0  0  0
  -19.6938  -25.6278   21.1263 H   0  0  0  0  0  0
  -19.6709  -27.3167   20.6726 H   0  0  0  0  0  0
  -17.4221  -26.6672   21.4019 H   0  0  0  0  0  0
  -18.0348  -26.0079   22.9019 H   0  0  0  0  0  0
  -19.7957  -30.7301   24.2214 H   0  0  0  0  0  0
  -17.5030  -31.6267   24.5167 H   0  0  0  0  0  0
  -15.5366  -30.2975   23.7680 H   0  0  0  0  0  0
  -15.8690  -28.0813   22.7085 H   0  0  0  0  0  0
  -24.5906  -30.7078   25.7701 H   0  0  0  0  0  0
  -24.8880  -32.2930   26.4731 H   0  0  0  0  0  0
  -25.7983  -30.8973   27.0205 H   0  0  0  0  0  0
  -26.3025  -29.6639   24.1323 H   0  0  0  0  0  0
  -27.3992  -29.7248   25.4910 H   0  0  0  0  0  0
  -27.8951  -30.4142   23.9657 H   0  0  0  0  0  0
  -27.2621  -33.3656   26.1992 H   0  0  0  0  0  0
  -28.3901  -32.6852   25.0354 H   0  0  0  0  0  0
  -28.0670  -31.8508   26.5476 H   0  0  0  0  0  0
  -28.2580  -38.0090   24.7510 H   0  0  0  0  0  0
  -28.1090  -36.2613   24.6295 H   0  0  0  0  0  0
  -27.2292  -37.1429   25.8867 H   0  0  0  0  0  0
  -20.9502  -29.8752   21.6746 H   0  0  0  0  0  0
  -26.0151  -38.2797   24.1406 H   0  0  0  0  0  0
  -30.3656  -19.1617   16.8886 H   0  0  0  0  0  0
  -31.9643  -24.0642   21.2142 H   0  0  0  0  0  0
  -30.6962  -25.2861   20.8118 H   0  0  0  0  0  0
  -29.3666  -24.0268   22.4575 H   0  0  0  0  0  0
  -30.3183  -22.5332   22.1439 H   0  0  0  0  0  0
  -31.0727  -22.4849   19.6147 H   0  0  0  0  0  0
  -30.4473  -23.9555   18.7776 H   0  0  0  0  0  0
  -30.5827  -16.9616   16.6447 H   0  0  0  0  0  0
  -29.9347  -15.8445   17.8104 H   0  0  0  0  0  0
  -31.6248  -16.3915   17.9299 H   0  0  0  0  0  0
  -29.0256  -21.1030   16.6006 H   0  0  0  0  0  0
  -30.3485  -21.9722   17.3554 H   0  0  0  0  0  0
  -28.6767  -22.1982   17.9072 H   0  0  0  0  0  0
  -27.1357  -24.3194   20.7477 H   0  0  0  0  0  0
  -27.6203  -24.3554   19.0967 H   0  0  0  0  0  0
  -28.8851  -16.0654   21.0335 H   0  0  0  0  0  0
  -28.1057  -21.4798   21.2525 H   0  0  0  0  0  0
  1 25  1  0  0  0
  1 30  2  0  0  0
  1 84  1  0  0  0
  2  3  1  0  0  0
  2 25  1  0  0  0
  2 87  1  0  0  0
  2 88  1  0  0  0
  3  4  1  0  0  0
  3 89  1  0  0  0
  3 90  1  0  0  0
  4  5  1  0  0  0
  4 91  1  0  0  0
  4 92  1  0  0  0
  5  6  1  0  0  0
  5 26  1  0  0  0
  5 93  1  0  0  0
  6 25  1  0  0  0
  6 94  1  0  0  0
  6 95  1  0  0  0
  7  8  2  0  0  0
  7 26  1  0  0  0
  7 29  1  0  0  0
  8  9  1  0  0  0
  8 22  1  0  0  0
  9 10  1  0  0  0
  9 27  2  0  0  0
 10 11  2  0  0  0
 10 15  1  0  0  0
 11 12  1  0  0  0
 11 96  1  0  0  0
 12 13  2  0  0  0
 12 97  1  0  0  0
 13 14  1  0  0  0
 13 31  1  0  0  0
 14 15  2  0  0  0
 14 98  1  0  0  0
 15 99  1  0  0  0
 16 17  2  0  0  0
 16 21  1  0  0  0
 16 31  1  0  0  0
 17 18  1  0  0  0
 17100  1  0  0  0
 18 19  2  0  0  0
 18101  1  0  0  0
 19 20  1  0  0  0
 19 24  1  0  0  0
 20 21  2  0  0  0
 20102  1  0  0  0
 21 23  1  0  0  0
 22 28  1  0  0  0
 22 32  2  0  0  0
 26 27  1  0  0  0
 28103  1  0  0  0
 28104  1  0  0  0
 29105  1  0  0  0
 29106  1  0  0  0
 33 34  1  0  0  0
 33 66  1  0  0  0
 33 70  2  0  0  0
 34 36  1  0  0  0
 34 59  1  0  0  0
 34107  1  0  0  0
 35 44  2  0  0  0
 35 45  1  0  0  0
 35 68  1  0  0  0
 36 56  1  0  0  0
 36108  1  0  0  0
 37 39  1  0  0  0
 37 47  1  0  0  0
 37 66  1  0  0  0
 37109  1  0  0  0
 38 43  2  0  0  0
 38 46  1  0  0  0
 38 47  1  0  0  0
 39 64  1  0  0  0
 39 67  2  0  0  0
 40 52  1  0  0  0
 40 53  2  0  0  0
 40 58  1  0  0  0
 41110  1  0  0  0
 41111  1  0  0  0
 41112  1  0  0  0
 41 48  1  0  0  0
 42 43  1  0  0  0
 42 66  1  0  0  0
 42113  1  0  0  0
 42114  1  0  0  0
 43 44  1  0  0  0
 44115  1  0  0  0
 45 46  2  0  0  0
 45116  1  0  0  0
 46117  1  0  0  0
 47118  1  0  0  0
 47119  1  0  0  0
 48 56  1  0  0  0
 48 65  1  0  0  0
 48120  1  0  0  0
 49 50  1  0  0  0
 49 53  1  0  0  0
 49 64  1  0  0  0
 49121  1  0  0  0
 50 51  1  0  0  0
 50122  1  0  0  0
 50123  1  0  0  0
 51 52  1  0  0  0
 51124  1  0  0  0
 51125  1  0  0  0
 52126  1  0  0  0
 52127  1  0  0  0
 53 54  1  0  0  0
 54 55  2  0  0  0
 54128  1  0  0  0
 55 57  1  0  0  0
 55129  1  0  0  0
 56 69  2  0  0  0
 57 58  2  0  0  0
 57130  1  0  0  0
 58131  1  0  0  0
 59 60  1  0  0  0
 59 61  1  0  0  0
 59 62  1  0  0  0
 60132  1  0  0  0
 60133  1  0  0  0
 60134  1  0  0  0
 61135  1  0  0  0
 61136  1  0  0  0
 61137  1  0  0  0
 62138  1  0  0  0
 62139  1  0  0  0
 62140  1  0  0  0
 63 65  1  0  0  0
 63141  1  0  0  0
 63142  1  0  0  0
 63143  1  0  0  0
 64144  1  0  0  0
 65145  1  0  0  0
 68 83  1  0  0  0
 71 72  2  0  0  0
 71 73  1  0  0  0
 71146  1  0  0  0
 72 74  1  0  0  0
 72 81  1  0  0  0
 73 75  2  0  0  0
 73 82  1  0  0  0
 74 76  2  0  0  0
 74 84  1  0  0  0
 75 76  1  0  0  0
 75 85  1  0  0  0
 76 86  1  0  0  0
 77 78  1  0  0  0
 77 79  1  0  0  0
 77147  1  0  0  0
 77148  1  0  0  0
 78 80  1  0  0  0
 78149  1  0  0  0
 78150  1  0  0  0
 79 80  1  0  0  0
 79151  1  0  0  0
 79152  1  0  0  0
 80 83  1  0  0  0
 80 85  1  0  0  0
 81153  1  0  0  0
 81154  1  0  0  0
 81155  1  0  0  0
 82156  1  0  0  0
 82157  1  0  0  0
 82158  1  0  0  0
 83159  1  0  0  0
 83160  1  0  0  0
 84161  1  0  0  0
 85162  1  0  0  0
M  ISO  4   1 100  68 101  83 101  84 100
M  END
> <chiral flag>
0

> <version>
0

> <s_m_source_file>
/data/baiqing/PycharmProjects/Reinvent-master-3.2/result/LINK_invent/BTK/process_docking_weight1_custom_sum_contain_oxygen_bond_distance_aromatic_linkinvent_7_9_3/rearranged_h_0016.sdf

> <i_m_source_file_index>
24

> <r_mmod_Potential_Energy-OPLS-2005>
748.3212890625

> <r_mmod_Stretch_Energy-OPLS-2005>
350.341491699219

> <r_mmod_Bend_Energy-OPLS-2005>
320.853698730469

> <r_mmod_Torsional_Energy-OPLS-2005>
280.823669433594

> <r_mmod_Improper_Torsional_Energy-OPLS-2005>
6.78032255172729

> <r_mmod_Van_der_Waal_Energy-OPLS-2005>
137.679000854492

> <r_mmod_Electrostatic_Energy-OPLS-2005>
-395.294067382812

> <r_mmod_Solvation_Energy-OPLS-2005>
-204.664321899414

> <b_mmod_Minimization_Converged-OPLS-2005>
0

> <r_mmod_RMS_Derivative-OPLS-2005>
1.08545327186584

$$$$
24
                    3D
 Structure written by MMmdl.
186193  0  0  1  0            999 V2000
  -30.7465  -14.3852   20.6608 C   0  0  0  0  0  0
  -30.4178  -12.2919   19.3968 C   0  0  0  0  0  0
  -29.4833  -12.5234   18.1940 C   0  0  0  0  0  0
  -28.0078  -12.3817   18.6117 C   0  0  0  0  0  0
  -27.6663  -13.2023   19.8830 C   0  0  2  0  0  0
  -28.7050  -12.9399   20.9956 C   0  0  0  0  0  0
  -25.2601  -13.8153   20.5680 C   0  0  0  0  0  0
  -24.1846  -13.0451   20.9168 C   0  0  0  0  0  0
  -24.6388  -11.6909   20.8735 C   0  0  0  0  0  0
  -23.9057  -10.4300   21.0403 C   0  0  0  0  0  0
  -24.3612   -9.4212   21.9181 C   0  0  0  0  0  0
  -23.6291   -8.2246   22.0752 C   0  0  0  0  0  0
  -22.4272   -8.0285   21.3541 C   0  0  0  0  0  0
  -21.9907   -9.0259   20.4642 C   0  0  0  0  0  0
  -22.7232  -10.2138   20.3051 C   0  0  0  0  0  0
  -21.6854   -6.0734   22.5278 C   0  0  0  0  0  0
  -21.4013   -6.5638   23.8211 C   0  0  0  0  0  0
  -21.3661   -5.6789   24.9173 C   0  0  0  0  0  0
  -21.6048   -4.3051   24.7223 C   0  0  0  0  0  0
  -21.8818   -3.8144   23.4344 C   0  0  0  0  0  0
  -21.9195   -4.6962   22.3401 C   0  0  0  0  0  0
  -22.7872  -13.5247   21.1842 C   0  0  0  0  0  0
  -22.1662   -4.2147   21.0976 F   0  0  0  0  0  0
  -21.5634   -3.4536   25.7738 F   0  0  0  0  0  0
  -30.0449  -13.2400   20.4558 N   0  0  0  0  0  0
  -26.3046  -12.9321   20.3404 N   0  0  0  0  0  0
  -25.9315  -11.6484   20.5777 N   0  0  0  0  0  0
  -22.0511  -12.8236   22.0383 N   0  0  0  0  0  0
  -25.4354  -15.1872   20.4085 N   0  0  0  0  0  0
  -31.7986  -14.6520   20.0719 O   0  0  0  0  0  0
  -21.6638   -6.8877   21.4237 O   0  0  0  0  0  0
  -22.3568  -14.5565   20.6703 O   0  0  0  0  0  0
  -24.6086  -31.8694   23.2119 C   0  0  0  0  0  0
  -25.8975  -32.4863   23.8417 C   0  0  1  0  0  0
  -27.2489  -27.4793   20.0752 C   0  0  0  0  0  0
  -25.5858  -33.8651   24.2342 N   0  0  0  0  0  0
  -23.3965  -30.4900   21.5542 C   0  0  2  0  0  0
  -24.8409  -28.9606   20.1152 C   0  0  0  0  0  0
  -22.7391  -29.4629   22.5027 C   0  0  0  0  0  0
  -18.0264  -28.1362   22.8456 C   0  0  0  0  0  0
  -24.1473  -36.7312   23.2648 C   0  0  0  0  0  0
  -25.9187  -30.8485   21.3565 C   0  0  0  0  0  0
  -25.9985  -29.4864   20.7026 C   0  0  0  0  0  0
  -27.2022  -28.7549   20.6718 C   0  0  0  0  0  0
  -26.0700  -26.9501   19.4985 C   0  0  0  0  0  0
  -24.8715  -27.6904   19.5109 C   0  0  0  0  0  0
  -23.5980  -29.8207   20.1684 C   0  0  0  0  0  0
  -25.4110  -36.3127   24.0339 C   0  0  1  0  0  0
  -20.5841  -28.3611   23.1320 C   0  0  2  0  0  0
  -20.6732  -26.9342   22.5419 C   0  0  0  0  0  0
  -19.5728  -26.6345   21.5196 C   0  0  0  0  0  0
  -18.1890  -26.7911   22.1581 C   0  0  0  0  0  0
  -19.1511  -28.8810   23.2876 C   0  0  0  0  0  0
  -18.9455  -30.1416   23.8880 C   0  0  0  0  0  0
  -17.6454  -30.6563   24.0553 C   0  0  0  0  0  0
  -25.9034  -34.9496   23.5146 C   0  0  0  0  0  0
  -16.5344  -29.9058   23.6323 C   0  0  0  0  0  0
  -16.7249  -28.6485   23.0323 C   0  0  0  0  0  0
  -26.4432  -31.6685   25.0762 C   0  0  0  0  0  0
  -25.3752  -31.3756   26.1564 C   0  0  0  0  0  0
  -27.0286  -30.3168   24.6086 C   0  0  0  0  0  0
  -27.5999  -32.4442   25.7497 C   0  0  0  0  0  0
  -27.5583  -37.1810   24.8479 C   0  0  0  0  0  0
  -21.4121  -29.2989   22.3756 N   0  0  0  0  0  0
  -26.4302  -37.3812   23.9420 N   0  0  0  0  0  0
  -24.6600  -31.0839   22.0995 N   0  0  0  0  0  0
  -23.4172  -28.8167   23.3041 O   0  0  0  0  0  0
  -28.4649  -26.8316   20.0748 O   0  0  0  0  0  0
  -26.5596  -34.8947   22.4706 O   0  0  0  0  0  0
  -23.5290  -32.1392   23.7562 O   0  0  0  0  0  0
  -24.2818  -21.0111   18.9702 C   0  0  0  0  0  0
  -28.1851  -24.7534   21.3477 C   0  0  0  0  0  0
  -29.7065  -22.8668   20.8420 C   0  0  0  0  0  0
  -25.1365  -20.1987   18.0419 C   0  0  0  0  0  0
  -28.5341  -25.4068   19.9913 C   0  0  0  0  0  0
  -26.6014  -20.2020   18.5114 C   0  0  0  0  0  0
  -26.9377  -19.0853   19.5165 C   0  0  0  0  0  0
  -28.4453  -18.9884   19.8063 C   0  0  0  0  0  0
  -28.8017  -17.8282   20.7521 C   0  0  0  0  0  0
  -25.8026  -21.6743   23.3681 C   0  0  0  0  0  0
  -24.5473  -20.9303   22.8776 C   0  0  0  0  0  0
  -30.3225  -17.6490   20.9176 C   0  0  0  0  0  0
  -26.7933  -21.9999   22.2325 C   0  0  0  0  0  0
  -23.5878  -21.8022   22.0374 C   0  0  0  0  0  0
  -30.7288  -16.5453   21.9154 C   0  0  0  0  0  0
  -28.0708  -22.7148   22.7143 C   0  0  0  0  0  0
  -22.7760  -21.0025   21.0021 C   0  0  0  0  0  0
  -24.1823  -22.3380   18.7718 N   0  0  0  0  0  0
  -30.2048  -15.2314   21.5470 N   0  0  0  0  0  0
  -28.6499  -23.5113   21.6224 N   0  0  0  0  0  0
  -23.6443  -20.3912   19.9825 N   0  3  0  0  0  0
  -27.4395  -25.3485   22.1335 O   0  0  0  0  0  0
  -31.4604  -12.3977   19.0922 H   0  0  0  0  0  0
  -30.3201  -11.2703   19.7668 H   0  0  0  0  0  0
  -29.7138  -11.8150   17.3978 H   0  0  0  0  0  0
  -29.6534  -13.5181   17.7789 H   0  0  0  0  0  0
  -27.8138  -11.3234   18.7929 H   0  0  0  0  0  0
  -27.3533  -12.6747   17.7900 H   0  0  0  0  0  0
  -27.7257  -14.2567   19.6133 H   0  0  0  0  0  0
  -28.6710  -11.8937   21.3049 H   0  0  0  0  0  0
  -28.4542  -13.5076   21.8918 H   0  0  0  0  0  0
  -25.2758   -9.5695   22.4751 H   0  0  0  0  0  0
  -24.0007   -7.4639   22.7466 H   0  0  0  0  0  0
  -21.0844   -8.8777   19.8943 H   0  0  0  0  0  0
  -22.3695  -10.9679   19.6163 H   0  0  0  0  0  0
  -21.1998   -7.6142   23.9714 H   0  0  0  0  0  0
  -21.1485   -6.0516   25.9077 H   0  0  0  0  0  0
  -22.0594   -2.7607   23.2843 H   0  0  0  0  0  0
  -22.4123  -11.9878   22.4748 H   0  0  0  0  0  0
  -21.1129  -13.1261   22.2602 H   0  0  0  0  0  0
  -24.6739  -15.8456   20.5231 H   0  0  0  0  0  0
  -26.2981  -15.6217   20.1088 H   0  0  0  0  0  0
  -26.7047  -32.5620   23.1194 H   0  0  0  0  0  0
  -25.0081  -33.9814   25.0531 H   0  0  0  0  0  0
  -22.6850  -31.3070   21.4212 H   0  0  0  0  0  0
  -23.3750  -35.9634   23.3355 H   0  0  0  0  0  0
  -24.3542  -36.8892   22.2055 H   0  0  0  0  0  0
  -23.7185  -37.6512   23.6634 H   0  0  0  0  0  0
  -26.0246  -31.6175   20.5895 H   0  0  0  0  0  0
  -26.8066  -30.9046   21.9739 H   0  0  0  0  0  0
  -28.1040  -29.1642   21.1056 H   0  0  0  0  0  0
  -26.0592  -25.9848   19.0192 H   0  0  0  0  0  0
  -23.9856  -27.2794   19.0457 H   0  0  0  0  0  0
  -23.6878  -30.5936   19.4032 H   0  0  0  0  0  0
  -22.7258  -29.2286   19.8855 H   0  0  0  0  0  0
  -25.1277  -36.2016   25.0827 H   0  0  0  0  0  0
  -20.9940  -28.3171   24.1443 H   0  0  0  0  0  0
  -20.5615  -26.2210   23.3594 H   0  0  0  0  0  0
  -21.6606  -26.7364   22.1233 H   0  0  0  0  0  0
  -19.6874  -25.6261   21.1201 H   0  0  0  0  0  0
  -19.6704  -27.3173   20.6739 H   0  0  0  0  0  0
  -17.4173  -26.6671   21.3964 H   0  0  0  0  0  0
  -18.0264  -26.0073   22.8995 H   0  0  0  0  0  0
  -19.7945  -30.7203   24.2264 H   0  0  0  0  0  0
  -17.5020  -31.6251   24.5137 H   0  0  0  0  0  0
  -15.5334  -30.2941   23.7672 H   0  0  0  0  0  0
  -15.8656  -28.0799   22.7034 H   0  0  0  0  0  0
  -24.5890  -30.7126   25.7923 H   0  0  0  0  0  0
  -24.8982  -32.2917   26.5080 H   0  0  0  0  0  0
  -25.8162  -30.8894   27.0285 H   0  0  0  0  0  0
  -26.2805  -29.6922   24.1192 H   0  0  0  0  0  0
  -27.4175  -29.7402   25.4481 H   0  0  0  0  0  0
  -27.8580  -30.4551   23.9141 H   0  0  0  0  0  0
  -27.2597  -33.3746   26.2059 H   0  0  0  0  0  0
  -28.3785  -32.7029   25.0310 H   0  0  0  0  0  0
  -28.0705  -31.8624   26.5433 H   0  0  0  0  0  0
  -28.2627  -38.0080   24.7540 H   0  0  0  0  0  0
  -28.1051  -36.2620   24.6307 H   0  0  0  0  0  0
  -27.2313  -37.1482   25.8885 H   0  0  0  0  0  0
  -20.9264  -29.8816   21.7083 H   0  0  0  0  0  0
  -26.0217  -38.2900   24.1435 H   0  0  0  0  0  0
  -30.5855  -23.5108   20.7738 H   0  0  0  0  0  0
  -29.3500  -22.6441   19.8349 H   0  0  0  0  0  0
  -30.0445  -21.9322   21.2883 H   0  0  0  0  0  0
  -25.0673  -20.6248   17.0404 H   0  0  0  0  0  0
  -24.7510  -19.1820   17.9584 H   0  0  0  0  0  0
  -29.5678  -25.1957   19.7183 H   0  0  0  0  0  0
  -27.9225  -24.9840   19.1936 H   0  0  0  0  0  0
  -26.8529  -21.1791   18.9246 H   0  0  0  0  0  0
  -27.2349  -20.0714   17.6335 H   0  0  0  0  0  0
  -26.5974  -18.1296   19.1143 H   0  0  0  0  0  0
  -26.3877  -19.2414   20.4442 H   0  0  0  0  0  0
  -28.7955  -19.9286   20.2335 H   0  0  0  0  0  0
  -28.9839  -18.8616   18.8659 H   0  0  0  0  0  0
  -28.3676  -16.9028   20.3710 H   0  0  0  0  0  0
  -28.3464  -18.0057   21.7274 H   0  0  0  0  0  0
  -26.3060  -21.0619   24.1183 H   0  0  0  0  0  0
  -25.5001  -22.5952   23.8716 H   0  0  0  0  0  0
  -23.9991  -20.5442   23.7387 H   0  0  0  0  0  0
  -24.8634  -20.0486   22.3203 H   0  0  0  0  0  0
  -30.7595  -18.5914   21.2504 H   0  0  0  0  0  0
  -30.7734  -17.4402   19.9460 H   0  0  0  0  0  0
  -26.2953  -22.6176   21.4868 H   0  0  0  0  0  0
  -27.0826  -21.0886   21.7068 H   0  0  0  0  0  0
  -24.1243  -22.5933   21.5184 H   0  0  0  0  0  0
  -22.9056  -22.3243   22.7099 H   0  0  0  0  0  0
  -30.3638  -16.7933   22.9125 H   0  0  0  0  0  0
  -31.8169  -16.4992   21.9963 H   0  0  0  0  0  0
  -28.7891  -21.9861   23.0915 H   0  0  0  0  0  0
  -27.8500  -23.3535   23.5723 H   0  0  0  0  0  0
  -22.0510  -21.6508   20.5072 H   0  0  0  0  0  0
  -22.1981  -20.2200   21.4936 H   0  0  0  0  0  0
  -24.6553  -22.7742   17.9917 H   0  0  0  0  0  0
  -23.5936  -22.9367   19.3317 H   0  0  0  0  0  0
  -29.3529  -14.9294   21.9968 H   0  0  0  0  0  0
  -23.7969  -19.3972   20.0949 H   0  0  0  0  0  0
  1 25  1  0  0  0
  1 30  2  0  0  0
  1 89  1  0  0  0
  2  3  1  0  0  0
  2 25  1  0  0  0
  2 93  1  0  0  0
  2 94  1  0  0  0
  3  4  1  0  0  0
  3 95  1  0  0  0
  3 96  1  0  0  0
  4  5  1  0  0  0
  4 97  1  0  0  0
  4 98  1  0  0  0
  5  6  1  0  0  0
  5 26  1  0  0  0
  5 99  1  0  0  0
  6 25  1  0  0  0
  6100  1  0  0  0
  6101  1  0  0  0
  7  8  2  0  0  0
  7 26  1  0  0  0
  7 29  1  0  0  0
  8  9  1  0  0  0
  8 22  1  0  0  0
  9 10  1  0  0  0
  9 27  2  0  0  0
 10 11  2  0  0  0
 10 15  1  0  0  0
 11 12  1  0  0  0
 11102  1  0  0  0
 12 13  2  0  0  0
 12103  1  0  0  0
 13 14  1  0  0  0
 13 31  1  0  0  0
 14 15  2  0  0  0
 14104  1  0  0  0
 15105  1  0  0  0
 16 17  2  0  0  0
 16 21  1  0  0  0
 16 31  1  0  0  0
 17 18  1  0  0  0
 17106  1  0  0  0
 18 19  2  0  0  0
 18107  1  0  0  0
 19 20  1  0  0  0
 19 24  1  0  0  0
 20 21  2  0  0  0
 20108  1  0  0  0
 21 23  1  0  0  0
 22 28  1  0  0  0
 22 32  2  0  0  0
 26 27  1  0  0  0
 28109  1  0  0  0
 28110  1  0  0  0
 29111  1  0  0  0
 29112  1  0  0  0
 33 34  1  0  0  0
 33 66  1  0  0  0
 33 70  2  0  0  0
 34 36  1  0  0  0
 34 59  1  0  0  0
 34113  1  0  0  0
 35 44  2  0  0  0
 35 45  1  0  0  0
 35 68  1  0  0  0
 36 56  1  0  0  0
 36114  1  0  0  0
 37 39  1  0  0  0
 37 47  1  0  0  0
 37 66  1  0  0  0
 37115  1  0  0  0
 38 43  2  0  0  0
 38 46  1  0  0  0
 38 47  1  0  0  0
 39 64  1  0  0  0
 39 67  2  0  0  0
 40 52  1  0  0  0
 40 53  2  0  0  0
 40 58  1  0  0  0
 41116  1  0  0  0
 41117  1  0  0  0
 41118  1  0  0  0
 41 48  1  0  0  0
 42 43  1  0  0  0
 42 66  1  0  0  0
 42119  1  0  0  0
 42120  1  0  0  0
 43 44  1  0  0  0
 44121  1  0  0  0
 45 46  2  0  0  0
 45122  1  0  0  0
 46123  1  0  0  0
 47124  1  0  0  0
 47125  1  0  0  0
 48 56  1  0  0  0
 48 65  1  0  0  0
 48126  1  0  0  0
 49 50  1  0  0  0
 49 53  1  0  0  0
 49 64  1  0  0  0
 49127  1  0  0  0
 50 51  1  0  0  0
 50128  1  0  0  0
 50129  1  0  0  0
 51 52  1  0  0  0
 51130  1  0  0  0
 51131  1  0  0  0
 52132  1  0  0  0
 52133  1  0  0  0
 53 54  1  0  0  0
 54 55  2  0  0  0
 54134  1  0  0  0
 55 57  1  0  0  0
 55135  1  0  0  0
 56 69  2  0  0  0
 57 58  2  0  0  0
 57136  1  0  0  0
 58137  1  0  0  0
 59 60  1  0  0  0
 59 61  1  0  0  0
 59 62  1  0  0  0
 60138  1  0  0  0
 60139  1  0  0  0
 60140  1  0  0  0
 61141  1  0  0  0
 61142  1  0  0  0
 61143  1  0  0  0
 62144  1  0  0  0
 62145  1  0  0  0
 62146  1  0  0  0
 63 65  1  0  0  0
 63147  1  0  0  0
 63148  1  0  0  0
 63149  1  0  0  0
 64150  1  0  0  0
 65151  1  0  0  0
 68 75  1  0  0  0
 71 74  1  0  0  0
 71 88  1  0  0  0
 71 91  2  0  0  0
 72 75  1  0  0  0
 72 90  1  0  0  0
 72 92  2  0  0  0
 73 90  1  0  0  0
 73152  1  0  0  0
 73153  1  0  0  0
 73154  1  0  0  0
 74 76  1  0  0  0
 74155  1  0  0  0
 74156  1  0  0  0
 75157  1  0  0  0
 75158  1  0  0  0
 76 77  1  0  0  0
 76159  1  0  0  0
 76160  1  0  0  0
 77 78  1  0  0  0
 77161  1  0  0  0
 77162  1  0  0  0
 78 79  1  0  0  0
 78163  1  0  0  0
 78164  1  0  0  0
 79 82  1  0  0  0
 79165  1  0  0  0
 79166  1  0  0  0
 80 81  1  0  0  0
 80 83  1  0  0  0
 80167  1  0  0  0
 80168  1  0  0  0
 81 84  1  0  0  0
 81169  1  0  0  0
 81170  1  0  0  0
 82 85  1  0  0  0
 82171  1  0  0  0
 82172  1  0  0  0
 83 86  1  0  0  0
 83173  1  0  0  0
 83174  1  0  0  0
 84 87  1  0  0  0
 84175  1  0  0  0
 84176  1  0  0  0
 85 89  1  0  0  0
 85177  1  0  0  0
 85178  1  0  0  0
 86 90  1  0  0  0
 86179  1  0  0  0
 86180  1  0  0  0
 87 91  1  0  0  0
 87181  1  0  0  0
 87182  1  0  0  0
 88183  1  0  0  0
 88184  1  0  0  0
 89185  1  0  0  0
 91186  1  0  0  0
M  CHG  1  91   1
M  ISO  4   1 100  68 101  75 101  89 100
M  END
> <chiral flag>
0

> <version>
0

> <s_m_source_file>
/data/baiqing/PycharmProjects/Reinvent-master-3.2/result/LINK_invent/BTK/process_docking_weight1_custom_sum_contain_oxygen_bond_distance_aromatic_linkinvent_7_9_3/rearranged_h_0016.sdf

> <i_m_source_file_index>
25

> <r_mmod_Potential_Energy-OPLS-2005>
-107.525268554688

> <r_mmod_Stretch_Energy-OPLS-2005>
33.978759765625

> <r_mmod_Bend_Energy-OPLS-2005>
105.504676818848

> <r_mmod_Torsional_Energy-OPLS-2005>
239.855880737305

> <r_mmod_Improper_Torsional_Energy-OPLS-2005>
2.06688475608826

> <r_mmod_Van_der_Waal_Energy-OPLS-2005>
125.155296325684

> <r_mmod_Electrostatic_Energy-OPLS-2005>
-146.041549682617

> <r_mmod_Solvation_Energy-OPLS-2005>
-476.47705078125

> <b_mmod_Minimization_Converged-OPLS-2005>
0

> <r_mmod_RMS_Derivative-OPLS-2005>
3.07089519500732

$$$$
25
                    3D
 Structure written by MMmdl.
159167  0  0  1  0            999 V2000
  -30.6460  -14.7172   20.4472 C   0  0  0  0  0  0
  -30.4184  -12.4338   19.4774 C   0  0  0  0  0  0
  -29.5044  -12.4987   18.2363 C   0  0  0  0  0  0
  -28.0300  -12.3335   18.6486 C   0  0  0  0  0  0
  -27.6379  -13.2365   19.8491 C   0  0  2  0  0  0
  -28.6818  -13.1804   20.9859 C   0  0  0  0  0  0
  -25.2479  -13.8207   20.5695 C   0  0  0  0  0  0
  -24.1779  -13.0443   20.9201 C   0  0  0  0  0  0
  -24.6380  -11.6927   20.8752 C   0  0  0  0  0  0
  -23.9059  -10.4297   21.0409 C   0  0  0  0  0  0
  -24.3615   -9.4212   21.9182 C   0  0  0  0  0  0
  -23.6298   -8.2244   22.0753 C   0  0  0  0  0  0
  -22.4280   -8.0279   21.3545 C   0  0  0  0  0  0
  -21.9910   -9.0247   20.4641 C   0  0  0  0  0  0
  -22.7235  -10.2129   20.3055 C   0  0  0  0  0  0
  -21.6853   -6.0734   22.5277 C   0  0  0  0  0  0
  -21.4014   -6.5637   23.8210 C   0  0  0  0  0  0
  -21.3664   -5.6790   24.9174 C   0  0  0  0  0  0
  -21.6047   -4.3052   24.7223 C   0  0  0  0  0  0
  -21.8821   -3.8144   23.4343 C   0  0  0  0  0  0
  -21.9191   -4.6961   22.3401 C   0  0  0  0  0  0
  -22.7799  -13.5216   21.1862 C   0  0  0  0  0  0
  -22.1660   -4.2147   21.0977 F   0  0  0  0  0  0
  -21.5633   -3.4535   25.7736 F   0  0  0  0  0  0
  -29.9856  -13.5107   20.3995 N   0  0  0  0  0  0
  -26.2913  -12.9427   20.3286 N   0  0  0  0  0  0
  -25.9311  -11.6562   20.5760 N   0  0  0  0  0  0
  -22.0449  -12.8209   22.0426 N   0  0  0  0  0  0
  -25.4146  -15.1932   20.4127 N   0  0  0  0  0  0
  -31.8417  -14.7381   20.1548 O   0  0  0  0  0  0
  -21.6646   -6.8879   21.4240 O   0  0  0  0  0  0
  -22.3476  -14.5516   20.6706 O   0  0  0  0  0  0
  -24.6295  -31.8545   23.1975 C   0  0  0  0  0  0
  -25.9130  -32.4745   23.8320 C   0  0  1  0  0  0
  -27.2237  -27.2760   20.1214 C   0  0  0  0  0  0
  -25.5931  -33.8547   24.2246 N   0  0  0  0  0  0
  -23.4247  -30.4765   21.5405 C   0  0  2  0  0  0
  -24.8707  -28.9219   20.1088 C   0  0  0  0  0  0
  -22.7489  -29.4596   22.4917 C   0  0  0  0  0  0
  -18.0283  -28.1388   22.8487 C   0  0  0  0  0  0
  -24.1484  -36.7282   23.2641 C   0  0  0  0  0  0
  -25.9686  -30.7726   21.3727 C   0  0  0  0  0  0
  -26.0392  -29.3956   20.7160 C   0  0  0  0  0  0
  -27.2146  -28.5834   20.7121 C   0  0  0  0  0  0
  -26.0270  -26.8567   19.4983 C   0  0  0  0  0  0
  -24.8689  -27.6603   19.4917 C   0  0  0  0  0  0
  -23.6401  -29.8068   20.1565 C   0  0  0  0  0  0
  -25.4113  -36.3062   24.0323 C   0  0  1  0  0  0
  -20.5887  -28.3688   23.1280 C   0  0  2  0  0  0
  -20.6777  -26.9405   22.5411 C   0  0  0  0  0  0
  -19.5745  -26.6381   21.5218 C   0  0  0  0  0  0
  -18.1927  -26.7932   22.1627 C   0  0  0  0  0  0
  -19.1538  -28.8859   23.2874 C   0  0  0  0  0  0
  -18.9459  -30.1464   23.8883 C   0  0  0  0  0  0
  -17.6457  -30.6587   24.0565 C   0  0  0  0  0  0
  -25.9053  -34.9433   23.5088 C   0  0  0  0  0  0
  -16.5348  -29.9085   23.6334 C   0  0  0  0  0  0
  -16.7268  -28.6503   23.0354 C   0  0  0  0  0  0
  -26.4506  -31.6578   25.0710 C   0  0  0  0  0  0
  -25.3734  -31.3737   26.1437 C   0  0  0  0  0  0
  -27.0365  -30.2995   24.6202 C   0  0  0  0  0  0
  -27.6051  -32.4333   25.7486 C   0  0  0  0  0  0
  -27.5574  -37.1796   24.8463 C   0  0  0  0  0  0
  -21.4197  -29.3034   22.3670 N   0  0  0  0  0  0
  -26.4286  -37.3762   23.9407 N   0  0  0  0  0  0
  -24.6935  -31.0531   22.0933 N   0  0  0  0  0  0
  -23.4203  -28.8138   23.3005 O   0  0  0  0  0  0
  -28.3568  -26.4402   20.1960 O   0  0  0  0  0  0
  -26.5616  -34.8912   22.4650 O   0  0  0  0  0  0
  -23.5453  -32.1354   23.7288 O   0  0  0  0  0  0
  -31.5928  -17.6843   20.0131 C   0  0  0  0  0  0
  -31.9972  -19.0238   19.8533 C   0  0  0  0  0  0
  -29.7572  -19.8496   20.4650 C   0  0  0  0  0  0
  -30.2877  -17.3261   20.4260 C   0  0  0  0  0  0
  -31.1058  -20.0926   20.0940 C   0  0  0  0  0  0
  -29.3774  -18.4452   20.6344 C   0  0  0  0  0  0
  -33.4322  -19.3047   19.4346 C   0  0  0  0  0  0
  -26.8499  -23.5696   21.0407 C   0  0  0  0  0  0
  -28.8170  -21.0987   20.8132 C   0  0  0  0  0  0
  -28.4409  -25.0481   19.6455 C   0  0  0  0  0  0
  -28.3105  -23.7285   20.5762 C   0  0  2  0  0  0
  -29.9162  -15.8901   20.6202 N   0  0  0  0  0  0
  -28.8505  -22.4012   19.9902 N   0  3  0  0  0  0
  -31.7220  -21.7092   19.9619 Cl  0  0  0  0  0  0
  -27.7714  -18.0652   21.1491 Cl  0  0  0  0  0  0
  -31.4629  -12.5301   19.1762 H   0  0  0  0  0  0
  -30.3401  -11.4606   19.9643 H   0  0  0  0  0  0
  -29.7822  -11.7231   17.5208 H   0  0  0  0  0  0
  -29.6417  -13.4524   17.7245 H   0  0  0  0  0  0
  -27.8819  -11.2858   18.9122 H   0  0  0  0  0  0
  -27.3733  -12.5266   17.7994 H   0  0  0  0  0  0
  -27.6294  -14.2570   19.4650 H   0  0  0  0  0  0
  -28.7091  -12.1898   21.4423 H   0  0  0  0  0  0
  -28.4229  -13.8791   21.7832 H   0  0  0  0  0  0
  -25.2757   -9.5692   22.4754 H   0  0  0  0  0  0
  -24.0008   -7.4637   22.7473 H   0  0  0  0  0  0
  -21.0840   -8.8757   19.8949 H   0  0  0  0  0  0
  -22.3685  -10.9663   19.6164 H   0  0  0  0  0  0
  -21.2008   -7.6146   23.9713 H   0  0  0  0  0  0
  -21.1484   -6.0521   25.9078 H   0  0  0  0  0  0
  -22.0597   -2.7605   23.2841 H   0  0  0  0  0  0
  -22.4074  -11.9876   22.4817 H   0  0  0  0  0  0
  -21.1062  -13.1222   22.2627 H   0  0  0  0  0  0
  -24.6484  -15.8449   20.5409 H   0  0  0  0  0  0
  -26.2670  -15.6441   20.1081 H   0  0  0  0  0  0
  -26.7197  -32.5394   23.1065 H   0  0  0  0  0  0
  -25.0103  -33.9685   25.0408 H   0  0  0  0  0  0
  -22.7200  -31.2979   21.3941 H   0  0  0  0  0  0
  -23.3743  -35.9617   23.3298 H   0  0  0  0  0  0
  -24.3581  -36.8909   22.2058 H   0  0  0  0  0  0
  -23.7244  -37.6485   23.6669 H   0  0  0  0  0  0
  -26.1064  -31.5328   20.6023 H   0  0  0  0  0  0
  -26.8481  -30.8217   22.0038 H   0  0  0  0  0  0
  -28.1115  -28.9433   21.1965 H   0  0  0  0  0  0
  -25.9445  -25.8871   19.0333 H   0  0  0  0  0  0
  -23.9696  -27.2895   19.0195 H   0  0  0  0  0  0
  -23.7596  -30.5809   19.3977 H   0  0  0  0  0  0
  -22.7591  -29.2362   19.8560 H   0  0  0  0  0  0
  -25.1299  -36.1905   25.0816 H   0  0  0  0  0  0
  -20.9978  -28.3258   24.1401 H   0  0  0  0  0  0
  -20.5688  -26.2285   23.3608 H   0  0  0  0  0  0
  -21.6645  -26.7433   22.1197 H   0  0  0  0  0  0
  -19.6897  -25.6293   21.1242 H   0  0  0  0  0  0
  -19.6692  -27.3197   20.6753 H   0  0  0  0  0  0
  -17.4201  -26.6684   21.4023 H   0  0  0  0  0  0
  -18.0308  -26.0079   22.9023 H   0  0  0  0  0  0
  -19.7936  -30.7289   24.2237 H   0  0  0  0  0  0
  -17.5008  -31.6262   24.5173 H   0  0  0  0  0  0
  -15.5348  -30.2984   23.7668 H   0  0  0  0  0  0
  -15.8665  -28.0823   22.7071 H   0  0  0  0  0  0
  -24.5902  -30.7088   25.7778 H   0  0  0  0  0  0
  -24.8937  -32.2914   26.4846 H   0  0  0  0  0  0
  -25.8056  -30.8929   27.0222 H   0  0  0  0  0  0
  -26.2955  -29.6728   24.1226 H   0  0  0  0  0  0
  -27.4050  -29.7270   25.4726 H   0  0  0  0  0  0
  -27.8824  -30.4269   23.9444 H   0  0  0  0  0  0
  -27.2641  -33.3638   26.2037 H   0  0  0  0  0  0
  -28.3875  -32.6891   25.0330 H   0  0  0  0  0  0
  -28.0706  -31.8484   26.5429 H   0  0  0  0  0  0
  -28.2588  -38.0095   24.7510 H   0  0  0  0  0  0
  -28.1073  -36.2628   24.6289 H   0  0  0  0  0  0
  -27.2292  -37.1442   25.8865 H   0  0  0  0  0  0
  -20.9367  -29.8758   21.6886 H   0  0  0  0  0  0
  -26.0158  -38.2830   24.1413 H   0  0  0  0  0  0
  -32.3447  -16.9405   19.8154 H   0  0  0  0  0  0
  -33.9961  -18.3868   19.2674 H   0  0  0  0  0  0
  -33.9511  -19.8751   20.2054 H   0  0  0  0  0  0
  -33.4552  -19.8791   18.5082 H   0  0  0  0  0  0
  -26.4757  -24.4965   21.4768 H   0  0  0  0  0  0
  -26.7452  -22.7962   21.8015 H   0  0  0  0  0  0
  -26.1928  -23.3129   20.2089 H   0  0  0  0  0  0
  -29.0572  -21.3632   21.8434 H   0  0  0  0  0  0
  -27.7808  -20.7633   20.8339 H   0  0  0  0  0  0
  -27.8130  -24.9375   18.7634 H   0  0  0  0  0  0
  -29.4494  -25.0153   19.2329 H   0  0  0  0  0  0
  -28.9178  -23.9228   21.4615 H   0  0  0  0  0  0
  -28.9476  -15.7420   20.8593 H   0  0  0  0  0  0
  -28.3974  -22.2131   19.1090 H   0  0  0  0  0  0
  -29.8295  -22.5500   19.7815 H   0  0  0  0  0  0
  1 25  1  0  0  0
  1 30  2  0  0  0
  1 82  1  0  0  0
  2  3  1  0  0  0
  2 25  1  0  0  0
  2 86  1  0  0  0
  2 87  1  0  0  0
  3  4  1  0  0  0
  3 88  1  0  0  0
  3 89  1  0  0  0
  4  5  1  0  0  0
  4 90  1  0  0  0
  4 91  1  0  0  0
  5  6  1  0  0  0
  5 26  1  0  0  0
  5 92  1  0  0  0
  6 25  1  0  0  0
  6 93  1  0  0  0
  6 94  1  0  0  0
  7  8  2  0  0  0
  7 26  1  0  0  0
  7 29  1  0  0  0
  8  9  1  0  0  0
  8 22  1  0  0  0
  9 10  1  0  0  0
  9 27  2  0  0  0
 10 11  2  0  0  0
 10 15  1  0  0  0
 11 12  1  0  0  0
 11 95  1  0  0  0
 12 13  2  0  0  0
 12 96  1  0  0  0
 13 14  1  0  0  0
 13 31  1  0  0  0
 14 15  2  0  0  0
 14 97  1  0  0  0
 15 98  1  0  0  0
 16 17  2  0  0  0
 16 21  1  0  0  0
 16 31  1  0  0  0
 17 18  1  0  0  0
 17 99  1  0  0  0
 18 19  2  0  0  0
 18100  1  0  0  0
 19 20  1  0  0  0
 19 24  1  0  0  0
 20 21  2  0  0  0
 20101  1  0  0  0
 21 23  1  0  0  0
 22 28  1  0  0  0
 22 32  2  0  0  0
 26 27  1  0  0  0
 28102  1  0  0  0
 28103  1  0  0  0
 29104  1  0  0  0
 29105  1  0  0  0
 33 34  1  0  0  0
 33 66  1  0  0  0
 33 70  2  0  0  0
 34 36  1  0  0  0
 34 59  1  0  0  0
 34106  1  0  0  0
 35 44  2  0  0  0
 35 45  1  0  0  0
 35 68  1  0  0  0
 36 56  1  0  0  0
 36107  1  0  0  0
 37 39  1  0  0  0
 37 47  1  0  0  0
 37 66  1  0  0  0
 37108  1  0  0  0
 38 43  2  0  0  0
 38 46  1  0  0  0
 38 47  1  0  0  0
 39 64  1  0  0  0
 39 67  2  0  0  0
 40 52  1  0  0  0
 40 53  2  0  0  0
 40 58  1  0  0  0
 41109  1  0  0  0
 41110  1  0  0  0
 41111  1  0  0  0
 41 48  1  0  0  0
 42 43  1  0  0  0
 42 66  1  0  0  0
 42112  1  0  0  0
 42113  1  0  0  0
 43 44  1  0  0  0
 44114  1  0  0  0
 45 46  2  0  0  0
 45115  1  0  0  0
 46116  1  0  0  0
 47117  1  0  0  0
 47118  1  0  0  0
 48 56  1  0  0  0
 48 65  1  0  0  0
 48119  1  0  0  0
 49 50  1  0  0  0
 49 53  1  0  0  0
 49 64  1  0  0  0
 49120  1  0  0  0
 50 51  1  0  0  0
 50121  1  0  0  0
 50122  1  0  0  0
 51 52  1  0  0  0
 51123  1  0  0  0
 51124  1  0  0  0
 52125  1  0  0  0
 52126  1  0  0  0
 53 54  1  0  0  0
 54 55  2  0  0  0
 54127  1  0  0  0
 55 57  1  0  0  0
 55128  1  0  0  0
 56 69  2  0  0  0
 57 58  2  0  0  0
 57129  1  0  0  0
 58130  1  0  0  0
 59 60  1  0  0  0
 59 61  1  0  0  0
 59 62  1  0  0  0
 60131  1  0  0  0
 60132  1  0  0  0
 60133  1  0  0  0
 61134  1  0  0  0
 61135  1  0  0  0
 61136  1  0  0  0
 62137  1  0  0  0
 62138  1  0  0  0
 62139  1  0  0  0
 63 65  1  0  0  0
 63140  1  0  0  0
 63141  1  0  0  0
 63142  1  0  0  0
 64143  1  0  0  0
 65144  1  0  0  0
 68 80  1  0  0  0
 71 72  2  0  0  0
 71 74  1  0  0  0
 71145  1  0  0  0
 72 75  1  0  0  0
 72 77  1  0  0  0
 73 75  2  0  0  0
 73 76  1  0  0  0
 73 79  1  0  0  0
 74 76  2  0  0  0
 74 82  1  0  0  0
 75 84  1  0  0  0
 76 85  1  0  0  0
 77146  1  0  0  0
 77147  1  0  0  0
 77148  1  0  0  0
 78149  1  0  0  0
 78150  1  0  0  0
 78151  1  0  0  0
 78 81  1  0  0  0
 79 83  1  0  0  0
 79152  1  0  0  0
 79153  1  0  0  0
 80 81  1  0  0  0
 80154  1  0  0  0
 80155  1  0  0  0
 81 83  1  0  0  0
 81156  1  0  0  0
 82157  1  0  0  0
 83158  1  0  0  0
 83159  1  0  0  0
M  CHG  1  83   1
M  ISO  4   1 100  68 101  80 101  82 100
M  END
> <chiral flag>
0

> <version>
0

> <s_m_source_file>
/data/baiqing/PycharmProjects/Reinvent-master-3.2/result/LINK_invent/BTK/process_docking_weight1_custom_sum_contain_oxygen_bond_distance_aromatic_linkinvent_7_9_3/rearranged_h_0016.sdf

> <i_m_source_file_index>
26

> <r_mmod_Potential_Energy-OPLS-2005>
-46.2703666687012

> <r_mmod_Stretch_Energy-OPLS-2005>
125.045333862305

> <r_mmod_Bend_Energy-OPLS-2005>
174.729095458984

> <r_mmod_Torsional_Energy-OPLS-2005>
206.457931518555

> <r_mmod_Improper_Torsional_Energy-OPLS-2005>
4.85166072845459

> <r_mmod_Van_der_Waal_Energy-OPLS-2005>
149.508834838867

> <r_mmod_Electrostatic_Energy-OPLS-2005>
-337.751220703125

> <r_mmod_Solvation_Energy-OPLS-2005>
-443.147369384766

> <b_mmod_Minimization_Converged-OPLS-2005>
0

> <r_mmod_RMS_Derivative-OPLS-2005>
0.955882012844086

$$$$
26
                    3D
 Structure written by MMmdl.
167174  0  0  1  0            999 V2000
  -30.6432  -14.7701   20.4563 C   0  0  0  0  0  0
  -30.4172  -12.4744   19.4795 C   0  0  0  0  0  0
  -29.5086  -12.4953   18.2340 C   0  0  0  0  0  0
  -28.0349  -12.3257   18.6497 C   0  0  0  0  0  0
  -27.6365  -13.2328   19.8438 C   0  0  2  0  0  0
  -28.6799  -13.2345   20.9781 C   0  0  0  0  0  0
  -25.2581  -13.7968   20.5752 C   0  0  0  0  0  0
  -24.1830  -13.0286   20.9226 C   0  0  0  0  0  0
  -24.6459  -11.6808   20.8762 C   0  0  0  0  0  0
  -23.9129  -10.4218   21.0407 C   0  0  0  0  0  0
  -24.3648   -9.4157   21.9204 C   0  0  0  0  0  0
  -23.6302   -8.2212   22.0768 C   0  0  0  0  0  0
  -22.4286   -8.0270   21.3543 C   0  0  0  0  0  0
  -21.9931   -9.0266   20.4655 C   0  0  0  0  0  0
  -22.7292  -10.2131   20.3068 C   0  0  0  0  0  0
  -21.6850   -6.0747   22.5284 C   0  0  0  0  0  0
  -21.4030   -6.5648   23.8218 C   0  0  0  0  0  0
  -21.3643   -5.6792   24.9165 C   0  0  0  0  0  0
  -21.6051   -4.3057   24.7214 C   0  0  0  0  0  0
  -21.8814   -3.8160   23.4327 C   0  0  0  0  0  0
  -21.9199   -4.6981   22.3392 C   0  0  0  0  0  0
  -22.7885  -13.5159   21.1833 C   0  0  0  0  0  0
  -22.1669   -4.2155   21.0972 F   0  0  0  0  0  0
  -21.5607   -3.4549   25.7728 F   0  0  0  0  0  0
  -29.9611  -13.5744   20.3673 N   0  0  0  0  0  0
  -26.2958  -12.9237   20.3283 N   0  0  0  0  0  0
  -25.9390  -11.6399   20.5780 N   0  0  0  0  0  0
  -22.0527  -12.8197   22.0403 N   0  0  0  0  0  0
  -25.4427  -15.1569   20.4180 N   0  0  0  0  0  0
  -31.8506  -14.7714   20.2231 O   0  0  0  0  0  0
  -21.6637   -6.8887   21.4243 O   0  0  0  0  0  0
  -22.3600  -14.5465   20.6681 O   0  0  0  0  0  0
  -24.6353  -31.8504   23.1902 C   0  0  0  0  0  0
  -25.9170  -32.4721   23.8261 C   0  0  1  0  0  0
  -27.2353  -27.2428   20.1356 C   0  0  0  0  0  0
  -25.5937  -33.8508   24.2187 N   0  0  0  0  0  0
  -23.4301  -30.4726   21.5314 C   0  0  2  0  0  0
  -24.8847  -28.9194   20.1007 C   0  0  0  0  0  0
  -22.7527  -29.4555   22.4840 C   0  0  0  0  0  0
  -18.0281  -28.1493   22.8484 C   0  0  0  0  0  0
  -24.1497  -36.7303   23.2636 C   0  0  0  0  0  0
  -25.9765  -30.7617   21.3666 C   0  0  0  0  0  0
  -26.0548  -29.3830   20.7130 C   0  0  0  0  0  0
  -27.2276  -28.5583   20.7223 C   0  0  0  0  0  0
  -26.0470  -26.8573   19.4716 C   0  0  0  0  0  0
  -24.8889  -27.6663   19.4666 C   0  0  0  0  0  0
  -23.6521  -29.8037   20.1487 C   0  0  0  0  0  0
  -25.4124  -36.3057   24.0308 C   0  0  1  0  0  0
  -20.5892  -28.3803   23.1350 C   0  0  2  0  0  0
  -20.6799  -26.9389   22.5763 C   0  0  0  0  0  0
  -19.5773  -26.6038   21.5633 C   0  0  0  0  0  0
  -18.1902  -26.7927   22.1916 C   0  0  0  0  0  0
  -19.1536  -28.8981   23.2827 C   0  0  0  0  0  0
  -18.9506  -30.1646   23.8679 C   0  0  0  0  0  0
  -17.6494  -30.6751   24.0310 C   0  0  0  0  0  0
  -25.9069  -34.9416   23.5073 C   0  0  0  0  0  0
  -16.5377  -29.9269   23.6123 C   0  0  0  0  0  0
  -16.7227  -28.6653   23.0207 C   0  0  0  0  0  0
  -26.4514  -31.6564   25.0665 C   0  0  0  0  0  0
  -25.3708  -31.3738   26.1359 C   0  0  0  0  0  0
  -27.0343  -30.2975   24.6151 C   0  0  0  0  0  0
  -27.6034  -32.4299   25.7453 C   0  0  0  0  0  0
  -27.5576  -37.1806   24.8460 C   0  0  0  0  0  0
  -21.4223  -29.3081   22.3736 N   0  0  0  0  0  0
  -26.4291  -37.3769   23.9405 N   0  0  0  0  0  0
  -24.7017  -31.0444   22.0880 N   0  0  0  0  0  0
  -23.4318  -28.8007   23.2803 O   0  0  0  0  0  0
  -28.3421  -26.3589   20.2339 O   0  0  0  0  0  0
  -26.5635  -34.8913   22.4630 O   0  0  0  0  0  0
  -23.5487  -32.1286   23.7219 O   0  0  0  0  0  0
  -29.5245  -19.7346   20.6659 C   0  0  0  0  0  0
  -28.4699  -18.2464   18.8903 C   0  0  0  0  0  0
  -29.0600  -23.7774   20.7964 C   0  0  0  0  0  0
  -29.6579  -22.3595   20.2349 C   0  0  0  0  0  0
  -29.1209  -16.9388   21.0130 C   0  0  0  0  0  0
  -28.2549  -24.8817   19.9169 C   0  0  0  0  0  0
  -28.6268  -18.4079   20.4159 C   0  0  2  0  0  0
  -26.1197  -19.4547   20.9362 C   0  0  0  0  0  0
  -24.8833  -18.5191   21.1864 C   0  0  0  0  0  0
  -25.8517  -20.1853   19.5637 C   0  0  0  0  0  0
  -26.1779  -20.4471   22.1471 C   0  0  0  0  0  0
  -29.0106  -21.0032   20.4829 N   0  0  0  0  0  0
  -30.0061  -15.9850   20.2240 N   0  0  0  0  0  0
  -27.2823  -18.5082   21.0367 N   0  0  0  0  0  0
  -30.7061  -19.5794   20.9829 O   0  0  0  0  0  0
  -24.7389  -17.6832   20.1610 F   0  0  0  0  0  0
  -25.0350  -17.7866   22.2966 F   0  0  0  0  0  0
  -23.7206  -19.1655   21.3016 F   0  0  0  0  0  0
  -26.8051  -21.0422   19.2256 F   0  0  0  0  0  0
  -24.7298  -20.9047   19.6179 F   0  0  0  0  0  0
  -25.7497  -19.3448   18.5381 F   0  0  0  0  0  0
  -26.7039  -19.8283   23.2095 F   0  0  0  0  0  0
  -24.9820  -20.9145   22.5021 F   0  0  0  0  0  0
  -26.9116  -21.5241   21.9015 F   0  0  0  0  0  0
  -31.4607  -12.5764   19.1853 H   0  0  0  0  0  0
  -30.3327  -11.5116   19.9905 H   0  0  0  0  0  0
  -29.7916  -11.7023   17.5413 H   0  0  0  0  0  0
  -29.6388  -13.4403   17.6963 H   0  0  0  0  0  0
  -27.8968  -11.2783   18.9234 H   0  0  0  0  0  0
  -27.3787  -12.5112   17.7962 H   0  0  0  0  0  0
  -27.6123  -14.2466   19.4426 H   0  0  0  0  0  0
  -28.7299  -12.2637   21.4741 H   0  0  0  0  0  0
  -28.4188  -13.9622   21.7458 H   0  0  0  0  0  0
  -25.2789   -9.5628   22.4786 H   0  0  0  0  0  0
  -23.9995   -7.4603   22.7510 H   0  0  0  0  0  0
  -21.0830   -8.8811   19.8980 H   0  0  0  0  0  0
  -22.3750  -10.9685   19.6190 H   0  0  0  0  0  0
  -21.2045   -7.6163   23.9703 H   0  0  0  0  0  0
  -21.1463   -6.0539   25.9061 H   0  0  0  0  0  0
  -22.0614   -2.7623   23.2830 H   0  0  0  0  0  0
  -22.4114  -11.9872   22.4837 H   0  0  0  0  0  0
  -21.1176  -13.1291   22.2581 H   0  0  0  0  0  0
  -24.6742  -15.8117   20.4946 H   0  0  0  0  0  0
  -26.2943  -15.5910   20.0907 H   0  0  0  0  0  0
  -26.7228  -32.5385   23.0977 H   0  0  0  0  0  0
  -25.0038  -33.9622   25.0303 H   0  0  0  0  0  0
  -22.7275  -31.2938   21.3796 H   0  0  0  0  0  0
  -23.3750  -35.9653   23.3293 H   0  0  0  0  0  0
  -24.3593  -36.8944   22.2058 H   0  0  0  0  0  0
  -23.7261  -37.6497   23.6679 H   0  0  0  0  0  0
  -26.1131  -31.5213   20.6007 H   0  0  0  0  0  0
  -26.8561  -30.8171   21.9971 H   0  0  0  0  0  0
  -28.1169  -28.9106   21.2222 H   0  0  0  0  0  0
  -25.9785  -25.9106   18.9580 H   0  0  0  0  0  0
  -23.9950  -27.3073   18.9732 H   0  0  0  0  0  0
  -23.7713  -30.5826   19.3950 H   0  0  0  0  0  0
  -22.7743  -29.2282   19.8457 H   0  0  0  0  0  0
  -25.1318  -36.1882   25.0800 H   0  0  0  0  0  0
  -21.0041  -28.3645   24.1423 H   0  0  0  0  0  0
  -20.5427  -26.2503   23.4182 H   0  0  0  0  0  0
  -21.6748  -26.7250   22.1852 H   0  0  0  0  0  0
  -19.6732  -27.2273   20.6752 H   0  0  0  0  0  0
  -19.6707  -25.5720   21.2253 H   0  0  0  0  0  0
  -17.4067  -26.6472   21.4410 H   0  0  0  0  0  0
  -18.0255  -26.0440   22.9650 H   0  0  0  0  0  0
  -19.7924  -30.7639   24.1886 H   0  0  0  0  0  0
  -17.5031  -31.6507   24.4739 H   0  0  0  0  0  0
  -15.5361  -30.3239   23.7233 H   0  0  0  0  0  0
  -15.8516  -28.1130   22.6898 H   0  0  0  0  0  0
  -24.5885  -30.7086   25.7688 H   0  0  0  0  0  0
  -24.8904  -32.2920   26.4739 H   0  0  0  0  0  0
  -25.8009  -30.8931   27.0151 H   0  0  0  0  0  0
  -26.2915  -29.6713   24.1185 H   0  0  0  0  0  0
  -27.4032  -29.7252   25.4677 H   0  0  0  0  0  0
  -27.8804  -30.4251   23.9392 H   0  0  0  0  0  0
  -27.2633  -33.3614   26.1976 H   0  0  0  0  0  0
  -28.3885  -32.6809   25.0314 H   0  0  0  0  0  0
  -28.0632  -31.8426   26.5403 H   0  0  0  0  0  0
  -28.2592  -38.0102   24.7499 H   0  0  0  0  0  0
  -28.1068  -36.2626   24.6300 H   0  0  0  0  0  0
  -27.2294  -37.1486   25.8862 H   0  0  0  0  0  0
  -20.9261  -29.9139   21.7365 H   0  0  0  0  0  0
  -26.0164  -38.2841   24.1395 H   0  0  0  0  0  0
  -29.3839  -17.8294   18.4673 H   0  0  0  0  0  0
  -28.3206  -19.1993   18.3823 H   0  0  0  0  0  0
  -27.6597  -17.5783   18.6151 H   0  0  0  0  0  0
  -29.9483  -24.3239   21.1050 H   0  0  0  0  0  0
  -28.5219  -23.5936   21.7282 H   0  0  0  0  0  0
  -30.6714  -22.2578   20.6246 H   0  0  0  0  0  0
  -29.7821  -22.4565   19.1581 H   0  0  0  0  0  0
  -28.2406  -16.3239   21.2231 H   0  0  0  0  0  0
  -29.5710  -17.1030   21.9944 H   0  0  0  0  0  0
  -27.2191  -24.5510   19.9516 H   0  0  0  0  0  0
  -28.5652  -24.7781   18.8757 H   0  0  0  0  0  0
  -28.0282  -20.9970   20.2490 H   0  0  0  0  0  0
  -30.6756  -16.5618   19.7320 H   0  0  0  0  0  0
  -27.3735  -18.3600   22.0427 H   0  0  0  0  0  0
  1 25  1  0  0  0
  1 30  2  0  0  0
  1 83  1  0  0  0
  2  3  1  0  0  0
  2 25  1  0  0  0
  2 95  1  0  0  0
  2 96  1  0  0  0
  3  4  1  0  0  0
  3 97  1  0  0  0
  3 98  1  0  0  0
  4  5  1  0  0  0
  4 99  1  0  0  0
  4100  1  0  0  0
  5  6  1  0  0  0
  5 26  1  0  0  0
  5101  1  0  0  0
  6 25  1  0  0  0
  6102  1  0  0  0
  6103  1  0  0  0
  7  8  2  0  0  0
  7 26  1  0  0  0
  7 29  1  0  0  0
  8  9  1  0  0  0
  8 22  1  0  0  0
  9 10  1  0  0  0
  9 27  2  0  0  0
 10 11  2  0  0  0
 10 15  1  0  0  0
 11 12  1  0  0  0
 11104  1  0  0  0
 12 13  2  0  0  0
 12105  1  0  0  0
 13 14  1  0  0  0
 13 31  1  0  0  0
 14 15  2  0  0  0
 14106  1  0  0  0
 15107  1  0  0  0
 16 17  2  0  0  0
 16 21  1  0  0  0
 16 31  1  0  0  0
 17 18  1  0  0  0
 17108  1  0  0  0
 18 19  2  0  0  0
 18109  1  0  0  0
 19 20  1  0  0  0
 19 24  1  0  0  0
 20 21  2  0  0  0
 20110  1  0  0  0
 21 23  1  0  0  0
 22 28  1  0  0  0
 22 32  2  0  0  0
 26 27  1  0  0  0
 28111  1  0  0  0
 28112  1  0  0  0
 29113  1  0  0  0
 29114  1  0  0  0
 33 34  1  0  0  0
 33 66  1  0  0  0
 33 70  2  0  0  0
 34 36  1  0  0  0
 34 59  1  0  0  0
 34115  1  0  0  0
 35 44  2  0  0  0
 35 45  1  0  0  0
 35 68  1  0  0  0
 36 56  1  0  0  0
 36116  1  0  0  0
 37 39  1  0  0  0
 37 47  1  0  0  0
 37 66  1  0  0  0
 37117  1  0  0  0
 38 43  2  0  0  0
 38 46  1  0  0  0
 38 47  1  0  0  0
 39 64  1  0  0  0
 39 67  2  0  0  0
 40 52  1  0  0  0
 40 53  2  0  0  0
 40 58  1  0  0  0
 41118  1  0  0  0
 41119  1  0  0  0
 41120  1  0  0  0
 41 48  1  0  0  0
 42 43  1  0  0  0
 42 66  1  0  0  0
 42121  1  0  0  0
 42122  1  0  0  0
 43 44  1  0  0  0
 44123  1  0  0  0
 45 46  2  0  0  0
 45124  1  0  0  0
 46125  1  0  0  0
 47126  1  0  0  0
 47127  1  0  0  0
 48 56  1  0  0  0
 48 65  1  0  0  0
 48128  1  0  0  0
 49 50  1  0  0  0
 49 53  1  0  0  0
 49 64  1  0  0  0
 49129  1  0  0  0
 50 51  1  0  0  0
 50130  1  0  0  0
 50131  1  0  0  0
 51 52  1  0  0  0
 51132  1  0  0  0
 51133  1  0  0  0
 52134  1  0  0  0
 52135  1  0  0  0
 53 54  1  0  0  0
 54 55  2  0  0  0
 54136  1  0  0  0
 55 57  1  0  0  0
 55137  1  0  0  0
 56 69  2  0  0  0
 57 58  2  0  0  0
 57138  1  0  0  0
 58139  1  0  0  0
 59 60  1  0  0  0
 59 61  1  0  0  0
 59 62  1  0  0  0
 60140  1  0  0  0
 60141  1  0  0  0
 60142  1  0  0  0
 61143  1  0  0  0
 61144  1  0  0  0
 61145  1  0  0  0
 62146  1  0  0  0
 62147  1  0  0  0
 62148  1  0  0  0
 63 65  1  0  0  0
 63149  1  0  0  0
 63150  1  0  0  0
 63151  1  0  0  0
 64152  1  0  0  0
 65153  1  0  0  0
 68 76  1  0  0  0
 71 82  1  0  0  0
 71 85  2  0  0  0
 71 77  1  0  0  0
 72154  1  0  0  0
 72155  1  0  0  0
 72156  1  0  0  0
 72 77  1  0  0  0
 73 74  1  0  0  0
 73 76  1  0  0  0
 73157  1  0  0  0
 73158  1  0  0  0
 74 82  1  0  0  0
 74159  1  0  0  0
 74160  1  0  0  0
 75 77  1  0  0  0
 75 83  1  0  0  0
 75161  1  0  0  0
 75162  1  0  0  0
 76163  1  0  0  0
 76164  1  0  0  0
 77 84  1  0  0  0
 78 79  1  0  0  0
 78 80  1  0  0  0
 78 81  1  0  0  0
 78 84  1  0  0  0
 79 86  1  0  0  0
 79 87  1  0  0  0
 79 88  1  0  0  0
 80 89  1  0  0  0
 80 90  1  0  0  0
 80 91  1  0  0  0
 81 92  1  0  0  0
 81 93  1  0  0  0
 81 94  1  0  0  0
 82165  1  0  0  0
 83166  1  0  0  0
 84167  1  0  0  0
M  ISO  4   1 100  68 101  76 101  83 100
M  END
> <chiral flag>
0

> <version>
0

> <s_m_source_file>
/data/baiqing/PycharmProjects/Reinvent-master-3.2/result/LINK_invent/BTK/process_docking_weight1_custom_sum_contain_oxygen_bond_distance_aromatic_linkinvent_7_9_3/rearranged_h_0016.sdf

> <i_m_source_file_index>
27

> <r_mmod_Potential_Energy-OPLS-2005>
491.787536621094

> <r_mmod_Stretch_Energy-OPLS-2005>
155.593826293945

> <r_mmod_Bend_Energy-OPLS-2005>
327.808227539062

> <r_mmod_Torsional_Energy-OPLS-2005>
327.889465332031

> <r_mmod_Improper_Torsional_Energy-OPLS-2005>
24.6441421508789

> <r_mmod_Van_der_Waal_Energy-OPLS-2005>
150.116516113281

> <r_mmod_Electrostatic_Energy-OPLS-2005>
-384.595550537109

> <r_mmod_Solvation_Energy-OPLS-2005>
-212.180694580078

> <b_mmod_Minimization_Converged-OPLS-2005>
0

> <r_mmod_RMS_Derivative-OPLS-2005>
9.66162300109863

$$$$
27
                    3D
 Structure written by MMmdl.
164172  0  0  1  0            999 V2000
  -30.6255  -14.5482   20.5780 C   0  0  0  0  0  0
  -30.4453  -12.3576   19.4179 C   0  0  0  0  0  0
  -29.5003  -12.5094   18.2052 C   0  0  0  0  0  0
  -28.0237  -12.3524   18.6236 C   0  0  0  0  0  0
  -27.6622  -13.1954   19.8741 C   0  0  2  0  0  0
  -28.7061  -12.9696   20.9907 C   0  0  0  0  0  0
  -25.2611  -13.8126   20.5663 C   0  0  0  0  0  0
  -24.1847  -13.0416   20.9164 C   0  0  0  0  0  0
  -24.6380  -11.6884   20.8713 C   0  0  0  0  0  0
  -23.9042  -10.4285   21.0401 C   0  0  0  0  0  0
  -24.3599   -9.4208   21.9186 C   0  0  0  0  0  0
  -23.6280   -8.2237   22.0759 C   0  0  0  0  0  0
  -22.4263   -8.0268   21.3547 C   0  0  0  0  0  0
  -21.9895   -9.0237   20.4646 C   0  0  0  0  0  0
  -22.7211  -10.2122   20.3055 C   0  0  0  0  0  0
  -21.6848   -6.0730   22.5275 C   0  0  0  0  0  0
  -21.4011   -6.5639   23.8210 C   0  0  0  0  0  0
  -21.3656   -5.6793   24.9172 C   0  0  0  0  0  0
  -21.6043   -4.3053   24.7231 C   0  0  0  0  0  0
  -21.8822   -3.8142   23.4344 C   0  0  0  0  0  0
  -21.9194   -4.6960   22.3401 C   0  0  0  0  0  0
  -22.7886  -13.5238   21.1832 C   0  0  0  0  0  0
  -22.1663   -4.2134   21.0975 F   0  0  0  0  0  0
  -21.5629   -3.4538   25.7751 F   0  0  0  0  0  0
  -30.0262  -13.3302   20.4415 N   0  0  0  0  0  0
  -26.3023  -12.9264   20.3351 N   0  0  0  0  0  0
  -25.9303  -11.6440   20.5766 N   0  0  0  0  0  0
  -22.0514  -12.8236   22.0387 N   0  0  0  0  0  0
  -25.4382  -15.1841   20.4081 N   0  0  0  0  0  0
  -31.7555  -14.7873   20.1385 O   0  0  0  0  0  0
  -21.6626   -6.8864   21.4239 O   0  0  0  0  0  0
  -22.3578  -14.5542   20.6679 O   0  0  0  0  0  0
  -24.6204  -31.8639   23.2044 C   0  0  0  0  0  0
  -25.9069  -32.4805   23.8381 C   0  0  1  0  0  0
  -27.2422  -27.3796   20.1218 C   0  0  0  0  0  0
  -25.5890  -33.8606   24.2301 N   0  0  0  0  0  0
  -23.4122  -30.4808   21.5480 C   0  0  2  0  0  0
  -24.8608  -28.9338   20.1207 C   0  0  0  0  0  0
  -22.7447  -29.4604   22.4989 C   0  0  0  0  0  0
  -18.0264  -28.1348   22.8477 C   0  0  0  0  0  0
  -24.1477  -36.7326   23.2638 C   0  0  0  0  0  0
  -25.9431  -30.8131   21.3620 C   0  0  0  0  0  0
  -26.0223  -29.4398   20.7171 C   0  0  0  0  0  0
  -27.2177  -28.6746   20.7053 C   0  0  0  0  0  0
  -26.0607  -26.8971   19.5193 C   0  0  0  0  0  0
  -24.8769  -27.6639   19.5159 C   0  0  0  0  0  0
  -23.6246  -29.8062   20.1658 C   0  0  0  0  0  0
  -25.4096  -36.3104   24.0324 C   0  0  1  0  0  0
  -20.5859  -28.3648   23.1302 C   0  0  2  0  0  0
  -20.6756  -26.9379   22.5412 C   0  0  0  0  0  0
  -19.5743  -26.6360   21.5193 C   0  0  0  0  0  0
  -18.1919  -26.7899   22.1592 C   0  0  0  0  0  0
  -19.1512  -28.8809   23.2884 C   0  0  0  0  0  0
  -18.9439  -30.1410   23.8892 C   0  0  0  0  0  0
  -17.6447  -30.6563   24.0540 C   0  0  0  0  0  0
  -25.9028  -34.9468   23.5110 C   0  0  0  0  0  0
  -16.5331  -29.9060   23.6309 C   0  0  0  0  0  0
  -16.7259  -28.6476   23.0327 C   0  0  0  0  0  0
  -26.4470  -31.6593   25.0724 C   0  0  0  0  0  0
  -25.3729  -31.3692   26.1468 C   0  0  0  0  0  0
  -27.0321  -30.3039   24.6120 C   0  0  0  0  0  0
  -27.6044  -32.4328   25.7496 C   0  0  0  0  0  0
  -27.5575  -37.1816   24.8457 C   0  0  0  0  0  0
  -21.4164  -29.3015   22.3721 N   0  0  0  0  0  0
  -26.4278  -37.3795   23.9410 N   0  0  0  0  0  0
  -24.6772  -31.0675   22.0978 N   0  0  0  0  0  0
  -23.4177  -28.8170   23.3087 O   0  0  0  0  0  0
  -28.4067  -26.6246   20.0981 O   0  0  0  0  0  0
  -26.5624  -34.8932   22.4694 O   0  0  0  0  0  0
  -23.5380  -32.1414   23.7398 O   0  0  0  0  0  0
  -29.9527  -19.6280   22.1333 C   0  0  0  0  0  0
  -30.1183  -18.6419   23.1282 C   0  0  0  0  0  0
  -30.1572  -17.2676   22.7791 C   0  0  0  0  0  0
  -29.8123  -19.2952   20.7695 C   0  0  0  0  0  0
  -30.0265  -16.8850   21.4182 C   0  0  0  0  0  0
  -29.8589  -17.8970   20.4240 C   0  0  0  0  0  0
  -30.2149  -19.0929   24.5778 C   0  0  0  0  0  0
  -30.2854  -16.2002   23.8644 C   0  0  0  0  0  0
  -30.0783  -20.1402   18.4540 C   0  0  0  0  0  0
  -29.7185  -22.9112   20.1960 C   0  0  0  0  0  0
  -29.1212  -24.2504   19.6166 C   0  0  0  0  0  0
  -28.8645  -21.5998   20.1240 C   0  0  0  0  0  0
  -28.3627  -25.2432   20.5604 C   0  0  0  0  0  0
  -29.8177  -15.4928   21.1156 N   0  0  0  0  0  0
  -29.6341  -20.3601   19.8288 N   0  0  0  0  0  0
  -29.6679  -17.4961   19.1413 F   0  0  0  0  0  0
  -31.4810  -12.5069   19.1089 H   0  0  0  0  0  0
  -30.3952  -11.3443   19.8189 H   0  0  0  0  0  0
  -29.7498  -11.7717   17.4403 H   0  0  0  0  0  0
  -29.6477  -13.4869   17.7444 H   0  0  0  0  0  0
  -27.8503  -11.2965   18.8333 H   0  0  0  0  0  0
  -27.3658  -12.6080   17.7931 H   0  0  0  0  0  0
  -27.7067  -14.2416   19.5726 H   0  0  0  0  0  0
  -28.7103  -11.9227   21.2982 H   0  0  0  0  0  0
  -28.4514  -13.5274   21.8924 H   0  0  0  0  0  0
  -25.2749   -9.5676   22.4756 H   0  0  0  0  0  0
  -23.9982   -7.4632   22.7484 H   0  0  0  0  0  0
  -21.0826   -8.8756   19.8947 H   0  0  0  0  0  0
  -22.3676  -10.9661   19.6154 H   0  0  0  0  0  0
  -21.2003   -7.6154   23.9706 H   0  0  0  0  0  0
  -21.1475   -6.0527   25.9075 H   0  0  0  0  0  0
  -22.0607   -2.7603   23.2854 H   0  0  0  0  0  0
  -22.4132  -11.9885   22.4750 H   0  0  0  0  0  0
  -21.1141  -13.1279   22.2609 H   0  0  0  0  0  0
  -24.6720  -15.8417   20.5029 H   0  0  0  0  0  0
  -26.2958  -15.6193   20.0903 H   0  0  0  0  0  0
  -26.7155  -32.5507   23.1168 H   0  0  0  0  0  0
  -24.9988  -33.9763   25.0414 H   0  0  0  0  0  0
  -22.7032  -31.2980   21.4057 H   0  0  0  0  0  0
  -23.3727  -35.9672   23.3273 H   0  0  0  0  0  0
  -24.3564  -36.8996   22.2058 H   0  0  0  0  0  0
  -23.7235  -37.6514   23.6691 H   0  0  0  0  0  0
  -26.0520  -31.5677   20.5806 H   0  0  0  0  0  0
  -26.8334  -30.8801   21.9763 H   0  0  0  0  0  0
  -28.1168  -29.0648   21.1641 H   0  0  0  0  0  0
  -26.0557  -25.9267   19.0450 H   0  0  0  0  0  0
  -23.9842  -27.2664   19.0512 H   0  0  0  0  0  0
  -23.7440  -30.5766   19.4047 H   0  0  0  0  0  0
  -22.7473  -29.2301   19.8666 H   0  0  0  0  0  0
  -25.1273  -36.1963   25.0818 H   0  0  0  0  0  0
  -20.9927  -28.3210   24.1430 H   0  0  0  0  0  0
  -20.5646  -26.2259   23.3600 H   0  0  0  0  0  0
  -21.6631  -26.7444   22.1214 H   0  0  0  0  0  0
  -19.6903  -25.6277   21.1203 H   0  0  0  0  0  0
  -19.6648  -27.3171   20.6723 H   0  0  0  0  0  0
  -17.4196  -26.6623   21.3983 H   0  0  0  0  0  0
  -18.0317  -26.0026   22.8974 H   0  0  0  0  0  0
  -19.7923  -30.7198   24.2263 H   0  0  0  0  0  0
  -17.5013  -31.6240   24.5149 H   0  0  0  0  0  0
  -15.5325  -30.2961   23.7625 H   0  0  0  0  0  0
  -15.8668  -28.0795   22.7047 H   0  0  0  0  0  0
  -24.5888  -30.7066   25.7787 H   0  0  0  0  0  0
  -24.8930  -32.2837   26.4958 H   0  0  0  0  0  0
  -25.8073  -30.8813   27.0204 H   0  0  0  0  0  0
  -26.2870  -29.6775   24.1204 H   0  0  0  0  0  0
  -27.4112  -29.7307   25.4592 H   0  0  0  0  0  0
  -27.8706  -30.4354   23.9276 H   0  0  0  0  0  0
  -27.2671  -33.3664   26.2030 H   0  0  0  0  0  0
  -28.3882  -32.6835   25.0325 H   0  0  0  0  0  0
  -28.0688  -31.8473   26.5443 H   0  0  0  0  0  0
  -28.2587  -38.0128   24.7542 H   0  0  0  0  0  0
  -28.1075  -36.2651   24.6239 H   0  0  0  0  0  0
  -27.2294  -37.1459   25.8865 H   0  0  0  0  0  0
  -20.9342  -29.8782   21.6968 H   0  0  0  0  0  0
  -26.0148  -38.2868   24.1420 H   0  0  0  0  0  0
  -29.9374  -20.6665   22.4303 H   0  0  0  0  0  0
  -30.0530  -20.1664   24.6770 H   0  0  0  0  0  0
  -31.1999  -18.8696   24.9880 H   0  0  0  0  0  0
  -29.4624  -18.5943   25.1902 H   0  0  0  0  0  0
  -30.7963  -16.5644   24.7553 H   0  0  0  0  0  0
  -30.8640  -15.3454   23.5145 H   0  0  0  0  0  0
  -29.2975  -15.8459   24.1626 H   0  0  0  0  0  0
  -31.0140  -19.5791   18.4237 H   0  0  0  0  0  0
  -30.2484  -21.0853   17.9372 H   0  0  0  0  0  0
  -29.3268  -19.5871   17.8888 H   0  0  0  0  0  0
  -30.0704  -23.0642   21.2160 H   0  0  0  0  0  0
  -30.6294  -22.7297   19.6242 H   0  0  0  0  0  0
  -28.5137  -24.0409   18.7348 H   0  0  0  0  0  0
  -29.9784  -24.8075   19.2348 H   0  0  0  0  0  0
  -28.1286  -21.7064   19.3254 H   0  0  0  0  0  0
  -28.2749  -21.4886   21.0346 H   0  0  0  0  0  0
  -28.8532  -25.2389   21.5359 H   0  0  0  0  0  0
  -27.3479  -24.8868   20.7448 H   0  0  0  0  0  0
  -28.9280  -15.1289   21.4170 H   0  0  0  0  0  0
  1 25  1  0  0  0
  1 30  2  0  0  0
  1 84  1  0  0  0
  2  3  1  0  0  0
  2 25  1  0  0  0
  2 87  1  0  0  0
  2 88  1  0  0  0
  3  4  1  0  0  0
  3 89  1  0  0  0
  3 90  1  0  0  0
  4  5  1  0  0  0
  4 91  1  0  0  0
  4 92  1  0  0  0
  5  6  1  0  0  0
  5 26  1  0  0  0
  5 93  1  0  0  0
  6 25  1  0  0  0
  6 94  1  0  0  0
  6 95  1  0  0  0
  7  8  2  0  0  0
  7 26  1  0  0  0
  7 29  1  0  0  0
  8  9  1  0  0  0
  8 22  1  0  0  0
  9 10  1  0  0  0
  9 27  2  0  0  0
 10 11  2  0  0  0
 10 15  1  0  0  0
 11 12  1  0  0  0
 11 96  1  0  0  0
 12 13  2  0  0  0
 12 97  1  0  0  0
 13 14  1  0  0  0
 13 31  1  0  0  0
 14 15  2  0  0  0
 14 98  1  0  0  0
 15 99  1  0  0  0
 16 17  2  0  0  0
 16 21  1  0  0  0
 16 31  1  0  0  0
 17 18  1  0  0  0
 17100  1  0  0  0
 18 19  2  0  0  0
 18101  1  0  0  0
 19 20  1  0  0  0
 19 24  1  0  0  0
 20 21  2  0  0  0
 20102  1  0  0  0
 21 23  1  0  0  0
 22 28  1  0  0  0
 22 32  2  0  0  0
 26 27  1  0  0  0
 28103  1  0  0  0
 28104  1  0  0  0
 29105  1  0  0  0
 29106  1  0  0  0
 33 34  1  0  0  0
 33 66  1  0  0  0
 33 70  2  0  0  0
 34 36  1  0  0  0
 34 59  1  0  0  0
 34107  1  0  0  0
 35 44  2  0  0  0
 35 45  1  0  0  0
 35 68  1  0  0  0
 36 56  1  0  0  0
 36108  1  0  0  0
 37 39  1  0  0  0
 37 47  1  0  0  0
 37 66  1  0  0  0
 37109  1  0  0  0
 38 43  2  0  0  0
 38 46  1  0  0  0
 38 47  1  0  0  0
 39 64  1  0  0  0
 39 67  2  0  0  0
 40 52  1  0  0  0
 40 53  2  0  0  0
 40 58  1  0  0  0
 41110  1  0  0  0
 41111  1  0  0  0
 41112  1  0  0  0
 41 48  1  0  0  0
 42 43  1  0  0  0
 42 66  1  0  0  0
 42113  1  0  0  0
 42114  1  0  0  0
 43 44  1  0  0  0
 44115  1  0  0  0
 45 46  2  0  0  0
 45116  1  0  0  0
 46117  1  0  0  0
 47118  1  0  0  0
 47119  1  0  0  0
 48 56  1  0  0  0
 48 65  1  0  0  0
 48120  1  0  0  0
 49 50  1  0  0  0
 49 53  1  0  0  0
 49 64  1  0  0  0
 49121  1  0  0  0
 50 51  1  0  0  0
 50122  1  0  0  0
 50123  1  0  0  0
 51 52  1  0  0  0
 51124  1  0  0  0
 51125  1  0  0  0
 52126  1  0  0  0
 52127  1  0  0  0
 53 54  1  0  0  0
 54 55  2  0  0  0
 54128  1  0  0  0
 55 57  1  0  0  0
 55129  1  0  0  0
 56 69  2  0  0  0
 57 58  2  0  0  0
 57130  1  0  0  0
 58131  1  0  0  0
 59 60  1  0  0  0
 59 61  1  0  0  0
 59 62  1  0  0  0
 60132  1  0  0  0
 60133  1  0  0  0
 60134  1  0  0  0
 61135  1  0  0  0
 61136  1  0  0  0
 61137  1  0  0  0
 62138  1  0  0  0
 62139  1  0  0  0
 62140  1  0  0  0
 63 65  1  0  0  0
 63141  1  0  0  0
 63142  1  0  0  0
 63143  1  0  0  0
 64144  1  0  0  0
 65145  1  0  0  0
 68 83  1  0  0  0
 71 72  2  0  0  0
 71 74  1  0  0  0
 71146  1  0  0  0
 72 73  1  0  0  0
 72 77  1  0  0  0
 73 75  2  0  0  0
 73 78  1  0  0  0
 74 76  2  0  0  0
 74 85  1  0  0  0
 75 76  1  0  0  0
 75 84  1  0  0  0
 76 86  1  0  0  0
 77147  1  0  0  0
 77148  1  0  0  0
 77149  1  0  0  0
 78150  1  0  0  0
 78151  1  0  0  0
 78152  1  0  0  0
 79 85  1  0  0  0
 79153  1  0  0  0
 79154  1  0  0  0
 79155  1  0  0  0
 80 81  1  0  0  0
 80 82  1  0  0  0
 80156  1  0  0  0
 80157  1  0  0  0
 81 83  1  0  0  0
 81158  1  0  0  0
 81159  1  0  0  0
 82 85  1  0  0  0
 82160  1  0  0  0
 82161  1  0  0  0
 83162  1  0  0  0
 83163  1  0  0  0
 84164  1  0  0  0
M  ISO  4   1 100  68 101  83 101  84 100
M  END
> <chiral flag>
0

> <version>
0

> <s_m_source_file>
/data/baiqing/PycharmProjects/Reinvent-master-3.2/result/LINK_invent/BTK/process_docking_weight1_custom_sum_contain_oxygen_bond_distance_aromatic_linkinvent_7_9_3/rearranged_h_0016.sdf

> <i_m_source_file_index>
28

> <r_mmod_Potential_Energy-OPLS-2005>
77.7133178710938

> <r_mmod_Stretch_Energy-OPLS-2005>
57.2736740112305

> <r_mmod_Bend_Energy-OPLS-2005>
134.262069702148

> <r_mmod_Torsional_Energy-OPLS-2005>
266.389282226562

> <r_mmod_Improper_Torsional_Energy-OPLS-2005>
4.8876428604126

> <r_mmod_Van_der_Waal_Energy-OPLS-2005>
151.824844360352

> <r_mmod_Electrostatic_Energy-OPLS-2005>
-345.908569335938

> <r_mmod_Solvation_Energy-OPLS-2005>
-214.608444213867

> <b_mmod_Minimization_Converged-OPLS-2005>
0

> <r_mmod_RMS_Derivative-OPLS-2005>
2.38643741607666

$$$$
28
                    3D
 Structure written by MMmdl.
160168  0  0  1  0            999 V2000
  -30.6749  -14.4887   20.5098 C   0  0  0  0  0  0
  -30.4239  -12.2895   19.4352 C   0  0  0  0  0  0
  -29.4973  -12.4691   18.2136 C   0  0  0  0  0  0
  -28.0120  -12.3615   18.6199 C   0  0  0  0  0  0
  -27.6573  -13.1933   19.8824 C   0  0  2  0  0  0
  -28.7048  -12.9881   21.0001 C   0  0  0  0  0  0
  -25.2562  -13.8124   20.5684 C   0  0  0  0  0  0
  -24.1803  -13.0420   20.9190 C   0  0  0  0  0  0
  -24.6348  -11.6885   20.8757 C   0  0  0  0  0  0
  -23.9020  -10.4278   21.0407 C   0  0  0  0  0  0
  -24.3581   -9.4195   21.9174 C   0  0  0  0  0  0
  -23.6269   -8.2224   22.0740 C   0  0  0  0  0  0
  -22.4251   -8.0259   21.3534 C   0  0  0  0  0  0
  -21.9878   -9.0233   20.4641 C   0  0  0  0  0  0
  -22.7199  -10.2116   20.3053 C   0  0  0  0  0  0
  -21.6843   -6.0724   22.5272 C   0  0  0  0  0  0
  -21.4013   -6.5629   23.8206 C   0  0  0  0  0  0
  -21.3660   -5.6780   24.9166 C   0  0  0  0  0  0
  -21.6038   -4.3042   24.7219 C   0  0  0  0  0  0
  -21.8820   -3.8138   23.4341 C   0  0  0  0  0  0
  -21.9192   -4.6955   22.3398 C   0  0  0  0  0  0
  -22.7825  -13.5227   21.1838 C   0  0  0  0  0  0
  -22.1659   -4.2141   21.0977 F   0  0  0  0  0  0
  -21.5634   -3.4530   25.7737 F   0  0  0  0  0  0
  -30.0328  -13.2909   20.4371 N   0  0  0  0  0  0
  -26.2992  -12.9255   20.3425 N   0  0  0  0  0  0
  -25.9275  -11.6433   20.5816 N   0  0  0  0  0  0
  -22.0460  -12.8239   22.0409 N   0  0  0  0  0  0
  -25.4281  -15.1841   20.4038 N   0  0  0  0  0  0
  -31.8285  -14.6634   20.1053 O   0  0  0  0  0  0
  -21.6623   -6.8856   21.4229 O   0  0  0  0  0  0
  -22.3519  -14.5532   20.6677 O   0  0  0  0  0  0
  -24.6143  -31.8689   23.2107 C   0  0  0  0  0  0
  -25.9044  -32.4826   23.8397 C   0  0  1  0  0  0
  -27.2348  -27.4353   20.0894 C   0  0  0  0  0  0
  -25.5903  -33.8621   24.2329 N   0  0  0  0  0  0
  -23.4011  -30.4927   21.5496 C   0  0  2  0  0  0
  -24.8463  -28.9573   20.1143 C   0  0  0  0  0  0
  -22.7398  -29.4676   22.4984 C   0  0  0  0  0  0
  -18.0274  -28.1380   22.8498 C   0  0  0  0  0  0
  -24.1476  -36.7305   23.2641 C   0  0  0  0  0  0
  -25.9292  -30.8317   21.3645 C   0  0  0  0  0  0
  -26.0042  -29.4661   20.7125 C   0  0  0  0  0  0
  -27.1974  -28.7102   20.7007 C   0  0  0  0  0  0
  -26.0549  -26.9405   19.4846 C   0  0  0  0  0  0
  -24.8648  -27.6926   19.5019 C   0  0  0  0  0  0
  -23.6089  -29.8244   20.1638 C   0  0  0  0  0  0
  -25.4102  -36.3111   24.0339 C   0  0  1  0  0  0
  -20.5867  -28.3670   23.1319 C   0  0  2  0  0  0
  -20.6761  -26.9404   22.5425 C   0  0  0  0  0  0
  -19.5739  -26.6385   21.5220 C   0  0  0  0  0  0
  -18.1919  -26.7929   22.1629 C   0  0  0  0  0  0
  -19.1527  -28.8837   23.2908 C   0  0  0  0  0  0
  -18.9457  -30.1439   23.8924 C   0  0  0  0  0  0
  -17.6463  -30.6588   24.0570 C   0  0  0  0  0  0
  -25.9030  -34.9477   23.5128 C   0  0  0  0  0  0
  -16.5353  -29.9095   23.6324 C   0  0  0  0  0  0
  -16.7266  -28.6507   23.0356 C   0  0  0  0  0  0
  -26.4473  -31.6616   25.0728 C   0  0  0  0  0  0
  -25.3737  -31.3741   26.1476 C   0  0  0  0  0  0
  -27.0320  -30.3064   24.6119 C   0  0  0  0  0  0
  -27.6045  -32.4346   25.7487 C   0  0  0  0  0  0
  -27.5576  -37.1806   24.8464 C   0  0  0  0  0  0
  -21.4133  -29.3035   22.3713 N   0  0  0  0  0  0
  -26.4288  -37.3796   23.9410 N   0  0  0  0  0  0
  -24.6662  -31.0790   22.1001 N   0  0  0  0  0  0
  -23.4178  -28.8222   23.3030 O   0  0  0  0  0  0
  -28.4233  -26.7324   20.1146 O   0  0  0  0  0  0
  -26.5589  -34.8932   22.4688 O   0  0  0  0  0  0
  -23.5338  -32.1439   23.7496 O   0  0  0  0  0  0
  -30.6452  -17.8350   21.2640 C   0  0  0  0  0  0
  -29.5947  -18.6337   18.7703 C   0  0  0  0  0  0
  -30.2318  -19.6095   19.5990 C   0  0  0  0  0  0
  -30.0432  -16.8680   20.4372 C   0  0  0  0  0  0
  -30.7542  -19.1809   20.8555 C   0  0  0  0  0  0
  -29.5150  -17.2749   19.1871 C   0  0  0  0  0  0
  -29.7851  -22.1905   19.9292 C   0  0  0  0  0  0
  -29.0066  -19.0436   17.4172 C   0  0  0  0  0  0
  -31.9238  -21.3216   18.7393 C   0  0  0  0  0  0
  -29.7191  -24.6934   20.2615 C   0  0  0  0  0  0
  -28.4406  -25.3572   19.7124 C   0  0  0  0  0  0
  -30.4396  -21.0628   19.0848 C   0  0  1  0  0  0
  -29.9068  -15.5217   20.9027 N   0  0  0  0  0  0
  -30.0812  -23.4515   19.5711 N   0  0  0  0  0  0
  -29.0076  -21.9387   20.8520 O   0  0  0  0  0  0
  -31.5735  -20.2550   21.9375 Cl  0  0  0  0  0  0
  -28.7790  -16.0963   18.1548 Cl  0  0  0  0  0  0
  -31.4702  -12.3833   19.1388 H   0  0  0  0  0  0
  -30.3208  -11.2856   19.8509 H   0  0  0  0  0  0
  -29.7266  -11.7181   17.4571 H   0  0  0  0  0  0
  -29.6884  -13.4353   17.7465 H   0  0  0  0  0  0
  -27.7919  -11.3083   18.7996 H   0  0  0  0  0  0
  -27.3756  -12.6642   17.7876 H   0  0  0  0  0  0
  -27.6851  -14.2380   19.5962 H   0  0  0  0  0  0
  -28.6792  -11.9566   21.3540 H   0  0  0  0  0  0
  -28.4759  -13.6009   21.8727 H   0  0  0  0  0  0
  -25.2722   -9.5686   22.4742 H   0  0  0  0  0  0
  -23.9986   -7.4614   22.7455 H   0  0  0  0  0  0
  -21.0809   -8.8753   19.8947 H   0  0  0  0  0  0
  -22.3649  -10.9653   19.6168 H   0  0  0  0  0  0
  -21.2003   -7.6136   23.9706 H   0  0  0  0  0  0
  -21.1481   -6.0509   25.9065 H   0  0  0  0  0  0
  -22.0603   -2.7606   23.2841 H   0  0  0  0  0  0
  -22.4075  -11.9930   22.4847 H   0  0  0  0  0  0
  -21.1073  -13.1267   22.2601 H   0  0  0  0  0  0
  -24.6512  -15.8315   20.4762 H   0  0  0  0  0  0
  -26.2682  -15.6166   20.0418 H   0  0  0  0  0  0
  -26.7114  -32.5525   23.1159 H   0  0  0  0  0  0
  -25.0069  -33.9780   25.0488 H   0  0  0  0  0  0
  -22.6894  -31.3097   21.4108 H   0  0  0  0  0  0
  -23.3738  -35.9638   23.3323 H   0  0  0  0  0  0
  -24.3567  -36.8900   22.2051 H   0  0  0  0  0  0
  -23.7228  -37.6514   23.6647 H   0  0  0  0  0  0
  -26.0422  -31.5971   20.5958 H   0  0  0  0  0  0
  -26.8172  -30.8850   21.9820 H   0  0  0  0  0  0
  -28.0900  -29.0989   21.1700 H   0  0  0  0  0  0
  -26.0302  -25.9789   18.9936 H   0  0  0  0  0  0
  -23.9721  -27.2937   19.0405 H   0  0  0  0  0  0
  -23.7152  -30.5975   19.4019 H   0  0  0  0  0  0
  -22.7327  -29.2431   19.8713 H   0  0  0  0  0  0
  -25.1280  -36.1978   25.0833 H   0  0  0  0  0  0
  -20.9966  -28.3242   24.1439 H   0  0  0  0  0  0
  -20.5660  -26.2279   23.3613 H   0  0  0  0  0  0
  -21.6633  -26.7431   22.1228 H   0  0  0  0  0  0
  -19.6892  -25.6297   21.1241 H   0  0  0  0  0  0
  -19.6686  -27.3199   20.6756 H   0  0  0  0  0  0
  -17.4192  -26.6694   21.4025 H   0  0  0  0  0  0
  -18.0307  -26.0071   22.9023 H   0  0  0  0  0  0
  -19.7935  -30.7240   24.2318 H   0  0  0  0  0  0
  -17.5024  -31.6274   24.5159 H   0  0  0  0  0  0
  -15.5357  -30.3011   23.7619 H   0  0  0  0  0  0
  -15.8670  -28.0822   22.7075 H   0  0  0  0  0  0
  -24.5892  -30.7109   25.7814 H   0  0  0  0  0  0
  -24.8946  -32.2909   26.4922 H   0  0  0  0  0  0
  -25.8076  -30.8904   27.0237 H   0  0  0  0  0  0
  -26.2882  -29.6819   24.1158 H   0  0  0  0  0  0
  -27.4081  -29.7309   25.4589 H   0  0  0  0  0  0
  -27.8714  -30.4389   23.9289 H   0  0  0  0  0  0
  -27.2663  -33.3637   26.2089 H   0  0  0  0  0  0
  -28.3840  -32.6931   25.0308 H   0  0  0  0  0  0
  -28.0741  -31.8469   26.5385 H   0  0  0  0  0  0
  -28.2607  -38.0092   24.7506 H   0  0  0  0  0  0
  -28.1063  -36.2626   24.6300 H   0  0  0  0  0  0
  -27.2298  -37.1464   25.8870 H   0  0  0  0  0  0
  -20.9285  -29.8752   21.6933 H   0  0  0  0  0  0
  -26.0178  -38.2874   24.1422 H   0  0  0  0  0  0
  -31.0439  -17.5451   22.2243 H   0  0  0  0  0  0
  -29.7884  -19.4271   16.7608 H   0  0  0  0  0  0
  -28.2533  -19.8192   17.5549 H   0  0  0  0  0  0
  -28.5111  -18.2459   16.8699 H   0  0  0  0  0  0
  -32.2656  -20.6049   17.9923 H   0  0  0  0  0  0
  -32.5767  -21.2250   19.6052 H   0  0  0  0  0  0
  -32.0893  -22.3124   18.3178 H   0  0  0  0  0  0
  -29.6307  -24.5328   21.3371 H   0  0  0  0  0  0
  -30.5566  -25.3797   20.1314 H   0  0  0  0  0  0
  -27.5753  -24.8103   20.0911 H   0  0  0  0  0  0
  -28.4187  -25.3116   18.6226 H   0  0  0  0  0  0
  -29.9230  -21.1946   18.1392 H   0  0  0  0  0  0
  -28.9837  -15.2587   21.2118 H   0  0  0  0  0  0
  -30.6959  -23.5554   18.7750 H   0  0  0  0  0  0
  1 25  1  0  0  0
  1 30  2  0  0  0
  1 83  1  0  0  0
  2  3  1  0  0  0
  2 25  1  0  0  0
  2 88  1  0  0  0
  2 89  1  0  0  0
  3  4  1  0  0  0
  3 90  1  0  0  0
  3 91  1  0  0  0
  4  5  1  0  0  0
  4 92  1  0  0  0
  4 93  1  0  0  0
  5  6  1  0  0  0
  5 26  1  0  0  0
  5 94  1  0  0  0
  6 25  1  0  0  0
  6 95  1  0  0  0
  6 96  1  0  0  0
  7  8  2  0  0  0
  7 26  1  0  0  0
  7 29  1  0  0  0
  8  9  1  0  0  0
  8 22  1  0  0  0
  9 10  1  0  0  0
  9 27  2  0  0  0
 10 11  2  0  0  0
 10 15  1  0  0  0
 11 12  1  0  0  0
 11 97  1  0  0  0
 12 13  2  0  0  0
 12 98  1  0  0  0
 13 14  1  0  0  0
 13 31  1  0  0  0
 14 15  2  0  0  0
 14 99  1  0  0  0
 15100  1  0  0  0
 16 17  2  0  0  0
 16 21  1  0  0  0
 16 31  1  0  0  0
 17 18  1  0  0  0
 17101  1  0  0  0
 18 19  2  0  0  0
 18102  1  0  0  0
 19 20  1  0  0  0
 19 24  1  0  0  0
 20 21  2  0  0  0
 20103  1  0  0  0
 21 23  1  0  0  0
 22 28  1  0  0  0
 22 32  2  0  0  0
 26 27  1  0  0  0
 28104  1  0  0  0
 28105  1  0  0  0
 29106  1  0  0  0
 29107  1  0  0  0
 33 34  1  0  0  0
 33 66  1  0  0  0
 33 70  2  0  0  0
 34 36  1  0  0  0
 34 59  1  0  0  0
 34108  1  0  0  0
 35 44  2  0  0  0
 35 45  1  0  0  0
 35 68  1  0  0  0
 36 56  1  0  0  0
 36109  1  0  0  0
 37 39  1  0  0  0
 37 47  1  0  0  0
 37 66  1  0  0  0
 37110  1  0  0  0
 38 43  2  0  0  0
 38 46  1  0  0  0
 38 47  1  0  0  0
 39 64  1  0  0  0
 39 67  2  0  0  0
 40 52  1  0  0  0
 40 53  2  0  0  0
 40 58  1  0  0  0
 41111  1  0  0  0
 41112  1  0  0  0
 41113  1  0  0  0
 41 48  1  0  0  0
 42 43  1  0  0  0
 42 66  1  0  0  0
 42114  1  0  0  0
 42115  1  0  0  0
 43 44  1  0  0  0
 44116  1  0  0  0
 45 46  2  0  0  0
 45117  1  0  0  0
 46118  1  0  0  0
 47119  1  0  0  0
 47120  1  0  0  0
 48 56  1  0  0  0
 48 65  1  0  0  0
 48121  1  0  0  0
 49 50  1  0  0  0
 49 53  1  0  0  0
 49 64  1  0  0  0
 49122  1  0  0  0
 50 51  1  0  0  0
 50123  1  0  0  0
 50124  1  0  0  0
 51 52  1  0  0  0
 51125  1  0  0  0
 51126  1  0  0  0
 52127  1  0  0  0
 52128  1  0  0  0
 53 54  1  0  0  0
 54 55  2  0  0  0
 54129  1  0  0  0
 55 57  1  0  0  0
 55130  1  0  0  0
 56 69  2  0  0  0
 57 58  2  0  0  0
 57131  1  0  0  0
 58132  1  0  0  0
 59 60  1  0  0  0
 59 61  1  0  0  0
 59 62  1  0  0  0
 60133  1  0  0  0
 60134  1  0  0  0
 60135  1  0  0  0
 61136  1  0  0  0
 61137  1  0  0  0
 61138  1  0  0  0
 62139  1  0  0  0
 62140  1  0  0  0
 62141  1  0  0  0
 63 65  1  0  0  0
 63142  1  0  0  0
 63143  1  0  0  0
 63144  1  0  0  0
 64145  1  0  0  0
 65146  1  0  0  0
 68 81  1  0  0  0
 71 74  2  0  0  0
 71 75  1  0  0  0
 71147  1  0  0  0
 72 73  1  0  0  0
 72 76  2  0  0  0
 72 78  1  0  0  0
 73 75  2  0  0  0
 73 82  1  0  0  0
 74 76  1  0  0  0
 74 83  1  0  0  0
 75 86  1  0  0  0
 76 87  1  0  0  0
 77 82  1  0  0  0
 77 84  1  0  0  0
 77 85  2  0  0  0
 78148  1  0  0  0
 78149  1  0  0  0
 78150  1  0  0  0
 79151  1  0  0  0
 79152  1  0  0  0
 79153  1  0  0  0
 79 82  1  0  0  0
 80 81  1  0  0  0
 80 84  1  0  0  0
 80154  1  0  0  0
 80155  1  0  0  0
 81156  1  0  0  0
 81157  1  0  0  0
 82158  1  0  0  0
 83159  1  0  0  0
 84160  1  0  0  0
M  ISO  4   1 100  68 101  81 101  83 100
M  END
> <chiral flag>
0

> <version>
0

> <s_m_source_file>
/data/baiqing/PycharmProjects/Reinvent-master-3.2/result/LINK_invent/BTK/process_docking_weight1_custom_sum_contain_oxygen_bond_distance_aromatic_linkinvent_7_9_3/rearranged_h_0016.sdf

> <i_m_source_file_index>
29

> <r_mmod_Potential_Energy-OPLS-2005>
-99.8188171386719

> <r_mmod_Stretch_Energy-OPLS-2005>
42.6832618713379

> <r_mmod_Bend_Energy-OPLS-2005>
108.116470336914

> <r_mmod_Torsional_Energy-OPLS-2005>
246.511154174805

> <r_mmod_Improper_Torsional_Energy-OPLS-2005>
6.22267150878906

> <r_mmod_Van_der_Waal_Energy-OPLS-2005>
164.656753540039

> <r_mmod_Electrostatic_Energy-OPLS-2005>
-450.904571533203

> <r_mmod_Solvation_Energy-OPLS-2005>
-232.747695922852

> <b_mmod_Minimization_Converged-OPLS-2005>
0

> <r_mmod_RMS_Derivative-OPLS-2005>
1.83301961421967

$$$$
29
                    3D
 Structure written by MMmdl.
147155  0  0  1  0            999 V2000
  -30.3657  -15.4144   20.3485 C   0  0  0  0  0  0
  -30.4341  -12.9307   19.4947 C   0  0  0  0  0  0
  -29.5266  -12.6068   18.2770 C   0  0  0  0  0  0
  -28.0907  -12.2869   18.7297 C   0  0  0  0  0  0
  -27.5980  -13.2814   19.8078 C   0  0  2  0  0  0
  -28.6355  -13.5306   20.9234 C   0  0  0  0  0  0
  -25.2386  -13.8268   20.5821 C   0  0  0  0  0  0
  -24.1708  -13.0432   20.9246 C   0  0  0  0  0  0
  -24.6362  -11.6934   20.8729 C   0  0  0  0  0  0
  -23.9059  -10.4288   21.0383 C   0  0  0  0  0  0
  -24.3616   -9.4211   21.9166 C   0  0  0  0  0  0
  -23.6283   -8.2251   22.0762 C   0  0  0  0  0  0
  -22.4262   -8.0287   21.3546 C   0  0  0  0  0  0
  -21.9881   -9.0259   20.4642 C   0  0  0  0  0  0
  -22.7227  -10.2130   20.3040 C   0  0  0  0  0  0
  -21.6860   -6.0708   22.5258 C   0  0  0  0  0  0
  -21.4037   -6.5611   23.8196 C   0  0  0  0  0  0
  -21.3675   -5.6767   24.9166 C   0  0  0  0  0  0
  -21.6056   -4.3027   24.7209 C   0  0  0  0  0  0
  -21.8830   -3.8114   23.4340 C   0  0  0  0  0  0
  -21.9197   -4.6928   22.3389 C   0  0  0  0  0  0
  -22.7739  -13.5221   21.1913 C   0  0  0  0  0  0
  -22.1658   -4.2119   21.0970 F   0  0  0  0  0  0
  -21.5625   -3.4523   25.7724 F   0  0  0  0  0  0
  -29.8304  -14.0854   20.2607 N   0  0  0  0  0  0
  -26.2777  -12.9525   20.3232 N   0  0  0  0  0  0
  -25.9298  -11.6618   20.5687 N   0  0  0  0  0  0
  -22.0392  -12.8171   22.0444 N   0  0  0  0  0  0
  -25.4039  -15.2016   20.4460 N   0  0  0  0  0  0
  -31.6062  -15.3993   20.2694 O   0  0  0  0  0  0
  -21.6647   -6.8857   21.4217 O   0  0  0  0  0  0
  -22.3441  -14.5540   20.6796 O   0  0  0  0  0  0
  -24.6745  -31.8150   23.1628 C   0  0  0  0  0  0
  -25.9384  -32.4529   23.8090 C   0  0  1  0  0  0
  -27.2062  -26.8471   20.1681 C   0  0  0  0  0  0
  -25.5998  -33.8361   24.1982 N   0  0  0  0  0  0
  -23.4899  -30.4241   21.5194 C   0  0  2  0  0  0
  -24.9360  -28.7956   20.1093 C   0  0  0  0  0  0
  -22.7743  -29.4380   22.4793 C   0  0  0  0  0  0
  -18.0365  -28.1401   22.8478 C   0  0  0  0  0  0
  -24.1493  -36.7226   23.2649 C   0  0  0  0  0  0
  -26.0649  -30.5952   21.3950 C   0  0  0  0  0  0
  -26.1282  -29.1778   20.7350 C   0  0  0  0  0  0
  -27.2590  -28.2284   20.7319 C   0  0  0  0  0  0
  -25.9800  -26.6362   19.4939 C   0  0  0  0  0  0
  -24.8907  -27.5484   19.4670 C   0  0  0  0  0  0
  -23.7302  -29.7355   20.1482 C   0  0  0  0  0  0
  -25.4135  -36.2968   24.0306 C   0  0  1  0  0  0
  -20.5985  -28.3759   23.1212 C   0  0  2  0  0  0
  -20.6822  -26.9440   22.5425 C   0  0  0  0  0  0
  -19.5781  -26.6365   21.5250 C   0  0  0  0  0  0
  -18.1965  -26.7918   22.1655 C   0  0  0  0  0  0
  -19.1623  -28.8906   23.2812 C   0  0  0  0  0  0
  -18.9521  -30.1482   23.8859 C   0  0  0  0  0  0
  -17.6504  -30.6574   24.0540 C   0  0  0  0  0  0
  -25.9142  -34.9351   23.4984 C   0  0  0  0  0  0
  -16.5403  -29.9046   23.6333 C   0  0  0  0  0  0
  -16.7349  -28.6481   23.0344 C   0  0  0  0  0  0
  -26.4568  -31.6510   25.0659 C   0  0  0  0  0  0
  -25.3639  -31.3814   26.1264 C   0  0  0  0  0  0
  -27.0412  -30.2845   24.6427 C   0  0  0  0  0  0
  -27.6052  -32.4355   25.7460 C   0  0  0  0  0  0
  -27.5576  -37.1745   24.8471 C   0  0  0  0  0  0
  -21.4409  -29.3029   22.3562 N   0  0  0  0  0  0
  -26.4279  -37.3713   23.9429 N   0  0  0  0  0  0
  -24.7661  -30.9729   22.0800 N   0  0  0  0  0  0
  -23.4259  -28.7969   23.3070 O   0  0  0  0  0  0
  -28.2078  -25.7129   20.1842 O   0  0  0  0  0  0
  -26.5772  -34.8928   22.4597 O   0  0  0  0  0  0
  -23.5824  -32.1148   23.6730 O   0  0  0  0  0  0
  -29.2176  -19.3755   19.6105 C   0  0  0  0  0  0
  -29.0507  -20.7412   20.3281 C   0  0  0  0  0  0
  -29.5240  -18.1948   20.4255 C   0  0  0  0  0  0
  -29.6369  -18.3054   22.9973 C   0  0  0  0  0  0
  -28.9770  -22.5074   19.9376 C   0  0  0  0  0  0
  -27.9954  -24.0342   20.3282 C   0  0  0  0  0  0
  -29.2773  -20.2858   21.5911 N   0  0  0  0  0  0
  -29.5082  -18.8841   21.6615 N   0  0  0  0  0  0
  -29.5597  -16.6768   20.2029 N   0  0  0  0  0  0
  -29.0825  -19.2470   17.8899 Cl  0  0  0  0  0  0
  -31.4356  -13.1872   19.1456 H   0  0  0  0  0  0
  -30.5602  -12.0557   20.1332 H   0  0  0  0  0  0
  -29.9340  -11.7713   17.7101 H   0  0  0  0  0  0
  -29.5088  -13.4589   17.5938 H   0  0  0  0  0  0
  -28.0844  -11.2719   19.1312 H   0  0  0  0  0  0
  -27.4130  -12.2781   17.8747 H   0  0  0  0  0  0
  -27.4771  -14.2235   19.2721 H   0  0  0  0  0  0
  -28.8531  -12.6214   21.4877 H   0  0  0  0  0  0
  -28.2539  -14.2570   21.6435 H   0  0  0  0  0  0
  -25.2754   -9.5697   22.4726 H   0  0  0  0  0  0
  -23.9988   -7.4662   22.7491 H   0  0  0  0  0  0
  -21.0806   -8.8780   19.8953 H   0  0  0  0  0  0
  -22.3683  -10.9667   19.6142 H   0  0  0  0  0  0
  -21.2052   -7.6133   23.9694 H   0  0  0  0  0  0
  -21.1484   -6.0497   25.9066 H   0  0  0  0  0  0
  -22.0599   -2.7571   23.2845 H   0  0  0  0  0  0
  -22.4003  -11.9806   22.4774 H   0  0  0  0  0  0
  -21.1051  -13.1241   22.2753 H   0  0  0  0  0  0
  -24.6414  -15.8562   20.5914 H   0  0  0  0  0  0
  -26.2808  -15.6540   20.2260 H   0  0  0  0  0  0
  -26.7472  -32.4985   23.0814 H   0  0  0  0  0  0
  -25.0013  -33.9404   25.0043 H   0  0  0  0  0  0
  -22.8106  -31.2617   21.3445 H   0  0  0  0  0  0
  -23.3773  -35.9523   23.3264 H   0  0  0  0  0  0
  -24.3612  -36.8943   22.2074 H   0  0  0  0  0  0
  -23.7234  -37.6401   23.6755 H   0  0  0  0  0  0
  -26.2501  -31.3350   20.6147 H   0  0  0  0  0  0
  -26.9275  -30.6472   22.0475 H   0  0  0  0  0  0
  -28.1712  -28.5268   21.2320 H   0  0  0  0  0  0
  -25.8259  -25.6912   18.9939 H   0  0  0  0  0  0
  -23.9800  -27.2520   18.9616 H   0  0  0  0  0  0
  -23.9012  -30.5031   19.3949 H   0  0  0  0  0  0
  -22.8323  -29.2029   19.8264 H   0  0  0  0  0  0
  -25.1310  -36.1743   25.0800 H   0  0  0  0  0  0
  -21.0061  -28.3362   24.1329 H   0  0  0  0  0  0
  -20.5785  -26.2361   23.3677 H   0  0  0  0  0  0
  -21.6661  -26.7425   22.1160 H   0  0  0  0  0  0
  -19.6953  -25.6269   21.1289 H   0  0  0  0  0  0
  -19.6688  -27.3168   20.6784 H   0  0  0  0  0  0
  -17.4228  -26.6777   21.4033 H   0  0  0  0  0  0
  -18.0292  -26.0034   22.9034 H   0  0  0  0  0  0
  -19.8002  -30.7301   24.2225 H   0  0  0  0  0  0
  -17.5054  -31.6264   24.5129 H   0  0  0  0  0  0
  -15.5391  -30.2905   23.7666 H   0  0  0  0  0  0
  -15.8777  -28.0771   22.7038 H   0  0  0  0  0  0
  -24.5839  -30.7180   25.7518 H   0  0  0  0  0  0
  -24.8796  -32.3040   26.4486 H   0  0  0  0  0  0
  -25.7746  -30.9064   27.0181 H   0  0  0  0  0  0
  -26.3024  -29.6528   24.1467 H   0  0  0  0  0  0
  -27.3930  -29.7226   25.5087 H   0  0  0  0  0  0
  -27.9013  -30.3957   23.9813 H   0  0  0  0  0  0
  -27.2632  -33.3789   26.1737 H   0  0  0  0  0  0
  -28.3969  -32.6704   25.0326 H   0  0  0  0  0  0
  -28.0582  -31.8673   26.5591 H   0  0  0  0  0  0
  -28.2505  -38.0111   24.7544 H   0  0  0  0  0  0
  -28.1140  -36.2633   24.6217 H   0  0  0  0  0  0
  -27.2345  -37.1320   25.8890 H   0  0  0  0  0  0
  -20.9727  -29.8678   21.6613 H   0  0  0  0  0  0
  -26.0126  -38.2785   24.1413 H   0  0  0  0  0  0
  -28.7133  -17.7749   23.2529 H   0  0  0  0  0  0
  -29.8182  -19.0775   23.7623 H   0  0  0  0  0  0
  -30.4798  -17.6076   23.0125 H   0  0  0  0  0  0
  -28.9698  -22.5152   18.8440 H   0  0  0  0  0  0
  -29.9842  -22.8514   20.1754 H   0  0  0  0  0  0
  -27.8185  -23.9593   21.4021 H   0  0  0  0  0  0
  -27.0058  -23.8404   19.9084 H   0  0  0  0  0  0
  -28.6586  -16.3879   19.8587 H   0  0  0  0  0  0
  1 25  1  0  0  0
  1 30  2  0  0  0
  1 79  1  0  0  0
  2  3  1  0  0  0
  2 25  1  0  0  0
  2 81  1  0  0  0
  2 82  1  0  0  0
  3  4  1  0  0  0
  3 83  1  0  0  0
  3 84  1  0  0  0
  4  5  1  0  0  0
  4 85  1  0  0  0
  4 86  1  0  0  0
  5  6  1  0  0  0
  5 26  1  0  0  0
  5 87  1  0  0  0
  6 25  1  0  0  0
  6 88  1  0  0  0
  6 89  1  0  0  0
  7  8  2  0  0  0
  7 26  1  0  0  0
  7 29  1  0  0  0
  8  9  1  0  0  0
  8 22  1  0  0  0
  9 10  1  0  0  0
  9 27  2  0  0  0
 10 11  2  0  0  0
 10 15  1  0  0  0
 11 12  1  0  0  0
 11 90  1  0  0  0
 12 13  2  0  0  0
 12 91  1  0  0  0
 13 14  1  0  0  0
 13 31  1  0  0  0
 14 15  2  0  0  0
 14 92  1  0  0  0
 15 93  1  0  0  0
 16 17  2  0  0  0
 16 21  1  0  0  0
 16 31  1  0  0  0
 17 18  1  0  0  0
 17 94  1  0  0  0
 18 19  2  0  0  0
 18 95  1  0  0  0
 19 20  1  0  0  0
 19 24  1  0  0  0
 20 21  2  0  0  0
 20 96  1  0  0  0
 21 23  1  0  0  0
 22 28  1  0  0  0
 22 32  2  0  0  0
 26 27  1  0  0  0
 28 97  1  0  0  0
 28 98  1  0  0  0
 29 99  1  0  0  0
 29100  1  0  0  0
 33 34  1  0  0  0
 33 66  1  0  0  0
 33 70  2  0  0  0
 34 36  1  0  0  0
 34 59  1  0  0  0
 34101  1  0  0  0
 35 44  2  0  0  0
 35 45  1  0  0  0
 35 68  1  0  0  0
 36 56  1  0  0  0
 36102  1  0  0  0
 37 39  1  0  0  0
 37 47  1  0  0  0
 37 66  1  0  0  0
 37103  1  0  0  0
 38 43  2  0  0  0
 38 46  1  0  0  0
 38 47  1  0  0  0
 39 64  1  0  0  0
 39 67  2  0  0  0
 40 52  1  0  0  0
 40 53  2  0  0  0
 40 58  1  0  0  0
 41104  1  0  0  0
 41105  1  0  0  0
 41106  1  0  0  0
 41 48  1  0  0  0
 42 43  1  0  0  0
 42 66  1  0  0  0
 42107  1  0  0  0
 42108  1  0  0  0
 43 44  1  0  0  0
 44109  1  0  0  0
 45 46  2  0  0  0
 45110  1  0  0  0
 46111  1  0  0  0
 47112  1  0  0  0
 47113  1  0  0  0
 48 56  1  0  0  0
 48 65  1  0  0  0
 48114  1  0  0  0
 49 50  1  0  0  0
 49 53  1  0  0  0
 49 64  1  0  0  0
 49115  1  0  0  0
 50 51  1  0  0  0
 50116  1  0  0  0
 50117  1  0  0  0
 51 52  1  0  0  0
 51118  1  0  0  0
 51119  1  0  0  0
 52120  1  0  0  0
 52121  1  0  0  0
 53 54  1  0  0  0
 54 55  2  0  0  0
 54122  1  0  0  0
 55 57  1  0  0  0
 55123  1  0  0  0
 56 69  2  0  0  0
 57 58  2  0  0  0
 57124  1  0  0  0
 58125  1  0  0  0
 59 60  1  0  0  0
 59 61  1  0  0  0
 59 62  1  0  0  0
 60126  1  0  0  0
 60127  1  0  0  0
 60128  1  0  0  0
 61129  1  0  0  0
 61130  1  0  0  0
 61131  1  0  0  0
 62132  1  0  0  0
 62133  1  0  0  0
 62134  1  0  0  0
 63 65  1  0  0  0
 63135  1  0  0  0
 63136  1  0  0  0
 63137  1  0  0  0
 64138  1  0  0  0
 65139  1  0  0  0
 68 76  1  0  0  0
 71 72  1  0  0  0
 71 73  2  0  0  0
 71 80  1  0  0  0
 72 75  1  0  0  0
 72 77  2  0  0  0
 73 78  1  0  0  0
 73 79  1  0  0  0
 74 78  1  0  0  0
 74140  1  0  0  0
 74141  1  0  0  0
 74142  1  0  0  0
 75 76  1  0  0  0
 75143  1  0  0  0
 75144  1  0  0  0
 76145  1  0  0  0
 76146  1  0  0  0
 77 78  1  0  0  0
 79147  1  0  0  0
M  ISO  4   1 100  68 101  76 101  79 100
M  END
> <chiral flag>
0

> <version>
0

> <s_m_source_file>
/data/baiqing/PycharmProjects/Reinvent-master-3.2/result/LINK_invent/BTK/process_docking_weight1_custom_sum_contain_oxygen_bond_distance_aromatic_linkinvent_7_9_3/rearranged_h_0016.sdf

> <i_m_source_file_index>
30

> <r_mmod_Potential_Energy-OPLS-2005>
1541.26989746094

> <r_mmod_Stretch_Energy-OPLS-2005>
691.893127441406

> <r_mmod_Bend_Energy-OPLS-2005>
517.351013183594

> <r_mmod_Torsional_Energy-OPLS-2005>
249.922912597656

> <r_mmod_Improper_Torsional_Energy-OPLS-2005>
11.768853187561

> <r_mmod_Van_der_Waal_Energy-OPLS-2005>
100.178970336914

> <r_mmod_Electrostatic_Energy-OPLS-2005>
-415.961120605469

> <r_mmod_Solvation_Energy-OPLS-2005>
-228.627487182617

> <b_mmod_Minimization_Converged-OPLS-2005>
0

> <r_mmod_RMS_Derivative-OPLS-2005>
7.04746389389038

$$$$
30
                    3D
 Structure written by MMmdl.
162170  0  0  1  0            999 V2000
  -30.7188  -14.4307   20.5417 C   0  0  0  0  0  0
  -30.3978  -12.2625   19.4290 C   0  0  0  0  0  0
  -29.4809  -12.4815   18.2075 C   0  0  0  0  0  0
  -28.0037  -12.3520   18.6255 C   0  0  0  0  0  0
  -27.6547  -13.2070   19.8745 C   0  0  2  0  0  0
  -28.6957  -12.9889   20.9975 C   0  0  0  0  0  0
  -25.2525  -13.8156   20.5656 C   0  0  0  0  0  0
  -24.1767  -13.0427   20.9153 C   0  0  0  0  0  0
  -24.6320  -11.6908   20.8724 C   0  0  0  0  0  0
  -23.9003  -10.4296   21.0388 C   0  0  0  0  0  0
  -24.3571   -9.4224   21.9167 C   0  0  0  0  0  0
  -23.6267   -8.2247   22.0740 C   0  0  0  0  0  0
  -22.4253   -8.0255   21.3532 C   0  0  0  0  0  0
  -21.9874   -9.0220   20.4631 C   0  0  0  0  0  0
  -22.7177  -10.2114   20.3044 C   0  0  0  0  0  0
  -21.6845   -6.0709   22.5276 C   0  0  0  0  0  0
  -21.3984   -6.5616   23.8205 C   0  0  0  0  0  0
  -21.3679   -5.6771   24.9174 C   0  0  0  0  0  0
  -21.6070   -4.3044   24.7224 C   0  0  0  0  0  0
  -21.8815   -3.8123   23.4351 C   0  0  0  0  0  0
  -21.9188   -4.6939   22.3401 C   0  0  0  0  0  0
  -22.7812  -13.5253   21.1857 C   0  0  0  0  0  0
  -22.1660   -4.2127   21.0987 F   0  0  0  0  0  0
  -21.5669   -3.4534   25.7746 F   0  0  0  0  0  0
  -30.0303  -13.2630   20.4414 N   0  0  0  0  0  0
  -26.2974  -12.9332   20.3412 N   0  0  0  0  0  0
  -25.9265  -11.6490   20.5803 N   0  0  0  0  0  0
  -22.0466  -12.8220   22.0421 N   0  0  0  0  0  0
  -25.4208  -15.1843   20.4022 N   0  0  0  0  0  0
  -31.8609  -14.5518   20.0907 O   0  0  0  0  0  0
  -21.6636   -6.8838   21.4229 O   0  0  0  0  0  0
  -22.3502  -14.5581   20.6767 O   0  0  0  0  0  0
  -24.6097  -31.8705   23.2160 C   0  0  0  0  0  0
  -25.9010  -32.4841   23.8455 C   0  0  1  0  0  0
  -27.2493  -27.4804   20.0971 C   0  0  0  0  0  0
  -25.5858  -33.8643   24.2386 N   0  0  0  0  0  0
  -23.3952  -30.4951   21.5537 C   0  0  2  0  0  0
  -24.8470  -28.9649   20.1216 C   0  0  0  0  0  0
  -22.7405  -29.4683   22.5046 C   0  0  0  0  0  0
  -18.0288  -28.1374   22.8515 C   0  0  0  0  0  0
  -24.1476  -36.7310   23.2640 C   0  0  0  0  0  0
  -25.9180  -30.8541   21.3605 C   0  0  0  0  0  0
  -26.0011  -29.4886   20.7170 C   0  0  0  0  0  0
  -27.2048  -28.7562   20.7093 C   0  0  0  0  0  0
  -26.0792  -26.9624   19.5093 C   0  0  0  0  0  0
  -24.8782  -27.6971   19.5150 C   0  0  0  0  0  0
  -23.6038  -29.8238   20.1695 C   0  0  0  0  0  0
  -25.4080  -36.3122   24.0373 C   0  0  1  0  0  0
  -20.5868  -28.3647   23.1354 C   0  0  2  0  0  0
  -20.6769  -26.9390   22.5430 C   0  0  0  0  0  0
  -19.5736  -26.6394   21.5238 C   0  0  0  0  0  0
  -18.1916  -26.7936   22.1642 C   0  0  0  0  0  0
  -19.1529  -28.8838   23.2931 C   0  0  0  0  0  0
  -18.9438  -30.1453   23.8936 C   0  0  0  0  0  0
  -17.6428  -30.6562   24.0594 C   0  0  0  0  0  0
  -25.9003  -34.9489   23.5177 C   0  0  0  0  0  0
  -16.5329  -29.9065   23.6314 C   0  0  0  0  0  0
  -16.7277  -28.6498   23.0329 C   0  0  0  0  0  0
  -26.4467  -31.6598   25.0751 C   0  0  0  0  0  0
  -25.3763  -31.3664   26.1530 C   0  0  0  0  0  0
  -27.0317  -30.3062   24.6078 C   0  0  0  0  0  0
  -27.6066  -32.4320   25.7474 C   0  0  0  0  0  0
  -27.5576  -37.1813   24.8469 C   0  0  0  0  0  0
  -21.4141  -29.3033   22.3801 N   0  0  0  0  0  0
  -26.4276  -37.3794   23.9439 N   0  0  0  0  0  0
  -24.6584  -31.0859   22.1034 N   0  0  0  0  0  0
  -23.4233  -28.8233   23.3045 O   0  0  0  0  0  0
  -28.3744  -26.6956   20.0191 O   0  0  0  0  0  0
  -26.5565  -34.8938   22.4739 O   0  0  0  0  0  0
  -23.5306  -32.1470   23.7571 O   0  0  0  0  0  0
  -29.1779  -17.7217   21.1911 C   0  0  0  0  0  0
  -30.2298  -16.8540   20.8197 C   0  0  0  0  0  0
  -29.3375  -19.0876   20.8795 C   0  0  0  0  0  0
  -31.3959  -18.6710   19.9993 C   0  0  0  0  0  0
  -32.6348  -19.2046   19.3119 C   0  0  0  0  0  0
  -29.1702  -23.7695   20.6323 C   0  0  0  0  0  0
  -30.2701  -24.6439   21.2744 C   0  0  0  0  0  0
  -29.2062  -22.3512   21.2295 C   0  0  0  0  0  0
  -30.5892  -25.9882   20.5873 C   0  0  0  0  0  0
  -28.3013  -21.3291   20.5214 C   0  0  0  0  0  0
  -29.5258  -27.0825   20.7523 C   0  0  0  0  0  0
  -31.3421  -17.3679   20.2413 N   0  0  0  0  0  0
  -30.4468  -19.5482   20.2807 N   0  0  0  0  0  0
  -30.0188  -15.4633   21.0425 N   0  0  0  0  0  0
  -28.3352  -20.0216   21.1792 N   0  0  0  0  0  0
  -27.7494  -17.1255   21.9697 Cl  0  0  0  0  0  0
  -31.4493  -12.3092   19.1401 H   0  0  0  0  0  0
  -30.2486  -11.2606   19.8351 H   0  0  0  0  0  0
  -29.7112  -11.7514   17.4306 H   0  0  0  0  0  0
  -29.6572  -13.4643   17.7693 H   0  0  0  0  0  0
  -27.8240  -11.2984   18.8424 H   0  0  0  0  0  0
  -27.3439  -12.6053   17.7951 H   0  0  0  0  0  0
  -27.6957  -14.2532   19.5692 H   0  0  0  0  0  0
  -28.6586  -11.9576   21.3506 H   0  0  0  0  0  0
  -28.4718  -13.6018   21.8717 H   0  0  0  0  0  0
  -25.2703   -9.5737   22.4735 H   0  0  0  0  0  0
  -23.9999   -7.4657   22.7463 H   0  0  0  0  0  0
  -21.0811   -8.8706   19.8924 H   0  0  0  0  0  0
  -22.3608  -10.9640   19.6157 H   0  0  0  0  0  0
  -21.1917   -7.6108   23.9699 H   0  0  0  0  0  0
  -21.1533   -6.0502   25.9085 H   0  0  0  0  0  0
  -22.0571   -2.7578   23.2854 H   0  0  0  0  0  0
  -22.4103  -11.9874   22.4770 H   0  0  0  0  0  0
  -21.1101  -13.1244   22.2695 H   0  0  0  0  0  0
  -24.6525  -15.8347   20.5201 H   0  0  0  0  0  0
  -26.2972  -15.6428   20.1882 H   0  0  0  0  0  0
  -26.7091  -32.5576   23.1241 H   0  0  0  0  0  0
  -25.0016  -33.9843   25.0535 H   0  0  0  0  0  0
  -22.6770  -31.3060   21.4151 H   0  0  0  0  0  0
  -23.3744  -35.9628   23.3282 H   0  0  0  0  0  0
  -24.3584  -36.8946   22.2054 H   0  0  0  0  0  0
  -23.7210  -37.6498   23.6670 H   0  0  0  0  0  0
  -26.0237  -31.6164   20.5873 H   0  0  0  0  0  0
  -26.8096  -30.9180   21.9712 H   0  0  0  0  0  0
  -28.0826  -29.1888   21.1678 H   0  0  0  0  0  0
  -26.1026  -25.9874   19.0425 H   0  0  0  0  0  0
  -23.9928  -27.2865   19.0505 H   0  0  0  0  0  0
  -23.7000  -30.5974   19.4064 H   0  0  0  0  0  0
  -22.7327  -29.2321   19.8797 H   0  0  0  0  0  0
  -25.1248  -36.1989   25.0866 H   0  0  0  0  0  0
  -20.9965  -28.3205   24.1470 H   0  0  0  0  0  0
  -20.5677  -26.2251   23.3610 H   0  0  0  0  0  0
  -21.6626  -26.7434   22.1188 H   0  0  0  0  0  0
  -19.6852  -25.6322   21.1213 H   0  0  0  0  0  0
  -19.6662  -27.3256   20.6815 H   0  0  0  0  0  0
  -17.4188  -26.6748   21.4035 H   0  0  0  0  0  0
  -18.0262  -26.0081   22.9029 H   0  0  0  0  0  0
  -19.7894  -30.7307   24.2295 H   0  0  0  0  0  0
  -17.4940  -31.6246   24.5180 H   0  0  0  0  0  0
  -15.5315  -30.2959   23.7591 H   0  0  0  0  0  0
  -15.8694  -28.0836   22.6962 H   0  0  0  0  0  0
  -24.5894  -30.7072   25.7852 H   0  0  0  0  0  0
  -24.9013  -32.2807   26.5093 H   0  0  0  0  0  0
  -25.8141  -30.8724   27.0214 H   0  0  0  0  0  0
  -26.2858  -29.6789   24.1187 H   0  0  0  0  0  0
  -27.4181  -29.7319   25.4505 H   0  0  0  0  0  0
  -27.8634  -30.4420   23.9164 H   0  0  0  0  0  0
  -27.2719  -33.3634   26.2047 H   0  0  0  0  0  0
  -28.3832  -32.6877   25.0253 H   0  0  0  0  0  0
  -28.0774  -31.8444   26.5366 H   0  0  0  0  0  0
  -28.2587  -38.0123   24.7525 H   0  0  0  0  0  0
  -28.1088  -36.2664   24.6253 H   0  0  0  0  0  0
  -27.2319  -37.1368   25.8879 H   0  0  0  0  0  0
  -20.9300  -29.8751   21.7025 H   0  0  0  0  0  0
  -26.0170  -38.2871   24.1447 H   0  0  0  0  0  0
  -33.2748  -18.3975   18.9553 H   0  0  0  0  0  0
  -33.2155  -19.8143   20.0035 H   0  0  0  0  0  0
  -32.3640  -19.8181   18.4516 H   0  0  0  0  0  0
  -29.3098  -23.7178   19.5510 H   0  0  0  0  0  0
  -28.1844  -24.2127   20.7931 H   0  0  0  0  0  0
  -31.1947  -24.0642   21.2786 H   0  0  0  0  0  0
  -30.0256  -24.8202   22.3216 H   0  0  0  0  0  0
  -28.9430  -22.4000   22.2863 H   0  0  0  0  0  0
  -30.2348  -21.9907   21.1908 H   0  0  0  0  0  0
  -30.8015  -25.8339   19.5301 H   0  0  0  0  0  0
  -31.5170  -26.3694   21.0195 H   0  0  0  0  0  0
  -28.5921  -21.2234   19.4740 H   0  0  0  0  0  0
  -27.2723  -21.6881   20.5118 H   0  0  0  0  0  0
  -29.9121  -28.0250   20.3586 H   0  0  0  0  0  0
  -29.2947  -27.2334   21.8082 H   0  0  0  0  0  0
  -29.1124  -15.2361   21.4197 H   0  0  0  0  0  0
  -27.4696  -19.6326   21.5364 H   0  0  0  0  0  0
  1 25  1  0  0  0
  1 30  2  0  0  0
  1 84  1  0  0  0
  2  3  1  0  0  0
  2 25  1  0  0  0
  2 87  1  0  0  0
  2 88  1  0  0  0
  3  4  1  0  0  0
  3 89  1  0  0  0
  3 90  1  0  0  0
  4  5  1  0  0  0
  4 91  1  0  0  0
  4 92  1  0  0  0
  5  6  1  0  0  0
  5 26  1  0  0  0
  5 93  1  0  0  0
  6 25  1  0  0  0
  6 94  1  0  0  0
  6 95  1  0  0  0
  7  8  2  0  0  0
  7 26  1  0  0  0
  7 29  1  0  0  0
  8  9  1  0  0  0
  8 22  1  0  0  0
  9 10  1  0  0  0
  9 27  2  0  0  0
 10 11  2  0  0  0
 10 15  1  0  0  0
 11 12  1  0  0  0
 11 96  1  0  0  0
 12 13  2  0  0  0
 12 97  1  0  0  0
 13 14  1  0  0  0
 13 31  1  0  0  0
 14 15  2  0  0  0
 14 98  1  0  0  0
 15 99  1  0  0  0
 16 17  2  0  0  0
 16 21  1  0  0  0
 16 31  1  0  0  0
 17 18  1  0  0  0
 17100  1  0  0  0
 18 19  2  0  0  0
 18101  1  0  0  0
 19 20  1  0  0  0
 19 24  1  0  0  0
 20 21  2  0  0  0
 20102  1  0  0  0
 21 23  1  0  0  0
 22 28  1  0  0  0
 22 32  2  0  0  0
 26 27  1  0  0  0
 28103  1  0  0  0
 28104  1  0  0  0
 29105  1  0  0  0
 29106  1  0  0  0
 33 34  1  0  0  0
 33 66  1  0  0  0
 33 70  2  0  0  0
 34 36  1  0  0  0
 34 59  1  0  0  0
 34107  1  0  0  0
 35 44  2  0  0  0
 35 45  1  0  0  0
 35 68  1  0  0  0
 36 56  1  0  0  0
 36108  1  0  0  0
 37 39  1  0  0  0
 37 47  1  0  0  0
 37 66  1  0  0  0
 37109  1  0  0  0
 38 43  2  0  0  0
 38 46  1  0  0  0
 38 47  1  0  0  0
 39 64  1  0  0  0
 39 67  2  0  0  0
 40 52  1  0  0  0
 40 53  2  0  0  0
 40 58  1  0  0  0
 41110  1  0  0  0
 41111  1  0  0  0
 41112  1  0  0  0
 41 48  1  0  0  0
 42 43  1  0  0  0
 42 66  1  0  0  0
 42113  1  0  0  0
 42114  1  0  0  0
 43 44  1  0  0  0
 44115  1  0  0  0
 45 46  2  0  0  0
 45116  1  0  0  0
 46117  1  0  0  0
 47118  1  0  0  0
 47119  1  0  0  0
 48 56  1  0  0  0
 48 65  1  0  0  0
 48120  1  0  0  0
 49 50  1  0  0  0
 49 53  1  0  0  0
 49 64  1  0  0  0
 49121  1  0  0  0
 50 51  1  0  0  0
 50122  1  0  0  0
 50123  1  0  0  0
 51 52  1  0  0  0
 51124  1  0  0  0
 51125  1  0  0  0
 52126  1  0  0  0
 52127  1  0  0  0
 53 54  1  0  0  0
 54 55  2  0  0  0
 54128  1  0  0  0
 55 57  1  0  0  0
 55129  1  0  0  0
 56 69  2  0  0  0
 57 58  2  0  0  0
 57130  1  0  0  0
 58131  1  0  0  0
 59 60  1  0  0  0
 59 61  1  0  0  0
 59 62  1  0  0  0
 60132  1  0  0  0
 60133  1  0  0  0
 60134  1  0  0  0
 61135  1  0  0  0
 61136  1  0  0  0
 61137  1  0  0  0
 62138  1  0  0  0
 62139  1  0  0  0
 62140  1  0  0  0
 63 65  1  0  0  0
 63141  1  0  0  0
 63142  1  0  0  0
 63143  1  0  0  0
 64144  1  0  0  0
 65145  1  0  0  0
 68 81  1  0  0  0
 71 72  2  0  0  0
 71 73  1  0  0  0
 71 86  1  0  0  0
 72 82  1  0  0  0
 72 84  1  0  0  0
 73 83  2  0  0  0
 73 85  1  0  0  0
 74 75  1  0  0  0
 74 82  2  0  0  0
 74 83  1  0  0  0
 75146  1  0  0  0
 75147  1  0  0  0
 75148  1  0  0  0
 76 77  1  0  0  0
 76 78  1  0  0  0
 76149  1  0  0  0
 76150  1  0  0  0
 77 79  1  0  0  0
 77151  1  0  0  0
 77152  1  0  0  0
 78 80  1  0  0  0
 78153  1  0  0  0
 78154  1  0  0  0
 79 81  1  0  0  0
 79155  1  0  0  0
 79156  1  0  0  0
 80 85  1  0  0  0
 80157  1  0  0  0
 80158  1  0  0  0
 81159  1  0  0  0
 81160  1  0  0  0
 84161  1  0  0  0
 85162  1  0  0  0
M  ISO  4   1 100  68 101  81 101  84 100
M  END
> <chiral flag>
0

> <version>
0

> <s_m_source_file>
/data/baiqing/PycharmProjects/Reinvent-master-3.2/result/LINK_invent/BTK/process_docking_weight1_custom_sum_contain_oxygen_bond_distance_aromatic_linkinvent_7_9_3/rearranged_h_0016.sdf

> <i_m_source_file_index>
31

> <r_mmod_Potential_Energy-OPLS-2005>
-440.856170654297

> <r_mmod_Stretch_Energy-OPLS-2005>
31.7229404449463

> <r_mmod_Bend_Energy-OPLS-2005>
112.842002868652

> <r_mmod_Torsional_Energy-OPLS-2005>
190.617660522461

> <r_mmod_Improper_Torsional_Energy-OPLS-2005>
5.23890829086304

> <r_mmod_Van_der_Waal_Energy-OPLS-2005>
168.521438598633

> <r_mmod_Electrostatic_Energy-OPLS-2005>
-733.5078125

> <r_mmod_Solvation_Energy-OPLS-2005>
-227.52946472168

> <b_mmod_Minimization_Converged-OPLS-2005>
0

> <r_mmod_RMS_Derivative-OPLS-2005>
3.35127472877502

$$$$
31
                    3D
 Structure written by MMmdl.
158166  0  0  1  0            999 V2000
  -30.6471  -14.5096   20.5784 C   0  0  0  0  0  0
  -30.4419  -12.3314   19.4203 C   0  0  0  0  0  0
  -29.5037  -12.5022   18.2068 C   0  0  0  0  0  0
  -28.0243  -12.3483   18.6208 C   0  0  0  0  0  0
  -27.6605  -13.1941   19.8707 C   0  0  2  0  0  0
  -28.7018  -12.9709   20.9900 C   0  0  0  0  0  0
  -25.2591  -13.8128   20.5653 C   0  0  0  0  0  0
  -24.1843  -13.0417   20.9174 C   0  0  0  0  0  0
  -24.6377  -11.6883   20.8733 C   0  0  0  0  0  0
  -23.9043  -10.4275   21.0406 C   0  0  0  0  0  0
  -24.3603   -9.4192   21.9183 C   0  0  0  0  0  0
  -23.6283   -8.2230   22.0756 C   0  0  0  0  0  0
  -22.4266   -8.0268   21.3545 C   0  0  0  0  0  0
  -21.9900   -9.0235   20.4645 C   0  0  0  0  0  0
  -22.7223  -10.2115   20.3052 C   0  0  0  0  0  0
  -21.6848   -6.0728   22.5282 C   0  0  0  0  0  0
  -21.4009   -6.5627   23.8212 C   0  0  0  0  0  0
  -21.3663   -5.6781   24.9177 C   0  0  0  0  0  0
  -21.6048   -4.3049   24.7228 C   0  0  0  0  0  0
  -21.8820   -3.8138   23.4345 C   0  0  0  0  0  0
  -21.9192   -4.6952   22.3402 C   0  0  0  0  0  0
  -22.7866  -13.5223   21.1844 C   0  0  0  0  0  0
  -22.1658   -4.2139   21.0978 F   0  0  0  0  0  0
  -21.5640   -3.4533   25.7742 F   0  0  0  0  0  0
  -30.0251  -13.3076   20.4360 N   0  0  0  0  0  0
  -26.3012  -12.9268   20.3325 N   0  0  0  0  0  0
  -25.9295  -11.6442   20.5742 N   0  0  0  0  0  0
  -22.0496  -12.8236   22.0402 N   0  0  0  0  0  0
  -25.4305  -15.1846   20.4057 N   0  0  0  0  0  0
  -31.7875  -14.7326   20.1615 O   0  0  0  0  0  0
  -21.6632   -6.8867   21.4243 O   0  0  0  0  0  0
  -22.3565  -14.5536   20.6699 O   0  0  0  0  0  0
  -24.6167  -31.8651   23.2099 C   0  0  0  0  0  0
  -25.9051  -32.4801   23.8395 C   0  0  1  0  0  0
  -27.2346  -27.4022   20.0943 C   0  0  0  0  0  0
  -25.5899  -33.8604   24.2324 N   0  0  0  0  0  0
  -23.4046  -30.4883   21.5511 C   0  0  2  0  0  0
  -24.8492  -28.9497   20.1157 C   0  0  0  0  0  0
  -22.7409  -29.4638   22.4989 C   0  0  0  0  0  0
  -18.0269  -28.1374   22.8503 C   0  0  0  0  0  0
  -24.1480  -36.7299   23.2644 C   0  0  0  0  0  0
  -25.9370  -30.8177   21.3706 C   0  0  0  0  0  0
  -26.0106  -29.4515   20.7134 C   0  0  0  0  0  0
  -27.2008  -28.6846   20.6996 C   0  0  0  0  0  0
  -26.0442  -26.9162   19.5027 C   0  0  0  0  0  0
  -24.8630  -27.6828   19.5080 C   0  0  0  0  0  0
  -23.6144  -29.8227   20.1650 C   0  0  0  0  0  0
  -25.4107  -36.3102   24.0342 C   0  0  1  0  0  0
  -20.5861  -28.3663   23.1318 C   0  0  2  0  0  0
  -20.6752  -26.9396   22.5419 C   0  0  0  0  0  0
  -19.5730  -26.6385   21.5216 C   0  0  0  0  0  0
  -18.1909  -26.7921   22.1631 C   0  0  0  0  0  0
  -19.1518  -28.8840   23.2904 C   0  0  0  0  0  0
  -18.9449  -30.1445   23.8908 C   0  0  0  0  0  0
  -17.6449  -30.6585   24.0573 C   0  0  0  0  0  0
  -25.9034  -34.9465   23.5132 C   0  0  0  0  0  0
  -16.5343  -29.9084   23.6329 C   0  0  0  0  0  0
  -16.7258  -28.6504   23.0353 C   0  0  0  0  0  0
  -26.4483  -31.6587   25.0732 C   0  0  0  0  0  0
  -25.3753  -31.3667   26.1486 C   0  0  0  0  0  0
  -27.0329  -30.3033   24.6120 C   0  0  0  0  0  0
  -27.6063  -32.4313   25.7476 C   0  0  0  0  0  0
  -27.5583  -37.1799   24.8473 C   0  0  0  0  0  0
  -21.4143  -29.3024   22.3728 N   0  0  0  0  0  0
  -26.4291  -37.3794   23.9421 N   0  0  0  0  0  0
  -24.6703  -31.0723   22.1017 N   0  0  0  0  0  0
  -23.4175  -28.8184   23.3042 O   0  0  0  0  0  0
  -28.4285  -26.6944   20.1117 O   0  0  0  0  0  0
  -26.5600  -34.8923   22.4698 O   0  0  0  0  0  0
  -23.5355  -32.1422   23.7482 O   0  0  0  0  0  0
  -30.9773  -18.2989   23.2545 C   0  0  0  0  0  0
  -30.7633  -16.9860   22.7855 C   0  0  0  0  0  0
  -30.1729  -16.8011   21.5059 C   0  0  0  0  0  0
  -29.9333  -19.2755   21.2583 C   0  0  0  0  0  0
  -30.5720  -19.4252   22.5175 C   0  0  0  0  0  0
  -29.7527  -17.9469   20.7686 C   0  0  0  0  0  0
  -28.8173  -22.7929   19.9769 C   0  0  0  0  0  0
  -28.5366  -24.2143   20.5642 C   0  0  0  0  0  0
  -29.2892  -21.7380   21.0213 C   0  0  0  0  0  0
  -28.5608  -25.3769   19.5280 C   0  0  0  0  0  0
  -31.1235  -15.8098   23.6958 C   0  0  0  0  0  0
  -29.8366  -15.4924   21.0263 N   0  0  0  0  0  0
  -29.4681  -20.3755   20.4802 N   0  0  0  0  0  0
  -30.8028  -20.6471   23.0575 F   0  0  0  0  0  0
  -29.1322  -17.7691   19.5728 F   0  0  0  0  0  0
  -31.4638  -16.2140   24.9206 F   0  0  0  0  0  0
  -30.0860  -14.9813   23.8246 F   0  0  0  0  0  0
  -32.1532  -15.1318   23.1952 F   0  0  0  0  0  0
  -31.4821  -12.4674   19.1198 H   0  0  0  0  0  0
  -30.3752  -11.3187   19.8212 H   0  0  0  0  0  0
  -29.7531  -11.7728   17.4350 H   0  0  0  0  0  0
  -29.6598  -13.4861   17.7608 H   0  0  0  0  0  0
  -27.8510  -11.2923   18.8310 H   0  0  0  0  0  0
  -27.3707  -12.6031   17.7863 H   0  0  0  0  0  0
  -27.7033  -14.2397   19.5663 H   0  0  0  0  0  0
  -28.6920  -11.9291   21.3141 H   0  0  0  0  0  0
  -28.4563  -13.5509   21.8818 H   0  0  0  0  0  0
  -25.2749   -9.5673   22.4753 H   0  0  0  0  0  0
  -23.9993   -7.4623   22.7477 H   0  0  0  0  0  0
  -21.0837   -8.8744   19.8945 H   0  0  0  0  0  0
  -22.3681  -10.9652   19.6156 H   0  0  0  0  0  0
  -21.1987   -7.6133   23.9717 H   0  0  0  0  0  0
  -21.1497   -6.0511   25.9083 H   0  0  0  0  0  0
  -22.0600   -2.7602   23.2852 H   0  0  0  0  0  0
  -22.4099  -11.9886   22.4787 H   0  0  0  0  0  0
  -21.1115  -13.1284   22.2605 H   0  0  0  0  0  0
  -24.6553  -15.8308   20.5028 H   0  0  0  0  0  0
  -26.2664  -15.6277   20.0475 H   0  0  0  0  0  0
  -26.7109  -32.5492   23.1140 H   0  0  0  0  0  0
  -25.0064  -33.9764   25.0480 H   0  0  0  0  0  0
  -22.6959  -31.3075   21.4131 H   0  0  0  0  0  0
  -23.3752  -35.9619   23.3309 H   0  0  0  0  0  0
  -24.3573  -36.8919   22.2057 H   0  0  0  0  0  0
  -23.7217  -37.6496   23.6663 H   0  0  0  0  0  0
  -26.0608  -31.5852   20.6057 H   0  0  0  0  0  0
  -26.8199  -30.8628   21.9964 H   0  0  0  0  0  0
  -28.0974  -29.0727   21.1615 H   0  0  0  0  0  0
  -25.9913  -25.9449   19.0370 H   0  0  0  0  0  0
  -23.9684  -27.2894   19.0449 H   0  0  0  0  0  0
  -23.7305  -30.6004   19.4092 H   0  0  0  0  0  0
  -22.7353  -29.2502   19.8633 H   0  0  0  0  0  0
  -25.1280  -36.1969   25.0834 H   0  0  0  0  0  0
  -20.9949  -28.3218   24.1438 H   0  0  0  0  0  0
  -20.5648  -26.2264   23.3604 H   0  0  0  0  0  0
  -21.6619  -26.7422   22.1215 H   0  0  0  0  0  0
  -19.6884  -25.6302   21.1226 H   0  0  0  0  0  0
  -19.6665  -27.3212   20.6760 H   0  0  0  0  0  0
  -17.4174  -26.6685   21.4033 H   0  0  0  0  0  0
  -18.0307  -26.0053   22.9017 H   0  0  0  0  0  0
  -19.7924  -30.7268   24.2272 H   0  0  0  0  0  0
  -17.5003  -31.6257   24.5180 H   0  0  0  0  0  0
  -15.5344  -30.2994   23.7641 H   0  0  0  0  0  0
  -15.8659  -28.0828   22.7057 H   0  0  0  0  0  0
  -24.5932  -30.7014   25.7811 H   0  0  0  0  0  0
  -24.8940  -32.2805   26.4975 H   0  0  0  0  0  0
  -25.8123  -30.8803   27.0217 H   0  0  0  0  0  0
  -26.2871  -29.6765   24.1220 H   0  0  0  0  0  0
  -27.4150  -29.7304   25.4578 H   0  0  0  0  0  0
  -27.8688  -30.4362   23.9249 H   0  0  0  0  0  0
  -27.2698  -33.3611   26.2075 H   0  0  0  0  0  0
  -28.3849  -32.6874   25.0276 H   0  0  0  0  0  0
  -28.0761  -31.8425   26.5364 H   0  0  0  0  0  0
  -28.2594  -38.0103   24.7541 H   0  0  0  0  0  0
  -28.1087  -36.2635   24.6280 H   0  0  0  0  0  0
  -27.2301  -37.1430   25.8876 H   0  0  0  0  0  0
  -20.9308  -29.8772   21.6974 H   0  0  0  0  0  0
  -26.0180  -38.2865   24.1457 H   0  0  0  0  0  0
  -31.4385  -18.4596   24.2167 H   0  0  0  0  0  0
  -29.5853  -22.8750   19.2073 H   0  0  0  0  0  0
  -27.9187  -22.4410   19.4680 H   0  0  0  0  0  0
  -29.2841  -24.4322   21.3263 H   0  0  0  0  0  0
  -27.5753  -24.2086   21.0783 H   0  0  0  0  0  0
  -28.5881  -21.7043   21.8575 H   0  0  0  0  0  0
  -30.2410  -22.0917   21.4181 H   0  0  0  0  0  0
  -27.8813  -25.1897   18.6999 H   0  0  0  0  0  0
  -29.5473  -25.3738   19.0625 H   0  0  0  0  0  0
  -28.8732  -15.2217   21.1464 H   0  0  0  0  0  0
  -28.9613  -20.1286   19.6351 H   0  0  0  0  0  0
  1 25  1  0  0  0
  1 30  2  0  0  0
  1 82  1  0  0  0
  2  3  1  0  0  0
  2 25  1  0  0  0
  2 89  1  0  0  0
  2 90  1  0  0  0
  3  4  1  0  0  0
  3 91  1  0  0  0
  3 92  1  0  0  0
  4  5  1  0  0  0
  4 93  1  0  0  0
  4 94  1  0  0  0
  5  6  1  0  0  0
  5 26  1  0  0  0
  5 95  1  0  0  0
  6 25  1  0  0  0
  6 96  1  0  0  0
  6 97  1  0  0  0
  7  8  2  0  0  0
  7 26  1  0  0  0
  7 29  1  0  0  0
  8  9  1  0  0  0
  8 22  1  0  0  0
  9 10  1  0  0  0
  9 27  2  0  0  0
 10 11  2  0  0  0
 10 15  1  0  0  0
 11 12  1  0  0  0
 11 98  1  0  0  0
 12 13  2  0  0  0
 12 99  1  0  0  0
 13 14  1  0  0  0
 13 31  1  0  0  0
 14 15  2  0  0  0
 14100  1  0  0  0
 15101  1  0  0  0
 16 17  2  0  0  0
 16 21  1  0  0  0
 16 31  1  0  0  0
 17 18  1  0  0  0
 17102  1  0  0  0
 18 19  2  0  0  0
 18103  1  0  0  0
 19 20  1  0  0  0
 19 24  1  0  0  0
 20 21  2  0  0  0
 20104  1  0  0  0
 21 23  1  0  0  0
 22 28  1  0  0  0
 22 32  2  0  0  0
 26 27  1  0  0  0
 28105  1  0  0  0
 28106  1  0  0  0
 29107  1  0  0  0
 29108  1  0  0  0
 33 34  1  0  0  0
 33 66  1  0  0  0
 33 70  2  0  0  0
 34 36  1  0  0  0
 34 59  1  0  0  0
 34109  1  0  0  0
 35 44  2  0  0  0
 35 45  1  0  0  0
 35 68  1  0  0  0
 36 56  1  0  0  0
 36110  1  0  0  0
 37 39  1  0  0  0
 37 47  1  0  0  0
 37 66  1  0  0  0
 37111  1  0  0  0
 38 43  2  0  0  0
 38 46  1  0  0  0
 38 47  1  0  0  0
 39 64  1  0  0  0
 39 67  2  0  0  0
 40 52  1  0  0  0
 40 53  2  0  0  0
 40 58  1  0  0  0
 41112  1  0  0  0
 41113  1  0  0  0
 41114  1  0  0  0
 41 48  1  0  0  0
 42 43  1  0  0  0
 42 66  1  0  0  0
 42115  1  0  0  0
 42116  1  0  0  0
 43 44  1  0  0  0
 44117  1  0  0  0
 45 46  2  0  0  0
 45118  1  0  0  0
 46119  1  0  0  0
 47120  1  0  0  0
 47121  1  0  0  0
 48 56  1  0  0  0
 48 65  1  0  0  0
 48122  1  0  0  0
 49 50  1  0  0  0
 49 53  1  0  0  0
 49 64  1  0  0  0
 49123  1  0  0  0
 50 51  1  0  0  0
 50124  1  0  0  0
 50125  1  0  0  0
 51 52  1  0  0  0
 51126  1  0  0  0
 51127  1  0  0  0
 52128  1  0  0  0
 52129  1  0  0  0
 53 54  1  0  0  0
 54 55  2  0  0  0
 54130  1  0  0  0
 55 57  1  0  0  0
 55131  1  0  0  0
 56 69  2  0  0  0
 57 58  2  0  0  0
 57132  1  0  0  0
 58133  1  0  0  0
 59 60  1  0  0  0
 59 61  1  0  0  0
 59 62  1  0  0  0
 60134  1  0  0  0
 60135  1  0  0  0
 60136  1  0  0  0
 61137  1  0  0  0
 61138  1  0  0  0
 61139  1  0  0  0
 62140  1  0  0  0
 62141  1  0  0  0
 62142  1  0  0  0
 63 65  1  0  0  0
 63143  1  0  0  0
 63144  1  0  0  0
 63145  1  0  0  0
 64146  1  0  0  0
 65147  1  0  0  0
 68 80  1  0  0  0
 71 72  2  0  0  0
 71 75  1  0  0  0
 71148  1  0  0  0
 72 73  1  0  0  0
 72 81  1  0  0  0
 73 76  2  0  0  0
 73 82  1  0  0  0
 74 75  2  0  0  0
 74 76  1  0  0  0
 74 83  1  0  0  0
 75 84  1  0  0  0
 76 85  1  0  0  0
 77 78  1  0  0  0
 77 79  1  0  0  0
 77149  1  0  0  0
 77150  1  0  0  0
 78 80  1  0  0  0
 78151  1  0  0  0
 78152  1  0  0  0
 79 83  1  0  0  0
 79153  1  0  0  0
 79154  1  0  0  0
 80155  1  0  0  0
 80156  1  0  0  0
 81 86  1  0  0  0
 81 87  1  0  0  0
 81 88  1  0  0  0
 82157  1  0  0  0
 83158  1  0  0  0
M  ISO  4   1 100  68 101  80 101  82 100
M  END
> <chiral flag>
0

> <version>
0

> <s_m_source_file>
/data/baiqing/PycharmProjects/Reinvent-master-3.2/result/LINK_invent/BTK/process_docking_weight1_custom_sum_contain_oxygen_bond_distance_aromatic_linkinvent_7_9_3/rearranged_h_0016.sdf

> <i_m_source_file_index>
32

> <r_mmod_Potential_Energy-OPLS-2005>
-20.9560146331787

> <r_mmod_Stretch_Energy-OPLS-2005>
46.6431198120117

> <r_mmod_Bend_Energy-OPLS-2005>
123.504241943359

> <r_mmod_Torsional_Energy-OPLS-2005>
220.787612915039

> <r_mmod_Improper_Torsional_Energy-OPLS-2005>
6.51174449920654

> <r_mmod_Van_der_Waal_Energy-OPLS-2005>
155.513412475586

> <r_mmod_Electrostatic_Energy-OPLS-2005>
-388.615905761719

> <r_mmod_Solvation_Energy-OPLS-2005>
-203.598892211914

> <b_mmod_Minimization_Converged-OPLS-2005>
0

> <r_mmod_RMS_Derivative-OPLS-2005>
1.67582261562347

$$$$
32
                    3D
 Structure written by MMmdl.
158166  0  0  1  0            999 V2000
  -30.7136  -14.4397   20.5994 C   0  0  0  0  0  0
  -30.4206  -12.2950   19.4180 C   0  0  0  0  0  0
  -29.4916  -12.5076   18.2057 C   0  0  0  0  0  0
  -28.0125  -12.3703   18.6168 C   0  0  0  0  0  0
  -27.6626  -13.2054   19.8776 C   0  0  2  0  0  0
  -28.7016  -12.9653   20.9961 C   0  0  0  0  0  0
  -25.2550  -13.8147   20.5615 C   0  0  0  0  0  0
  -24.1812  -13.0426   20.9143 C   0  0  0  0  0  0
  -24.6385  -11.6903   20.8738 C   0  0  0  0  0  0
  -23.9058  -10.4288   21.0404 C   0  0  0  0  0  0
  -24.3610   -9.4206   21.9189 C   0  0  0  0  0  0
  -23.6285   -8.2244   22.0754 C   0  0  0  0  0  0
  -22.4273   -8.0283   21.3542 C   0  0  0  0  0  0
  -21.9909   -9.0255   20.4647 C   0  0  0  0  0  0
  -22.7230  -10.2131   20.3051 C   0  0  0  0  0  0
  -21.6849   -6.0739   22.5282 C   0  0  0  0  0  0
  -21.4013   -6.5641   23.8217 C   0  0  0  0  0  0
  -21.3656   -5.6792   24.9181 C   0  0  0  0  0  0
  -21.6037   -4.3051   24.7234 C   0  0  0  0  0  0
  -21.8819   -3.8146   23.4351 C   0  0  0  0  0  0
  -21.9192   -4.6965   22.3406 C   0  0  0  0  0  0
  -22.7831  -13.5218   21.1828 C   0  0  0  0  0  0
  -22.1658   -4.2153   21.0983 F   0  0  0  0  0  0
  -21.5629   -3.4534   25.7744 F   0  0  0  0  0  0
  -30.0396  -13.2669   20.4549 N   0  0  0  0  0  0
  -26.3023  -12.9333   20.3375 N   0  0  0  0  0  0
  -25.9317  -11.6494   20.5783 N   0  0  0  0  0  0
  -22.0483  -12.8223   22.0397 N   0  0  0  0  0  0
  -25.4217  -15.1849   20.3947 N   0  0  0  0  0  0
  -31.8106  -14.6392   20.0716 O   0  0  0  0  0  0
  -21.6630   -6.8883   21.4241 O   0  0  0  0  0  0
  -22.3510  -14.5526   20.6680 O   0  0  0  0  0  0
  -24.6132  -31.8694   23.2093 C   0  0  0  0  0  0
  -25.9040  -32.4824   23.8390 C   0  0  1  0  0  0
  -27.2418  -27.4577   20.0997 C   0  0  0  0  0  0
  -25.5917  -33.8617   24.2338 N   0  0  0  0  0  0
  -23.4001  -30.4897   21.5496 C   0  0  2  0  0  0
  -24.8480  -28.9528   20.1194 C   0  0  0  0  0  0
  -22.7406  -29.4648   22.5007 C   0  0  0  0  0  0
  -18.0266  -28.1325   22.8482 C   0  0  0  0  0  0
  -24.1496  -36.7314   23.2637 C   0  0  0  0  0  0
  -25.9251  -30.8418   21.3593 C   0  0  0  0  0  0
  -26.0060  -29.4751   20.7119 C   0  0  0  0  0  0
  -27.2076  -28.7349   20.6979 C   0  0  0  0  0  0
  -26.0726  -26.9380   19.5097 C   0  0  0  0  0  0
  -24.8753  -27.6804   19.5157 C   0  0  0  0  0  0
  -23.6084  -29.8180   20.1651 C   0  0  0  0  0  0
  -25.4109  -36.3112   24.0345 C   0  0  1  0  0  0
  -20.5856  -28.3621   23.1312 C   0  0  2  0  0  0
  -20.6757  -26.9369   22.5403 C   0  0  0  0  0  0
  -19.5740  -26.6357   21.5189 C   0  0  0  0  0  0
  -18.1916  -26.7879   22.1598 C   0  0  0  0  0  0
  -19.1516  -28.8794   23.2890 C   0  0  0  0  0  0
  -18.9452  -30.1399   23.8895 C   0  0  0  0  0  0
  -17.6460  -30.6556   24.0541 C   0  0  0  0  0  0
  -25.9033  -34.9475   23.5129 C   0  0  0  0  0  0
  -16.5346  -29.9055   23.6303 C   0  0  0  0  0  0
  -16.7262  -28.6460   23.0337 C   0  0  0  0  0  0
  -26.4469  -31.6597   25.0709 C   0  0  0  0  0  0
  -25.3733  -31.3702   26.1462 C   0  0  0  0  0  0
  -27.0299  -30.3051   24.6051 C   0  0  0  0  0  0
  -27.6066  -32.4308   25.7464 C   0  0  0  0  0  0
  -27.5585  -37.1818   24.8464 C   0  0  0  0  0  0
  -21.4133  -29.3009   22.3744 N   0  0  0  0  0  0
  -26.4300  -37.3794   23.9400 N   0  0  0  0  0  0
  -24.6642  -31.0813   22.0984 N   0  0  0  0  0  0
  -23.4190  -28.8208   23.3046 O   0  0  0  0  0  0
  -28.4096  -26.7375   20.0624 O   0  0  0  0  0  0
  -26.5585  -34.8933   22.4687 O   0  0  0  0  0  0
  -23.5335  -32.1439   23.7506 O   0  0  0  0  0  0
  -31.3481  -17.4822   20.8074 C   0  0  0  0  0  0
  -29.1554  -19.0032   21.7506 C   0  0  0  0  0  0
  -30.1899  -16.8103   21.2623 C   0  0  0  0  0  0
  -30.3310  -19.6582   21.2958 C   0  0  0  0  0  0
  -31.4183  -18.8865   20.8236 C   0  0  0  0  0  0
  -29.0976  -17.5800   21.7344 C   0  0  0  0  0  0
  -27.9959  -19.8328   22.3018 C   0  0  0  0  0  0
  -29.3546  -23.2238   21.1436 C   0  0  0  0  0  0
  -28.8759  -24.3332   20.1843 C   0  0  0  0  0  0
  -29.7541  -21.9020   20.4607 C   0  0  0  0  0  0
  -28.4533  -25.6101   20.9393 C   0  0  0  0  0  0
  -30.0621  -15.3834   21.3028 N   0  0  0  0  0  0
  -30.4973  -21.0521   21.3868 N   0  0  0  0  0  0
  -32.8689  -19.6575   20.2785 Cl  0  0  0  0  0  0
  -27.6966  -16.7405   22.3175 Cl  0  0  0  0  0  0
  -31.4647  -12.3912   19.1157 H   0  0  0  0  0  0
  -30.3197  -11.2799   19.8062 H   0  0  0  0  0  0
  -29.7285  -11.7896   17.4194 H   0  0  0  0  0  0
  -29.6629  -13.4968   17.7784 H   0  0  0  0  0  0
  -27.8181  -11.3140   18.8065 H   0  0  0  0  0  0
  -27.3634  -12.6518   17.7863 H   0  0  0  0  0  0
  -27.7133  -14.2560   19.5903 H   0  0  0  0  0  0
  -28.6708  -11.9228   21.3178 H   0  0  0  0  0  0
  -28.4557  -13.5447   21.8865 H   0  0  0  0  0  0
  -25.2757   -9.5676   22.4767 H   0  0  0  0  0  0
  -23.9994   -7.4627   22.7465 H   0  0  0  0  0  0
  -21.0848   -8.8764   19.8950 H   0  0  0  0  0  0
  -22.3691  -10.9668   19.6158 H   0  0  0  0  0  0
  -21.2002   -7.6154   23.9724 H   0  0  0  0  0  0
  -21.1475   -6.0524   25.9086 H   0  0  0  0  0  0
  -22.0602   -2.7610   23.2849 H   0  0  0  0  0  0
  -22.4100  -11.9887   22.4790 H   0  0  0  0  0  0
  -21.1099  -13.1245   22.2605 H   0  0  0  0  0  0
  -24.6656  -15.8441   20.5410 H   0  0  0  0  0  0
  -26.3019  -15.6332   20.1757 H   0  0  0  0  0  0
  -26.7124  -32.5552   23.1170 H   0  0  0  0  0  0
  -25.0126  -33.9778   25.0522 H   0  0  0  0  0  0
  -22.6868  -31.3049   21.4078 H   0  0  0  0  0  0
  -23.3760  -35.9649   23.3305 H   0  0  0  0  0  0
  -24.3605  -36.8910   22.2049 H   0  0  0  0  0  0
  -23.7246  -37.6522   23.6640 H   0  0  0  0  0  0
  -26.0310  -31.6077   20.5898 H   0  0  0  0  0  0
  -26.8147  -30.8983   21.9754 H   0  0  0  0  0  0
  -28.1053  -29.1347   21.1501 H   0  0  0  0  0  0
  -26.0977  -25.9653   19.0398 H   0  0  0  0  0  0
  -23.9875  -27.2719   19.0521 H   0  0  0  0  0  0
  -23.7127  -30.5897   19.3998 H   0  0  0  0  0  0
  -22.7337  -29.2326   19.8756 H   0  0  0  0  0  0
  -25.1287  -36.1989   25.0839 H   0  0  0  0  0  0
  -20.9938  -28.3197   24.1429 H   0  0  0  0  0  0
  -20.5628  -26.2252   23.3596 H   0  0  0  0  0  0
  -21.6632  -26.7389   22.1221 H   0  0  0  0  0  0
  -19.6905  -25.6277   21.1198 H   0  0  0  0  0  0
  -19.6666  -27.3178   20.6735 H   0  0  0  0  0  0
  -17.4188  -26.6622   21.4000 H   0  0  0  0  0  0
  -18.0308  -25.9997   22.8969 H   0  0  0  0  0  0
  -19.7943  -30.7180   24.2292 H   0  0  0  0  0  0
  -17.5028  -31.6237   24.5130 H   0  0  0  0  0  0
  -15.5352  -30.2952   23.7626 H   0  0  0  0  0  0
  -15.8658  -28.0783   22.7049 H   0  0  0  0  0  0
  -24.5904  -30.7038   25.7806 H   0  0  0  0  0  0
  -24.8916  -32.2857   26.4908 H   0  0  0  0  0  0
  -25.8088  -30.8877   27.0220 H   0  0  0  0  0  0
  -26.2829  -29.6801   24.1138 H   0  0  0  0  0  0
  -27.4128  -29.7291   25.4482 H   0  0  0  0  0  0
  -27.8634  -30.4379   23.9151 H   0  0  0  0  0  0
  -27.2697  -33.3615   26.2043 H   0  0  0  0  0  0
  -28.3870  -32.6850   25.0274 H   0  0  0  0  0  0
  -28.0727  -31.8409   26.5363 H   0  0  0  0  0  0
  -28.2621  -38.0104   24.7518 H   0  0  0  0  0  0
  -28.1076  -36.2641   24.6296 H   0  0  0  0  0  0
  -27.2310  -37.1468   25.8873 H   0  0  0  0  0  0
  -20.9300  -29.8781   21.7005 H   0  0  0  0  0  0
  -26.0201  -38.2882   24.1393 H   0  0  0  0  0  0
  -32.2170  -16.9460   20.4628 H   0  0  0  0  0  0
  -28.3670  -20.5672   23.0170 H   0  0  0  0  0  0
  -27.2389  -19.2453   22.8177 H   0  0  0  0  0  0
  -27.4933  -20.3709   21.4983 H   0  0  0  0  0  0
  -28.5833  -23.0226   21.8876 H   0  0  0  0  0  0
  -30.2138  -23.6109   21.6947 H   0  0  0  0  0  0
  -28.0467  -23.9785   19.5699 H   0  0  0  0  0  0
  -29.6873  -24.5781   19.4989 H   0  0  0  0  0  0
  -30.4066  -22.1119   19.6120 H   0  0  0  0  0  0
  -28.8770  -21.3960   20.0537 H   0  0  0  0  0  0
  -29.1870  -25.8382   21.7122 H   0  0  0  0  0  0
  -27.5073  -25.4378   21.4595 H   0  0  0  0  0  0
  -29.2107  -15.0596   21.7388 H   0  0  0  0  0  0
  -31.4891  -21.2771   21.3535 H   0  0  0  0  0  0
  1 25  1  0  0  0
  1 30  2  0  0  0
  1 82  1  0  0  0
  2  3  1  0  0  0
  2 25  1  0  0  0
  2 86  1  0  0  0
  2 87  1  0  0  0
  3  4  1  0  0  0
  3 88  1  0  0  0
  3 89  1  0  0  0
  4  5  1  0  0  0
  4 90  1  0  0  0
  4 91  1  0  0  0
  5  6  1  0  0  0
  5 26  1  0  0  0
  5 92  1  0  0  0
  6 25  1  0  0  0
  6 93  1  0  0  0
  6 94  1  0  0  0
  7  8  2  0  0  0
  7 26  1  0  0  0
  7 29  1  0  0  0
  8  9  1  0  0  0
  8 22  1  0  0  0
  9 10  1  0  0  0
  9 27  2  0  0  0
 10 11  2  0  0  0
 10 15  1  0  0  0
 11 12  1  0  0  0
 11 95  1  0  0  0
 12 13  2  0  0  0
 12 96  1  0  0  0
 13 14  1  0  0  0
 13 31  1  0  0  0
 14 15  2  0  0  0
 14 97  1  0  0  0
 15 98  1  0  0  0
 16 17  2  0  0  0
 16 21  1  0  0  0
 16 31  1  0  0  0
 17 18  1  0  0  0
 17 99  1  0  0  0
 18 19  2  0  0  0
 18100  1  0  0  0
 19 20  1  0  0  0
 19 24  1  0  0  0
 20 21  2  0  0  0
 20101  1  0  0  0
 21 23  1  0  0  0
 22 28  1  0  0  0
 22 32  2  0  0  0
 26 27  1  0  0  0
 28102  1  0  0  0
 28103  1  0  0  0
 29104  1  0  0  0
 29105  1  0  0  0
 33 34  1  0  0  0
 33 66  1  0  0  0
 33 70  2  0  0  0
 34 36  1  0  0  0
 34 59  1  0  0  0
 34106  1  0  0  0
 35 44  2  0  0  0
 35 45  1  0  0  0
 35 68  1  0  0  0
 36 56  1  0  0  0
 36107  1  0  0  0
 37 39  1  0  0  0
 37 47  1  0  0  0
 37 66  1  0  0  0
 37108  1  0  0  0
 38 43  2  0  0  0
 38 46  1  0  0  0
 38 47  1  0  0  0
 39 64  1  0  0  0
 39 67  2  0  0  0
 40 52  1  0  0  0
 40 53  2  0  0  0
 40 58  1  0  0  0
 41109  1  0  0  0
 41110  1  0  0  0
 41111  1  0  0  0
 41 48  1  0  0  0
 42 43  1  0  0  0
 42 66  1  0  0  0
 42112  1  0  0  0
 42113  1  0  0  0
 43 44  1  0  0  0
 44114  1  0  0  0
 45 46  2  0  0  0
 45115  1  0  0  0
 46116  1  0  0  0
 47117  1  0  0  0
 47118  1  0  0  0
 48 56  1  0  0  0
 48 65  1  0  0  0
 48119  1  0  0  0
 49 50  1  0  0  0
 49 53  1  0  0  0
 49 64  1  0  0  0
 49120  1  0  0  0
 50 51  1  0  0  0
 50121  1  0  0  0
 50122  1  0  0  0
 51 52  1  0  0  0
 51123  1  0  0  0
 51124  1  0  0  0
 52125  1  0  0  0
 52126  1  0  0  0
 53 54  1  0  0  0
 54 55  2  0  0  0
 54127  1  0  0  0
 55 57  1  0  0  0
 55128  1  0  0  0
 56 69  2  0  0  0
 57 58  2  0  0  0
 57129  1  0  0  0
 58130  1  0  0  0
 59 60  1  0  0  0
 59 61  1  0  0  0
 59 62  1  0  0  0
 60131  1  0  0  0
 60132  1  0  0  0
 60133  1  0  0  0
 61134  1  0  0  0
 61135  1  0  0  0
 61136  1  0  0  0
 62137  1  0  0  0
 62138  1  0  0  0
 62139  1  0  0  0
 63 65  1  0  0  0
 63140  1  0  0  0
 63141  1  0  0  0
 63142  1  0  0  0
 64143  1  0  0  0
 65144  1  0  0  0
 68 81  1  0  0  0
 71 73  2  0  0  0
 71 75  1  0  0  0
 71145  1  0  0  0
 72 74  1  0  0  0
 72 76  2  0  0  0
 72 77  1  0  0  0
 73 76  1  0  0  0
 73 82  1  0  0  0
 74 75  2  0  0  0
 74 83  1  0  0  0
 75 84  1  0  0  0
 76 85  1  0  0  0
 77146  1  0  0  0
 77147  1  0  0  0
 77148  1  0  0  0
 78 79  1  0  0  0
 78 80  1  0  0  0
 78149  1  0  0  0
 78150  1  0  0  0
 79 81  1  0  0  0
 79151  1  0  0  0
 79152  1  0  0  0
 80 83  1  0  0  0
 80153  1  0  0  0
 80154  1  0  0  0
 81155  1  0  0  0
 81156  1  0  0  0
 82157  1  0  0  0
 83158  1  0  0  0
M  ISO  4   1 100  68 101  81 101  82 100
M  END
> <chiral flag>
0

> <version>
0

> <s_m_source_file>
/data/baiqing/PycharmProjects/Reinvent-master-3.2/result/LINK_invent/BTK/process_docking_weight1_custom_sum_contain_oxygen_bond_distance_aromatic_linkinvent_7_9_3/rearranged_h_0016.sdf

> <i_m_source_file_index>
33

> <r_mmod_Potential_Energy-OPLS-2005>
-57.3516311645508

> <r_mmod_Stretch_Energy-OPLS-2005>
36.4232292175293

> <r_mmod_Bend_Energy-OPLS-2005>
99.2178726196289

> <r_mmod_Torsional_Energy-OPLS-2005>
246.003723144531

> <r_mmod_Improper_Torsional_Energy-OPLS-2005>
8.52983665466309

> <r_mmod_Van_der_Waal_Energy-OPLS-2005>
157.385437011719

> <r_mmod_Electrostatic_Energy-OPLS-2005>
-415.497406005859

> <r_mmod_Solvation_Energy-OPLS-2005>
-198.102798461914

> <b_mmod_Minimization_Converged-OPLS-2005>
0

> <r_mmod_RMS_Derivative-OPLS-2005>
2.09514236450195

$$$$
33
                    3D
 Structure written by MMmdl.
159167  0  0  1  0            999 V2000
  -30.6259  -14.6239   20.5230 C   0  0  0  0  0  0
  -30.4434  -12.3918   19.4474 C   0  0  0  0  0  0
  -29.5075  -12.5182   18.2241 C   0  0  0  0  0  0
  -28.0292  -12.3613   18.6340 C   0  0  0  0  0  0
  -27.6569  -13.2171   19.8734 C   0  0  2  0  0  0
  -28.7031  -13.0463   20.9989 C   0  0  0  0  0  0
  -25.2513  -13.8129   20.5597 C   0  0  0  0  0  0
  -24.1808  -13.0400   20.9161 C   0  0  0  0  0  0
  -24.6405  -11.6886   20.8753 C   0  0  0  0  0  0
  -23.9073  -10.4278   21.0416 C   0  0  0  0  0  0
  -24.3621   -9.4194   21.9193 C   0  0  0  0  0  0
  -23.6295   -8.2232   22.0759 C   0  0  0  0  0  0
  -22.4276   -8.0280   21.3550 C   0  0  0  0  0  0
  -21.9919   -9.0250   20.4647 C   0  0  0  0  0  0
  -22.7248  -10.2128   20.3059 C   0  0  0  0  0  0
  -21.6848   -6.0732   22.5283 C   0  0  0  0  0  0
  -21.4005   -6.5633   23.8217 C   0  0  0  0  0  0
  -21.3658   -5.6787   24.9180 C   0  0  0  0  0  0
  -21.6046   -4.3050   24.7227 C   0  0  0  0  0  0
  -21.8822   -3.8142   23.4348 C   0  0  0  0  0  0
  -21.9197   -4.6960   22.3403 C   0  0  0  0  0  0
  -22.7835  -13.5200   21.1828 C   0  0  0  0  0  0
  -22.1664   -4.2144   21.0979 F   0  0  0  0  0  0
  -21.5637   -3.4534   25.7741 F   0  0  0  0  0  0
  -30.0220  -13.3966   20.4441 N   0  0  0  0  0  0
  -26.3003  -12.9345   20.3371 N   0  0  0  0  0  0
  -25.9347  -11.6495   20.5817 N   0  0  0  0  0  0
  -22.0471  -12.8215   22.0398 N   0  0  0  0  0  0
  -25.4096  -15.1825   20.3854 N   0  0  0  0  0  0
  -31.7669  -14.8091   20.0899 O   0  0  0  0  0  0
  -21.6639   -6.8880   21.4246 O   0  0  0  0  0  0
  -22.3525  -14.5511   20.6690 O   0  0  0  0  0  0
  -24.6238  -31.8603   23.2026 C   0  0  0  0  0  0
  -25.9085  -32.4789   23.8354 C   0  0  1  0  0  0
  -27.2300  -27.3354   20.1230 C   0  0  0  0  0  0
  -25.5907  -33.8589   24.2292 N   0  0  0  0  0  0
  -23.4183  -30.4803   21.5454 C   0  0  2  0  0  0
  -24.8674  -28.9338   20.1149 C   0  0  0  0  0  0
  -22.7459  -29.4616   22.4957 C   0  0  0  0  0  0
  -18.0277  -28.1381   22.8494 C   0  0  0  0  0  0
  -24.1489  -36.7280   23.2641 C   0  0  0  0  0  0
  -25.9568  -30.7963   21.3722 C   0  0  0  0  0  0
  -26.0339  -29.4235   20.7164 C   0  0  0  0  0  0
  -27.2207  -28.6369   20.7064 C   0  0  0  0  0  0
  -26.0458  -26.8920   19.4955 C   0  0  0  0  0  0
  -24.8746  -27.6737   19.4944 C   0  0  0  0  0  0
  -23.6324  -29.8084   20.1632 C   0  0  0  0  0  0
  -25.4119  -36.3092   24.0337 C   0  0  1  0  0  0
  -20.5874  -28.3680   23.1304 C   0  0  2  0  0  0
  -20.6762  -26.9405   22.5420 C   0  0  0  0  0  0
  -19.5742  -26.6389   21.5214 C   0  0  0  0  0  0
  -18.1919  -26.7932   22.1620 C   0  0  0  0  0  0
  -19.1527  -28.8851   23.2889 C   0  0  0  0  0  0
  -18.9453  -30.1457   23.8899 C   0  0  0  0  0  0
  -17.6455  -30.6596   24.0554 C   0  0  0  0  0  0
  -25.9053  -34.9458   23.5119 C   0  0  0  0  0  0
  -16.5346  -29.9088   23.6338 C   0  0  0  0  0  0
  -16.7267  -28.6502   23.0368 C   0  0  0  0  0  0
  -26.4487  -31.6589   25.0711 C   0  0  0  0  0  0
  -25.3723  -31.3691   26.1430 C   0  0  0  0  0  0
  -27.0342  -30.3025   24.6152 C   0  0  0  0  0  0
  -27.6061  -32.4309   25.7471 C   0  0  0  0  0  0
  -27.5597  -37.1783   24.8463 C   0  0  0  0  0  0
  -21.4175  -29.3028   22.3693 N   0  0  0  0  0  0
  -26.4300  -37.3789   23.9421 N   0  0  0  0  0  0
  -24.6847  -31.0624   22.0969 N   0  0  0  0  0  0
  -23.4182  -28.8156   23.3035 O   0  0  0  0  0  0
  -28.3589  -26.5123   20.1273 O   0  0  0  0  0  0
  -26.5625  -34.8922   22.4687 O   0  0  0  0  0  0
  -23.5405  -32.1390   23.7363 O   0  0  0  0  0  0
  -30.7963  -17.8274   20.0654 C   0  0  0  0  0  0
  -28.4638  -19.1949   20.8561 C   0  0  0  0  0  0
  -29.4497  -19.9402   20.1364 C   0  0  0  0  0  0
  -29.8032  -17.0781   20.7405 C   0  0  0  0  0  0
  -30.6350  -19.2169   19.7837 C   0  0  0  0  0  0
  -28.6646  -17.8100   21.1754 C   0  0  0  0  0  0
  -27.1493  -19.8458   21.2774 C   0  0  0  0  0  0
  -30.5026  -24.4088   19.7118 C   0  0  0  0  0  0
  -29.1954  -21.4050   19.5837 C   0  0  0  0  0  0
  -28.2145  -25.1265   20.6252 C   0  0  0  0  0  0
  -29.0299  -23.9790   19.8772 C   0  0  2  0  0  0
  -29.8459  -15.6374   21.0020 N   0  0  0  0  0  0
  -28.9625  -22.5858   20.5068 N   0  3  0  0  0  0
  -31.9300  -19.9912   18.9391 Cl  0  0  0  0  0  0
  -27.4808  -16.9665   22.1169 Cl  0  0  0  0  0  0
  -31.4816  -12.5278   19.1377 H   0  0  0  0  0  0
  -30.3887  -11.3906   19.8766 H   0  0  0  0  0  0
  -29.7661  -11.7705   17.4727 H   0  0  0  0  0  0
  -29.6532  -13.4901   17.7495 H   0  0  0  0  0  0
  -27.8558  -11.3061   18.8469 H   0  0  0  0  0  0
  -27.3781  -12.6127   17.7958 H   0  0  0  0  0  0
  -27.6807  -14.2587   19.5521 H   0  0  0  0  0  0
  -28.7139  -12.0152   21.3549 H   0  0  0  0  0  0
  -28.4455  -13.6535   21.8680 H   0  0  0  0  0  0
  -25.2763   -9.5659   22.4776 H   0  0  0  0  0  0
  -23.9993   -7.4619   22.7478 H   0  0  0  0  0  0
  -21.0851   -8.8770   19.8951 H   0  0  0  0  0  0
  -22.3709  -10.9672   19.6171 H   0  0  0  0  0  0
  -21.1981   -7.6138   23.9714 H   0  0  0  0  0  0
  -21.1483   -6.0519   25.9084 H   0  0  0  0  0  0
  -22.0604   -2.7601   23.2856 H   0  0  0  0  0  0
  -22.4082  -11.9884   22.4804 H   0  0  0  0  0  0
  -21.1089  -13.1261   22.2582 H   0  0  0  0  0  0
  -24.6489  -15.8344   20.5363 H   0  0  0  0  0  0
  -26.2806  -15.6401   20.1530 H   0  0  0  0  0  0
  -26.7147  -32.5473   23.1099 H   0  0  0  0  0  0
  -25.0031  -33.9738   25.0424 H   0  0  0  0  0  0
  -22.7117  -31.2995   21.3991 H   0  0  0  0  0  0
  -23.3782  -35.9581   23.3281 H   0  0  0  0  0  0
  -24.3577  -36.8921   22.2060 H   0  0  0  0  0  0
  -23.7202  -37.6458   23.6675 H   0  0  0  0  0  0
  -26.0887  -31.5617   20.6057 H   0  0  0  0  0  0
  -26.8367  -30.8440   22.0023 H   0  0  0  0  0  0
  -28.1210  -29.0120   21.1734 H   0  0  0  0  0  0
  -26.0199  -25.9310   19.0015 H   0  0  0  0  0  0
  -23.9818  -27.2971   19.0141 H   0  0  0  0  0  0
  -23.7430  -30.5797   19.4007 H   0  0  0  0  0  0
  -22.7557  -29.2290   19.8684 H   0  0  0  0  0  0
  -25.1298  -36.1945   25.0832 H   0  0  0  0  0  0
  -20.9966  -28.3251   24.1427 H   0  0  0  0  0  0
  -20.5666  -26.2282   23.3612 H   0  0  0  0  0  0
  -21.6635  -26.7433   22.1219 H   0  0  0  0  0  0
  -19.6906  -25.6302   21.1241 H   0  0  0  0  0  0
  -19.6697  -27.3205   20.6751 H   0  0  0  0  0  0
  -17.4195  -26.6699   21.4015 H   0  0  0  0  0  0
  -18.0301  -26.0071   22.9008 H   0  0  0  0  0  0
  -19.7923  -30.7271   24.2276 H   0  0  0  0  0  0
  -17.5005  -31.6279   24.5140 H   0  0  0  0  0  0
  -15.5345  -30.2989   23.7668 H   0  0  0  0  0  0
  -15.8662  -28.0817   22.7107 H   0  0  0  0  0  0
  -24.5930  -30.7015   25.7737 H   0  0  0  0  0  0
  -24.8873  -32.2836   26.4853 H   0  0  0  0  0  0
  -25.8050  -30.8869   27.0205 H   0  0  0  0  0  0
  -26.2915  -29.6758   24.1204 H   0  0  0  0  0  0
  -27.4084  -29.7297   25.4647 H   0  0  0  0  0  0
  -27.8760  -30.4334   23.9348 H   0  0  0  0  0  0
  -27.2701  -33.3614   26.2059 H   0  0  0  0  0  0
  -28.3860  -32.6856   25.0281 H   0  0  0  0  0  0
  -28.0742  -31.8417   26.5369 H   0  0  0  0  0  0
  -28.2589  -38.0109   24.7573 H   0  0  0  0  0  0
  -28.1122  -36.2641   24.6223 H   0  0  0  0  0  0
  -27.2307  -37.1345   25.8863 H   0  0  0  0  0  0
  -20.9350  -29.8729   21.6887 H   0  0  0  0  0  0
  -26.0185  -38.2861   24.1454 H   0  0  0  0  0  0
  -31.7003  -17.3404   19.7332 H   0  0  0  0  0  0
  -26.9306  -20.7677   20.7454 H   0  0  0  0  0  0
  -27.1595  -20.0619   22.3462 H   0  0  0  0  0  0
  -26.3077  -19.1823   21.0779 H   0  0  0  0  0  0
  -30.5737  -25.3764   19.2135 H   0  0  0  0  0  0
  -31.0761  -23.7035   19.1101 H   0  0  0  0  0  0
  -31.0029  -24.5036   20.6766 H   0  0  0  0  0  0
  -28.3355  -21.3422   18.9155 H   0  0  0  0  0  0
  -30.0094  -21.6818   18.9198 H   0  0  0  0  0  0
  -28.5361  -25.1501   21.6668 H   0  0  0  0  0  0
  -27.1656  -24.8320   20.6669 H   0  0  0  0  0  0
  -28.5911  -23.9024   18.8805 H   0  0  0  0  0  0
  -29.0067  -15.2995   21.4491 H   0  0  0  0  0  0
  -29.6203  -22.5353   21.2692 H   0  0  0  0  0  0
  -28.0461  -22.4607   20.9069 H   0  0  0  0  0  0
  1 25  1  0  0  0
  1 30  2  0  0  0
  1 82  1  0  0  0
  2  3  1  0  0  0
  2 25  1  0  0  0
  2 86  1  0  0  0
  2 87  1  0  0  0
  3  4  1  0  0  0
  3 88  1  0  0  0
  3 89  1  0  0  0
  4  5  1  0  0  0
  4 90  1  0  0  0
  4 91  1  0  0  0
  5  6  1  0  0  0
  5 26  1  0  0  0
  5 92  1  0  0  0
  6 25  1  0  0  0
  6 93  1  0  0  0
  6 94  1  0  0  0
  7  8  2  0  0  0
  7 26  1  0  0  0
  7 29  1  0  0  0
  8  9  1  0  0  0
  8 22  1  0  0  0
  9 10  1  0  0  0
  9 27  2  0  0  0
 10 11  2  0  0  0
 10 15  1  0  0  0
 11 12  1  0  0  0
 11 95  1  0  0  0
 12 13  2  0  0  0
 12 96  1  0  0  0
 13 14  1  0  0  0
 13 31  1  0  0  0
 14 15  2  0  0  0
 14 97  1  0  0  0
 15 98  1  0  0  0
 16 17  2  0  0  0
 16 21  1  0  0  0
 16 31  1  0  0  0
 17 18  1  0  0  0
 17 99  1  0  0  0
 18 19  2  0  0  0
 18100  1  0  0  0
 19 20  1  0  0  0
 19 24  1  0  0  0
 20 21  2  0  0  0
 20101  1  0  0  0
 21 23  1  0  0  0
 22 28  1  0  0  0
 22 32  2  0  0  0
 26 27  1  0  0  0
 28102  1  0  0  0
 28103  1  0  0  0
 29104  1  0  0  0
 29105  1  0  0  0
 33 34  1  0  0  0
 33 66  1  0  0  0
 33 70  2  0  0  0
 34 36  1  0  0  0
 34 59  1  0  0  0
 34106  1  0  0  0
 35 44  2  0  0  0
 35 45  1  0  0  0
 35 68  1  0  0  0
 36 56  1  0  0  0
 36107  1  0  0  0
 37 39  1  0  0  0
 37 47  1  0  0  0
 37 66  1  0  0  0
 37108  1  0  0  0
 38 43  2  0  0  0
 38 46  1  0  0  0
 38 47  1  0  0  0
 39 64  1  0  0  0
 39 67  2  0  0  0
 40 52  1  0  0  0
 40 53  2  0  0  0
 40 58  1  0  0  0
 41109  1  0  0  0
 41110  1  0  0  0
 41111  1  0  0  0
 41 48  1  0  0  0
 42 43  1  0  0  0
 42 66  1  0  0  0
 42112  1  0  0  0
 42113  1  0  0  0
 43 44  1  0  0  0
 44114  1  0  0  0
 45 46  2  0  0  0
 45115  1  0  0  0
 46116  1  0  0  0
 47117  1  0  0  0
 47118  1  0  0  0
 48 56  1  0  0  0
 48 65  1  0  0  0
 48119  1  0  0  0
 49 50  1  0  0  0
 49 53  1  0  0  0
 49 64  1  0  0  0
 49120  1  0  0  0
 50 51  1  0  0  0
 50121  1  0  0  0
 50122  1  0  0  0
 51 52  1  0  0  0
 51123  1  0  0  0
 51124  1  0  0  0
 52125  1  0  0  0
 52126  1  0  0  0
 53 54  1  0  0  0
 54 55  2  0  0  0
 54127  1  0  0  0
 55 57  1  0  0  0
 55128  1  0  0  0
 56 69  2  0  0  0
 57 58  2  0  0  0
 57129  1  0  0  0
 58130  1  0  0  0
 59 60  1  0  0  0
 59 61  1  0  0  0
 59 62  1  0  0  0
 60131  1  0  0  0
 60132  1  0  0  0
 60133  1  0  0  0
 61134  1  0  0  0
 61135  1  0  0  0
 61136  1  0  0  0
 62137  1  0  0  0
 62138  1  0  0  0
 62139  1  0  0  0
 63 65  1  0  0  0
 63140  1  0  0  0
 63141  1  0  0  0
 63142  1  0  0  0
 64143  1  0  0  0
 65144  1  0  0  0
 68 80  1  0  0  0
 71 74  2  0  0  0
 71 75  1  0  0  0
 71145  1  0  0  0
 72 73  1  0  0  0
 72 76  2  0  0  0
 72 77  1  0  0  0
 73 75  2  0  0  0
 73 79  1  0  0  0
 74 76  1  0  0  0
 74 82  1  0  0  0
 75 84  1  0  0  0
 76 85  1  0  0  0
 77146  1  0  0  0
 77147  1  0  0  0
 77148  1  0  0  0
 78149  1  0  0  0
 78150  1  0  0  0
 78151  1  0  0  0
 78 81  1  0  0  0
 79 83  1  0  0  0
 79152  1  0  0  0
 79153  1  0  0  0
 80 81  1  0  0  0
 80154  1  0  0  0
 80155  1  0  0  0
 81 83  1  0  0  0
 81156  1  0  0  0
 82157  1  0  0  0
 83158  1  0  0  0
 83159  1  0  0  0
M  CHG  1  83   1
M  ISO  4   1 100  68 101  80 101  82 100
M  END
> <chiral flag>
0

> <version>
0

> <s_m_source_file>
/data/baiqing/PycharmProjects/Reinvent-master-3.2/result/LINK_invent/BTK/process_docking_weight1_custom_sum_contain_oxygen_bond_distance_aromatic_linkinvent_7_9_3/rearranged_h_0016.sdf

> <i_m_source_file_index>
34

> <r_mmod_Potential_Energy-OPLS-2005>
-94.6139755249023

> <r_mmod_Stretch_Energy-OPLS-2005>
80.4752807617188

> <r_mmod_Bend_Energy-OPLS-2005>
138.219757080078

> <r_mmod_Torsional_Energy-OPLS-2005>
233.663009643555

> <r_mmod_Improper_Torsional_Energy-OPLS-2005>
4.31607341766357

> <r_mmod_Van_der_Waal_Energy-OPLS-2005>
145.887512207031

> <r_mmod_Electrostatic_Energy-OPLS-2005>
-278.752014160156

> <r_mmod_Solvation_Energy-OPLS-2005>
-458.801605224609

> <b_mmod_Minimization_Converged-OPLS-2005>
0

> <r_mmod_RMS_Derivative-OPLS-2005>
1.3059606552124

$$$$
34
                    3D
 Structure written by MMmdl.
165173  0  0  1  0            999 V2000
  -30.6584  -14.5117   20.4336 C   0  0  0  0  0  0
  -30.4267  -12.3064   19.4091 C   0  0  0  0  0  0
  -29.4910  -12.4775   18.1937 C   0  0  0  0  0  0
  -28.0120  -12.3388   18.6183 C   0  0  0  0  0  0
  -27.6506  -13.2012   19.8593 C   0  0  2  0  0  0
  -28.7053  -13.0138   20.9731 C   0  0  0  0  0  0
  -25.2564  -13.8139   20.5738 C   0  0  0  0  0  0
  -24.1813  -13.0413   20.9200 C   0  0  0  0  0  0
  -24.6371  -11.6884   20.8747 C   0  0  0  0  0  0
  -23.9040  -10.4269   21.0393 C   0  0  0  0  0  0
  -24.3601   -9.4185   21.9175 C   0  0  0  0  0  0
  -23.6273   -8.2220   22.0750 C   0  0  0  0  0  0
  -22.4257   -8.0256   21.3536 C   0  0  0  0  0  0
  -21.9885   -9.0229   20.4637 C   0  0  0  0  0  0
  -22.7212  -10.2111   20.3036 C   0  0  0  0  0  0
  -21.6837   -6.0712   22.5270 C   0  0  0  0  0  0
  -21.4005   -6.5616   23.8209 C   0  0  0  0  0  0
  -21.3667   -5.6771   24.9174 C   0  0  0  0  0  0
  -21.6044   -4.3035   24.7225 C   0  0  0  0  0  0
  -21.8823   -3.8125   23.4349 C   0  0  0  0  0  0
  -21.9192   -4.6940   22.3399 C   0  0  0  0  0  0
  -22.7827  -13.5213   21.1832 C   0  0  0  0  0  0
  -22.1650   -4.2118   21.0976 F   0  0  0  0  0  0
  -21.5640   -3.4524   25.7746 F   0  0  0  0  0  0
  -30.0221  -13.3139   20.3978 N   0  0  0  0  0  0
  -26.2973  -12.9305   20.3356 N   0  0  0  0  0  0
  -25.9289  -11.6474   20.5760 N   0  0  0  0  0  0
  -22.0454  -12.8221   22.0407 N   0  0  0  0  0  0
  -25.4282  -15.1861   20.4232 N   0  0  0  0  0  0
  -31.8724  -14.6273   20.2677 O   0  0  0  0  0  0
  -21.6629   -6.8850   21.4230 O   0  0  0  0  0  0
  -22.3523  -14.5516   20.6655 O   0  0  0  0  0  0
  -24.6119  -31.8734   23.2143 C   0  0  0  0  0  0
  -25.9026  -32.4843   23.8429 C   0  0  1  0  0  0
  -27.2167  -27.4437   20.0837 C   0  0  0  0  0  0
  -25.5895  -33.8650   24.2348 N   0  0  0  0  0  0
  -23.3984  -30.5000   21.5545 C   0  0  2  0  0  0
  -24.8414  -28.9714   20.1188 C   0  0  0  0  0  0
  -22.7373  -29.4697   22.4996 C   0  0  0  0  0  0
  -18.0259  -28.1368   22.8480 C   0  0  0  0  0  0
  -24.1490  -36.7322   23.2642 C   0  0  0  0  0  0
  -25.9311  -30.8358   21.3741 C   0  0  0  0  0  0
  -26.0046  -29.4738   20.7160 C   0  0  0  0  0  0
  -27.1985  -28.7151   20.7035 C   0  0  0  0  0  0
  -26.0393  -26.9618   19.4785 C   0  0  0  0  0  0
  -24.8517  -27.7106   19.5025 C   0  0  0  0  0  0
  -23.6062  -29.8391   20.1674 C   0  0  0  0  0  0
  -25.4111  -36.3133   24.0341 C   0  0  1  0  0  0
  -20.5846  -28.3715   23.1356 C   0  0  2  0  0  0
  -20.6745  -26.9422   22.5541 C   0  0  0  0  0  0
  -19.5825  -26.6495   21.5210 C   0  0  0  0  0  0
  -18.1994  -26.7922   22.1616 C   0  0  0  0  0  0
  -19.1497  -28.8869   23.2894 C   0  0  0  0  0  0
  -18.9401  -30.1480   23.8856 C   0  0  0  0  0  0
  -17.6390  -30.6593   24.0468 C   0  0  0  0  0  0
  -25.9044  -34.9494   23.5140 C   0  0  0  0  0  0
  -16.5284  -29.9039   23.6276 C   0  0  0  0  0  0
  -16.7233  -28.6444   23.0348 C   0  0  0  0  0  0
  -26.4462  -31.6615   25.0750 C   0  0  0  0  0  0
  -25.3727  -31.3699   26.1491 C   0  0  0  0  0  0
  -27.0289  -30.3053   24.6132 C   0  0  0  0  0  0
  -27.6031  -32.4352   25.7507 C   0  0  0  0  0  0
  -27.5583  -37.1811   24.8468 C   0  0  0  0  0  0
  -21.4116  -29.3058   22.3730 N   0  0  0  0  0  0
  -26.4306  -37.3809   23.9395 N   0  0  0  0  0  0
  -24.6647  -31.0826   22.1040 N   0  0  0  0  0  0
  -23.4157  -28.8231   23.3030 O   0  0  0  0  0  0
  -28.3579  -26.6775   20.0507 O   0  0  0  0  0  0
  -26.5620  -34.8942   22.4705 O   0  0  0  0  0  0
  -23.5317  -32.1527   23.7513 O   0  0  0  0  0  0
  -27.4869  -18.5734   21.5847 C   0  0  0  0  0  0
  -28.6637  -16.4476   21.8711 C   0  0  0  0  0  0
  -27.8120  -17.4506   22.3744 C   0  0  0  0  0  0
  -28.0211  -18.7170   20.2842 C   0  0  0  0  0  0
  -29.1591  -16.5385   20.5533 C   0  0  0  0  0  0
  -28.8493  -17.6815   19.7696 C   0  0  0  0  0  0
  -27.2226  -17.2965   23.7633 C   0  0  0  0  0  0
  -25.3379  -21.9533   20.2893 C   0  0  0  0  0  0
  -27.5965  -19.9210   19.4290 C   0  0  0  0  0  0
  -28.4175  -24.1944   20.5137 C   0  0  0  0  0  0
  -27.0773  -23.7534   19.8798 C   0  0  0  0  0  0
  -28.4108  -25.6535   21.0538 C   0  0  0  0  0  0
  -26.7179  -22.2488   19.6609 C   0  0  1  0  0  0
  -29.9104  -15.5050   19.9247 N   0  0  0  0  0  0
  -27.7380  -21.2496   20.0914 N   0  3  0  0  0  0
  -29.4686  -17.7718   18.1521 Cl  0  0  0  0  0  0
  -31.4678  -12.4209   19.0999 H   0  0  0  0  0  0
  -30.3421  -11.3010   19.8254 H   0  0  0  0  0  0
  -29.7307  -11.7405   17.4269 H   0  0  0  0  0  0
  -29.6524  -13.4549   17.7331 H   0  0  0  0  0  0
  -27.8378  -11.2866   18.8436 H   0  0  0  0  0  0
  -27.3551  -12.5856   17.7833 H   0  0  0  0  0  0
  -27.6686  -14.2385   19.5318 H   0  0  0  0  0  0
  -28.6935  -11.9857   21.3380 H   0  0  0  0  0  0
  -28.4858  -13.6366   21.8365 H   0  0  0  0  0  0
  -25.2742   -9.5661   22.4770 H   0  0  0  0  0  0
  -23.9966   -7.4603   22.7478 H   0  0  0  0  0  0
  -21.0809   -8.8747   19.8951 H   0  0  0  0  0  0
  -22.3660  -10.9655   19.6152 H   0  0  0  0  0  0
  -21.1998   -7.6125   23.9708 H   0  0  0  0  0  0
  -21.1485   -6.0499   25.9079 H   0  0  0  0  0  0
  -22.0609   -2.7581   23.2859 H   0  0  0  0  0  0
  -22.4059  -11.9886   22.4818 H   0  0  0  0  0  0
  -21.1054  -13.1225   22.2600 H   0  0  0  0  0  0
  -24.6728  -15.8456   20.5703 H   0  0  0  0  0  0
  -26.3055  -15.6342   20.1925 H   0  0  0  0  0  0
  -26.7078  -32.5560   23.1183 H   0  0  0  0  0  0
  -24.9990  -33.9844   25.0454 H   0  0  0  0  0  0
  -22.6881  -31.3183   21.4195 H   0  0  0  0  0  0
  -23.3764  -35.9649   23.3333 H   0  0  0  0  0  0
  -24.3575  -36.8910   22.2050 H   0  0  0  0  0  0
  -23.7242  -37.6528   23.6652 H   0  0  0  0  0  0
  -26.0603  -31.6063   20.6121 H   0  0  0  0  0  0
  -26.8115  -30.8783   22.0034 H   0  0  0  0  0  0
  -28.0957  -29.0985   21.1691 H   0  0  0  0  0  0
  -26.0225  -26.0137   18.9708 H   0  0  0  0  0  0
  -23.9548  -27.3220   19.0395 H   0  0  0  0  0  0
  -23.7201  -30.6214   19.4147 H   0  0  0  0  0  0
  -22.7286  -29.2629   19.8652 H   0  0  0  0  0  0
  -25.1288  -36.2017   25.0840 H   0  0  0  0  0  0
  -20.9915  -28.3387   24.1490 H   0  0  0  0  0  0
  -21.6658  -26.7345   22.1507 H   0  0  0  0  0  0
  -20.5427  -26.2351   23.3738 H   0  0  0  0  0  0
  -19.6809  -27.3470   20.6887 H   0  0  0  0  0  0
  -19.7090  -25.6496   21.1063 H   0  0  0  0  0  0
  -18.0521  -26.0058   22.9029 H   0  0  0  0  0  0
  -17.4260  -26.6584   21.4032 H   0  0  0  0  0  0
  -19.7878  -30.7337   24.2163 H   0  0  0  0  0  0
  -17.4921  -31.6310   24.4968 H   0  0  0  0  0  0
  -15.5272  -30.2923   23.7559 H   0  0  0  0  0  0
  -15.8618  -28.0728   22.7090 H   0  0  0  0  0  0
  -24.5898  -30.7075   25.7789 H   0  0  0  0  0  0
  -24.8943  -32.2854   26.4976 H   0  0  0  0  0  0
  -25.8086  -30.8815   27.0218 H   0  0  0  0  0  0
  -26.2841  -29.6823   24.1177 H   0  0  0  0  0  0
  -27.4031  -29.7278   25.4589 H   0  0  0  0  0  0
  -27.8692  -30.4342   23.9309 H   0  0  0  0  0  0
  -27.2630  -33.3632   26.2109 H   0  0  0  0  0  0
  -28.3814  -32.6946   25.0325 H   0  0  0  0  0  0
  -28.0738  -31.8483   26.5400 H   0  0  0  0  0  0
  -28.2618  -38.0090   24.7502 H   0  0  0  0  0  0
  -28.1066  -36.2626   24.6323 H   0  0  0  0  0  0
  -27.2298  -37.1480   25.8871 H   0  0  0  0  0  0
  -20.9281  -29.8741   21.6915 H   0  0  0  0  0  0
  -26.0208  -38.2900   24.1382 H   0  0  0  0  0  0
  -26.8066  -19.3176   21.9752 H   0  0  0  0  0  0
  -28.9015  -15.6053   22.4991 H   0  0  0  0  0  0
  -26.6337  -16.3800   23.8224 H   0  0  0  0  0  0
  -26.5730  -18.1326   24.0252 H   0  0  0  0  0  0
  -28.0167  -17.2445   24.5086 H   0  0  0  0  0  0
  -24.5812  -22.6420   19.9099 H   0  0  0  0  0  0
  -25.3645  -22.0630   21.3725 H   0  0  0  0  0  0
  -24.9710  -20.9518   20.0692 H   0  0  0  0  0  0
  -26.5613  -19.7321   19.1427 H   0  0  0  0  0  0
  -28.1392  -19.9723   18.4865 H   0  0  0  0  0  0
  -29.2292  -24.0699   19.7974 H   0  0  0  0  0  0
  -28.6475  -23.5489   21.3612 H   0  0  0  0  0  0
  -27.0308  -24.2182   18.8958 H   0  0  0  0  0  0
  -26.2761  -24.2166   20.4585 H   0  0  0  0  0  0
  -29.3329  -25.8229   21.6117 H   0  0  0  0  0  0
  -27.6110  -25.7701   21.7874 H   0  0  0  0  0  0
  -26.6060  -22.1277   18.5811 H   0  0  0  0  0  0
  -30.3095  -15.8405   19.0599 H   0  0  0  0  0  0
  -28.6571  -21.5891   19.8589 H   0  0  0  0  0  0
  -27.6989  -21.1355   21.0908 H   0  0  0  0  0  0
  1 25  1  0  0  0
  1 30  2  0  0  0
  1 84  1  0  0  0
  2  3  1  0  0  0
  2 25  1  0  0  0
  2 87  1  0  0  0
  2 88  1  0  0  0
  3  4  1  0  0  0
  3 89  1  0  0  0
  3 90  1  0  0  0
  4  5  1  0  0  0
  4 91  1  0  0  0
  4 92  1  0  0  0
  5  6  1  0  0  0
  5 26  1  0  0  0
  5 93  1  0  0  0
  6 25  1  0  0  0
  6 94  1  0  0  0
  6 95  1  0  0  0
  7  8  2  0  0  0
  7 26  1  0  0  0
  7 29  1  0  0  0
  8  9  1  0  0  0
  8 22  1  0  0  0
  9 10  1  0  0  0
  9 27  2  0  0  0
 10 11  2  0  0  0
 10 15  1  0  0  0
 11 12  1  0  0  0
 11 96  1  0  0  0
 12 13  2  0  0  0
 12 97  1  0  0  0
 13 14  1  0  0  0
 13 31  1  0  0  0
 14 15  2  0  0  0
 14 98  1  0  0  0
 15 99  1  0  0  0
 16 17  2  0  0  0
 16 21  1  0  0  0
 16 31  1  0  0  0
 17 18  1  0  0  0
 17100  1  0  0  0
 18 19  2  0  0  0
 18101  1  0  0  0
 19 20  1  0  0  0
 19 24  1  0  0  0
 20 21  2  0  0  0
 20102  1  0  0  0
 21 23  1  0  0  0
 22 28  1  0  0  0
 22 32  2  0  0  0
 26 27  1  0  0  0
 28103  1  0  0  0
 28104  1  0  0  0
 29105  1  0  0  0
 29106  1  0  0  0
 33 34  1  0  0  0
 33 66  1  0  0  0
 33 70  2  0  0  0
 34 36  1  0  0  0
 34 59  1  0  0  0
 34107  1  0  0  0
 35 44  2  0  0  0
 35 45  1  0  0  0
 35 68  1  0  0  0
 36 56  1  0  0  0
 36108  1  0  0  0
 37 39  1  0  0  0
 37 47  1  0  0  0
 37 66  1  0  0  0
 37109  1  0  0  0
 38 43  2  0  0  0
 38 46  1  0  0  0
 38 47  1  0  0  0
 39 64  1  0  0  0
 39 67  2  0  0  0
 40 52  1  0  0  0
 40 53  2  0  0  0
 40 58  1  0  0  0
 41110  1  0  0  0
 41111  1  0  0  0
 41112  1  0  0  0
 41 48  1  0  0  0
 42 43  1  0  0  0
 42 66  1  0  0  0
 42113  1  0  0  0
 42114  1  0  0  0
 43 44  1  0  0  0
 44115  1  0  0  0
 45 46  2  0  0  0
 45116  1  0  0  0
 46117  1  0  0  0
 47118  1  0  0  0
 47119  1  0  0  0
 48 56  1  0  0  0
 48 65  1  0  0  0
 48120  1  0  0  0
 49 50  1  0  0  0
 49 53  1  0  0  0
 49 64  1  0  0  0
 49121  1  0  0  0
 50 51  1  0  0  0
 50122  1  0  0  0
 50123  1  0  0  0
 51 52  1  0  0  0
 51124  1  0  0  0
 51125  1  0  0  0
 52126  1  0  0  0
 52127  1  0  0  0
 53 54  1  0  0  0
 54 55  2  0  0  0
 54128  1  0  0  0
 55 57  1  0  0  0
 55129  1  0  0  0
 56 69  2  0  0  0
 57 58  2  0  0  0
 57130  1  0  0  0
 58131  1  0  0  0
 59 60  1  0  0  0
 59 61  1  0  0  0
 59 62  1  0  0  0
 60132  1  0  0  0
 60133  1  0  0  0
 60134  1  0  0  0
 61135  1  0  0  0
 61136  1  0  0  0
 61137  1  0  0  0
 62138  1  0  0  0
 62139  1  0  0  0
 62140  1  0  0  0
 63 65  1  0  0  0
 63141  1  0  0  0
 63142  1  0  0  0
 63143  1  0  0  0
 64144  1  0  0  0
 65145  1  0  0  0
 68 82  1  0  0  0
 71 73  2  0  0  0
 71 74  1  0  0  0
 71146  1  0  0  0
 72 73  1  0  0  0
 72 75  2  0  0  0
 72147  1  0  0  0
 73 77  1  0  0  0
 74 76  2  0  0  0
 74 79  1  0  0  0
 75 76  1  0  0  0
 75 84  1  0  0  0
 76 86  1  0  0  0
 77148  1  0  0  0
 77149  1  0  0  0
 77150  1  0  0  0
 78151  1  0  0  0
 78152  1  0  0  0
 78153  1  0  0  0
 78 83  1  0  0  0
 79 85  1  0  0  0
 79154  1  0  0  0
 79155  1  0  0  0
 80 81  1  0  0  0
 80 82  1  0  0  0
 80156  1  0  0  0
 80157  1  0  0  0
 81 83  1  0  0  0
 81158  1  0  0  0
 81159  1  0  0  0
 82160  1  0  0  0
 82161  1  0  0  0
 83 85  1  0  0  0
 83162  1  0  0  0
 84163  1  0  0  0
 85164  1  0  0  0
 85165  1  0  0  0
M  CHG  1  85   1
M  ISO  4   1 100  68 101  82 101  84 100
M  END
> <chiral flag>
0

> <version>
0

> <s_m_source_file>
/data/baiqing/PycharmProjects/Reinvent-master-3.2/result/LINK_invent/BTK/process_docking_weight1_custom_sum_contain_oxygen_bond_distance_aromatic_linkinvent_7_9_3/rearranged_h_0016.sdf

> <i_m_source_file_index>
35

> <r_mmod_Potential_Energy-OPLS-2005>
-112.159469604492

> <r_mmod_Stretch_Energy-OPLS-2005>
37.7326736450195

> <r_mmod_Bend_Energy-OPLS-2005>
125.172996520996

> <r_mmod_Torsional_Energy-OPLS-2005>
325.600158691406

> <r_mmod_Improper_Torsional_Energy-OPLS-2005>
30.3171215057373

> <r_mmod_Van_der_Waal_Energy-OPLS-2005>
144.453948974609

> <r_mmod_Electrostatic_Energy-OPLS-2005>
-341.795745849609

> <r_mmod_Solvation_Energy-OPLS-2005>
-459.133209228516

> <b_mmod_Minimization_Converged-OPLS-2005>
0

> <r_mmod_RMS_Derivative-OPLS-2005>
3.27591872215271

$$$$
35
                    3D
 Structure written by MMmdl.
150158  0  0  1  0            999 V2000
  -30.3030  -15.5965   20.3294 C   0  0  0  0  0  0
  -30.4331  -13.0498   19.5374 C   0  0  0  0  0  0
  -29.5548  -12.6524   18.3171 C   0  0  0  0  0  0
  -28.1210  -12.3079   18.7528 C   0  0  0  0  0  0
  -27.5999  -13.3061   19.8128 C   0  0  2  0  0  0
  -28.6206  -13.6106   20.9343 C   0  0  0  0  0  0
  -25.2337  -13.8285   20.5783 C   0  0  0  0  0  0
  -24.1727  -13.0435   20.9286 C   0  0  0  0  0  0
  -24.6426  -11.6947   20.8764 C   0  0  0  0  0  0
  -23.9123  -10.4297   21.0407 C   0  0  0  0  0  0
  -24.3650   -9.4208   21.9193 C   0  0  0  0  0  0
  -23.6308   -8.2250   22.0763 C   0  0  0  0  0  0
  -22.4288   -8.0295   21.3550 C   0  0  0  0  0  0
  -21.9936   -9.0275   20.4652 C   0  0  0  0  0  0
  -22.7283  -10.2145   20.3059 C   0  0  0  0  0  0
  -21.6858   -6.0746   22.5279 C   0  0  0  0  0  0
  -21.4020   -6.5647   23.8215 C   0  0  0  0  0  0
  -21.3661   -5.6794   24.9175 C   0  0  0  0  0  0
  -21.6041   -4.3055   24.7225 C   0  0  0  0  0  0
  -21.8816   -3.8151   23.4343 C   0  0  0  0  0  0
  -21.9193   -4.6971   22.3401 C   0  0  0  0  0  0
  -22.7737  -13.5177   21.1907 C   0  0  0  0  0  0
  -22.1661   -4.2160   21.0975 F   0  0  0  0  0  0
  -21.5627   -3.4533   25.7736 F   0  0  0  0  0  0
  -29.8019  -14.2255   20.2852 N   0  0  0  0  0  0
  -26.2789  -12.9615   20.3212 N   0  0  0  0  0  0
  -25.9371  -11.6688   20.5687 N   0  0  0  0  0  0
  -22.0375  -12.8180   22.0457 N   0  0  0  0  0  0
  -25.3909  -15.2028   20.4214 N   0  0  0  0  0  0
  -31.5376  -15.5666   20.1621 O   0  0  0  0  0  0
  -21.6642   -6.8893   21.4243 O   0  0  0  0  0  0
  -22.3426  -14.5471   20.6726 O   0  0  0  0  0  0
  -24.6838  -31.8014   23.1524 C   0  0  0  0  0  0
  -25.9417  -32.4480   23.8077 C   0  0  1  0  0  0
  -27.2289  -26.7112   20.2108 C   0  0  0  0  0  0
  -25.5993  -33.8305   24.1958 N   0  0  0  0  0  0
  -23.5095  -30.4033   21.5071 C   0  0  2  0  0  0
  -24.9676  -28.7466   20.1193 C   0  0  0  0  0  0
  -22.7770  -29.4327   22.4725 C   0  0  0  0  0  0
  -18.0338  -28.1421   22.8454 C   0  0  0  0  0  0
  -24.1494  -36.7164   23.2651 C   0  0  0  0  0  0
  -26.0906  -30.5371   21.4160 C   0  0  0  0  0  0
  -26.1577  -29.1027   20.7651 C   0  0  0  0  0  0
  -27.2747  -28.1136   20.7774 C   0  0  0  0  0  0
  -26.0042  -26.5640   19.5098 C   0  0  0  0  0  0
  -24.9298  -27.5024   19.4678 C   0  0  0  0  0  0
  -23.7631  -29.7004   20.1427 C   0  0  0  0  0  0
  -25.4144  -36.2907   24.0281 C   0  0  1  0  0  0
  -20.5974  -28.3785   23.1142 C   0  0  2  0  0  0
  -20.6807  -26.9445   22.5404 C   0  0  0  0  0  0
  -19.5780  -26.6369   21.5219 C   0  0  0  0  0  0
  -18.1961  -26.7948   22.1619 C   0  0  0  0  0  0
  -19.1604  -28.8928   23.2777 C   0  0  0  0  0  0
  -18.9509  -30.1510   23.8824 C   0  0  0  0  0  0
  -17.6499  -30.6605   24.0547 C   0  0  0  0  0  0
  -25.9126  -34.9295   23.4959 C   0  0  0  0  0  0
  -16.5389  -29.9087   23.6349 C   0  0  0  0  0  0
  -16.7318  -28.6507   23.0371 C   0  0  0  0  0  0
  -26.4590  -31.6516   25.0701 C   0  0  0  0  0  0
  -25.3651  -31.3845   26.1317 C   0  0  0  0  0  0
  -27.0515  -30.2852   24.6603 C   0  0  0  0  0  0
  -27.6038  -32.4375   25.7522 C   0  0  0  0  0  0
  -27.5566  -37.1743   24.8462 C   0  0  0  0  0  0
  -21.4417  -29.3032   22.3468 N   0  0  0  0  0  0
  -26.4274  -37.3664   23.9402 N   0  0  0  0  0  0
  -24.7848  -30.9466   22.0775 N   0  0  0  0  0  0
  -23.4220  -28.7931   23.3068 O   0  0  0  0  0  0
  -28.1879  -25.4899   20.2657 O   0  0  0  0  0  0
  -26.5762  -34.8869   22.4574 O   0  0  0  0  0  0
  -23.5856  -32.1087   23.6473 O   0  0  0  0  0  0
  -29.5100  -19.6971   21.3327 C   0  0  0  0  0  0
  -29.1708  -21.1965   21.3109 C   0  0  0  0  0  0
  -28.6323  -22.0596   20.2152 C   0  0  0  0  0  0
  -28.5479  -20.9976   19.1598 C   0  0  0  0  0  0
  -29.4054  -18.6290   20.2966 C   0  0  0  0  0  0
  -28.8669  -19.4893   19.2069 C   0  0  0  0  0  0
  -29.3606  -21.9182   22.6319 C   0  0  0  0  0  0
  -28.0094  -21.5011   17.8254 C   0  0  0  0  0  0
  -27.8594  -23.7718   20.2179 C   0  0  0  0  0  0
  -29.4780  -16.9094   20.3836 N   0  0  0  0  0  0
  -28.4945  -18.5708   17.7864 Cl  0  0  0  0  0  0
  -31.4286  -13.3130   19.1787 H   0  0  0  0  0  0
  -30.5849  -12.1961   20.2006 H   0  0  0  0  0  0
  -30.0006  -11.8137   17.7812 H   0  0  0  0  0  0
  -29.5288  -13.4853   17.6121 H   0  0  0  0  0  0
  -28.1319  -11.3022   19.1748 H   0  0  0  0  0  0
  -27.4546  -12.2730   17.8901 H   0  0  0  0  0  0
  -27.4698  -14.2377   19.2603 H   0  0  0  0  0  0
  -28.8701  -12.7170   21.5086 H   0  0  0  0  0  0
  -28.1974  -14.3230   21.6440 H   0  0  0  0  0  0
  -25.2794   -9.5685   22.4769 H   0  0  0  0  0  0
  -24.0013   -7.4646   22.7490 H   0  0  0  0  0  0
  -21.0866   -8.8805   19.8960 H   0  0  0  0  0  0
  -22.3750  -10.9686   19.6166 H   0  0  0  0  0  0
  -21.2016   -7.6155   23.9723 H   0  0  0  0  0  0
  -21.1484   -6.0522   25.9079 H   0  0  0  0  0  0
  -22.0591   -2.7613   23.2833 H   0  0  0  0  0  0
  -22.3991  -11.9871   22.4900 H   0  0  0  0  0  0
  -21.0981  -13.1211   22.2606 H   0  0  0  0  0  0
  -24.6120  -15.8434   20.5278 H   0  0  0  0  0  0
  -26.2173  -15.6437   20.0415 H   0  0  0  0  0  0
  -26.7509  -32.4956   23.0800 H   0  0  0  0  0  0
  -25.0049  -33.9356   25.0048 H   0  0  0  0  0  0
  -22.8344  -31.2404   21.3173 H   0  0  0  0  0  0
  -23.3776  -35.9476   23.3272 H   0  0  0  0  0  0
  -24.3558  -36.8870   22.2074 H   0  0  0  0  0  0
  -23.7242  -37.6327   23.6756 H   0  0  0  0  0  0
  -26.2925  -31.2639   20.6282 H   0  0  0  0  0  0
  -26.9408  -30.6045   22.0822 H   0  0  0  0  0  0
  -28.1709  -28.3931   21.3132 H   0  0  0  0  0  0
  -25.8356  -25.6241   19.0045 H   0  0  0  0  0  0
  -24.0320  -27.2206   18.9347 H   0  0  0  0  0  0
  -23.9382  -30.4601   19.3801 H   0  0  0  0  0  0
  -22.8681  -29.1667   19.8181 H   0  0  0  0  0  0
  -25.1357  -36.1675   25.0774 H   0  0  0  0  0  0
  -21.0050  -28.3409   24.1270 H   0  0  0  0  0  0
  -20.5674  -26.2412   23.3669 H   0  0  0  0  0  0
  -21.6668  -26.7394   22.1220 H   0  0  0  0  0  0
  -19.6940  -25.6258   21.1300 H   0  0  0  0  0  0
  -19.6718  -27.3135   20.6714 H   0  0  0  0  0  0
  -17.4235  -26.6693   21.4018 H   0  0  0  0  0  0
  -18.0345  -26.0109   22.9030 H   0  0  0  0  0  0
  -19.7987  -30.7337   24.2170 H   0  0  0  0  0  0
  -17.5053  -31.6279   24.5160 H   0  0  0  0  0  0
  -15.5386  -30.2963   23.7716 H   0  0  0  0  0  0
  -15.8720  -28.0794   22.7137 H   0  0  0  0  0  0
  -24.5849  -30.7182   25.7622 H   0  0  0  0  0  0
  -24.8823  -32.3070   26.4546 H   0  0  0  0  0  0
  -25.7819  -30.9136   27.0229 H   0  0  0  0  0  0
  -26.3232  -29.6473   24.1586 H   0  0  0  0  0  0
  -27.3927  -29.7295   25.5348 H   0  0  0  0  0  0
  -27.9220  -30.3976   24.0139 H   0  0  0  0  0  0
  -27.2578  -33.3741   26.1908 H   0  0  0  0  0  0
  -28.3948  -32.6839   25.0427 H   0  0  0  0  0  0
  -28.0601  -31.8638   26.5599 H   0  0  0  0  0  0
  -28.2556  -38.0064   24.7507 H   0  0  0  0  0  0
  -28.1091  -36.2586   24.6294 H   0  0  0  0  0  0
  -27.2281  -37.1388   25.8865 H   0  0  0  0  0  0
  -20.9735  -29.8686   21.6524 H   0  0  0  0  0  0
  -26.0106  -38.2720   24.1396 H   0  0  0  0  0  0
  -29.8387  -19.3206   22.2904 H   0  0  0  0  0  0
  -29.9530  -21.3324   23.3357 H   0  0  0  0  0  0
  -28.3948  -22.1256   23.0932 H   0  0  0  0  0  0
  -29.8761  -22.8671   22.4788 H   0  0  0  0  0  0
  -28.0609  -22.5843   17.7361 H   0  0  0  0  0  0
  -26.9723  -21.1938   17.6909 H   0  0  0  0  0  0
  -28.5942  -21.1147   16.9910 H   0  0  0  0  0  0
  -27.1982  -23.6787   21.0796 H   0  0  0  0  0  0
  -27.1639  -23.7141   19.3830 H   0  0  0  0  0  0
  -28.5254  -16.5807   20.4337 H   0  0  0  0  0  0
  1 25  1  0  0  0
  1 30  2  0  0  0
  1 80  1  0  0  0
  2  3  1  0  0  0
  2 25  1  0  0  0
  2 82  1  0  0  0
  2 83  1  0  0  0
  3  4  1  0  0  0
  3 84  1  0  0  0
  3 85  1  0  0  0
  4  5  1  0  0  0
  4 86  1  0  0  0
  4 87  1  0  0  0
  5  6  1  0  0  0
  5 26  1  0  0  0
  5 88  1  0  0  0
  6 25  1  0  0  0
  6 89  1  0  0  0
  6 90  1  0  0  0
  7  8  2  0  0  0
  7 26  1  0  0  0
  7 29  1  0  0  0
  8  9  1  0  0  0
  8 22  1  0  0  0
  9 10  1  0  0  0
  9 27  2  0  0  0
 10 11  2  0  0  0
 10 15  1  0  0  0
 11 12  1  0  0  0
 11 91  1  0  0  0
 12 13  2  0  0  0
 12 92  1  0  0  0
 13 14  1  0  0  0
 13 31  1  0  0  0
 14 15  2  0  0  0
 14 93  1  0  0  0
 15 94  1  0  0  0
 16 17  2  0  0  0
 16 21  1  0  0  0
 16 31  1  0  0  0
 17 18  1  0  0  0
 17 95  1  0  0  0
 18 19  2  0  0  0
 18 96  1  0  0  0
 19 20  1  0  0  0
 19 24  1  0  0  0
 20 21  2  0  0  0
 20 97  1  0  0  0
 21 23  1  0  0  0
 22 28  1  0  0  0
 22 32  2  0  0  0
 26 27  1  0  0  0
 28 98  1  0  0  0
 28 99  1  0  0  0
 29100  1  0  0  0
 29101  1  0  0  0
 33 34  1  0  0  0
 33 66  1  0  0  0
 33 70  2  0  0  0
 34 36  1  0  0  0
 34 59  1  0  0  0
 34102  1  0  0  0
 35 44  2  0  0  0
 35 45  1  0  0  0
 35 68  1  0  0  0
 36 56  1  0  0  0
 36103  1  0  0  0
 37 39  1  0  0  0
 37 47  1  0  0  0
 37 66  1  0  0  0
 37104  1  0  0  0
 38 43  2  0  0  0
 38 46  1  0  0  0
 38 47  1  0  0  0
 39 64  1  0  0  0
 39 67  2  0  0  0
 40 52  1  0  0  0
 40 53  2  0  0  0
 40 58  1  0  0  0
 41105  1  0  0  0
 41106  1  0  0  0
 41107  1  0  0  0
 41 48  1  0  0  0
 42 43  1  0  0  0
 42 66  1  0  0  0
 42108  1  0  0  0
 42109  1  0  0  0
 43 44  1  0  0  0
 44110  1  0  0  0
 45 46  2  0  0  0
 45111  1  0  0  0
 46112  1  0  0  0
 47113  1  0  0  0
 47114  1  0  0  0
 48 56  1  0  0  0
 48 65  1  0  0  0
 48115  1  0  0  0
 49 50  1  0  0  0
 49 53  1  0  0  0
 49 64  1  0  0  0
 49116  1  0  0  0
 50 51  1  0  0  0
 50117  1  0  0  0
 50118  1  0  0  0
 51 52  1  0  0  0
 51119  1  0  0  0
 51120  1  0  0  0
 52121  1  0  0  0
 52122  1  0  0  0
 53 54  1  0  0  0
 54 55  2  0  0  0
 54123  1  0  0  0
 55 57  1  0  0  0
 55124  1  0  0  0
 56 69  2  0  0  0
 57 58  2  0  0  0
 57125  1  0  0  0
 58126  1  0  0  0
 59 60  1  0  0  0
 59 61  1  0  0  0
 59 62  1  0  0  0
 60127  1  0  0  0
 60128  1  0  0  0
 60129  1  0  0  0
 61130  1  0  0  0
 61131  1  0  0  0
 61132  1  0  0  0
 62133  1  0  0  0
 62134  1  0  0  0
 62135  1  0  0  0
 63 65  1  0  0  0
 63136  1  0  0  0
 63137  1  0  0  0
 63138  1  0  0  0
 64139  1  0  0  0
 65140  1  0  0  0
 68 79  1  0  0  0
 71 72  2  0  0  0
 71 75  1  0  0  0
 71141  1  0  0  0
 72 73  1  0  0  0
 72 77  1  0  0  0
 73 74  2  0  0  0
 73 79  1  0  0  0
 74 76  1  0  0  0
 74 78  1  0  0  0
 75 76  2  0  0  0
 75 80  1  0  0  0
 76 81  1  0  0  0
 77142  1  0  0  0
 77143  1  0  0  0
 77144  1  0  0  0
 78145  1  0  0  0
 78146  1  0  0  0
 78147  1  0  0  0
 79148  1  0  0  0
 79149  1  0  0  0
 80150  1  0  0  0
M  ISO  4   1 100  68 101  79 101  80 100
M  END
> <chiral flag>
0

> <version>
0

> <s_m_source_file>
/data/baiqing/PycharmProjects/Reinvent-master-3.2/result/LINK_invent/BTK/process_docking_weight1_custom_sum_contain_oxygen_bond_distance_aromatic_linkinvent_7_9_3/rearranged_h_0016.sdf

> <i_m_source_file_index>
36

> <r_mmod_Potential_Energy-OPLS-2005>
2270.41796875

> <r_mmod_Stretch_Energy-OPLS-2005>
928.454040527344

> <r_mmod_Bend_Energy-OPLS-2005>
647.606750488281

> <r_mmod_Torsional_Energy-OPLS-2005>
265.037506103516

> <r_mmod_Improper_Torsional_Energy-OPLS-2005>
10.5070247650146

> <r_mmod_Van_der_Waal_Energy-OPLS-2005>
134.255126953125

> <r_mmod_Electrostatic_Energy-OPLS-2005>
-369.675018310547

> <r_mmod_Solvation_Energy-OPLS-2005>
-208.952545166016

> <b_mmod_Minimization_Converged-OPLS-2005>
0

> <r_mmod_RMS_Derivative-OPLS-2005>
1.01162612438202

$$$$
36
                    3D
 Structure written by MMmdl.
159167  0  0  1  0            999 V2000
  -30.6460  -14.7172   20.4472 C   0  0  0  0  0  0
  -30.4184  -12.4338   19.4774 C   0  0  0  0  0  0
  -29.5044  -12.4987   18.2363 C   0  0  0  0  0  0
  -28.0300  -12.3335   18.6486 C   0  0  0  0  0  0
  -27.6379  -13.2365   19.8491 C   0  0  2  0  0  0
  -28.6818  -13.1804   20.9859 C   0  0  0  0  0  0
  -25.2479  -13.8207   20.5695 C   0  0  0  0  0  0
  -24.1779  -13.0443   20.9201 C   0  0  0  0  0  0
  -24.6380  -11.6927   20.8752 C   0  0  0  0  0  0
  -23.9059  -10.4297   21.0409 C   0  0  0  0  0  0
  -24.3615   -9.4212   21.9182 C   0  0  0  0  0  0
  -23.6298   -8.2244   22.0753 C   0  0  0  0  0  0
  -22.4280   -8.0279   21.3545 C   0  0  0  0  0  0
  -21.9910   -9.0247   20.4641 C   0  0  0  0  0  0
  -22.7235  -10.2129   20.3055 C   0  0  0  0  0  0
  -21.6853   -6.0734   22.5277 C   0  0  0  0  0  0
  -21.4014   -6.5637   23.8210 C   0  0  0  0  0  0
  -21.3664   -5.6790   24.9174 C   0  0  0  0  0  0
  -21.6047   -4.3052   24.7223 C   0  0  0  0  0  0
  -21.8821   -3.8144   23.4343 C   0  0  0  0  0  0
  -21.9191   -4.6961   22.3401 C   0  0  0  0  0  0
  -22.7799  -13.5216   21.1862 C   0  0  0  0  0  0
  -22.1660   -4.2147   21.0977 F   0  0  0  0  0  0
  -21.5633   -3.4535   25.7736 F   0  0  0  0  0  0
  -29.9856  -13.5107   20.3995 N   0  0  0  0  0  0
  -26.2913  -12.9427   20.3286 N   0  0  0  0  0  0
  -25.9311  -11.6562   20.5760 N   0  0  0  0  0  0
  -22.0449  -12.8209   22.0426 N   0  0  0  0  0  0
  -25.4146  -15.1932   20.4127 N   0  0  0  0  0  0
  -31.8417  -14.7381   20.1548 O   0  0  0  0  0  0
  -21.6646   -6.8879   21.4240 O   0  0  0  0  0  0
  -22.3476  -14.5516   20.6706 O   0  0  0  0  0  0
  -24.6295  -31.8545   23.1975 C   0  0  0  0  0  0
  -25.9130  -32.4745   23.8320 C   0  0  1  0  0  0
  -27.2237  -27.2760   20.1214 C   0  0  0  0  0  0
  -25.5931  -33.8547   24.2246 N   0  0  0  0  0  0
  -23.4247  -30.4765   21.5405 C   0  0  2  0  0  0
  -24.8707  -28.9219   20.1088 C   0  0  0  0  0  0
  -22.7489  -29.4596   22.4917 C   0  0  0  0  0  0
  -18.0283  -28.1388   22.8487 C   0  0  0  0  0  0
  -24.1484  -36.7282   23.2641 C   0  0  0  0  0  0
  -25.9686  -30.7726   21.3727 C   0  0  0  0  0  0
  -26.0392  -29.3956   20.7160 C   0  0  0  0  0  0
  -27.2146  -28.5834   20.7121 C   0  0  0  0  0  0
  -26.0270  -26.8567   19.4983 C   0  0  0  0  0  0
  -24.8689  -27.6603   19.4917 C   0  0  0  0  0  0
  -23.6401  -29.8068   20.1565 C   0  0  0  0  0  0
  -25.4113  -36.3062   24.0323 C   0  0  1  0  0  0
  -20.5887  -28.3688   23.1280 C   0  0  2  0  0  0
  -20.6777  -26.9405   22.5411 C   0  0  0  0  0  0
  -19.5745  -26.6381   21.5218 C   0  0  0  0  0  0
  -18.1927  -26.7932   22.1627 C   0  0  0  0  0  0
  -19.1538  -28.8859   23.2874 C   0  0  0  0  0  0
  -18.9459  -30.1464   23.8883 C   0  0  0  0  0  0
  -17.6457  -30.6587   24.0565 C   0  0  0  0  0  0
  -25.9053  -34.9433   23.5088 C   0  0  0  0  0  0
  -16.5348  -29.9085   23.6334 C   0  0  0  0  0  0
  -16.7268  -28.6503   23.0354 C   0  0  0  0  0  0
  -26.4506  -31.6578   25.0710 C   0  0  0  0  0  0
  -25.3734  -31.3737   26.1437 C   0  0  0  0  0  0
  -27.0365  -30.2995   24.6202 C   0  0  0  0  0  0
  -27.6051  -32.4333   25.7486 C   0  0  0  0  0  0
  -27.5574  -37.1796   24.8463 C   0  0  0  0  0  0
  -21.4197  -29.3034   22.3670 N   0  0  0  0  0  0
  -26.4286  -37.3762   23.9407 N   0  0  0  0  0  0
  -24.6935  -31.0531   22.0933 N   0  0  0  0  0  0
  -23.4203  -28.8138   23.3005 O   0  0  0  0  0  0
  -28.3568  -26.4402   20.1960 O   0  0  0  0  0  0
  -26.5616  -34.8912   22.4650 O   0  0  0  0  0  0
  -23.5453  -32.1354   23.7288 O   0  0  0  0  0  0
  -31.5928  -17.6843   20.0131 C   0  0  0  0  0  0
  -31.9972  -19.0238   19.8533 C   0  0  0  0  0  0
  -29.7572  -19.8496   20.4650 C   0  0  0  0  0  0
  -30.2877  -17.3261   20.4260 C   0  0  0  0  0  0
  -31.1058  -20.0926   20.0940 C   0  0  0  0  0  0
  -29.3774  -18.4452   20.6344 C   0  0  0  0  0  0
  -33.4322  -19.3047   19.4346 C   0  0  0  0  0  0
  -26.8499  -23.5696   21.0407 C   0  0  0  0  0  0
  -28.8170  -21.0987   20.8132 C   0  0  0  0  0  0
  -28.4409  -25.0481   19.6455 C   0  0  0  0  0  0
  -28.3105  -23.7285   20.5762 C   0  0  2  0  0  0
  -29.9162  -15.8901   20.6202 N   0  0  0  0  0  0
  -28.8505  -22.4012   19.9902 N   0  3  0  0  0  0
  -31.7220  -21.7092   19.9619 Cl  0  0  0  0  0  0
  -27.7714  -18.0652   21.1491 Cl  0  0  0  0  0  0
  -31.4629  -12.5301   19.1762 H   0  0  0  0  0  0
  -30.3401  -11.4606   19.9643 H   0  0  0  0  0  0
  -29.7822  -11.7231   17.5208 H   0  0  0  0  0  0
  -29.6417  -13.4524   17.7245 H   0  0  0  0  0  0
  -27.8819  -11.2858   18.9122 H   0  0  0  0  0  0
  -27.3733  -12.5266   17.7994 H   0  0  0  0  0  0
  -27.6294  -14.2570   19.4650 H   0  0  0  0  0  0
  -28.7091  -12.1898   21.4423 H   0  0  0  0  0  0
  -28.4229  -13.8791   21.7832 H   0  0  0  0  0  0
  -25.2757   -9.5692   22.4754 H   0  0  0  0  0  0
  -24.0008   -7.4637   22.7473 H   0  0  0  0  0  0
  -21.0840   -8.8757   19.8949 H   0  0  0  0  0  0
  -22.3685  -10.9663   19.6164 H   0  0  0  0  0  0
  -21.2008   -7.6146   23.9713 H   0  0  0  0  0  0
  -21.1484   -6.0521   25.9078 H   0  0  0  0  0  0
  -22.0597   -2.7605   23.2841 H   0  0  0  0  0  0
  -22.4074  -11.9876   22.4817 H   0  0  0  0  0  0
  -21.1062  -13.1222   22.2627 H   0  0  0  0  0  0
  -24.6484  -15.8449   20.5409 H   0  0  0  0  0  0
  -26.2670  -15.6441   20.1081 H   0  0  0  0  0  0
  -26.7197  -32.5394   23.1065 H   0  0  0  0  0  0
  -25.0103  -33.9685   25.0408 H   0  0  0  0  0  0
  -22.7200  -31.2979   21.3941 H   0  0  0  0  0  0
  -23.3743  -35.9617   23.3298 H   0  0  0  0  0  0
  -24.3581  -36.8909   22.2058 H   0  0  0  0  0  0
  -23.7244  -37.6485   23.6669 H   0  0  0  0  0  0
  -26.1064  -31.5328   20.6023 H   0  0  0  0  0  0
  -26.8481  -30.8217   22.0038 H   0  0  0  0  0  0
  -28.1115  -28.9433   21.1965 H   0  0  0  0  0  0
  -25.9445  -25.8871   19.0333 H   0  0  0  0  0  0
  -23.9696  -27.2895   19.0195 H   0  0  0  0  0  0
  -23.7596  -30.5809   19.3977 H   0  0  0  0  0  0
  -22.7591  -29.2362   19.8560 H   0  0  0  0  0  0
  -25.1299  -36.1905   25.0816 H   0  0  0  0  0  0
  -20.9978  -28.3258   24.1401 H   0  0  0  0  0  0
  -20.5688  -26.2285   23.3608 H   0  0  0  0  0  0
  -21.6645  -26.7433   22.1197 H   0  0  0  0  0  0
  -19.6897  -25.6293   21.1242 H   0  0  0  0  0  0
  -19.6692  -27.3197   20.6753 H   0  0  0  0  0  0
  -17.4201  -26.6684   21.4023 H   0  0  0  0  0  0
  -18.0308  -26.0079   22.9023 H   0  0  0  0  0  0
  -19.7936  -30.7289   24.2237 H   0  0  0  0  0  0
  -17.5008  -31.6262   24.5173 H   0  0  0  0  0  0
  -15.5348  -30.2984   23.7668 H   0  0  0  0  0  0
  -15.8665  -28.0823   22.7071 H   0  0  0  0  0  0
  -24.5902  -30.7088   25.7778 H   0  0  0  0  0  0
  -24.8937  -32.2914   26.4846 H   0  0  0  0  0  0
  -25.8056  -30.8929   27.0222 H   0  0  0  0  0  0
  -26.2955  -29.6728   24.1226 H   0  0  0  0  0  0
  -27.4050  -29.7270   25.4726 H   0  0  0  0  0  0
  -27.8824  -30.4269   23.9444 H   0  0  0  0  0  0
  -27.2641  -33.3638   26.2037 H   0  0  0  0  0  0
  -28.3875  -32.6891   25.0330 H   0  0  0  0  0  0
  -28.0706  -31.8484   26.5429 H   0  0  0  0  0  0
  -28.2588  -38.0095   24.7510 H   0  0  0  0  0  0
  -28.1073  -36.2628   24.6289 H   0  0  0  0  0  0
  -27.2292  -37.1442   25.8865 H   0  0  0  0  0  0
  -20.9367  -29.8758   21.6886 H   0  0  0  0  0  0
  -26.0158  -38.2830   24.1413 H   0  0  0  0  0  0
  -32.3447  -16.9405   19.8154 H   0  0  0  0  0  0
  -33.9961  -18.3868   19.2674 H   0  0  0  0  0  0
  -33.9511  -19.8751   20.2054 H   0  0  0  0  0  0
  -33.4552  -19.8791   18.5082 H   0  0  0  0  0  0
  -26.4757  -24.4965   21.4768 H   0  0  0  0  0  0
  -26.7452  -22.7962   21.8015 H   0  0  0  0  0  0
  -26.1928  -23.3129   20.2089 H   0  0  0  0  0  0
  -29.0572  -21.3632   21.8434 H   0  0  0  0  0  0
  -27.7808  -20.7633   20.8339 H   0  0  0  0  0  0
  -27.8130  -24.9375   18.7634 H   0  0  0  0  0  0
  -29.4494  -25.0153   19.2329 H   0  0  0  0  0  0
  -28.9178  -23.9228   21.4615 H   0  0  0  0  0  0
  -28.9476  -15.7420   20.8593 H   0  0  0  0  0  0
  -28.3974  -22.2131   19.1090 H   0  0  0  0  0  0
  -29.8295  -22.5500   19.7815 H   0  0  0  0  0  0
  1 25  1  0  0  0
  1 30  2  0  0  0
  1 82  1  0  0  0
  2  3  1  0  0  0
  2 25  1  0  0  0
  2 86  1  0  0  0
  2 87  1  0  0  0
  3  4  1  0  0  0
  3 88  1  0  0  0
  3 89  1  0  0  0
  4  5  1  0  0  0
  4 90  1  0  0  0
  4 91  1  0  0  0
  5  6  1  0  0  0
  5 26  1  0  0  0
  5 92  1  0  0  0
  6 25  1  0  0  0
  6 93  1  0  0  0
  6 94  1  0  0  0
  7  8  2  0  0  0
  7 26  1  0  0  0
  7 29  1  0  0  0
  8  9  1  0  0  0
  8 22  1  0  0  0
  9 10  1  0  0  0
  9 27  2  0  0  0
 10 11  2  0  0  0
 10 15  1  0  0  0
 11 12  1  0  0  0
 11 95  1  0  0  0
 12 13  2  0  0  0
 12 96  1  0  0  0
 13 14  1  0  0  0
 13 31  1  0  0  0
 14 15  2  0  0  0
 14 97  1  0  0  0
 15 98  1  0  0  0
 16 17  2  0  0  0
 16 21  1  0  0  0
 16 31  1  0  0  0
 17 18  1  0  0  0
 17 99  1  0  0  0
 18 19  2  0  0  0
 18100  1  0  0  0
 19 20  1  0  0  0
 19 24  1  0  0  0
 20 21  2  0  0  0
 20101  1  0  0  0
 21 23  1  0  0  0
 22 28  1  0  0  0
 22 32  2  0  0  0
 26 27  1  0  0  0
 28102  1  0  0  0
 28103  1  0  0  0
 29104  1  0  0  0
 29105  1  0  0  0
 33 34  1  0  0  0
 33 66  1  0  0  0
 33 70  2  0  0  0
 34 36  1  0  0  0
 34 59  1  0  0  0
 34106  1  0  0  0
 35 44  2  0  0  0
 35 45  1  0  0  0
 35 68  1  0  0  0
 36 56  1  0  0  0
 36107  1  0  0  0
 37 39  1  0  0  0
 37 47  1  0  0  0
 37 66  1  0  0  0
 37108  1  0  0  0
 38 43  2  0  0  0
 38 46  1  0  0  0
 38 47  1  0  0  0
 39 64  1  0  0  0
 39 67  2  0  0  0
 40 52  1  0  0  0
 40 53  2  0  0  0
 40 58  1  0  0  0
 41109  1  0  0  0
 41110  1  0  0  0
 41111  1  0  0  0
 41 48  1  0  0  0
 42 43  1  0  0  0
 42 66  1  0  0  0
 42112  1  0  0  0
 42113  1  0  0  0
 43 44  1  0  0  0
 44114  1  0  0  0
 45 46  2  0  0  0
 45115  1  0  0  0
 46116  1  0  0  0
 47117  1  0  0  0
 47118  1  0  0  0
 48 56  1  0  0  0
 48 65  1  0  0  0
 48119  1  0  0  0
 49 50  1  0  0  0
 49 53  1  0  0  0
 49 64  1  0  0  0
 49120  1  0  0  0
 50 51  1  0  0  0
 50121  1  0  0  0
 50122  1  0  0  0
 51 52  1  0  0  0
 51123  1  0  0  0
 51124  1  0  0  0
 52125  1  0  0  0
 52126  1  0  0  0
 53 54  1  0  0  0
 54 55  2  0  0  0
 54127  1  0  0  0
 55 57  1  0  0  0
 55128  1  0  0  0
 56 69  2  0  0  0
 57 58  2  0  0  0
 57129  1  0  0  0
 58130  1  0  0  0
 59 60  1  0  0  0
 59 61  1  0  0  0
 59 62  1  0  0  0
 60131  1  0  0  0
 60132  1  0  0  0
 60133  1  0  0  0
 61134  1  0  0  0
 61135  1  0  0  0
 61136  1  0  0  0
 62137  1  0  0  0
 62138  1  0  0  0
 62139  1  0  0  0
 63 65  1  0  0  0
 63140  1  0  0  0
 63141  1  0  0  0
 63142  1  0  0  0
 64143  1  0  0  0
 65144  1  0  0  0
 68 80  1  0  0  0
 71 72  2  0  0  0
 71 74  1  0  0  0
 71145  1  0  0  0
 72 75  1  0  0  0
 72 77  1  0  0  0
 73 75  2  0  0  0
 73 76  1  0  0  0
 73 79  1  0  0  0
 74 76  2  0  0  0
 74 82  1  0  0  0
 75 84  1  0  0  0
 76 85  1  0  0  0
 77146  1  0  0  0
 77147  1  0  0  0
 77148  1  0  0  0
 78149  1  0  0  0
 78150  1  0  0  0
 78151  1  0  0  0
 78 81  1  0  0  0
 79 83  1  0  0  0
 79152  1  0  0  0
 79153  1  0  0  0
 80 81  1  0  0  0
 80154  1  0  0  0
 80155  1  0  0  0
 81 83  1  0  0  0
 81156  1  0  0  0
 82157  1  0  0  0
 83158  1  0  0  0
 83159  1  0  0  0
M  CHG  1  83   1
M  ISO  4   1 100  68 101  80 101  82 100
M  END
> <chiral flag>
0

> <version>
0

> <s_m_source_file>
/data/baiqing/PycharmProjects/Reinvent-master-3.2/result/LINK_invent/BTK/process_docking_weight1_custom_sum_contain_oxygen_bond_distance_aromatic_linkinvent_7_9_3/rearranged_h_0016.sdf

> <i_m_source_file_index>
37

> <r_mmod_Potential_Energy-OPLS-2005>
-46.2703666687012

> <r_mmod_Stretch_Energy-OPLS-2005>
125.045333862305

> <r_mmod_Bend_Energy-OPLS-2005>
174.729095458984

> <r_mmod_Torsional_Energy-OPLS-2005>
206.457931518555

> <r_mmod_Improper_Torsional_Energy-OPLS-2005>
4.85166072845459

> <r_mmod_Van_der_Waal_Energy-OPLS-2005>
149.508834838867

> <r_mmod_Electrostatic_Energy-OPLS-2005>
-337.751220703125

> <r_mmod_Solvation_Energy-OPLS-2005>
-443.147369384766

> <b_mmod_Minimization_Converged-OPLS-2005>
0

> <r_mmod_RMS_Derivative-OPLS-2005>
0.955882012844086

$$$$
37
                    3D
 Structure written by MMmdl.
152160  0  0  1  0            999 V2000
  -30.5277  -14.8991   20.4354 C   0  0  0  0  0  0
  -30.4472  -12.5525   19.4966 C   0  0  0  0  0  0
  -29.5244  -12.5363   18.2547 C   0  0  0  0  0  0
  -28.0536  -12.3299   18.6659 C   0  0  0  0  0  0
  -27.6391  -13.2417   19.8502 C   0  0  2  0  0  0
  -28.6807  -13.2168   20.9901 C   0  0  0  0  0  0
  -25.2498  -13.8206   20.5701 C   0  0  0  0  0  0
  -24.1797  -13.0442   20.9209 C   0  0  0  0  0  0
  -24.6401  -11.6921   20.8739 C   0  0  0  0  0  0
  -23.9078  -10.4295   21.0402 C   0  0  0  0  0  0
  -24.3625   -9.4210   21.9182 C   0  0  0  0  0  0
  -23.6296   -8.2248   22.0753 C   0  0  0  0  0  0
  -22.4277   -8.0284   21.3545 C   0  0  0  0  0  0
  -21.9916   -9.0259   20.4649 C   0  0  0  0  0  0
  -22.7247  -10.2137   20.3055 C   0  0  0  0  0  0
  -21.6856   -6.0737   22.5278 C   0  0  0  0  0  0
  -21.4018   -6.5640   23.8211 C   0  0  0  0  0  0
  -21.3660   -5.6793   24.9172 C   0  0  0  0  0  0
  -21.6041   -4.3055   24.7223 C   0  0  0  0  0  0
  -21.8819   -3.8148   23.4344 C   0  0  0  0  0  0
  -21.9195   -4.6965   22.3402 C   0  0  0  0  0  0
  -22.7818  -13.5218   21.1867 C   0  0  0  0  0  0
  -22.1661   -4.2152   21.0979 F   0  0  0  0  0  0
  -21.5629   -3.4537   25.7735 F   0  0  0  0  0  0
  -29.9688  -13.6256   20.4116 N   0  0  0  0  0  0
  -26.2927  -12.9427   20.3269 N   0  0  0  0  0  0
  -25.9335  -11.6561   20.5735 N   0  0  0  0  0  0
  -22.0466  -12.8211   22.0425 N   0  0  0  0  0  0
  -25.4181  -15.1932   20.4131 N   0  0  0  0  0  0
  -31.7040  -15.0229   20.0759 O   0  0  0  0  0  0
  -21.6641   -6.8880   21.4240 O   0  0  0  0  0  0
  -22.3500  -14.5522   20.6711 O   0  0  0  0  0  0
  -24.6415  -31.8453   23.1898 C   0  0  0  0  0  0
  -25.9194  -32.4702   23.8279 C   0  0  1  0  0  0
  -27.2193  -27.1524   20.1442 C   0  0  0  0  0  0
  -25.5949  -33.8507   24.2199 N   0  0  0  0  0  0
  -23.4444  -30.4648   21.5348 C   0  0  2  0  0  0
  -24.8944  -28.8954   20.1079 C   0  0  0  0  0  0
  -22.7559  -29.4548   22.4865 C   0  0  0  0  0  0
  -18.0304  -28.1389   22.8482 C   0  0  0  0  0  0
  -24.1491  -36.7258   23.2643 C   0  0  0  0  0  0
  -25.9991  -30.7221   21.3887 C   0  0  0  0  0  0
  -26.0697  -29.3355   20.7293 C   0  0  0  0  0  0
  -27.2309  -28.4777   20.7352 C   0  0  0  0  0  0
  -26.0223  -26.8171   19.4715 C   0  0  0  0  0  0
  -24.8826  -27.6491   19.4647 C   0  0  0  0  0  0
  -23.6699  -29.7949   20.1533 C   0  0  0  0  0  0
  -25.4123  -36.3037   24.0319 C   0  0  1  0  0  0
  -20.5915  -28.3713   23.1241 C   0  0  2  0  0  0
  -20.6786  -26.9417   22.5405 C   0  0  0  0  0  0
  -19.5759  -26.6377   21.5213 C   0  0  0  0  0  0
  -18.1941  -26.7929   22.1625 C   0  0  0  0  0  0
  -19.1560  -28.8870   23.2854 C   0  0  0  0  0  0
  -18.9476  -30.1467   23.8876 C   0  0  0  0  0  0
  -17.6473  -30.6588   24.0556 C   0  0  0  0  0  0
  -25.9070  -34.9411   23.5067 C   0  0  0  0  0  0
  -16.5364  -29.9079   23.6334 C   0  0  0  0  0  0
  -16.7288  -28.6496   23.0358 C   0  0  0  0  0  0
  -26.4522  -31.6567   25.0717 C   0  0  0  0  0  0
  -25.3707  -31.3759   26.1414 C   0  0  0  0  0  0
  -27.0388  -30.2963   24.6299 C   0  0  0  0  0  0
  -27.6050  -32.4337   25.7501 C   0  0  0  0  0  0
  -27.5577  -37.1786   24.8466 C   0  0  0  0  0  0
  -21.4253  -29.3043   22.3615 N   0  0  0  0  0  0
  -26.4289  -37.3747   23.9407 N   0  0  0  0  0  0
  -24.7144  -31.0319   22.0927 N   0  0  0  0  0  0
  -23.4209  -28.8095   23.3009 O   0  0  0  0  0  0
  -28.2753  -26.1768   20.2371 O   0  0  0  0  0  0
  -26.5653  -34.8907   22.4644 O   0  0  0  0  0  0
  -23.5537  -32.1326   23.7126 O   0  0  0  0  0  0
  -29.4922  -18.4636   21.6024 C   0  0  0  0  0  0
  -29.3950  -19.5833   19.1001 C   0  0  0  0  0  0
  -29.2507  -19.8944   21.4363 C   0  0  0  0  0  0
  -29.7051  -17.5133   20.5410 C   0  0  0  0  0  0
  -29.1632  -20.5379   20.1529 C   0  0  0  0  0  0
  -29.6508  -18.1624   19.2654 C   0  0  0  0  0  0
  -29.0181  -20.7228   22.6854 C   0  0  0  0  0  0
  -28.9146  -23.3431   20.5016 C   0  0  0  0  0  0
  -28.0602  -24.6720   19.9220 C   0  0  0  0  0  0
  -29.7140  -16.0021   20.7731 N   0  0  0  0  0  0
  -28.7936  -21.9446   19.8285 N   0  0  0  0  0  0
  -29.8054  -17.1995   17.8383 Cl  0  0  0  0  0  0
  -31.4818  -12.7118   19.1887 H   0  0  0  0  0  0
  -30.4336  -11.5852   20.0014 H   0  0  0  0  0  0
  -29.8337  -11.7523   17.5622 H   0  0  0  0  0  0
  -29.6234  -13.4792   17.7143 H   0  0  0  0  0  0
  -27.9339  -11.2832   18.9478 H   0  0  0  0  0  0
  -27.3949  -12.4925   17.8119 H   0  0  0  0  0  0
  -27.6194  -14.2557   19.4496 H   0  0  0  0  0  0
  -28.7509  -12.2222   21.4331 H   0  0  0  0  0  0
  -28.3841  -13.8881   21.7975 H   0  0  0  0  0  0
  -25.2770   -9.5686   22.4757 H   0  0  0  0  0  0
  -24.0005   -7.4638   22.7474 H   0  0  0  0  0  0
  -21.0846   -8.8779   19.8955 H   0  0  0  0  0  0
  -22.3703  -10.9676   19.6164 H   0  0  0  0  0  0
  -21.2011   -7.6148   23.9714 H   0  0  0  0  0  0
  -21.1482   -6.0522   25.9075 H   0  0  0  0  0  0
  -22.0598   -2.7610   23.2842 H   0  0  0  0  0  0
  -22.4087  -11.9879   22.4823 H   0  0  0  0  0  0
  -21.1082  -13.1235   22.2628 H   0  0  0  0  0  0
  -24.6478  -15.8441   20.5198 H   0  0  0  0  0  0
  -26.2600  -15.6329   20.0645 H   0  0  0  0  0  0
  -26.7257  -32.5312   23.1006 H   0  0  0  0  0  0
  -25.0075  -33.9625   25.0332 H   0  0  0  0  0  0
  -22.7462  -31.2903   21.3815 H   0  0  0  0  0  0
  -23.3760  -35.9583   23.3296 H   0  0  0  0  0  0
  -24.3575  -36.8897   22.2058 H   0  0  0  0  0  0
  -23.7244  -37.6452   23.6683 H   0  0  0  0  0  0
  -26.1556  -31.4782   20.6181 H   0  0  0  0  0  0
  -26.8693  -30.7702   22.0316 H   0  0  0  0  0  0
  -28.1228  -28.8055   21.2505 H   0  0  0  0  0  0
  -25.9314  -25.8718   18.9583 H   0  0  0  0  0  0
  -23.9870  -27.3104   18.9621 H   0  0  0  0  0  0
  -23.8036  -30.5696   19.3975 H   0  0  0  0  0  0
  -22.7856  -29.2349   19.8440 H   0  0  0  0  0  0
  -25.1312  -36.1867   25.0813 H   0  0  0  0  0  0
  -21.0009  -28.3299   24.1362 H   0  0  0  0  0  0
  -20.5676  -26.2325   23.3622 H   0  0  0  0  0  0
  -21.6651  -26.7419   22.1204 H   0  0  0  0  0  0
  -19.6915  -25.6281   21.1256 H   0  0  0  0  0  0
  -19.6694  -27.3175   20.6733 H   0  0  0  0  0  0
  -17.4208  -26.6676   21.4030 H   0  0  0  0  0  0
  -18.0337  -26.0076   22.9026 H   0  0  0  0  0  0
  -19.7952  -30.7289   24.2236 H   0  0  0  0  0  0
  -17.5024  -31.6268   24.5157 H   0  0  0  0  0  0
  -15.5362  -30.2970   23.7671 H   0  0  0  0  0  0
  -15.8690  -28.0804   22.7087 H   0  0  0  0  0  0
  -24.5888  -30.7107   25.7736 H   0  0  0  0  0  0
  -24.8893  -32.2942   26.4785 H   0  0  0  0  0  0
  -25.7988  -30.8968   27.0226 H   0  0  0  0  0  0
  -26.3006  -29.6685   24.1296 H   0  0  0  0  0  0
  -27.3990  -29.7268   25.4877 H   0  0  0  0  0  0
  -27.8920  -30.4202   23.9625 H   0  0  0  0  0  0
  -27.2638  -33.3652   26.2030 H   0  0  0  0  0  0
  -28.3883  -32.6875   25.0346 H   0  0  0  0  0  0
  -28.0693  -31.8496   26.5458 H   0  0  0  0  0  0
  -28.2590  -38.0086   24.7506 H   0  0  0  0  0  0
  -28.1078  -36.2615   24.6300 H   0  0  0  0  0  0
  -27.2292  -37.1442   25.8868 H   0  0  0  0  0  0
  -20.9457  -29.8762   21.6804 H   0  0  0  0  0  0
  -26.0159  -38.2819   24.1402 H   0  0  0  0  0  0
  -29.4784  -18.0698   22.6086 H   0  0  0  0  0  0
  -29.3438  -19.9407   18.0825 H   0  0  0  0  0  0
  -29.0562  -20.1151   23.5894 H   0  0  0  0  0  0
  -28.0391  -21.2007   22.6453 H   0  0  0  0  0  0
  -29.7793  -21.4979   22.7712 H   0  0  0  0  0  0
  -28.6894  -23.2403   21.5627 H   0  0  0  0  0  0
  -29.9731  -23.6017   20.4585 H   0  0  0  0  0  0
  -27.0252  -24.4439   20.1745 H   0  0  0  0  0  0
  -28.1062  -24.6150   18.8340 H   0  0  0  0  0  0
  -28.8649  -15.6831   21.2139 H   0  0  0  0  0  0
  -28.5921  -22.0579   18.8377 H   0  0  0  0  0  0
  1 25  1  0  0  0
  1 30  2  0  0  0
  1 80  1  0  0  0
  2  3  1  0  0  0
  2 25  1  0  0  0
  2 83  1  0  0  0
  2 84  1  0  0  0
  3  4  1  0  0  0
  3 85  1  0  0  0
  3 86  1  0  0  0
  4  5  1  0  0  0
  4 87  1  0  0  0
  4 88  1  0  0  0
  5  6  1  0  0  0
  5 26  1  0  0  0
  5 89  1  0  0  0
  6 25  1  0  0  0
  6 90  1  0  0  0
  6 91  1  0  0  0
  7  8  2  0  0  0
  7 26  1  0  0  0
  7 29  1  0  0  0
  8  9  1  0  0  0
  8 22  1  0  0  0
  9 10  1  0  0  0
  9 27  2  0  0  0
 10 11  2  0  0  0
 10 15  1  0  0  0
 11 12  1  0  0  0
 11 92  1  0  0  0
 12 13  2  0  0  0
 12 93  1  0  0  0
 13 14  1  0  0  0
 13 31  1  0  0  0
 14 15  2  0  0  0
 14 94  1  0  0  0
 15 95  1  0  0  0
 16 17  2  0  0  0
 16 21  1  0  0  0
 16 31  1  0  0  0
 17 18  1  0  0  0
 17 96  1  0  0  0
 18 19  2  0  0  0
 18 97  1  0  0  0
 19 20  1  0  0  0
 19 24  1  0  0  0
 20 21  2  0  0  0
 20 98  1  0  0  0
 21 23  1  0  0  0
 22 28  1  0  0  0
 22 32  2  0  0  0
 26 27  1  0  0  0
 28 99  1  0  0  0
 28100  1  0  0  0
 29101  1  0  0  0
 29102  1  0  0  0
 33 34  1  0  0  0
 33 66  1  0  0  0
 33 70  2  0  0  0
 34 36  1  0  0  0
 34 59  1  0  0  0
 34103  1  0  0  0
 35 44  2  0  0  0
 35 45  1  0  0  0
 35 68  1  0  0  0
 36 56  1  0  0  0
 36104  1  0  0  0
 37 39  1  0  0  0
 37 47  1  0  0  0
 37 66  1  0  0  0
 37105  1  0  0  0
 38 43  2  0  0  0
 38 46  1  0  0  0
 38 47  1  0  0  0
 39 64  1  0  0  0
 39 67  2  0  0  0
 40 52  1  0  0  0
 40 53  2  0  0  0
 40 58  1  0  0  0
 41106  1  0  0  0
 41107  1  0  0  0
 41108  1  0  0  0
 41 48  1  0  0  0
 42 43  1  0  0  0
 42 66  1  0  0  0
 42109  1  0  0  0
 42110  1  0  0  0
 43 44  1  0  0  0
 44111  1  0  0  0
 45 46  2  0  0  0
 45112  1  0  0  0
 46113  1  0  0  0
 47114  1  0  0  0
 47115  1  0  0  0
 48 56  1  0  0  0
 48 65  1  0  0  0
 48116  1  0  0  0
 49 50  1  0  0  0
 49 53  1  0  0  0
 49 64  1  0  0  0
 49117  1  0  0  0
 50 51  1  0  0  0
 50118  1  0  0  0
 50119  1  0  0  0
 51 52  1  0  0  0
 51120  1  0  0  0
 51121  1  0  0  0
 52122  1  0  0  0
 52123  1  0  0  0
 53 54  1  0  0  0
 54 55  2  0  0  0
 54124  1  0  0  0
 55 57  1  0  0  0
 55125  1  0  0  0
 56 69  2  0  0  0
 57 58  2  0  0  0
 57126  1  0  0  0
 58127  1  0  0  0
 59 60  1  0  0  0
 59 61  1  0  0  0
 59 62  1  0  0  0
 60128  1  0  0  0
 60129  1  0  0  0
 60130  1  0  0  0
 61131  1  0  0  0
 61132  1  0  0  0
 61133  1  0  0  0
 62134  1  0  0  0
 62135  1  0  0  0
 62136  1  0  0  0
 63 65  1  0  0  0
 63137  1  0  0  0
 63138  1  0  0  0
 63139  1  0  0  0
 64140  1  0  0  0
 65141  1  0  0  0
 68 79  1  0  0  0
 71 73  2  0  0  0
 71 74  1  0  0  0
 71142  1  0  0  0
 72 75  2  0  0  0
 72 76  1  0  0  0
 72143  1  0  0  0
 73 75  1  0  0  0
 73 77  1  0  0  0
 74 76  2  0  0  0
 74 80  1  0  0  0
 75 81  1  0  0  0
 76 82  1  0  0  0
 77144  1  0  0  0
 77145  1  0  0  0
 77146  1  0  0  0
 78 79  1  0  0  0
 78 81  1  0  0  0
 78147  1  0  0  0
 78148  1  0  0  0
 79149  1  0  0  0
 79150  1  0  0  0
 80151  1  0  0  0
 81152  1  0  0  0
M  ISO  4   1 100  68 101  79 101  80 100
M  END
> <chiral flag>
0

> <version>
0

> <s_m_source_file>
/data/baiqing/PycharmProjects/Reinvent-master-3.2/result/LINK_invent/BTK/process_docking_weight1_custom_sum_contain_oxygen_bond_distance_aromatic_linkinvent_7_9_3/rearranged_h_0016.sdf

> <i_m_source_file_index>
38

> <r_mmod_Potential_Energy-OPLS-2005>
377.905944824219

> <r_mmod_Stretch_Energy-OPLS-2005>
210.223861694336

> <r_mmod_Bend_Energy-OPLS-2005>
262.179626464844

> <r_mmod_Torsional_Energy-OPLS-2005>
232.819290161133

> <r_mmod_Improper_Torsional_Energy-OPLS-2005>
5.38775730133057

> <r_mmod_Van_der_Waal_Energy-OPLS-2005>
130.421096801758

> <r_mmod_Electrostatic_Energy-OPLS-2005>
-406.198516845703

> <r_mmod_Solvation_Energy-OPLS-2005>
-225.826232910156

> <b_mmod_Minimization_Converged-OPLS-2005>
0

> <r_mmod_RMS_Derivative-OPLS-2005>
0.517875671386719

$$$$
38
                    3D
 Structure written by MMmdl.
155163  0  0  1  0            999 V2000
  -30.4861  -15.0508   20.3855 C   0  0  0  0  0  0
  -30.4433  -12.6455   19.5326 C   0  0  0  0  0  0
  -29.5359  -12.5369   18.2828 C   0  0  0  0  0  0
  -28.0694  -12.3135   18.6932 C   0  0  0  0  0  0
  -27.6287  -13.2550   19.8432 C   0  0  2  0  0  0
  -28.6633  -13.3191   20.9877 C   0  0  0  0  0  0
  -25.2459  -13.8226   20.5724 C   0  0  0  0  0  0
  -24.1773  -13.0447   20.9226 C   0  0  0  0  0  0
  -24.6391  -11.6932   20.8752 C   0  0  0  0  0  0
  -23.9074  -10.4299   21.0405 C   0  0  0  0  0  0
  -24.3626   -9.4213   21.9181 C   0  0  0  0  0  0
  -23.6298   -8.2248   22.0750 C   0  0  0  0  0  0
  -22.4277   -8.0283   21.3544 C   0  0  0  0  0  0
  -21.9915   -9.0256   20.4647 C   0  0  0  0  0  0
  -22.7246  -10.2136   20.3055 C   0  0  0  0  0  0
  -21.6857   -6.0733   22.5274 C   0  0  0  0  0  0
  -21.4020   -6.5635   23.8208 C   0  0  0  0  0  0
  -21.3662   -5.6788   24.9170 C   0  0  0  0  0  0
  -21.6043   -4.3049   24.7222 C   0  0  0  0  0  0
  -21.8820   -3.8144   23.4342 C   0  0  0  0  0  0
  -21.9194   -4.6961   22.3400 C   0  0  0  0  0  0
  -22.7792  -13.5212   21.1880 C   0  0  0  0  0  0
  -22.1662   -4.2147   21.0977 F   0  0  0  0  0  0
  -21.5629   -3.4533   25.7735 F   0  0  0  0  0  0
  -29.9345  -13.7589   20.3976 N   0  0  0  0  0  0
  -26.2879  -12.9464   20.3254 N   0  0  0  0  0  0
  -25.9325  -11.6588   20.5737 N   0  0  0  0  0  0
  -22.0452  -12.8194   22.0441 N   0  0  0  0  0  0
  -25.4138  -15.1954   20.4167 N   0  0  0  0  0  0
  -31.6701  -15.1216   20.0342 O   0  0  0  0  0  0
  -21.6642   -6.8878   21.4238 O   0  0  0  0  0  0
  -22.3473  -14.5516   20.6729 O   0  0  0  0  0  0
  -24.6475  -31.8359   23.1801 C   0  0  0  0  0  0
  -25.9221  -32.4653   23.8221 C   0  0  1  0  0  0
  -27.2245  -27.0717   20.1637 C   0  0  0  0  0  0
  -25.5949  -33.8459   24.2142 N   0  0  0  0  0  0
  -23.4550  -30.4492   21.5259 C   0  0  2  0  0  0
  -24.9073  -28.8575   20.1047 C   0  0  0  0  0  0
  -22.7588  -29.4499   22.4836 C   0  0  0  0  0  0
  -18.0308  -28.1403   22.8475 C   0  0  0  0  0  0
  -24.1490  -36.7234   23.2646 C   0  0  0  0  0  0
  -26.0118  -30.6871   21.3884 C   0  0  0  0  0  0
  -26.0805  -29.2908   20.7324 C   0  0  0  0  0  0
  -27.2322  -28.4112   20.7469 C   0  0  0  0  0  0
  -26.0291  -26.7482   19.4886 C   0  0  0  0  0  0
  -24.8980  -27.6036   19.4667 C   0  0  0  0  0  0
  -23.6848  -29.7673   20.1478 C   0  0  0  0  0  0
  -25.4125  -36.3010   24.0314 C   0  0  1  0  0  0
  -20.5923  -28.3731   23.1233 C   0  0  2  0  0  0
  -20.6787  -26.9428   22.5416 C   0  0  0  0  0  0
  -19.5763  -26.6385   21.5219 C   0  0  0  0  0  0
  -18.1944  -26.7941   22.1624 C   0  0  0  0  0  0
  -19.1566  -28.8886   23.2841 C   0  0  0  0  0  0
  -18.9482  -30.1483   23.8867 C   0  0  0  0  0  0
  -17.6477  -30.6595   24.0564 C   0  0  0  0  0  0
  -25.9078  -34.9387   23.5045 C   0  0  0  0  0  0
  -16.5367  -29.9088   23.6341 C   0  0  0  0  0  0
  -16.7293  -28.6510   23.0355 C   0  0  0  0  0  0
  -26.4526  -31.6551   25.0693 C   0  0  0  0  0  0
  -25.3700  -31.3766   26.1390 C   0  0  0  0  0  0
  -27.0411  -30.2945   24.6322 C   0  0  0  0  0  0
  -27.6047  -32.4335   25.7479 C   0  0  0  0  0  0
  -27.5574  -37.1772   24.8464 C   0  0  0  0  0  0
  -21.4275  -29.3035   22.3588 N   0  0  0  0  0  0
  -26.4281  -37.3732   23.9416 N   0  0  0  0  0  0
  -24.7248  -31.0148   22.0864 N   0  0  0  0  0  0
  -23.4202  -28.8069   23.3025 O   0  0  0  0  0  0
  -28.2852  -26.0873   20.3092 O   0  0  0  0  0  0
  -26.5676  -34.8897   22.4634 O   0  0  0  0  0  0
  -23.5583  -32.1271   23.6984 O   0  0  0  0  0  0
  -28.5981  -20.1538   18.7558 C   0  0  0  0  0  0
  -28.5935  -18.8976   18.1004 C   0  0  0  0  0  0
  -29.0646  -20.3330   20.0696 C   0  0  0  0  0  0
  -29.5011  -17.6543   20.0638 C   0  0  0  0  0  0
  -29.0359  -17.6932   18.7198 C   0  0  0  0  0  0
  -29.4916  -19.0197   20.7088 C   0  0  0  0  0  0
  -28.0769  -18.8564   16.6698 C   0  0  0  0  0  0
  -30.3225  -22.0498   21.3289 C   0  0  0  0  0  0
  -28.1508  -23.0298   20.4371 C   0  0  0  0  0  0
  -28.4363  -24.5996   19.7783 C   0  0  0  0  0  0
  -29.7202  -16.2330   20.6934 N   0  0  0  0  0  0
  -29.1420  -21.7817   20.5167 N   0  0  0  0  0  0
  -28.9173  -16.2293   17.7985 Cl  0  0  0  0  0  0
  -29.9897  -19.0477   22.3647 Cl  0  0  0  0  0  0
  -31.4770  -12.8085   19.2237 H   0  0  0  0  0  0
  -30.4491  -11.7048   20.0856 H   0  0  0  0  0  0
  -29.8723  -11.7234   17.6387 H   0  0  0  0  0  0
  -29.6186  -13.4479   17.6899 H   0  0  0  0  0  0
  -27.9763  -11.2761   19.0162 H   0  0  0  0  0  0
  -27.4104  -12.4268   17.8315 H   0  0  0  0  0  0
  -27.5805  -14.2489   19.4000 H   0  0  0  0  0  0
  -28.7677  -12.3511   21.4800 H   0  0  0  0  0  0
  -28.3388  -14.0219   21.7567 H   0  0  0  0  0  0
  -25.2773   -9.5685   22.4756 H   0  0  0  0  0  0
  -24.0006   -7.4639   22.7469 H   0  0  0  0  0  0
  -21.0842   -8.8775   19.8957 H   0  0  0  0  0  0
  -22.3699  -10.9673   19.6166 H   0  0  0  0  0  0
  -21.2015   -7.6145   23.9706 H   0  0  0  0  0  0
  -21.1484   -6.0521   25.9070 H   0  0  0  0  0  0
  -22.0599   -2.7605   23.2840 H   0  0  0  0  0  0
  -22.4071  -11.9852   22.4822 H   0  0  0  0  0  0
  -21.1071  -13.1211   22.2660 H   0  0  0  0  0  0
  -24.6425  -15.8455   20.5212 H   0  0  0  0  0  0
  -26.2509  -15.6305   20.0528 H   0  0  0  0  0  0
  -26.7282  -32.5232   23.0933 H   0  0  0  0  0  0
  -25.0063  -33.9562   25.0272 H   0  0  0  0  0  0
  -22.7602  -31.2763   21.3645 H   0  0  0  0  0  0
  -23.3763  -35.9554   23.3287 H   0  0  0  0  0  0
  -24.3569  -36.8891   22.2064 H   0  0  0  0  0  0
  -23.7236  -37.6417   23.6701 H   0  0  0  0  0  0
  -26.1750  -31.4354   20.6116 H   0  0  0  0  0  0
  -26.8786  -30.7398   22.0355 H   0  0  0  0  0  0
  -28.1204  -28.7319   21.2724 H   0  0  0  0  0  0
  -25.9372  -25.7808   19.0163 H   0  0  0  0  0  0
  -24.0007  -27.2663   18.9663 H   0  0  0  0  0  0
  -23.8257  -30.5379   19.3892 H   0  0  0  0  0  0
  -22.7971  -29.2128   19.8377 H   0  0  0  0  0  0
  -25.1317  -36.1824   25.0805 H   0  0  0  0  0  0
  -21.0014  -28.3331   24.1355 H   0  0  0  0  0  0
  -20.5678  -26.2341   23.3638 H   0  0  0  0  0  0
  -21.6653  -26.7424   22.1220 H   0  0  0  0  0  0
  -19.6921  -25.6289   21.1265 H   0  0  0  0  0  0
  -19.6704  -27.3180   20.6737 H   0  0  0  0  0  0
  -17.4216  -26.6695   21.4023 H   0  0  0  0  0  0
  -18.0332  -26.0088   22.9022 H   0  0  0  0  0  0
  -19.7958  -30.7311   24.2217 H   0  0  0  0  0  0
  -17.5030  -31.6270   24.5176 H   0  0  0  0  0  0
  -15.5367  -30.2978   23.7684 H   0  0  0  0  0  0
  -15.8695  -28.0821   22.7084 H   0  0  0  0  0  0
  -24.5878  -30.7108   25.7721 H   0  0  0  0  0  0
  -24.8886  -32.2954   26.4746 H   0  0  0  0  0  0
  -25.7976  -30.8990   27.0214 H   0  0  0  0  0  0
  -26.3049  -29.6642   24.1319 H   0  0  0  0  0  0
  -27.3998  -29.7274   25.4920 H   0  0  0  0  0  0
  -27.8961  -30.4174   23.9671 H   0  0  0  0  0  0
  -27.2637  -33.3664   26.1977 H   0  0  0  0  0  0
  -28.3894  -32.6848   25.0332 H   0  0  0  0  0  0
  -28.0670  -31.8512   26.5458 H   0  0  0  0  0  0
  -28.2582  -38.0075   24.7516 H   0  0  0  0  0  0
  -28.1081  -36.2608   24.6285 H   0  0  0  0  0  0
  -27.2292  -37.1410   25.8865 H   0  0  0  0  0  0
  -20.9503  -29.8716   21.6730 H   0  0  0  0  0  0
  -26.0141  -38.2798   24.1419 H   0  0  0  0  0  0
  -28.2718  -21.0256   18.2067 H   0  0  0  0  0  0
  -27.7471  -19.8370   16.3260 H   0  0  0  0  0  0
  -27.2269  -18.1779   16.5899 H   0  0  0  0  0  0
  -28.8564  -18.5116   15.9895 H   0  0  0  0  0  0
  -31.1640  -21.4177   21.0406 H   0  0  0  0  0  0
  -30.1123  -21.8851   22.3865 H   0  0  0  0  0  0
  -30.6436  -23.0862   21.2150 H   0  0  0  0  0  0
  -27.2372  -22.6606   19.9695 H   0  0  0  0  0  0
  -27.8491  -23.2054   21.4705 H   0  0  0  0  0  0
  -27.9640  -24.5976   18.7958 H   0  0  0  0  0  0
  -29.4968  -24.5737   19.5295 H   0  0  0  0  0  0
  -28.9294  -15.9800   21.2657 H   0  0  0  0  0  0
  1 25  1  0  0  0
  1 30  2  0  0  0
  1 81  1  0  0  0
  2  3  1  0  0  0
  2 25  1  0  0  0
  2 85  1  0  0  0
  2 86  1  0  0  0
  3  4  1  0  0  0
  3 87  1  0  0  0
  3 88  1  0  0  0
  4  5  1  0  0  0
  4 89  1  0  0  0
  4 90  1  0  0  0
  5  6  1  0  0  0
  5 26  1  0  0  0
  5 91  1  0  0  0
  6 25  1  0  0  0
  6 92  1  0  0  0
  6 93  1  0  0  0
  7  8  2  0  0  0
  7 26  1  0  0  0
  7 29  1  0  0  0
  8  9  1  0  0  0
  8 22  1  0  0  0
  9 10  1  0  0  0
  9 27  2  0  0  0
 10 11  2  0  0  0
 10 15  1  0  0  0
 11 12  1  0  0  0
 11 94  1  0  0  0
 12 13  2  0  0  0
 12 95  1  0  0  0
 13 14  1  0  0  0
 13 31  1  0  0  0
 14 15  2  0  0  0
 14 96  1  0  0  0
 15 97  1  0  0  0
 16 17  2  0  0  0
 16 21  1  0  0  0
 16 31  1  0  0  0
 17 18  1  0  0  0
 17 98  1  0  0  0
 18 19  2  0  0  0
 18 99  1  0  0  0
 19 20  1  0  0  0
 19 24  1  0  0  0
 20 21  2  0  0  0
 20100  1  0  0  0
 21 23  1  0  0  0
 22 28  1  0  0  0
 22 32  2  0  0  0
 26 27  1  0  0  0
 28101  1  0  0  0
 28102  1  0  0  0
 29103  1  0  0  0
 29104  1  0  0  0
 33 34  1  0  0  0
 33 66  1  0  0  0
 33 70  2  0  0  0
 34 36  1  0  0  0
 34 59  1  0  0  0
 34105  1  0  0  0
 35 44  2  0  0  0
 35 45  1  0  0  0
 35 68  1  0  0  0
 36 56  1  0  0  0
 36106  1  0  0  0
 37 39  1  0  0  0
 37 47  1  0  0  0
 37 66  1  0  0  0
 37107  1  0  0  0
 38 43  2  0  0  0
 38 46  1  0  0  0
 38 47  1  0  0  0
 39 64  1  0  0  0
 39 67  2  0  0  0
 40 52  1  0  0  0
 40 53  2  0  0  0
 40 58  1  0  0  0
 41108  1  0  0  0
 41109  1  0  0  0
 41110  1  0  0  0
 41 48  1  0  0  0
 42 43  1  0  0  0
 42 66  1  0  0  0
 42111  1  0  0  0
 42112  1  0  0  0
 43 44  1  0  0  0
 44113  1  0  0  0
 45 46  2  0  0  0
 45114  1  0  0  0
 46115  1  0  0  0
 47116  1  0  0  0
 47117  1  0  0  0
 48 56  1  0  0  0
 48 65  1  0  0  0
 48118  1  0  0  0
 49 50  1  0  0  0
 49 53  1  0  0  0
 49 64  1  0  0  0
 49119  1  0  0  0
 50 51  1  0  0  0
 50120  1  0  0  0
 50121  1  0  0  0
 51 52  1  0  0  0
 51122  1  0  0  0
 51123  1  0  0  0
 52124  1  0  0  0
 52125  1  0  0  0
 53 54  1  0  0  0
 54 55  2  0  0  0
 54126  1  0  0  0
 55 57  1  0  0  0
 55127  1  0  0  0
 56 69  2  0  0  0
 57 58  2  0  0  0
 57128  1  0  0  0
 58129  1  0  0  0
 59 60  1  0  0  0
 59 61  1  0  0  0
 59 62  1  0  0  0
 60130  1  0  0  0
 60131  1  0  0  0
 60132  1  0  0  0
 61133  1  0  0  0
 61134  1  0  0  0
 61135  1  0  0  0
 62136  1  0  0  0
 62137  1  0  0  0
 62138  1  0  0  0
 63 65  1  0  0  0
 63139  1  0  0  0
 63140  1  0  0  0
 63141  1  0  0  0
 64142  1  0  0  0
 65143  1  0  0  0
 68 80  1  0  0  0
 71 72  2  0  0  0
 71 73  1  0  0  0
 71144  1  0  0  0
 72 75  1  0  0  0
 72 77  1  0  0  0
 73 76  2  0  0  0
 73 82  1  0  0  0
 74 75  2  0  0  0
 74 76  1  0  0  0
 74 81  1  0  0  0
 75 83  1  0  0  0
 76 84  1  0  0  0
 77145  1  0  0  0
 77146  1  0  0  0
 77147  1  0  0  0
 78 82  1  0  0  0
 78148  1  0  0  0
 78149  1  0  0  0
 78150  1  0  0  0
 79 80  1  0  0  0
 79 82  1  0  0  0
 79151  1  0  0  0
 79152  1  0  0  0
 80153  1  0  0  0
 80154  1  0  0  0
 81155  1  0  0  0
M  ISO  4   1 100  68 101  80 101  81 100
M  END
> <chiral flag>
0

> <version>
0

> <s_m_source_file>
/data/baiqing/PycharmProjects/Reinvent-master-3.2/result/LINK_invent/BTK/process_docking_weight1_custom_sum_contain_oxygen_bond_distance_aromatic_linkinvent_7_9_3/rearranged_h_0016.sdf

> <i_m_source_file_index>
39

> <r_mmod_Potential_Energy-OPLS-2005>
781.967834472656

> <r_mmod_Stretch_Energy-OPLS-2005>
346.1455078125

> <r_mmod_Bend_Energy-OPLS-2005>
356.939971923828

> <r_mmod_Torsional_Energy-OPLS-2005>
260.800903320312

> <r_mmod_Improper_Torsional_Energy-OPLS-2005>
5.60512542724609

> <r_mmod_Van_der_Waal_Energy-OPLS-2005>
125.55297088623

> <r_mmod_Electrostatic_Energy-OPLS-2005>
-351.695983886719

> <r_mmod_Solvation_Energy-OPLS-2005>
-225.477020263672

> <b_mmod_Minimization_Converged-OPLS-2005>
0

> <r_mmod_RMS_Derivative-OPLS-2005>
0.934422969818115

$$$$
39
                    3D
 Structure written by MMmdl.
176184  0  0  1  0            999 V2000
  -30.5966  -14.7609   20.5088 C   0  0  0  0  0  0
  -30.4401  -12.5061   19.4018 C   0  0  0  0  0  0
  -29.4708  -12.5798   18.1999 C   0  0  0  0  0  0
  -28.0180  -12.3319   18.6500 C   0  0  0  0  0  0
  -27.6406  -13.2284   19.8533 C   0  0  2  0  0  0
  -28.7076  -13.1034   20.9504 C   0  0  0  0  0  0
  -25.2578  -13.8236   20.5785 C   0  0  0  0  0  0
  -24.1824  -13.0499   20.9303 C   0  0  0  0  0  0
  -24.6426  -11.6977   20.8909 C   0  0  0  0  0  0
  -23.9176  -10.4316   21.0568 C   0  0  0  0  0  0
  -24.3692   -9.4150   21.9300 C   0  0  0  0  0  0
  -23.6327   -8.2190   22.0769 C   0  0  0  0  0  0
  -22.4318   -8.0290   21.3562 C   0  0  0  0  0  0
  -22.0008   -9.0319   20.4679 C   0  0  0  0  0  0
  -22.7394  -10.2173   20.3146 C   0  0  0  0  0  0
  -21.6818   -6.0785   22.5304 C   0  0  0  0  0  0
  -21.3998   -6.5698   23.8219 C   0  0  0  0  0  0
  -21.3655   -5.6861   24.9201 C   0  0  0  0  0  0
  -21.5983   -4.3109   24.7245 C   0  0  0  0  0  0
  -21.8810   -3.8212   23.4389 C   0  0  0  0  0  0
  -21.9196   -4.7010   22.3426 C   0  0  0  0  0  0
  -22.7870  -13.5271   21.1983 C   0  0  0  0  0  0
  -22.1674   -4.2191   21.1025 F   0  0  0  0  0  0
  -21.5602   -3.4600   25.7775 F   0  0  0  0  0  0
  -29.9866  -13.5316   20.3606 N   0  0  0  0  0  0
  -26.2954  -12.9396   20.3433 N   0  0  0  0  0  0
  -25.9342  -11.6581   20.5923 N   0  0  0  0  0  0
  -22.0466  -12.8150   22.0450 N   0  0  0  0  0  0
  -25.4450  -15.1909   20.4100 N   0  0  0  0  0  0
  -31.8237  -14.8508   20.3911 O   0  0  0  0  0  0
  -21.6628   -6.8913   21.4246 O   0  0  0  0  0  0
  -22.3559  -14.5611   20.6884 O   0  0  0  0  0  0
  -24.6280  -31.8536   23.1998 C   0  0  0  0  0  0
  -25.9143  -32.4709   23.8330 C   0  0  1  0  0  0
  -27.2542  -27.2736   20.1395 C   0  0  0  0  0  0
  -25.5885  -33.8511   24.2200 N   0  0  0  0  0  0
  -23.4233  -30.4812   21.5429 C   0  0  2  0  0  0
  -24.8829  -28.9227   20.1127 C   0  0  0  0  0  0
  -22.7464  -29.4645   22.4915 C   0  0  0  0  0  0
  -18.0306  -28.1444   22.8524 C   0  0  0  0  0  0
  -24.1536  -36.7278   23.2641 C   0  0  0  0  0  0
  -25.9758  -30.7776   21.3750 C   0  0  0  0  0  0
  -26.0524  -29.4009   20.7110 C   0  0  0  0  0  0
  -27.2409  -28.5940   20.7029 C   0  0  0  0  0  0
  -26.0534  -26.8524   19.5201 C   0  0  0  0  0  0
  -24.8847  -27.6526   19.5030 C   0  0  0  0  0  0
  -23.6447  -29.8079   20.1641 C   0  0  0  0  0  0
  -25.4150  -36.3038   24.0321 C   0  0  1  0  0  0
  -20.5887  -28.3731   23.1337 C   0  0  2  0  0  0
  -20.6876  -26.9465   22.5462 C   0  0  0  0  0  0
  -19.5756  -26.6376   21.5350 C   0  0  0  0  0  0
  -18.1978  -26.7890   22.1859 C   0  0  0  0  0  0
  -19.1564  -28.8919   23.2909 C   0  0  0  0  0  0
  -18.9500  -30.1559   23.8874 C   0  0  0  0  0  0
  -17.6468  -30.6639   24.0568 C   0  0  0  0  0  0
  -25.9130  -34.9389   23.5093 C   0  0  0  0  0  0
  -16.5342  -29.9114   23.6356 C   0  0  0  0  0  0
  -16.7308  -28.6590   23.0320 C   0  0  0  0  0  0
  -26.4532  -31.6557   25.0720 C   0  0  0  0  0  0
  -25.3792  -31.3728   26.1494 C   0  0  0  0  0  0
  -27.0408  -30.2939   24.6253 C   0  0  0  0  0  0
  -27.6058  -32.4391   25.7383 C   0  0  0  0  0  0
  -27.5595  -37.1792   24.8447 C   0  0  0  0  0  0
  -21.4204  -29.3053   22.3676 N   0  0  0  0  0  0
  -26.4299  -37.3736   23.9441 N   0  0  0  0  0  0
  -24.6956  -31.0554   22.0958 N   0  0  0  0  0  0
  -23.4200  -28.8235   23.2982 O   0  0  0  0  0  0
  -28.3849  -26.4118   20.2184 O   0  0  0  0  0  0
  -26.5740  -34.8829   22.4702 O   0  0  0  0  0  0
  -23.5471  -32.1393   23.7338 O   0  0  0  0  0  0
  -28.6449  -19.7014   22.0557 C   0  0  0  0  0  0
  -28.1711  -18.4850   22.5754 C   0  0  0  0  0  0
  -28.6970  -17.2518   22.1230 C   0  0  0  0  0  0
  -30.1768  -18.4941   20.6106 C   0  0  0  0  0  0
  -29.6730  -19.7882   21.1046 C   0  0  0  0  0  0
  -29.6480  -17.2011   21.0615 C   0  0  0  0  0  0
  -27.0440  -18.5494   23.5999 C   0  0  0  0  0  0
  -28.2336  -15.9756   22.8106 C   0  0  0  0  0  0
  -31.3208  -18.4591   19.6148 C   0  0  0  0  0  0
  -26.3677  -21.9516   18.4820 C   0  0  0  0  0  0
  -30.5301  -21.9400   23.1819 C   0  0  0  0  0  0
  -27.6616  -21.1243   18.4463 C   0  0  0  0  0  0
  -28.9203  -21.9474   18.7641 C   0  0  0  0  0  0
  -29.3950  -23.8327   20.4836 C   0  0  0  0  0  0
  -31.1196  -21.6198   21.7913 C   0  0  0  0  0  0
  -28.2284  -24.9171   20.0964 C   0  0  0  0  0  0
  -29.1423  -22.2180   20.2724 C   0  0  1  0  0  0
  -29.7789  -15.8787   20.3721 N   0  0  0  0  0  0
  -30.1233  -21.1542   20.8031 N   0  0  0  0  0  0
  -31.4713  -12.6650   19.0789 H   0  0  0  0  0  0
  -30.4316  -11.5151   19.8561 H   0  0  0  0  0  0
  -29.7423  -11.8715   17.4190 H   0  0  0  0  0  0
  -29.5369  -13.5689   17.7318 H   0  0  0  0  0  0
  -27.9368  -11.2794   18.9252 H   0  0  0  0  0  0
  -27.3044  -12.4681   17.8339 H   0  0  0  0  0  0
  -27.6429  -14.2572   19.4890 H   0  0  0  0  0  0
  -28.7790  -12.0773   21.2995 H   0  0  0  0  0  0
  -28.4457  -13.6605   21.8314 H   0  0  0  0  0  0
  -25.2758   -9.5557   22.4993 H   0  0  0  0  0  0
  -23.9994   -7.4524   22.7436 H   0  0  0  0  0  0
  -21.0962   -8.8901   19.8978 H   0  0  0  0  0  0
  -22.3872  -10.9780   19.6310 H   0  0  0  0  0  0
  -21.1981   -7.6205   23.9746 H   0  0  0  0  0  0
  -21.1484   -6.0598   25.9093 H   0  0  0  0  0  0
  -22.0584   -2.7681   23.2891 H   0  0  0  0  0  0
  -22.4071  -11.9625   22.4486 H   0  0  0  0  0  0
  -21.1104  -13.1178   22.2911 H   0  0  0  0  0  0
  -24.7036  -15.8759   20.4602 H   0  0  0  0  0  0
  -26.3221  -15.5922   20.1093 H   0  0  0  0  0  0
  -26.7159  -32.5348   23.1028 H   0  0  0  0  0  0
  -24.9721  -33.9653   25.0093 H   0  0  0  0  0  0
  -22.7158  -31.3036   21.4018 H   0  0  0  0  0  0
  -23.3749  -35.9660   23.3289 H   0  0  0  0  0  0
  -24.3629  -36.8916   22.2060 H   0  0  0  0  0  0
  -23.7291  -37.6463   23.6698 H   0  0  0  0  0  0
  -26.1472  -31.5613   20.6336 H   0  0  0  0  0  0
  -26.8428  -30.8071   22.0230 H   0  0  0  0  0  0
  -28.1352  -28.9878   21.1690 H   0  0  0  0  0  0
  -25.9879  -25.8832   19.0458 H   0  0  0  0  0  0
  -23.9844  -27.2730   19.0434 H   0  0  0  0  0  0
  -23.7563  -30.5980   19.4207 H   0  0  0  0  0  0
  -22.7562  -29.2617   19.8538 H   0  0  0  0  0  0
  -25.1321  -36.1862   25.0796 H   0  0  0  0  0  0
  -21.0012  -28.3414   24.1435 H   0  0  0  0  0  0
  -20.5978  -26.2349   23.3681 H   0  0  0  0  0  0
  -21.6728  -26.7637   22.1100 H   0  0  0  0  0  0
  -19.7005  -25.6282   21.1363 H   0  0  0  0  0  0
  -19.6562  -27.3114   20.6809 H   0  0  0  0  0  0
  -17.4203  -26.6455   21.4346 H   0  0  0  0  0  0
  -18.0543  -26.0153   22.9455 H   0  0  0  0  0  0
  -19.7972  -30.7418   24.2171 H   0  0  0  0  0  0
  -17.5006  -31.6274   24.5200 H   0  0  0  0  0  0
  -15.5347  -30.3004   23.7774 H   0  0  0  0  0  0
  -15.8691  -28.0922   22.6986 H   0  0  0  0  0  0
  -24.5934  -30.7074   25.7887 H   0  0  0  0  0  0
  -24.9028  -32.2935   26.4925 H   0  0  0  0  0  0
  -25.8201  -30.8924   27.0250 H   0  0  0  0  0  0
  -26.3088  -29.6634   24.1197 H   0  0  0  0  0  0
  -27.3996  -29.7200   25.4808 H   0  0  0  0  0  0
  -27.8978  -30.4156   23.9600 H   0  0  0  0  0  0
  -27.2616  -33.3705   26.1885 H   0  0  0  0  0  0
  -28.3802  -32.6972   25.0144 H   0  0  0  0  0  0
  -28.0816  -31.8605   26.5310 H   0  0  0  0  0  0
  -28.2591  -38.0106   24.7471 H   0  0  0  0  0  0
  -28.1097  -36.2622   24.6280 H   0  0  0  0  0  0
  -27.2343  -37.1436   25.8850 H   0  0  0  0  0  0
  -20.9450  -29.8611   21.6688 H   0  0  0  0  0  0
  -26.0152  -38.2804   24.1409 H   0  0  0  0  0  0
  -28.2155  -20.6047   22.4630 H   0  0  0  0  0  0
  -26.5808  -19.5342   23.6471 H   0  0  0  0  0  0
  -27.4129  -18.3105   24.5992 H   0  0  0  0  0  0
  -26.2499  -17.8534   23.3412 H   0  0  0  0  0  0
  -27.4507  -15.4831   22.2348 H   0  0  0  0  0  0
  -27.8230  -16.1126   23.8097 H   0  0  0  0  0  0
  -29.0985  -15.3286   22.9579 H   0  0  0  0  0  0
  -31.0391  -17.8921   18.7329 H   0  0  0  0  0  0
  -32.1629  -17.9466   20.0790 H   0  0  0  0  0  0
  -31.6468  -19.4554   19.3171 H   0  0  0  0  0  0
  -26.1593  -22.3512   19.4796 H   0  0  0  0  0  0
  -25.5034  -21.3508   18.1933 H   0  0  0  0  0  0
  -26.4226  -22.7951   17.7958 H   0  0  0  0  0  0
  -29.4608  -22.1420   23.1419 H   0  0  0  0  0  0
  -31.0007  -22.8288   23.6151 H   0  0  0  0  0  0
  -30.6727  -21.1090   23.8763 H   0  0  0  0  0  0
  -27.7757  -20.6938   17.4513 H   0  0  0  0  0  0
  -27.5947  -20.2745   19.1242 H   0  0  0  0  0  0
  -28.8687  -22.8749   18.1923 H   0  0  0  0  0  0
  -29.7999  -21.4411   18.3609 H   0  0  0  0  0  0
  -29.6367  -23.9864   21.5340 H   0  0  0  0  0  0
  -30.3025  -24.1120   19.9521 H   0  0  0  0  0  0
  -31.9370  -20.9078   21.9146 H   0  0  0  0  0  0
  -31.5992  -22.5209   21.3996 H   0  0  0  0  0  0
  -27.3533  -24.6458   20.6899 H   0  0  0  0  0  0
  -27.9309  -24.7434   19.0642 H   0  0  0  0  0  0
  -28.2017  -22.0346   20.7858 H   0  0  0  0  0  0
  -28.8836  -15.5780   19.9905 H   0  0  0  0  0  0
  1 25  1  0  0  0
  1 30  2  0  0  0
  1 88  1  0  0  0
  2  3  1  0  0  0
  2 25  1  0  0  0
  2 90  1  0  0  0
  2 91  1  0  0  0
  3  4  1  0  0  0
  3 92  1  0  0  0
  3 93  1  0  0  0
  4  5  1  0  0  0
  4 94  1  0  0  0
  4 95  1  0  0  0
  5  6  1  0  0  0
  5 26  1  0  0  0
  5 96  1  0  0  0
  6 25  1  0  0  0
  6 97  1  0  0  0
  6 98  1  0  0  0
  7  8  2  0  0  0
  7 26  1  0  0  0
  7 29  1  0  0  0
  8  9  1  0  0  0
  8 22  1  0  0  0
  9 10  1  0  0  0
  9 27  2  0  0  0
 10 11  2  0  0  0
 10 15  1  0  0  0
 11 12  1  0  0  0
 11 99  1  0  0  0
 12 13  2  0  0  0
 12100  1  0  0  0
 13 14  1  0  0  0
 13 31  1  0  0  0
 14 15  2  0  0  0
 14101  1  0  0  0
 15102  1  0  0  0
 16 17  2  0  0  0
 16 21  1  0  0  0
 16 31  1  0  0  0
 17 18  1  0  0  0
 17103  1  0  0  0
 18 19  2  0  0  0
 18104  1  0  0  0
 19 20  1  0  0  0
 19 24  1  0  0  0
 20 21  2  0  0  0
 20105  1  0  0  0
 21 23  1  0  0  0
 22 28  1  0  0  0
 22 32  2  0  0  0
 26 27  1  0  0  0
 28106  1  0  0  0
 28107  1  0  0  0
 29108  1  0  0  0
 29109  1  0  0  0
 33 34  1  0  0  0
 33 66  1  0  0  0
 33 70  2  0  0  0
 34 36  1  0  0  0
 34 59  1  0  0  0
 34110  1  0  0  0
 35 44  2  0  0  0
 35 45  1  0  0  0
 35 68  1  0  0  0
 36 56  1  0  0  0
 36111  1  0  0  0
 37 39  1  0  0  0
 37 47  1  0  0  0
 37 66  1  0  0  0
 37112  1  0  0  0
 38 43  2  0  0  0
 38 46  1  0  0  0
 38 47  1  0  0  0
 39 64  1  0  0  0
 39 67  2  0  0  0
 40 52  1  0  0  0
 40 53  2  0  0  0
 40 58  1  0  0  0
 41113  1  0  0  0
 41114  1  0  0  0
 41115  1  0  0  0
 41 48  1  0  0  0
 42 43  1  0  0  0
 42 66  1  0  0  0
 42116  1  0  0  0
 42117  1  0  0  0
 43 44  1  0  0  0
 44118  1  0  0  0
 45 46  2  0  0  0
 45119  1  0  0  0
 46120  1  0  0  0
 47121  1  0  0  0
 47122  1  0  0  0
 48 56  1  0  0  0
 48 65  1  0  0  0
 48123  1  0  0  0
 49 50  1  0  0  0
 49 53  1  0  0  0
 49 64  1  0  0  0
 49124  1  0  0  0
 50 51  1  0  0  0
 50125  1  0  0  0
 50126  1  0  0  0
 51 52  1  0  0  0
 51127  1  0  0  0
 51128  1  0  0  0
 52129  1  0  0  0
 52130  1  0  0  0
 53 54  1  0  0  0
 54 55  2  0  0  0
 54131  1  0  0  0
 55 57  1  0  0  0
 55132  1  0  0  0
 56 69  2  0  0  0
 57 58  2  0  0  0
 57133  1  0  0  0
 58134  1  0  0  0
 59 60  1  0  0  0
 59 61  1  0  0  0
 59 62  1  0  0  0
 60135  1  0  0  0
 60136  1  0  0  0
 60137  1  0  0  0
 61138  1  0  0  0
 61139  1  0  0  0
 61140  1  0  0  0
 62141  1  0  0  0
 62142  1  0  0  0
 62143  1  0  0  0
 63 65  1  0  0  0
 63144  1  0  0  0
 63145  1  0  0  0
 63146  1  0  0  0
 64147  1  0  0  0
 65148  1  0  0  0
 68 86  1  0  0  0
 71 72  2  0  0  0
 71 75  1  0  0  0
 71149  1  0  0  0
 72 73  1  0  0  0
 72 77  1  0  0  0
 73 76  2  0  0  0
 73 78  1  0  0  0
 74 75  2  0  0  0
 74 76  1  0  0  0
 74 79  1  0  0  0
 75 89  1  0  0  0
 76 88  1  0  0  0
 77150  1  0  0  0
 77151  1  0  0  0
 77152  1  0  0  0
 78153  1  0  0  0
 78154  1  0  0  0
 78155  1  0  0  0
 79156  1  0  0  0
 79157  1  0  0  0
 79158  1  0  0  0
 80 82  1  0  0  0
 80159  1  0  0  0
 80160  1  0  0  0
 80161  1  0  0  0
 81 85  1  0  0  0
 81162  1  0  0  0
 81163  1  0  0  0
 81164  1  0  0  0
 82 83  1  0  0  0
 82165  1  0  0  0
 82166  1  0  0  0
 83167  1  0  0  0
 83168  1  0  0  0
 83 87  1  0  0  0
 84 86  1  0  0  0
 84 87  1  0  0  0
 84169  1  0  0  0
 84170  1  0  0  0
 85 89  1  0  0  0
 85171  1  0  0  0
 85172  1  0  0  0
 86173  1  0  0  0
 86174  1  0  0  0
 87 89  1  0  0  0
 87175  1  0  0  0
 88176  1  0  0  0
M  ISO  4   1 100  68 101  86 101  88 100
M  END
> <chiral flag>
0

> <version>
0

> <s_m_source_file>
/data/baiqing/PycharmProjects/Reinvent-master-3.2/result/LINK_invent/BTK/process_docking_weight1_custom_sum_contain_oxygen_bond_distance_aromatic_linkinvent_7_9_3/rearranged_h_0016.sdf

> <i_m_source_file_index>
40

> <r_mmod_Potential_Energy-OPLS-2005>
342.864471435547

> <r_mmod_Stretch_Energy-OPLS-2005>
158.952224731445

> <r_mmod_Bend_Energy-OPLS-2005>
206.909271240234

> <r_mmod_Torsional_Energy-OPLS-2005>
342.281311035156

> <r_mmod_Improper_Torsional_Energy-OPLS-2005>
18.4060153961182

> <r_mmod_Van_der_Waal_Energy-OPLS-2005>
137.426681518555

> <r_mmod_Electrostatic_Energy-OPLS-2005>
-413.390625

> <r_mmod_Solvation_Energy-OPLS-2005>
-201.529296875

> <b_mmod_Minimization_Converged-OPLS-2005>
0

> <r_mmod_RMS_Derivative-OPLS-2005>
13.7408313751221

$$$$
40
                    3D
 Structure written by MMmdl.
168176  0  0  1  0            999 V2000
  -30.6267  -14.7382   20.3860 C   0  0  0  0  0  0
  -30.4314  -12.4423   19.4653 C   0  0  0  0  0  0
  -29.5100  -12.4998   18.2272 C   0  0  0  0  0  0
  -28.0365  -12.3216   18.6440 C   0  0  0  0  0  0
  -27.6403  -13.2316   19.8366 C   0  0  2  0  0  0
  -28.6895  -13.1943   20.9694 C   0  0  0  0  0  0
  -25.2504  -13.8201   20.5670 C   0  0  0  0  0  0
  -24.1794  -13.0458   20.9197 C   0  0  0  0  0  0
  -24.6398  -11.6944   20.8748 C   0  0  0  0  0  0
  -23.9078  -10.4317   21.0427 C   0  0  0  0  0  0
  -24.3622   -9.4226   21.9203 C   0  0  0  0  0  0
  -23.6278   -8.2264   22.0783 C   0  0  0  0  0  0
  -22.4258   -8.0311   21.3578 C   0  0  0  0  0  0
  -21.9902   -9.0292   20.4675 C   0  0  0  0  0  0
  -22.7241  -10.2159   20.3079 C   0  0  0  0  0  0
  -21.6841   -6.0749   22.5283 C   0  0  0  0  0  0
  -21.4016   -6.5643   23.8222 C   0  0  0  0  0  0
  -21.3653   -5.6798   24.9183 C   0  0  0  0  0  0
  -21.6044   -4.3063   24.7227 C   0  0  0  0  0  0
  -21.8808   -3.8157   23.4341 C   0  0  0  0  0  0
  -21.9184   -4.6975   22.3409 C   0  0  0  0  0  0
  -22.7822  -13.5267   21.1839 C   0  0  0  0  0  0
  -22.1657   -4.2180   21.0980 F   0  0  0  0  0  0
  -21.5624   -3.4536   25.7727 F   0  0  0  0  0  0
  -29.9928  -13.5195   20.3761 N   0  0  0  0  0  0
  -26.2942  -12.9424   20.3224 N   0  0  0  0  0  0
  -25.9327  -11.6571   20.5727 N   0  0  0  0  0  0
  -22.0411  -12.8299   22.0383 N   0  0  0  0  0  0
  -25.4180  -15.1924   20.4089 N   0  0  0  0  0  0
  -31.8441  -14.7982   20.2150 O   0  0  0  0  0  0
  -21.6639   -6.8896   21.4249 O   0  0  0  0  0  0
  -22.3528  -14.5569   20.6651 O   0  0  0  0  0  0
  -24.6282  -31.8573   23.2035 C   0  0  0  0  0  0
  -25.9106  -32.4779   23.8376 C   0  0  1  0  0  0
  -27.2174  -27.2761   20.1203 C   0  0  0  0  0  0
  -25.5895  -33.8584   24.2278 N   0  0  0  0  0  0
  -23.4255  -30.4829   21.5452 C   0  0  2  0  0  0
  -24.8709  -28.9364   20.1128 C   0  0  0  0  0  0
  -22.7488  -29.4621   22.4908 C   0  0  0  0  0  0
  -18.0278  -28.1410   22.8463 C   0  0  0  0  0  0
  -24.1480  -36.7301   23.2638 C   0  0  0  0  0  0
  -25.9722  -30.7710   21.3879 C   0  0  0  0  0  0
  -26.0427  -29.3978   20.7230 C   0  0  0  0  0  0
  -27.2168  -28.5795   20.7177 C   0  0  0  0  0  0
  -26.0230  -26.8892   19.4654 C   0  0  0  0  0  0
  -24.8644  -27.6868   19.4793 C   0  0  0  0  0  0
  -23.6447  -29.8245   20.1597 C   0  0  0  0  0  0
  -25.4107  -36.3094   24.0326 C   0  0  1  0  0  0
  -20.5878  -28.3711   23.1256 C   0  0  2  0  0  0
  -20.6770  -26.9428   22.5401 C   0  0  0  0  0  0
  -19.5754  -26.6395   21.5192 C   0  0  0  0  0  0
  -18.1928  -26.7952   22.1603 C   0  0  0  0  0  0
  -19.1533  -28.8875   23.2855 C   0  0  0  0  0  0
  -18.9473  -30.1473   23.8886 C   0  0  0  0  0  0
  -17.6477  -30.6606   24.0567 C   0  0  0  0  0  0
  -25.9046  -34.9449   23.5111 C   0  0  0  0  0  0
  -16.5360  -29.9114   23.6334 C   0  0  0  0  0  0
  -16.7269  -28.6532   23.0344 C   0  0  0  0  0  0
  -26.4446  -31.6630   25.0784 C   0  0  0  0  0  0
  -25.3638  -31.3839   26.1498 C   0  0  0  0  0  0
  -27.0293  -30.3025   24.6347 C   0  0  0  0  0  0
  -27.6010  -32.4378   25.7536 C   0  0  0  0  0  0
  -27.5580  -37.1805   24.8452 C   0  0  0  0  0  0
  -21.4192  -29.3055   22.3647 N   0  0  0  0  0  0
  -26.4295  -37.3785   23.9403 N   0  0  0  0  0  0
  -24.6938  -31.0556   22.1009 N   0  0  0  0  0  0
  -23.4200  -28.8134   23.2982 O   0  0  0  0  0  0
  -28.3220  -26.3977   20.2051 O   0  0  0  0  0  0
  -26.5643  -34.8916   22.4696 O   0  0  0  0  0  0
  -23.5433  -32.1395   23.7325 O   0  0  0  0  0  0
  -30.8244  -19.9322   19.0333 C   0  0  0  0  0  0
  -29.9162  -19.8176   20.0980 C   0  0  0  0  0  0
  -31.2898  -18.8105   18.3134 C   0  0  0  0  0  0
  -29.5680  -18.4642   20.5119 C   0  0  0  0  0  0
  -30.1325  -17.2687   19.8857 C   0  0  0  0  0  0
  -30.9112  -17.4933   18.7049 C   0  0  0  0  0  0
  -28.5668  -18.3029   21.6447 C   0  0  0  0  0  0
  -33.6100  -19.5247   17.6101 C   0  0  0  0  0  0
  -31.6224  -20.0882   16.1246 C   0  0  0  0  0  0
  -28.2854  -23.7010   22.0988 C   0  0  0  0  0  0
  -29.5050  -21.1773   20.8301 C   0  0  0  0  0  0
  -28.1824  -24.9408   19.8662 C   0  0  0  0  0  0
  -32.2226  -19.0796   17.1226 C   0  0  0  0  0  0
  -28.9350  -23.7841   20.7010 C   0  0  2  0  0  0
  -29.8415  -15.8850   20.3655 N   0  0  0  0  0  0
  -28.9952  -22.3866   20.0385 N   0  3  0  0  0  0
  -31.3228  -16.1796   17.6438 Cl  0  0  0  0  0  0
  -31.4739  -12.5559   19.1648 H   0  0  0  0  0  0
  -30.3625  -11.4752   19.9638 H   0  0  0  0  0  0
  -29.7964  -11.7293   17.5110 H   0  0  0  0  0  0
  -29.6307  -13.4543   17.7100 H   0  0  0  0  0  0
  -27.8965  -11.2771   18.9232 H   0  0  0  0  0  0
  -27.3796  -12.5045   17.7915 H   0  0  0  0  0  0
  -27.6242  -14.2439   19.4333 H   0  0  0  0  0  0
  -28.7213  -12.2177   21.4505 H   0  0  0  0  0  0
  -28.4336  -13.9125   21.7499 H   0  0  0  0  0  0
  -25.2764   -9.5690   22.4782 H   0  0  0  0  0  0
  -23.9992   -7.4648   22.7493 H   0  0  0  0  0  0
  -21.0835   -8.8812   19.8974 H   0  0  0  0  0  0
  -22.3715  -10.9704   19.6191 H   0  0  0  0  0  0
  -21.2030   -7.6156   23.9737 H   0  0  0  0  0  0
  -21.1473   -6.0525   25.9086 H   0  0  0  0  0  0
  -22.0586   -2.7621   23.2828 H   0  0  0  0  0  0
  -22.3975  -11.9997   22.4875 H   0  0  0  0  0  0
  -21.1046  -13.1407   22.2546 H   0  0  0  0  0  0
  -24.6406  -15.8349   20.5081 H   0  0  0  0  0  0
  -26.2510  -15.6346   20.0434 H   0  0  0  0  0  0
  -26.7174  -32.5418   23.1116 H   0  0  0  0  0  0
  -24.9946  -33.9732   25.0363 H   0  0  0  0  0  0
  -22.7216  -31.3052   21.4031 H   0  0  0  0  0  0
  -23.3746  -35.9633   23.3305 H   0  0  0  0  0  0
  -24.3564  -36.8927   22.2054 H   0  0  0  0  0  0
  -23.7227  -37.6498   23.6667 H   0  0  0  0  0  0
  -26.1212  -31.5389   20.6284 H   0  0  0  0  0  0
  -26.8457  -30.8088   22.0281 H   0  0  0  0  0  0
  -28.1119  -28.9286   21.2133 H   0  0  0  0  0  0
  -25.9370  -25.9517   18.9385 H   0  0  0  0  0  0
  -23.9658  -27.3298   18.9961 H   0  0  0  0  0  0
  -23.7779  -30.6059   19.4109 H   0  0  0  0  0  0
  -22.7621  -29.2644   19.8457 H   0  0  0  0  0  0
  -25.1284  -36.1949   25.0822 H   0  0  0  0  0  0
  -20.9958  -28.3290   24.1383 H   0  0  0  0  0  0
  -20.5635  -26.2322   23.3603 H   0  0  0  0  0  0
  -21.6648  -26.7436   22.1213 H   0  0  0  0  0  0
  -19.6915  -25.6290   21.1255 H   0  0  0  0  0  0
  -19.6713  -27.3171   20.6693 H   0  0  0  0  0  0
  -17.4186  -26.6656   21.4021 H   0  0  0  0  0  0
  -18.0366  -26.0113   22.9026 H   0  0  0  0  0  0
  -19.7950  -30.7290   24.2262 H   0  0  0  0  0  0
  -17.5036  -31.6285   24.5176 H   0  0  0  0  0  0
  -15.5366  -30.3029   23.7687 H   0  0  0  0  0  0
  -15.8650  -28.0870   22.7077 H   0  0  0  0  0  0
  -24.5778  -30.7228   25.7820 H   0  0  0  0  0  0
  -24.8864  -32.3047   26.4872 H   0  0  0  0  0  0
  -25.7899  -30.9027   27.0317 H   0  0  0  0  0  0
  -26.2927  -29.6800   24.1262 H   0  0  0  0  0  0
  -27.3791  -29.7272   25.4932 H   0  0  0  0  0  0
  -27.8877  -30.4255   23.9742 H   0  0  0  0  0  0
  -27.2616  -33.3670   26.2128 H   0  0  0  0  0  0
  -28.3793  -32.6970   25.0345 H   0  0  0  0  0  0
  -28.0717  -31.8514   26.5440 H   0  0  0  0  0  0
  -28.2597  -38.0103   24.7507 H   0  0  0  0  0  0
  -28.1082  -36.2639   24.6267 H   0  0  0  0  0  0
  -27.2310  -37.1440   25.8859 H   0  0  0  0  0  0
  -20.9379  -29.8807   21.6870 H   0  0  0  0  0  0
  -26.0174  -38.2866   24.1417 H   0  0  0  0  0  0
  -31.1680  -20.9166   18.7457 H   0  0  0  0  0  0
  -29.0283  -18.5627   22.5964 H   0  0  0  0  0  0
  -28.1650  -17.2929   21.7168 H   0  0  0  0  0  0
  -27.7070  -18.9561   21.4781 H   0  0  0  0  0  0
  -34.0591  -18.7592   18.2418 H   0  0  0  0  0  0
  -33.5641  -20.4444   18.1960 H   0  0  0  0  0  0
  -34.2869  -19.6996   16.7735 H   0  0  0  0  0  0
  -30.6235  -19.7789   15.8169 H   0  0  0  0  0  0
  -32.2299  -20.1535   15.2202 H   0  0  0  0  0  0
  -31.5518  -21.0958   16.5356 H   0  0  0  0  0  0
  -28.2079  -24.6906   22.5510 H   0  0  0  0  0  0
  -28.8553  -23.0803   22.7901 H   0  0  0  0  0  0
  -27.2750  -23.2955   22.0415 H   0  0  0  0  0  0
  -30.3956  -21.5061   21.3639 H   0  0  0  0  0  0
  -28.7781  -20.9661   21.6092 H   0  0  0  0  0  0
  -27.1396  -24.6448   19.9363 H   0  0  0  0  0  0
  -28.4491  -24.8428   18.8145 H   0  0  0  0  0  0
  -32.3844  -18.1722   16.5448 H   0  0  0  0  0  0
  -29.9686  -24.1007   20.8399 H   0  0  0  0  0  0
  -28.8889  -15.7235   20.6448 H   0  0  0  0  0  0
  -28.0761  -22.1409   19.7065 H   0  0  0  0  0  0
  -29.5756  -22.4711   19.2201 H   0  0  0  0  0  0
  1 25  1  0  0  0
  1 30  2  0  0  0
  1 85  1  0  0  0
  2  3  1  0  0  0
  2 25  1  0  0  0
  2 88  1  0  0  0
  2 89  1  0  0  0
  3  4  1  0  0  0
  3 90  1  0  0  0
  3 91  1  0  0  0
  4  5  1  0  0  0
  4 92  1  0  0  0
  4 93  1  0  0  0
  5  6  1  0  0  0
  5 26  1  0  0  0
  5 94  1  0  0  0
  6 25  1  0  0  0
  6 95  1  0  0  0
  6 96  1  0  0  0
  7  8  2  0  0  0
  7 26  1  0  0  0
  7 29  1  0  0  0
  8  9  1  0  0  0
  8 22  1  0  0  0
  9 10  1  0  0  0
  9 27  2  0  0  0
 10 11  2  0  0  0
 10 15  1  0  0  0
 11 12  1  0  0  0
 11 97  1  0  0  0
 12 13  2  0  0  0
 12 98  1  0  0  0
 13 14  1  0  0  0
 13 31  1  0  0  0
 14 15  2  0  0  0
 14 99  1  0  0  0
 15100  1  0  0  0
 16 17  2  0  0  0
 16 21  1  0  0  0
 16 31  1  0  0  0
 17 18  1  0  0  0
 17101  1  0  0  0
 18 19  2  0  0  0
 18102  1  0  0  0
 19 20  1  0  0  0
 19 24  1  0  0  0
 20 21  2  0  0  0
 20103  1  0  0  0
 21 23  1  0  0  0
 22 28  1  0  0  0
 22 32  2  0  0  0
 26 27  1  0  0  0
 28104  1  0  0  0
 28105  1  0  0  0
 29106  1  0  0  0
 29107  1  0  0  0
 33 34  1  0  0  0
 33 66  1  0  0  0
 33 70  2  0  0  0
 34 36  1  0  0  0
 34 59  1  0  0  0
 34108  1  0  0  0
 35 44  2  0  0  0
 35 45  1  0  0  0
 35 68  1  0  0  0
 36 56  1  0  0  0
 36109  1  0  0  0
 37 39  1  0  0  0
 37 47  1  0  0  0
 37 66  1  0  0  0
 37110  1  0  0  0
 38 43  2  0  0  0
 38 46  1  0  0  0
 38 47  1  0  0  0
 39 64  1  0  0  0
 39 67  2  0  0  0
 40 52  1  0  0  0
 40 53  2  0  0  0
 40 58  1  0  0  0
 41111  1  0  0  0
 41112  1  0  0  0
 41113  1  0  0  0
 41 48  1  0  0  0
 42 43  1  0  0  0
 42 66  1  0  0  0
 42114  1  0  0  0
 42115  1  0  0  0
 43 44  1  0  0  0
 44116  1  0  0  0
 45 46  2  0  0  0
 45117  1  0  0  0
 46118  1  0  0  0
 47119  1  0  0  0
 47120  1  0  0  0
 48 56  1  0  0  0
 48 65  1  0  0  0
 48121  1  0  0  0
 49 50  1  0  0  0
 49 53  1  0  0  0
 49 64  1  0  0  0
 49122  1  0  0  0
 50 51  1  0  0  0
 50123  1  0  0  0
 50124  1  0  0  0
 51 52  1  0  0  0
 51125  1  0  0  0
 51126  1  0  0  0
 52127  1  0  0  0
 52128  1  0  0  0
 53 54  1  0  0  0
 54 55  2  0  0  0
 54129  1  0  0  0
 55 57  1  0  0  0
 55130  1  0  0  0
 56 69  2  0  0  0
 57 58  2  0  0  0
 57131  1  0  0  0
 58132  1  0  0  0
 59 60  1  0  0  0
 59 61  1  0  0  0
 59 62  1  0  0  0
 60133  1  0  0  0
 60134  1  0  0  0
 60135  1  0  0  0
 61136  1  0  0  0
 61137  1  0  0  0
 61138  1  0  0  0
 62139  1  0  0  0
 62140  1  0  0  0
 62141  1  0  0  0
 63 65  1  0  0  0
 63142  1  0  0  0
 63143  1  0  0  0
 63144  1  0  0  0
 64145  1  0  0  0
 65146  1  0  0  0
 68 82  1  0  0  0
 71 72  2  0  0  0
 71 73  1  0  0  0
 71147  1  0  0  0
 72 74  1  0  0  0
 72 81  1  0  0  0
 73 76  2  0  0  0
 73 83  1  0  0  0
 74 75  2  0  0  0
 74 77  1  0  0  0
 75 76  1  0  0  0
 75 85  1  0  0  0
 76 87  1  0  0  0
 77148  1  0  0  0
 77149  1  0  0  0
 77150  1  0  0  0
 78151  1  0  0  0
 78152  1  0  0  0
 78153  1  0  0  0
 78 83  1  0  0  0
 79 83  1  0  0  0
 79154  1  0  0  0
 79155  1  0  0  0
 79156  1  0  0  0
 80157  1  0  0  0
 80158  1  0  0  0
 80159  1  0  0  0
 80 84  1  0  0  0
 81 86  1  0  0  0
 81160  1  0  0  0
 81161  1  0  0  0
 82 84  1  0  0  0
 82162  1  0  0  0
 82163  1  0  0  0
 83164  1  0  0  0
 84 86  1  0  0  0
 84165  1  0  0  0
 85166  1  0  0  0
 86167  1  0  0  0
 86168  1  0  0  0
M  CHG  1  86   1
M  ISO  4   1 100  68 101  82 101  85 100
M  END
> <chiral flag>
0

> <version>
0

> <s_m_source_file>
/data/baiqing/PycharmProjects/Reinvent-master-3.2/result/LINK_invent/BTK/process_docking_weight1_custom_sum_contain_oxygen_bond_distance_aromatic_linkinvent_7_9_3/rearranged_h_0016.sdf

> <i_m_source_file_index>
41

> <r_mmod_Potential_Energy-OPLS-2005>
34.5139808654785

> <r_mmod_Stretch_Energy-OPLS-2005>
122.963592529297

> <r_mmod_Bend_Energy-OPLS-2005>
161.585113525391

> <r_mmod_Torsional_Energy-OPLS-2005>
244.620086669922

> <r_mmod_Improper_Torsional_Energy-OPLS-2005>
6.1994047164917

> <r_mmod_Van_der_Waal_Energy-OPLS-2005>
153.008804321289

> <r_mmod_Electrostatic_Energy-OPLS-2005>
-275.800628662109

> <r_mmod_Solvation_Energy-OPLS-2005>
-465.432678222656

> <b_mmod_Minimization_Converged-OPLS-2005>
0

> <r_mmod_RMS_Derivative-OPLS-2005>
4.13492822647095

$$$$
41
                    3D
 Structure written by MMmdl.
163171  0  0  1  0            999 V2000
  -30.6695  -14.5331   20.5079 C   0  0  0  0  0  0
  -30.4261  -12.3218   19.4441 C   0  0  0  0  0  0
  -29.5027  -12.4889   18.2184 C   0  0  0  0  0  0
  -28.0220  -12.3534   18.6267 C   0  0  0  0  0  0
  -27.6589  -13.2115   19.8685 C   0  0  2  0  0  0
  -28.7002  -13.0294   20.9964 C   0  0  0  0  0  0
  -25.2582  -13.8176   20.5678 C   0  0  0  0  0  0
  -24.1837  -13.0446   20.9174 C   0  0  0  0  0  0
  -24.6395  -11.6913   20.8729 C   0  0  0  0  0  0
  -23.9061  -10.4297   21.0399 C   0  0  0  0  0  0
  -24.3615   -9.4213   21.9179 C   0  0  0  0  0  0
  -23.6296   -8.2245   22.0755 C   0  0  0  0  0  0
  -22.4278   -8.0280   21.3544 C   0  0  0  0  0  0
  -21.9908   -9.0253   20.4645 C   0  0  0  0  0  0
  -22.7234  -10.2134   20.3050 C   0  0  0  0  0  0
  -21.6852   -6.0732   22.5281 C   0  0  0  0  0  0
  -21.4011   -6.5636   23.8214 C   0  0  0  0  0  0
  -21.3659   -5.6786   24.9174 C   0  0  0  0  0  0
  -21.6044   -4.3047   24.7223 C   0  0  0  0  0  0
  -21.8821   -3.8139   23.4343 C   0  0  0  0  0  0
  -21.9193   -4.6959   22.3402 C   0  0  0  0  0  0
  -22.7858  -13.5239   21.1838 C   0  0  0  0  0  0
  -22.1662   -4.2145   21.0980 F   0  0  0  0  0  0
  -21.5629   -3.4530   25.7735 F   0  0  0  0  0  0
  -30.0279  -13.3317   20.4401 N   0  0  0  0  0  0
  -26.3011  -12.9351   20.3332 N   0  0  0  0  0  0
  -25.9324  -11.6507   20.5761 N   0  0  0  0  0  0
  -22.0498  -12.8235   22.0399 N   0  0  0  0  0  0
  -25.4320  -15.1892   20.4111 N   0  0  0  0  0  0
  -31.8318  -14.6767   20.1185 O   0  0  0  0  0  0
  -21.6640   -6.8876   21.4243 O   0  0  0  0  0  0
  -22.3539  -14.5543   20.6684 O   0  0  0  0  0  0
  -24.6177  -31.8650   23.2073 C   0  0  0  0  0  0
  -25.9058  -32.4805   23.8383 C   0  0  1  0  0  0
  -27.2338  -27.4096   20.1088 C   0  0  0  0  0  0
  -25.5909  -33.8604   24.2321 N   0  0  0  0  0  0
  -23.4077  -30.4872   21.5476 C   0  0  2  0  0  0
  -24.8559  -28.9472   20.1150 C   0  0  0  0  0  0
  -22.7427  -29.4649   22.4977 C   0  0  0  0  0  0
  -18.0273  -28.1382   22.8492 C   0  0  0  0  0  0
  -24.1485  -36.7304   23.2640 C   0  0  0  0  0  0
  -25.9384  -30.8249   21.3624 C   0  0  0  0  0  0
  -26.0178  -29.4569   20.7100 C   0  0  0  0  0  0
  -27.2135  -28.6977   20.6982 C   0  0  0  0  0  0
  -26.0575  -26.9185   19.5074 C   0  0  0  0  0  0
  -24.8720  -27.6790   19.5076 C   0  0  0  0  0  0
  -23.6179  -29.8156   20.1638 C   0  0  0  0  0  0
  -25.4104  -36.3101   24.0341 C   0  0  1  0  0  0
  -20.5866  -28.3674   23.1308 C   0  0  2  0  0  0
  -20.6761  -26.9408   22.5414 C   0  0  0  0  0  0
  -19.5739  -26.6387   21.5214 C   0  0  0  0  0  0
  -18.1916  -26.7931   22.1619 C   0  0  0  0  0  0
  -19.1522  -28.8846   23.2894 C   0  0  0  0  0  0
  -18.9449  -30.1452   23.8903 C   0  0  0  0  0  0
  -17.6450  -30.6587   24.0563 C   0  0  0  0  0  0
  -25.9037  -34.9468   23.5128 C   0  0  0  0  0  0
  -16.5340  -29.9086   23.6329 C   0  0  0  0  0  0
  -16.7261  -28.6503   23.0352 C   0  0  0  0  0  0
  -26.4480  -31.6589   25.0720 C   0  0  0  0  0  0
  -25.3751  -31.3698   26.1477 C   0  0  0  0  0  0
  -27.0299  -30.3024   24.6109 C   0  0  0  0  0  0
  -27.6062  -32.4305   25.7473 C   0  0  0  0  0  0
  -27.5584  -37.1796   24.8460 C   0  0  0  0  0  0
  -21.4152  -29.3037   22.3715 N   0  0  0  0  0  0
  -26.4285  -37.3795   23.9423 N   0  0  0  0  0  0
  -24.6731  -31.0738   22.0977 N   0  0  0  0  0  0
  -23.4188  -28.8198   23.3034 O   0  0  0  0  0  0
  -28.3726  -26.6275   20.1153 O   0  0  0  0  0  0
  -26.5592  -34.8926   22.4688 O   0  0  0  0  0  0
  -23.5362  -32.1408   23.7456 O   0  0  0  0  0  0
  -30.3475  -18.7900   19.2248 C   0  0  0  0  0  0
  -30.3882  -17.4221   19.1646 C   0  0  0  0  0  0
  -30.0241  -16.9641   20.4702 C   0  0  0  0  0  0
  -29.6914  -18.0538   21.2447 C   0  0  0  0  0  0
  -30.7324  -16.6197   17.9362 C   0  0  0  0  0  0
  -29.2038  -18.1370   22.6574 C   0  0  0  0  0  0
  -28.1935  -21.3197   18.9529 C   0  0  0  0  0  0
  -28.5481  -24.0788   20.1579 C   0  0  0  0  0  0
  -28.3379  -22.8177   21.0640 C   0  0  0  0  0  0
  -29.8002  -20.6257   20.8819 C   0  0  0  0  0  0
  -28.2807  -25.4200   20.9094 C   0  0  0  0  0  0
  -28.4890  -21.3711   20.4628 C   0  0  2  0  0  0
  -29.9166  -19.2042   20.4753 N   0  0  0  0  0  0
  -29.9095  -15.5897   20.8908 N   0  0  0  0  0  0
  -31.4716  -12.4173   19.1456 H   0  0  0  0  0  0
  -30.3280  -11.3200   19.8652 H   0  0  0  0  0  0
  -29.7498  -11.7472   17.4576 H   0  0  0  0  0  0
  -29.6694  -13.4618   17.7565 H   0  0  0  0  0  0
  -27.8352  -11.3005   18.8398 H   0  0  0  0  0  0
  -27.3742  -12.6115   17.7883 H   0  0  0  0  0  0
  -27.6926  -14.2530   19.5472 H   0  0  0  0  0  0
  -28.6829  -12.0046   21.3703 H   0  0  0  0  0  0
  -28.4620  -13.6610   21.8534 H   0  0  0  0  0  0
  -25.2767   -9.5690   22.4742 H   0  0  0  0  0  0
  -24.0008   -7.4638   22.7476 H   0  0  0  0  0  0
  -21.0835   -8.8769   19.8957 H   0  0  0  0  0  0
  -22.3698  -10.9663   19.6150 H   0  0  0  0  0  0
  -21.2003   -7.6144   23.9719 H   0  0  0  0  0  0
  -21.1475   -6.0510   25.9079 H   0  0  0  0  0  0
  -22.0597   -2.7602   23.2840 H   0  0  0  0  0  0
  -22.4098  -11.9894   22.4788 H   0  0  0  0  0  0
  -21.1120  -13.1272   22.2605 H   0  0  0  0  0  0
  -24.6693  -15.8483   20.5247 H   0  0  0  0  0  0
  -26.2889  -15.6275   20.0966 H   0  0  0  0  0  0
  -26.7131  -32.5509   23.1148 H   0  0  0  0  0  0
  -25.0088  -33.9758   25.0489 H   0  0  0  0  0  0
  -22.6981  -31.3048   21.4052 H   0  0  0  0  0  0
  -23.3753  -35.9626   23.3284 H   0  0  0  0  0  0
  -24.3593  -36.8939   22.2060 H   0  0  0  0  0  0
  -23.7221  -37.6498   23.6664 H   0  0  0  0  0  0
  -26.0533  -31.5894   20.5927 H   0  0  0  0  0  0
  -26.8257  -30.8785   21.9817 H   0  0  0  0  0  0
  -28.1117  -29.0852   21.1590 H   0  0  0  0  0  0
  -26.0587  -25.9414   19.0445 H   0  0  0  0  0  0
  -23.9795  -27.2802   19.0446 H   0  0  0  0  0  0
  -23.7250  -30.5876   19.4010 H   0  0  0  0  0  0
  -22.7427  -29.2336   19.8696 H   0  0  0  0  0  0
  -25.1279  -36.1961   25.0833 H   0  0  0  0  0  0
  -20.9957  -28.3240   24.1429 H   0  0  0  0  0  0
  -20.5663  -26.2284   23.3605 H   0  0  0  0  0  0
  -21.6629  -26.7445   22.1204 H   0  0  0  0  0  0
  -19.6893  -25.6298   21.1243 H   0  0  0  0  0  0
  -19.6686  -27.3197   20.6743 H   0  0  0  0  0  0
  -17.4194  -26.6696   21.4011 H   0  0  0  0  0  0
  -18.0302  -26.0066   22.9005 H   0  0  0  0  0  0
  -19.7927  -30.7263   24.2277 H   0  0  0  0  0  0
  -17.5006  -31.6271   24.5158 H   0  0  0  0  0  0
  -15.5339  -30.2987   23.7654 H   0  0  0  0  0  0
  -15.8661  -28.0822   22.7063 H   0  0  0  0  0  0
  -24.5911  -30.7059   25.7818 H   0  0  0  0  0  0
  -24.8959  -32.2850   26.4959 H   0  0  0  0  0  0
  -25.8112  -30.8841   27.0216 H   0  0  0  0  0  0
  -26.2831  -29.6778   24.1190 H   0  0  0  0  0  0
  -27.4085  -29.7274   25.4570 H   0  0  0  0  0  0
  -27.8669  -30.4327   23.9244 H   0  0  0  0  0  0
  -27.2698  -33.3613   26.2052 H   0  0  0  0  0  0
  -28.3867  -32.6847   25.0288 H   0  0  0  0  0  0
  -28.0732  -31.8424   26.5384 H   0  0  0  0  0  0
  -28.2582  -38.0113   24.7542 H   0  0  0  0  0  0
  -28.1098  -36.2649   24.6233 H   0  0  0  0  0  0
  -27.2315  -37.1382   25.8865 H   0  0  0  0  0  0
  -20.9322  -29.8756   21.6927 H   0  0  0  0  0  0
  -26.0171  -38.2868   24.1444 H   0  0  0  0  0  0
  -30.5755  -19.5267   18.4649 H   0  0  0  0  0  0
  -30.6151  -17.2236   17.0361 H   0  0  0  0  0  0
  -30.0727  -15.7582   17.8457 H   0  0  0  0  0  0
  -31.7642  -16.2714   17.9791 H   0  0  0  0  0  0
  -28.9477  -17.1523   23.0484 H   0  0  0  0  0  0
  -28.3129  -18.7609   22.7289 H   0  0  0  0  0  0
  -29.9671  -18.5622   23.3091 H   0  0  0  0  0  0
  -27.2421  -21.7998   18.7222 H   0  0  0  0  0  0
  -28.1196  -20.2935   18.5943 H   0  0  0  0  0  0
  -28.9731  -21.8193   18.3771 H   0  0  0  0  0  0
  -27.8759  -24.0309   19.3012 H   0  0  0  0  0  0
  -29.5612  -24.0806   19.7548 H   0  0  0  0  0  0
  -27.3225  -22.8893   21.4573 H   0  0  0  0  0  0
  -28.9760  -22.9058   21.9443 H   0  0  0  0  0  0
  -29.9218  -20.6821   21.9637 H   0  0  0  0  0  0
  -30.6581  -21.1595   20.4705 H   0  0  0  0  0  0
  -29.0107  -25.5162   21.7133 H   0  0  0  0  0  0
  -27.3129  -25.3567   21.4116 H   0  0  0  0  0  0
  -27.6956  -20.7862   20.9320 H   0  0  0  0  0  0
  -29.0638  -15.3511   21.3855 H   0  0  0  0  0  0
  1 25  1  0  0  0
  1 30  2  0  0  0
  1 84  1  0  0  0
  2  3  1  0  0  0
  2 25  1  0  0  0
  2 85  1  0  0  0
  2 86  1  0  0  0
  3  4  1  0  0  0
  3 87  1  0  0  0
  3 88  1  0  0  0
  4  5  1  0  0  0
  4 89  1  0  0  0
  4 90  1  0  0  0
  5  6  1  0  0  0
  5 26  1  0  0  0
  5 91  1  0  0  0
  6 25  1  0  0  0
  6 92  1  0  0  0
  6 93  1  0  0  0
  7  8  2  0  0  0
  7 26  1  0  0  0
  7 29  1  0  0  0
  8  9  1  0  0  0
  8 22  1  0  0  0
  9 10  1  0  0  0
  9 27  2  0  0  0
 10 11  2  0  0  0
 10 15  1  0  0  0
 11 12  1  0  0  0
 11 94  1  0  0  0
 12 13  2  0  0  0
 12 95  1  0  0  0
 13 14  1  0  0  0
 13 31  1  0  0  0
 14 15  2  0  0  0
 14 96  1  0  0  0
 15 97  1  0  0  0
 16 17  2  0  0  0
 16 21  1  0  0  0
 16 31  1  0  0  0
 17 18  1  0  0  0
 17 98  1  0  0  0
 18 19  2  0  0  0
 18 99  1  0  0  0
 19 20  1  0  0  0
 19 24  1  0  0  0
 20 21  2  0  0  0
 20100  1  0  0  0
 21 23  1  0  0  0
 22 28  1  0  0  0
 22 32  2  0  0  0
 26 27  1  0  0  0
 28101  1  0  0  0
 28102  1  0  0  0
 29103  1  0  0  0
 29104  1  0  0  0
 33 34  1  0  0  0
 33 66  1  0  0  0
 33 70  2  0  0  0
 34 36  1  0  0  0
 34 59  1  0  0  0
 34105  1  0  0  0
 35 44  2  0  0  0
 35 45  1  0  0  0
 35 68  1  0  0  0
 36 56  1  0  0  0
 36106  1  0  0  0
 37 39  1  0  0  0
 37 47  1  0  0  0
 37 66  1  0  0  0
 37107  1  0  0  0
 38 43  2  0  0  0
 38 46  1  0  0  0
 38 47  1  0  0  0
 39 64  1  0  0  0
 39 67  2  0  0  0
 40 52  1  0  0  0
 40 53  2  0  0  0
 40 58  1  0  0  0
 41108  1  0  0  0
 41109  1  0  0  0
 41110  1  0  0  0
 41 48  1  0  0  0
 42 43  1  0  0  0
 42 66  1  0  0  0
 42111  1  0  0  0
 42112  1  0  0  0
 43 44  1  0  0  0
 44113  1  0  0  0
 45 46  2  0  0  0
 45114  1  0  0  0
 46115  1  0  0  0
 47116  1  0  0  0
 47117  1  0  0  0
 48 56  1  0  0  0
 48 65  1  0  0  0
 48118  1  0  0  0
 49 50  1  0  0  0
 49 53  1  0  0  0
 49 64  1  0  0  0
 49119  1  0  0  0
 50 51  1  0  0  0
 50120  1  0  0  0
 50121  1  0  0  0
 51 52  1  0  0  0
 51122  1  0  0  0
 51123  1  0  0  0
 52124  1  0  0  0
 52125  1  0  0  0
 53 54  1  0  0  0
 54 55  2  0  0  0
 54126  1  0  0  0
 55 57  1  0  0  0
 55127  1  0  0  0
 56 69  2  0  0  0
 57 58  2  0  0  0
 57128  1  0  0  0
 58129  1  0  0  0
 59 60  1  0  0  0
 59 61  1  0  0  0
 59 62  1  0  0  0
 60130  1  0  0  0
 60131  1  0  0  0
 60132  1  0  0  0
 61133  1  0  0  0
 61134  1  0  0  0
 61135  1  0  0  0
 62136  1  0  0  0
 62137  1  0  0  0
 62138  1  0  0  0
 63 65  1  0  0  0
 63139  1  0  0  0
 63140  1  0  0  0
 63141  1  0  0  0
 64142  1  0  0  0
 65143  1  0  0  0
 68 81  1  0  0  0
 71 72  2  0  0  0
 71 83  1  0  0  0
 71144  1  0  0  0
 72 73  1  0  0  0
 72 75  1  0  0  0
 73 74  2  0  0  0
 73 84  1  0  0  0
 74 76  1  0  0  0
 74 83  1  0  0  0
 75145  1  0  0  0
 75146  1  0  0  0
 75147  1  0  0  0
 76148  1  0  0  0
 76149  1  0  0  0
 76150  1  0  0  0
 77151  1  0  0  0
 77152  1  0  0  0
 77153  1  0  0  0
 77 82  1  0  0  0
 78 79  1  0  0  0
 78 81  1  0  0  0
 78154  1  0  0  0
 78155  1  0  0  0
 79 82  1  0  0  0
 79156  1  0  0  0
 79157  1  0  0  0
 80 82  1  0  0  0
 80 83  1  0  0  0
 80158  1  0  0  0
 80159  1  0  0  0
 81160  1  0  0  0
 81161  1  0  0  0
 82162  1  0  0  0
 84163  1  0  0  0
M  ISO  4   1 100  68 101  81 101  84 100
M  END
> <chiral flag>
0

> <version>
0

> <s_m_source_file>
/data/baiqing/PycharmProjects/Reinvent-master-3.2/result/LINK_invent/BTK/process_docking_weight1_custom_sum_contain_oxygen_bond_distance_aromatic_linkinvent_7_9_3/rearranged_h_0016.sdf

> <i_m_source_file_index>
42

> <r_mmod_Potential_Energy-OPLS-2005>
-17.4371948242188

> <r_mmod_Stretch_Energy-OPLS-2005>
45.9936676025391

> <r_mmod_Bend_Energy-OPLS-2005>
116.790954589844

> <r_mmod_Torsional_Energy-OPLS-2005>
274.445556640625

> <r_mmod_Improper_Torsional_Energy-OPLS-2005>
4.17505311965942

> <r_mmod_Van_der_Waal_Energy-OPLS-2005>
117.30680847168

> <r_mmod_Electrostatic_Energy-OPLS-2005>
-393.172393798828

> <r_mmod_Solvation_Energy-OPLS-2005>
-204.002685546875

> <b_mmod_Minimization_Converged-OPLS-2005>
0

> <r_mmod_RMS_Derivative-OPLS-2005>
0.792840301990509

$$$$
42
                    3D
 Structure written by MMmdl.
168176  0  0  1  0            999 V2000
  -30.6959  -14.5505   20.4991 C   0  0  0  0  0  0
  -30.4743  -12.3409   19.4614 C   0  0  0  0  0  0
  -29.5275  -12.3998   18.2447 C   0  0  0  0  0  0
  -28.0512  -12.2749   18.6779 C   0  0  0  0  0  0
  -27.6671  -13.2050   19.8610 C   0  0  2  0  0  0
  -28.7151  -13.0819   20.9895 C   0  0  0  0  0  0
  -25.2335  -13.7999   20.5247 C   0  0  0  0  0  0
  -24.1733  -13.0342   20.9218 C   0  0  0  0  0  0
  -24.6450  -11.6875   20.8948 C   0  0  0  0  0  0
  -23.9126  -10.4244   21.0541 C   0  0  0  0  0  0
  -24.3644   -9.4085   21.9256 C   0  0  0  0  0  0
  -23.6269   -8.2143   22.0804 C   0  0  0  0  0  0
  -22.4251   -8.0247   21.3588 C   0  0  0  0  0  0
  -21.9909   -9.0244   20.4707 C   0  0  0  0  0  0
  -22.7301  -10.2116   20.3138 C   0  0  0  0  0  0
  -21.6816   -6.0711   22.5294 C   0  0  0  0  0  0
  -21.4002   -6.5640   23.8213 C   0  0  0  0  0  0
  -21.3645   -5.6803   24.9174 C   0  0  0  0  0  0
  -21.6061   -4.3074   24.7252 C   0  0  0  0  0  0
  -21.8796   -3.8147   23.4376 C   0  0  0  0  0  0
  -21.9186   -4.6945   22.3421 C   0  0  0  0  0  0
  -22.7745  -13.5128   21.1796 C   0  0  0  0  0  0
  -22.1647   -4.2118   21.1001 F   0  0  0  0  0  0
  -21.5632   -3.4562   25.7771 F   0  0  0  0  0  0
  -30.0337  -13.3893   20.3893 N   0  0  0  0  0  0
  -26.3014  -12.9339   20.3305 N   0  0  0  0  0  0
  -25.9380  -11.6555   20.5984 N   0  0  0  0  0  0
  -22.0395  -12.8257   22.0489 N   0  0  0  0  0  0
  -25.3476  -15.1553   20.2621 N   0  0  0  0  0  0
  -31.9060  -14.6413   20.2785 O   0  0  0  0  0  0
  -21.6609   -6.8858   21.4271 O   0  0  0  0  0  0
  -22.3433  -14.5366   20.6552 O   0  0  0  0  0  0
  -24.6248  -31.8728   23.2094 C   0  0  0  0  0  0
  -25.9130  -32.4855   23.8455 C   0  0  1  0  0  0
  -27.2960  -27.4696   20.0657 C   0  0  0  0  0  0
  -25.5949  -33.8635   24.2398 N   0  0  0  0  0  0
  -23.4177  -30.5075   21.5428 C   0  0  2  0  0  0
  -24.8783  -28.9567   20.1181 C   0  0  0  0  0  0
  -22.7379  -29.5092   22.5105 C   0  0  0  0  0  0
  -18.0268  -28.1636   22.8276 C   0  0  0  0  0  0
  -24.1510  -36.7286   23.2648 C   0  0  0  0  0  0
  -25.9408  -30.8598   21.3491 C   0  0  0  0  0  0
  -26.0328  -29.4848   20.7068 C   0  0  0  0  0  0
  -27.2452  -28.7522   20.6766 C   0  0  0  0  0  0
  -26.1082  -26.9409   19.5103 C   0  0  0  0  0  0
  -24.9179  -27.6908   19.5142 C   0  0  0  0  0  0
  -23.6215  -29.7887   20.1777 C   0  0  0  0  0  0
  -25.4128  -36.3138   24.0359 C   0  0  1  0  0  0
  -20.5828  -28.4094   23.0902 C   0  0  2  0  0  0
  -20.7151  -27.0131   22.4331 C   0  0  0  0  0  0
  -19.5725  -26.6077   21.5013 C   0  0  0  0  0  0
  -18.1682  -26.8372   22.0912 C   0  0  0  0  0  0
  -19.1489  -28.9018   23.2702 C   0  0  0  0  0  0
  -18.9381  -30.1452   23.9128 C   0  0  0  0  0  0
  -17.6563  -30.6672   24.1087 C   0  0  0  0  0  0
  -25.9012  -34.9517   23.5159 C   0  0  0  0  0  0
  -16.5463  -29.9348   23.6553 C   0  0  0  0  0  0
  -16.7380  -28.6902   23.0260 C   0  0  0  0  0  0
  -26.4548  -31.6618   25.0730 C   0  0  0  0  0  0
  -25.3867  -31.3644   26.1491 C   0  0  0  0  0  0
  -27.0288  -30.3074   24.6017 C   0  0  0  0  0  0
  -27.6132  -32.4313   25.7527 C   0  0  0  0  0  0
  -27.5567  -37.1807   24.8453 C   0  0  0  0  0  0
  -21.4084  -29.3869   22.3881 N   0  0  0  0  0  0
  -26.4300  -37.3837   23.9374 N   0  0  0  0  0  0
  -24.6813  -31.0920   22.0967 N   0  0  0  0  0  0
  -23.4068  -28.8310   23.2894 O   0  0  0  0  0  0
  -28.5056  -26.7944   20.0330 O   0  0  0  0  0  0
  -26.5593  -34.8937   22.4728 O   0  0  0  0  0  0
  -23.5402  -32.1468   23.7507 O   0  0  0  0  0  0
  -30.5461  -18.4657   23.0655 C   0  0  0  0  0  0
  -29.4577  -19.3085   22.7449 C   0  0  0  0  0  0
  -30.8443  -17.3035   22.2777 C   0  0  0  0  0  0
  -28.6004  -18.9162   21.6986 C   0  0  0  0  0  0
  -28.6616  -17.5617   21.3029 C   0  0  0  0  0  0
  -29.8764  -16.8409   21.3328 C   0  0  0  0  0  0
  -27.8344  -21.8280   19.6307 C   0  0  0  0  0  0
  -29.1891  -20.5946   23.5234 C   0  0  0  0  0  0
  -32.1493  -16.6053   22.5764 C   0  0  0  0  0  0
  -27.4971  -16.7329   21.8319 C   0  0  0  0  0  0
  -26.3667  -21.9458   19.2309 C   0  0  0  0  0  0
  -27.5914  -19.8967   21.0998 C   0  0  0  0  0  0
  -28.7345  -22.9972   19.1662 C   0  0  0  0  0  0
  -28.3303  -24.3357   19.8634 C   0  0  0  0  0  0
  -28.7060  -25.6589   19.1665 C   0  0  0  0  0  0
  -28.3539  -20.8841   20.3189 N   0  0  0  0  0  0
  -29.8860  -15.6427   20.5117 N   0  0  0  0  0  0
  -31.5097  -12.4784   19.1288 H   0  0  0  0  0  0
  -30.4414  -11.3721   19.9589 H   0  0  0  0  0  0
  -29.7688  -11.5736   17.5748 H   0  0  0  0  0  0
  -29.7026  -13.3280   17.6961 H   0  0  0  0  0  0
  -27.9273  -11.2444   19.0186 H   0  0  0  0  0  0
  -27.3675  -12.4294   17.8409 H   0  0  0  0  0  0
  -27.6791  -14.2384   19.5109 H   0  0  0  0  0  0
  -28.7302  -12.0739   21.4055 H   0  0  0  0  0  0
  -28.4715  -13.7562   21.8146 H   0  0  0  0  0  0
  -25.2787   -9.5499   22.4837 H   0  0  0  0  0  0
  -23.9958   -7.4502   22.7535 H   0  0  0  0  0  0
  -21.0779   -8.8816   19.9001 H   0  0  0  0  0  0
  -22.3772  -10.9681   19.6249 H   0  0  0  0  0  0
  -21.1996   -7.6144   23.9699 H   0  0  0  0  0  0
  -21.1485   -6.0551   25.9075 H   0  0  0  0  0  0
  -22.0603   -2.7603   23.2900 H   0  0  0  0  0  0
  -22.4041  -11.9980   22.4989 H   0  0  0  0  0  0
  -21.0994  -13.1272   22.2688 H   0  0  0  0  0  0
  -24.5125  -15.7288   20.2588 H   0  0  0  0  0  0
  -26.0598  -15.5177   19.6472 H   0  0  0  0  0  0
  -26.7225  -32.5664   23.1302 H   0  0  0  0  0  0
  -25.0134  -33.9896   25.0549 H   0  0  0  0  0  0
  -22.7211  -31.3273   21.3653 H   0  0  0  0  0  0
  -23.3768  -35.9608   23.3360 H   0  0  0  0  0  0
  -24.3552  -36.8838   22.2015 H   0  0  0  0  0  0
  -23.7221  -37.6512   23.6608 H   0  0  0  0  0  0
  -26.0441  -31.6206   20.5793 H   0  0  0  0  0  0
  -26.8346  -30.9376   21.9632 H   0  0  0  0  0  0
  -28.1517  -29.1894   21.0861 H   0  0  0  0  0  0
  -26.0908  -25.9629   19.0597 H   0  0  0  0  0  0
  -24.0385  -27.2856   19.0436 H   0  0  0  0  0  0
  -23.6712  -30.5235   19.3686 H   0  0  0  0  0  0
  -22.7708  -29.1521   19.9235 H   0  0  0  0  0  0
  -25.1312  -36.2049   25.0838 H   0  0  0  0  0  0
  -20.9864  -28.3273   24.0971 H   0  0  0  0  0  0
  -20.8293  -26.2852   23.2262 H   0  0  0  0  0  0
  -21.6334  -26.9401   21.8506 H   0  0  0  0  0  0
  -19.6954  -25.5588   21.2446 H   0  0  0  0  0  0
  -19.6727  -27.1415   20.5650 H   0  0  0  0  0  0
  -17.4424  -26.8050   21.2779 H   0  0  0  0  0  0
  -17.9224  -26.0274   22.7732 H   0  0  0  0  0  0
  -19.7914  -30.7129   24.2552 H   0  0  0  0  0  0
  -17.5228  -31.6283   24.5935 H   0  0  0  0  0  0
  -15.5585  -30.3453   23.8175 H   0  0  0  0  0  0
  -15.8587  -28.1642   22.6734 H   0  0  0  0  0  0
  -24.6111  -30.6924   25.7803 H   0  0  0  0  0  0
  -24.9009  -32.2757   26.5008 H   0  0  0  0  0  0
  -25.8306  -30.8800   27.0216 H   0  0  0  0  0  0
  -26.2744  -29.6939   24.1091 H   0  0  0  0  0  0
  -27.4047  -29.7218   25.4411 H   0  0  0  0  0  0
  -27.8639  -30.4318   23.9113 H   0  0  0  0  0  0
  -27.2766  -33.3583   26.2218 H   0  0  0  0  0  0
  -28.3975  -32.6966   25.0397 H   0  0  0  0  0  0
  -28.0861  -31.8396   26.5422 H   0  0  0  0  0  0
  -28.2658  -38.0060   24.7534 H   0  0  0  0  0  0
  -28.1036  -36.2594   24.6318 H   0  0  0  0  0  0
  -27.2265  -37.1481   25.8869 H   0  0  0  0  0  0
  -20.9291  -30.0192   21.7690 H   0  0  0  0  0  0
  -26.0206  -38.2932   24.1369 H   0  0  0  0  0  0
  -31.1942  -18.7346   23.8882 H   0  0  0  0  0  0
  -29.9794  -20.8353   24.2429 H   0  0  0  0  0  0
  -28.2624  -20.4578   24.0961 H   0  0  0  0  0  0
  -29.0658  -21.4641   22.8782 H   0  0  0  0  0  0
  -32.8203  -17.2654   23.1166 H   0  0  0  0  0  0
  -32.7074  -16.3362   21.6890 H   0  0  0  0  0  0
  -31.9908  -15.6989   23.1559 H   0  0  0  0  0  0
  -26.5478  -17.2502   21.8311 H   0  0  0  0  0  0
  -27.7270  -16.4377   22.8618 H   0  0  0  0  0  0
  -27.4142  -15.7981   21.2985 H   0  0  0  0  0  0
  -26.0908  -22.9768   19.0104 H   0  0  0  0  0  0
  -25.6976  -21.5895   20.0242 H   0  0  0  0  0  0
  -26.1879  -21.3755   18.3257 H   0  0  0  0  0  0
  -27.0986  -20.4125   21.9224 H   0  0  0  0  0  0
  -26.8179  -19.3880   20.5194 H   0  0  0  0  0  0
  -28.7552  -23.0560   18.0726 H   0  0  0  0  0  0
  -29.7661  -22.7744   19.4523 H   0  0  0  0  0  0
  -28.7478  -24.3299   20.8648 H   0  0  0  0  0  0
  -27.2578  -24.3796   20.0443 H   0  0  0  0  0  0
  -28.1932  -25.7888   18.2118 H   0  0  0  0  0  0
  -29.7657  -25.6628   18.9029 H   0  0  0  0  0  0
  -29.0057  -15.4371   20.0536 H   0  0  0  0  0  0
  1 25  1  0  0  0
  1 30  2  0  0  0
  1 87  1  0  0  0
  2  3  1  0  0  0
  2 25  1  0  0  0
  2 88  1  0  0  0
  2 89  1  0  0  0
  3  4  1  0  0  0
  3 90  1  0  0  0
  3 91  1  0  0  0
  4  5  1  0  0  0
  4 92  1  0  0  0
  4 93  1  0  0  0
  5  6  1  0  0  0
  5 26  1  0  0  0
  5 94  1  0  0  0
  6 25  1  0  0  0
  6 95  1  0  0  0
  6 96  1  0  0  0
  7  8  2  0  0  0
  7 26  1  0  0  0
  7 29  1  0  0  0
  8  9  1  0  0  0
  8 22  1  0  0  0
  9 10  1  0  0  0
  9 27  2  0  0  0
 10 11  2  0  0  0
 10 15  1  0  0  0
 11 12  1  0  0  0
 11 97  1  0  0  0
 12 13  2  0  0  0
 12 98  1  0  0  0
 13 14  1  0  0  0
 13 31  1  0  0  0
 14 15  2  0  0  0
 14 99  1  0  0  0
 15100  1  0  0  0
 16 17  2  0  0  0
 16 21  1  0  0  0
 16 31  1  0  0  0
 17 18  1  0  0  0
 17101  1  0  0  0
 18 19  2  0  0  0
 18102  1  0  0  0
 19 20  1  0  0  0
 19 24  1  0  0  0
 20 21  2  0  0  0
 20103  1  0  0  0
 21 23  1  0  0  0
 22 28  1  0  0  0
 22 32  2  0  0  0
 26 27  1  0  0  0
 28104  1  0  0  0
 28105  1  0  0  0
 29106  1  0  0  0
 29107  1  0  0  0
 33 34  1  0  0  0
 33 66  1  0  0  0
 33 70  2  0  0  0
 34 36  1  0  0  0
 34 59  1  0  0  0
 34108  1  0  0  0
 35 44  2  0  0  0
 35 45  1  0  0  0
 35 68  1  0  0  0
 36 56  1  0  0  0
 36109  1  0  0  0
 37 39  1  0  0  0
 37 47  1  0  0  0
 37 66  1  0  0  0
 37110  1  0  0  0
 38 43  2  0  0  0
 38 46  1  0  0  0
 38 47  1  0  0  0
 39 64  1  0  0  0
 39 67  2  0  0  0
 40 52  1  0  0  0
 40 53  2  0  0  0
 40 58  1  0  0  0
 41111  1  0  0  0
 41112  1  0  0  0
 41113  1  0  0  0
 41 48  1  0  0  0
 42 43  1  0  0  0
 42 66  1  0  0  0
 42114  1  0  0  0
 42115  1  0  0  0
 43 44  1  0  0  0
 44116  1  0  0  0
 45 46  2  0  0  0
 45117  1  0  0  0
 46118  1  0  0  0
 47119  1  0  0  0
 47120  1  0  0  0
 48 56  1  0  0  0
 48 65  1  0  0  0
 48121  1  0  0  0
 49 50  1  0  0  0
 49 53  1  0  0  0
 49 64  1  0  0  0
 49122  1  0  0  0
 50 51  1  0  0  0
 50123  1  0  0  0
 50124  1  0  0  0
 51 52  1  0  0  0
 51125  1  0  0  0
 51126  1  0  0  0
 52127  1  0  0  0
 52128  1  0  0  0
 53 54  1  0  0  0
 54 55  2  0  0  0
 54129  1  0  0  0
 55 57  1  0  0  0
 55130  1  0  0  0
 56 69  2  0  0  0
 57 58  2  0  0  0
 57131  1  0  0  0
 58132  1  0  0  0
 59 60  1  0  0  0
 59 61  1  0  0  0
 59 62  1  0  0  0
 60133  1  0  0  0
 60134  1  0  0  0
 60135  1  0  0  0
 61136  1  0  0  0
 61137  1  0  0  0
 61138  1  0  0  0
 62139  1  0  0  0
 62140  1  0  0  0
 62141  1  0  0  0
 63 65  1  0  0  0
 63142  1  0  0  0
 63143  1  0  0  0
 63144  1  0  0  0
 64145  1  0  0  0
 65146  1  0  0  0
 68 85  1  0  0  0
 71 72  2  0  0  0
 71 73  1  0  0  0
 71147  1  0  0  0
 72 74  1  0  0  0
 72 78  1  0  0  0
 73 76  2  0  0  0
 73 79  1  0  0  0
 74 75  2  0  0  0
 74 82  1  0  0  0
 75 76  1  0  0  0
 75 80  1  0  0  0
 76 87  1  0  0  0
 77 81  1  0  0  0
 77 83  1  0  0  0
 77 86  2  0  0  0
 78148  1  0  0  0
 78149  1  0  0  0
 78150  1  0  0  0
 79151  1  0  0  0
 79152  1  0  0  0
 79153  1  0  0  0
 80154  1  0  0  0
 80155  1  0  0  0
 80156  1  0  0  0
 81157  1  0  0  0
 81158  1  0  0  0
 81159  1  0  0  0
 82 86  1  0  0  0
 82160  1  0  0  0
 82161  1  0  0  0
 83 84  1  0  0  0
 83162  1  0  0  0
 83163  1  0  0  0
 84 85  1  0  0  0
 84164  1  0  0  0
 84165  1  0  0  0
 85166  1  0  0  0
 85167  1  0  0  0
 87168  1  0  0  0
M  ISO  4   1 100  68 101  85 101  87 100
M  END
> <chiral flag>
0

> <version>
0

> <s_m_source_file>
/data/baiqing/PycharmProjects/Reinvent-master-3.2/result/LINK_invent/BTK/process_docking_weight1_custom_sum_contain_oxygen_bond_distance_aromatic_linkinvent_7_9_3/rearranged_h_0016.sdf

> <i_m_source_file_index>
43

> <r_mmod_Potential_Energy-OPLS-2005>
178.118865966797

> <r_mmod_Stretch_Energy-OPLS-2005>
49.5263595581055

> <r_mmod_Bend_Energy-OPLS-2005>
160.712142944336

> <r_mmod_Torsional_Energy-OPLS-2005>
397.084320068359

> <r_mmod_Improper_Torsional_Energy-OPLS-2005>
27.0886631011963

> <r_mmod_Van_der_Waal_Energy-OPLS-2005>
168.132568359375

> <r_mmod_Electrostatic_Energy-OPLS-2005>
-457.641693115234

> <r_mmod_Solvation_Energy-OPLS-2005>
-208.616561889648

> <b_mmod_Minimization_Converged-OPLS-2005>
0

> <r_mmod_RMS_Derivative-OPLS-2005>
22.6296367645264

$$$$
43
                    3D
 Structure written by MMmdl.
159167  0  0  1  0            999 V2000
  -30.7120  -14.4578   20.6011 C   0  0  0  0  0  0
  -30.4254  -12.3076   19.4191 C   0  0  0  0  0  0
  -29.4952  -12.5156   18.2065 C   0  0  0  0  0  0
  -28.0164  -12.3749   18.6177 C   0  0  0  0  0  0
  -27.6653  -13.2067   19.8804 C   0  0  2  0  0  0
  -28.7062  -12.9728   20.9992 C   0  0  0  0  0  0
  -25.2603  -13.8161   20.5688 C   0  0  0  0  0  0
  -24.1837  -13.0436   20.9141 C   0  0  0  0  0  0
  -24.6389  -11.6904   20.8706 C   0  0  0  0  0  0
  -23.9048  -10.4293   21.0387 C   0  0  0  0  0  0
  -24.3604   -9.4214   21.9170 C   0  0  0  0  0  0
  -23.6288   -8.2245   22.0746 C   0  0  0  0  0  0
  -22.4268   -8.0277   21.3541 C   0  0  0  0  0  0
  -21.9896   -9.0246   20.4642 C   0  0  0  0  0  0
  -22.7217  -10.2131   20.3046 C   0  0  0  0  0  0
  -21.6853   -6.0730   22.5278 C   0  0  0  0  0  0
  -21.4011   -6.5634   23.8213 C   0  0  0  0  0  0
  -21.3661   -5.6789   24.9176 C   0  0  0  0  0  0
  -21.6049   -4.3052   24.7226 C   0  0  0  0  0  0
  -21.8820   -3.8142   23.4346 C   0  0  0  0  0  0
  -21.9191   -4.6958   22.3401 C   0  0  0  0  0  0
  -22.7862  -13.5239   21.1824 C   0  0  0  0  0  0
  -22.1662   -4.2143   21.0978 F   0  0  0  0  0  0
  -21.5633   -3.4537   25.7738 F   0  0  0  0  0  0
  -30.0426  -13.2801   20.4558 N   0  0  0  0  0  0
  -26.3046  -12.9331   20.3394 N   0  0  0  0  0  0
  -25.9322  -11.6485   20.5757 N   0  0  0  0  0  0
  -22.0509  -12.8238   22.0393 N   0  0  0  0  0  0
  -25.4349  -15.1881   20.4178 N   0  0  0  0  0  0
  -31.7985  -14.6766   20.0602 O   0  0  0  0  0  0
  -21.6638   -6.8871   21.4239 O   0  0  0  0  0  0
  -22.3535  -14.5546   20.6684 O   0  0  0  0  0  0
  -24.6163  -31.8681   23.2111 C   0  0  0  0  0  0
  -25.9052  -32.4824   23.8403 C   0  0  1  0  0  0
  -27.2284  -27.4147   20.0896 C   0  0  0  0  0  0
  -25.5905  -33.8622   24.2329 N   0  0  0  0  0  0
  -23.4041  -30.4943   21.5522 C   0  0  2  0  0  0
  -24.8481  -28.9639   20.1125 C   0  0  0  0  0  0
  -22.7419  -29.4663   22.4982 C   0  0  0  0  0  0
  -18.0273  -28.1380   22.8495 C   0  0  0  0  0  0
  -24.1487  -36.7314   23.2637 C   0  0  0  0  0  0
  -25.9369  -30.8256   21.3701 C   0  0  0  0  0  0
  -26.0106  -29.4601   20.7148 C   0  0  0  0  0  0
  -27.1999  -28.6911   20.7053 C   0  0  0  0  0  0
  -26.0433  -26.9501   19.4670 C   0  0  0  0  0  0
  -24.8608  -27.7083   19.4875 C   0  0  0  0  0  0
  -23.6126  -29.8330   20.1648 C   0  0  0  0  0  0
  -25.4108  -36.3112   24.0336 C   0  0  1  0  0  0
  -20.5867  -28.3667   23.1318 C   0  0  2  0  0  0
  -20.6767  -26.9403   22.5418 C   0  0  0  0  0  0
  -19.5744  -26.6387   21.5217 C   0  0  0  0  0  0
  -18.1922  -26.7927   22.1629 C   0  0  0  0  0  0
  -19.1524  -28.8839   23.2904 C   0  0  0  0  0  0
  -18.9451  -30.1447   23.8913 C   0  0  0  0  0  0
  -17.6453  -30.6589   24.0564 C   0  0  0  0  0  0
  -25.9038  -34.9478   23.5130 C   0  0  0  0  0  0
  -16.5344  -29.9091   23.6326 C   0  0  0  0  0  0
  -16.7263  -28.6508   23.0349 C   0  0  0  0  0  0
  -26.4472  -31.6606   25.0734 C   0  0  0  0  0  0
  -25.3735  -31.3720   26.1480 C   0  0  0  0  0  0
  -27.0303  -30.3045   24.6123 C   0  0  0  0  0  0
  -27.6049  -32.4326   25.7492 C   0  0  0  0  0  0
  -27.5581  -37.1812   24.8465 C   0  0  0  0  0  0
  -21.4145  -29.3034   22.3723 N   0  0  0  0  0  0
  -26.4294  -37.3796   23.9408 N   0  0  0  0  0  0
  -24.6708  -31.0771   22.1022 N   0  0  0  0  0  0
  -23.4190  -28.8198   23.3019 O   0  0  0  0  0  0
  -28.3947  -26.6623   20.1275 O   0  0  0  0  0  0
  -26.5598  -34.8929   22.4690 O   0  0  0  0  0  0
  -23.5353  -32.1441   23.7496 O   0  0  0  0  0  0
  -31.4176  -18.9295   21.3264 C   0  0  0  0  0  0
  -30.3082  -19.6738   20.8481 C   0  0  0  0  0  0
  -29.1040  -18.9467   20.5724 C   0  0  0  0  0  0
  -30.2076  -16.8100   21.1612 C   0  0  0  0  0  0
  -29.0826  -17.5345   20.7139 C   0  0  0  0  0  0
  -31.3758  -17.5301   21.5046 C   0  0  0  0  0  0
  -30.4980  -21.1742   20.6440 C   0  0  0  0  0  0
  -27.1969  -20.2225   21.2453 C   0  0  0  0  0  0
  -29.5082  -24.4075   20.1283 C   0  0  0  0  0  0
  -29.7077  -23.1322   19.2575 C   0  0  0  0  0  0
  -28.3477  -25.3075   19.6354 C   0  0  0  0  0  0
  -30.0707  -15.3953   21.3198 N   0  0  0  0  0  0
  -27.8954  -19.5378   20.1611 N   0  0  0  0  0  0
  -29.5688  -21.8354   19.9389 N   0  0  0  0  0  0
  -31.5228  -21.7381   21.0381 O   0  0  0  0  0  0
  -27.9432  -16.8569   20.4186 F   0  0  0  0  0  0
  -32.7564  -16.7505   22.1959 Cl  0  0  0  0  0  0
  -31.4697  -12.4067   19.1185 H   0  0  0  0  0  0
  -30.3254  -11.2921   19.8055 H   0  0  0  0  0  0
  -29.7348  -11.7967   17.4218 H   0  0  0  0  0  0
  -29.6648  -13.5041   17.7767 H   0  0  0  0  0  0
  -27.8248  -11.3177   18.8058 H   0  0  0  0  0  0
  -27.3663  -12.6584   17.7891 H   0  0  0  0  0  0
  -27.7140  -14.2574   19.5936 H   0  0  0  0  0  0
  -28.6797  -11.9323   21.3262 H   0  0  0  0  0  0
  -28.4589  -13.5550   21.8869 H   0  0  0  0  0  0
  -25.2755   -9.5702   22.4733 H   0  0  0  0  0  0
  -24.0009   -7.4640   22.7465 H   0  0  0  0  0  0
  -21.0826   -8.8756   19.8950 H   0  0  0  0  0  0
  -22.3669  -10.9662   19.6150 H   0  0  0  0  0  0
  -21.2003   -7.6144   23.9712 H   0  0  0  0  0  0
  -21.1485   -6.0520   25.9080 H   0  0  0  0  0  0
  -22.0598   -2.7603   23.2844 H   0  0  0  0  0  0
  -22.4133  -11.9904   22.4785 H   0  0  0  0  0  0
  -21.1130  -13.1262   22.2606 H   0  0  0  0  0  0
  -24.6778  -15.8481   20.5520 H   0  0  0  0  0  0
  -26.3179  -15.6407   20.2026 H   0  0  0  0  0  0
  -26.7120  -32.5529   23.1164 H   0  0  0  0  0  0
  -25.0058  -33.9786   25.0475 H   0  0  0  0  0  0
  -22.6932  -31.3118   21.4160 H   0  0  0  0  0  0
  -23.3747  -35.9649   23.3312 H   0  0  0  0  0  0
  -24.3580  -36.8916   22.2050 H   0  0  0  0  0  0
  -23.7243  -37.6524   23.6643 H   0  0  0  0  0  0
  -26.0556  -31.5916   20.6025 H   0  0  0  0  0  0
  -26.8234  -30.8755   21.9910 H   0  0  0  0  0  0
  -28.0937  -29.0681   21.1831 H   0  0  0  0  0  0
  -25.9962  -26.0017   18.9536 H   0  0  0  0  0  0
  -23.9690  -27.3232   19.0125 H   0  0  0  0  0  0
  -23.7241  -30.6111   19.4089 H   0  0  0  0  0  0
  -22.7354  -29.2562   19.8660 H   0  0  0  0  0  0
  -25.1286  -36.1979   25.0829 H   0  0  0  0  0  0
  -20.9961  -28.3232   24.1437 H   0  0  0  0  0  0
  -20.5685  -26.2269   23.3602 H   0  0  0  0  0  0
  -21.6636  -26.7455   22.1200 H   0  0  0  0  0  0
  -19.6906  -25.6303   21.1234 H   0  0  0  0  0  0
  -19.6688  -27.3209   20.6757 H   0  0  0  0  0  0
  -17.4195  -26.6677   21.4027 H   0  0  0  0  0  0
  -18.0322  -26.0067   22.9024 H   0  0  0  0  0  0
  -19.7928  -30.7254   24.2292 H   0  0  0  0  0  0
  -17.5011  -31.6272   24.5161 H   0  0  0  0  0  0
  -15.5345  -30.2998   23.7644 H   0  0  0  0  0  0
  -15.8662  -28.0834   22.7054 H   0  0  0  0  0  0
  -24.5899  -30.7077   25.7817 H   0  0  0  0  0  0
  -24.8935  -32.2879   26.4937 H   0  0  0  0  0  0
  -25.8082  -30.8879   27.0235 H   0  0  0  0  0  0
  -26.2853  -29.6812   24.1161 H   0  0  0  0  0  0
  -27.4050  -29.7277   25.4589 H   0  0  0  0  0  0
  -27.8701  -30.4361   23.9295 H   0  0  0  0  0  0
  -27.2669  -33.3617   26.2096 H   0  0  0  0  0  0
  -28.3841  -32.6902   25.0306 H   0  0  0  0  0  0
  -28.0736  -31.8435   26.5386 H   0  0  0  0  0  0
  -28.2606  -38.0102   24.7506 H   0  0  0  0  0  0
  -28.1067  -36.2633   24.6297 H   0  0  0  0  0  0
  -27.2297  -37.1474   25.8868 H   0  0  0  0  0  0
  -20.9302  -29.8758   21.6950 H   0  0  0  0  0  0
  -26.0184  -38.2876   24.1406 H   0  0  0  0  0  0
  -32.3370  -19.4402   21.5745 H   0  0  0  0  0  0
  -26.7247  -21.1355   20.8794 H   0  0  0  0  0  0
  -27.8576  -20.4979   22.0699 H   0  0  0  0  0  0
  -26.4108  -19.5830   21.6506 H   0  0  0  0  0  0
  -30.4320  -24.9866   20.0988 H   0  0  0  0  0  0
  -29.3554  -24.1478   21.1761 H   0  0  0  0  0  0
  -30.6889  -23.1723   18.7807 H   0  0  0  0  0  0
  -28.9950  -23.1278   18.4322 H   0  0  0  0  0  0
  -27.4329  -24.8018   19.9467 H   0  0  0  0  0  0
  -28.3441  -25.3531   18.5453 H   0  0  0  0  0  0
  -29.1705  -15.0915   21.6561 H   0  0  0  0  0  0
  -27.2925  -18.8205   19.7579 H   0  0  0  0  0  0
  -28.7580  -21.2594   19.7117 H   0  0  0  0  0  0
  1 25  1  0  0  0
  1 30  2  0  0  0
  1 82  1  0  0  0
  2  3  1  0  0  0
  2 25  1  0  0  0
  2 88  1  0  0  0
  2 89  1  0  0  0
  3  4  1  0  0  0
  3 90  1  0  0  0
  3 91  1  0  0  0
  4  5  1  0  0  0
  4 92  1  0  0  0
  4 93  1  0  0  0
  5  6  1  0  0  0
  5 26  1  0  0  0
  5 94  1  0  0  0
  6 25  1  0  0  0
  6 95  1  0  0  0
  6 96  1  0  0  0
  7  8  2  0  0  0
  7 26  1  0  0  0
  7 29  1  0  0  0
  8  9  1  0  0  0
  8 22  1  0  0  0
  9 10  1  0  0  0
  9 27  2  0  0  0
 10 11  2  0  0  0
 10 15  1  0  0  0
 11 12  1  0  0  0
 11 97  1  0  0  0
 12 13  2  0  0  0
 12 98  1  0  0  0
 13 14  1  0  0  0
 13 31  1  0  0  0
 14 15  2  0  0  0
 14 99  1  0  0  0
 15100  1  0  0  0
 16 17  2  0  0  0
 16 21  1  0  0  0
 16 31  1  0  0  0
 17 18  1  0  0  0
 17101  1  0  0  0
 18 19  2  0  0  0
 18102  1  0  0  0
 19 20  1  0  0  0
 19 24  1  0  0  0
 20 21  2  0  0  0
 20103  1  0  0  0
 21 23  1  0  0  0
 22 28  1  0  0  0
 22 32  2  0  0  0
 26 27  1  0  0  0
 28104  1  0  0  0
 28105  1  0  0  0
 29106  1  0  0  0
 29107  1  0  0  0
 33 34  1  0  0  0
 33 66  1  0  0  0
 33 70  2  0  0  0
 34 36  1  0  0  0
 34 59  1  0  0  0
 34108  1  0  0  0
 35 44  2  0  0  0
 35 45  1  0  0  0
 35 68  1  0  0  0
 36 56  1  0  0  0
 36109  1  0  0  0
 37 39  1  0  0  0
 37 47  1  0  0  0
 37 66  1  0  0  0
 37110  1  0  0  0
 38 43  2  0  0  0
 38 46  1  0  0  0
 38 47  1  0  0  0
 39 64  1  0  0  0
 39 67  2  0  0  0
 40 52  1  0  0  0
 40 53  2  0  0  0
 40 58  1  0  0  0
 41111  1  0  0  0
 41112  1  0  0  0
 41113  1  0  0  0
 41 48  1  0  0  0
 42 43  1  0  0  0
 42 66  1  0  0  0
 42114  1  0  0  0
 42115  1  0  0  0
 43 44  1  0  0  0
 44116  1  0  0  0
 45 46  2  0  0  0
 45117  1  0  0  0
 46118  1  0  0  0
 47119  1  0  0  0
 47120  1  0  0  0
 48 56  1  0  0  0
 48 65  1  0  0  0
 48121  1  0  0  0
 49 50  1  0  0  0
 49 53  1  0  0  0
 49 64  1  0  0  0
 49122  1  0  0  0
 50 51  1  0  0  0
 50123  1  0  0  0
 50124  1  0  0  0
 51 52  1  0  0  0
 51125  1  0  0  0
 51126  1  0  0  0
 52127  1  0  0  0
 52128  1  0  0  0
 53 54  1  0  0  0
 54 55  2  0  0  0
 54129  1  0  0  0
 55 57  1  0  0  0
 55130  1  0  0  0
 56 69  2  0  0  0
 57 58  2  0  0  0
 57131  1  0  0  0
 58132  1  0  0  0
 59 60  1  0  0  0
 59 61  1  0  0  0
 59 62  1  0  0  0
 60133  1  0  0  0
 60134  1  0  0  0
 60135  1  0  0  0
 61136  1  0  0  0
 61137  1  0  0  0
 61138  1  0  0  0
 62139  1  0  0  0
 62140  1  0  0  0
 62141  1  0  0  0
 63 65  1  0  0  0
 63142  1  0  0  0
 63143  1  0  0  0
 63144  1  0  0  0
 64145  1  0  0  0
 65146  1  0  0  0
 68 81  1  0  0  0
 71 72  2  0  0  0
 71 76  1  0  0  0
 71147  1  0  0  0
 72 73  1  0  0  0
 72 77  1  0  0  0
 73 75  2  0  0  0
 73 83  1  0  0  0
 74 75  1  0  0  0
 74 76  2  0  0  0
 74 82  1  0  0  0
 75 86  1  0  0  0
 76 87  1  0  0  0
 77 84  1  0  0  0
 77 85  2  0  0  0
 78 83  1  0  0  0
 78148  1  0  0  0
 78149  1  0  0  0
 78150  1  0  0  0
 79 80  1  0  0  0
 79 81  1  0  0  0
 79151  1  0  0  0
 79152  1  0  0  0
 80 84  1  0  0  0
 80153  1  0  0  0
 80154  1  0  0  0
 81155  1  0  0  0
 81156  1  0  0  0
 82157  1  0  0  0
 83158  1  0  0  0
 84159  1  0  0  0
M  ISO  4   1 100  68 101  81 101  82 100
M  END
> <chiral flag>
0

> <version>
0

> <s_m_source_file>
/data/baiqing/PycharmProjects/Reinvent-master-3.2/result/LINK_invent/BTK/process_docking_weight1_custom_sum_contain_oxygen_bond_distance_aromatic_linkinvent_7_9_3/rearranged_h_0016.sdf

> <i_m_source_file_index>
44

> <r_mmod_Potential_Energy-OPLS-2005>
-47.7534027099609

> <r_mmod_Stretch_Energy-OPLS-2005>
43.7710380554199

> <r_mmod_Bend_Energy-OPLS-2005>
114.522323608398

> <r_mmod_Torsional_Energy-OPLS-2005>
257.755767822266

> <r_mmod_Improper_Torsional_Energy-OPLS-2005>
11.3438148498535

> <r_mmod_Van_der_Waal_Energy-OPLS-2005>
169.004638671875

> <r_mmod_Electrostatic_Energy-OPLS-2005>
-427.038604736328

> <r_mmod_Solvation_Energy-OPLS-2005>
-230.194442749023

> <b_mmod_Minimization_Converged-OPLS-2005>
0

> <r_mmod_RMS_Derivative-OPLS-2005>
0.687666296958923

$$$$
44
                    3D
 Structure written by MMmdl.
167174  0  0  1  0            999 V2000
  -30.7573  -14.3876   20.6244 C   0  0  0  0  0  0
  -30.4138  -12.2838   19.4005 C   0  0  0  0  0  0
  -29.4842  -12.5218   18.1953 C   0  0  0  0  0  0
  -28.0026  -12.4027   18.6027 C   0  0  0  0  0  0
  -27.6680  -13.2093   19.8840 C   0  0  2  0  0  0
  -28.7123  -12.9530   20.9953 C   0  0  0  0  0  0
  -25.2605  -13.8143   20.5657 C   0  0  0  0  0  0
  -24.1860  -13.0433   20.9173 C   0  0  0  0  0  0
  -24.6414  -11.6895   20.8738 C   0  0  0  0  0  0
  -23.9063  -10.4289   21.0409 C   0  0  0  0  0  0
  -24.3613   -9.4198   21.9185 C   0  0  0  0  0  0
  -23.6306   -8.2219   22.0740 C   0  0  0  0  0  0
  -22.4288   -8.0259   21.3537 C   0  0  0  0  0  0
  -21.9920   -9.0231   20.4638 C   0  0  0  0  0  0
  -22.7224  -10.2126   20.3066 C   0  0  0  0  0  0
  -21.6855   -6.0724   22.5273 C   0  0  0  0  0  0
  -21.3995   -6.5629   23.8202 C   0  0  0  0  0  0
  -21.3686   -5.6790   24.9173 C   0  0  0  0  0  0
  -21.6081   -4.3057   24.7224 C   0  0  0  0  0  0
  -21.8815   -3.8134   23.4343 C   0  0  0  0  0  0
  -21.9185   -4.6948   22.3399 C   0  0  0  0  0  0
  -22.7877  -13.5230   21.1844 C   0  0  0  0  0  0
  -22.1651   -4.2116   21.0984 F   0  0  0  0  0  0
  -21.5666   -3.4557   25.7747 F   0  0  0  0  0  0
  -30.0486  -13.2453   20.4480 N   0  0  0  0  0  0
  -26.3066  -12.9331   20.3391 N   0  0  0  0  0  0
  -25.9355  -11.6487   20.5787 N   0  0  0  0  0  0
  -22.0529  -12.8221   22.0401 N   0  0  0  0  0  0
  -25.4343  -15.1836   20.3972 N   0  0  0  0  0  0
  -31.8514  -14.5940   20.0952 O   0  0  0  0  0  0
  -21.6649   -6.8862   21.4231 O   0  0  0  0  0  0
  -22.3556  -14.5528   20.6669 O   0  0  0  0  0  0
  -24.6098  -31.8728   23.2143 C   0  0  0  0  0  0
  -25.9019  -32.4847   23.8435 C   0  0  1  0  0  0
  -27.2282  -27.4693   20.0938 C   0  0  0  0  0  0
  -25.5896  -33.8640   24.2395 N   0  0  0  0  0  0
  -23.3970  -30.4961   21.5537 C   0  0  2  0  0  0
  -24.8428  -28.9683   20.1163 C   0  0  0  0  0  0
  -22.7391  -29.4668   22.4994 C   0  0  0  0  0  0
  -18.0295  -28.1372   22.8505 C   0  0  0  0  0  0
  -24.1461  -36.7310   23.2647 C   0  0  0  0  0  0
  -25.9242  -30.8456   21.3660 C   0  0  0  0  0  0
  -26.0018  -29.4833   20.7133 C   0  0  0  0  0  0
  -27.2018  -28.7418   20.6995 C   0  0  0  0  0  0
  -26.0617  -26.9736   19.4710 C   0  0  0  0  0  0
  -24.8668  -27.7090   19.4927 C   0  0  0  0  0  0
  -23.6056  -29.8309   20.1670 C   0  0  0  0  0  0
  -25.4086  -36.3143   24.0375 C   0  0  1  0  0  0
  -20.5882  -28.3654   23.1332 C   0  0  2  0  0  0
  -20.6769  -26.9401   22.5409 C   0  0  0  0  0  0
  -19.5738  -26.6396   21.5215 C   0  0  0  0  0  0
  -18.1928  -26.7927   22.1637 C   0  0  0  0  0  0
  -19.1537  -28.8832   23.2921 C   0  0  0  0  0  0
  -18.9458  -30.1458   23.8910 C   0  0  0  0  0  0
  -17.6448  -30.6577   24.0580 C   0  0  0  0  0  0
  -25.9014  -34.9496   23.5176 C   0  0  0  0  0  0
  -16.5347  -29.9072   23.6333 C   0  0  0  0  0  0
  -16.7284  -28.6495   23.0343 C   0  0  0  0  0  0
  -26.4481  -31.6577   25.0719 C   0  0  0  0  0  0
  -25.3792  -31.3635   26.1488 C   0  0  0  0  0  0
  -27.0312  -30.3045   24.6043 C   0  0  0  0  0  0
  -27.6080  -32.4262   25.7457 C   0  0  0  0  0  0
  -27.5584  -37.1804   24.8492 C   0  0  0  0  0  0
  -21.4129  -29.3013   22.3728 N   0  0  0  0  0  0
  -26.4286  -37.3805   23.9436 N   0  0  0  0  0  0
  -24.6609  -31.0847   22.1031 N   0  0  0  0  0  0
  -23.4170  -28.8237   23.3041 O   0  0  0  0  0  0
  -28.3644  -26.7050   20.0450 O   0  0  0  0  0  0
  -26.5546  -34.8926   22.4722 O   0  0  0  0  0  0
  -23.5293  -32.1434   23.7585 O   0  0  0  0  0  0
  -27.6024  -18.2990   19.3040 C   0  0  0  0  0  0
  -28.6360  -25.9046   21.0940 C   0  0  0  0  0  0
  -30.4528  -19.0854   20.5227 C   0  0  0  0  0  0
  -30.4430  -17.1933   18.8956 C   0  0  0  0  0  0
  -28.3913  -17.5734   20.4006 C   0  0  0  0  0  0
  -28.9321  -24.4689   20.6625 C   0  0  0  0  0  0
  -27.6182  -23.6768   20.5005 C   0  0  0  0  0  0
  -27.7405  -22.4274   19.6208 C   0  0  0  0  0  0
  -26.3583  -21.8036   19.3295 C   0  0  0  0  0  0
  -26.4367  -20.4054   18.7002 C   0  0  0  0  0  0
  -30.5660  -16.7430   21.4056 C   0  0  0  0  0  0
  -29.9484  -17.6413   20.2927 C   0  0  0  0  0  0
  -27.1104  -19.4979   19.6175 N   0  0  0  0  0  0
  -30.1403  -15.3435   21.3255 N   0  0  0  0  0  0
  -27.4296  -17.7757   18.2020 O   0  0  0  0  0  0
  -28.5237  -26.2068   22.2846 O   0  0  0  0  0  0
  -31.4569  -12.3762   19.0907 H   0  0  0  0  0  0
  -30.3086  -11.2650   19.7771 H   0  0  0  0  0  0
  -29.7090  -11.8119   17.3995 H   0  0  0  0  0  0
  -29.6666  -13.5145   17.7826 H   0  0  0  0  0  0
  -27.7711  -11.3480   18.7470 H   0  0  0  0  0  0
  -27.3645  -12.7361   17.7847 H   0  0  0  0  0  0
  -27.7289  -14.2636   19.6165 H   0  0  0  0  0  0
  -28.6778  -11.9104   21.3125 H   0  0  0  0  0  0
  -28.4770  -13.5302   21.8900 H   0  0  0  0  0  0
  -25.2756   -9.5677   22.4755 H   0  0  0  0  0  0
  -24.0034   -7.4610   22.7456 H   0  0  0  0  0  0
  -21.0855   -8.8737   19.8940 H   0  0  0  0  0  0
  -22.3680  -10.9665   19.6175 H   0  0  0  0  0  0
  -21.1949   -7.6129   23.9685 H   0  0  0  0  0  0
  -21.1547   -6.0530   25.9085 H   0  0  0  0  0  0
  -22.0578   -2.7588   23.2852 H   0  0  0  0  0  0
  -22.4182  -11.9909   22.4813 H   0  0  0  0  0  0
  -21.1131  -13.1211   22.2587 H   0  0  0  0  0  0
  -24.6581  -15.8312   20.4736 H   0  0  0  0  0  0
  -26.2619  -15.5986   19.9895 H   0  0  0  0  0  0
  -26.7081  -32.5579   23.1195 H   0  0  0  0  0  0
  -25.0109  -33.9813   25.0582 H   0  0  0  0  0  0
  -22.6823  -31.3113   21.4190 H   0  0  0  0  0  0
  -23.3742  -35.9631   23.3323 H   0  0  0  0  0  0
  -24.3580  -36.8866   22.2060 H   0  0  0  0  0  0
  -23.7164  -37.6516   23.6600 H   0  0  0  0  0  0
  -26.0344  -31.6117   20.5969 H   0  0  0  0  0  0
  -26.8146  -30.8983   21.9807 H   0  0  0  0  0  0
  -28.0991  -29.1370   21.1554 H   0  0  0  0  0  0
  -26.0790  -26.0220   18.9602 H   0  0  0  0  0  0
  -23.9815  -27.3140   19.0126 H   0  0  0  0  0  0
  -23.7173  -30.6069   19.4092 H   0  0  0  0  0  0
  -22.7283  -29.2519   19.8706 H   0  0  0  0  0  0
  -25.1245  -36.2035   25.0872 H   0  0  0  0  0  0
  -21.0009  -28.3218   24.1443 H   0  0  0  0  0  0
  -20.5679  -26.2274   23.3587 H   0  0  0  0  0  0
  -21.6634  -26.7427   22.1202 H   0  0  0  0  0  0
  -19.6879  -25.6312   21.1218 H   0  0  0  0  0  0
  -19.6671  -27.3225   20.6756 H   0  0  0  0  0  0
  -17.4200  -26.6722   21.4031 H   0  0  0  0  0  0
  -18.0319  -26.0056   22.9012 H   0  0  0  0  0  0
  -19.7928  -30.7312   24.2227 H   0  0  0  0  0  0
  -17.4993  -31.6251   24.5195 H   0  0  0  0  0  0
  -15.5340  -30.2970   23.7641 H   0  0  0  0  0  0
  -15.8700  -28.0837   22.6998 H   0  0  0  0  0  0
  -24.6005  -30.6928   25.7832 H   0  0  0  0  0  0
  -24.8952  -32.2760   26.4966 H   0  0  0  0  0  0
  -25.8215  -30.8805   27.0213 H   0  0  0  0  0  0
  -26.2829  -29.6782   24.1172 H   0  0  0  0  0  0
  -27.4192  -29.7293   25.4455 H   0  0  0  0  0  0
  -27.8611  -30.4397   23.9109 H   0  0  0  0  0  0
  -27.2748  -33.3563   26.2078 H   0  0  0  0  0  0
  -28.3863  -32.6797   25.0243 H   0  0  0  0  0  0
  -28.0781  -31.8348   26.5325 H   0  0  0  0  0  0
  -28.2626  -38.0076   24.7539 H   0  0  0  0  0  0
  -28.1048  -36.2613   24.6307 H   0  0  0  0  0  0
  -27.2331  -37.1455   25.8905 H   0  0  0  0  0  0
  -20.9273  -29.8719   21.6955 H   0  0  0  0  0  0
  -26.0204  -38.2906   24.1408 H   0  0  0  0  0  0
  -30.0776  -19.7888   19.7764 H   0  0  0  0  0  0
  -31.5429  -19.1324   20.4795 H   0  0  0  0  0  0
  -30.1534  -19.4612   21.5014 H   0  0  0  0  0  0
  -30.1710  -17.9085   18.1168 H   0  0  0  0  0  0
  -30.0235  -16.2330   18.5982 H   0  0  0  0  0  0
  -31.5285  -17.0971   18.8694 H   0  0  0  0  0  0
  -28.0530  -16.5402   20.3781 H   0  0  0  0  0  0
  -28.0790  -17.9510   21.3746 H   0  0  0  0  0  0
  -29.5917  -23.9918   21.3879 H   0  0  0  0  0  0
  -29.4721  -24.5043   19.7164 H   0  0  0  0  0  0
  -26.8472  -24.3128   20.0726 H   0  0  0  0  0  0
  -27.2441  -23.3970   21.4870 H   0  0  0  0  0  0
  -28.4042  -21.7160   20.1129 H   0  0  0  0  0  0
  -28.2179  -22.6862   18.6731 H   0  0  0  0  0  0
  -25.7945  -22.4667   18.6698 H   0  0  0  0  0  0
  -25.7751  -21.7432   20.2511 H   0  0  0  0  0  0
  -26.9706  -20.4505   17.7482 H   0  0  0  0  0  0
  -25.4358  -20.0237   18.4858 H   0  0  0  0  0  0
  -30.2795  -17.1227   22.3877 H   0  0  0  0  0  0
  -31.6559  -16.8070   21.3863 H   0  0  0  0  0  0
  -27.2698  -19.8357   20.5567 H   0  0  0  0  0  0
  -29.2542  -15.0996   21.7412 H   0  0  0  0  0  0
  1 25  1  0  0  0
  1 30  2  0  0  0
  1 84  1  0  0  0
  2  3  1  0  0  0
  2 25  1  0  0  0
  2 87  1  0  0  0
  2 88  1  0  0  0
  3  4  1  0  0  0
  3 89  1  0  0  0
  3 90  1  0  0  0
  4  5  1  0  0  0
  4 91  1  0  0  0
  4 92  1  0  0  0
  5  6  1  0  0  0
  5 26  1  0  0  0
  5 93  1  0  0  0
  6 25  1  0  0  0
  6 94  1  0  0  0
  6 95  1  0  0  0
  7  8  2  0  0  0
  7 26  1  0  0  0
  7 29  1  0  0  0
  8  9  1  0  0  0
  8 22  1  0  0  0
  9 10  1  0  0  0
  9 27  2  0  0  0
 10 11  2  0  0  0
 10 15  1  0  0  0
 11 12  1  0  0  0
 11 96  1  0  0  0
 12 13  2  0  0  0
 12 97  1  0  0  0
 13 14  1  0  0  0
 13 31  1  0  0  0
 14 15  2  0  0  0
 14 98  1  0  0  0
 15 99  1  0  0  0
 16 17  2  0  0  0
 16 21  1  0  0  0
 16 31  1  0  0  0
 17 18  1  0  0  0
 17100  1  0  0  0
 18 19  2  0  0  0
 18101  1  0  0  0
 19 20  1  0  0  0
 19 24  1  0  0  0
 20 21  2  0  0  0
 20102  1  0  0  0
 21 23  1  0  0  0
 22 28  1  0  0  0
 22 32  2  0  0  0
 26 27  1  0  0  0
 28103  1  0  0  0
 28104  1  0  0  0
 29105  1  0  0  0
 29106  1  0  0  0
 33 34  1  0  0  0
 33 66  1  0  0  0
 33 70  2  0  0  0
 34 36  1  0  0  0
 34 59  1  0  0  0
 34107  1  0  0  0
 35 44  2  0  0  0
 35 45  1  0  0  0
 35 68  1  0  0  0
 36 56  1  0  0  0
 36108  1  0  0  0
 37 39  1  0  0  0
 37 47  1  0  0  0
 37 66  1  0  0  0
 37109  1  0  0  0
 38 43  2  0  0  0
 38 46  1  0  0  0
 38 47  1  0  0  0
 39 64  1  0  0  0
 39 67  2  0  0  0
 40 52  1  0  0  0
 40 53  2  0  0  0
 40 58  1  0  0  0
 41110  1  0  0  0
 41111  1  0  0  0
 41112  1  0  0  0
 41 48  1  0  0  0
 42 43  1  0  0  0
 42 66  1  0  0  0
 42113  1  0  0  0
 42114  1  0  0  0
 43 44  1  0  0  0
 44115  1  0  0  0
 45 46  2  0  0  0
 45116  1  0  0  0
 46117  1  0  0  0
 47118  1  0  0  0
 47119  1  0  0  0
 48 56  1  0  0  0
 48 65  1  0  0  0
 48120  1  0  0  0
 49 50  1  0  0  0
 49 53  1  0  0  0
 49 64  1  0  0  0
 49121  1  0  0  0
 50 51  1  0  0  0
 50122  1  0  0  0
 50123  1  0  0  0
 51 52  1  0  0  0
 51124  1  0  0  0
 51125  1  0  0  0
 52126  1  0  0  0
 52127  1  0  0  0
 53 54  1  0  0  0
 54 55  2  0  0  0
 54128  1  0  0  0
 55 57  1  0  0  0
 55129  1  0  0  0
 56 69  2  0  0  0
 57 58  2  0  0  0
 57130  1  0  0  0
 58131  1  0  0  0
 59 60  1  0  0  0
 59 61  1  0  0  0
 59 62  1  0  0  0
 60132  1  0  0  0
 60133  1  0  0  0
 60134  1  0  0  0
 61135  1  0  0  0
 61136  1  0  0  0
 61137  1  0  0  0
 62138  1  0  0  0
 62139  1  0  0  0
 62140  1  0  0  0
 63 65  1  0  0  0
 63141  1  0  0  0
 63142  1  0  0  0
 63143  1  0  0  0
 64144  1  0  0  0
 65145  1  0  0  0
 68 72  1  0  0  0
 71 75  1  0  0  0
 71 83  1  0  0  0
 71 85  2  0  0  0
 72 76  1  0  0  0
 72 86  2  0  0  0
 73146  1  0  0  0
 73147  1  0  0  0
 73148  1  0  0  0
 73 82  1  0  0  0
 74 82  1  0  0  0
 74149  1  0  0  0
 74150  1  0  0  0
 74151  1  0  0  0
 75 82  1  0  0  0
 75152  1  0  0  0
 75153  1  0  0  0
 76 77  1  0  0  0
 76154  1  0  0  0
 76155  1  0  0  0
 77 78  1  0  0  0
 77156  1  0  0  0
 77157  1  0  0  0
 78 79  1  0  0  0
 78158  1  0  0  0
 78159  1  0  0  0
 79 80  1  0  0  0
 79160  1  0  0  0
 79161  1  0  0  0
 80 83  1  0  0  0
 80162  1  0  0  0
 80163  1  0  0  0
 81 82  1  0  0  0
 81 84  1  0  0  0
 81164  1  0  0  0
 81165  1  0  0  0
 83166  1  0  0  0
 84167  1  0  0  0
M  ISO  4   1 100  68 101  72 101  84 100
M  END
> <chiral flag>
0

> <version>
0

> <s_m_source_file>
/data/baiqing/PycharmProjects/Reinvent-master-3.2/result/LINK_invent/BTK/process_docking_weight1_custom_sum_contain_oxygen_bond_distance_aromatic_linkinvent_7_9_3/rearranged_h_0016.sdf

> <i_m_source_file_index>
45

> <r_mmod_Potential_Energy-OPLS-2005>
-157.414642333984

> <r_mmod_Stretch_Energy-OPLS-2005>
32.5956039428711

> <r_mmod_Bend_Energy-OPLS-2005>
93.4932022094727

> <r_mmod_Torsional_Energy-OPLS-2005>
231.977569580078

> <r_mmod_Improper_Torsional_Energy-OPLS-2005>
4.69548368453979

> <r_mmod_Van_der_Waal_Energy-OPLS-2005>
128.330825805664

> <r_mmod_Electrostatic_Energy-OPLS-2005>
-427.196411132812

> <r_mmod_Solvation_Energy-OPLS-2005>
-229.58674621582

> <b_mmod_Minimization_Converged-OPLS-2005>
0

> <r_mmod_RMS_Derivative-OPLS-2005>
3.75878024101257

$$$$
45
                    3D
 Structure written by MMmdl.
156164  0  0  1  0            999 V2000
  -30.6229  -14.7159   20.4658 C   0  0  0  0  0  0
  -30.4230  -12.4349   19.4749 C   0  0  0  0  0  0
  -29.5075  -12.5069   18.2352 C   0  0  0  0  0  0
  -28.0320  -12.3390   18.6459 C   0  0  0  0  0  0
  -27.6408  -13.2329   19.8537 C   0  0  2  0  0  0
  -28.6824  -13.1600   20.9906 C   0  0  0  0  0  0
  -25.2492  -13.8196   20.5655 C   0  0  0  0  0  0
  -24.1790  -13.0440   20.9184 C   0  0  0  0  0  0
  -24.6394  -11.6924   20.8749 C   0  0  0  0  0  0
  -23.9079  -10.4295   21.0412 C   0  0  0  0  0  0
  -24.3625   -9.4207   21.9189 C   0  0  0  0  0  0
  -23.6297   -8.2244   22.0762 C   0  0  0  0  0  0
  -22.4281   -8.0283   21.3548 C   0  0  0  0  0  0
  -21.9919   -9.0256   20.4649 C   0  0  0  0  0  0
  -22.7249  -10.2133   20.3060 C   0  0  0  0  0  0
  -21.6858   -6.0735   22.5281 C   0  0  0  0  0  0
  -21.4009   -6.5640   23.8213 C   0  0  0  0  0  0
  -21.3651   -5.6790   24.9169 C   0  0  0  0  0  0
  -21.6043   -4.3057   24.7223 C   0  0  0  0  0  0
  -21.8821   -3.8151   23.4348 C   0  0  0  0  0  0
  -21.9191   -4.6964   22.3401 C   0  0  0  0  0  0
  -22.7817  -13.5228   21.1848 C   0  0  0  0  0  0
  -22.1663   -4.2155   21.0977 F   0  0  0  0  0  0
  -21.5625   -3.4540   25.7739 F   0  0  0  0  0  0
  -29.9849  -13.5001   20.4079 N   0  0  0  0  0  0
  -26.2934  -12.9411   20.3295 N   0  0  0  0  0  0
  -25.9324  -11.6559   20.5773 N   0  0  0  0  0  0
  -22.0464  -12.8216   22.0407 N   0  0  0  0  0  0
  -25.4154  -15.1908   20.4012 N   0  0  0  0  0  0
  -31.8099  -14.7747   20.1326 O   0  0  0  0  0  0
  -21.6637   -6.8878   21.4247 O   0  0  0  0  0  0
  -22.3507  -14.5537   20.6697 O   0  0  0  0  0  0
  -24.6298  -31.8552   23.1982 C   0  0  0  0  0  0
  -25.9143  -32.4742   23.8301 C   0  0  1  0  0  0
  -27.2136  -27.2733   20.1076 C   0  0  0  0  0  0
  -25.5954  -33.8546   24.2239 N   0  0  0  0  0  0
  -23.4236  -30.4825   21.5390 C   0  0  2  0  0  0
  -24.8676  -28.9284   20.1043 C   0  0  0  0  0  0
  -22.7481  -29.4609   22.4864 C   0  0  0  0  0  0
  -18.0277  -28.1397   22.8466 C   0  0  0  0  0  0
  -24.1497  -36.7279   23.2634 C   0  0  0  0  0  0
  -25.9682  -30.7729   21.3737 C   0  0  0  0  0  0
  -26.0382  -29.3968   20.7118 C   0  0  0  0  0  0
  -27.2107  -28.5790   20.7042 C   0  0  0  0  0  0
  -26.0139  -26.8615   19.4860 C   0  0  0  0  0  0
  -24.8594  -27.6694   19.4833 C   0  0  0  0  0  0
  -23.6424  -29.8203   20.1533 C   0  0  0  0  0  0
  -25.4117  -36.3055   24.0322 C   0  0  1  0  0  0
  -20.5882  -28.3696   23.1282 C   0  0  2  0  0  0
  -20.6767  -26.9411   22.5421 C   0  0  0  0  0  0
  -19.5753  -26.6380   21.5213 C   0  0  0  0  0  0
  -18.1913  -26.7939   22.1603 C   0  0  0  0  0  0
  -19.1531  -28.8853   23.2868 C   0  0  0  0  0  0
  -18.9474  -30.1447   23.8899 C   0  0  0  0  0  0
  -17.6481  -30.6592   24.0568 C   0  0  0  0  0  0
  -25.9063  -34.9435   23.5073 C   0  0  0  0  0  0
  -16.5362  -29.9101   23.6344 C   0  0  0  0  0  0
  -16.7270  -28.6527   23.0339 C   0  0  0  0  0  0
  -26.4517  -31.6563   25.0691 C   0  0  0  0  0  0
  -25.3768  -31.3754   26.1443 C   0  0  0  0  0  0
  -27.0346  -30.2978   24.6160 C   0  0  0  0  0  0
  -27.6073  -32.4290   25.7466 C   0  0  0  0  0  0
  -27.5575  -37.1779   24.8453 C   0  0  0  0  0  0
  -21.4179  -29.3059   22.3663 N   0  0  0  0  0  0
  -26.4272  -37.3765   23.9430 N   0  0  0  0  0  0
  -24.6927  -31.0545   22.0942 N   0  0  0  0  0  0
  -23.4202  -28.8115   23.2914 O   0  0  0  0  0  0
  -28.3405  -26.4279   20.1735 O   0  0  0  0  0  0
  -26.5614  -34.8904   22.4625 O   0  0  0  0  0  0
  -23.5468  -32.1365   23.7313 O   0  0  0  0  0  0
  -31.6007  -17.6837   20.7087 C   0  0  0  0  0  0
  -32.0161  -19.0297   20.6837 C   0  0  0  0  0  0
  -29.6822  -19.8269   20.5986 C   0  0  0  0  0  0
  -30.2403  -17.3096   20.6483 C   0  0  0  0  0  0
  -31.0776  -20.0862   20.6369 C   0  0  0  0  0  0
  -29.2908  -18.4150   20.6053 C   0  0  0  0  0  0
  -33.5062  -19.3276   20.7337 C   0  0  0  0  0  0
  -28.6680  -21.0643   20.7211 C   0  0  0  0  0  0
  -28.3136  -23.7081   20.5203 C   0  0  0  0  0  0
  -28.4097  -25.0390   19.6058 C   0  0  0  0  0  0
  -29.8672  -15.8649   20.6817 N   0  0  0  0  0  0
  -28.8713  -22.3830   19.9509 N   0  3  0  0  0  0
  -31.6793  -21.7121   20.6825 Cl  0  0  0  0  0  0
  -27.6106  -18.0083   20.6100 Cl  0  0  0  0  0  0
  -31.4670  -12.5407   19.1768 H   0  0  0  0  0  0
  -30.3510  -11.4576   19.9537 H   0  0  0  0  0  0
  -29.7856  -11.7373   17.5141 H   0  0  0  0  0  0
  -29.6451  -13.4646   17.7313 H   0  0  0  0  0  0
  -27.8797  -11.2891   18.8994 H   0  0  0  0  0  0
  -27.3796  -12.5440   17.7965 H   0  0  0  0  0  0
  -27.6370  -14.2562   19.4806 H   0  0  0  0  0  0
  -28.7109  -12.1629   21.4321 H   0  0  0  0  0  0
  -28.4248  -13.8448   21.7994 H   0  0  0  0  0  0
  -25.2768   -9.5687   22.4768 H   0  0  0  0  0  0
  -23.9999   -7.4642   22.7489 H   0  0  0  0  0  0
  -21.0849   -8.8781   19.8960 H   0  0  0  0  0  0
  -22.3711  -10.9674   19.6172 H   0  0  0  0  0  0
  -21.1999   -7.6148   23.9718 H   0  0  0  0  0  0
  -21.1468   -6.0517   25.9069 H   0  0  0  0  0  0
  -22.0607   -2.7616   23.2846 H   0  0  0  0  0  0
  -22.4067  -11.9854   22.4765 H   0  0  0  0  0  0
  -21.1102  -13.1269   22.2636 H   0  0  0  0  0  0
  -24.6433  -15.8409   20.4952 H   0  0  0  0  0  0
  -26.2601  -15.6377   20.0705 H   0  0  0  0  0  0
  -26.7181  -32.5418   23.1017 H   0  0  0  0  0  0
  -25.0144  -33.9655   25.0416 H   0  0  0  0  0  0
  -22.7190  -31.3047   21.3927 H   0  0  0  0  0  0
  -23.3766  -35.9602   23.3252 H   0  0  0  0  0  0
  -24.3602  -36.8981   22.2059 H   0  0  0  0  0  0
  -23.7243  -37.6457   23.6704 H   0  0  0  0  0  0
  -26.1050  -31.5364   20.6067 H   0  0  0  0  0  0
  -26.8474  -30.8211   22.0052 H   0  0  0  0  0  0
  -28.1093  -28.9324   21.1895 H   0  0  0  0  0  0
  -25.9222  -25.8948   19.0164 H   0  0  0  0  0  0
  -23.9589  -27.3071   19.0067 H   0  0  0  0  0  0
  -23.7743  -30.6012   19.4034 H   0  0  0  0  0  0
  -22.7592  -29.2621   19.8398 H   0  0  0  0  0  0
  -25.1292  -36.1859   25.0813 H   0  0  0  0  0  0
  -20.9971  -28.3285   24.1409 H   0  0  0  0  0  0
  -20.5660  -26.2300   23.3624 H   0  0  0  0  0  0
  -21.6634  -26.7421   22.1223 H   0  0  0  0  0  0
  -19.6927  -25.6289   21.1246 H   0  0  0  0  0  0
  -19.6730  -27.3186   20.6742 H   0  0  0  0  0  0
  -17.4197  -26.6710   21.3980 H   0  0  0  0  0  0
  -18.0282  -26.0069   22.8987 H   0  0  0  0  0  0
  -19.7955  -30.7240   24.2283 H   0  0  0  0  0  0
  -17.5047  -31.6278   24.5156 H   0  0  0  0  0  0
  -15.5364  -30.3011   23.7677 H   0  0  0  0  0  0
  -15.8664  -28.0862   22.7050 H   0  0  0  0  0  0
  -24.5928  -30.7086   25.7834 H   0  0  0  0  0  0
  -24.8964  -32.2947   26.4813 H   0  0  0  0  0  0
  -25.8112  -30.9000   27.0249 H   0  0  0  0  0  0
  -26.2905  -29.6704   24.1231 H   0  0  0  0  0  0
  -27.4102  -29.7253   25.4652 H   0  0  0  0  0  0
  -27.8762  -30.4250   23.9345 H   0  0  0  0  0  0
  -27.2713  -33.3656   26.1909 H   0  0  0  0  0  0
  -28.3969  -32.6713   25.0350 H   0  0  0  0  0  0
  -28.0605  -31.8473   26.5502 H   0  0  0  0  0  0
  -28.2536  -38.0114   24.7518 H   0  0  0  0  0  0
  -28.1113  -36.2643   24.6231 H   0  0  0  0  0  0
  -27.2294  -37.1377   25.8850 H   0  0  0  0  0  0
  -20.9318  -29.8893   21.6997 H   0  0  0  0  0  0
  -26.0139  -38.2832   24.1478 H   0  0  0  0  0  0
  -32.3709  -16.9361   20.7984 H   0  0  0  0  0  0
  -34.0974  -18.4178   20.8527 H   0  0  0  0  0  0
  -33.7410  -19.9867   21.5707 H   0  0  0  0  0  0
  -33.8238  -19.8160   19.8115 H   0  0  0  0  0  0
  -28.6412  -21.3187   21.7813 H   0  0  0  0  0  0
  -27.6615  -20.7224   20.4851 H   0  0  0  0  0  0
  -27.2699  -23.5617   20.7992 H   0  0  0  0  0  0
  -28.8451  -23.9026   21.4522 H   0  0  0  0  0  0
  -27.7487  -24.9312   18.7478 H   0  0  0  0  0  0
  -29.3999  -25.0116   19.1506 H   0  0  0  0  0  0
  -28.8848  -15.6901   20.8325 H   0  0  0  0  0  0
  -28.5044  -22.2419   19.0230 H   0  0  0  0  0  0
  -29.8711  -22.4969   19.8556 H   0  0  0  0  0  0
  1 25  1  0  0  0
  1 30  2  0  0  0
  1 81  1  0  0  0
  2  3  1  0  0  0
  2 25  1  0  0  0
  2 85  1  0  0  0
  2 86  1  0  0  0
  3  4  1  0  0  0
  3 87  1  0  0  0
  3 88  1  0  0  0
  4  5  1  0  0  0
  4 89  1  0  0  0
  4 90  1  0  0  0
  5  6  1  0  0  0
  5 26  1  0  0  0
  5 91  1  0  0  0
  6 25  1  0  0  0
  6 92  1  0  0  0
  6 93  1  0  0  0
  7  8  2  0  0  0
  7 26  1  0  0  0
  7 29  1  0  0  0
  8  9  1  0  0  0
  8 22  1  0  0  0
  9 10  1  0  0  0
  9 27  2  0  0  0
 10 11  2  0  0  0
 10 15  1  0  0  0
 11 12  1  0  0  0
 11 94  1  0  0  0
 12 13  2  0  0  0
 12 95  1  0  0  0
 13 14  1  0  0  0
 13 31  1  0  0  0
 14 15  2  0  0  0
 14 96  1  0  0  0
 15 97  1  0  0  0
 16 17  2  0  0  0
 16 21  1  0  0  0
 16 31  1  0  0  0
 17 18  1  0  0  0
 17 98  1  0  0  0
 18 19  2  0  0  0
 18 99  1  0  0  0
 19 20  1  0  0  0
 19 24  1  0  0  0
 20 21  2  0  0  0
 20100  1  0  0  0
 21 23  1  0  0  0
 22 28  1  0  0  0
 22 32  2  0  0  0
 26 27  1  0  0  0
 28101  1  0  0  0
 28102  1  0  0  0
 29103  1  0  0  0
 29104  1  0  0  0
 33 34  1  0  0  0
 33 66  1  0  0  0
 33 70  2  0  0  0
 34 36  1  0  0  0
 34 59  1  0  0  0
 34105  1  0  0  0
 35 44  2  0  0  0
 35 45  1  0  0  0
 35 68  1  0  0  0
 36 56  1  0  0  0
 36106  1  0  0  0
 37 39  1  0  0  0
 37 47  1  0  0  0
 37 66  1  0  0  0
 37107  1  0  0  0
 38 43  2  0  0  0
 38 46  1  0  0  0
 38 47  1  0  0  0
 39 64  1  0  0  0
 39 67  2  0  0  0
 40 52  1  0  0  0
 40 53  2  0  0  0
 40 58  1  0  0  0
 41108  1  0  0  0
 41109  1  0  0  0
 41110  1  0  0  0
 41 48  1  0  0  0
 42 43  1  0  0  0
 42 66  1  0  0  0
 42111  1  0  0  0
 42112  1  0  0  0
 43 44  1  0  0  0
 44113  1  0  0  0
 45 46  2  0  0  0
 45114  1  0  0  0
 46115  1  0  0  0
 47116  1  0  0  0
 47117  1  0  0  0
 48 56  1  0  0  0
 48 65  1  0  0  0
 48118  1  0  0  0
 49 50  1  0  0  0
 49 53  1  0  0  0
 49 64  1  0  0  0
 49119  1  0  0  0
 50 51  1  0  0  0
 50120  1  0  0  0
 50121  1  0  0  0
 51 52  1  0  0  0
 51122  1  0  0  0
 51123  1  0  0  0
 52124  1  0  0  0
 52125  1  0  0  0
 53 54  1  0  0  0
 54 55  2  0  0  0
 54126  1  0  0  0
 55 57  1  0  0  0
 55127  1  0  0  0
 56 69  2  0  0  0
 57 58  2  0  0  0
 57128  1  0  0  0
 58129  1  0  0  0
 59 60  1  0  0  0
 59 61  1  0  0  0
 59 62  1  0  0  0
 60130  1  0  0  0
 60131  1  0  0  0
 60132  1  0  0  0
 61133  1  0  0  0
 61134  1  0  0  0
 61135  1  0  0  0
 62136  1  0  0  0
 62137  1  0  0  0
 62138  1  0  0  0
 63 65  1  0  0  0
 63139  1  0  0  0
 63140  1  0  0  0
 63141  1  0  0  0
 64142  1  0  0  0
 65143  1  0  0  0
 68 80  1  0  0  0
 71 72  2  0  0  0
 71 74  1  0  0  0
 71144  1  0  0  0
 72 75  1  0  0  0
 72 77  1  0  0  0
 73 75  2  0  0  0
 73 76  1  0  0  0
 73 78  1  0  0  0
 74 76  2  0  0  0
 74 81  1  0  0  0
 75 83  1  0  0  0
 76 84  1  0  0  0
 77145  1  0  0  0
 77146  1  0  0  0
 77147  1  0  0  0
 78 82  1  0  0  0
 78148  1  0  0  0
 78149  1  0  0  0
 79 80  1  0  0  0
 79 82  1  0  0  0
 79150  1  0  0  0
 79151  1  0  0  0
 80152  1  0  0  0
 80153  1  0  0  0
 81154  1  0  0  0
 82155  1  0  0  0
 82156  1  0  0  0
M  CHG  1  82   1
M  ISO  4   1 100  68 101  80 101  81 100
M  END
> <chiral flag>
0

> <version>
0

> <s_m_source_file>
/data/baiqing/PycharmProjects/Reinvent-master-3.2/result/LINK_invent/BTK/process_docking_weight1_custom_sum_contain_oxygen_bond_distance_aromatic_linkinvent_7_9_3/rearranged_h_0016.sdf

> <i_m_source_file_index>
46

> <r_mmod_Potential_Energy-OPLS-2005>
-77.2921829223633

> <r_mmod_Stretch_Energy-OPLS-2005>
124.08024597168

> <r_mmod_Bend_Energy-OPLS-2005>
172.126541137695

> <r_mmod_Torsional_Energy-OPLS-2005>
204.637283325195

> <r_mmod_Improper_Torsional_Energy-OPLS-2005>
5.60591268539429

> <r_mmod_Van_der_Waal_Energy-OPLS-2005>
151.341033935547

> <r_mmod_Electrostatic_Energy-OPLS-2005>
-356.310028076172

> <r_mmod_Solvation_Energy-OPLS-2005>
-451.413818359375

> <b_mmod_Minimization_Converged-OPLS-2005>
0

> <r_mmod_RMS_Derivative-OPLS-2005>
2.41689610481262

$$$$
46
                    3D
 Structure written by MMmdl.
179187  0  0  1  0            999 V2000
  -30.7932  -14.3178   20.7320 C   0  0  0  0  0  0
  -30.4138  -12.2910   19.3742 C   0  0  0  0  0  0
  -29.4756  -12.5319   18.1789 C   0  0  0  0  0  0
  -28.0019  -12.3792   18.6004 C   0  0  0  0  0  0
  -27.6620  -13.1986   19.8723 C   0  0  2  0  0  0
  -28.6988  -12.9279   20.9814 C   0  0  0  0  0  0
  -25.2596  -13.8152   20.5662 C   0  0  0  0  0  0
  -24.1834  -13.0437   20.9166 C   0  0  0  0  0  0
  -24.6375  -11.6903   20.8712 C   0  0  0  0  0  0
  -23.9041  -10.4296   21.0397 C   0  0  0  0  0  0
  -24.3600   -9.4215   21.9176 C   0  0  0  0  0  0
  -23.6286   -8.2245   22.0746 C   0  0  0  0  0  0
  -22.4261   -8.0282   21.3546 C   0  0  0  0  0  0
  -21.9895   -9.0248   20.4639 C   0  0  0  0  0  0
  -22.7217  -10.2130   20.3047 C   0  0  0  0  0  0
  -21.6854   -6.0732   22.5280 C   0  0  0  0  0  0
  -21.4011   -6.5638   23.8211 C   0  0  0  0  0  0
  -21.3662   -5.6788   24.9176 C   0  0  0  0  0  0
  -21.6044   -4.3054   24.7223 C   0  0  0  0  0  0
  -21.8821   -3.8143   23.4346 C   0  0  0  0  0  0
  -21.9191   -4.6959   22.3400 C   0  0  0  0  0  0
  -22.7863  -13.5240   21.1854 C   0  0  0  0  0  0
  -22.1661   -4.2143   21.0979 F   0  0  0  0  0  0
  -21.5631   -3.4538   25.7740 F   0  0  0  0  0  0
  -30.0440  -13.2235   20.4462 N   0  0  0  0  0  0
  -26.3014  -12.9298   20.3335 N   0  0  0  0  0  0
  -25.9291  -11.6463   20.5721 N   0  0  0  0  0  0
  -22.0500  -12.8225   22.0402 N   0  0  0  0  0  0
  -25.4348  -15.1864   20.4081 N   0  0  0  0  0  0
  -31.7844  -14.6553   20.0756 O   0  0  0  0  0  0
  -21.6637   -6.8870   21.4240 O   0  0  0  0  0  0
  -22.3546  -14.5549   20.6715 O   0  0  0  0  0  0
  -24.6127  -31.8706   23.2124 C   0  0  0  0  0  0
  -25.9043  -32.4828   23.8419 C   0  0  1  0  0  0
  -27.2604  -27.4920   20.1044 C   0  0  0  0  0  0
  -25.5918  -33.8625   24.2348 N   0  0  0  0  0  0
  -23.3958  -30.4910   21.5519 C   0  0  2  0  0  0
  -24.8477  -28.9633   20.1139 C   0  0  0  0  0  0
  -22.7387  -29.4662   22.5040 C   0  0  0  0  0  0
  -18.0257  -28.1385   22.8481 C   0  0  0  0  0  0
  -24.1485  -36.7317   23.2627 C   0  0  0  0  0  0
  -25.9149  -30.8644   21.3465 C   0  0  0  0  0  0
  -26.0003  -29.5016   20.6968 C   0  0  0  0  0  0
  -27.2090  -28.7837   20.6769 C   0  0  0  0  0  0
  -26.0954  -26.9639   19.5119 C   0  0  0  0  0  0
  -24.8887  -27.6918   19.5120 C   0  0  0  0  0  0
  -23.6006  -29.8161   20.1673 C   0  0  0  0  0  0
  -25.4104  -36.3112   24.0325 C   0  0  1  0  0  0
  -20.5840  -28.3649   23.1346 C   0  0  2  0  0  0
  -20.6767  -26.9393   22.5426 C   0  0  0  0  0  0
  -19.5749  -26.6384   21.5212 C   0  0  0  0  0  0
  -18.1918  -26.7931   22.1610 C   0  0  0  0  0  0
  -19.1502  -28.8837   23.2907 C   0  0  0  0  0  0
  -18.9435  -30.1444   23.8910 C   0  0  0  0  0  0
  -17.6436  -30.6580   24.0573 C   0  0  0  0  0  0
  -25.9043  -34.9476   23.5132 C   0  0  0  0  0  0
  -16.5325  -29.9087   23.6325 C   0  0  0  0  0  0
  -16.7245  -28.6514   23.0329 C   0  0  0  0  0  0
  -26.4502  -31.6602   25.0727 C   0  0  0  0  0  0
  -25.3779  -31.3668   26.1484 C   0  0  0  0  0  0
  -27.0330  -30.3063   24.6047 C   0  0  0  0  0  0
  -27.6138  -32.4281   25.7454 C   0  0  0  0  0  0
  -27.5573  -37.1809   24.8444 C   0  0  0  0  0  0
  -21.4117  -29.3013   22.3759 N   0  0  0  0  0  0
  -26.4281  -37.3800   23.9402 N   0  0  0  0  0  0
  -24.6594  -31.0876   22.0977 N   0  0  0  0  0  0
  -23.4173  -28.8205   23.3069 O   0  0  0  0  0  0
  -28.3867  -26.6987   20.0907 O   0  0  0  0  0  0
  -26.5599  -34.8914   22.4691 O   0  0  0  0  0  0
  -23.5335  -32.1414   23.7569 O   0  0  0  0  0  0
  -32.6213  -16.6753   24.9855 C   0  0  0  0  0  0
  -32.3877  -16.2375   22.6020 C   0  0  0  0  0  0
  -31.4067  -16.0042   25.2360 C   0  0  0  0  0  0
  -31.1742  -15.5530   22.8427 C   0  0  0  0  0  0
  -33.1205  -16.8016   23.6658 C   0  0  0  0  0  0
  -30.6807  -15.4466   24.1607 C   0  0  0  0  0  0
  -30.1072  -18.2081   27.3500 C   0  0  0  0  0  0
  -35.0032  -18.1073   24.3857 C   0  0  0  0  0  0
  -30.8621  -15.9530   26.6560 C   0  0  0  0  0  0
  -29.0877  -19.2991   27.0302 C   0  0  0  0  0  0
  -29.6503  -20.2271   25.9427 C   0  0  0  0  0  0
  -28.6529  -21.2764   25.4360 C   0  0  0  0  0  0
  -29.3521  -22.2862   24.5164 C   0  0  0  0  0  0
  -28.4118  -23.3759   23.9950 C   0  0  0  0  0  0
  -29.1803  -24.5042   23.2930 C   0  0  0  0  0  0
  -28.2734  -25.6915   22.9511 C   0  0  0  0  0  0
  -29.0411  -26.9445   22.5015 C   0  0  0  0  0  0
  -29.4508  -26.9737   21.0081 C   0  0  0  0  0  0
  -30.3808  -14.9753   21.8198 N   0  0  0  0  0  0
  -29.8617  -16.9960   26.8454 N   0  0  0  0  0  0
  -31.1299  -18.4801   27.9809 O   0  0  0  0  0  0
  -34.2889  -17.4557   23.3419 O   0  0  0  0  0  0
  -29.1726  -14.6380   24.4435 Cl  0  0  0  0  0  0
  -31.4554  -12.4006   19.0659 H   0  0  0  0  0  0
  -30.3190  -11.2647   19.7327 H   0  0  0  0  0  0
  -29.7081  -11.8362   17.3718 H   0  0  0  0  0  0
  -29.6412  -13.5334   17.7788 H   0  0  0  0  0  0
  -27.8134  -11.3199   18.7797 H   0  0  0  0  0  0
  -27.3445  -12.6692   17.7806 H   0  0  0  0  0  0
  -27.7241  -14.2534   19.6040 H   0  0  0  0  0  0
  -28.6592  -11.8814   21.2868 H   0  0  0  0  0  0
  -28.4292  -13.4916   21.8727 H   0  0  0  0  0  0
  -25.2741   -9.5697   22.4750 H   0  0  0  0  0  0
  -24.0001   -7.4631   22.7464 H   0  0  0  0  0  0
  -21.0827   -8.8760   19.8944 H   0  0  0  0  0  0
  -22.3674  -10.9664   19.6152 H   0  0  0  0  0  0
  -21.2000   -7.6146   23.9715 H   0  0  0  0  0  0
  -21.1483   -6.0521   25.9081 H   0  0  0  0  0  0
  -22.0597   -2.7604   23.2849 H   0  0  0  0  0  0
  -22.4107  -11.9869   22.4761 H   0  0  0  0  0  0
  -21.1124  -13.1256   22.2623 H   0  0  0  0  0  0
  -24.6761  -15.8498   20.5229 H   0  0  0  0  0  0
  -26.2992  -15.6223   20.1105 H   0  0  0  0  0  0
  -26.7118  -32.5584   23.1213 H   0  0  0  0  0  0
  -25.0087  -33.9775   25.0506 H   0  0  0  0  0  0
  -22.6815  -31.3064   21.4142 H   0  0  0  0  0  0
  -23.3732  -35.9666   23.3295 H   0  0  0  0  0  0
  -24.3578  -36.8942   22.2042 H   0  0  0  0  0  0
  -23.7254  -37.6531   23.6644 H   0  0  0  0  0  0
  -26.0074  -31.6323   20.5759 H   0  0  0  0  0  0
  -26.8103  -30.9296   21.9534 H   0  0  0  0  0  0
  -28.0899  -29.2375   21.1071 H   0  0  0  0  0  0
  -26.1254  -25.9818   19.0610 H   0  0  0  0  0  0
  -24.0055  -27.2681   19.0526 H   0  0  0  0  0  0
  -23.6940  -30.5882   19.4019 H   0  0  0  0  0  0
  -22.7323  -29.2214   19.8808 H   0  0  0  0  0  0
  -25.1273  -36.1987   25.0813 H   0  0  0  0  0  0
  -20.9922  -28.3215   24.1472 H   0  0  0  0  0  0
  -20.5689  -26.2245   23.3600 H   0  0  0  0  0  0
  -21.6644  -26.7480   22.1204 H   0  0  0  0  0  0
  -19.6911  -25.6305   21.1217 H   0  0  0  0  0  0
  -19.6690  -27.3231   20.6779 H   0  0  0  0  0  0
  -17.4198  -26.6663   21.4007 H   0  0  0  0  0  0
  -18.0316  -26.0067   22.9008 H   0  0  0  0  0  0
  -19.7913  -30.7261   24.2271 H   0  0  0  0  0  0
  -17.4991  -31.6259   24.5190 H   0  0  0  0  0  0
  -15.5328  -30.3004   23.7633 H   0  0  0  0  0  0
  -15.8641  -28.0847   22.7023 H   0  0  0  0  0  0
  -24.5997  -30.6971   25.7802 H   0  0  0  0  0  0
  -24.8899  -32.2781   26.4955 H   0  0  0  0  0  0
  -25.8129  -30.8844   27.0248 H   0  0  0  0  0  0
  -26.2860  -29.6822   24.1128 H   0  0  0  0  0  0
  -27.4155  -29.7292   25.4479 H   0  0  0  0  0  0
  -27.8667  -30.4411   23.9141 H   0  0  0  0  0  0
  -27.2860  -33.3576   26.2123 H   0  0  0  0  0  0
  -28.3902  -32.6847   25.0228 H   0  0  0  0  0  0
  -28.0876  -31.8336   26.5279 H   0  0  0  0  0  0
  -28.2596  -38.0108   24.7526 H   0  0  0  0  0  0
  -28.1056  -36.2645   24.6223 H   0  0  0  0  0  0
  -27.2281  -37.1441   25.8844 H   0  0  0  0  0  0
  -20.9266  -29.8706   21.6958 H   0  0  0  0  0  0
  -26.0150  -38.2856   24.1459 H   0  0  0  0  0  0
  -33.1461  -17.1031   25.8266 H   0  0  0  0  0  0
  -32.7685  -16.3513   21.5975 H   0  0  0  0  0  0
  -35.8896  -18.5886   23.9724 H   0  0  0  0  0  0
  -35.3386  -17.4000   25.1455 H   0  0  0  0  0  0
  -34.3980  -18.8829   24.8576 H   0  0  0  0  0  0
  -31.6800  -16.0476   27.3729 H   0  0  0  0  0  0
  -30.4145  -14.9795   26.8549 H   0  0  0  0  0  0
  -28.8770  -19.8655   27.9377 H   0  0  0  0  0  0
  -28.1429  -18.8562   26.7094 H   0  0  0  0  0  0
  -29.9942  -19.6313   25.0935 H   0  0  0  0  0  0
  -30.5347  -20.7294   26.3387 H   0  0  0  0  0  0
  -28.2040  -21.7993   26.2823 H   0  0  0  0  0  0
  -27.8365  -20.7860   24.9026 H   0  0  0  0  0  0
  -29.8146  -21.7718   23.6732 H   0  0  0  0  0  0
  -30.1669  -22.7551   25.0721 H   0  0  0  0  0  0
  -27.8492  -23.7885   24.8351 H   0  0  0  0  0  0
  -27.6768  -22.9409   23.3162 H   0  0  0  0  0  0
  -29.6620  -24.1253   22.3896 H   0  0  0  0  0  0
  -29.9817  -24.8477   23.9491 H   0  0  0  0  0  0
  -27.7028  -25.9570   23.8429 H   0  0  0  0  0  0
  -27.5346  -25.4025   22.2015 H   0  0  0  0  0  0
  -29.9302  -27.0761   23.1187 H   0  0  0  0  0  0
  -28.4262  -27.8090   22.7420 H   0  0  0  0  0  0
  -29.9214  -27.9254   20.7572 H   0  0  0  0  0  0
  -30.2187  -26.2172   20.8416 H   0  0  0  0  0  0
  -29.4918  -14.6360   22.1567 H   0  0  0  0  0  0
  -28.9778  -16.8572   26.3752 H   0  0  0  0  0  0
  1 25  1  0  0  0
  1 30  2  0  0  0
  1 89  1  0  0  0
  2  3  1  0  0  0
  2 25  1  0  0  0
  2 94  1  0  0  0
  2 95  1  0  0  0
  3  4  1  0  0  0
  3 96  1  0  0  0
  3 97  1  0  0  0
  4  5  1  0  0  0
  4 98  1  0  0  0
  4 99  1  0  0  0
  5  6  1  0  0  0
  5 26  1  0  0  0
  5100  1  0  0  0
  6 25  1  0  0  0
  6101  1  0  0  0
  6102  1  0  0  0
  7  8  2  0  0  0
  7 26  1  0  0  0
  7 29  1  0  0  0
  8  9  1  0  0  0
  8 22  1  0  0  0
  9 10  1  0  0  0
  9 27  2  0  0  0
 10 11  2  0  0  0
 10 15  1  0  0  0
 11 12  1  0  0  0
 11103  1  0  0  0
 12 13  2  0  0  0
 12104  1  0  0  0
 13 14  1  0  0  0
 13 31  1  0  0  0
 14 15  2  0  0  0
 14105  1  0  0  0
 15106  1  0  0  0
 16 17  2  0  0  0
 16 21  1  0  0  0
 16 31  1  0  0  0
 17 18  1  0  0  0
 17107  1  0  0  0
 18 19  2  0  0  0
 18108  1  0  0  0
 19 20  1  0  0  0
 19 24  1  0  0  0
 20 21  2  0  0  0
 20109  1  0  0  0
 21 23  1  0  0  0
 22 28  1  0  0  0
 22 32  2  0  0  0
 26 27  1  0  0  0
 28110  1  0  0  0
 28111  1  0  0  0
 29112  1  0  0  0
 29113  1  0  0  0
 33 34  1  0  0  0
 33 66  1  0  0  0
 33 70  2  0  0  0
 34 36  1  0  0  0
 34 59  1  0  0  0
 34114  1  0  0  0
 35 44  2  0  0  0
 35 45  1  0  0  0
 35 68  1  0  0  0
 36 56  1  0  0  0
 36115  1  0  0  0
 37 39  1  0  0  0
 37 47  1  0  0  0
 37 66  1  0  0  0
 37116  1  0  0  0
 38 43  2  0  0  0
 38 46  1  0  0  0
 38 47  1  0  0  0
 39 64  1  0  0  0
 39 67  2  0  0  0
 40 52  1  0  0  0
 40 53  2  0  0  0
 40 58  1  0  0  0
 41117  1  0  0  0
 41118  1  0  0  0
 41119  1  0  0  0
 41 48  1  0  0  0
 42 43  1  0  0  0
 42 66  1  0  0  0
 42120  1  0  0  0
 42121  1  0  0  0
 43 44  1  0  0  0
 44122  1  0  0  0
 45 46  2  0  0  0
 45123  1  0  0  0
 46124  1  0  0  0
 47125  1  0  0  0
 47126  1  0  0  0
 48 56  1  0  0  0
 48 65  1  0  0  0
 48127  1  0  0  0
 49 50  1  0  0  0
 49 53  1  0  0  0
 49 64  1  0  0  0
 49128  1  0  0  0
 50 51  1  0  0  0
 50129  1  0  0  0
 50130  1  0  0  0
 51 52  1  0  0  0
 51131  1  0  0  0
 51132  1  0  0  0
 52133  1  0  0  0
 52134  1  0  0  0
 53 54  1  0  0  0
 54 55  2  0  0  0
 54135  1  0  0  0
 55 57  1  0  0  0
 55136  1  0  0  0
 56 69  2  0  0  0
 57 58  2  0  0  0
 57137  1  0  0  0
 58138  1  0  0  0
 59 60  1  0  0  0
 59 61  1  0  0  0
 59 62  1  0  0  0
 60139  1  0  0  0
 60140  1  0  0  0
 60141  1  0  0  0
 61142  1  0  0  0
 61143  1  0  0  0
 61144  1  0  0  0
 62145  1  0  0  0
 62146  1  0  0  0
 62147  1  0  0  0
 63 65  1  0  0  0
 63148  1  0  0  0
 63149  1  0  0  0
 63150  1  0  0  0
 64151  1  0  0  0
 65152  1  0  0  0
 68 88  1  0  0  0
 71 73  2  0  0  0
 71 75  1  0  0  0
 71153  1  0  0  0
 72 74  1  0  0  0
 72 75  2  0  0  0
 72154  1  0  0  0
 73 76  1  0  0  0
 73 79  1  0  0  0
 74 76  2  0  0  0
 74 89  1  0  0  0
 75 92  1  0  0  0
 76 93  1  0  0  0
 77 80  1  0  0  0
 77 90  1  0  0  0
 77 91  2  0  0  0
 78 92  1  0  0  0
 78155  1  0  0  0
 78156  1  0  0  0
 78157  1  0  0  0
 79 90  1  0  0  0
 79158  1  0  0  0
 79159  1  0  0  0
 80 81  1  0  0  0
 80160  1  0  0  0
 80161  1  0  0  0
 81 82  1  0  0  0
 81162  1  0  0  0
 81163  1  0  0  0
 82 83  1  0  0  0
 82164  1  0  0  0
 82165  1  0  0  0
 83 84  1  0  0  0
 83166  1  0  0  0
 83167  1  0  0  0
 84 85  1  0  0  0
 84168  1  0  0  0
 84169  1  0  0  0
 85 86  1  0  0  0
 85170  1  0  0  0
 85171  1  0  0  0
 86 87  1  0  0  0
 86172  1  0  0  0
 86173  1  0  0  0
 87 88  1  0  0  0
 87174  1  0  0  0
 87175  1  0  0  0
 88176  1  0  0  0
 88177  1  0  0  0
 89178  1  0  0  0
 90179  1  0  0  0
M  ISO  4   1 100  68 101  88 101  89 100
M  END
> <chiral flag>
0

> <version>
0

> <s_m_source_file>
/data/baiqing/PycharmProjects/Reinvent-master-3.2/result/LINK_invent/BTK/process_docking_weight1_custom_sum_contain_oxygen_bond_distance_aromatic_linkinvent_7_9_3/rearranged_h_0016.sdf

> <i_m_source_file_index>
47

> <r_mmod_Potential_Energy-OPLS-2005>
-145.869613647461

> <r_mmod_Stretch_Energy-OPLS-2005>
33.1110649108887

> <r_mmod_Bend_Energy-OPLS-2005>
112.456924438477

> <r_mmod_Torsional_Energy-OPLS-2005>
227.452407836914

> <r_mmod_Improper_Torsional_Energy-OPLS-2005>
4.8576774597168

> <r_mmod_Van_der_Waal_Energy-OPLS-2005>
162.625915527344

> <r_mmod_Electrostatic_Energy-OPLS-2005>
-468.554168701172

> <r_mmod_Solvation_Energy-OPLS-2005>
-225.129135131836

> <b_mmod_Minimization_Converged-OPLS-2005>
0

> <r_mmod_RMS_Derivative-OPLS-2005>
2.01869106292725

$$$$
47
                    3D
 Structure written by MMmdl.
156164  0  0  1  0            999 V2000
  -30.6483  -14.5231   20.5849 C   0  0  0  0  0  0
  -30.4419  -12.3406   19.4209 C   0  0  0  0  0  0
  -29.5012  -12.5147   18.2076 C   0  0  0  0  0  0
  -28.0221  -12.3651   18.6196 C   0  0  0  0  0  0
  -27.6642  -13.2002   19.8775 C   0  0  2  0  0  0
  -28.7070  -12.9586   20.9922 C   0  0  0  0  0  0
  -25.2564  -13.8115   20.5560 C   0  0  0  0  0  0
  -24.1840  -13.0419   20.9167 C   0  0  0  0  0  0
  -24.6398  -11.6891   20.8756 C   0  0  0  0  0  0
  -23.9064  -10.4284   21.0425 C   0  0  0  0  0  0
  -24.3611   -9.4195   21.9199 C   0  0  0  0  0  0
  -23.6286   -8.2228   22.0760 C   0  0  0  0  0  0
  -22.4269   -8.0269   21.3547 C   0  0  0  0  0  0
  -21.9909   -9.0247   20.4650 C   0  0  0  0  0  0
  -22.7237  -10.2130   20.3068 C   0  0  0  0  0  0
  -21.6848   -6.0729   22.5280 C   0  0  0  0  0  0
  -21.4010   -6.5637   23.8210 C   0  0  0  0  0  0
  -21.3661   -5.6792   24.9173 C   0  0  0  0  0  0
  -21.6043   -4.3051   24.7225 C   0  0  0  0  0  0
  -21.8820   -3.8146   23.4345 C   0  0  0  0  0  0
  -21.9193   -4.6962   22.3402 C   0  0  0  0  0  0
  -22.7867  -13.5228   21.1840 C   0  0  0  0  0  0
  -22.1659   -4.2149   21.0978 F   0  0  0  0  0  0
  -21.5637   -3.4534   25.7738 F   0  0  0  0  0  0
  -30.0364  -13.3086   20.4550 N   0  0  0  0  0  0
  -26.3033  -12.9289   20.3350 N   0  0  0  0  0  0
  -25.9327  -11.6464   20.5796 N   0  0  0  0  0  0
  -22.0515  -12.8229   22.0410 N   0  0  0  0  0  0
  -25.4217  -15.1796   20.3707 N   0  0  0  0  0  0
  -31.7467  -14.7599   20.0768 O   0  0  0  0  0  0
  -21.6631   -6.8871   21.4237 O   0  0  0  0  0  0
  -22.3555  -14.5543   20.6700 O   0  0  0  0  0  0
  -24.6168  -31.8649   23.2078 C   0  0  0  0  0  0
  -25.9044  -32.4816   23.8382 C   0  0  1  0  0  0
  -27.2386  -27.4086   20.1050 C   0  0  0  0  0  0
  -25.5892  -33.8614   24.2318 N   0  0  0  0  0  0
  -23.4070  -30.4860   21.5474 C   0  0  2  0  0  0
  -24.8554  -28.9422   20.1186 C   0  0  0  0  0  0
  -22.7436  -29.4637   22.4982 C   0  0  0  0  0  0
  -18.0276  -28.1373   22.8496 C   0  0  0  0  0  0
  -24.1486  -36.7305   23.2641 C   0  0  0  0  0  0
  -25.9370  -30.8248   21.3595 C   0  0  0  0  0  0
  -26.0172  -29.4539   20.7116 C   0  0  0  0  0  0
  -27.2144  -28.6970   20.6958 C   0  0  0  0  0  0
  -26.0600  -26.9114   19.5132 C   0  0  0  0  0  0
  -24.8731  -27.6710   19.5160 C   0  0  0  0  0  0
  -23.6182  -29.8122   20.1645 C   0  0  0  0  0  0
  -25.4110  -36.3110   24.0345 C   0  0  1  0  0  0
  -20.5868  -28.3653   23.1322 C   0  0  2  0  0  0
  -20.6769  -26.9389   22.5411 C   0  0  0  0  0  0
  -19.5746  -26.6375   21.5217 C   0  0  0  0  0  0
  -18.1924  -26.7924   22.1623 C   0  0  0  0  0  0
  -19.1525  -28.8833   23.2906 C   0  0  0  0  0  0
  -18.9453  -30.1441   23.8909 C   0  0  0  0  0  0
  -17.6458  -30.6578   24.0568 C   0  0  0  0  0  0
  -25.9029  -34.9477   23.5130 C   0  0  0  0  0  0
  -16.5348  -29.9081   23.6328 C   0  0  0  0  0  0
  -16.7265  -28.6502   23.0342 C   0  0  0  0  0  0
  -26.4463  -31.6605   25.0713 C   0  0  0  0  0  0
  -25.3730  -31.3715   26.1465 C   0  0  0  0  0  0
  -27.0286  -30.3056   24.6064 C   0  0  0  0  0  0
  -27.6044  -32.4318   25.7475 C   0  0  0  0  0  0
  -27.5582  -37.1809   24.8473 C   0  0  0  0  0  0
  -21.4157  -29.3025   22.3733 N   0  0  0  0  0  0
  -26.4297  -37.3792   23.9418 N   0  0  0  0  0  0
  -24.6726  -31.0737   22.0968 N   0  0  0  0  0  0
  -23.4213  -28.8166   23.3008 O   0  0  0  0  0  0
  -28.3999  -26.6622   20.0548 O   0  0  0  0  0  0
  -26.5589  -34.8934   22.4687 O   0  0  0  0  0  0
  -23.5351  -32.1386   23.7466 O   0  0  0  0  0  0
  -30.4793  -17.8227   20.7163 C   0  0  0  0  0  0
  -29.7484  -19.0204   21.0413 C   0  0  0  0  0  0
  -29.7348  -16.7743   21.2128 C   0  0  0  0  0  0
  -27.5024  -16.7278   22.4787 C   0  0  0  0  0  0
  -30.1504  -20.4978   20.9710 C   0  0  0  0  0  0
  -29.1616  -21.5020   20.2842 C   0  0  0  0  0  0
  -29.2717  -22.9656   20.8336 C   0  0  0  0  0  0
  -28.5786  -24.1149   20.0301 C   0  0  0  0  0  0
  -28.4371  -25.4472   20.8365 C   0  0  0  0  0  0
  -28.6210  -18.7031   21.6731 N   0  0  0  0  0  0
  -28.6087  -17.3505   21.7771 N   0  0  0  0  0  0
  -29.9319  -15.4179   21.3007 N   0  0  0  0  0  0
  -32.0350  -17.7794   19.9663 Cl  0  0  0  0  0  0
  -31.4818  -12.4715   19.1164 H   0  0  0  0  0  0
  -30.3753  -11.3245   19.8136 H   0  0  0  0  0  0
  -29.7456  -11.7832   17.4359 H   0  0  0  0  0  0
  -29.6572  -13.4966   17.7585 H   0  0  0  0  0  0
  -27.8386  -11.3074   18.8153 H   0  0  0  0  0  0
  -27.3689  -12.6351   17.7888 H   0  0  0  0  0  0
  -27.7123  -14.2505   19.5901 H   0  0  0  0  0  0
  -28.7007  -11.9081   21.2874 H   0  0  0  0  0  0
  -28.4477  -13.5011   21.9010 H   0  0  0  0  0  0
  -25.2756   -9.5665   22.4770 H   0  0  0  0  0  0
  -23.9994   -7.4616   22.7473 H   0  0  0  0  0  0
  -21.0843   -8.8765   19.8949 H   0  0  0  0  0  0
  -22.3701  -10.9668   19.6172 H   0  0  0  0  0  0
  -21.1994   -7.6145   23.9713 H   0  0  0  0  0  0
  -21.1486   -6.0522   25.9078 H   0  0  0  0  0  0
  -22.0600   -2.7607   23.2844 H   0  0  0  0  0  0
  -22.4111  -11.9867   22.4776 H   0  0  0  0  0  0
  -21.1147  -13.1284   22.2639 H   0  0  0  0  0  0
  -24.6331  -15.8156   20.4130 H   0  0  0  0  0  0
  -26.2379  -15.5938   19.9405 H   0  0  0  0  0  0
  -26.7121  -32.5505   23.1148 H   0  0  0  0  0  0
  -25.0079  -33.9780   25.0492 H   0  0  0  0  0  0
  -22.6957  -31.3017   21.4034 H   0  0  0  0  0  0
  -23.3747  -35.9634   23.3304 H   0  0  0  0  0  0
  -24.3587  -36.8905   22.2055 H   0  0  0  0  0  0
  -23.7242  -37.6514   23.6645 H   0  0  0  0  0  0
  -26.0459  -31.5878   20.5871 H   0  0  0  0  0  0
  -26.8272  -30.8847   21.9740 H   0  0  0  0  0  0
  -28.1158  -29.0947   21.1400 H   0  0  0  0  0  0
  -26.0642  -25.9384   19.0422 H   0  0  0  0  0  0
  -23.9802  -27.2724   19.0544 H   0  0  0  0  0  0
  -23.7301  -30.5840   19.4024 H   0  0  0  0  0  0
  -22.7413  -29.2332   19.8691 H   0  0  0  0  0  0
  -25.1286  -36.1972   25.0838 H   0  0  0  0  0  0
  -20.9963  -28.3197   24.1445 H   0  0  0  0  0  0
  -20.5672  -26.2257   23.3591 H   0  0  0  0  0  0
  -21.6632  -26.7423   22.1197 H   0  0  0  0  0  0
  -19.6914  -25.6292   21.1229 H   0  0  0  0  0  0
  -19.6698  -27.3202   20.6761 H   0  0  0  0  0  0
  -17.4197  -26.6677   21.4023 H   0  0  0  0  0  0
  -18.0308  -26.0064   22.9012 H   0  0  0  0  0  0
  -19.7925  -30.7256   24.2278 H   0  0  0  0  0  0
  -17.5010  -31.6263   24.5151 H   0  0  0  0  0  0
  -15.5349  -30.2991   23.7652 H   0  0  0  0  0  0
  -15.8661  -28.0839   22.7039 H   0  0  0  0  0  0
  -24.5920  -30.7038   25.7809 H   0  0  0  0  0  0
  -24.8898  -32.2869   26.4890 H   0  0  0  0  0  0
  -25.8087  -30.8915   27.0236 H   0  0  0  0  0  0
  -26.2819  -29.6836   24.1117 H   0  0  0  0  0  0
  -27.4079  -29.7275   25.4497 H   0  0  0  0  0  0
  -27.8639  -30.4391   23.9186 H   0  0  0  0  0  0
  -27.2678  -33.3633   26.2039 H   0  0  0  0  0  0
  -28.3861  -32.6852   25.0301 H   0  0  0  0  0  0
  -28.0692  -31.8442   26.5402 H   0  0  0  0  0  0
  -28.2600  -38.0100   24.7499 H   0  0  0  0  0  0
  -28.1074  -36.2635   24.6312 H   0  0  0  0  0  0
  -27.2299  -37.1451   25.8873 H   0  0  0  0  0  0
  -20.9316  -29.8768   21.6978 H   0  0  0  0  0  0
  -26.0182  -38.2868   24.1409 H   0  0  0  0  0  0
  -27.4401  -15.6667   22.2449 H   0  0  0  0  0  0
  -26.5633  -17.1976   22.1854 H   0  0  0  0  0  0
  -27.6386  -16.8425   23.5537 H   0  0  0  0  0  0
  -31.1239  -20.5895   20.4891 H   0  0  0  0  0  0
  -30.3186  -20.8354   21.9941 H   0  0  0  0  0  0
  -28.1370  -21.1652   20.4429 H   0  0  0  0  0  0
  -29.3189  -21.4794   19.2059 H   0  0  0  0  0  0
  -30.3271  -23.2229   20.9330 H   0  0  0  0  0  0
  -28.8771  -22.9674   21.8506 H   0  0  0  0  0  0
  -27.5916  -23.7971   19.6934 H   0  0  0  0  0  0
  -29.1601  -24.3035   19.1267 H   0  0  0  0  0  0
  -29.3075  -25.5481   21.4859 H   0  0  0  0  0  0
  -27.5799  -25.3804   21.5106 H   0  0  0  0  0  0
  -29.1817  -14.9560   21.7864 H   0  0  0  0  0  0
  1 25  1  0  0  0
  1 30  2  0  0  0
  1 82  1  0  0  0
  2  3  1  0  0  0
  2 25  1  0  0  0
  2 84  1  0  0  0
  2 85  1  0  0  0
  3  4  1  0  0  0
  3 86  1  0  0  0
  3 87  1  0  0  0
  4  5  1  0  0  0
  4 88  1  0  0  0
  4 89  1  0  0  0
  5  6  1  0  0  0
  5 26  1  0  0  0
  5 90  1  0  0  0
  6 25  1  0  0  0
  6 91  1  0  0  0
  6 92  1  0  0  0
  7  8  2  0  0  0
  7 26  1  0  0  0
  7 29  1  0  0  0
  8  9  1  0  0  0
  8 22  1  0  0  0
  9 10  1  0  0  0
  9 27  2  0  0  0
 10 11  2  0  0  0
 10 15  1  0  0  0
 11 12  1  0  0  0
 11 93  1  0  0  0
 12 13  2  0  0  0
 12 94  1  0  0  0
 13 14  1  0  0  0
 13 31  1  0  0  0
 14 15  2  0  0  0
 14 95  1  0  0  0
 15 96  1  0  0  0
 16 17  2  0  0  0
 16 21  1  0  0  0
 16 31  1  0  0  0
 17 18  1  0  0  0
 17 97  1  0  0  0
 18 19  2  0  0  0
 18 98  1  0  0  0
 19 20  1  0  0  0
 19 24  1  0  0  0
 20 21  2  0  0  0
 20 99  1  0  0  0
 21 23  1  0  0  0
 22 28  1  0  0  0
 22 32  2  0  0  0
 26 27  1  0  0  0
 28100  1  0  0  0
 28101  1  0  0  0
 29102  1  0  0  0
 29103  1  0  0  0
 33 34  1  0  0  0
 33 66  1  0  0  0
 33 70  2  0  0  0
 34 36  1  0  0  0
 34 59  1  0  0  0
 34104  1  0  0  0
 35 44  2  0  0  0
 35 45  1  0  0  0
 35 68  1  0  0  0
 36 56  1  0  0  0
 36105  1  0  0  0
 37 39  1  0  0  0
 37 47  1  0  0  0
 37 66  1  0  0  0
 37106  1  0  0  0
 38 43  2  0  0  0
 38 46  1  0  0  0
 38 47  1  0  0  0
 39 64  1  0  0  0
 39 67  2  0  0  0
 40 52  1  0  0  0
 40 53  2  0  0  0
 40 58  1  0  0  0
 41107  1  0  0  0
 41108  1  0  0  0
 41109  1  0  0  0
 41 48  1  0  0  0
 42 43  1  0  0  0
 42 66  1  0  0  0
 42110  1  0  0  0
 42111  1  0  0  0
 43 44  1  0  0  0
 44112  1  0  0  0
 45 46  2  0  0  0
 45113  1  0  0  0
 46114  1  0  0  0
 47115  1  0  0  0
 47116  1  0  0  0
 48 56  1  0  0  0
 48 65  1  0  0  0
 48117  1  0  0  0
 49 50  1  0  0  0
 49 53  1  0  0  0
 49 64  1  0  0  0
 49118  1  0  0  0
 50 51  1  0  0  0
 50119  1  0  0  0
 50120  1  0  0  0
 51 52  1  0  0  0
 51121  1  0  0  0
 51122  1  0  0  0
 52123  1  0  0  0
 52124  1  0  0  0
 53 54  1  0  0  0
 54 55  2  0  0  0
 54125  1  0  0  0
 55 57  1  0  0  0
 55126  1  0  0  0
 56 69  2  0  0  0
 57 58  2  0  0  0
 57127  1  0  0  0
 58128  1  0  0  0
 59 60  1  0  0  0
 59 61  1  0  0  0
 59 62  1  0  0  0
 60129  1  0  0  0
 60130  1  0  0  0
 60131  1  0  0  0
 61132  1  0  0  0
 61133  1  0  0  0
 61134  1  0  0  0
 62135  1  0  0  0
 62136  1  0  0  0
 62137  1  0  0  0
 63 65  1  0  0  0
 63138  1  0  0  0
 63139  1  0  0  0
 63140  1  0  0  0
 64141  1  0  0  0
 65142  1  0  0  0
 68 79  1  0  0  0
 71 72  1  0  0  0
 71 73  2  0  0  0
 71 83  1  0  0  0
 72 75  1  0  0  0
 72 80  2  0  0  0
 73 81  1  0  0  0
 73 82  1  0  0  0
 74 81  1  0  0  0
 74143  1  0  0  0
 74144  1  0  0  0
 74145  1  0  0  0
 75 76  1  0  0  0
 75146  1  0  0  0
 75147  1  0  0  0
 76 77  1  0  0  0
 76148  1  0  0  0
 76149  1  0  0  0
 77 78  1  0  0  0
 77150  1  0  0  0
 77151  1  0  0  0
 78 79  1  0  0  0
 78152  1  0  0  0
 78153  1  0  0  0
 79154  1  0  0  0
 79155  1  0  0  0
 80 81  1  0  0  0
 82156  1  0  0  0
M  ISO  4   1 100  68 101  79 101  82 100
M  END
> <chiral flag>
0

> <version>
0

> <s_m_source_file>
/data/baiqing/PycharmProjects/Reinvent-master-3.2/result/LINK_invent/BTK/process_docking_weight1_custom_sum_contain_oxygen_bond_distance_aromatic_linkinvent_7_9_3/rearranged_h_0016.sdf

> <i_m_source_file_index>
48

> <r_mmod_Potential_Energy-OPLS-2005>
-59.2732315063477

> <r_mmod_Stretch_Energy-OPLS-2005>
44.3268203735352

> <r_mmod_Bend_Energy-OPLS-2005>
146.384872436523

> <r_mmod_Torsional_Energy-OPLS-2005>
241.891967773438

> <r_mmod_Improper_Torsional_Energy-OPLS-2005>
5.56920671463013

> <r_mmod_Van_der_Waal_Energy-OPLS-2005>
115.304641723633

> <r_mmod_Electrostatic_Energy-OPLS-2005>
-413.361633300781

> <r_mmod_Solvation_Energy-OPLS-2005>
-216.412689208984

> <b_mmod_Minimization_Converged-OPLS-2005>
0

> <r_mmod_RMS_Derivative-OPLS-2005>
1.55121970176697

$$$$
48
                    3D
 Structure written by MMmdl.
162170  0  0  1  0            999 V2000
  -30.6299  -14.6692   20.4992 C   0  0  0  0  0  0
  -30.4398  -12.4181   19.4531 C   0  0  0  0  0  0
  -29.5081  -12.5070   18.2237 C   0  0  0  0  0  0
  -28.0325  -12.3325   18.6409 C   0  0  0  0  0  0
  -27.6452  -13.2181   19.8553 C   0  0  2  0  0  0
  -28.6922  -13.1051   20.9888 C   0  0  0  0  0  0
  -25.2357  -13.7989   20.5519 C   0  0  0  0  0  0
  -24.1734  -13.0290   20.9238 C   0  0  0  0  0  0
  -24.6384  -11.6803   20.8817 C   0  0  0  0  0  0
  -23.9064  -10.4204   21.0455 C   0  0  0  0  0  0
  -24.3611   -9.4137   21.9226 C   0  0  0  0  0  0
  -23.6295   -8.2182   22.0769 C   0  0  0  0  0  0
  -22.4269   -8.0256   21.3560 C   0  0  0  0  0  0
  -21.9920   -9.0225   20.4649 C   0  0  0  0  0  0
  -22.7255  -10.2086   20.3085 C   0  0  0  0  0  0
  -21.6835   -6.0740   22.5287 C   0  0  0  0  0  0
  -21.3998   -6.5630   23.8225 C   0  0  0  0  0  0
  -21.3643   -5.6791   24.9190 C   0  0  0  0  0  0
  -21.6044   -4.3060   24.7234 C   0  0  0  0  0  0
  -21.8817   -3.8150   23.4355 C   0  0  0  0  0  0
  -21.9184   -4.6970   22.3412 C   0  0  0  0  0  0
  -22.7764  -13.5122   21.1877 C   0  0  0  0  0  0
  -22.1655   -4.2155   21.0994 F   0  0  0  0  0  0
  -21.5644   -3.4540   25.7746 F   0  0  0  0  0  0
  -30.0098  -13.4465   20.4229 N   0  0  0  0  0  0
  -26.2924  -12.9292   20.3289 N   0  0  0  0  0  0
  -25.9318  -11.6438   20.5817 N   0  0  0  0  0  0
  -22.0408  -12.8142   22.0443 N   0  0  0  0  0  0
  -25.3638  -15.1627   20.3518 N   0  0  0  0  0  0
  -31.7998  -14.8128   20.1366 O   0  0  0  0  0  0
  -21.6618   -6.8872   21.4254 O   0  0  0  0  0  0
  -22.3459  -14.5437   20.6710 O   0  0  0  0  0  0
  -24.6253  -31.8575   23.2067 C   0  0  0  0  0  0
  -25.9106  -32.4785   23.8369 C   0  0  1  0  0  0
  -27.2196  -27.3360   20.1056 C   0  0  0  0  0  0
  -25.5949  -33.8588   24.2298 N   0  0  0  0  0  0
  -23.4160  -30.4858   21.5469 C   0  0  2  0  0  0
  -24.8623  -28.9494   20.1037 C   0  0  0  0  0  0
  -22.7459  -29.4609   22.4942 C   0  0  0  0  0  0
  -18.0268  -28.1391   22.8464 C   0  0  0  0  0  0
  -24.1485  -36.7304   23.2638 C   0  0  0  0  0  0
  -25.9563  -30.7950   21.3727 C   0  0  0  0  0  0
  -26.0280  -29.4245   20.7146 C   0  0  0  0  0  0
  -27.2105  -28.6297   20.7069 C   0  0  0  0  0  0
  -26.0349  -26.9199   19.4510 C   0  0  0  0  0  0
  -24.8673  -27.7031   19.4605 C   0  0  0  0  0  0
  -23.6292  -29.8257   20.1590 C   0  0  0  0  0  0
  -25.4107  -36.3083   24.0324 C   0  0  1  0  0  0
  -20.5857  -28.3665   23.1300 C   0  0  2  0  0  0
  -20.6765  -26.9394   22.5405 C   0  0  0  0  0  0
  -19.5755  -26.6383   21.5200 C   0  0  0  0  0  0
  -18.1926  -26.7930   22.1593 C   0  0  0  0  0  0
  -19.1516  -28.8848   23.2875 C   0  0  0  0  0  0
  -18.9462  -30.1460   23.8876 C   0  0  0  0  0  0
  -17.6466  -30.6589   24.0564 C   0  0  0  0  0  0
  -25.9050  -34.9449   23.5103 C   0  0  0  0  0  0
  -16.5356  -29.9090   23.6344 C   0  0  0  0  0  0
  -16.7252  -28.6521   23.0327 C   0  0  0  0  0  0
  -26.4505  -31.6601   25.0736 C   0  0  0  0  0  0
  -25.3790  -31.3688   26.1507 C   0  0  0  0  0  0
  -27.0343  -30.3042   24.6152 C   0  0  0  0  0  0
  -27.6076  -32.4328   25.7506 C   0  0  0  0  0  0
  -27.5560  -37.1798   24.8460 C   0  0  0  0  0  0
  -21.4161  -29.3030   22.3707 N   0  0  0  0  0  0
  -26.4267  -37.3791   23.9412 N   0  0  0  0  0  0
  -24.6849  -31.0623   22.0997 N   0  0  0  0  0  0
  -23.4200  -28.8130   23.2990 O   0  0  0  0  0  0
  -28.3376  -26.4918   20.1813 O   0  0  0  0  0  0
  -26.5601  -34.8902   22.4662 O   0  0  0  0  0  0
  -23.5430  -32.1361   23.7426 O   0  0  0  0  0  0
  -31.1412  -17.9053   20.4692 C   0  0  0  0  0  0
  -28.7933  -18.0100   20.9811 C   0  0  0  0  0  0
  -30.0457  -20.1455   20.7033 C   0  0  0  0  0  0
  -29.9455  -17.1966   20.7457 C   0  0  0  0  0  0
  -31.1936  -19.3323   20.4446 C   0  0  0  0  0  0
  -28.8437  -19.4451   20.9782 C   0  0  0  0  0  0
  -27.4746  -17.3015   21.2154 C   0  0  0  0  0  0
  -30.4314  -24.6301   19.1660 C   0  0  0  0  0  0
  -27.3207  -24.7023   21.5247 C   0  0  0  0  0  0
  -30.1462  -21.7155   20.8533 C   0  0  0  0  0  0
  -29.4438  -24.1365   20.2451 C   0  0  1  0  0  0
  -28.1271  -25.0249   20.2442 C   0  0  2  0  0  0
  -29.8177  -15.7280   20.8169 N   0  0  0  0  0  0
  -29.2041  -22.6340   20.1070 N   0  3  0  0  0  0
  -32.7330  -20.0545   20.1340 Cl  0  0  0  0  0  0
  -27.4290  -20.3740   21.3615 Cl  0  0  0  0  0  0
  -31.4775  -12.5538   19.1440 H   0  0  0  0  0  0
  -30.3899  -11.4296   19.9083 H   0  0  0  0  0  0
  -29.7785  -11.7436   17.4923 H   0  0  0  0  0  0
  -29.6401  -13.4683   17.7277 H   0  0  0  0  0  0
  -27.8893  -11.2816   18.8956 H   0  0  0  0  0  0
  -27.3717  -12.5311   17.7958 H   0  0  0  0  0  0
  -27.6458  -14.2462   19.4968 H   0  0  0  0  0  0
  -28.7065  -12.0937   21.3945 H   0  0  0  0  0  0
  -28.4275  -13.7581   21.8210 H   0  0  0  0  0  0
  -25.2752   -9.5625   22.4812 H   0  0  0  0  0  0
  -23.9999   -7.4549   22.7457 H   0  0  0  0  0  0
  -21.0881   -8.8753   19.8919 H   0  0  0  0  0  0
  -22.3741  -10.9654   19.6206 H   0  0  0  0  0  0
  -21.1963   -7.6132   23.9734 H   0  0  0  0  0  0
  -21.1479   -6.0518   25.9093 H   0  0  0  0  0  0
  -22.0605   -2.7620   23.2859 H   0  0  0  0  0  0
  -22.4035  -11.9824   22.4869 H   0  0  0  0  0  0
  -21.1030  -13.1186   22.2610 H   0  0  0  0  0  0
  -24.5493  -15.7660   20.3857 H   0  0  0  0  0  0
  -26.1225  -15.5642   19.8188 H   0  0  0  0  0  0
  -26.7172  -32.5421   23.1116 H   0  0  0  0  0  0
  -25.0151  -33.9733   25.0481 H   0  0  0  0  0  0
  -22.7082  -31.3069   21.4079 H   0  0  0  0  0  0
  -23.3739  -35.9651   23.3306 H   0  0  0  0  0  0
  -24.3580  -36.8922   22.2056 H   0  0  0  0  0  0
  -23.7254  -37.6512   23.6662 H   0  0  0  0  0  0
  -26.0799  -31.5533   20.5992 H   0  0  0  0  0  0
  -26.8424  -30.8492   21.9918 H   0  0  0  0  0  0
  -28.1011  -28.9841   21.2030 H   0  0  0  0  0  0
  -25.9718  -25.9793   18.9272 H   0  0  0  0  0  0
  -23.9778  -27.3412   18.9634 H   0  0  0  0  0  0
  -23.7460  -30.6048   19.4053 H   0  0  0  0  0  0
  -22.7490  -29.2553   19.8586 H   0  0  0  0  0  0
  -25.1291  -36.1935   25.0817 H   0  0  0  0  0  0
  -20.9946  -28.3218   24.1417 H   0  0  0  0  0  0
  -20.5696  -26.2237   23.3568 H   0  0  0  0  0  0
  -21.6637  -26.7445   22.1188 H   0  0  0  0  0  0
  -19.6925  -25.6304   21.1201 H   0  0  0  0  0  0
  -19.6731  -27.3219   20.6755 H   0  0  0  0  0  0
  -17.4201  -26.6669   21.3991 H   0  0  0  0  0  0
  -18.0333  -26.0085   22.9005 H   0  0  0  0  0  0
  -19.7952  -30.7279   24.2219 H   0  0  0  0  0  0
  -17.5032  -31.6264   24.5182 H   0  0  0  0  0  0
  -15.5362  -30.2992   23.7705 H   0  0  0  0  0  0
  -15.8637  -28.0867   22.7014 H   0  0  0  0  0  0
  -24.6004  -30.6978   25.7879 H   0  0  0  0  0  0
  -24.8942  -32.2812   26.4980 H   0  0  0  0  0  0
  -25.8195  -30.8880   27.0250 H   0  0  0  0  0  0
  -26.2882  -29.6799   24.1229 H   0  0  0  0  0  0
  -27.4132  -29.7303   25.4618 H   0  0  0  0  0  0
  -27.8710  -30.4373   23.9295 H   0  0  0  0  0  0
  -27.2713  -33.3646   26.2067 H   0  0  0  0  0  0
  -28.3896  -32.6863   25.0338 H   0  0  0  0  0  0
  -28.0737  -31.8461   26.5434 H   0  0  0  0  0  0
  -28.2584  -38.0087   24.7503 H   0  0  0  0  0  0
  -28.1029  -36.2610   24.6289 H   0  0  0  0  0  0
  -27.2255  -37.1471   25.8855 H   0  0  0  0  0  0
  -20.9328  -29.8765   21.6947 H   0  0  0  0  0  0
  -26.0136  -38.2847   24.1474 H   0  0  0  0  0  0
  -32.0577  -17.3623   20.2892 H   0  0  0  0  0  0
  -27.3630  -16.5969   20.3973 H   0  0  0  0  0  0
  -26.5935  -17.9398   21.1858 H   0  0  0  0  0  0
  -27.4722  -16.7611   22.1624 H   0  0  0  0  0  0
  -31.3684  -24.0723   19.1926 H   0  0  0  0  0  0
  -30.6849  -25.6816   19.3236 H   0  0  0  0  0  0
  -30.0202  -24.5492   18.1593 H   0  0  0  0  0  0
  -26.3675  -25.2265   21.5599 H   0  0  0  0  0  0
  -27.8834  -24.9770   22.4170 H   0  0  0  0  0  0
  -27.0878  -23.6412   21.6070 H   0  0  0  0  0  0
  -31.1521  -22.0513   20.6096 H   0  0  0  0  0  0
  -30.0246  -21.9321   21.9160 H   0  0  0  0  0  0
  -29.9215  -24.3018   21.2114 H   0  0  0  0  0  0
  -27.5628  -24.7126   19.3664 H   0  0  0  0  0  0
  -28.8913  -15.4128   21.0568 H   0  0  0  0  0  0
  -29.2074  -22.3905   19.1279 H   0  0  0  0  0  0
  -28.2850  -22.4111   20.4627 H   0  0  0  0  0  0
  1 25  1  0  0  0
  1 30  2  0  0  0
  1 83  1  0  0  0
  2  3  1  0  0  0
  2 25  1  0  0  0
  2 87  1  0  0  0
  2 88  1  0  0  0
  3  4  1  0  0  0
  3 89  1  0  0  0
  3 90  1  0  0  0
  4  5  1  0  0  0
  4 91  1  0  0  0
  4 92  1  0  0  0
  5  6  1  0  0  0
  5 26  1  0  0  0
  5 93  1  0  0  0
  6 25  1  0  0  0
  6 94  1  0  0  0
  6 95  1  0  0  0
  7  8  2  0  0  0
  7 26  1  0  0  0
  7 29  1  0  0  0
  8  9  1  0  0  0
  8 22  1  0  0  0
  9 10  1  0  0  0
  9 27  2  0  0  0
 10 11  2  0  0  0
 10 15  1  0  0  0
 11 12  1  0  0  0
 11 96  1  0  0  0
 12 13  2  0  0  0
 12 97  1  0  0  0
 13 14  1  0  0  0
 13 31  1  0  0  0
 14 15  2  0  0  0
 14 98  1  0  0  0
 15 99  1  0  0  0
 16 17  2  0  0  0
 16 21  1  0  0  0
 16 31  1  0  0  0
 17 18  1  0  0  0
 17100  1  0  0  0
 18 19  2  0  0  0
 18101  1  0  0  0
 19 20  1  0  0  0
 19 24  1  0  0  0
 20 21  2  0  0  0
 20102  1  0  0  0
 21 23  1  0  0  0
 22 28  1  0  0  0
 22 32  2  0  0  0
 26 27  1  0  0  0
 28103  1  0  0  0
 28104  1  0  0  0
 29105  1  0  0  0
 29106  1  0  0  0
 33 34  1  0  0  0
 33 66  1  0  0  0
 33 70  2  0  0  0
 34 36  1  0  0  0
 34 59  1  0  0  0
 34107  1  0  0  0
 35 44  2  0  0  0
 35 45  1  0  0  0
 35 68  1  0  0  0
 36 56  1  0  0  0
 36108  1  0  0  0
 37 39  1  0  0  0
 37 47  1  0  0  0
 37 66  1  0  0  0
 37109  1  0  0  0
 38 43  2  0  0  0
 38 46  1  0  0  0
 38 47  1  0  0  0
 39 64  1  0  0  0
 39 67  2  0  0  0
 40 52  1  0  0  0
 40 53  2  0  0  0
 40 58  1  0  0  0
 41110  1  0  0  0
 41111  1  0  0  0
 41112  1  0  0  0
 41 48  1  0  0  0
 42 43  1  0  0  0
 42 66  1  0  0  0
 42113  1  0  0  0
 42114  1  0  0  0
 43 44  1  0  0  0
 44115  1  0  0  0
 45 46  2  0  0  0
 45116  1  0  0  0
 46117  1  0  0  0
 47118  1  0  0  0
 47119  1  0  0  0
 48 56  1  0  0  0
 48 65  1  0  0  0
 48120  1  0  0  0
 49 50  1  0  0  0
 49 53  1  0  0  0
 49 64  1  0  0  0
 49121  1  0  0  0
 50 51  1  0  0  0
 50122  1  0  0  0
 50123  1  0  0  0
 51 52  1  0  0  0
 51124  1  0  0  0
 51125  1  0  0  0
 52126  1  0  0  0
 52127  1  0  0  0
 53 54  1  0  0  0
 54 55  2  0  0  0
 54128  1  0  0  0
 55 57  1  0  0  0
 55129  1  0  0  0
 56 69  2  0  0  0
 57 58  2  0  0  0
 57130  1  0  0  0
 58131  1  0  0  0
 59 60  1  0  0  0
 59 61  1  0  0  0
 59 62  1  0  0  0
 60132  1  0  0  0
 60133  1  0  0  0
 60134  1  0  0  0
 61135  1  0  0  0
 61136  1  0  0  0
 61137  1  0  0  0
 62138  1  0  0  0
 62139  1  0  0  0
 62140  1  0  0  0
 63 65  1  0  0  0
 63141  1  0  0  0
 63142  1  0  0  0
 63143  1  0  0  0
 64144  1  0  0  0
 65145  1  0  0  0
 68 82  1  0  0  0
 71 74  2  0  0  0
 71 75  1  0  0  0
 71146  1  0  0  0
 72 74  1  0  0  0
 72 76  2  0  0  0
 72 77  1  0  0  0
 73 75  2  0  0  0
 73 76  1  0  0  0
 73 80  1  0  0  0
 74 83  1  0  0  0
 75 85  1  0  0  0
 76 86  1  0  0  0
 77147  1  0  0  0
 77148  1  0  0  0
 77149  1  0  0  0
 78150  1  0  0  0
 78151  1  0  0  0
 78152  1  0  0  0
 78 81  1  0  0  0
 79153  1  0  0  0
 79154  1  0  0  0
 79155  1  0  0  0
 79 82  1  0  0  0
 80 84  1  0  0  0
 80156  1  0  0  0
 80157  1  0  0  0
 81 82  1  0  0  0
 81 84  1  0  0  0
 81158  1  0  0  0
 82159  1  0  0  0
 83160  1  0  0  0
 84161  1  0  0  0
 84162  1  0  0  0
M  CHG  1  84   1
M  ISO  4   1 100  68 101  82 101  83 100
M  END
> <chiral flag>
0

> <version>
0

> <s_m_source_file>
/data/baiqing/PycharmProjects/Reinvent-master-3.2/result/LINK_invent/BTK/process_docking_weight1_custom_sum_contain_oxygen_bond_distance_aromatic_linkinvent_7_9_3/rearranged_h_0016.sdf

> <i_m_source_file_index>
49

> <r_mmod_Potential_Energy-OPLS-2005>
-88.6840286254883

> <r_mmod_Stretch_Energy-OPLS-2005>
82.8584213256836

> <r_mmod_Bend_Energy-OPLS-2005>
138.879791259766

> <r_mmod_Torsional_Energy-OPLS-2005>
223.80241394043

> <r_mmod_Improper_Torsional_Energy-OPLS-2005>
6.5802264213562

> <r_mmod_Van_der_Waal_Energy-OPLS-2005>
156.394180297852

> <r_mmod_Electrostatic_Energy-OPLS-2005>
-317.445983886719

> <r_mmod_Solvation_Energy-OPLS-2005>
-433.337310791016

> <b_mmod_Minimization_Converged-OPLS-2005>
0

> <r_mmod_RMS_Derivative-OPLS-2005>
3.69953346252441

$$$$
49
                    3D
 Structure written by MMmdl.
169177  0  0  1  0            999 V2000
  -30.6856  -14.6090   20.4455 C   0  0  0  0  0  0
  -30.4122  -12.3643   19.4612 C   0  0  0  0  0  0
  -29.4987  -12.4804   18.2242 C   0  0  0  0  0  0
  -28.0222  -12.3353   18.6380 C   0  0  0  0  0  0
  -27.6443  -13.2274   19.8516 C   0  0  2  0  0  0
  -28.6895  -13.1374   20.9860 C   0  0  0  0  0  0
  -25.2517  -13.8202   20.5688 C   0  0  0  0  0  0
  -24.1806  -13.0445   20.9207 C   0  0  0  0  0  0
  -24.6395  -11.6922   20.8753 C   0  0  0  0  0  0
  -23.9069  -10.4296   21.0411 C   0  0  0  0  0  0
  -24.3618   -9.4212   21.9190 C   0  0  0  0  0  0
  -23.6295   -8.2246   22.0760 C   0  0  0  0  0  0
  -22.4277   -8.0280   21.3548 C   0  0  0  0  0  0
  -21.9912   -9.0253   20.4652 C   0  0  0  0  0  0
  -22.7240  -10.2136   20.3062 C   0  0  0  0  0  0
  -21.6854   -6.0733   22.5278 C   0  0  0  0  0  0
  -21.4019   -6.5642   23.8210 C   0  0  0  0  0  0
  -21.3658   -5.6798   24.9174 C   0  0  0  0  0  0
  -21.6041   -4.3058   24.7228 C   0  0  0  0  0  0
  -21.8821   -3.8147   23.4351 C   0  0  0  0  0  0
  -21.9197   -4.6962   22.3405 C   0  0  0  0  0  0
  -22.7828  -13.5230   21.1866 C   0  0  0  0  0  0
  -22.1663   -4.2147   21.0982 F   0  0  0  0  0  0
  -21.5624   -3.4543   25.7741 F   0  0  0  0  0  0
  -30.0037  -13.4255   20.4024 N   0  0  0  0  0  0
  -26.2948  -12.9406   20.3292 N   0  0  0  0  0  0
  -25.9325  -11.6552   20.5764 N   0  0  0  0  0  0
  -22.0473  -12.8210   22.0418 N   0  0  0  0  0  0
  -25.4210  -15.1917   20.4079 N   0  0  0  0  0  0
  -31.8860  -14.6480   20.1715 O   0  0  0  0  0  0
  -21.6643   -6.8874   21.4238 O   0  0  0  0  0  0
  -22.3516  -14.5534   20.6713 O   0  0  0  0  0  0
  -24.6256  -31.8617   23.2068 C   0  0  0  0  0  0
  -25.9109  -32.4787   23.8384 C   0  0  1  0  0  0
  -27.2088  -27.3290   20.1058 C   0  0  0  0  0  0
  -25.5934  -33.8585   24.2300 N   0  0  0  0  0  0
  -23.4167  -30.4907   21.5504 C   0  0  2  0  0  0
  -24.8596  -28.9572   20.1084 C   0  0  0  0  0  0
  -22.7475  -29.4635   22.4951 C   0  0  0  0  0  0
  -18.0286  -28.1383   22.8470 C   0  0  0  0  0  0
  -24.1494  -36.7292   23.2640 C   0  0  0  0  0  0
  -25.9596  -30.7968   21.3773 C   0  0  0  0  0  0
  -26.0316  -29.4283   20.7137 C   0  0  0  0  0  0
  -27.2112  -28.6257   20.7048 C   0  0  0  0  0  0
  -26.0119  -26.9195   19.4677 C   0  0  0  0  0  0
  -24.8513  -27.7076   19.4778 C   0  0  0  0  0  0
  -23.6286  -29.8360   20.1619 C   0  0  0  0  0  0
  -25.4121  -36.3080   24.0332 C   0  0  1  0  0  0
  -20.5887  -28.3676   23.1281 C   0  0  2  0  0  0
  -20.6784  -26.9407   22.5395 C   0  0  0  0  0  0
  -19.5757  -26.6386   21.5198 C   0  0  0  0  0  0
  -18.1935  -26.7925   22.1612 C   0  0  0  0  0  0
  -19.1540  -28.8849   23.2865 C   0  0  0  0  0  0
  -18.9467  -30.1454   23.8876 C   0  0  0  0  0  0
  -17.6468  -30.6579   24.0563 C   0  0  0  0  0  0
  -25.9055  -34.9448   23.5112 C   0  0  0  0  0  0
  -16.5356  -29.9077   23.6335 C   0  0  0  0  0  0
  -16.7278  -28.6508   23.0330 C   0  0  0  0  0  0
  -26.4500  -31.6592   25.0745 C   0  0  0  0  0  0
  -25.3727  -31.3728   26.1467 C   0  0  0  0  0  0
  -27.0355  -30.3022   24.6188 C   0  0  0  0  0  0
  -27.6064  -32.4332   25.7505 C   0  0  0  0  0  0
  -27.5583  -37.1803   24.8467 C   0  0  0  0  0  0
  -21.4189  -29.3038   22.3684 N   0  0  0  0  0  0
  -26.4297  -37.3777   23.9405 N   0  0  0  0  0  0
  -24.6864  -31.0653   22.1014 N   0  0  0  0  0  0
  -23.4214  -28.8166   23.3014 O   0  0  0  0  0  0
  -28.3095  -26.4583   20.1652 O   0  0  0  0  0  0
  -26.5609  -34.8902   22.4669 O   0  0  0  0  0  0
  -23.5421  -32.1416   23.7400 O   0  0  0  0  0  0
  -28.5860  -18.7446   20.4532 C   0  0  0  0  0  0
  -30.2955  -20.9578   20.2120 C   0  0  0  0  0  0
  -29.9503  -18.4792   20.1828 C   0  0  0  0  0  0
  -30.8022  -19.6305   20.0839 C   0  0  0  0  0  0
  -28.9236  -21.2195   20.4278 C   0  0  0  0  0  0
  -28.0859  -20.0748   20.5663 C   0  0  0  0  0  0
  -30.3137  -16.8811   18.2769 C   0  0  0  0  0  0
  -29.6720  -24.1552   21.8025 C   0  0  0  0  0  0
  -33.2413  -20.6105   21.7503 C   0  0  0  0  0  0
  -27.9963  -25.0169   20.0567 C   0  0  0  0  0  0
  -30.4648  -17.0392   19.8045 C   0  0  2  0  0  0
  -29.0203  -23.8692   20.4445 C   0  0  2  0  0  0
  -33.0322  -19.3086   20.9577 C   0  0  2  0  0  0
  -34.3760  -18.6720   20.5297 C   0  0  0  0  0  0
  -32.1677  -19.5125   19.7930 N   0  0  0  0  0  0
  -28.3530  -22.5341   20.4745 N   0  0  0  0  0  0
  -29.9632  -15.7763   20.4604 N   0  0  0  0  0  0
  -34.1365  -17.5613   19.8321 F   0  0  0  0  0  0
  -35.1071  -18.3544   21.5977 F   0  0  0  0  0  0
  -35.0708  -19.5104   19.7606 F   0  0  0  0  0  0
  -26.3911  -20.2896   20.8375 Cl  0  0  0  0  0  0
  -31.4590  -12.4428   19.1624 H   0  0  0  0  0  0
  -30.3090  -11.3836   19.9275 H   0  0  0  0  0  0
  -29.7560  -11.7141   17.4919 H   0  0  0  0  0  0
  -29.6557  -13.4417   17.7318 H   0  0  0  0  0  0
  -27.8562  -11.2863   18.8860 H   0  0  0  0  0  0
  -27.3697  -12.5535   17.7921 H   0  0  0  0  0  0
  -27.6480  -14.2531   19.4827 H   0  0  0  0  0  0
  -28.6881  -12.1455   21.4407 H   0  0  0  0  0  0
  -28.4555  -13.8439   21.7840 H   0  0  0  0  0  0
  -25.2761   -9.5689   22.4767 H   0  0  0  0  0  0
  -24.0005   -7.4639   22.7480 H   0  0  0  0  0  0
  -21.0845   -8.8774   19.8956 H   0  0  0  0  0  0
  -22.3697  -10.9675   19.6174 H   0  0  0  0  0  0
  -21.2014   -7.6151   23.9712 H   0  0  0  0  0  0
  -21.1475   -6.0528   25.9076 H   0  0  0  0  0  0
  -22.0600   -2.7609   23.2854 H   0  0  0  0  0  0
  -22.4099  -11.9873   22.4802 H   0  0  0  0  0  0
  -21.1091  -13.1234   22.2621 H   0  0  0  0  0  0
  -24.6507  -15.8426   20.5124 H   0  0  0  0  0  0
  -26.2584  -15.6267   20.0451 H   0  0  0  0  0  0
  -26.7178  -32.5465   23.1135 H   0  0  0  0  0  0
  -25.0075  -33.9738   25.0438 H   0  0  0  0  0  0
  -22.7093  -31.3107   21.4150 H   0  0  0  0  0  0
  -23.3746  -35.9637   23.3301 H   0  0  0  0  0  0
  -24.3587  -36.8908   22.2055 H   0  0  0  0  0  0
  -23.7254  -37.6498   23.6658 H   0  0  0  0  0  0
  -26.0903  -31.5643   20.6136 H   0  0  0  0  0  0
  -26.8411  -30.8416   22.0049 H   0  0  0  0  0  0
  -28.1084  -28.9779   21.1943 H   0  0  0  0  0  0
  -25.9276  -25.9706   18.9610 H   0  0  0  0  0  0
  -23.9550  -27.3450   18.9952 H   0  0  0  0  0  0
  -23.7459  -30.6178   19.4102 H   0  0  0  0  0  0
  -22.7487  -29.2665   19.8576 H   0  0  0  0  0  0
  -25.1294  -36.1941   25.0827 H   0  0  0  0  0  0
  -20.9974  -28.3249   24.1403 H   0  0  0  0  0  0
  -20.5698  -26.2284   23.3586 H   0  0  0  0  0  0
  -21.6655  -26.7449   22.1184 H   0  0  0  0  0  0
  -19.6923  -25.6300   21.1218 H   0  0  0  0  0  0
  -19.6705  -27.3203   20.6732 H   0  0  0  0  0  0
  -17.4210  -26.6657   21.4011 H   0  0  0  0  0  0
  -18.0346  -26.0069   22.9013 H   0  0  0  0  0  0
  -19.7947  -30.7268   24.2237 H   0  0  0  0  0  0
  -17.5025  -31.6259   24.5164 H   0  0  0  0  0  0
  -15.5357  -30.2969   23.7681 H   0  0  0  0  0  0
  -15.8676  -28.0836   22.7030 H   0  0  0  0  0  0
  -24.5910  -30.7062   25.7797 H   0  0  0  0  0  0
  -24.8904  -32.2895   26.4862 H   0  0  0  0  0  0
  -25.8046  -30.8931   27.0257 H   0  0  0  0  0  0
  -26.2931  -29.6755   24.1233 H   0  0  0  0  0  0
  -27.4073  -29.7287   25.4687 H   0  0  0  0  0  0
  -27.8783  -30.4314   23.9399 H   0  0  0  0  0  0
  -27.2681  -33.3648   26.2053 H   0  0  0  0  0  0
  -28.3885  -32.6865   25.0332 H   0  0  0  0  0  0
  -28.0710  -31.8472   26.5439 H   0  0  0  0  0  0
  -28.2596  -38.0105   24.7508 H   0  0  0  0  0  0
  -28.1085  -36.2630   24.6304 H   0  0  0  0  0  0
  -27.2297  -37.1459   25.8871 H   0  0  0  0  0  0
  -20.9366  -29.8771   21.6902 H   0  0  0  0  0  0
  -26.0170  -38.2848   24.1411 H   0  0  0  0  0  0
  -27.8915  -17.9206   20.5143 H   0  0  0  0  0  0
  -30.9761  -21.7888   20.0970 H   0  0  0  0  0  0
  -30.8086  -17.6948   17.7452 H   0  0  0  0  0  0
  -29.2649  -16.8883   17.9783 H   0  0  0  0  0  0
  -30.7547  -15.9537   17.9109 H   0  0  0  0  0  0
  -30.1874  -25.1166   21.7886 H   0  0  0  0  0  0
  -30.4086  -23.3943   22.0601 H   0  0  0  0  0  0
  -28.9308  -24.1896   22.6015 H   0  0  0  0  0  0
  -33.9112  -20.4449   22.5938 H   0  0  0  0  0  0
  -32.3064  -20.9921   22.1597 H   0  0  0  0  0  0
  -33.6852  -21.3894   21.1310 H   0  0  0  0  0  0
  -27.7160  -24.8216   19.0203 H   0  0  0  0  0  0
  -27.1065  -24.8362   20.6637 H   0  0  0  0  0  0
  -31.5311  -17.0587   20.0188 H   0  0  0  0  0  0
  -29.8062  -23.8471   19.6874 H   0  0  0  0  0  0
  -32.5425  -18.5932   21.6215 H   0  0  0  0  0  0
  -32.3906  -18.8093   19.0955 H   0  0  0  0  0  0
  -27.3438  -22.5502   20.5953 H   0  0  0  0  0  0
  -28.9776  -15.7095   20.6624 H   0  0  0  0  0  0
  1 25  1  0  0  0
  1 30  2  0  0  0
  1 87  1  0  0  0
  2  3  1  0  0  0
  2 25  1  0  0  0
  2 92  1  0  0  0
  2 93  1  0  0  0
  3  4  1  0  0  0
  3 94  1  0  0  0
  3 95  1  0  0  0
  4  5  1  0  0  0
  4 96  1  0  0  0
  4 97  1  0  0  0
  5  6  1  0  0  0
  5 26  1  0  0  0
  5 98  1  0  0  0
  6 25  1  0  0  0
  6 99  1  0  0  0
  6100  1  0  0  0
  7  8  2  0  0  0
  7 26  1  0  0  0
  7 29  1  0  0  0
  8  9  1  0  0  0
  8 22  1  0  0  0
  9 10  1  0  0  0
  9 27  2  0  0  0
 10 11  2  0  0  0
 10 15  1  0  0  0
 11 12  1  0  0  0
 11101  1  0  0  0
 12 13  2  0  0  0
 12102  1  0  0  0
 13 14  1  0  0  0
 13 31  1  0  0  0
 14 15  2  0  0  0
 14103  1  0  0  0
 15104  1  0  0  0
 16 17  2  0  0  0
 16 21  1  0  0  0
 16 31  1  0  0  0
 17 18  1  0  0  0
 17105  1  0  0  0
 18 19  2  0  0  0
 18106  1  0  0  0
 19 20  1  0  0  0
 19 24  1  0  0  0
 20 21  2  0  0  0
 20107  1  0  0  0
 21 23  1  0  0  0
 22 28  1  0  0  0
 22 32  2  0  0  0
 26 27  1  0  0  0
 28108  1  0  0  0
 28109  1  0  0  0
 29110  1  0  0  0
 29111  1  0  0  0
 33 34  1  0  0  0
 33 66  1  0  0  0
 33 70  2  0  0  0
 34 36  1  0  0  0
 34 59  1  0  0  0
 34112  1  0  0  0
 35 44  2  0  0  0
 35 45  1  0  0  0
 35 68  1  0  0  0
 36 56  1  0  0  0
 36113  1  0  0  0
 37 39  1  0  0  0
 37 47  1  0  0  0
 37 66  1  0  0  0
 37114  1  0  0  0
 38 43  2  0  0  0
 38 46  1  0  0  0
 38 47  1  0  0  0
 39 64  1  0  0  0
 39 67  2  0  0  0
 40 52  1  0  0  0
 40 53  2  0  0  0
 40 58  1  0  0  0
 41115  1  0  0  0
 41116  1  0  0  0
 41117  1  0  0  0
 41 48  1  0  0  0
 42 43  1  0  0  0
 42 66  1  0  0  0
 42118  1  0  0  0
 42119  1  0  0  0
 43 44  1  0  0  0
 44120  1  0  0  0
 45 46  2  0  0  0
 45121  1  0  0  0
 46122  1  0  0  0
 47123  1  0  0  0
 47124  1  0  0  0
 48 56  1  0  0  0
 48 65  1  0  0  0
 48125  1  0  0  0
 49 50  1  0  0  0
 49 53  1  0  0  0
 49 64  1  0  0  0
 49126  1  0  0  0
 50 51  1  0  0  0
 50127  1  0  0  0
 50128  1  0  0  0
 51 52  1  0  0  0
 51129  1  0  0  0
 51130  1  0  0  0
 52131  1  0  0  0
 52132  1  0  0  0
 53 54  1  0  0  0
 54 55  2  0  0  0
 54133  1  0  0  0
 55 57  1  0  0  0
 55134  1  0  0  0
 56 69  2  0  0  0
 57 58  2  0  0  0
 57135  1  0  0  0
 58136  1  0  0  0
 59 60  1  0  0  0
 59 61  1  0  0  0
 59 62  1  0  0  0
 60137  1  0  0  0
 60138  1  0  0  0
 60139  1  0  0  0
 61140  1  0  0  0
 61141  1  0  0  0
 61142  1  0  0  0
 62143  1  0  0  0
 62144  1  0  0  0
 62145  1  0  0  0
 63 65  1  0  0  0
 63146  1  0  0  0
 63147  1  0  0  0
 63148  1  0  0  0
 64149  1  0  0  0
 65150  1  0  0  0
 68 80  1  0  0  0
 71 73  2  0  0  0
 71 76  1  0  0  0
 71151  1  0  0  0
 72 74  2  0  0  0
 72 75  1  0  0  0
 72152  1  0  0  0
 73 74  1  0  0  0
 73 81  1  0  0  0
 74 85  1  0  0  0
 75 76  2  0  0  0
 75 86  1  0  0  0
 76 91  1  0  0  0
 77153  1  0  0  0
 77154  1  0  0  0
 77155  1  0  0  0
 77 81  1  0  0  0
 78156  1  0  0  0
 78157  1  0  0  0
 78158  1  0  0  0
 78 82  1  0  0  0
 79159  1  0  0  0
 79160  1  0  0  0
 79161  1  0  0  0
 79 83  1  0  0  0
 80 82  1  0  0  0
 80162  1  0  0  0
 80163  1  0  0  0
 81 87  1  0  0  0
 81164  1  0  0  0
 82 86  1  0  0  0
 82165  1  0  0  0
 83 84  1  0  0  0
 83 85  1  0  0  0
 83166  1  0  0  0
 84 88  1  0  0  0
 84 89  1  0  0  0
 84 90  1  0  0  0
 85167  1  0  0  0
 86168  1  0  0  0
 87169  1  0  0  0
M  ISO  4   1 100  68 101  80 101  87 100
M  END
> <chiral flag>
0

> <version>
0

> <s_m_source_file>
/data/baiqing/PycharmProjects/Reinvent-master-3.2/result/LINK_invent/BTK/process_docking_weight1_custom_sum_contain_oxygen_bond_distance_aromatic_linkinvent_7_9_3/rearranged_h_0016.sdf

> <i_m_source_file_index>
50

> <r_mmod_Potential_Energy-OPLS-2005>
137.615753173828

> <r_mmod_Stretch_Energy-OPLS-2005>
75.0077896118164

> <r_mmod_Bend_Energy-OPLS-2005>
160.327209472656

> <r_mmod_Torsional_Energy-OPLS-2005>
234.661254882812

> <r_mmod_Improper_Torsional_Energy-OPLS-2005>
15.9911060333252

> <r_mmod_Van_der_Waal_Energy-OPLS-2005>
148.389312744141

> <r_mmod_Electrostatic_Energy-OPLS-2005>
-340.039978027344

> <r_mmod_Solvation_Energy-OPLS-2005>
-207.937789916992

> <b_mmod_Minimization_Converged-OPLS-2005>
0

> <r_mmod_RMS_Derivative-OPLS-2005>
1.43300628662109

$$$$
50
                    3D
 Structure written by MMmdl.
198206  0  0  1  0            999 V2000
  -30.6799  -14.4977   20.5114 C   0  0  0  0  0  0
  -30.4262  -12.3041   19.4452 C   0  0  0  0  0  0
  -29.4933  -12.4473   18.2260 C   0  0  0  0  0  0
  -28.0123  -12.3160   18.6324 C   0  0  0  0  0  0
  -27.6496  -13.1668   19.8785 C   0  0  2  0  0  0
  -28.6945  -13.0102   21.0039 C   0  0  0  0  0  0
  -25.2543  -13.8050   20.5686 C   0  0  0  0  0  0
  -24.1788  -13.0391   20.9196 C   0  0  0  0  0  0
  -24.6315  -11.6851   20.8768 C   0  0  0  0  0  0
  -23.9031  -10.4276   21.0431 C   0  0  0  0  0  0
  -24.3632   -9.4215   21.9204 C   0  0  0  0  0  0
  -23.6323   -8.2251   22.0775 C   0  0  0  0  0  0
  -22.4309   -8.0292   21.3552 C   0  0  0  0  0  0
  -21.9918   -9.0264   20.4656 C   0  0  0  0  0  0
  -22.7209  -10.2157   20.3077 C   0  0  0  0  0  0
  -21.6846   -6.0786   22.5306 C   0  0  0  0  0  0
  -21.3979   -6.5680   23.8235 C   0  0  0  0  0  0
  -21.3659   -5.6833   24.9191 C   0  0  0  0  0  0
  -21.6064   -4.3099   24.7226 C   0  0  0  0  0  0
  -21.8805   -3.8192   23.4338 C   0  0  0  0  0  0
  -21.9182   -4.7018   22.3404 C   0  0  0  0  0  0
  -22.7823  -13.5227   21.1836 C   0  0  0  0  0  0
  -22.1643   -4.2211   21.0963 F   0  0  0  0  0  0
  -21.5655   -3.4565   25.7727 F   0  0  0  0  0  0
  -30.0217  -13.3091   20.4391 N   0  0  0  0  0  0
  -26.2940  -12.9150   20.3410 N   0  0  0  0  0  0
  -25.9220  -11.6367   20.5859 N   0  0  0  0  0  0
  -22.0456  -12.8271   22.0401 N   0  0  0  0  0  0
  -25.4247  -15.1777   20.4080 N   0  0  0  0  0  0
  -31.8360  -14.6408   20.1040 O   0  0  0  0  0  0
  -21.6644   -6.8921   21.4274 O   0  0  0  0  0  0
  -22.3540  -14.5553   20.6679 O   0  0  0  0  0  0
  -24.6143  -31.8665   23.2139 C   0  0  0  0  0  0
  -25.9054  -32.4810   23.8421 C   0  0  1  0  0  0
  -27.2276  -27.4431   20.0418 C   0  0  0  0  0  0
  -25.5893  -33.8614   24.2371 N   0  0  0  0  0  0
  -23.3991  -30.4979   21.5528 C   0  0  2  0  0  0
  -24.8367  -28.9584   20.1187 C   0  0  0  0  0  0
  -22.7385  -29.4645   22.4947 C   0  0  0  0  0  0
  -18.0279  -28.1399   22.8469 C   0  0  0  0  0  0
  -24.1455  -36.7314   23.2642 C   0  0  0  0  0  0
  -25.9292  -30.8227   21.3675 C   0  0  0  0  0  0
  -26.0014  -29.4575   20.7164 C   0  0  0  0  0  0
  -27.1985  -28.7061   20.6765 C   0  0  0  0  0  0
  -26.0345  -26.9557   19.4536 C   0  0  0  0  0  0
  -24.8446  -27.7049   19.4930 C   0  0  0  0  0  0
  -23.6111  -29.8393   20.1638 C   0  0  0  0  0  0
  -25.4082  -36.3112   24.0327 C   0  0  1  0  0  0
  -20.5855  -28.3630   23.1294 C   0  0  2  0  0  0
  -20.6747  -26.9353   22.5414 C   0  0  0  0  0  0
  -19.5766  -26.6381   21.5177 C   0  0  0  0  0  0
  -18.1942  -26.7943   22.1593 C   0  0  0  0  0  0
  -19.1525  -28.8835   23.2922 C   0  0  0  0  0  0
  -18.9463  -30.1454   23.8946 C   0  0  0  0  0  0
  -17.6476  -30.6621   24.0546 C   0  0  0  0  0  0
  -25.8999  -34.9457   23.5157 C   0  0  0  0  0  0
  -16.5363  -29.9127   23.6310 C   0  0  0  0  0  0
  -16.7268  -28.6547   23.0318 C   0  0  0  0  0  0
  -26.4515  -31.6583   25.0736 C   0  0  0  0  0  0
  -25.3812  -31.3649   26.1498 C   0  0  0  0  0  0
  -27.0331  -30.3029   24.6099 C   0  0  0  0  0  0
  -27.6095  -32.4266   25.7522 C   0  0  0  0  0  0
  -27.5561  -37.1844   24.8469 C   0  0  0  0  0  0
  -21.4099  -29.3027   22.3703 N   0  0  0  0  0  0
  -26.4263  -37.3812   23.9406 N   0  0  0  0  0  0
  -24.6667  -31.0792   22.1050 N   0  0  0  0  0  0
  -23.4163  -28.8144   23.2950 O   0  0  0  0  0  0
  -28.4209  -26.7423   20.0065 O   0  0  0  0  0  0
  -26.5536  -34.8888   22.4712 O   0  0  0  0  0  0
  -23.5338  -32.1394   23.7573 O   0  0  0  0  0  0
  -30.9726  -19.2602   19.0827 C   0  0  0  0  0  0
  -31.4255  -18.9960   20.3804 C   0  0  0  0  0  0
  -30.0722  -18.3870   18.4541 C   0  0  0  0  0  0
  -31.1073  -17.7986   21.0689 C   0  0  0  0  0  0
  -29.5976  -17.2624   19.1845 C   0  0  0  0  0  0
  -30.2100  -16.8840   20.4183 C   0  0  0  0  0  0
  -29.3218  -17.4283   15.0031 C   0  0  0  0  0  0
  -28.4326  -16.4495   18.6436 C   0  0  0  0  0  0
  -29.2188  -16.0971   14.2911 C   0  0  0  0  0  0
  -33.3306  -17.6898   22.2461 C   0  0  0  0  0  0
  -31.5092  -16.3300   23.2246 C   0  0  0  0  0  0
  -31.3777  -18.7871   23.3846 C   0  0  0  0  0  0
  -29.6873  -18.6813   16.9999 C   0  0  0  0  0  0
  -28.8855  -18.6270   14.1690 C   0  0  0  0  0  0
  -27.3863  -18.9640   14.2969 C   0  0  0  0  0  0
  -27.0023  -20.1496   13.3961 C   0  0  0  0  0  0
  -25.5141  -20.5364   13.4323 C   0  0  0  0  0  0
  -24.9772  -21.1224   14.7575 C   0  0  0  0  0  0
  -25.4138  -22.5630   15.1141 C   0  0  0  0  0  0
  -26.7910  -22.6691   15.8103 C   0  0  0  0  0  0
  -26.9948  -23.9798   16.5867 C   0  0  0  0  0  0
  -28.4210  -24.1366   17.1620 C   0  0  0  0  0  0
  -28.6425  -25.4841   17.8815 C   0  0  0  0  0  0
  -28.4557  -25.4371   19.4129 C   0  0  0  0  0  0
  -31.8007  -17.6301   22.4508 C   0  0  0  0  0  0
  -29.7537  -17.4653   16.1997 N   0  0  0  0  0  0
  -29.9458  -15.5619   20.9041 N   0  0  0  0  0  0
  -31.4605  -12.4383   19.1229 H   0  0  0  0  0  0
  -30.3811  -11.3029   19.8752 H   0  0  0  0  0  0
  -29.7446  -11.6847   17.4890 H   0  0  0  0  0  0
  -29.6562  -13.4083   17.7408 H   0  0  0  0  0  0
  -27.8203  -11.2621   18.8337 H   0  0  0  0  0  0
  -27.3697  -12.5788   17.7930 H   0  0  0  0  0  0
  -27.6613  -14.1909   19.5568 H   0  0  0  0  0  0
  -28.6823  -11.9917   21.3925 H   0  0  0  0  0  0
  -28.4556  -13.6622   21.8457 H   0  0  0  0  0  0
  -25.2791   -9.5727   22.4764 H   0  0  0  0  0  0
  -24.0060   -7.4658   22.7490 H   0  0  0  0  0  0
  -21.0856   -8.8757   19.8965 H   0  0  0  0  0  0
  -22.3632  -10.9725   19.6220 H   0  0  0  0  0  0
  -21.1919   -7.6180   23.9753 H   0  0  0  0  0  0
  -21.1506   -6.0548   25.9105 H   0  0  0  0  0  0
  -22.0572   -2.7661   23.2799 H   0  0  0  0  0  0
  -22.4058  -11.9935   22.4798 H   0  0  0  0  0  0
  -21.1099  -13.1358   22.2620 H   0  0  0  0  0  0
  -24.6560  -15.8281   20.5308 H   0  0  0  0  0  0
  -26.2731  -15.6246   20.0941 H   0  0  0  0  0  0
  -26.7071  -32.5490   23.1117 H   0  0  0  0  0  0
  -25.0026  -33.9751   25.0506 H   0  0  0  0  0  0
  -22.6903  -31.3164   21.4121 H   0  0  0  0  0  0
  -23.3696  -35.9666   23.3319 H   0  0  0  0  0  0
  -24.3565  -36.8962   22.2070 H   0  0  0  0  0  0
  -23.7226  -37.6523   23.6664 H   0  0  0  0  0  0
  -26.0347  -31.5779   20.5871 H   0  0  0  0  0  0
  -26.8227  -30.8806   21.9782 H   0  0  0  0  0  0
  -28.1087  -29.1019   21.1106 H   0  0  0  0  0  0
  -25.9832  -26.0115   18.9316 H   0  0  0  0  0  0
  -23.9509  -27.3206   19.0195 H   0  0  0  0  0  0
  -23.7412  -30.6199   19.4105 H   0  0  0  0  0  0
  -22.7270  -29.2802   19.8530 H   0  0  0  0  0  0
  -25.1283  -36.1958   25.0818 H   0  0  0  0  0  0
  -21.0027  -28.3223   24.1371 H   0  0  0  0  0  0
  -20.5574  -26.2257   23.3613 H   0  0  0  0  0  0
  -21.6621  -26.7347   22.1255 H   0  0  0  0  0  0
  -19.6912  -25.6289   21.1222 H   0  0  0  0  0  0
  -19.6754  -27.3166   20.6689 H   0  0  0  0  0  0
  -17.4199  -26.6605   21.4037 H   0  0  0  0  0  0
  -18.0409  -26.0112   22.9024 H   0  0  0  0  0  0
  -19.7936  -30.7245   24.2371 H   0  0  0  0  0  0
  -17.5019  -31.6293   24.5132 H   0  0  0  0  0  0
  -15.5369  -30.3058   23.7631 H   0  0  0  0  0  0
  -15.8644  -28.0923   22.7000 H   0  0  0  0  0  0
  -24.5996  -30.6970   25.7882 H   0  0  0  0  0  0
  -24.8931  -32.2766   26.4958 H   0  0  0  0  0  0
  -25.8170  -30.8848   27.0267 H   0  0  0  0  0  0
  -26.2859  -29.6831   24.1126 H   0  0  0  0  0  0
  -27.4102  -29.7235   25.4545 H   0  0  0  0  0  0
  -27.8711  -30.4361   23.9237 H   0  0  0  0  0  0
  -27.2739  -33.3571   26.2104 H   0  0  0  0  0  0
  -28.3942  -32.6829   25.0400 H   0  0  0  0  0  0
  -28.0712  -31.8367   26.5465 H   0  0  0  0  0  0
  -28.2574  -38.0147   24.7503 H   0  0  0  0  0  0
  -28.1049  -36.2674   24.6289 H   0  0  0  0  0  0
  -27.2260  -37.1511   25.8869 H   0  0  0  0  0  0
  -20.9244  -29.8841   21.7001 H   0  0  0  0  0  0
  -26.0127  -38.2860   24.1487 H   0  0  0  0  0  0
  -31.3296  -20.1467   18.5759 H   0  0  0  0  0  0
  -32.0811  -19.7255   20.8307 H   0  0  0  0  0  0
  -27.8966  -16.9307   17.8295 H   0  0  0  0  0  0
  -27.6968  -16.3196   19.4326 H   0  0  0  0  0  0
  -28.7903  -15.4883   18.2874 H   0  0  0  0  0  0
  -28.2727  -16.0237   13.7520 H   0  0  0  0  0  0
  -29.2612  -15.2736   15.0061 H   0  0  0  0  0  0
  -30.0412  -15.9754   13.5874 H   0  0  0  0  0  0
  -33.6536  -16.9140   21.5510 H   0  0  0  0  0  0
  -33.8660  -17.5498   23.1851 H   0  0  0  0  0  0
  -33.6713  -18.6420   21.8407 H   0  0  0  0  0  0
  -31.9037  -15.4582   22.7101 H   0  0  0  0  0  0
  -30.4428  -16.1884   23.4033 H   0  0  0  0  0  0
  -31.9978  -16.3354   24.2000 H   0  0  0  0  0  0
  -31.6816  -19.7622   23.0067 H   0  0  0  0  0  0
  -31.8162  -18.6924   24.3786 H   0  0  0  0  0  0
  -30.2946  -18.8095   23.5166 H   0  0  0  0  0  0
  -30.3891  -19.4183   16.6007 H   0  0  0  0  0  0
  -28.6944  -19.1387   16.9777 H   0  0  0  0  0  0
  -29.1286  -18.4231   13.1251 H   0  0  0  0  0  0
  -29.4884  -19.4939   14.4346 H   0  0  0  0  0  0
  -27.1501  -19.1933   15.3355 H   0  0  0  0  0  0
  -26.7931  -18.0883   14.0315 H   0  0  0  0  0  0
  -27.2624  -19.8898   12.3682 H   0  0  0  0  0  0
  -27.6215  -21.0119   13.6313 H   0  0  0  0  0  0
  -24.9277  -19.6491   13.1830 H   0  0  0  0  0  0
  -25.3238  -21.2473   12.6264 H   0  0  0  0  0  0
  -25.1735  -20.4528   15.5936 H   0  0  0  0  0  0
  -23.8897  -21.1418   14.6654 H   0  0  0  0  0  0
  -24.6509  -22.9819   15.7742 H   0  0  0  0  0  0
  -25.3944  -23.1876   14.2218 H   0  0  0  0  0  0
  -27.5747  -22.5897   15.0598 H   0  0  0  0  0  0
  -26.9239  -21.8310   16.4988 H   0  0  0  0  0  0
  -26.2666  -24.0432   17.3930 H   0  0  0  0  0  0
  -26.7814  -24.8184   15.9204 H   0  0  0  0  0  0
  -29.1388  -24.0606   16.3423 H   0  0  0  0  0  0
  -28.6589  -23.3096   17.8391 H   0  0  0  0  0  0
  -28.0037  -26.2410   17.4291 H   0  0  0  0  0  0
  -29.6651  -25.8130   17.6876 H   0  0  0  0  0  0
  -29.3110  -24.9154   19.8471 H   0  0  0  0  0  0
  -27.5932  -24.8380   19.7038 H   0  0  0  0  0  0
  -29.0112  -15.3611   21.2251 H   0  0  0  0  0  0
  1 25  1  0  0  0
  1 30  2  0  0  0
  1 97  1  0  0  0
  2  3  1  0  0  0
  2 25  1  0  0  0
  2 98  1  0  0  0
  2 99  1  0  0  0
  3  4  1  0  0  0
  3100  1  0  0  0
  3101  1  0  0  0
  4  5  1  0  0  0
  4102  1  0  0  0
  4103  1  0  0  0
  5  6  1  0  0  0
  5 26  1  0  0  0
  5104  1  0  0  0
  6 25  1  0  0  0
  6105  1  0  0  0
  6106  1  0  0  0
  7  8  2  0  0  0
  7 26  1  0  0  0
  7 29  1  0  0  0
  8  9  1  0  0  0
  8 22  1  0  0  0
  9 10  1  0  0  0
  9 27  2  0  0  0
 10 11  2  0  0  0
 10 15  1  0  0  0
 11 12  1  0  0  0
 11107  1  0  0  0
 12 13  2  0  0  0
 12108  1  0  0  0
 13 14  1  0  0  0
 13 31  1  0  0  0
 14 15  2  0  0  0
 14109  1  0  0  0
 15110  1  0  0  0
 16 17  2  0  0  0
 16 21  1  0  0  0
 16 31  1  0  0  0
 17 18  1  0  0  0
 17111  1  0  0  0
 18 19  2  0  0  0
 18112  1  0  0  0
 19 20  1  0  0  0
 19 24  1  0  0  0
 20 21  2  0  0  0
 20113  1  0  0  0
 21 23  1  0  0  0
 22 28  1  0  0  0
 22 32  2  0  0  0
 26 27  1  0  0  0
 28114  1  0  0  0
 28115  1  0  0  0
 29116  1  0  0  0
 29117  1  0  0  0
 33 34  1  0  0  0
 33 66  1  0  0  0
 33 70  2  0  0  0
 34 36  1  0  0  0
 34 59  1  0  0  0
 34118  1  0  0  0
 35 44  2  0  0  0
 35 45  1  0  0  0
 35 68  1  0  0  0
 36 56  1  0  0  0
 36119  1  0  0  0
 37 39  1  0  0  0
 37 47  1  0  0  0
 37 66  1  0  0  0
 37120  1  0  0  0
 38 43  2  0  0  0
 38 46  1  0  0  0
 38 47  1  0  0  0
 39 64  1  0  0  0
 39 67  2  0  0  0
 40 52  1  0  0  0
 40 53  2  0  0  0
 40 58  1  0  0  0
 41121  1  0  0  0
 41122  1  0  0  0
 41123  1  0  0  0
 41 48  1  0  0  0
 42 43  1  0  0  0
 42 66  1  0  0  0
 42124  1  0  0  0
 42125  1  0  0  0
 43 44  1  0  0  0
 44126  1  0  0  0
 45 46  2  0  0  0
 45127  1  0  0  0
 46128  1  0  0  0
 47129  1  0  0  0
 47130  1  0  0  0
 48 56  1  0  0  0
 48 65  1  0  0  0
 48131  1  0  0  0
 49 50  1  0  0  0
 49 53  1  0  0  0
 49 64  1  0  0  0
 49132  1  0  0  0
 50 51  1  0  0  0
 50133  1  0  0  0
 50134  1  0  0  0
 51 52  1  0  0  0
 51135  1  0  0  0
 51136  1  0  0  0
 52137  1  0  0  0
 52138  1  0  0  0
 53 54  1  0  0  0
 54 55  2  0  0  0
 54139  1  0  0  0
 55 57  1  0  0  0
 55140  1  0  0  0
 56 69  2  0  0  0
 57 58  2  0  0  0
 57141  1  0  0  0
 58142  1  0  0  0
 59 60  1  0  0  0
 59 61  1  0  0  0
 59 62  1  0  0  0
 60143  1  0  0  0
 60144  1  0  0  0
 60145  1  0  0  0
 61146  1  0  0  0
 61147  1  0  0  0
 61148  1  0  0  0
 62149  1  0  0  0
 62150  1  0  0  0
 62151  1  0  0  0
 63 65  1  0  0  0
 63152  1  0  0  0
 63153  1  0  0  0
 63154  1  0  0  0
 64155  1  0  0  0
 65156  1  0  0  0
 68 94  1  0  0  0
 71 72  2  0  0  0
 71 73  1  0  0  0
 71157  1  0  0  0
 72 74  1  0  0  0
 72158  1  0  0  0
 73 75  2  0  0  0
 73 83  1  0  0  0
 74 76  2  0  0  0
 74 95  1  0  0  0
 75 76  1  0  0  0
 75 78  1  0  0  0
 76 97  1  0  0  0
 77 79  1  0  0  0
 77 84  1  0  0  0
 77 96  2  0  0  0
 78159  1  0  0  0
 78160  1  0  0  0
 78161  1  0  0  0
 79162  1  0  0  0
 79163  1  0  0  0
 79164  1  0  0  0
 80165  1  0  0  0
 80166  1  0  0  0
 80167  1  0  0  0
 80 95  1  0  0  0
 81 95  1  0  0  0
 81168  1  0  0  0
 81169  1  0  0  0
 81170  1  0  0  0
 82 95  1  0  0  0
 82171  1  0  0  0
 82172  1  0  0  0
 82173  1  0  0  0
 83 96  1  0  0  0
 83174  1  0  0  0
 83175  1  0  0  0
 84 85  1  0  0  0
 84176  1  0  0  0
 84177  1  0  0  0
 85 86  1  0  0  0
 85178  1  0  0  0
 85179  1  0  0  0
 86 87  1  0  0  0
 86180  1  0  0  0
 86181  1  0  0  0
 87 88  1  0  0  0
 87182  1  0  0  0
 87183  1  0  0  0
 88 89  1  0  0  0
 88184  1  0  0  0
 88185  1  0  0  0
 89 90  1  0  0  0
 89186  1  0  0  0
 89187  1  0  0  0
 90 91  1  0  0  0
 90188  1  0  0  0
 90189  1  0  0  0
 91 92  1  0  0  0
 91190  1  0  0  0
 91191  1  0  0  0
 92 93  1  0  0  0
 92192  1  0  0  0
 92193  1  0  0  0
 93 94  1  0  0  0
 93194  1  0  0  0
 93195  1  0  0  0
 94196  1  0  0  0
 94197  1  0  0  0
 97198  1  0  0  0
M  ISO  4   1 100  68 101  94 101  97 100
M  END
> <chiral flag>
0

> <version>
0

> <s_m_source_file>
/data/baiqing/PycharmProjects/Reinvent-master-3.2/result/LINK_invent/BTK/process_docking_weight1_custom_sum_contain_oxygen_bond_distance_aromatic_linkinvent_7_9_3/rearranged_h_0016.sdf

> <i_m_source_file_index>
51

> <r_mmod_Potential_Energy-OPLS-2005>
47.2916793823242

> <r_mmod_Stretch_Energy-OPLS-2005>
46.5420684814453

> <r_mmod_Bend_Energy-OPLS-2005>
138.683441162109

> <r_mmod_Torsional_Energy-OPLS-2005>
277.091186523438

> <r_mmod_Improper_Torsional_Energy-OPLS-2005>
5.21075820922852

> <r_mmod_Van_der_Waal_Energy-OPLS-2005>
172.462631225586

> <r_mmod_Electrostatic_Energy-OPLS-2005>
-409.125579833984

> <r_mmod_Solvation_Energy-OPLS-2005>
-201.892471313477

> <b_mmod_Minimization_Converged-OPLS-2005>
0

> <r_mmod_RMS_Derivative-OPLS-2005>
5.78716325759888

$$$$
51
                    3D
 Structure written by MMmdl.
204211  0  0  1  0            999 V2000
  -30.8009  -14.3293   20.7575 C   0  0  0  0  0  0
  -30.4276  -12.3163   19.3758 C   0  0  0  0  0  0
  -29.4867  -12.5499   18.1820 C   0  0  0  0  0  0
  -28.0139  -12.3926   18.5984 C   0  0  0  0  0  0
  -27.6684  -13.2061   19.8737 C   0  0  2  0  0  0
  -28.7032  -12.9528   20.9903 C   0  0  0  0  0  0
  -25.2615  -13.8159   20.5633 C   0  0  0  0  0  0
  -24.1877  -13.0465   20.9137 C   0  0  0  0  0  0
  -24.6415  -11.6914   20.8693 C   0  0  0  0  0  0
  -23.9058  -10.4324   21.0384 C   0  0  0  0  0  0
  -24.3606   -9.4227   21.9168 C   0  0  0  0  0  0
  -23.6299   -8.2249   22.0736 C   0  0  0  0  0  0
  -22.4272   -8.0272   21.3526 C   0  0  0  0  0  0
  -21.9914   -9.0241   20.4619 C   0  0  0  0  0  0
  -22.7228  -10.2133   20.3037 C   0  0  0  0  0  0
  -21.6859   -6.0733   22.5279 C   0  0  0  0  0  0
  -21.4022   -6.5640   23.8204 C   0  0  0  0  0  0
  -21.3658   -5.6793   24.9170 C   0  0  0  0  0  0
  -21.6043   -4.3058   24.7223 C   0  0  0  0  0  0
  -21.8825   -3.8141   23.4357 C   0  0  0  0  0  0
  -21.9196   -4.6966   22.3409 C   0  0  0  0  0  0
  -22.7897  -13.5229   21.1822 C   0  0  0  0  0  0
  -22.1664   -4.2141   21.1000 F   0  0  0  0  0  0
  -21.5629   -3.4550   25.7740 F   0  0  0  0  0  0
  -30.0553  -13.2322   20.4634 N   0  0  0  0  0  0
  -26.3059  -12.9350   20.3322 N   0  0  0  0  0  0
  -25.9322  -11.6502   20.5685 N   0  0  0  0  0  0
  -22.0543  -12.8230   22.0393 N   0  0  0  0  0  0
  -25.4424  -15.1876   20.4075 N   0  0  0  0  0  0
  -31.7536  -14.7168   20.0752 O   0  0  0  0  0  0
  -21.6654   -6.8861   21.4224 O   0  0  0  0  0  0
  -22.3622  -14.5559   20.6694 O   0  0  0  0  0  0
  -24.6132  -31.8729   23.2111 C   0  0  0  0  0  0
  -25.9022  -32.4868   23.8371 C   0  0  1  0  0  0
  -27.2261  -27.4047   20.1198 C   0  0  0  0  0  0
  -25.5846  -33.8649   24.2303 N   0  0  0  0  0  0
  -23.4048  -30.4929   21.5615 C   0  0  2  0  0  0
  -24.8515  -28.9458   20.1324 C   0  0  0  0  0  0
  -22.7455  -29.4648   22.5081 C   0  0  0  0  0  0
  -18.0308  -28.1292   22.8512 C   0  0  0  0  0  0
  -24.1522  -36.7277   23.2642 C   0  0  0  0  0  0
  -25.9370  -30.8176   21.3851 C   0  0  0  0  0  0
  -26.0140  -29.4491   20.7342 C   0  0  0  0  0  0
  -27.2069  -28.6849   20.7293 C   0  0  0  0  0  0
  -26.0473  -26.9206   19.5137 C   0  0  0  0  0  0
  -24.8594  -27.6780   19.5297 C   0  0  0  0  0  0
  -23.6174  -29.8224   20.1808 C   0  0  0  0  0  0
  -25.4147  -36.3119   24.0328 C   0  0  1  0  0  0
  -20.5903  -28.3598   23.1277 C   0  0  2  0  0  0
  -20.6789  -26.9328   22.5392 C   0  0  0  0  0  0
  -19.5768  -26.6338   21.5180 C   0  0  0  0  0  0
  -18.1952  -26.7861   22.1607 C   0  0  0  0  0  0
  -19.1555  -28.8741   23.2918 C   0  0  0  0  0  0
  -18.9481  -30.1356   23.8908 C   0  0  0  0  0  0
  -17.6476  -30.6525   24.0483 C   0  0  0  0  0  0
  -25.9046  -34.9497   23.5132 C   0  0  0  0  0  0
  -16.5370  -29.8997   23.6289 C   0  0  0  0  0  0
  -16.7290  -28.6395   23.0364 C   0  0  0  0  0  0
  -26.4495  -31.6622   25.0655 C   0  0  0  0  0  0
  -25.3730  -31.3630   26.1341 C   0  0  0  0  0  0
  -27.0396  -30.3083   24.6038 C   0  0  0  0  0  0
  -27.6075  -32.4374   25.7413 C   0  0  0  0  0  0
  -27.5646  -37.1778   24.8473 C   0  0  0  0  0  0
  -21.4183  -29.2982   22.3722 N   0  0  0  0  0  0
  -26.4368  -37.3774   23.9393 N   0  0  0  0  0  0
  -24.6687  -31.0752   22.1096 N   0  0  0  0  0  0
  -23.4210  -28.8217   23.3165 O   0  0  0  0  0  0
  -28.3544  -26.6237   20.0109 O   0  0  0  0  0  0
  -26.5626  -34.8931   22.4708 O   0  0  0  0  0  0
  -23.5332  -32.1557   23.7426 O   0  0  0  0  0  0
  -28.6370  -23.4858   21.6193 C   0  0  0  0  0  0
  -29.9232  -16.7508   23.3636 C   0  0  0  0  0  0
  -24.0861  -17.4468   16.3097 C   0  0  0  0  0  0
  -28.4565  -21.2979   16.3592 C   0  0  0  0  0  0
  -31.7772  -14.3502   24.5251 C   0  0  0  0  0  0
  -33.4961  -15.1161   22.8410 C   0  0  0  0  0  0
  -28.2078  -18.4361   19.6112 C   0  0  0  0  0  0
  -27.8854  -22.7296   20.5265 C   0  0  0  0  0  0
  -28.1392  -24.9249   21.8933 C   0  0  0  0  0  0
  -24.9844  -18.6636   16.5776 C   0  0  0  0  0  0
  -27.4022  -21.3237   20.9681 C   0  0  0  0  0  0
  -30.3816  -21.0352   24.5037 C   0  0  0  0  0  0
  -30.1305  -22.5634   24.6155 C   0  0  0  0  0  0
  -29.0946  -20.1947   24.3716 C   0  0  0  0  0  0
  -26.7086  -20.5108   19.8612 C   0  0  0  0  0  0
  -30.3520  -23.3959   23.3281 C   0  0  0  0  0  0
  -29.2229  -18.7021   24.7390 C   0  0  0  0  0  0
  -28.0575  -19.8121   16.4845 C   0  0  0  0  0  0
  -26.2528  -18.3496   17.4007 C   0  0  0  0  0  0
  -28.9347  -26.0775   21.2073 C   0  0  0  0  0  0
  -31.0751  -16.0067   22.6527 C   0  0  1  0  0  0
  -32.2123  -15.5070   23.5990 C   0  0  0  0  0  0
  -27.6939  -19.7400   18.9577 C   0  0  2  0  0  0
  -29.5831  -22.8596   22.2191 N   0  0  0  0  0  0
  -30.1705  -17.9553   23.9020 N   0  0  0  0  0  0
  -30.4819  -14.8846   21.9281 N   0  0  0  0  0  0
  -27.0976  -19.5639   17.5978 N   0  3  1  0  0  0
  -28.8121  -16.2125   23.4375 O   0  0  0  0  0  0
  -31.4648  -12.4463   19.0567 H   0  0  0  0  0  0
  -30.3560  -11.2853   19.7253 H   0  0  0  0  0  0
  -29.7231  -11.8561   17.3739 H   0  0  0  0  0  0
  -29.6482  -13.5510   17.7785 H   0  0  0  0  0  0
  -27.8184  -11.3339   18.7678 H   0  0  0  0  0  0
  -27.3619  -12.6887   17.7761 H   0  0  0  0  0  0
  -27.7278  -14.2632   19.6068 H   0  0  0  0  0  0
  -28.6572  -11.9180   21.3327 H   0  0  0  0  0  0
  -28.4293  -13.5559   21.8567 H   0  0  0  0  0  0
  -25.2734   -9.5742   22.4761 H   0  0  0  0  0  0
  -24.0013   -7.4663   22.7484 H   0  0  0  0  0  0
  -21.0821   -8.8722   19.8961 H   0  0  0  0  0  0
  -22.3622  -10.9650   19.6164 H   0  0  0  0  0  0
  -21.2009   -7.6145   23.9699 H   0  0  0  0  0  0
  -21.1483   -6.0534   25.9066 H   0  0  0  0  0  0
  -22.0609   -2.7607   23.2857 H   0  0  0  0  0  0
  -22.4139  -11.9854   22.4765 H   0  0  0  0  0  0
  -21.1142  -13.1262   22.2551 H   0  0  0  0  0  0
  -24.6940  -15.8555   20.5435 H   0  0  0  0  0  0
  -26.3304  -15.6147   20.1820 H   0  0  0  0  0  0
  -26.7048  -32.5570   23.1097 H   0  0  0  0  0  0
  -24.9932  -33.9815   25.0393 H   0  0  0  0  0  0
  -22.6870  -31.3074   21.4249 H   0  0  0  0  0  0
  -23.3843  -35.9564   23.3325 H   0  0  0  0  0  0
  -24.3607  -36.8856   22.2064 H   0  0  0  0  0  0
  -23.7232  -37.6438   23.6666 H   0  0  0  0  0  0
  -26.0592  -31.5954   20.6303 H   0  0  0  0  0  0
  -26.8153  -30.8564   22.0144 H   0  0  0  0  0  0
  -28.1140  -29.0805   21.1625 H   0  0  0  0  0  0
  -26.0460  -25.9477   19.0359 H   0  0  0  0  0  0
  -23.9596  -27.2762   19.0832 H   0  0  0  0  0  0
  -23.7366  -30.6009   19.4291 H   0  0  0  0  0  0
  -22.7362  -29.2530   19.8828 H   0  0  0  0  0  0
  -25.1378  -36.2005   25.0826 H   0  0  0  0  0  0
  -20.9966  -28.3182   24.1413 H   0  0  0  0  0  0
  -20.5653  -26.2232   23.3596 H   0  0  0  0  0  0
  -21.6680  -26.7394   22.1197 H   0  0  0  0  0  0
  -19.6910  -25.6255   21.1184 H   0  0  0  0  0  0
  -19.6638  -27.3176   20.6707 H   0  0  0  0  0  0
  -17.4219  -26.6612   21.4017 H   0  0  0  0  0  0
  -18.0314  -25.9979   22.8956 H   0  0  0  0  0  0
  -19.7969  -30.7163   24.2305 H   0  0  0  0  0  0
  -17.5021  -31.6212   24.5103 H   0  0  0  0  0  0
  -15.5350  -30.2842   23.7603 H   0  0  0  0  0  0
  -15.8720  -28.0642   22.7080 H   0  0  0  0  0  0
  -24.5919  -30.7032   25.7534 H   0  0  0  0  0  0
  -24.8885  -32.2734   26.4892 H   0  0  0  0  0  0
  -25.8004  -30.8651   27.0042 H   0  0  0  0  0  0
  -26.2910  -29.6714   24.1283 H   0  0  0  0  0  0
  -27.4384  -29.7462   25.4484 H   0  0  0  0  0  0
  -27.8679  -30.4426   23.9059 H   0  0  0  0  0  0
  -27.2710  -33.3684   26.2011 H   0  0  0  0  0  0
  -28.3855  -32.6922   25.0193 H   0  0  0  0  0  0
  -28.0781  -31.8459   26.5277 H   0  0  0  0  0  0
  -28.2663  -38.0103   24.7614 H   0  0  0  0  0  0
  -28.1179  -36.2619   24.6301 H   0  0  0  0  0  0
  -27.2303  -37.1369   25.8856 H   0  0  0  0  0  0
  -20.9317  -29.8666   21.6906 H   0  0  0  0  0  0
  -26.0310  -38.2878   24.1346 H   0  0  0  0  0  0
  -23.1622  -17.7492   15.8122 H   0  0  0  0  0  0
  -23.8016  -16.9285   17.2254 H   0  0  0  0  0  0
  -24.5765  -16.7246   15.6564 H   0  0  0  0  0  0
  -29.0632  -21.4635   15.4696 H   0  0  0  0  0  0
  -29.0490  -21.6485   17.2015 H   0  0  0  0  0  0
  -27.5837  -21.9452   16.2787 H   0  0  0  0  0  0
  -32.5636  -14.0840   25.2336 H   0  0  0  0  0  0
  -31.5348  -13.4517   23.9601 H   0  0  0  0  0  0
  -30.9009  -14.6081   25.1175 H   0  0  0  0  0  0
  -34.2968  -14.8540   23.5356 H   0  0  0  0  0  0
  -33.8666  -15.9351   22.2235 H   0  0  0  0  0  0
  -33.3449  -14.2587   22.1856 H   0  0  0  0  0  0
  -28.8589  -18.6629   20.4538 H   0  0  0  0  0  0
  -28.7940  -17.8310   18.9184 H   0  0  0  0  0  0
  -27.4061  -17.8150   20.0065 H   0  0  0  0  0  0
  -28.5545  -22.6300   19.6727 H   0  0  0  0  0  0
  -27.0377  -23.3270   20.1926 H   0  0  0  0  0  0
  -28.1480  -25.0836   22.9718 H   0  0  0  0  0  0
  -27.0850  -24.9998   21.6329 H   0  0  0  0  0  0
  -24.3895  -19.4149   17.0964 H   0  0  0  0  0  0
  -25.2602  -19.0970   15.6165 H   0  0  0  0  0  0
  -26.7151  -21.4266   21.8085 H   0  0  0  0  0  0
  -28.2393  -20.7390   21.3390 H   0  0  0  0  0  0
  -30.8976  -20.7146   25.4080 H   0  0  0  0  0  0
  -31.0640  -20.8238   23.6835 H   0  0  0  0  0  0
  -30.8109  -22.9622   25.3696 H   0  0  0  0  0  0
  -29.1357  -22.7554   25.0194 H   0  0  0  0  0  0
  -28.6830  -20.2908   23.3710 H   0  0  0  0  0  0
  -28.3372  -20.6109   25.0387 H   0  0  0  0  0  0
  -26.0958  -21.1965   19.2753 H   0  0  0  0  0  0
  -26.0082  -19.8028   20.3055 H   0  0  0  0  0  0
  -31.4120  -23.3751   23.0679 H   0  0  0  0  0  0
  -30.1407  -24.4428   23.5376 H   0  0  0  0  0  0
  -28.2273  -18.2543   24.7013 H   0  0  0  0  0  0
  -29.5236  -18.5970   25.7825 H   0  0  0  0  0  0
  -28.9406  -19.1864   16.6068 H   0  0  0  0  0  0
  -27.6019  -19.5149   15.5396 H   0  0  0  0  0  0
  -26.8374  -17.5612   16.9243 H   0  0  0  0  0  0
  -25.9207  -17.9442   18.3558 H   0  0  0  0  0  0
  -29.9343  -25.7192   20.9442 H   0  0  0  0  0  0
  -29.0877  -26.8832   21.9247 H   0  0  0  0  0  0
  -31.4920  -16.7179   21.9368 H   0  0  0  0  0  0
  -32.4852  -16.3408   24.2490 H   0  0  0  0  0  0
  -28.5799  -20.3660   18.8614 H   0  0  0  0  0  0
  -31.1056  -18.3286   23.8095 H   0  0  0  0  0  0
  -29.6590  -14.5147   22.3791 H   0  0  0  0  0  0
  -26.4432  -20.3264   17.5259 H   0  0  0  0  0  0
  1 25  1  0  0  0
  1 30  2  0  0  0
  1 96  1  0  0  0
  2  3  1  0  0  0
  2 25  1  0  0  0
  2 99  1  0  0  0
  2100  1  0  0  0
  3  4  1  0  0  0
  3101  1  0  0  0
  3102  1  0  0  0
  4  5  1  0  0  0
  4103  1  0  0  0
  4104  1  0  0  0
  5  6  1  0  0  0
  5 26  1  0  0  0
  5105  1  0  0  0
  6 25  1  0  0  0
  6106  1  0  0  0
  6107  1  0  0  0
  7  8  2  0  0  0
  7 26  1  0  0  0
  7 29  1  0  0  0
  8  9  1  0  0  0
  8 22  1  0  0  0
  9 10  1  0  0  0
  9 27  2  0  0  0
 10 11  2  0  0  0
 10 15  1  0  0  0
 11 12  1  0  0  0
 11108  1  0  0  0
 12 13  2  0  0  0
 12109  1  0  0  0
 13 14  1  0  0  0
 13 31  1  0  0  0
 14 15  2  0  0  0
 14110  1  0  0  0
 15111  1  0  0  0
 16 17  2  0  0  0
 16 21  1  0  0  0
 16 31  1  0  0  0
 17 18  1  0  0  0
 17112  1  0  0  0
 18 19  2  0  0  0
 18113  1  0  0  0
 19 20  1  0  0  0
 19 24  1  0  0  0
 20 21  2  0  0  0
 20114  1  0  0  0
 21 23  1  0  0  0
 22 28  1  0  0  0
 22 32  2  0  0  0
 26 27  1  0  0  0
 28115  1  0  0  0
 28116  1  0  0  0
 29117  1  0  0  0
 29118  1  0  0  0
 33 34  1  0  0  0
 33 66  1  0  0  0
 33 70  2  0  0  0
 34 36  1  0  0  0
 34 59  1  0  0  0
 34119  1  0  0  0
 35 44  2  0  0  0
 35 45  1  0  0  0
 35 68  1  0  0  0
 36 56  1  0  0  0
 36120  1  0  0  0
 37 39  1  0  0  0
 37 47  1  0  0  0
 37 66  1  0  0  0
 37121  1  0  0  0
 38 43  2  0  0  0
 38 46  1  0  0  0
 38 47  1  0  0  0
 39 64  1  0  0  0
 39 67  2  0  0  0
 40 52  1  0  0  0
 40 53  2  0  0  0
 40 58  1  0  0  0
 41122  1  0  0  0
 41123  1  0  0  0
 41124  1  0  0  0
 41 48  1  0  0  0
 42 43  1  0  0  0
 42 66  1  0  0  0
 42125  1  0  0  0
 42126  1  0  0  0
 43 44  1  0  0  0
 44127  1  0  0  0
 45 46  2  0  0  0
 45128  1  0  0  0
 46129  1  0  0  0
 47130  1  0  0  0
 47131  1  0  0  0
 48 56  1  0  0  0
 48 65  1  0  0  0
 48132  1  0  0  0
 49 50  1  0  0  0
 49 53  1  0  0  0
 49 64  1  0  0  0
 49133  1  0  0  0
 50 51  1  0  0  0
 50134  1  0  0  0
 50135  1  0  0  0
 51 52  1  0  0  0
 51136  1  0  0  0
 51137  1  0  0  0
 52138  1  0  0  0
 52139  1  0  0  0
 53 54  1  0  0  0
 54 55  2  0  0  0
 54140  1  0  0  0
 55 57  1  0  0  0
 55141  1  0  0  0
 56 69  2  0  0  0
 57 58  2  0  0  0
 57142  1  0  0  0
 58143  1  0  0  0
 59 60  1  0  0  0
 59 61  1  0  0  0
 59 62  1  0  0  0
 60144  1  0  0  0
 60145  1  0  0  0
 60146  1  0  0  0
 61147  1  0  0  0
 61148  1  0  0  0
 61149  1  0  0  0
 62150  1  0  0  0
 62151  1  0  0  0
 62152  1  0  0  0
 63 65  1  0  0  0
 63153  1  0  0  0
 63154  1  0  0  0
 63155  1  0  0  0
 64156  1  0  0  0
 65157  1  0  0  0
 68 90  1  0  0  0
 71 78  1  0  0  0
 71 79  1  0  0  0
 71 94  2  0  0  0
 72 91  1  0  0  0
 72 95  1  0  0  0
 72 98  2  0  0  0
 73 80  1  0  0  0
 73158  1  0  0  0
 73159  1  0  0  0
 73160  1  0  0  0
 74 88  1  0  0  0
 74161  1  0  0  0
 74162  1  0  0  0
 74163  1  0  0  0
 75164  1  0  0  0
 75165  1  0  0  0
 75166  1  0  0  0
 75 92  1  0  0  0
 76 92  1  0  0  0
 76167  1  0  0  0
 76168  1  0  0  0
 76169  1  0  0  0
 77170  1  0  0  0
 77171  1  0  0  0
 77172  1  0  0  0
 77 93  1  0  0  0
 78 81  1  0  0  0
 78173  1  0  0  0
 78174  1  0  0  0
 79 90  1  0  0  0
 79175  1  0  0  0
 79176  1  0  0  0
 80 89  1  0  0  0
 80177  1  0  0  0
 80178  1  0  0  0
 81 85  1  0  0  0
 81179  1  0  0  0
 81180  1  0  0  0
 82 83  1  0  0  0
 82 84  1  0  0  0
 82181  1  0  0  0
 82182  1  0  0  0
 83 86  1  0  0  0
 83183  1  0  0  0
 83184  1  0  0  0
 84 87  1  0  0  0
 84185  1  0  0  0
 84186  1  0  0  0
 85 93  1  0  0  0
 85187  1  0  0  0
 85188  1  0  0  0
 86 94  1  0  0  0
 86189  1  0  0  0
 86190  1  0  0  0
 87 95  1  0  0  0
 87191  1  0  0  0
 87192  1  0  0  0
 88193  1  0  0  0
 88194  1  0  0  0
 88 97  1  0  0  0
 89 97  1  0  0  0
 89195  1  0  0  0
 89196  1  0  0  0
 90197  1  0  0  0
 90198  1  0  0  0
 91 92  1  0  0  0
 91 96  1  0  0  0
 91199  1  0  0  0
 92200  1  0  0  0
 93 97  1  0  0  0
 93201  1  0  0  0
 95202  1  0  0  0
 96203  1  0  0  0
 97204  1  0  0  0
M  CHG  1  97   1
M  ISO  4   1 100  68 101  90 101  96 100
M  END
> <chiral flag>
0

> <version>
0

> <s_m_source_file>
/data/baiqing/PycharmProjects/Reinvent-master-3.2/result/LINK_invent/BTK/process_docking_weight1_custom_sum_contain_oxygen_bond_distance_aromatic_linkinvent_7_9_3/rearranged_h_0016.sdf

> <i_m_source_file_index>
52

> <r_mmod_Potential_Energy-OPLS-2005>
-188.870697021484

> <r_mmod_Stretch_Energy-OPLS-2005>
43.2317810058594

> <r_mmod_Bend_Energy-OPLS-2005>
143.266006469727

> <r_mmod_Torsional_Energy-OPLS-2005>
294.736328125

> <r_mmod_Improper_Torsional_Energy-OPLS-2005>
2.78526258468628

> <r_mmod_Van_der_Waal_Energy-OPLS-2005>
122.970291137695

> <r_mmod_Electrostatic_Energy-OPLS-2005>
-398.525421142578

> <r_mmod_Solvation_Energy-OPLS-2005>
-409.289245605469

> <b_mmod_Minimization_Converged-OPLS-2005>
0

> <r_mmod_RMS_Derivative-OPLS-2005>
6.47114515304565

$$$$
52
                    3D
 Structure written by MMmdl.
167175  0  0  1  0            999 V2000
  -30.5864  -14.7534   20.5286 C   0  0  0  0  0  0
  -30.4534  -12.4779   19.4783 C   0  0  0  0  0  0
  -29.5324  -12.5343   18.2373 C   0  0  0  0  0  0
  -28.0527  -12.3445   18.6341 C   0  0  0  0  0  0
  -27.6470  -13.2270   19.8488 C   0  0  2  0  0  0
  -28.6868  -13.1393   20.9902 C   0  0  0  0  0  0
  -25.2538  -13.8196   20.5665 C   0  0  0  0  0  0
  -24.1805  -13.0474   20.9186 C   0  0  0  0  0  0
  -24.6382  -11.6936   20.8750 C   0  0  0  0  0  0
  -23.9047  -10.4315   21.0435 C   0  0  0  0  0  0
  -24.3598   -9.4219   21.9210 C   0  0  0  0  0  0
  -23.6262   -8.2261   22.0764 C   0  0  0  0  0  0
  -22.4252   -8.0304   21.3540 C   0  0  0  0  0  0
  -21.9867   -9.0287   20.4649 C   0  0  0  0  0  0
  -22.7212  -10.2159   20.3073 C   0  0  0  0  0  0
  -21.6850   -6.0747   22.5259 C   0  0  0  0  0  0
  -21.4032   -6.5648   23.8201 C   0  0  0  0  0  0
  -21.3661   -5.6775   24.9151 C   0  0  0  0  0  0
  -21.6010   -4.3030   24.7186 C   0  0  0  0  0  0
  -21.8827   -3.8142   23.4315 C   0  0  0  0  0  0
  -21.9196   -4.6977   22.3389 C   0  0  0  0  0  0
  -22.7839  -13.5339   21.1771 C   0  0  0  0  0  0
  -22.1670   -4.2163   21.0963 F   0  0  0  0  0  0
  -21.5604   -3.4502   25.7704 F   0  0  0  0  0  0
  -29.9841  -13.5180   20.4174 N   0  0  0  0  0  0
  -26.2958  -12.9382   20.3199 N   0  0  0  0  0  0
  -25.9281  -11.6549   20.5629 N   0  0  0  0  0  0
  -22.0406  -12.8434   22.0335 N   0  0  0  0  0  0
  -25.4224  -15.1915   20.4101 N   0  0  0  0  0  0
  -31.7803  -14.8892   20.2465 O   0  0  0  0  0  0
  -21.6611   -6.8899   21.4242 O   0  0  0  0  0  0
  -22.3562  -14.5604   20.6510 O   0  0  0  0  0  0
  -24.6314  -31.8549   23.1979 C   0  0  0  0  0  0
  -25.9141  -32.4732   23.8331 C   0  0  1  0  0  0
  -27.2097  -27.2622   20.1220 C   0  0  0  0  0  0
  -25.5924  -33.8536   24.2247 N   0  0  0  0  0  0
  -23.4261  -30.4806   21.5372 C   0  0  2  0  0  0
  -24.8694  -28.9238   20.1044 C   0  0  0  0  0  0
  -22.7492  -29.4609   22.4857 C   0  0  0  0  0  0
  -18.0297  -28.1402   22.8470 C   0  0  0  0  0  0
  -24.1471  -36.7270   23.2644 C   0  0  0  0  0  0
  -25.9706  -30.7656   21.3788 C   0  0  0  0  0  0
  -26.0383  -29.3892   20.7165 C   0  0  0  0  0  0
  -27.2073  -28.5682   20.7160 C   0  0  0  0  0  0
  -26.0186  -26.8559   19.4823 C   0  0  0  0  0  0
  -24.8650  -27.6656   19.4801 C   0  0  0  0  0  0
  -23.6452  -29.8179   20.1501 C   0  0  0  0  0  0
  -25.4097  -36.3052   24.0326 C   0  0  1  0  0  0
  -20.5900  -28.3721   23.1233 C   0  0  2  0  0  0
  -20.6769  -26.9425   22.5403 C   0  0  0  0  0  0
  -19.5752  -26.6387   21.5195 C   0  0  0  0  0  0
  -18.1933  -26.7950   22.1606 C   0  0  0  0  0  0
  -19.1558  -28.8872   23.2854 C   0  0  0  0  0  0
  -18.9480  -30.1460   23.8891 C   0  0  0  0  0  0
  -17.6488  -30.6598   24.0560 C   0  0  0  0  0  0
  -25.9042  -34.9422   23.5088 C   0  0  0  0  0  0
  -16.5378  -29.9107   23.6328 C   0  0  0  0  0  0
  -16.7285  -28.6527   23.0351 C   0  0  0  0  0  0
  -26.4508  -31.6583   25.0737 C   0  0  0  0  0  0
  -25.3740  -31.3773   26.1474 C   0  0  0  0  0  0
  -27.0356  -30.2984   24.6272 C   0  0  0  0  0  0
  -27.6043  -32.4361   25.7517 C   0  0  0  0  0  0
  -27.5567  -37.1782   24.8461 C   0  0  0  0  0  0
  -21.4199  -29.3070   22.3610 N   0  0  0  0  0  0
  -26.4261  -37.3766   23.9417 N   0  0  0  0  0  0
  -24.6941  -31.0520   22.0936 N   0  0  0  0  0  0
  -23.4198  -28.8147   23.2947 O   0  0  0  0  0  0
  -28.3256  -26.4066   20.2150 O   0  0  0  0  0  0
  -26.5620  -34.8924   22.4665 O   0  0  0  0  0  0
  -23.5456  -32.1357   23.7277 O   0  0  0  0  0  0
  -29.9376  -19.9317   22.1425 C   0  0  0  0  0  0
  -29.2823  -19.7513   20.9095 C   0  0  0  0  0  0
  -30.4988  -18.8492   22.8525 C   0  0  0  0  0  0
  -29.9271  -17.2633   21.0477 C   0  0  0  0  0  0
  -30.5439  -17.5438   22.2916 C   0  0  0  0  0  0
  -29.2788  -18.3887   20.3837 C   0  0  0  0  0  0
  -30.1298  -20.4912   26.0609 C   0  0  0  0  0  0
  -29.2289  -18.1380   25.7609 C   0  0  0  0  0  0
  -26.5023  -23.3564   20.0565 C   0  0  0  0  0  0
  -28.3773  -20.9695   20.4005 C   0  0  0  0  0  0
  -28.4339  -25.0284   19.6270 C   0  0  0  0  0  0
  -29.7675  -19.3895   25.0574 C   0  0  0  0  0  0
  -27.9968  -23.6439   20.3664 C   0  0  2  0  0  0
  -29.7382  -15.8439   20.6339 N   0  0  0  0  0  0
  -30.8977  -19.0535   24.1837 N   0  0  0  0  0  0
  -28.9030  -22.3962   20.1333 N   0  3  0  0  0  0
  -31.0807  -16.5408   23.0303 F   0  0  0  0  0  0
  -28.4056  -18.0552   18.9303 Cl  0  0  0  0  0  0
  -31.4928  -12.6355   19.1876 H   0  0  0  0  0  0
  -30.4244  -11.4935   19.9524 H   0  0  0  0  0  0
  -29.8365  -11.7774   17.5131 H   0  0  0  0  0  0
  -29.6453  -13.4987   17.7371 H   0  0  0  0  0  0
  -27.9047  -11.2929   18.8787 H   0  0  0  0  0  0
  -27.4086  -12.5543   17.7763 H   0  0  0  0  0  0
  -27.6485  -14.2521   19.4803 H   0  0  0  0  0  0
  -28.7254  -12.1290   21.4037 H   0  0  0  0  0  0
  -28.4169  -13.7898   21.8226 H   0  0  0  0  0  0
  -25.2797   -9.5662   22.4747 H   0  0  0  0  0  0
  -23.9982   -7.4655   22.7482 H   0  0  0  0  0  0
  -21.0811   -8.8769   19.8979 H   0  0  0  0  0  0
  -22.3694  -10.9664   19.6140 H   0  0  0  0  0  0
  -21.2033   -7.6139   23.9719 H   0  0  0  0  0  0
  -21.1473   -6.0482   25.9050 H   0  0  0  0  0  0
  -22.0599   -2.7608   23.2756 H   0  0  0  0  0  0
  -22.4012  -12.0194   22.4885 H   0  0  0  0  0  0
  -21.0989  -13.1485   22.2370 H   0  0  0  0  0  0
  -24.6284  -15.8174   20.4643 H   0  0  0  0  0  0
  -26.2333  -15.6164   19.9821 H   0  0  0  0  0  0
  -26.7211  -32.5390   23.1069 H   0  0  0  0  0  0
  -25.0033  -33.9676   25.0366 H   0  0  0  0  0  0
  -22.7214  -31.3032   21.3929 H   0  0  0  0  0  0
  -23.3740  -35.9593   23.3282 H   0  0  0  0  0  0
  -24.3569  -36.8927   22.2065 H   0  0  0  0  0  0
  -23.7217  -37.6460   23.6691 H   0  0  0  0  0  0
  -26.1214  -31.5280   20.6146 H   0  0  0  0  0  0
  -26.8422  -30.8030   22.0203 H   0  0  0  0  0  0
  -28.1042  -28.9207   21.2077 H   0  0  0  0  0  0
  -25.9507  -25.8910   19.0044 H   0  0  0  0  0  0
  -23.9658  -27.3020   19.0004 H   0  0  0  0  0  0
  -23.7818  -30.5977   19.3980 H   0  0  0  0  0  0
  -22.7581  -29.2620   19.8382 H   0  0  0  0  0  0
  -25.1270  -36.1886   25.0814 H   0  0  0  0  0  0
  -21.0005  -28.3341   24.1350 H   0  0  0  0  0  0
  -20.5638  -26.2354   23.3635 H   0  0  0  0  0  0
  -21.6651  -26.7436   22.1232 H   0  0  0  0  0  0
  -19.6907  -25.6291   21.1249 H   0  0  0  0  0  0
  -19.6681  -27.3174   20.6706 H   0  0  0  0  0  0
  -17.4199  -26.6706   21.4005 H   0  0  0  0  0  0
  -18.0314  -26.0092   22.9007 H   0  0  0  0  0  0
  -19.7955  -30.7260   24.2279 H   0  0  0  0  0  0
  -17.5054  -31.6283   24.5164 H   0  0  0  0  0  0
  -15.5378  -30.3023   23.7644 H   0  0  0  0  0  0
  -15.8684  -28.0843   22.7076 H   0  0  0  0  0  0
  -24.5868  -30.7161   25.7835 H   0  0  0  0  0  0
  -24.8983  -32.2964   26.4909 H   0  0  0  0  0  0
  -25.8065  -30.8954   27.0254 H   0  0  0  0  0  0
  -26.2946  -29.6732   24.1272 H   0  0  0  0  0  0
  -27.3974  -29.7270   25.4836 H   0  0  0  0  0  0
  -27.8858  -30.4230   23.9560 H   0  0  0  0  0  0
  -27.2605  -33.3664   26.2067 H   0  0  0  0  0  0
  -28.3860  -32.6946   25.0355 H   0  0  0  0  0  0
  -28.0700  -31.8519   26.5467 H   0  0  0  0  0  0
  -28.2572  -38.0094   24.7522 H   0  0  0  0  0  0
  -28.1073  -36.2626   24.6236 H   0  0  0  0  0  0
  -27.2308  -37.1391   25.8874 H   0  0  0  0  0  0
  -20.9366  -29.8829   21.6859 H   0  0  0  0  0  0
  -26.0130  -38.2832   24.1448 H   0  0  0  0  0  0
  -29.9139  -20.9022   22.6177 H   0  0  0  0  0  0
  -29.2668  -20.7316   26.6873 H   0  0  0  0  0  0
  -30.4307  -21.4063   25.5523 H   0  0  0  0  0  0
  -30.9380  -20.1947   26.7286 H   0  0  0  0  0  0
  -28.3500  -18.3746   26.3625 H   0  0  0  0  0  0
  -29.9668  -17.6946   26.4326 H   0  0  0  0  0  0
  -28.9225  -17.3781   25.0402 H   0  0  0  0  0  0
  -25.8605  -24.1229   20.4931 H   0  0  0  0  0  0
  -26.1338  -22.4144   20.4631 H   0  0  0  0  0  0
  -26.3109  -23.3371   18.9814 H   0  0  0  0  0  0
  -27.6518  -21.0598   21.2053 H   0  0  0  0  0  0
  -27.8023  -20.6584   19.5285 H   0  0  0  0  0  0
  -28.0301  -25.0408   18.6157 H   0  0  0  0  0  0
  -29.5053  -24.9365   19.4581 H   0  0  0  0  0  0
  -28.9345  -19.7857   24.4691 H   0  0  0  0  0  0
  -28.0679  -23.8329   21.4366 H   0  0  0  0  0  0
  -28.7735  -15.5968   20.5055 H   0  0  0  0  0  0
  -31.4374  -18.2627   24.5291 H   0  0  0  0  0  0
  -29.2166  -22.3983   19.1751 H   0  0  0  0  0  0
  -29.7297  -22.5280   20.6952 H   0  0  0  0  0  0
  1 25  1  0  0  0
  1 30  2  0  0  0
  1 84  1  0  0  0
  2  3  1  0  0  0
  2 25  1  0  0  0
  2 89  1  0  0  0
  2 90  1  0  0  0
  3  4  1  0  0  0
  3 91  1  0  0  0
  3 92  1  0  0  0
  4  5  1  0  0  0
  4 93  1  0  0  0
  4 94  1  0  0  0
  5  6  1  0  0  0
  5 26  1  0  0  0
  5 95  1  0  0  0
  6 25  1  0  0  0
  6 96  1  0  0  0
  6 97  1  0  0  0
  7  8  2  0  0  0
  7 26  1  0  0  0
  7 29  1  0  0  0
  8  9  1  0  0  0
  8 22  1  0  0  0
  9 10  1  0  0  0
  9 27  2  0  0  0
 10 11  2  0  0  0
 10 15  1  0  0  0
 11 12  1  0  0  0
 11 98  1  0  0  0
 12 13  2  0  0  0
 12 99  1  0  0  0
 13 14  1  0  0  0
 13 31  1  0  0  0
 14 15  2  0  0  0
 14100  1  0  0  0
 15101  1  0  0  0
 16 17  2  0  0  0
 16 21  1  0  0  0
 16 31  1  0  0  0
 17 18  1  0  0  0
 17102  1  0  0  0
 18 19  2  0  0  0
 18103  1  0  0  0
 19 20  1  0  0  0
 19 24  1  0  0  0
 20 21  2  0  0  0
 20104  1  0  0  0
 21 23  1  0  0  0
 22 28  1  0  0  0
 22 32  2  0  0  0
 26 27  1  0  0  0
 28105  1  0  0  0
 28106  1  0  0  0
 29107  1  0  0  0
 29108  1  0  0  0
 33 34  1  0  0  0
 33 66  1  0  0  0
 33 70  2  0  0  0
 34 36  1  0  0  0
 34 59  1  0  0  0
 34109  1  0  0  0
 35 44  2  0  0  0
 35 45  1  0  0  0
 35 68  1  0  0  0
 36 56  1  0  0  0
 36110  1  0  0  0
 37 39  1  0  0  0
 37 47  1  0  0  0
 37 66  1  0  0  0
 37111  1  0  0  0
 38 43  2  0  0  0
 38 46  1  0  0  0
 38 47  1  0  0  0
 39 64  1  0  0  0
 39 67  2  0  0  0
 40 52  1  0  0  0
 40 53  2  0  0  0
 40 58  1  0  0  0
 41112  1  0  0  0
 41113  1  0  0  0
 41114  1  0  0  0
 41 48  1  0  0  0
 42 43  1  0  0  0
 42 66  1  0  0  0
 42115  1  0  0  0
 42116  1  0  0  0
 43 44  1  0  0  0
 44117  1  0  0  0
 45 46  2  0  0  0
 45118  1  0  0  0
 46119  1  0  0  0
 47120  1  0  0  0
 47121  1  0  0  0
 48 56  1  0  0  0
 48 65  1  0  0  0
 48122  1  0  0  0
 49 50  1  0  0  0
 49 53  1  0  0  0
 49 64  1  0  0  0
 49123  1  0  0  0
 50 51  1  0  0  0
 50124  1  0  0  0
 50125  1  0  0  0
 51 52  1  0  0  0
 51126  1  0  0  0
 51127  1  0  0  0
 52128  1  0  0  0
 52129  1  0  0  0
 53 54  1  0  0  0
 54 55  2  0  0  0
 54130  1  0  0  0
 55 57  1  0  0  0
 55131  1  0  0  0
 56 69  2  0  0  0
 57 58  2  0  0  0
 57132  1  0  0  0
 58133  1  0  0  0
 59 60  1  0  0  0
 59 61  1  0  0  0
 59 62  1  0  0  0
 60134  1  0  0  0
 60135  1  0  0  0
 60136  1  0  0  0
 61137  1  0  0  0
 61138  1  0  0  0
 61139  1  0  0  0
 62140  1  0  0  0
 62141  1  0  0  0
 62142  1  0  0  0
 63 65  1  0  0  0
 63143  1  0  0  0
 63144  1  0  0  0
 63145  1  0  0  0
 64146  1  0  0  0
 65147  1  0  0  0
 68 81  1  0  0  0
 71 72  2  0  0  0
 71 73  1  0  0  0
 71148  1  0  0  0
 72 76  1  0  0  0
 72 80  1  0  0  0
 73 75  2  0  0  0
 73 85  1  0  0  0
 74 75  1  0  0  0
 74 76  2  0  0  0
 74 84  1  0  0  0
 75 87  1  0  0  0
 76 88  1  0  0  0
 77149  1  0  0  0
 77150  1  0  0  0
 77151  1  0  0  0
 77 82  1  0  0  0
 78 82  1  0  0  0
 78152  1  0  0  0
 78153  1  0  0  0
 78154  1  0  0  0
 79155  1  0  0  0
 79156  1  0  0  0
 79157  1  0  0  0
 79 83  1  0  0  0
 80 86  1  0  0  0
 80158  1  0  0  0
 80159  1  0  0  0
 81 83  1  0  0  0
 81160  1  0  0  0
 81161  1  0  0  0
 82 85  1  0  0  0
 82162  1  0  0  0
 83 86  1  0  0  0
 83163  1  0  0  0
 84164  1  0  0  0
 85165  1  0  0  0
 86166  1  0  0  0
 86167  1  0  0  0
M  CHG  1  86   1
M  ISO  4   1 100  68 101  81 101  84 100
M  END
> <chiral flag>
0

> <version>
0

> <s_m_source_file>
/data/baiqing/PycharmProjects/Reinvent-master-3.2/result/LINK_invent/BTK/process_docking_weight1_custom_sum_contain_oxygen_bond_distance_aromatic_linkinvent_7_9_3/rearranged_h_0016.sdf

> <i_m_source_file_index>
53

> <r_mmod_Potential_Energy-OPLS-2005>
14.6294298171997

> <r_mmod_Stretch_Energy-OPLS-2005>
129.500152587891

> <r_mmod_Bend_Energy-OPLS-2005>
193.199432373047

> <r_mmod_Torsional_Energy-OPLS-2005>
257.282897949219

> <r_mmod_Improper_Torsional_Energy-OPLS-2005>
18.9913883209229

> <r_mmod_Van_der_Waal_Energy-OPLS-2005>
131.133697509766

> <r_mmod_Electrostatic_Energy-OPLS-2005>
-326.105987548828

> <r_mmod_Solvation_Energy-OPLS-2005>
-477.7509765625

> <b_mmod_Minimization_Converged-OPLS-2005>
0

> <r_mmod_RMS_Derivative-OPLS-2005>
5.27101278305054

$$$$
53
                    3D
 Structure written by MMmdl.
160168  0  0  1  0            999 V2000
  -30.7006  -14.5004   20.5721 C   0  0  0  0  0  0
  -30.4248  -12.3290   19.4218 C   0  0  0  0  0  0
  -29.4936  -12.5328   18.2081 C   0  0  0  0  0  0
  -28.0158  -12.3818   18.6163 C   0  0  0  0  0  0
  -27.6629  -13.2131   19.8790 C   0  0  2  0  0  0
  -28.7085  -13.0000   20.9992 C   0  0  0  0  0  0
  -25.2607  -13.8179   20.5686 C   0  0  0  0  0  0
  -24.1858  -13.0447   20.9183 C   0  0  0  0  0  0
  -24.6434  -11.6915   20.8741 C   0  0  0  0  0  0
  -23.9105  -10.4296   21.0411 C   0  0  0  0  0  0
  -24.3638   -9.4209   21.9199 C   0  0  0  0  0  0
  -23.6303   -8.2258   22.0765 C   0  0  0  0  0  0
  -22.4283   -8.0299   21.3552 C   0  0  0  0  0  0
  -21.9937   -9.0272   20.4644 C   0  0  0  0  0  0
  -22.7282  -10.2144   20.3059 C   0  0  0  0  0  0
  -21.6855   -6.0750   22.5287 C   0  0  0  0  0  0
  -21.4010   -6.5657   23.8216 C   0  0  0  0  0  0
  -21.3658   -5.6807   24.9177 C   0  0  0  0  0  0
  -21.6048   -4.3067   24.7227 C   0  0  0  0  0  0
  -21.8818   -3.8161   23.4344 C   0  0  0  0  0  0
  -21.9199   -4.6978   22.3399 C   0  0  0  0  0  0
  -22.7876  -13.5242   21.1842 C   0  0  0  0  0  0
  -22.1661   -4.2167   21.0976 F   0  0  0  0  0  0
  -21.5634   -3.4553   25.7747 F   0  0  0  0  0  0
  -30.0403  -13.3123   20.4479 N   0  0  0  0  0  0
  -26.3050  -12.9363   20.3403 N   0  0  0  0  0  0
  -25.9366  -11.6514   20.5791 N   0  0  0  0  0  0
  -22.0502  -12.8196   22.0342 N   0  0  0  0  0  0
  -25.4282  -15.1900   20.4029 N   0  0  0  0  0  0
  -31.8181  -14.6834   20.0806 O   0  0  0  0  0  0
  -21.6645   -6.8896   21.4253 O   0  0  0  0  0  0
  -22.3566  -14.5569   20.6729 O   0  0  0  0  0  0
  -24.6151  -31.8676   23.2109 C   0  0  0  0  0  0
  -25.9062  -32.4812   23.8404 C   0  0  1  0  0  0
  -27.2504  -27.4521   20.1146 C   0  0  0  0  0  0
  -25.5932  -33.8611   24.2347 N   0  0  0  0  0  0
  -23.4005  -30.4893   21.5503 C   0  0  2  0  0  0
  -24.8528  -28.9500   20.1211 C   0  0  0  0  0  0
  -22.7384  -29.4666   22.5013 C   0  0  0  0  0  0
  -18.0259  -28.1360   22.8450 C   0  0  0  0  0  0
  -24.1476  -36.7291   23.2624 C   0  0  0  0  0  0
  -25.9233  -30.8405   21.3578 C   0  0  0  0  0  0
  -26.0072  -29.4688   20.7237 C   0  0  0  0  0  0
  -27.2097  -28.7263   20.7220 C   0  0  0  0  0  0
  -26.0848  -26.9416   19.5079 C   0  0  0  0  0  0
  -24.8860  -27.6833   19.5104 C   0  0  0  0  0  0
  -23.6097  -29.8131   20.1667 C   0  0  0  0  0  0
  -25.4102  -36.3118   24.0343 C   0  0  1  0  0  0
  -20.5841  -28.3626   23.1303 C   0  0  2  0  0  0
  -20.6719  -26.9347   22.5424 C   0  0  0  0  0  0
  -19.5732  -26.6359   21.5175 C   0  0  0  0  0  0
  -18.1897  -26.7923   22.1554 C   0  0  0  0  0  0
  -19.1507  -28.8815   23.2884 C   0  0  0  0  0  0
  -18.9434  -30.1433   23.8868 C   0  0  0  0  0  0
  -17.6433  -30.6537   24.0586 C   0  0  0  0  0  0
  -25.9038  -34.9475   23.5145 C   0  0  0  0  0  0
  -16.5323  -29.9036   23.6344 C   0  0  0  0  0  0
  -16.7260  -28.6497   23.0286 C   0  0  0  0  0  0
  -26.4485  -31.6549   25.0702 C   0  0  0  0  0  0
  -25.3760  -31.3569   26.1433 C   0  0  0  0  0  0
  -27.0294  -30.3011   24.5997 C   0  0  0  0  0  0
  -27.6080  -32.4222   25.7482 C   0  0  0  0  0  0
  -27.5596  -37.1815   24.8461 C   0  0  0  0  0  0
  -21.4111  -29.3033   22.3753 N   0  0  0  0  0  0
  -26.4289  -37.3813   23.9427 N   0  0  0  0  0  0
  -24.6645  -31.0806   22.0989 N   0  0  0  0  0  0
  -23.4158  -28.8211   23.3051 O   0  0  0  0  0  0
  -28.4246  -26.7455   20.0019 O   0  0  0  0  0  0
  -26.5592  -34.8940   22.4703 O   0  0  0  0  0  0
  -23.5363  -32.1406   23.7531 O   0  0  0  0  0  0
  -31.1632  -18.9424   20.6326 C   0  0  0  0  0  0
  -30.4346  -19.6216   21.6491 C   0  0  0  0  0  0
  -29.4552  -17.6047   22.2350 C   0  0  0  0  0  0
  -30.2252  -16.8897   21.2728 C   0  0  0  0  0  0
  -32.0712  -19.6737   19.6574 C   0  0  0  0  0  0
  -28.4464  -16.9184   23.1348 C   0  0  0  0  0  0
  -30.5874  -21.1166   21.9715 C   0  0  0  0  0  0
  -29.5524  -22.0377   21.2768 C   0  0  0  0  0  0
  -29.6060  -23.5309   21.7125 C   0  0  0  0  0  0
  -28.7948  -24.4697   20.7818 C   0  0  0  0  0  0
  -28.8573  -25.9795   21.1297 C   0  0  0  0  0  0
  -29.5675  -18.9413   22.4316 N   0  0  0  0  0  0
  -31.0693  -17.5939   20.4640 N   0  0  0  0  0  0
  -30.0097  -15.4745   21.2009 N   0  0  0  0  0  0
  -31.4698  -12.4249   19.1219 H   0  0  0  0  0  0
  -30.3238  -11.3163   19.8151 H   0  0  0  0  0  0
  -29.7407  -11.8271   17.4150 H   0  0  0  0  0  0
  -29.6503  -13.5299   17.7922 H   0  0  0  0  0  0
  -27.8257  -11.3231   18.7939 H   0  0  0  0  0  0
  -27.3679  -12.6733   17.7890 H   0  0  0  0  0  0
  -27.7048  -14.2635   19.5865 H   0  0  0  0  0  0
  -28.6885  -11.9640   21.3429 H   0  0  0  0  0  0
  -28.4610  -13.5971   21.8783 H   0  0  0  0  0  0
  -25.2774   -9.5673   22.4779 H   0  0  0  0  0  0
  -24.0005   -7.4645   22.7490 H   0  0  0  0  0  0
  -21.0888   -8.8811   19.8916 H   0  0  0  0  0  0
  -22.3784  -10.9693   19.6162 H   0  0  0  0  0  0
  -21.1990   -7.6159   23.9726 H   0  0  0  0  0  0
  -21.1488   -6.0534   25.9079 H   0  0  0  0  0  0
  -22.0597   -2.7621   23.2861 H   0  0  0  0  0  0
  -22.4106  -11.9810   22.4648 H   0  0  0  0  0  0
  -21.1095  -13.1178   22.2525 H   0  0  0  0  0  0
  -24.6488  -15.8339   20.4826 H   0  0  0  0  0  0
  -26.2617  -15.6277   20.0316 H   0  0  0  0  0  0
  -26.7156  -32.5559   23.1197 H   0  0  0  0  0  0
  -25.0224  -33.9780   25.0591 H   0  0  0  0  0  0
  -22.6928  -31.3084   21.4089 H   0  0  0  0  0  0
  -23.3810  -35.9549   23.3190 H   0  0  0  0  0  0
  -24.3585  -36.9008   22.2062 H   0  0  0  0  0  0
  -23.7115  -37.6416   23.6694 H   0  0  0  0  0  0
  -26.0197  -31.5951   20.5756 H   0  0  0  0  0  0
  -26.8156  -30.9104   21.9665 H   0  0  0  0  0  0
  -28.1077  -29.1378   21.1619 H   0  0  0  0  0  0
  -26.1136  -25.9777   19.0214 H   0  0  0  0  0  0
  -24.0045  -27.2772   19.0320 H   0  0  0  0  0  0
  -23.7091  -30.5827   19.4008 H   0  0  0  0  0  0
  -22.7366  -29.2252   19.8781 H   0  0  0  0  0  0
  -25.1279  -36.2003   25.0841 H   0  0  0  0  0  0
  -20.9927  -28.3158   24.1421 H   0  0  0  0  0  0
  -20.5488  -26.2235   23.3604 H   0  0  0  0  0  0
  -21.6608  -26.7286   22.1296 H   0  0  0  0  0  0
  -19.6868  -25.6265   21.1211 H   0  0  0  0  0  0
  -19.6728  -27.3180   20.6725 H   0  0  0  0  0  0
  -17.4185  -26.6698   21.3933 H   0  0  0  0  0  0
  -18.0273  -26.0027   22.8907 H   0  0  0  0  0  0
  -19.7908  -30.7299   24.2157 H   0  0  0  0  0  0
  -17.4963  -31.6203   24.5216 H   0  0  0  0  0  0
  -15.5319  -30.2912   23.7696 H   0  0  0  0  0  0
  -15.8663  -28.0869   22.6884 H   0  0  0  0  0  0
  -24.6137  -30.6664   25.7790 H   0  0  0  0  0  0
  -24.8712  -32.2650   26.4742 H   0  0  0  0  0  0
  -25.8162  -30.8925   27.0267 H   0  0  0  0  0  0
  -26.2788  -29.6793   24.1089 H   0  0  0  0  0  0
  -27.4150  -29.7208   25.4391 H   0  0  0  0  0  0
  -27.8599  -30.4367   23.9057 H   0  0  0  0  0  0
  -27.2763  -33.3588   26.1981 H   0  0  0  0  0  0
  -28.3952  -32.6616   25.0316 H   0  0  0  0  0  0
  -28.0653  -31.8350   26.5460 H   0  0  0  0  0  0
  -28.2580  -38.0147   24.7576 H   0  0  0  0  0  0
  -28.1134  -36.2690   24.6200 H   0  0  0  0  0  0
  -27.2336  -37.1381   25.8868 H   0  0  0  0  0  0
  -20.9244  -29.8852   21.7080 H   0  0  0  0  0  0
  -26.0187  -38.2896   24.1457 H   0  0  0  0  0  0
  -33.1000  -19.6863   20.0156 H   0  0  0  0  0  0
  -31.7552  -20.7040   19.4979 H   0  0  0  0  0  0
  -32.0565  -19.1878   18.6808 H   0  0  0  0  0  0
  -28.9608  -16.2631   23.8365 H   0  0  0  0  0  0
  -27.7383  -16.3312   22.5497 H   0  0  0  0  0  0
  -27.8726  -17.6445   23.7116 H   0  0  0  0  0  0
  -31.6002  -21.4411   21.7303 H   0  0  0  0  0  0
  -30.5006  -21.2388   23.0526 H   0  0  0  0  0  0
  -28.5505  -21.6530   21.4730 H   0  0  0  0  0  0
  -29.7003  -21.9633   20.1997 H   0  0  0  0  0  0
  -30.6424  -23.8724   21.7378 H   0  0  0  0  0  0
  -29.2410  -23.6237   22.7370 H   0  0  0  0  0  0
  -27.7513  -24.1543   20.7549 H   0  0  0  0  0  0
  -29.1723  -24.3412   19.7671 H   0  0  0  0  0  0
  -29.8918  -26.2665   21.3287 H   0  0  0  0  0  0
  -28.2864  -26.2054   22.0323 H   0  0  0  0  0  0
  -29.1606  -15.1590   21.6369 H   0  0  0  0  0  0
  1 25  1  0  0  0
  1 30  2  0  0  0
  1 84  1  0  0  0
  2  3  1  0  0  0
  2 25  1  0  0  0
  2 85  1  0  0  0
  2 86  1  0  0  0
  3  4  1  0  0  0
  3 87  1  0  0  0
  3 88  1  0  0  0
  4  5  1  0  0  0
  4 89  1  0  0  0
  4 90  1  0  0  0
  5  6  1  0  0  0
  5 26  1  0  0  0
  5 91  1  0  0  0
  6 25  1  0  0  0
  6 92  1  0  0  0
  6 93  1  0  0  0
  7  8  2  0  0  0
  7 26  1  0  0  0
  7 29  1  0  0  0
  8  9  1  0  0  0
  8 22  1  0  0  0
  9 10  1  0  0  0
  9 27  2  0  0  0
 10 11  2  0  0  0
 10 15  1  0  0  0
 11 12  1  0  0  0
 11 94  1  0  0  0
 12 13  2  0  0  0
 12 95  1  0  0  0
 13 14  1  0  0  0
 13 31  1  0  0  0
 14 15  2  0  0  0
 14 96  1  0  0  0
 15 97  1  0  0  0
 16 17  2  0  0  0
 16 21  1  0  0  0
 16 31  1  0  0  0
 17 18  1  0  0  0
 17 98  1  0  0  0
 18 19  2  0  0  0
 18 99  1  0  0  0
 19 20  1  0  0  0
 19 24  1  0  0  0
 20 21  2  0  0  0
 20100  1  0  0  0
 21 23  1  0  0  0
 22 28  1  0  0  0
 22 32  2  0  0  0
 26 27  1  0  0  0
 28101  1  0  0  0
 28102  1  0  0  0
 29103  1  0  0  0
 29104  1  0  0  0
 33 34  1  0  0  0
 33 66  1  0  0  0
 33 70  2  0  0  0
 34 36  1  0  0  0
 34 59  1  0  0  0
 34105  1  0  0  0
 35 44  2  0  0  0
 35 45  1  0  0  0
 35 68  1  0  0  0
 36 56  1  0  0  0
 36106  1  0  0  0
 37 39  1  0  0  0
 37 47  1  0  0  0
 37 66  1  0  0  0
 37107  1  0  0  0
 38 43  2  0  0  0
 38 46  1  0  0  0
 38 47  1  0  0  0
 39 64  1  0  0  0
 39 67  2  0  0  0
 40 52  1  0  0  0
 40 53  2  0  0  0
 40 58  1  0  0  0
 41108  1  0  0  0
 41109  1  0  0  0
 41110  1  0  0  0
 41 48  1  0  0  0
 42 43  1  0  0  0
 42 66  1  0  0  0
 42111  1  0  0  0
 42112  1  0  0  0
 43 44  1  0  0  0
 44113  1  0  0  0
 45 46  2  0  0  0
 45114  1  0  0  0
 46115  1  0  0  0
 47116  1  0  0  0
 47117  1  0  0  0
 48 56  1  0  0  0
 48 65  1  0  0  0
 48118  1  0  0  0
 49 50  1  0  0  0
 49 53  1  0  0  0
 49 64  1  0  0  0
 49119  1  0  0  0
 50 51  1  0  0  0
 50120  1  0  0  0
 50121  1  0  0  0
 51 52  1  0  0  0
 51122  1  0  0  0
 51123  1  0  0  0
 52124  1  0  0  0
 52125  1  0  0  0
 53 54  1  0  0  0
 54 55  2  0  0  0
 54126  1  0  0  0
 55 57  1  0  0  0
 55127  1  0  0  0
 56 69  2  0  0  0
 57 58  2  0  0  0
 57128  1  0  0  0
 58129  1  0  0  0
 59 60  1  0  0  0
 59 61  1  0  0  0
 59 62  1  0  0  0
 60130  1  0  0  0
 60131  1  0  0  0
 60132  1  0  0  0
 61133  1  0  0  0
 61134  1  0  0  0
 61135  1  0  0  0
 62136  1  0  0  0
 62137  1  0  0  0
 62138  1  0  0  0
 63 65  1  0  0  0
 63139  1  0  0  0
 63140  1  0  0  0
 63141  1  0  0  0
 64142  1  0  0  0
 65143  1  0  0  0
 68 81  1  0  0  0
 71 72  2  0  0  0
 71 75  1  0  0  0
 71 83  1  0  0  0
 72 77  1  0  0  0
 72 82  1  0  0  0
 73 74  1  0  0  0
 73 76  1  0  0  0
 73 82  2  0  0  0
 74 83  2  0  0  0
 74 84  1  0  0  0
 75144  1  0  0  0
 75145  1  0  0  0
 75146  1  0  0  0
 76147  1  0  0  0
 76148  1  0  0  0
 76149  1  0  0  0
 77 78  1  0  0  0
 77150  1  0  0  0
 77151  1  0  0  0
 78 79  1  0  0  0
 78152  1  0  0  0
 78153  1  0  0  0
 79 80  1  0  0  0
 79154  1  0  0  0
 79155  1  0  0  0
 80 81  1  0  0  0
 80156  1  0  0  0
 80157  1  0  0  0
 81158  1  0  0  0
 81159  1  0  0  0
 84160  1  0  0  0
M  ISO  4   1 100  68 101  81 101  84 100
M  END
> <chiral flag>
0

> <version>
0

> <s_m_source_file>
/data/baiqing/PycharmProjects/Reinvent-master-3.2/result/LINK_invent/BTK/process_docking_weight1_custom_sum_contain_oxygen_bond_distance_aromatic_linkinvent_7_9_3/rearranged_h_0016.sdf

> <i_m_source_file_index>
54

> <r_mmod_Potential_Energy-OPLS-2005>
-66.6225051879883

> <r_mmod_Stretch_Energy-OPLS-2005>
41.5149536132812

> <r_mmod_Bend_Energy-OPLS-2005>
105.514312744141

> <r_mmod_Torsional_Energy-OPLS-2005>
220.197967529297

> <r_mmod_Improper_Torsional_Energy-OPLS-2005>
3.0443639755249

> <r_mmod_Van_der_Waal_Energy-OPLS-2005>
146.684326171875

> <r_mmod_Electrostatic_Energy-OPLS-2005>
-369.001373291016

> <r_mmod_Solvation_Energy-OPLS-2005>
-225.944946289062

> <b_mmod_Minimization_Converged-OPLS-2005>
0

> <r_mmod_RMS_Derivative-OPLS-2005>
3.30644512176514

$$$$
54
                    3D
 Structure written by MMmdl.
159167  0  0  1  0            999 V2000
  -30.7824  -14.3600   20.6769 C   0  0  0  0  0  0
  -30.4082  -12.2869   19.3955 C   0  0  0  0  0  0
  -29.4782  -12.5217   18.1918 C   0  0  0  0  0  0
  -28.0041  -12.3805   18.6112 C   0  0  0  0  0  0
  -27.6637  -13.2064   19.8796 C   0  0  2  0  0  0
  -28.7025  -12.9601   20.9963 C   0  0  0  0  0  0
  -25.2590  -13.8171   20.5685 C   0  0  0  0  0  0
  -24.1838  -13.0447   20.9164 C   0  0  0  0  0  0
  -24.6390  -11.6912   20.8729 C   0  0  0  0  0  0
  -23.9057  -10.4299   21.0401 C   0  0  0  0  0  0
  -24.3613   -9.4217   21.9183 C   0  0  0  0  0  0
  -23.6291   -8.2248   22.0754 C   0  0  0  0  0  0
  -22.4273   -8.0280   21.3540 C   0  0  0  0  0  0
  -21.9908   -9.0253   20.4642 C   0  0  0  0  0  0
  -22.7232  -10.2137   20.3050 C   0  0  0  0  0  0
  -21.6851   -6.0734   22.5277 C   0  0  0  0  0  0
  -21.4013   -6.5639   23.8210 C   0  0  0  0  0  0
  -21.3659   -5.6795   24.9174 C   0  0  0  0  0  0
  -21.6044   -4.3056   24.7224 C   0  0  0  0  0  0
  -21.8823   -3.8149   23.4343 C   0  0  0  0  0  0
  -21.9192   -4.6964   22.3399 C   0  0  0  0  0  0
  -22.7863  -13.5238   21.1836 C   0  0  0  0  0  0
  -22.1662   -4.2150   21.0977 F   0  0  0  0  0  0
  -21.5632   -3.4541   25.7736 F   0  0  0  0  0  0
  -30.0444  -13.2423   20.4531 N   0  0  0  0  0  0
  -26.3032  -12.9342   20.3392 N   0  0  0  0  0  0
  -25.9314  -11.6497   20.5764 N   0  0  0  0  0  0
  -22.0510  -12.8225   22.0395 N   0  0  0  0  0  0
  -25.4330  -15.1888   20.4124 N   0  0  0  0  0  0
  -31.8116  -14.6212   20.0462 O   0  0  0  0  0  0
  -21.6636   -6.8880   21.4239 O   0  0  0  0  0  0
  -22.3547  -14.5552   20.6697 O   0  0  0  0  0  0
  -24.6121  -31.8701   23.2142 C   0  0  0  0  0  0
  -25.9027  -32.4833   23.8422 C   0  0  1  0  0  0
  -27.2316  -27.4491   20.0816 C   0  0  0  0  0  0
  -25.5897  -33.8634   24.2348 N   0  0  0  0  0  0
  -23.3978  -30.4949   21.5560 C   0  0  2  0  0  0
  -24.8408  -28.9655   20.1160 C   0  0  0  0  0  0
  -22.7388  -29.4665   22.5021 C   0  0  0  0  0  0
  -18.0262  -28.1381   22.8495 C   0  0  0  0  0  0
  -24.1481  -36.7313   23.2642 C   0  0  0  0  0  0
  -25.9256  -30.8371   21.3669 C   0  0  0  0  0  0
  -25.9996  -29.4731   20.7137 C   0  0  0  0  0  0
  -27.1936  -28.7198   20.6981 C   0  0  0  0  0  0
  -26.0531  -26.9625   19.4643 C   0  0  0  0  0  0
  -24.8616  -27.7084   19.4909 C   0  0  0  0  0  0
  -23.6033  -29.8307   20.1694 C   0  0  0  0  0  0
  -25.4110  -36.3120   24.0337 C   0  0  1  0  0  0
  -20.5850  -28.3662   23.1330 C   0  0  2  0  0  0
  -20.6756  -26.9406   22.5417 C   0  0  0  0  0  0
  -19.5734  -26.6392   21.5210 C   0  0  0  0  0  0
  -18.1910  -26.7927   22.1619 C   0  0  0  0  0  0
  -19.1509  -28.8837   23.2905 C   0  0  0  0  0  0
  -18.9441  -30.1442   23.8922 C   0  0  0  0  0  0
  -17.6449  -30.6593   24.0572 C   0  0  0  0  0  0
  -25.9036  -34.9482   23.5138 C   0  0  0  0  0  0
  -16.5337  -29.9101   23.6331 C   0  0  0  0  0  0
  -16.7255  -28.6510   23.0361 C   0  0  0  0  0  0
  -26.4469  -31.6610   25.0739 C   0  0  0  0  0  0
  -25.3733  -31.3677   26.1471 C   0  0  0  0  0  0
  -27.0328  -30.3068   24.6109 C   0  0  0  0  0  0
  -27.6043  -32.4333   25.7500 C   0  0  0  0  0  0
  -27.5580  -37.1815   24.8471 C   0  0  0  0  0  0
  -21.4122  -29.3023   22.3740 N   0  0  0  0  0  0
  -26.4297  -37.3803   23.9410 N   0  0  0  0  0  0
  -24.6636  -31.0813   22.1044 N   0  0  0  0  0  0
  -23.4162  -28.8205   23.3058 O   0  0  0  0  0  0
  -28.4271  -26.7576   20.0989 O   0  0  0  0  0  0
  -26.5598  -34.8922   22.4699 O   0  0  0  0  0  0
  -23.5322  -32.1452   23.7547 O   0  0  0  0  0  0
  -32.3151  -16.3741   22.4459 C   0  0  0  0  0  0
  -32.9236  -17.5621   22.8808 C   0  0  0  0  0  0
  -30.7950  -18.7531   22.6494 C   0  0  0  0  0  0
  -30.9497  -16.3663   22.0853 C   0  0  0  0  0  0
  -32.1756  -18.7488   22.9750 C   0  0  0  0  0  0
  -30.1839  -17.5498   22.2072 C   0  0  0  0  0  0
  -29.9807  -20.0365   22.8124 C   0  0  0  0  0  0
  -29.3854  -23.1122   20.6072 C   0  0  0  0  0  0
  -29.2949  -24.6311   20.8614 C   0  0  0  0  0  0
  -29.8182  -22.3191   21.8554 C   0  0  0  0  0  0
  -28.4470  -25.3572   19.8068 C   0  0  0  0  0  0
  -30.3258  -15.1710   21.6415 N   0  0  0  0  0  0
  -29.9610  -20.8696   21.5889 N   0  3  0  0  0  0
  -32.9881  -20.1852   23.4930 Cl  0  0  0  0  0  0
  -28.5028  -17.5123   21.7856 Cl  0  0  0  0  0  0
  -31.4515  -12.3760   19.0879 H   0  0  0  0  0  0
  -30.2982  -11.2676   19.7688 H   0  0  0  0  0  0
  -29.7074  -11.8138   17.3948 H   0  0  0  0  0  0
  -29.6502  -13.5163   17.7780 H   0  0  0  0  0  0
  -27.8099  -11.3234   18.7939 H   0  0  0  0  0  0
  -27.3500  -12.6713   17.7881 H   0  0  0  0  0  0
  -27.7183  -14.2588   19.6008 H   0  0  0  0  0  0
  -28.6622  -11.9206   21.3263 H   0  0  0  0  0  0
  -28.4532  -13.5506   21.8779 H   0  0  0  0  0  0
  -25.2756   -9.5693   22.4759 H   0  0  0  0  0  0
  -23.9997   -7.4643   22.7478 H   0  0  0  0  0  0
  -21.0841   -8.8775   19.8946 H   0  0  0  0  0  0
  -22.3693  -10.9678   19.6160 H   0  0  0  0  0  0
  -21.2007   -7.6148   23.9713 H   0  0  0  0  0  0
  -21.1477   -6.0524   25.9076 H   0  0  0  0  0  0
  -22.0605   -2.7608   23.2845 H   0  0  0  0  0  0
  -22.4130  -11.9876   22.4762 H   0  0  0  0  0  0
  -21.1131  -13.1247   22.2618 H   0  0  0  0  0  0
  -24.6726  -15.8491   20.5321 H   0  0  0  0  0  0
  -26.3027  -15.6314   20.1422 H   0  0  0  0  0  0
  -26.7093  -32.5555   23.1187 H   0  0  0  0  0  0
  -25.0047  -33.9808   25.0490 H   0  0  0  0  0  0
  -22.6849  -31.3109   21.4211 H   0  0  0  0  0  0
  -23.3747  -35.9639   23.3311 H   0  0  0  0  0  0
  -24.3565  -36.8926   22.2054 H   0  0  0  0  0  0
  -23.7220  -37.6512   23.6656 H   0  0  0  0  0  0
  -26.0351  -31.6041   20.5988 H   0  0  0  0  0  0
  -26.8154  -30.8897   21.9831 H   0  0  0  0  0  0
  -28.0880  -29.1101   21.1626 H   0  0  0  0  0  0
  -26.0240  -26.0232   18.9338 H   0  0  0  0  0  0
  -23.9732  -27.3183   19.0136 H   0  0  0  0  0  0
  -23.7100  -30.6071   19.4115 H   0  0  0  0  0  0
  -22.7273  -29.2499   19.8751 H   0  0  0  0  0  0
  -25.1287  -36.1994   25.0832 H   0  0  0  0  0  0
  -20.9932  -28.3228   24.1453 H   0  0  0  0  0  0
  -20.5663  -26.2274   23.3593 H   0  0  0  0  0  0
  -21.6627  -26.7462   22.1210 H   0  0  0  0  0  0
  -19.6900  -25.6305   21.1231 H   0  0  0  0  0  0
  -19.6680  -27.3203   20.6736 H   0  0  0  0  0  0
  -17.4185  -26.6677   21.4018 H   0  0  0  0  0  0
  -18.0308  -26.0060   22.9008 H   0  0  0  0  0  0
  -19.7919  -30.7240   24.2314 H   0  0  0  0  0  0
  -17.5012  -31.6275   24.5170 H   0  0  0  0  0  0
  -15.5341  -30.3022   23.7639 H   0  0  0  0  0  0
  -15.8645  -28.0837   22.7090 H   0  0  0  0  0  0
  -24.5944  -30.6989   25.7786 H   0  0  0  0  0  0
  -24.8871  -32.2806   26.4918 H   0  0  0  0  0  0
  -25.8086  -30.8853   27.0231 H   0  0  0  0  0  0
  -26.2881  -29.6800   24.1187 H   0  0  0  0  0  0
  -27.4140  -29.7331   25.4568 H   0  0  0  0  0  0
  -27.8686  -30.4414   23.9235 H   0  0  0  0  0  0
  -27.2673  -33.3629   26.2099 H   0  0  0  0  0  0
  -28.3839  -32.6901   25.0314 H   0  0  0  0  0  0
  -28.0726  -31.8444   26.5400 H   0  0  0  0  0  0
  -28.2611  -38.0105   24.7541 H   0  0  0  0  0  0
  -28.1070  -36.2641   24.6292 H   0  0  0  0  0  0
  -27.2291  -37.1457   25.8872 H   0  0  0  0  0  0
  -20.9278  -29.8743   21.6963 H   0  0  0  0  0  0
  -26.0190  -38.2878   24.1427 H   0  0  0  0  0  0
  -32.9071  -15.4716   22.3871 H   0  0  0  0  0  0
  -33.9716  -17.5621   23.1446 H   0  0  0  0  0  0
  -30.3835  -20.6095   23.6480 H   0  0  0  0  0  0
  -28.9574  -19.8104   23.1122 H   0  0  0  0  0  0
  -30.0717  -22.9264   19.7797 H   0  0  0  0  0  0
  -28.4108  -22.7421   20.2851 H   0  0  0  0  0  0
  -30.2960  -25.0615   20.8983 H   0  0  0  0  0  0
  -28.8469  -24.8126   21.8392 H   0  0  0  0  0  0
  -29.0758  -22.4694   22.6416 H   0  0  0  0  0  0
  -30.7638  -22.7032   22.2402 H   0  0  0  0  0  0
  -27.4677  -24.8834   19.8324 H   0  0  0  0  0  0
  -28.8572  -25.2098   18.8075 H   0  0  0  0  0  0
  -29.4019  -14.9769   21.9968 H   0  0  0  0  0  0
  -29.1952  -20.5596   21.0126 H   0  0  0  0  0  0
  -30.8127  -20.7235   21.0720 H   0  0  0  0  0  0
  1 25  1  0  0  0
  1 30  2  0  0  0
  1 82  1  0  0  0
  2  3  1  0  0  0
  2 25  1  0  0  0
  2 86  1  0  0  0
  2 87  1  0  0  0
  3  4  1  0  0  0
  3 88  1  0  0  0
  3 89  1  0  0  0
  4  5  1  0  0  0
  4 90  1  0  0  0
  4 91  1  0  0  0
  5  6  1  0  0  0
  5 26  1  0  0  0
  5 92  1  0  0  0
  6 25  1  0  0  0
  6 93  1  0  0  0
  6 94  1  0  0  0
  7  8  2  0  0  0
  7 26  1  0  0  0
  7 29  1  0  0  0
  8  9  1  0  0  0
  8 22  1  0  0  0
  9 10  1  0  0  0
  9 27  2  0  0  0
 10 11  2  0  0  0
 10 15  1  0  0  0
 11 12  1  0  0  0
 11 95  1  0  0  0
 12 13  2  0  0  0
 12 96  1  0  0  0
 13 14  1  0  0  0
 13 31  1  0  0  0
 14 15  2  0  0  0
 14 97  1  0  0  0
 15 98  1  0  0  0
 16 17  2  0  0  0
 16 21  1  0  0  0
 16 31  1  0  0  0
 17 18  1  0  0  0
 17 99  1  0  0  0
 18 19  2  0  0  0
 18100  1  0  0  0
 19 20  1  0  0  0
 19 24  1  0  0  0
 20 21  2  0  0  0
 20101  1  0  0  0
 21 23  1  0  0  0
 22 28  1  0  0  0
 22 32  2  0  0  0
 26 27  1  0  0  0
 28102  1  0  0  0
 28103  1  0  0  0
 29104  1  0  0  0
 29105  1  0  0  0
 33 34  1  0  0  0
 33 66  1  0  0  0
 33 70  2  0  0  0
 34 36  1  0  0  0
 34 59  1  0  0  0
 34106  1  0  0  0
 35 44  2  0  0  0
 35 45  1  0  0  0
 35 68  1  0  0  0
 36 56  1  0  0  0
 36107  1  0  0  0
 37 39  1  0  0  0
 37 47  1  0  0  0
 37 66  1  0  0  0
 37108  1  0  0  0
 38 43  2  0  0  0
 38 46  1  0  0  0
 38 47  1  0  0  0
 39 64  1  0  0  0
 39 67  2  0  0  0
 40 52  1  0  0  0
 40 53  2  0  0  0
 40 58  1  0  0  0
 41109  1  0  0  0
 41110  1  0  0  0
 41111  1  0  0  0
 41 48  1  0  0  0
 42 43  1  0  0  0
 42 66  1  0  0  0
 42112  1  0  0  0
 42113  1  0  0  0
 43 44  1  0  0  0
 44114  1  0  0  0
 45 46  2  0  0  0
 45115  1  0  0  0
 46116  1  0  0  0
 47117  1  0  0  0
 47118  1  0  0  0
 48 56  1  0  0  0
 48 65  1  0  0  0
 48119  1  0  0  0
 49 50  1  0  0  0
 49 53  1  0  0  0
 49 64  1  0  0  0
 49120  1  0  0  0
 50 51  1  0  0  0
 50121  1  0  0  0
 50122  1  0  0  0
 51 52  1  0  0  0
 51123  1  0  0  0
 51124  1  0  0  0
 52125  1  0  0  0
 52126  1  0  0  0
 53 54  1  0  0  0
 54 55  2  0  0  0
 54127  1  0  0  0
 55 57  1  0  0  0
 55128  1  0  0  0
 56 69  2  0  0  0
 57 58  2  0  0  0
 57129  1  0  0  0
 58130  1  0  0  0
 59 60  1  0  0  0
 59 61  1  0  0  0
 59 62  1  0  0  0
 60131  1  0  0  0
 60132  1  0  0  0
 60133  1  0  0  0
 61134  1  0  0  0
 61135  1  0  0  0
 61136  1  0  0  0
 62137  1  0  0  0
 62138  1  0  0  0
 62139  1  0  0  0
 63 65  1  0  0  0
 63140  1  0  0  0
 63141  1  0  0  0
 63142  1  0  0  0
 64143  1  0  0  0
 65144  1  0  0  0
 68 81  1  0  0  0
 71 72  2  0  0  0
 71 74  1  0  0  0
 71145  1  0  0  0
 72 75  1  0  0  0
 72146  1  0  0  0
 73 75  2  0  0  0
 73 76  1  0  0  0
 73 77  1  0  0  0
 74 76  2  0  0  0
 74 82  1  0  0  0
 75 84  1  0  0  0
 76 85  1  0  0  0
 77 83  1  0  0  0
 77147  1  0  0  0
 77148  1  0  0  0
 78 79  1  0  0  0
 78 80  1  0  0  0
 78149  1  0  0  0
 78150  1  0  0  0
 79 81  1  0  0  0
 79151  1  0  0  0
 79152  1  0  0  0
 80 83  1  0  0  0
 80153  1  0  0  0
 80154  1  0  0  0
 81155  1  0  0  0
 81156  1  0  0  0
 82157  1  0  0  0
 83158  1  0  0  0
 83159  1  0  0  0
M  CHG  1  83   1
M  ISO  4   1 100  68 101  81 101  82 100
M  END
> <chiral flag>
0

> <version>
0

> <s_m_source_file>
/data/baiqing/PycharmProjects/Reinvent-master-3.2/result/LINK_invent/BTK/process_docking_weight1_custom_sum_contain_oxygen_bond_distance_aromatic_linkinvent_7_9_3/rearranged_h_0016.sdf

> <i_m_source_file_index>
55

> <r_mmod_Potential_Energy-OPLS-2005>
-319.854309082031

> <r_mmod_Stretch_Energy-OPLS-2005>
33.525146484375

> <r_mmod_Bend_Energy-OPLS-2005>
93.7599563598633

> <r_mmod_Torsional_Energy-OPLS-2005>
212.151321411133

> <r_mmod_Improper_Torsional_Energy-OPLS-2005>
1.76231729984283

> <r_mmod_Van_der_Waal_Energy-OPLS-2005>
161.610290527344

> <r_mmod_Electrostatic_Energy-OPLS-2005>
-363.323333740234

> <r_mmod_Solvation_Energy-OPLS-2005>
-467.795288085938

> <b_mmod_Minimization_Converged-OPLS-2005>
0

> <r_mmod_RMS_Derivative-OPLS-2005>
1.17216765880585

$$$$
55
                    3D
 Structure written by MMmdl.
155163  0  0  1  0            999 V2000
  -30.6235  -14.7021   20.4223 C   0  0  0  0  0  0
  -30.4093  -12.4181   19.4918 C   0  0  0  0  0  0
  -29.5023  -12.4502   18.2412 C   0  0  0  0  0  0
  -28.0234  -12.3008   18.6552 C   0  0  0  0  0  0
  -27.6205  -13.2287   19.8355 C   0  0  2  0  0  0
  -28.6601  -13.1925   20.9700 C   0  0  0  0  0  0
  -25.2262  -13.8165   20.5606 C   0  0  0  0  0  0
  -24.1620  -13.0412   20.9216 C   0  0  0  0  0  0
  -24.6248  -11.6916   20.8776 C   0  0  0  0  0  0
  -23.8977  -10.4294   21.0428 C   0  0  0  0  0  0
  -24.3563   -9.4212   21.9183 C   0  0  0  0  0  0
  -23.6288   -8.2216   22.0749 C   0  0  0  0  0  0
  -22.4259   -8.0250   21.3544 C   0  0  0  0  0  0
  -21.9860   -9.0203   20.4649 C   0  0  0  0  0  0
  -22.7156  -10.2108   20.3064 C   0  0  0  0  0  0
  -21.6839   -6.0731   22.5303 C   0  0  0  0  0  0
  -21.3979   -6.5610   23.8242 C   0  0  0  0  0  0
  -21.3631   -5.6764   24.9187 C   0  0  0  0  0  0
  -21.6052   -4.3030   24.7232 C   0  0  0  0  0  0
  -21.8823   -3.8146   23.4346 C   0  0  0  0  0  0
  -21.9193   -4.6958   22.3414 C   0  0  0  0  0  0
  -22.7644  -13.5186   21.1974 C   0  0  0  0  0  0
  -22.1657   -4.2165   21.0984 F   0  0  0  0  0  0
  -21.5653   -3.4495   25.7726 F   0  0  0  0  0  0
  -29.9540  -13.5112   20.3682 N   0  0  0  0  0  0
  -26.2755  -12.9420   20.3296 N   0  0  0  0  0  0
  -25.9177  -11.6568   20.5816 N   0  0  0  0  0  0
  -22.0354  -12.8136   22.0565 N   0  0  0  0  0  0
  -25.3725  -15.1879   20.3897 N   0  0  0  0  0  0
  -31.8518  -14.7157   20.3204 O   0  0  0  0  0  0
  -21.6622   -6.8839   21.4254 O   0  0  0  0  0  0
  -22.3309  -14.5500   20.6820 O   0  0  0  0  0  0
  -24.6315  -31.8570   23.2021 C   0  0  0  0  0  0
  -25.9158  -32.4758   23.8355 C   0  0  1  0  0  0
  -27.2207  -27.2774   20.1324 C   0  0  0  0  0  0
  -25.5968  -33.8553   24.2286 N   0  0  0  0  0  0
  -23.4269  -30.4865   21.5411 C   0  0  2  0  0  0
  -24.8794  -28.9401   20.1167 C   0  0  0  0  0  0
  -22.7496  -29.4627   22.4867 C   0  0  0  0  0  0
  -18.0265  -28.1382   22.8510 C   0  0  0  0  0  0
  -24.1492  -36.7255   23.2616 C   0  0  0  0  0  0
  -25.9762  -30.7787   21.3873 C   0  0  0  0  0  0
  -26.0532  -29.4071   20.7209 C   0  0  0  0  0  0
  -27.2281  -28.5892   20.7187 C   0  0  0  0  0  0
  -26.0238  -26.8881   19.4891 C   0  0  0  0  0  0
  -24.8699  -27.6879   19.4923 C   0  0  0  0  0  0
  -23.6495  -29.8227   20.1589 C   0  0  0  0  0  0
  -25.4116  -36.3068   24.0332 C   0  0  1  0  0  0
  -20.5873  -28.3725   23.1243 C   0  0  2  0  0  0
  -20.6748  -26.9423   22.5391 C   0  0  0  0  0  0
  -19.5725  -26.6404   21.5205 C   0  0  0  0  0  0
  -18.1906  -26.7930   22.1622 C   0  0  0  0  0  0
  -19.1528  -28.8847   23.2875 C   0  0  0  0  0  0
  -18.9457  -30.1442   23.8894 C   0  0  0  0  0  0
  -17.6478  -30.6601   24.0559 C   0  0  0  0  0  0
  -25.9059  -34.9443   23.5096 C   0  0  0  0  0  0
  -16.5363  -29.9099   23.6353 C   0  0  0  0  0  0
  -16.7259  -28.6488   23.0412 C   0  0  0  0  0  0
  -26.4532  -31.6574   25.0715 C   0  0  0  0  0  0
  -25.3753  -31.3759   26.1427 C   0  0  0  0  0  0
  -27.0388  -30.2978   24.6248 C   0  0  0  0  0  0
  -27.6116  -32.4297   25.7454 C   0  0  0  0  0  0
  -27.5589  -37.1762   24.8458 C   0  0  0  0  0  0
  -21.4184  -29.3108   22.3646 N   0  0  0  0  0  0
  -26.4295  -37.3770   23.9414 N   0  0  0  0  0  0
  -24.6956  -31.0572   22.0990 N   0  0  0  0  0  0
  -23.4194  -28.8130   23.2945 O   0  0  0  0  0  0
  -28.3025  -26.3675   20.1984 O   0  0  0  0  0  0
  -26.5582  -34.8904   22.4636 O   0  0  0  0  0  0
  -23.5467  -32.1381   23.7325 O   0  0  0  0  0  0
  -27.2166  -17.6837   21.5059 C   0  0  0  0  0  0
  -27.5164  -19.0516   21.3028 C   0  0  0  0  0  0
  -28.7506  -19.4034   20.6754 C   0  0  0  0  0  0
  -29.5723  -18.2734   20.2945 C   0  0  0  0  0  0
  -29.1896  -16.9002   20.5349 C   0  0  0  0  0  0
  -26.4746  -20.0633   21.7726 C   0  0  0  0  0  0
  -29.2498  -20.8951   20.3851 C   0  0  0  0  0  0
  -28.3783  -22.2326   20.6020 C   0  0  0  0  0  0
  -29.0021  -23.7002   20.3528 C   0  0  0  0  0  0
  -27.9581  -24.9042   20.1906 C   0  0  0  0  0  0
  -28.0095  -16.6473   21.1400 N   0  0  0  0  0  0
  -29.9982  -15.8348   19.9541 N   0  0  0  0  0  0
  -31.0801  -18.5714   19.4959 Cl  0  0  0  0  0  0
  -31.4620  -12.5141   19.2225 H   0  0  0  0  0  0
  -30.3248  -11.4640   20.0157 H   0  0  0  0  0  0
  -29.7751  -11.6411   17.5615 H   0  0  0  0  0  0
  -29.6546  -13.3832   17.6947 H   0  0  0  0  0  0
  -27.8818  -11.2606   18.9519 H   0  0  0  0  0  0
  -27.3602  -12.4653   17.8048 H   0  0  0  0  0  0
  -27.6067  -14.2396   19.4286 H   0  0  0  0  0  0
  -28.6859  -12.2137   21.4484 H   0  0  0  0  0  0
  -28.4044  -13.9113   21.7486 H   0  0  0  0  0  0
  -25.2684   -9.5727   22.4756 H   0  0  0  0  0  0
  -24.0026   -7.4581   22.7408 H   0  0  0  0  0  0
  -21.0807   -8.8675   19.8934 H   0  0  0  0  0  0
  -22.3583  -10.9611   19.6180 H   0  0  0  0  0  0
  -21.1925   -7.6119   23.9743 H   0  0  0  0  0  0
  -21.1445   -6.0486   25.9108 H   0  0  0  0  0  0
  -22.0624   -2.7606   23.2844 H   0  0  0  0  0  0
  -22.3978  -11.9707   22.4803 H   0  0  0  0  0  0
  -21.0987  -13.1106   22.2948 H   0  0  0  0  0  0
  -24.5785  -15.8095   20.5022 H   0  0  0  0  0  0
  -26.2595  -15.6618   20.2522 H   0  0  0  0  0  0
  -26.7212  -32.5436   23.1088 H   0  0  0  0  0  0
  -25.0229  -33.9679   25.0508 H   0  0  0  0  0  0
  -22.7249  -31.3110   21.3926 H   0  0  0  0  0  0
  -23.3786  -35.9552   23.3253 H   0  0  0  0  0  0
  -24.3615  -36.8877   22.2035 H   0  0  0  0  0  0
  -23.7205  -37.6430   23.6649 H   0  0  0  0  0  0
  -26.1293  -31.5531   20.6347 H   0  0  0  0  0  0
  -26.8450  -30.8105   22.0360 H   0  0  0  0  0  0
  -28.1241  -28.9389   21.2074 H   0  0  0  0  0  0
  -25.9330  -25.9420   18.9814 H   0  0  0  0  0  0
  -23.9713  -27.3194   19.0200 H   0  0  0  0  0  0
  -23.7760  -30.5962   19.4004 H   0  0  0  0  0  0
  -22.7755  -29.2494   19.8503 H   0  0  0  0  0  0
  -25.1287  -36.1911   25.0831 H   0  0  0  0  0  0
  -20.9990  -28.3287   24.1364 H   0  0  0  0  0  0
  -20.5582  -26.2326   23.3580 H   0  0  0  0  0  0
  -21.6628  -26.7365   22.1245 H   0  0  0  0  0  0
  -19.6875  -25.6316   21.1213 H   0  0  0  0  0  0
  -19.6674  -27.3207   20.6744 H   0  0  0  0  0  0
  -17.4158  -26.6680   21.4050 H   0  0  0  0  0  0
  -18.0318  -26.0038   22.8966 H   0  0  0  0  0  0
  -19.7947  -30.7236   24.2269 H   0  0  0  0  0  0
  -17.5067  -31.6286   24.5156 H   0  0  0  0  0  0
  -15.5372  -30.3039   23.7717 H   0  0  0  0  0  0
  -15.8628  -28.0831   22.7214 H   0  0  0  0  0  0
  -24.5940  -30.7085   25.7757 H   0  0  0  0  0  0
  -24.8921  -32.2947   26.4784 H   0  0  0  0  0  0
  -25.8040  -30.8984   27.0249 H   0  0  0  0  0  0
  -26.2997  -29.6676   24.1275 H   0  0  0  0  0  0
  -27.4048  -29.7291   25.4811 H   0  0  0  0  0  0
  -27.8897  -30.4202   23.9531 H   0  0  0  0  0  0
  -27.2764  -33.3616   26.2033 H   0  0  0  0  0  0
  -28.3910  -32.6817   25.0240 H   0  0  0  0  0  0
  -28.0811  -31.8407   26.5348 H   0  0  0  0  0  0
  -28.2577  -38.0079   24.7550 H   0  0  0  0  0  0
  -28.1105  -36.2619   24.6245 H   0  0  0  0  0  0
  -27.2298  -37.1343   25.8849 H   0  0  0  0  0  0
  -20.9301  -29.8989   21.7036 H   0  0  0  0  0  0
  -26.0173  -38.2826   24.1486 H   0  0  0  0  0  0
  -26.2801  -17.4024   21.9721 H   0  0  0  0  0  0
  -25.6153  -19.5731   22.2332 H   0  0  0  0  0  0
  -26.0712  -20.6620   20.9570 H   0  0  0  0  0  0
  -26.8865  -20.7184   22.5371 H   0  0  0  0  0  0
  -29.5376  -20.8848   19.3349 H   0  0  0  0  0  0
  -30.1785  -21.0125   20.9417 H   0  0  0  0  0  0
  -28.0384  -22.2507   21.6364 H   0  0  0  0  0  0
  -27.4941  -22.1438   19.9722 H   0  0  0  0  0  0
  -29.6136  -23.6700   19.4499 H   0  0  0  0  0  0
  -29.6960  -23.9316   21.1585 H   0  0  0  0  0  0
  -27.1725  -24.7473   20.9332 H   0  0  0  0  0  0
  -27.5177  -24.6813   19.2207 H   0  0  0  0  0  0
  -30.6952  -16.2849   19.3773 H   0  0  0  0  0  0
  1 25  1  0  0  0
  1 30  2  0  0  0
  1 82  1  0  0  0
  2  3  1  0  0  0
  2 25  1  0  0  0
  2 84  1  0  0  0
  2 85  1  0  0  0
  3  4  1  0  0  0
  3 86  1  0  0  0
  3 87  1  0  0  0
  4  5  1  0  0  0
  4 88  1  0  0  0
  4 89  1  0  0  0
  5  6  1  0  0  0
  5 26  1  0  0  0
  5 90  1  0  0  0
  6 25  1  0  0  0
  6 91  1  0  0  0
  6 92  1  0  0  0
  7  8  2  0  0  0
  7 26  1  0  0  0
  7 29  1  0  0  0
  8  9  1  0  0  0
  8 22  1  0  0  0
  9 10  1  0  0  0
  9 27  2  0  0  0
 10 11  2  0  0  0
 10 15  1  0  0  0
 11 12  1  0  0  0
 11 93  1  0  0  0
 12 13  2  0  0  0
 12 94  1  0  0  0
 13 14  1  0  0  0
 13 31  1  0  0  0
 14 15  2  0  0  0
 14 95  1  0  0  0
 15 96  1  0  0  0
 16 17  2  0  0  0
 16 21  1  0  0  0
 16 31  1  0  0  0
 17 18  1  0  0  0
 17 97  1  0  0  0
 18 19  2  0  0  0
 18 98  1  0  0  0
 19 20  1  0  0  0
 19 24  1  0  0  0
 20 21  2  0  0  0
 20 99  1  0  0  0
 21 23  1  0  0  0
 22 28  1  0  0  0
 22 32  2  0  0  0
 26 27  1  0  0  0
 28100  1  0  0  0
 28101  1  0  0  0
 29102  1  0  0  0
 29103  1  0  0  0
 33 34  1  0  0  0
 33 66  1  0  0  0
 33 70  2  0  0  0
 34 36  1  0  0  0
 34 59  1  0  0  0
 34104  1  0  0  0
 35 44  2  0  0  0
 35 45  1  0  0  0
 35 68  1  0  0  0
 36 56  1  0  0  0
 36105  1  0  0  0
 37 39  1  0  0  0
 37 47  1  0  0  0
 37 66  1  0  0  0
 37106  1  0  0  0
 38 43  2  0  0  0
 38 46  1  0  0  0
 38 47  1  0  0  0
 39 64  1  0  0  0
 39 67  2  0  0  0
 40 52  1  0  0  0
 40 53  2  0  0  0
 40 58  1  0  0  0
 41107  1  0  0  0
 41108  1  0  0  0
 41109  1  0  0  0
 41 48  1  0  0  0
 42 43  1  0  0  0
 42 66  1  0  0  0
 42110  1  0  0  0
 42111  1  0  0  0
 43 44  1  0  0  0
 44112  1  0  0  0
 45 46  2  0  0  0
 45113  1  0  0  0
 46114  1  0  0  0
 47115  1  0  0  0
 47116  1  0  0  0
 48 56  1  0  0  0
 48 65  1  0  0  0
 48117  1  0  0  0
 49 50  1  0  0  0
 49 53  1  0  0  0
 49 64  1  0  0  0
 49118  1  0  0  0
 50 51  1  0  0  0
 50119  1  0  0  0
 50120  1  0  0  0
 51 52  1  0  0  0
 51121  1  0  0  0
 51122  1  0  0  0
 52123  1  0  0  0
 52124  1  0  0  0
 53 54  1  0  0  0
 54 55  2  0  0  0
 54125  1  0  0  0
 55 57  1  0  0  0
 55126  1  0  0  0
 56 69  2  0  0  0
 57 58  2  0  0  0
 57127  1  0  0  0
 58128  1  0  0  0
 59 60  1  0  0  0
 59 61  1  0  0  0
 59 62  1  0  0  0
 60129  1  0  0  0
 60130  1  0  0  0
 60131  1  0  0  0
 61132  1  0  0  0
 61133  1  0  0  0
 61134  1  0  0  0
 62135  1  0  0  0
 62136  1  0  0  0
 62137  1  0  0  0
 63 65  1  0  0  0
 63138  1  0  0  0
 63139  1  0  0  0
 63140  1  0  0  0
 64141  1  0  0  0
 65142  1  0  0  0
 68 80  1  0  0  0
 71 72  2  0  0  0
 71 81  1  0  0  0
 71143  1  0  0  0
 72 73  1  0  0  0
 72 76  1  0  0  0
 73 74  2  0  0  0
 73 77  1  0  0  0
 74 75  1  0  0  0
 74 83  1  0  0  0
 75 81  2  0  0  0
 75 82  1  0  0  0
 76144  1  0  0  0
 76145  1  0  0  0
 76146  1  0  0  0
 77 78  1  0  0  0
 77147  1  0  0  0
 77148  1  0  0  0
 78 79  1  0  0  0
 78149  1  0  0  0
 78150  1  0  0  0
 79 80  1  0  0  0
 79151  1  0  0  0
 79152  1  0  0  0
 80153  1  0  0  0
 80154  1  0  0  0
 82155  1  0  0  0
M  ISO  4   1 100  68 101  80 101  82 100
M  END
> <chiral flag>
0

> <version>
0

> <s_m_source_file>
/data/baiqing/PycharmProjects/Reinvent-master-3.2/result/LINK_invent/BTK/process_docking_weight1_custom_sum_contain_oxygen_bond_distance_aromatic_linkinvent_7_9_3/rearranged_h_0016.sdf

> <i_m_source_file_index>
56

> <r_mmod_Potential_Energy-OPLS-2005>
120.666343688965

> <r_mmod_Stretch_Energy-OPLS-2005>
103.281394958496

> <r_mmod_Bend_Energy-OPLS-2005>
198.862823486328

> <r_mmod_Torsional_Energy-OPLS-2005>
260.271820068359

> <r_mmod_Improper_Torsional_Energy-OPLS-2005>
27.9230155944824

> <r_mmod_Van_der_Waal_Energy-OPLS-2005>
146.44807434082

> <r_mmod_Electrostatic_Energy-OPLS-2005>
-512.207824707031

> <r_mmod_Solvation_Energy-OPLS-2005>
-193.051574707031

> <b_mmod_Minimization_Converged-OPLS-2005>
0

> <r_mmod_RMS_Derivative-OPLS-2005>
6.03754568099976

$$$$
56
                    3D
 Structure written by MMmdl.
158166  0  0  1  0            999 V2000
  -30.6120  -14.7231   20.4957 C   0  0  0  0  0  0
  -30.4364  -12.4489   19.4663 C   0  0  0  0  0  0
  -29.5039  -12.5084   18.2359 C   0  0  0  0  0  0
  -28.0295  -12.3412   18.6525 C   0  0  0  0  0  0
  -27.6447  -13.2297   19.8657 C   0  0  2  0  0  0
  -28.6928  -13.1340   20.9959 C   0  0  0  0  0  0
  -25.2535  -13.8220   20.5730 C   0  0  0  0  0  0
  -24.1808  -13.0472   20.9229 C   0  0  0  0  0  0
  -24.6381  -11.6942   20.8796 C   0  0  0  0  0  0
  -23.9063  -10.4313   21.0440 C   0  0  0  0  0  0
  -24.3623   -9.4223   21.9197 C   0  0  0  0  0  0
  -23.6293   -8.2255   22.0742 C   0  0  0  0  0  0
  -22.4278   -8.0299   21.3533 C   0  0  0  0  0  0
  -21.9934   -9.0287   20.4637 C   0  0  0  0  0  0
  -22.7263  -10.2159   20.3068 C   0  0  0  0  0  0
  -21.6852   -6.0757   22.5279 C   0  0  0  0  0  0
  -21.4012   -6.5645   23.8218 C   0  0  0  0  0  0
  -21.3657   -5.6790   24.9170 C   0  0  0  0  0  0
  -21.6040   -4.3052   24.7215 C   0  0  0  0  0  0
  -21.8822   -3.8152   23.4327 C   0  0  0  0  0  0
  -21.9198   -4.6981   22.3394 C   0  0  0  0  0  0
  -22.7824  -13.5252   21.1895 C   0  0  0  0  0  0
  -22.1663   -4.2171   21.0973 F   0  0  0  0  0  0
  -21.5633   -3.4533   25.7717 F   0  0  0  0  0  0
  -29.9914  -13.4973   20.4109 N   0  0  0  0  0  0
  -26.2956  -12.9402   20.3384 N   0  0  0  0  0  0
  -25.9318  -11.6545   20.5829 N   0  0  0  0  0  0
  -22.0457  -12.8220   22.0419 N   0  0  0  0  0  0
  -25.4312  -15.1924   20.4095 N   0  0  0  0  0  0
  -31.7916  -14.8415   20.1574 O   0  0  0  0  0  0
  -21.6644   -6.8902   21.4232 O   0  0  0  0  0  0
  -22.3523  -14.5579   20.6767 O   0  0  0  0  0  0
  -24.6285  -31.8523   23.1956 C   0  0  0  0  0  0
  -25.9093  -32.4752   23.8314 C   0  0  1  0  0  0
  -27.2397  -27.2713   20.1269 C   0  0  0  0  0  0
  -25.5911  -33.8555   24.2266 N   0  0  0  0  0  0
  -23.4253  -30.4695   21.5439 C   0  0  2  0  0  0
  -24.8742  -28.9044   20.1228 C   0  0  0  0  0  0
  -22.7520  -29.4519   22.4980 C   0  0  0  0  0  0
  -18.0275  -28.1330   22.8449 C   0  0  0  0  0  0
  -24.1492  -36.7253   23.2651 C   0  0  0  0  0  0
  -25.9705  -30.7681   21.3706 C   0  0  0  0  0  0
  -26.0466  -29.3882   20.7179 C   0  0  0  0  0  0
  -27.2328  -28.5881   20.6953 C   0  0  0  0  0  0
  -26.0398  -26.8373   19.5231 C   0  0  0  0  0  0
  -24.8765  -27.6371   19.5162 C   0  0  0  0  0  0
  -23.6424  -29.7913   20.1656 C   0  0  0  0  0  0
  -25.4099  -36.3051   24.0359 C   0  0  1  0  0  0
  -20.5896  -28.3574   23.1291 C   0  0  2  0  0  0
  -20.6758  -26.9304   22.5394 C   0  0  0  0  0  0
  -19.5755  -26.6302   21.5193 C   0  0  0  0  0  0
  -18.1925  -26.7879   22.1584 C   0  0  0  0  0  0
  -19.1540  -28.8778   23.2870 C   0  0  0  0  0  0
  -18.9476  -30.1405   23.8840 C   0  0  0  0  0  0
  -17.6481  -30.6541   24.0512 C   0  0  0  0  0  0
  -25.9033  -34.9431   23.5099 C   0  0  0  0  0  0
  -16.5362  -29.9012   23.6339 C   0  0  0  0  0  0
  -16.7268  -28.6433   23.0333 C   0  0  0  0  0  0
  -26.4468  -31.6563   25.0685 C   0  0  0  0  0  0
  -25.3707  -31.3701   26.1425 C   0  0  0  0  0  0
  -27.0337  -30.3017   24.6083 C   0  0  0  0  0  0
  -27.6032  -32.4292   25.7460 C   0  0  0  0  0  0
  -27.5583  -37.1759   24.8478 C   0  0  0  0  0  0
  -21.4218  -29.2968   22.3745 N   0  0  0  0  0  0
  -26.4277  -37.3739   23.9443 N   0  0  0  0  0  0
  -24.6946  -31.0475   22.0945 N   0  0  0  0  0  0
  -23.4245  -28.8065   23.3059 O   0  0  0  0  0  0
  -28.3796  -26.4449   20.0610 O   0  0  0  0  0  0
  -26.5599  -34.8907   22.4676 O   0  0  0  0  0  0
  -23.5410  -32.1337   23.7244 O   0  0  0  0  0  0
  -30.6161  -19.9707   21.8728 C   0  0  0  0  0  0
  -29.6555  -19.7966   20.8513 C   0  0  0  0  0  0
  -30.1391  -17.2539   21.0357 C   0  0  0  0  0  0
  -31.3204  -18.8920   22.4395 C   0  0  0  0  0  0
  -29.4257  -18.3942   20.4619 C   0  0  0  0  0  0
  -31.0898  -17.5579   22.0478 C   0  0  0  0  0  0
  -30.8819  -22.5670   20.0022 C   0  0  0  0  0  0
  -27.5074  -20.8205   20.5974 C   0  0  0  0  0  0
  -28.5809  -23.6766   19.8915 C   0  0  0  0  0  0
  -28.4169  -25.0844   20.6941 C   0  0  0  0  0  0
  -29.4346  -22.4314   20.5364 C   0  0  1  0  0  0
  -29.8134  -15.8322   20.7240 N   0  0  0  0  0  0
  -28.9428  -20.9874   20.3615 N   0  0  0  0  0  0
  -32.2188  -19.1523   23.4217 F   0  0  0  0  0  0
  -28.2318  -18.0303   19.2590 Cl  0  0  0  0  0  0
  -31.9308  -16.3279   22.9360 Cl  0  0  0  0  0  0
  -31.4743  -12.5874   19.1571 H   0  0  0  0  0  0
  -30.3917  -11.4657   19.9401 H   0  0  0  0  0  0
  -29.7777  -11.7350   17.5165 H   0  0  0  0  0  0
  -29.6315  -13.4648   17.7241 H   0  0  0  0  0  0
  -27.8744  -11.2911   18.9014 H   0  0  0  0  0  0
  -27.3694  -12.5543   17.8105 H   0  0  0  0  0  0
  -27.6485  -14.2580   19.5052 H   0  0  0  0  0  0
  -28.7254  -12.1230   21.4073 H   0  0  0  0  0  0
  -28.4324  -13.7907   21.8303 H   0  0  0  0  0  0
  -25.2758   -9.5698   22.4779 H   0  0  0  0  0  0
  -24.0015   -7.4635   22.7450 H   0  0  0  0  0  0
  -21.0874   -8.8809   19.8922 H   0  0  0  0  0  0
  -22.3732  -10.9711   19.6183 H   0  0  0  0  0  0
  -21.1989   -7.6149   23.9727 H   0  0  0  0  0  0
  -21.1473   -6.0506   25.9073 H   0  0  0  0  0  0
  -22.0601   -2.7618   23.2815 H   0  0  0  0  0  0
  -22.4053  -11.9842   22.4742 H   0  0  0  0  0  0
  -21.1090  -13.1263   22.2654 H   0  0  0  0  0  0
  -24.6728  -15.8591   20.5144 H   0  0  0  0  0  0
  -26.2747  -15.6141   20.0408 H   0  0  0  0  0  0
  -26.7134  -32.5368   23.1028 H   0  0  0  0  0  0
  -25.0130  -33.9718   25.0470 H   0  0  0  0  0  0
  -22.7143  -31.2853   21.3913 H   0  0  0  0  0  0
  -23.3795  -35.9551   23.3264 H   0  0  0  0  0  0
  -24.3585  -36.8884   22.2075 H   0  0  0  0  0  0
  -23.7212  -37.6428   23.6679 H   0  0  0  0  0  0
  -26.0977  -31.5273   20.5960 H   0  0  0  0  0  0
  -26.8534  -30.8202   21.9968 H   0  0  0  0  0  0
  -28.1474  -28.9681   21.1264 H   0  0  0  0  0  0
  -26.0114  -25.8703   19.0412 H   0  0  0  0  0  0
  -23.9766  -27.2625   19.0456 H   0  0  0  0  0  0
  -23.7620  -30.5615   19.4044 H   0  0  0  0  0  0
  -22.7605  -29.2216   19.8622 H   0  0  0  0  0  0
  -25.1273  -36.1886   25.0857 H   0  0  0  0  0  0
  -20.9918  -28.3083   24.1434 H   0  0  0  0  0  0
  -20.5596  -26.2180   23.3586 H   0  0  0  0  0  0
  -21.6626  -26.7281   22.1225 H   0  0  0  0  0  0
  -19.6938  -25.6217   21.1193 H   0  0  0  0  0  0
  -19.6726  -27.3123   20.6754 H   0  0  0  0  0  0
  -17.4209  -26.6601   21.3981 H   0  0  0  0  0  0
  -18.0299  -26.0019   22.8967 H   0  0  0  0  0  0
  -19.7978  -30.7215   24.2151 H   0  0  0  0  0  0
  -17.5054  -31.6224   24.5082 H   0  0  0  0  0  0
  -15.5358  -30.2887   23.7732 H   0  0  0  0  0  0
  -15.8663  -28.0753   22.7059 H   0  0  0  0  0  0
  -24.5920  -30.6996   25.7775 H   0  0  0  0  0  0
  -24.8879  -32.2881   26.4781 H   0  0  0  0  0  0
  -25.8043  -30.8946   27.0250 H   0  0  0  0  0  0
  -26.2921  -29.6744   24.1119 H   0  0  0  0  0  0
  -27.4164  -29.7209   25.4493 H   0  0  0  0  0  0
  -27.8700  -30.4378   23.9228 H   0  0  0  0  0  0
  -27.2663  -33.3631   26.1963 H   0  0  0  0  0  0
  -28.3875  -32.6760   25.0301 H   0  0  0  0  0  0
  -28.0655  -31.8468   26.5437 H   0  0  0  0  0  0
  -28.2528  -38.0118   24.7534 H   0  0  0  0  0  0
  -28.1136  -36.2629   24.6253 H   0  0  0  0  0  0
  -27.2317  -37.1322   25.8886 H   0  0  0  0  0  0
  -20.9412  -29.8729   21.6978 H   0  0  0  0  0  0
  -26.0156  -38.2807   24.1470 H   0  0  0  0  0  0
  -30.8249  -20.9462   22.2810 H   0  0  0  0  0  0
  -31.2898  -23.5528   20.2237 H   0  0  0  0  0  0
  -30.9195  -22.4414   18.9204 H   0  0  0  0  0  0
  -31.5891  -21.8542   20.4191 H   0  0  0  0  0  0
  -27.2728  -19.9548   21.2241 H   0  0  0  0  0  0
  -26.9827  -20.7022   19.6481 H   0  0  0  0  0  0
  -27.0858  -21.6893   21.1086 H   0  0  0  0  0  0
  -29.0192  -23.9071   18.9188 H   0  0  0  0  0  0
  -27.5754  -23.3465   19.6380 H   0  0  0  0  0  0
  -29.2747  -25.1443   21.3643 H   0  0  0  0  0  0
  -27.5679  -24.9920   21.3693 H   0  0  0  0  0  0
  -29.4617  -22.6111   21.6126 H   0  0  0  0  0  0
  -28.8266  -15.6315   20.7024 H   0  0  0  0  0  0
  1 25  1  0  0  0
  1 30  2  0  0  0
  1 82  1  0  0  0
  2  3  1  0  0  0
  2 25  1  0  0  0
  2 87  1  0  0  0
  2 88  1  0  0  0
  3  4  1  0  0  0
  3 89  1  0  0  0
  3 90  1  0  0  0
  4  5  1  0  0  0
  4 91  1  0  0  0
  4 92  1  0  0  0
  5  6  1  0  0  0
  5 26  1  0  0  0
  5 93  1  0  0  0
  6 25  1  0  0  0
  6 94  1  0  0  0
  6 95  1  0  0  0
  7  8  2  0  0  0
  7 26  1  0  0  0
  7 29  1  0  0  0
  8  9  1  0  0  0
  8 22  1  0  0  0
  9 10  1  0  0  0
  9 27  2  0  0  0
 10 11  2  0  0  0
 10 15  1  0  0  0
 11 12  1  0  0  0
 11 96  1  0  0  0
 12 13  2  0  0  0
 12 97  1  0  0  0
 13 14  1  0  0  0
 13 31  1  0  0  0
 14 15  2  0  0  0
 14 98  1  0  0  0
 15 99  1  0  0  0
 16 17  2  0  0  0
 16 21  1  0  0  0
 16 31  1  0  0  0
 17 18  1  0  0  0
 17100  1  0  0  0
 18 19  2  0  0  0
 18101  1  0  0  0
 19 20  1  0  0  0
 19 24  1  0  0  0
 20 21  2  0  0  0
 20102  1  0  0  0
 21 23  1  0  0  0
 22 28  1  0  0  0
 22 32  2  0  0  0
 26 27  1  0  0  0
 28103  1  0  0  0
 28104  1  0  0  0
 29105  1  0  0  0
 29106  1  0  0  0
 33 34  1  0  0  0
 33 66  1  0  0  0
 33 70  2  0  0  0
 34 36  1  0  0  0
 34 59  1  0  0  0
 34107  1  0  0  0
 35 44  2  0  0  0
 35 45  1  0  0  0
 35 68  1  0  0  0
 36 56  1  0  0  0
 36108  1  0  0  0
 37 39  1  0  0  0
 37 47  1  0  0  0
 37 66  1  0  0  0
 37109  1  0  0  0
 38 43  2  0  0  0
 38 46  1  0  0  0
 38 47  1  0  0  0
 39 64  1  0  0  0
 39 67  2  0  0  0
 40 52  1  0  0  0
 40 53  2  0  0  0
 40 58  1  0  0  0
 41110  1  0  0  0
 41111  1  0  0  0
 41112  1  0  0  0
 41 48  1  0  0  0
 42 43  1  0  0  0
 42 66  1  0  0  0
 42113  1  0  0  0
 42114  1  0  0  0
 43 44  1  0  0  0
 44115  1  0  0  0
 45 46  2  0  0  0
 45116  1  0  0  0
 46117  1  0  0  0
 47118  1  0  0  0
 47119  1  0  0  0
 48 56  1  0  0  0
 48 65  1  0  0  0
 48120  1  0  0  0
 49 50  1  0  0  0
 49 53  1  0  0  0
 49 64  1  0  0  0
 49121  1  0  0  0
 50 51  1  0  0  0
 50122  1  0  0  0
 50123  1  0  0  0
 51 52  1  0  0  0
 51124  1  0  0  0
 51125  1  0  0  0
 52126  1  0  0  0
 52127  1  0  0  0
 53 54  1  0  0  0
 54 55  2  0  0  0
 54128  1  0  0  0
 55 57  1  0  0  0
 55129  1  0  0  0
 56 69  2  0  0  0
 57 58  2  0  0  0
 57130  1  0  0  0
 58131  1  0  0  0
 59 60  1  0  0  0
 59 61  1  0  0  0
 59 62  1  0  0  0
 60132  1  0  0  0
 60133  1  0  0  0
 60134  1  0  0  0
 61135  1  0  0  0
 61136  1  0  0  0
 61137  1  0  0  0
 62138  1  0  0  0
 62139  1  0  0  0
 62140  1  0  0  0
 63 65  1  0  0  0
 63141  1  0  0  0
 63142  1  0  0  0
 63143  1  0  0  0
 64144  1  0  0  0
 65145  1  0  0  0
 68 80  1  0  0  0
 71 72  2  0  0  0
 71 74  1  0  0  0
 71146  1  0  0  0
 72 75  1  0  0  0
 72 83  1  0  0  0
 73 75  2  0  0  0
 73 76  1  0  0  0
 73 82  1  0  0  0
 74 76  2  0  0  0
 74 84  1  0  0  0
 75 85  1  0  0  0
 76 86  1  0  0  0
 77147  1  0  0  0
 77148  1  0  0  0
 77149  1  0  0  0
 77 81  1  0  0  0
 78 83  1  0  0  0
 78150  1  0  0  0
 78151  1  0  0  0
 78152  1  0  0  0
 79 80  1  0  0  0
 79 81  1  0  0  0
 79153  1  0  0  0
 79154  1  0  0  0
 80155  1  0  0  0
 80156  1  0  0  0
 81 83  1  0  0  0
 81157  1  0  0  0
 82158  1  0  0  0
M  ISO  4   1 100  68 101  80 101  82 100
M  END
> <chiral flag>
0

> <version>
0

> <s_m_source_file>
/data/baiqing/PycharmProjects/Reinvent-master-3.2/result/LINK_invent/BTK/process_docking_weight1_custom_sum_contain_oxygen_bond_distance_aromatic_linkinvent_7_9_3/rearranged_h_0016.sdf

> <i_m_source_file_index>
57

> <r_mmod_Potential_Energy-OPLS-2005>
238.718002319336

> <r_mmod_Stretch_Energy-OPLS-2005>
140.555603027344

> <r_mmod_Bend_Energy-OPLS-2005>
180.758819580078

> <r_mmod_Torsional_Energy-OPLS-2005>
268.293975830078

> <r_mmod_Improper_Torsional_Energy-OPLS-2005>
10.2417612075806

> <r_mmod_Van_der_Waal_Energy-OPLS-2005>
145.891632080078

> <r_mmod_Electrostatic_Energy-OPLS-2005>
-363.341796875

> <r_mmod_Solvation_Energy-OPLS-2005>
-214.118606567383

> <b_mmod_Minimization_Converged-OPLS-2005>
0

> <r_mmod_RMS_Derivative-OPLS-2005>
4.25586175918579

$$$$
57
                    3D
 Structure written by MMmdl.
174181  0  0  1  0            999 V2000
  -30.6252  -14.6854   20.4665 C   0  0  0  0  0  0
  -30.4283  -12.4150   19.4686 C   0  0  0  0  0  0
  -29.5063  -12.5018   18.2326 C   0  0  0  0  0  0
  -28.0314  -12.3338   18.6470 C   0  0  0  0  0  0
  -27.6453  -13.2263   19.8563 C   0  0  2  0  0  0
  -28.6887  -13.1317   20.9915 C   0  0  0  0  0  0
  -25.2526  -13.8194   20.5700 C   0  0  0  0  0  0
  -24.1808  -13.0445   20.9208 C   0  0  0  0  0  0
  -24.6392  -11.6922   20.8765 C   0  0  0  0  0  0
  -23.9071  -10.4294   21.0428 C   0  0  0  0  0  0
  -24.3620   -9.4206   21.9203 C   0  0  0  0  0  0
  -23.6292   -8.2241   22.0761 C   0  0  0  0  0  0
  -22.4275   -8.0284   21.3547 C   0  0  0  0  0  0
  -21.9920   -9.0261   20.4647 C   0  0  0  0  0  0
  -22.7252  -10.2138   20.3064 C   0  0  0  0  0  0
  -21.6849   -6.0743   22.5282 C   0  0  0  0  0  0
  -21.4011   -6.5643   23.8216 C   0  0  0  0  0  0
  -21.3656   -5.6795   24.9179 C   0  0  0  0  0  0
  -21.6044   -4.3060   24.7227 C   0  0  0  0  0  0
  -21.8816   -3.8153   23.4346 C   0  0  0  0  0  0
  -21.9186   -4.6971   22.3404 C   0  0  0  0  0  0
  -22.7828  -13.5231   21.1870 C   0  0  0  0  0  0
  -22.1659   -4.2161   21.0984 F   0  0  0  0  0  0
  -21.5624   -3.4541   25.7736 F   0  0  0  0  0  0
  -29.9971  -13.4661   20.4159 N   0  0  0  0  0  0
  -26.2948  -12.9392   20.3306 N   0  0  0  0  0  0
  -25.9320  -11.6534   20.5769 N   0  0  0  0  0  0
  -22.0462  -12.8217   22.0412 N   0  0  0  0  0  0
  -25.4227  -15.1917   20.4101 N   0  0  0  0  0  0
  -31.8047  -14.7973   20.1222 O   0  0  0  0  0  0
  -21.6632   -6.8888   21.4247 O   0  0  0  0  0  0
  -22.3521  -14.5546   20.6727 O   0  0  0  0  0  0
  -24.6288  -31.8577   23.1982 C   0  0  0  0  0  0
  -25.9127  -32.4769   23.8325 C   0  0  1  0  0  0
  -27.2215  -27.2882   20.1114 C   0  0  0  0  0  0
  -25.5932  -33.8566   24.2260 N   0  0  0  0  0  0
  -23.4219  -30.4809   21.5425 C   0  0  2  0  0  0
  -24.8664  -28.9299   20.1117 C   0  0  0  0  0  0
  -22.7481  -29.4611   22.4925 C   0  0  0  0  0  0
  -18.0290  -28.1382   22.8489 C   0  0  0  0  0  0
  -24.1489  -36.7279   23.2638 C   0  0  0  0  0  0
  -25.9650  -30.7796   21.3714 C   0  0  0  0  0  0
  -26.0367  -29.4035   20.7150 C   0  0  0  0  0  0
  -27.2135  -28.5930   20.7056 C   0  0  0  0  0  0
  -26.0152  -26.8649   19.5061 C   0  0  0  0  0  0
  -24.8590  -27.6673   19.5021 C   0  0  0  0  0  0
  -23.6363  -29.8140   20.1586 C   0  0  0  0  0  0
  -25.4115  -36.3070   24.0322 C   0  0  1  0  0  0
  -20.5892  -28.3678   23.1290 C   0  0  2  0  0  0
  -20.6776  -26.9404   22.5406 C   0  0  0  0  0  0
  -19.5749  -26.6382   21.5212 C   0  0  0  0  0  0
  -18.1927  -26.7927   22.1623 C   0  0  0  0  0  0
  -19.1542  -28.8848   23.2886 C   0  0  0  0  0  0
  -18.9467  -30.1454   23.8900 C   0  0  0  0  0  0
  -17.6467  -30.6586   24.0564 C   0  0  0  0  0  0
  -25.9062  -34.9443   23.5089 C   0  0  0  0  0  0
  -16.5360  -29.9081   23.6340 C   0  0  0  0  0  0
  -16.7277  -28.6503   23.0355 C   0  0  0  0  0  0
  -26.4498  -31.6587   25.0711 C   0  0  0  0  0  0
  -25.3719  -31.3701   26.1428 C   0  0  0  0  0  0
  -27.0358  -30.3023   24.6155 C   0  0  0  0  0  0
  -27.6045  -32.4326   25.7497 C   0  0  0  0  0  0
  -27.5573  -37.1800   24.8468 C   0  0  0  0  0  0
  -21.4190  -29.3040   22.3690 N   0  0  0  0  0  0
  -26.4287  -37.3771   23.9408 N   0  0  0  0  0  0
  -24.6912  -31.0565   22.0948 N   0  0  0  0  0  0
  -23.4198  -28.8153   23.3009 O   0  0  0  0  0  0
  -28.3603  -26.4597   20.1687 O   0  0  0  0  0  0
  -26.5626  -34.8915   22.4655 O   0  0  0  0  0  0
  -23.5447  -32.1387   23.7303 O   0  0  0  0  0  0
  -29.4868  -19.8958   20.0558 C   0  0  0  0  0  0
  -26.0089  -21.8922   19.6220 C   0  0  0  0  0  0
  -27.4170  -21.0647   17.7038 C   0  0  0  0  0  0
  -31.0903  -23.6881   20.8496 C   0  0  0  0  0  0
  -27.7534  -24.7562   23.8391 C   0  0  0  0  0  0
  -29.2527  -18.4715   20.7360 C   0  0  0  0  0  0
  -30.2311  -17.2482   20.3439 C   0  0  0  0  0  0
  -28.4431  -25.0966   19.5620 C   0  0  0  0  0  0
  -27.2815  -22.1479   18.7896 C   0  0  0  0  0  0
  -29.7048  -23.9287   21.4869 C   0  0  1  0  0  0
  -28.5382  -23.7484   20.4624 C   0  0  2  0  0  0
  -28.5656  -22.3207   19.6642 C   0  0  1  0  0  0
  -28.2420  -23.3152   23.6245 C   0  0  0  0  0  0
  -29.5902  -23.2052   22.8659 C   0  0  0  0  0  0
  -28.7660  -21.0135   20.4257 N   0  0  0  0  0  0
  -29.8532  -15.8096   20.6737 N   0  0  0  0  0  0
  -30.3037  -19.9666   19.1371 O   0  0  0  0  0  0
  -27.2899  -22.6273   22.9935 F   0  0  0  0  0  0
  -28.3967  -22.7600   24.8276 F   0  0  0  0  0  0
  -30.5120  -23.7639   23.6536 F   0  0  0  0  0  0
  -29.9007  -21.9145   22.7575 F   0  0  0  0  0  0
  -31.4719  -12.5262   19.1701 H   0  0  0  0  0  0
  -30.3535  -11.4318   19.9363 H   0  0  0  0  0  0
  -29.7782  -11.7372   17.5037 H   0  0  0  0  0  0
  -29.6416  -13.4631   17.7335 H   0  0  0  0  0  0
  -27.8845  -11.2844   18.9060 H   0  0  0  0  0  0
  -27.3722  -12.5329   17.8012 H   0  0  0  0  0  0
  -27.6488  -14.2527   19.4886 H   0  0  0  0  0  0
  -28.7081  -12.1275   21.4164 H   0  0  0  0  0  0
  -28.4351  -13.8046   21.8119 H   0  0  0  0  0  0
  -25.2758   -9.5676   22.4787 H   0  0  0  0  0  0
  -23.9992   -7.4631   22.7480 H   0  0  0  0  0  0
  -21.0851   -8.8789   19.8949 H   0  0  0  0  0  0
  -22.3722  -10.9683   19.6173 H   0  0  0  0  0  0
  -21.2008   -7.6150   23.9728 H   0  0  0  0  0  0
  -21.1479   -6.0523   25.9083 H   0  0  0  0  0  0
  -22.0595   -2.7617   23.2843 H   0  0  0  0  0  0
  -22.4047  -11.9843   22.4766 H   0  0  0  0  0  0
  -21.1090  -13.1264   22.2635 H   0  0  0  0  0  0
  -24.6540  -15.8448   20.5142 H   0  0  0  0  0  0
  -26.2659  -15.6276   20.0608 H   0  0  0  0  0  0
  -26.7189  -32.5426   23.1061 H   0  0  0  0  0  0
  -25.0101  -33.9716   25.0421 H   0  0  0  0  0  0
  -22.7171  -31.3027   21.3974 H   0  0  0  0  0  0
  -23.3765  -35.9602   23.3298 H   0  0  0  0  0  0
  -24.3579  -36.8907   22.2056 H   0  0  0  0  0  0
  -23.7237  -37.6470   23.6676 H   0  0  0  0  0  0
  -26.0957  -31.5408   20.6002 H   0  0  0  0  0  0
  -26.8460  -30.8310   21.9989 H   0  0  0  0  0  0
  -28.1143  -28.9532   21.1821 H   0  0  0  0  0  0
  -25.9107  -25.8939   19.0517 H   0  0  0  0  0  0
  -23.9566  -27.2937   19.0390 H   0  0  0  0  0  0
  -23.7551  -30.5897   19.4009 H   0  0  0  0  0  0
  -22.7551  -29.2449   19.8564 H   0  0  0  0  0  0
  -25.1295  -36.1906   25.0814 H   0  0  0  0  0  0
  -20.9990  -28.3243   24.1408 H   0  0  0  0  0  0
  -20.5686  -26.2276   23.3594 H   0  0  0  0  0  0
  -21.6640  -26.7431   22.1188 H   0  0  0  0  0  0
  -19.6906  -25.6294   21.1234 H   0  0  0  0  0  0
  -19.6693  -27.3203   20.6753 H   0  0  0  0  0  0
  -17.4194  -26.6694   21.4025 H   0  0  0  0  0  0
  -18.0321  -26.0059   22.9009 H   0  0  0  0  0  0
  -19.7945  -30.7272   24.2262 H   0  0  0  0  0  0
  -17.5022  -31.6273   24.5154 H   0  0  0  0  0  0
  -15.5361  -30.2978   23.7672 H   0  0  0  0  0  0
  -15.8675  -28.0826   22.7062 H   0  0  0  0  0  0
  -24.5919  -30.7020   25.7745 H   0  0  0  0  0  0
  -24.8881  -32.2856   26.4853 H   0  0  0  0  0  0
  -25.8045  -30.8885   27.0210 H   0  0  0  0  0  0
  -26.2945  -29.6768   24.1167 H   0  0  0  0  0  0
  -27.4073  -29.7269   25.4645 H   0  0  0  0  0  0
  -27.8792  -30.4336   23.9367 H   0  0  0  0  0  0
  -27.2662  -33.3649   26.2030 H   0  0  0  0  0  0
  -28.3889  -32.6850   25.0348 H   0  0  0  0  0  0
  -28.0670  -31.8472   26.5453 H   0  0  0  0  0  0
  -28.2580  -38.0107   24.7525 H   0  0  0  0  0  0
  -28.1080  -36.2637   24.6287 H   0  0  0  0  0  0
  -27.2287  -37.1429   25.8870 H   0  0  0  0  0  0
  -20.9358  -29.8788   21.6928 H   0  0  0  0  0  0
  -26.0161  -38.2839   24.1423 H   0  0  0  0  0  0
  -25.1317  -21.8183   18.9785 H   0  0  0  0  0  0
  -25.8095  -22.6966   20.3282 H   0  0  0  0  0  0
  -26.0725  -20.9622   20.1874 H   0  0  0  0  0  0
  -26.5689  -21.0942   17.0188 H   0  0  0  0  0  0
  -27.4487  -20.0599   18.1241 H   0  0  0  0  0  0
  -28.3190  -21.2109   17.1090 H   0  0  0  0  0  0
  -31.2293  -24.2750   19.9433 H   0  0  0  0  0  0
  -31.2350  -22.6391   20.5903 H   0  0  0  0  0  0
  -31.8915  -23.9636   21.5345 H   0  0  0  0  0  0
  -27.5407  -25.2577   22.8955 H   0  0  0  0  0  0
  -28.4961  -25.3500   24.3717 H   0  0  0  0  0  0
  -26.8362  -24.7705   24.4279 H   0  0  0  0  0  0
  -28.2317  -18.1859   20.4832 H   0  0  0  0  0  0
  -29.2644  -18.6072   21.8176 H   0  0  0  0  0  0
  -31.2088  -17.4457   20.7856 H   0  0  0  0  0  0
  -30.3955  -17.2798   19.2660 H   0  0  0  0  0  0
  -27.6910  -24.9859   18.7925 H   0  0  0  0  0  0
  -29.3548  -25.1314   18.9678 H   0  0  0  0  0  0
  -27.1153  -23.0637   18.2290 H   0  0  0  0  0  0
  -29.6903  -24.9862   21.7509 H   0  0  0  0  0  0
  -27.6134  -23.7736   21.0261 H   0  0  0  0  0  0
  -29.4064  -22.4011   18.9736 H   0  0  0  0  0  0
  -28.1661  -20.8992   21.2308 H   0  0  0  0  0  0
  -28.8929  -15.6377   20.9320 H   0  0  0  0  0  0
  1 25  1  0  0  0
  1 30  2  0  0  0
  1 86  1  0  0  0
  2  3  1  0  0  0
  2 25  1  0  0  0
  2 92  1  0  0  0
  2 93  1  0  0  0
  3  4  1  0  0  0
  3 94  1  0  0  0
  3 95  1  0  0  0
  4  5  1  0  0  0
  4 96  1  0  0  0
  4 97  1  0  0  0
  5  6  1  0  0  0
  5 26  1  0  0  0
  5 98  1  0  0  0
  6 25  1  0  0  0
  6 99  1  0  0  0
  6100  1  0  0  0
  7  8  2  0  0  0
  7 26  1  0  0  0
  7 29  1  0  0  0
  8  9  1  0  0  0
  8 22  1  0  0  0
  9 10  1  0  0  0
  9 27  2  0  0  0
 10 11  2  0  0  0
 10 15  1  0  0  0
 11 12  1  0  0  0
 11101  1  0  0  0
 12 13  2  0  0  0
 12102  1  0  0  0
 13 14  1  0  0  0
 13 31  1  0  0  0
 14 15  2  0  0  0
 14103  1  0  0  0
 15104  1  0  0  0
 16 17  2  0  0  0
 16 21  1  0  0  0
 16 31  1  0  0  0
 17 18  1  0  0  0
 17105  1  0  0  0
 18 19  2  0  0  0
 18106  1  0  0  0
 19 20  1  0  0  0
 19 24  1  0  0  0
 20 21  2  0  0  0
 20107  1  0  0  0
 21 23  1  0  0  0
 22 28  1  0  0  0
 22 32  2  0  0  0
 26 27  1  0  0  0
 28108  1  0  0  0
 28109  1  0  0  0
 29110  1  0  0  0
 29111  1  0  0  0
 33 34  1  0  0  0
 33 66  1  0  0  0
 33 70  2  0  0  0
 34 36  1  0  0  0
 34 59  1  0  0  0
 34112  1  0  0  0
 35 44  2  0  0  0
 35 45  1  0  0  0
 35 68  1  0  0  0
 36 56  1  0  0  0
 36113  1  0  0  0
 37 39  1  0  0  0
 37 47  1  0  0  0
 37 66  1  0  0  0
 37114  1  0  0  0
 38 43  2  0  0  0
 38 46  1  0  0  0
 38 47  1  0  0  0
 39 64  1  0  0  0
 39 67  2  0  0  0
 40 52  1  0  0  0
 40 53  2  0  0  0
 40 58  1  0  0  0
 41115  1  0  0  0
 41116  1  0  0  0
 41117  1  0  0  0
 41 48  1  0  0  0
 42 43  1  0  0  0
 42 66  1  0  0  0
 42118  1  0  0  0
 42119  1  0  0  0
 43 44  1  0  0  0
 44120  1  0  0  0
 45 46  2  0  0  0
 45121  1  0  0  0
 46122  1  0  0  0
 47123  1  0  0  0
 47124  1  0  0  0
 48 56  1  0  0  0
 48 65  1  0  0  0
 48125  1  0  0  0
 49 50  1  0  0  0
 49 53  1  0  0  0
 49 64  1  0  0  0
 49126  1  0  0  0
 50 51  1  0  0  0
 50127  1  0  0  0
 50128  1  0  0  0
 51 52  1  0  0  0
 51129  1  0  0  0
 51130  1  0  0  0
 52131  1  0  0  0
 52132  1  0  0  0
 53 54  1  0  0  0
 54 55  2  0  0  0
 54133  1  0  0  0
 55 57  1  0  0  0
 55134  1  0  0  0
 56 69  2  0  0  0
 57 58  2  0  0  0
 57135  1  0  0  0
 58136  1  0  0  0
 59 60  1  0  0  0
 59 61  1  0  0  0
 59 62  1  0  0  0
 60137  1  0  0  0
 60138  1  0  0  0
 60139  1  0  0  0
 61140  1  0  0  0
 61141  1  0  0  0
 61142  1  0  0  0
 62143  1  0  0  0
 62144  1  0  0  0
 62145  1  0  0  0
 63 65  1  0  0  0
 63146  1  0  0  0
 63147  1  0  0  0
 63148  1  0  0  0
 64149  1  0  0  0
 65150  1  0  0  0
 68 78  1  0  0  0
 71 76  1  0  0  0
 71 85  1  0  0  0
 71 87  2  0  0  0
 72151  1  0  0  0
 72152  1  0  0  0
 72153  1  0  0  0
 72 79  1  0  0  0
 73 79  1  0  0  0
 73154  1  0  0  0
 73155  1  0  0  0
 73156  1  0  0  0
 74157  1  0  0  0
 74158  1  0  0  0
 74159  1  0  0  0
 74 80  1  0  0  0
 75160  1  0  0  0
 75161  1  0  0  0
 75162  1  0  0  0
 75 83  1  0  0  0
 76 77  1  0  0  0
 76163  1  0  0  0
 76164  1  0  0  0
 77 86  1  0  0  0
 77165  1  0  0  0
 77166  1  0  0  0
 78167  1  0  0  0
 78168  1  0  0  0
 78 81  1  0  0  0
 79 82  1  0  0  0
 79169  1  0  0  0
 80 81  1  0  0  0
 80 84  1  0  0  0
 80170  1  0  0  0
 81 82  1  0  0  0
 81171  1  0  0  0
 82 85  1  0  0  0
 82172  1  0  0  0
 83 84  1  0  0  0
 83 88  1  0  0  0
 83 89  1  0  0  0
 84 90  1  0  0  0
 84 91  1  0  0  0
 85173  1  0  0  0
 86174  1  0  0  0
M  ISO  4   1 100  68 101  78 101  86 100
M  END
> <chiral flag>
0

> <version>
0

> <s_m_source_file>
/data/baiqing/PycharmProjects/Reinvent-master-3.2/result/LINK_invent/BTK/process_docking_weight1_custom_sum_contain_oxygen_bond_distance_aromatic_linkinvent_7_9_3/rearranged_h_0016.sdf

> <i_m_source_file_index>
58

> <r_mmod_Potential_Energy-OPLS-2005>
83.246711730957

> <r_mmod_Stretch_Energy-OPLS-2005>
117.316055297852

> <r_mmod_Bend_Energy-OPLS-2005>
182.255218505859

> <r_mmod_Torsional_Energy-OPLS-2005>
230.240036010742

> <r_mmod_Improper_Torsional_Energy-OPLS-2005>
6.28388452529907

> <r_mmod_Van_der_Waal_Energy-OPLS-2005>
124.70288848877

> <r_mmod_Electrostatic_Energy-OPLS-2005>
-423.239593505859

> <r_mmod_Solvation_Energy-OPLS-2005>
-216.641220092773

> <b_mmod_Minimization_Converged-OPLS-2005>
0

> <r_mmod_RMS_Derivative-OPLS-2005>
1.23671793937683

$$$$
58
                    3D
 Structure written by MMmdl.
162170  0  0  1  0            999 V2000
  -30.6902  -14.4437   20.5600 C   0  0  0  0  0  0
  -30.4214  -12.2854   19.4169 C   0  0  0  0  0  0
  -29.4933  -12.5003   18.2033 C   0  0  0  0  0  0
  -28.0135  -12.3661   18.6137 C   0  0  0  0  0  0
  -27.6616  -13.2005   19.8743 C   0  0  2  0  0  0
  -28.6997  -12.9625   20.9935 C   0  0  0  0  0  0
  -25.2608  -13.8142   20.5696 C   0  0  0  0  0  0
  -24.1840  -13.0432   20.9176 C   0  0  0  0  0  0
  -24.6373  -11.6890   20.8704 C   0  0  0  0  0  0
  -23.9037  -10.4283   21.0383 C   0  0  0  0  0  0
  -24.3600   -9.4205   21.9158 C   0  0  0  0  0  0
  -23.6281   -8.2236   22.0731 C   0  0  0  0  0  0
  -22.4262   -8.0273   21.3529 C   0  0  0  0  0  0
  -21.9887   -9.0239   20.4631 C   0  0  0  0  0  0
  -22.7207  -10.2121   20.3038 C   0  0  0  0  0  0
  -21.6850   -6.0728   22.5275 C   0  0  0  0  0  0
  -21.4019   -6.5637   23.8207 C   0  0  0  0  0  0
  -21.3664   -5.6790   24.9171 C   0  0  0  0  0  0
  -21.6047   -4.3053   24.7220 C   0  0  0  0  0  0
  -21.8821   -3.8144   23.4340 C   0  0  0  0  0  0
  -21.9198   -4.6957   22.3397 C   0  0  0  0  0  0
  -22.7874  -13.5243   21.1860 C   0  0  0  0  0  0
  -22.1666   -4.2143   21.0972 F   0  0  0  0  0  0
  -21.5624   -3.4541   25.7731 F   0  0  0  0  0  0
  -30.0345  -13.2593   20.4465 N   0  0  0  0  0  0
  -26.3018  -12.9295   20.3343 N   0  0  0  0  0  0
  -25.9295  -11.6461   20.5715 N   0  0  0  0  0  0
  -22.0514  -12.8224   22.0409 N   0  0  0  0  0  0
  -25.4398  -15.1855   20.4162 N   0  0  0  0  0  0
  -31.8377  -14.6178   20.1394 O   0  0  0  0  0  0
  -21.6631   -6.8868   21.4231 O   0  0  0  0  0  0
  -22.3554  -14.5554   20.6715 O   0  0  0  0  0  0
  -24.6116  -31.8704   23.2110 C   0  0  0  0  0  0
  -25.9028  -32.4833   23.8394 C   0  0  1  0  0  0
  -27.2402  -27.4618   20.0767 C   0  0  0  0  0  0
  -25.5897  -33.8631   24.2328 N   0  0  0  0  0  0
  -23.3972  -30.4933   21.5519 C   0  0  2  0  0  0
  -24.8412  -28.9571   20.1187 C   0  0  0  0  0  0
  -22.7385  -29.4676   22.5016 C   0  0  0  0  0  0
  -18.0266  -28.1377   22.8493 C   0  0  0  0  0  0
  -24.1491  -36.7322   23.2633 C   0  0  0  0  0  0
  -25.9228  -30.8397   21.3608 C   0  0  0  0  0  0
  -25.9978  -29.4738   20.7132 C   0  0  0  0  0  0
  -27.1943  -28.7277   20.6987 C   0  0  0  0  0  0
  -26.0571  -26.9416   19.5014 C   0  0  0  0  0  0
  -24.8627  -27.6867   19.5174 C   0  0  0  0  0  0
  -23.6031  -29.8222   20.1671 C   0  0  0  0  0  0
  -25.4107  -36.3120   24.0339 C   0  0  1  0  0  0
  -20.5855  -28.3659   23.1333 C   0  0  2  0  0  0
  -20.6767  -26.9401   22.5423 C   0  0  0  0  0  0
  -19.5749  -26.6389   21.5216 C   0  0  0  0  0  0
  -18.1923  -26.7924   22.1616 C   0  0  0  0  0  0
  -19.1517  -28.8832   23.2909 C   0  0  0  0  0  0
  -18.9447  -30.1443   23.8916 C   0  0  0  0  0  0
  -17.6453  -30.6586   24.0567 C   0  0  0  0  0  0
  -25.9033  -34.9487   23.5129 C   0  0  0  0  0  0
  -16.5343  -29.9089   23.6330 C   0  0  0  0  0  0
  -16.7262  -28.6507   23.0349 C   0  0  0  0  0  0
  -26.4469  -31.6607   25.0714 C   0  0  0  0  0  0
  -25.3743  -31.3737   26.1475 C   0  0  0  0  0  0
  -27.0279  -30.3046   24.6076 C   0  0  0  0  0  0
  -27.6065  -32.4311   25.7456 C   0  0  0  0  0  0
  -27.5594  -37.1804   24.8452 C   0  0  0  0  0  0
  -21.4120  -29.3025   22.3740 N   0  0  0  0  0  0
  -26.4293  -37.3805   23.9418 N   0  0  0  0  0  0
  -24.6623  -31.0823   22.1000 N   0  0  0  0  0  0
  -23.4169  -28.8225   23.3054 O   0  0  0  0  0  0
  -28.4492  -26.8017   20.0657 O   0  0  0  0  0  0
  -26.5595  -34.8935   22.4689 O   0  0  0  0  0  0
  -23.5319  -32.1451   23.7526 O   0  0  0  0  0  0
  -30.5729  -17.4514   19.7731 C   0  0  0  0  0  0
  -30.6428  -18.8172   20.1643 C   0  0  0  0  0  0
  -30.1716  -16.7778   20.8937 C   0  0  0  0  0  0
  -27.9172  -17.9076   23.2980 C   0  0  0  0  0  0
  -31.1274  -19.9937   19.3589 C   0  0  0  0  0  0
  -30.0134  -20.8755   18.7621 C   0  0  0  0  0  0
  -29.4410  -21.9414   19.7208 C   0  0  0  0  0  0
  -28.9810  -23.2036   18.9671 C   0  0  0  0  0  0
  -28.5721  -24.3704   19.8842 C   0  0  0  0  0  0
  -29.4115  -17.5652   23.2192 C   0  0  0  0  0  0
  -28.6666  -25.7234   19.1599 C   0  0  0  0  0  0
  -30.2354  -18.9734   21.4237 N   0  0  0  0  0  0
  -29.9253  -17.7258   21.8700 N   0  0  0  0  0  0
  -29.9484  -15.4473   21.0544 N   0  0  0  0  0  0
  -30.8972  -16.8307   18.1899 Cl  0  0  0  0  0  0
  -31.4664  -12.3850   19.1173 H   0  0  0  0  0  0
  -30.3195  -11.2701   19.8053 H   0  0  0  0  0  0
  -29.7305  -11.7823   17.4170 H   0  0  0  0  0  0
  -29.6668  -13.4897   17.7760 H   0  0  0  0  0  0
  -27.8186  -11.3089   18.8021 H   0  0  0  0  0  0
  -27.3661  -12.6511   17.7842 H   0  0  0  0  0  0
  -27.7123  -14.2501   19.5828 H   0  0  0  0  0  0
  -28.6669  -11.9228   21.3234 H   0  0  0  0  0  0
  -28.4644  -13.5529   21.8799 H   0  0  0  0  0  0
  -25.2754   -9.5690   22.4722 H   0  0  0  0  0  0
  -24.0008   -7.4630   22.7437 H   0  0  0  0  0  0
  -21.0820   -8.8750   19.8933 H   0  0  0  0  0  0
  -22.3666  -10.9655   19.6140 H   0  0  0  0  0  0
  -21.2029   -7.6148   23.9709 H   0  0  0  0  0  0
  -21.1482   -6.0519   25.9073 H   0  0  0  0  0  0
  -22.0611   -2.7607   23.2830 H   0  0  0  0  0  0
  -22.4128  -11.9876   22.4781 H   0  0  0  0  0  0
  -21.1129  -13.1236   22.2616 H   0  0  0  0  0  0
  -24.6838  -15.8492   20.5487 H   0  0  0  0  0  0
  -26.2960  -15.6216   20.0996 H   0  0  0  0  0  0
  -26.7095  -32.5553   23.1157 H   0  0  0  0  0  0
  -25.0068  -33.9795   25.0486 H   0  0  0  0  0  0
  -22.6843  -31.3088   21.4129 H   0  0  0  0  0  0
  -23.3759  -35.9648   23.3277 H   0  0  0  0  0  0
  -24.3599  -36.8952   22.2053 H   0  0  0  0  0  0
  -23.7232  -37.6518   23.6652 H   0  0  0  0  0  0
  -26.0302  -31.6037   20.5896 H   0  0  0  0  0  0
  -26.8131  -30.8964   21.9755 H   0  0  0  0  0  0
  -28.0908  -29.1288   21.1503 H   0  0  0  0  0  0
  -26.0348  -25.9646   19.0423 H   0  0  0  0  0  0
  -23.9687  -27.2762   19.0681 H   0  0  0  0  0  0
  -23.7096  -30.5943   19.4043 H   0  0  0  0  0  0
  -22.7278  -29.2393   19.8747 H   0  0  0  0  0  0
  -25.1280  -36.1986   25.0831 H   0  0  0  0  0  0
  -20.9943  -28.3228   24.1457 H   0  0  0  0  0  0
  -20.5692  -26.2262   23.3603 H   0  0  0  0  0  0
  -21.6642  -26.7467   22.1210 H   0  0  0  0  0  0
  -19.6919  -25.6306   21.1236 H   0  0  0  0  0  0
  -19.6698  -27.3210   20.6757 H   0  0  0  0  0  0
  -17.4202  -26.6683   21.4008 H   0  0  0  0  0  0
  -18.0312  -26.0061   22.9003 H   0  0  0  0  0  0
  -19.7926  -30.7253   24.2289 H   0  0  0  0  0  0
  -17.5012  -31.6269   24.5164 H   0  0  0  0  0  0
  -15.5345  -30.2999   23.7649 H   0  0  0  0  0  0
  -15.8654  -28.0836   22.7051 H   0  0  0  0  0  0
  -24.5879  -30.7124   25.7820 H   0  0  0  0  0  0
  -24.8981  -32.2912   26.4944 H   0  0  0  0  0  0
  -25.8096  -30.8880   27.0215 H   0  0  0  0  0  0
  -26.2807  -29.6811   24.1152 H   0  0  0  0  0  0
  -27.4072  -29.7284   25.4525 H   0  0  0  0  0  0
  -27.8636  -30.4359   23.9197 H   0  0  0  0  0  0
  -27.2708  -33.3609   26.2058 H   0  0  0  0  0  0
  -28.3854  -32.6867   25.0261 H   0  0  0  0  0  0
  -28.0748  -31.8412   26.5343 H   0  0  0  0  0  0
  -28.2590  -38.0123   24.7543 H   0  0  0  0  0  0
  -28.1110  -36.2661   24.6212 H   0  0  0  0  0  0
  -27.2326  -37.1384   25.8856 H   0  0  0  0  0  0
  -20.9278  -29.8725   21.6943 H   0  0  0  0  0  0
  -26.0187  -38.2880   24.1435 H   0  0  0  0  0  0
  -27.5542  -17.8300   24.3229 H   0  0  0  0  0  0
  -27.3248  -17.2315   22.6802 H   0  0  0  0  0  0
  -27.7259  -18.9259   22.9573 H   0  0  0  0  0  0
  -31.7330  -19.6177   18.5335 H   0  0  0  0  0  0
  -31.8143  -20.6004   19.9501 H   0  0  0  0  0  0
  -29.2187  -20.2635   18.3328 H   0  0  0  0  0  0
  -30.4656  -21.3942   17.9160 H   0  0  0  0  0  0
  -30.2077  -22.2296   20.4407 H   0  0  0  0  0  0
  -28.6227  -21.5185   20.3055 H   0  0  0  0  0  0
  -28.1627  -22.9637   18.2869 H   0  0  0  0  0  0
  -29.8058  -23.5386   18.3362 H   0  0  0  0  0  0
  -29.2358  -24.4034   20.7489 H   0  0  0  0  0  0
  -27.5662  -24.2119   20.2749 H   0  0  0  0  0  0
  -29.5863  -16.5413   23.5511 H   0  0  0  0  0  0
  -29.9826  -18.2099   23.8882 H   0  0  0  0  0  0
  -28.0371  -25.7601   18.2706 H   0  0  0  0  0  0
  -29.6839  -25.8478   18.7876 H   0  0  0  0  0  0
  -29.0870  -15.1902   21.5077 H   0  0  0  0  0  0
  1 25  1  0  0  0
  1 30  2  0  0  0
  1 84  1  0  0  0
  2  3  1  0  0  0
  2 25  1  0  0  0
  2 86  1  0  0  0
  2 87  1  0  0  0
  3  4  1  0  0  0
  3 88  1  0  0  0
  3 89  1  0  0  0
  4  5  1  0  0  0
  4 90  1  0  0  0
  4 91  1  0  0  0
  5  6  1  0  0  0
  5 26  1  0  0  0
  5 92  1  0  0  0
  6 25  1  0  0  0
  6 93  1  0  0  0
  6 94  1  0  0  0
  7  8  2  0  0  0
  7 26  1  0  0  0
  7 29  1  0  0  0
  8  9  1  0  0  0
  8 22  1  0  0  0
  9 10  1  0  0  0
  9 27  2  0  0  0
 10 11  2  0  0  0
 10 15  1  0  0  0
 11 12  1  0  0  0
 11 95  1  0  0  0
 12 13  2  0  0  0
 12 96  1  0  0  0
 13 14  1  0  0  0
 13 31  1  0  0  0
 14 15  2  0  0  0
 14 97  1  0  0  0
 15 98  1  0  0  0
 16 17  2  0  0  0
 16 21  1  0  0  0
 16 31  1  0  0  0
 17 18  1  0  0  0
 17 99  1  0  0  0
 18 19  2  0  0  0
 18100  1  0  0  0
 19 20  1  0  0  0
 19 24  1  0  0  0
 20 21  2  0  0  0
 20101  1  0  0  0
 21 23  1  0  0  0
 22 28  1  0  0  0
 22 32  2  0  0  0
 26 27  1  0  0  0
 28102  1  0  0  0
 28103  1  0  0  0
 29104  1  0  0  0
 29105  1  0  0  0
 33 34  1  0  0  0
 33 66  1  0  0  0
 33 70  2  0  0  0
 34 36  1  0  0  0
 34 59  1  0  0  0
 34106  1  0  0  0
 35 44  2  0  0  0
 35 45  1  0  0  0
 35 68  1  0  0  0
 36 56  1  0  0  0
 36107  1  0  0  0
 37 39  1  0  0  0
 37 47  1  0  0  0
 37 66  1  0  0  0
 37108  1  0  0  0
 38 43  2  0  0  0
 38 46  1  0  0  0
 38 47  1  0  0  0
 39 64  1  0  0  0
 39 67  2  0  0  0
 40 52  1  0  0  0
 40 53  2  0  0  0
 40 58  1  0  0  0
 41109  1  0  0  0
 41110  1  0  0  0
 41111  1  0  0  0
 41 48  1  0  0  0
 42 43  1  0  0  0
 42 66  1  0  0  0
 42112  1  0  0  0
 42113  1  0  0  0
 43 44  1  0  0  0
 44114  1  0  0  0
 45 46  2  0  0  0
 45115  1  0  0  0
 46116  1  0  0  0
 47117  1  0  0  0
 47118  1  0  0  0
 48 56  1  0  0  0
 48 65  1  0  0  0
 48119  1  0  0  0
 49 50  1  0  0  0
 49 53  1  0  0  0
 49 64  1  0  0  0
 49120  1  0  0  0
 50 51  1  0  0  0
 50121  1  0  0  0
 50122  1  0  0  0
 51 52  1  0  0  0
 51123  1  0  0  0
 51124  1  0  0  0
 52125  1  0  0  0
 52126  1  0  0  0
 53 54  1  0  0  0
 54 55  2  0  0  0
 54127  1  0  0  0
 55 57  1  0  0  0
 55128  1  0  0  0
 56 69  2  0  0  0
 57 58  2  0  0  0
 57129  1  0  0  0
 58130  1  0  0  0
 59 60  1  0  0  0
 59 61  1  0  0  0
 59 62  1  0  0  0
 60131  1  0  0  0
 60132  1  0  0  0
 60133  1  0  0  0
 61134  1  0  0  0
 61135  1  0  0  0
 61136  1  0  0  0
 62137  1  0  0  0
 62138  1  0  0  0
 62139  1  0  0  0
 63 65  1  0  0  0
 63140  1  0  0  0
 63141  1  0  0  0
 63142  1  0  0  0
 64143  1  0  0  0
 65144  1  0  0  0
 68 81  1  0  0  0
 71 72  1  0  0  0
 71 73  2  0  0  0
 71 85  1  0  0  0
 72 75  1  0  0  0
 72 82  2  0  0  0
 73 83  1  0  0  0
 73 84  1  0  0  0
 74 80  1  0  0  0
 74145  1  0  0  0
 74146  1  0  0  0
 74147  1  0  0  0
 75 76  1  0  0  0
 75148  1  0  0  0
 75149  1  0  0  0
 76 77  1  0  0  0
 76150  1  0  0  0
 76151  1  0  0  0
 77 78  1  0  0  0
 77152  1  0  0  0
 77153  1  0  0  0
 78 79  1  0  0  0
 78154  1  0  0  0
 78155  1  0  0  0
 79 81  1  0  0  0
 79156  1  0  0  0
 79157  1  0  0  0
 80 83  1  0  0  0
 80158  1  0  0  0
 80159  1  0  0  0
 81160  1  0  0  0
 81161  1  0  0  0
 82 83  1  0  0  0
 84162  1  0  0  0
M  ISO  4   1 100  68 101  81 101  84 100
M  END
> <chiral flag>
0

> <version>
0

> <s_m_source_file>
/data/baiqing/PycharmProjects/Reinvent-master-3.2/result/LINK_invent/BTK/process_docking_weight1_custom_sum_contain_oxygen_bond_distance_aromatic_linkinvent_7_9_3/rearranged_h_0016.sdf

> <i_m_source_file_index>
59

> <r_mmod_Potential_Energy-OPLS-2005>
-89.5089416503906

> <r_mmod_Stretch_Energy-OPLS-2005>
30.9333953857422

> <r_mmod_Bend_Energy-OPLS-2005>
120.939262390137

> <r_mmod_Torsional_Energy-OPLS-2005>
234.094512939453

> <r_mmod_Improper_Torsional_Energy-OPLS-2005>
3.30564212799072

> <r_mmod_Van_der_Waal_Energy-OPLS-2005>
127.415435791016

> <r_mmod_Electrostatic_Energy-OPLS-2005>
-406.330841064453

> <r_mmod_Solvation_Energy-OPLS-2005>
-211.694778442383

> <b_mmod_Minimization_Converged-OPLS-2005>
0

> <r_mmod_RMS_Derivative-OPLS-2005>
1.50044333934784

$$$$
59
                    3D
 Structure written by MMmdl.
157165  0  0  1  0            999 V2000
  -30.7054  -14.4532   20.6298 C   0  0  0  0  0  0
  -30.4221  -12.3128   19.4266 C   0  0  0  0  0  0
  -29.4930  -12.5327   18.2135 C   0  0  0  0  0  0
  -28.0145  -12.3882   18.6237 C   0  0  0  0  0  0
  -27.6639  -13.2103   19.8921 C   0  0  2  0  0  0
  -28.7017  -12.9641   21.0114 C   0  0  0  0  0  0
  -25.2523  -13.8133   20.5676 C   0  0  0  0  0  0
  -24.1805  -13.0408   20.9201 C   0  0  0  0  0  0
  -24.6393  -11.6888   20.8781 C   0  0  0  0  0  0
  -23.9075  -10.4278   21.0438 C   0  0  0  0  0  0
  -24.3634   -9.4195   21.9204 C   0  0  0  0  0  0
  -23.6315   -8.2223   22.0758 C   0  0  0  0  0  0
  -22.4291   -8.0273   21.3548 C   0  0  0  0  0  0
  -21.9932   -9.0252   20.4652 C   0  0  0  0  0  0
  -22.7258  -10.2126   20.3077 C   0  0  0  0  0  0
  -21.6851   -6.0745   22.5293 C   0  0  0  0  0  0
  -21.4014   -6.5645   23.8230 C   0  0  0  0  0  0
  -21.3679   -5.6799   24.9192 C   0  0  0  0  0  0
  -21.6051   -4.3060   24.7237 C   0  0  0  0  0  0
  -21.8819   -3.8150   23.4355 C   0  0  0  0  0  0
  -21.9185   -4.6969   22.3414 C   0  0  0  0  0  0
  -22.7827  -13.5189   21.1879 C   0  0  0  0  0  0
  -22.1651   -4.2155   21.0993 F   0  0  0  0  0  0
  -21.5642   -3.4546   25.7754 F   0  0  0  0  0  0
  -30.0426  -13.2728   20.4778 N   0  0  0  0  0  0
  -26.3026  -12.9351   20.3454 N   0  0  0  0  0  0
  -25.9332  -11.6505   20.5841 N   0  0  0  0  0  0
  -22.0492  -12.8167   22.0449 N   0  0  0  0  0  0
  -25.4136  -15.1835   20.3992 N   0  0  0  0  0  0
  -31.7657  -14.6938   20.0492 O   0  0  0  0  0  0
  -21.6636   -6.8881   21.4248 O   0  0  0  0  0  0
  -22.3501  -14.5507   20.6759 O   0  0  0  0  0  0
  -24.6131  -31.8682   23.2106 C   0  0  0  0  0  0
  -25.9028  -32.4826   23.8401 C   0  0  1  0  0  0
  -27.2330  -27.4368   20.0846 C   0  0  0  0  0  0
  -25.5886  -33.8624   24.2328 N   0  0  0  0  0  0
  -23.3998  -30.4925   21.5528 C   0  0  2  0  0  0
  -24.8419  -28.9593   20.1162 C   0  0  0  0  0  0
  -22.7395  -29.4654   22.4999 C   0  0  0  0  0  0
  -18.0267  -28.1368   22.8490 C   0  0  0  0  0  0
  -24.1482  -36.7322   23.2629 C   0  0  0  0  0  0
  -25.9278  -30.8332   21.3635 C   0  0  0  0  0  0
  -26.0017  -29.4677   20.7116 C   0  0  0  0  0  0
  -27.1954  -28.7122   20.6960 C   0  0  0  0  0  0
  -26.0460  -26.9357   19.4978 C   0  0  0  0  0  0
  -24.8586  -27.6909   19.5108 C   0  0  0  0  0  0
  -23.6052  -29.8276   20.1660 C   0  0  0  0  0  0
  -25.4100  -36.3115   24.0336 C   0  0  1  0  0  0
  -20.5851  -28.3650   23.1321 C   0  0  2  0  0  0
  -20.6754  -26.9393   22.5414 C   0  0  0  0  0  0
  -19.5737  -26.6384   21.5203 C   0  0  0  0  0  0
  -18.1914  -26.7916   22.1615 C   0  0  0  0  0  0
  -19.1516  -28.8827   23.2900 C   0  0  0  0  0  0
  -18.9447  -30.1433   23.8910 C   0  0  0  0  0  0
  -17.6453  -30.6571   24.0567 C   0  0  0  0  0  0
  -25.9039  -34.9480   23.5136 C   0  0  0  0  0  0
  -16.5343  -29.9076   23.6322 C   0  0  0  0  0  0
  -16.7259  -28.6494   23.0338 C   0  0  0  0  0  0
  -26.4454  -31.6594   25.0723 C   0  0  0  0  0  0
  -25.3731  -31.3702   26.1476 C   0  0  0  0  0  0
  -27.0262  -30.3032   24.6087 C   0  0  0  0  0  0
  -27.6032  -32.4307   25.7480 C   0  0  0  0  0  0
  -27.5600  -37.1788   24.8439 C   0  0  0  0  0  0
  -21.4125  -29.3027   22.3740 N   0  0  0  0  0  0
  -26.4275  -37.3818   23.9441 N   0  0  0  0  0  0
  -24.6656  -31.0785   22.1009 N   0  0  0  0  0  0
  -23.4166  -28.8192   23.3038 O   0  0  0  0  0  0
  -28.4317  -26.7473   20.0860 O   0  0  0  0  0  0
  -26.5612  -34.8938   22.4704 O   0  0  0  0  0  0
  -23.5326  -32.1439   23.7505 O   0  0  0  0  0  0
  -28.4550  -17.0446   20.9180 C   0  0  0  0  0  0
  -30.4115  -19.0033   20.4168 C   0  0  0  0  0  0
  -29.0478  -19.2851   20.1140 C   0  0  0  0  0  0
  -29.8127  -16.6988   21.0705 C   0  0  0  0  0  0
  -28.0700  -18.3095   20.4341 C   0  0  0  0  0  0
  -30.7913  -17.7124   20.8891 C   0  0  0  0  0  0
  -28.1423  -22.9509   19.4764 C   0  0  0  0  0  0
  -31.4877  -20.0671   20.2072 C   0  0  0  0  0  0
  -28.6447  -20.5464   19.3305 C   0  0  0  0  0  0
  -28.1811  -24.2723   20.2686 C   0  0  0  0  0  0
  -28.5498  -25.4969   19.3903 C   0  0  0  0  0  0
  -30.1045  -15.3473   21.4401 N   0  0  0  0  0  0
  -28.5456  -21.8112   20.0709 N   0  0  0  0  0  0
  -27.7461  -22.9577   18.3085 O   0  0  0  0  0  0
  -26.3818  -18.6085   20.2062 Cl  0  0  0  0  0  0
  -32.4530  -17.3954   21.2644 Cl  0  0  0  0  0  0
  -31.4671  -12.4133   19.1287 H   0  0  0  0  0  0
  -30.3199  -11.2945   19.8059 H   0  0  0  0  0  0
  -29.7284  -11.8248   17.4181 H   0  0  0  0  0  0
  -29.6608  -13.5269   17.7981 H   0  0  0  0  0  0
  -27.8190  -11.3313   18.8031 H   0  0  0  0  0  0
  -27.3673  -12.6816   17.7968 H   0  0  0  0  0  0
  -27.7164  -14.2631   19.6173 H   0  0  0  0  0  0
  -28.6732  -11.9212   21.3300 H   0  0  0  0  0  0
  -28.4489  -13.5363   21.9055 H   0  0  0  0  0  0
  -25.2792   -9.5662   22.4756 H   0  0  0  0  0  0
  -24.0035   -7.4603   22.7459 H   0  0  0  0  0  0
  -21.0872   -8.8788   19.8937 H   0  0  0  0  0  0
  -22.3748  -10.9681   19.6185 H   0  0  0  0  0  0
  -21.2005   -7.6148   23.9741 H   0  0  0  0  0  0
  -21.1509   -6.0526   25.9096 H   0  0  0  0  0  0
  -22.0577   -2.7615   23.2866 H   0  0  0  0  0  0
  -22.4121  -11.9803   22.4783 H   0  0  0  0  0  0
  -21.1143  -13.1206   22.2748 H   0  0  0  0  0  0
  -24.6334  -15.8249   20.4808 H   0  0  0  0  0  0
  -26.2394  -15.6203   20.0180 H   0  0  0  0  0  0
  -26.7102  -32.5525   23.1160 H   0  0  0  0  0  0
  -25.0015  -33.9794   25.0453 H   0  0  0  0  0  0
  -22.6883  -31.3097   21.4180 H   0  0  0  0  0  0
  -23.3770  -35.9626   23.3221 H   0  0  0  0  0  0
  -24.3603  -36.9012   22.2063 H   0  0  0  0  0  0
  -23.7196  -37.6487   23.6690 H   0  0  0  0  0  0
  -26.0437  -31.5982   20.5957 H   0  0  0  0  0  0
  -26.8140  -30.8807   21.9850 H   0  0  0  0  0  0
  -28.0924  -29.1086   21.1526 H   0  0  0  0  0  0
  -26.0059  -25.9637   19.0294 H   0  0  0  0  0  0
  -23.9647  -27.2887   19.0525 H   0  0  0  0  0  0
  -23.7141  -30.6051   19.4084 H   0  0  0  0  0  0
  -22.7265  -29.2505   19.8701 H   0  0  0  0  0  0
  -25.1263  -36.1971   25.0826 H   0  0  0  0  0  0
  -20.9942  -28.3217   24.1442 H   0  0  0  0  0  0
  -20.5647  -26.2266   23.3599 H   0  0  0  0  0  0
  -21.6636  -26.7424   22.1225 H   0  0  0  0  0  0
  -19.6905  -25.6298   21.1216 H   0  0  0  0  0  0
  -19.6674  -27.3210   20.6749 H   0  0  0  0  0  0
  -17.4184  -26.6658   21.4015 H   0  0  0  0  0  0
  -18.0314  -26.0040   22.9003 H   0  0  0  0  0  0
  -19.7922  -30.7242   24.2284 H   0  0  0  0  0  0
  -17.5007  -31.6252   24.5167 H   0  0  0  0  0  0
  -15.5344  -30.2989   23.7635 H   0  0  0  0  0  0
  -15.8655  -28.0827   22.7039 H   0  0  0  0  0  0
  -24.5899  -30.7044   25.7830 H   0  0  0  0  0  0
  -24.8921  -32.2853   26.4942 H   0  0  0  0  0  0
  -25.8091  -30.8870   27.0226 H   0  0  0  0  0  0
  -26.2796  -29.6821   24.1122 H   0  0  0  0  0  0
  -27.4003  -29.7240   25.4539 H   0  0  0  0  0  0
  -27.8648  -30.4342   23.9246 H   0  0  0  0  0  0
  -27.2652  -33.3600   26.2083 H   0  0  0  0  0  0
  -28.3825  -32.6878   25.0293 H   0  0  0  0  0  0
  -28.0711  -31.8411   26.5374 H   0  0  0  0  0  0
  -28.2527  -38.0177   24.7636 H   0  0  0  0  0  0
  -28.1185  -36.2720   24.6058 H   0  0  0  0  0  0
  -27.2347  -37.1194   25.8841 H   0  0  0  0  0  0
  -20.9276  -29.8778   21.6992 H   0  0  0  0  0  0
  -26.0151  -38.2871   24.1531 H   0  0  0  0  0  0
  -27.6876  -16.3169   21.1311 H   0  0  0  0  0  0
  -31.0865  -21.0780   20.1584 H   0  0  0  0  0  0
  -32.0331  -19.8762   19.2835 H   0  0  0  0  0  0
  -32.1986  -20.0746   21.0340 H   0  0  0  0  0  0
  -27.7096  -20.3723   18.7981 H   0  0  0  0  0  0
  -29.3761  -20.6810   18.5315 H   0  0  0  0  0  0
  -28.8989  -24.1866   21.0854 H   0  0  0  0  0  0
  -27.2022  -24.4229   20.7230 H   0  0  0  0  0  0
  -28.0093  -25.5183   18.4442 H   0  0  0  0  0  0
  -29.5955  -25.4020   19.0977 H   0  0  0  0  0  0
  -29.3744  -14.9076   21.9794 H   0  0  0  0  0  0
  -28.8395  -21.8267   21.0385 H   0  0  0  0  0  0
  1 25  1  0  0  0
  1 30  2  0  0  0
  1 82  1  0  0  0
  2  3  1  0  0  0
  2 25  1  0  0  0
  2 87  1  0  0  0
  2 88  1  0  0  0
  3  4  1  0  0  0
  3 89  1  0  0  0
  3 90  1  0  0  0
  4  5  1  0  0  0
  4 91  1  0  0  0
  4 92  1  0  0  0
  5  6  1  0  0  0
  5 26  1  0  0  0
  5 93  1  0  0  0
  6 25  1  0  0  0
  6 94  1  0  0  0
  6 95  1  0  0  0
  7  8  2  0  0  0
  7 26  1  0  0  0
  7 29  1  0  0  0
  8  9  1  0  0  0
  8 22  1  0  0  0
  9 10  1  0  0  0
  9 27  2  0  0  0
 10 11  2  0  0  0
 10 15  1  0  0  0
 11 12  1  0  0  0
 11 96  1  0  0  0
 12 13  2  0  0  0
 12 97  1  0  0  0
 13 14  1  0  0  0
 13 31  1  0  0  0
 14 15  2  0  0  0
 14 98  1  0  0  0
 15 99  1  0  0  0
 16 17  2  0  0  0
 16 21  1  0  0  0
 16 31  1  0  0  0
 17 18  1  0  0  0
 17100  1  0  0  0
 18 19  2  0  0  0
 18101  1  0  0  0
 19 20  1  0  0  0
 19 24  1  0  0  0
 20 21  2  0  0  0
 20102  1  0  0  0
 21 23  1  0  0  0
 22 28  1  0  0  0
 22 32  2  0  0  0
 26 27  1  0  0  0
 28103  1  0  0  0
 28104  1  0  0  0
 29105  1  0  0  0
 29106  1  0  0  0
 33 34  1  0  0  0
 33 66  1  0  0  0
 33 70  2  0  0  0
 34 36  1  0  0  0
 34 59  1  0  0  0
 34107  1  0  0  0
 35 44  2  0  0  0
 35 45  1  0  0  0
 35 68  1  0  0  0
 36 56  1  0  0  0
 36108  1  0  0  0
 37 39  1  0  0  0
 37 47  1  0  0  0
 37 66  1  0  0  0
 37109  1  0  0  0
 38 43  2  0  0  0
 38 46  1  0  0  0
 38 47  1  0  0  0
 39 64  1  0  0  0
 39 67  2  0  0  0
 40 52  1  0  0  0
 40 53  2  0  0  0
 40 58  1  0  0  0
 41110  1  0  0  0
 41111  1  0  0  0
 41112  1  0  0  0
 41 48  1  0  0  0
 42 43  1  0  0  0
 42 66  1  0  0  0
 42113  1  0  0  0
 42114  1  0  0  0
 43 44  1  0  0  0
 44115  1  0  0  0
 45 46  2  0  0  0
 45116  1  0  0  0
 46117  1  0  0  0
 47118  1  0  0  0
 47119  1  0  0  0
 48 56  1  0  0  0
 48 65  1  0  0  0
 48120  1  0  0  0
 49 50  1  0  0  0
 49 53  1  0  0  0
 49 64  1  0  0  0
 49121  1  0  0  0
 50 51  1  0  0  0
 50122  1  0  0  0
 50123  1  0  0  0
 51 52  1  0  0  0
 51124  1  0  0  0
 51125  1  0  0  0
 52126  1  0  0  0
 52127  1  0  0  0
 53 54  1  0  0  0
 54 55  2  0  0  0
 54128  1  0  0  0
 55 57  1  0  0  0
 55129  1  0  0  0
 56 69  2  0  0  0
 57 58  2  0  0  0
 57130  1  0  0  0
 58131  1  0  0  0
 59 60  1  0  0  0
 59 61  1  0  0  0
 59 62  1  0  0  0
 60132  1  0  0  0
 60133  1  0  0  0
 60134  1  0  0  0
 61135  1  0  0  0
 61136  1  0  0  0
 61137  1  0  0  0
 62138  1  0  0  0
 62139  1  0  0  0
 62140  1  0  0  0
 63 65  1  0  0  0
 63141  1  0  0  0
 63142  1  0  0  0
 63143  1  0  0  0
 64144  1  0  0  0
 65145  1  0  0  0
 68 81  1  0  0  0
 71 74  2  0  0  0
 71 75  1  0  0  0
 71146  1  0  0  0
 72 73  1  0  0  0
 72 76  2  0  0  0
 72 78  1  0  0  0
 73 75  2  0  0  0
 73 79  1  0  0  0
 74 76  1  0  0  0
 74 82  1  0  0  0
 75 85  1  0  0  0
 76 86  1  0  0  0
 77 80  1  0  0  0
 77 83  1  0  0  0
 77 84  2  0  0  0
 78147  1  0  0  0
 78148  1  0  0  0
 78149  1  0  0  0
 79 83  1  0  0  0
 79150  1  0  0  0
 79151  1  0  0  0
 80 81  1  0  0  0
 80152  1  0  0  0
 80153  1  0  0  0
 81154  1  0  0  0
 81155  1  0  0  0
 82156  1  0  0  0
 83157  1  0  0  0
M  ISO  4   1 100  68 101  81 101  82 100
M  END
> <chiral flag>
0

> <version>
0

> <s_m_source_file>
/data/baiqing/PycharmProjects/Reinvent-master-3.2/result/LINK_invent/BTK/process_docking_weight1_custom_sum_contain_oxygen_bond_distance_aromatic_linkinvent_7_9_3/rearranged_h_0016.sdf

> <i_m_source_file_index>
60

> <r_mmod_Potential_Energy-OPLS-2005>
-116.938346862793

> <r_mmod_Stretch_Energy-OPLS-2005>
40.2994384765625

> <r_mmod_Bend_Energy-OPLS-2005>
104.639404296875

> <r_mmod_Torsional_Energy-OPLS-2005>
235.081802368164

> <r_mmod_Improper_Torsional_Energy-OPLS-2005>
6.23496580123901

> <r_mmod_Van_der_Waal_Energy-OPLS-2005>
158.350082397461

> <r_mmod_Electrostatic_Energy-OPLS-2005>
-440.085205078125

> <r_mmod_Solvation_Energy-OPLS-2005>
-231.930435180664

> <b_mmod_Minimization_Converged-OPLS-2005>
0

> <r_mmod_RMS_Derivative-OPLS-2005>
2.30249857902527

$$$$
60
                    3D
 Structure written by MMmdl.
167175  0  0  1  0            999 V2000
  -30.7098  -14.4316   20.6165 C   0  0  0  0  0  0
  -30.4292  -12.2973   19.4083 C   0  0  0  0  0  0
  -29.4945  -12.5172   18.2003 C   0  0  0  0  0  0
  -28.0156  -12.3771   18.6132 C   0  0  0  0  0  0
  -27.6689  -13.2012   19.8817 C   0  0  2  0  0  0
  -28.7085  -12.9410   20.9951 C   0  0  0  0  0  0
  -25.2626  -13.8150   20.5673 C   0  0  0  0  0  0
  -24.1859  -13.0438   20.9150 C   0  0  0  0  0  0
  -24.6399  -11.6900   20.8714 C   0  0  0  0  0  0
  -23.9057  -10.4294   21.0393 C   0  0  0  0  0  0
  -24.3608   -9.4207   21.9175 C   0  0  0  0  0  0
  -23.6285   -8.2245   22.0751 C   0  0  0  0  0  0
  -22.4269   -8.0280   21.3543 C   0  0  0  0  0  0
  -21.9901   -9.0248   20.4644 C   0  0  0  0  0  0
  -22.7228  -10.2129   20.3047 C   0  0  0  0  0  0
  -21.6851   -6.0729   22.5277 C   0  0  0  0  0  0
  -21.4012   -6.5633   23.8208 C   0  0  0  0  0  0
  -21.3658   -5.6787   24.9171 C   0  0  0  0  0  0
  -21.6043   -4.3049   24.7224 C   0  0  0  0  0  0
  -21.8823   -3.8140   23.4344 C   0  0  0  0  0  0
  -21.9194   -4.6958   22.3400 C   0  0  0  0  0  0
  -22.7883  -13.5242   21.1819 C   0  0  0  0  0  0
  -22.1663   -4.2144   21.0980 F   0  0  0  0  0  0
  -21.5627   -3.4536   25.7734 F   0  0  0  0  0  0
  -30.0488  -13.2521   20.4598 N   0  0  0  0  0  0
  -26.3064  -12.9309   20.3386 N   0  0  0  0  0  0
  -25.9332  -11.6470   20.5756 N   0  0  0  0  0  0
  -22.0520  -12.8242   22.0378 N   0  0  0  0  0  0
  -25.4376  -15.1866   20.4108 N   0  0  0  0  0  0
  -31.7867  -14.6772   20.0637 O   0  0  0  0  0  0
  -21.6637   -6.8873   21.4240 O   0  0  0  0  0  0
  -22.3570  -14.5547   20.6671 O   0  0  0  0  0  0
  -24.6100  -31.8715   23.2107 C   0  0  0  0  0  0
  -25.9006  -32.4851   23.8404 C   0  0  1  0  0  0
  -27.2562  -27.4600   20.1064 C   0  0  0  0  0  0
  -25.5875  -33.8643   24.2340 N   0  0  0  0  0  0
  -23.3998  -30.4930   21.5493 C   0  0  2  0  0  0
  -24.8509  -28.9576   20.1208 C   0  0  0  0  0  0
  -22.7395  -29.4675   22.4989 C   0  0  0  0  0  0
  -18.0282  -28.1372   22.8498 C   0  0  0  0  0  0
  -24.1483  -36.7314   23.2644 C   0  0  0  0  0  0
  -25.9231  -30.8466   21.3590 C   0  0  0  0  0  0
  -26.0055  -29.4783   20.7162 C   0  0  0  0  0  0
  -27.2099  -28.7424   20.7096 C   0  0  0  0  0  0
  -26.0836  -26.9554   19.5072 C   0  0  0  0  0  0
  -24.8819  -27.6902   19.5145 C   0  0  0  0  0  0
  -23.6096  -29.8205   20.1661 C   0  0  0  0  0  0
  -25.4104  -36.3126   24.0355 C   0  0  1  0  0  0
  -20.5869  -28.3649   23.1323 C   0  0  2  0  0  0
  -20.6770  -26.9393   22.5418 C   0  0  0  0  0  0
  -19.5755  -26.6387   21.5208 C   0  0  0  0  0  0
  -18.1928  -26.7930   22.1614 C   0  0  0  0  0  0
  -19.1532  -28.8829   23.2911 C   0  0  0  0  0  0
  -18.9463  -30.1436   23.8920 C   0  0  0  0  0  0
  -17.6468  -30.6586   24.0571 C   0  0  0  0  0  0
  -25.9029  -34.9495   23.5146 C   0  0  0  0  0  0
  -16.5356  -29.9096   23.6324 C   0  0  0  0  0  0
  -16.7272  -28.6509   23.0349 C   0  0  0  0  0  0
  -26.4441  -31.6618   25.0715 C   0  0  0  0  0  0
  -25.3721  -31.3724   26.1479 C   0  0  0  0  0  0
  -27.0266  -30.3076   24.6050 C   0  0  0  0  0  0
  -27.6020  -32.4334   25.7474 C   0  0  0  0  0  0
  -27.5588  -37.1816   24.8471 C   0  0  0  0  0  0
  -21.4129  -29.3026   22.3723 N   0  0  0  0  0  0
  -26.4293  -37.3805   23.9424 N   0  0  0  0  0  0
  -24.6624  -31.0835   22.0995 N   0  0  0  0  0  0
  -23.4176  -28.8227   23.3032 O   0  0  0  0  0  0
  -28.3774  -26.6607   20.0068 O   0  0  0  0  0  0
  -26.5583  -34.8945   22.4703 O   0  0  0  0  0  0
  -23.5301  -32.1445   23.7518 O   0  0  0  0  0  0
  -30.6564  -17.4955   20.3322 C   0  0  0  0  0  0
  -29.4773  -17.4379   22.4674 C   0  0  0  0  0  0
  -29.3752  -18.8591   22.4462 C   0  0  0  0  0  0
  -30.1090  -16.7486   21.4002 C   0  0  0  0  0  0
  -29.9249  -19.5980   21.3609 C   0  0  0  0  0  0
  -30.5713  -18.9004   20.3079 C   0  0  0  0  0  0
  -28.9023  -16.6203   23.6250 C   0  0  0  0  0  0
  -28.6749  -19.5809   23.6006 C   0  0  0  0  0  0
  -32.0980  -21.1967   22.3312 C   0  0  0  0  0  0
  -29.9753  -24.2406   21.1117 C   0  0  0  0  0  0
  -29.5880  -25.5578   21.8271 C   0  0  0  0  0  0
  -30.6044  -23.2196   22.0854 C   0  0  0  0  0  0
  -29.4684  -26.7964   20.9170 C   0  0  0  0  0  0
  -30.9911  -21.8495   21.4755 C   0  0  2  0  0  0
  -30.0878  -15.3171   21.4149 N   0  0  0  0  0  0
  -29.8010  -21.0033   21.3423 N   0  0  0  0  0  0
  -31.2266  -19.7330   18.9386 Cl  0  0  0  0  0  0
  -31.4722  -12.4043   19.1041 H   0  0  0  0  0  0
  -30.3352  -11.2761   19.7819 H   0  0  0  0  0  0
  -29.7290  -11.8052   17.4082 H   0  0  0  0  0  0
  -29.6643  -13.5087   17.7781 H   0  0  0  0  0  0
  -27.8202  -11.3191   18.7944 H   0  0  0  0  0  0
  -27.3651  -12.6667   17.7870 H   0  0  0  0  0  0
  -27.7264  -14.2547   19.6074 H   0  0  0  0  0  0
  -28.6795  -11.8927   21.2961 H   0  0  0  0  0  0
  -28.4583  -13.4995   21.8972 H   0  0  0  0  0  0
  -25.2760   -9.5683   22.4737 H   0  0  0  0  0  0
  -23.9994   -7.4639   22.7477 H   0  0  0  0  0  0
  -21.0825   -8.8762   19.8956 H   0  0  0  0  0  0
  -22.3684  -10.9658   19.6145 H   0  0  0  0  0  0
  -21.2003   -7.6143   23.9710 H   0  0  0  0  0  0
  -21.1473   -6.0517   25.9073 H   0  0  0  0  0  0
  -22.0604   -2.7603   23.2844 H   0  0  0  0  0  0
  -22.4128  -11.9901   22.4766 H   0  0  0  0  0  0
  -21.1141  -13.1277   22.2585 H   0  0  0  0  0  0
  -24.6762  -15.8471   20.5241 H   0  0  0  0  0  0
  -26.3015  -15.6243   20.1161 H   0  0  0  0  0  0
  -26.7086  -32.5584   23.1186 H   0  0  0  0  0  0
  -25.0043  -33.9809   25.0499 H   0  0  0  0  0  0
  -22.6881  -31.3083   21.4077 H   0  0  0  0  0  0
  -23.3754  -35.9637   23.3314 H   0  0  0  0  0  0
  -24.3584  -36.8905   22.2055 H   0  0  0  0  0  0
  -23.7225  -37.6525   23.6638 H   0  0  0  0  0  0
  -26.0274  -31.6084   20.5848 H   0  0  0  0  0  0
  -26.8135  -30.9083   21.9730 H   0  0  0  0  0  0
  -28.0865  -29.1936   21.1475 H   0  0  0  0  0  0
  -26.1041  -25.9834   19.0339 H   0  0  0  0  0  0
  -23.9950  -27.2799   19.0510 H   0  0  0  0  0  0
  -23.7169  -30.5935   19.4042 H   0  0  0  0  0  0
  -22.7354  -29.2365   19.8724 H   0  0  0  0  0  0
  -25.1279  -36.1992   25.0847 H   0  0  0  0  0  0
  -20.9974  -28.3216   24.1437 H   0  0  0  0  0  0
  -20.5652  -26.2263   23.3601 H   0  0  0  0  0  0
  -21.6641  -26.7432   22.1213 H   0  0  0  0  0  0
  -19.6913  -25.6298   21.1226 H   0  0  0  0  0  0
  -19.6705  -27.3203   20.6746 H   0  0  0  0  0  0
  -17.4204  -26.6695   21.4005 H   0  0  0  0  0  0
  -18.0321  -26.0054   22.8991 H   0  0  0  0  0  0
  -19.7943  -30.7242   24.2294 H   0  0  0  0  0  0
  -17.5033  -31.6266   24.5171 H   0  0  0  0  0  0
  -15.5355  -30.3010   23.7637 H   0  0  0  0  0  0
  -15.8673  -28.0840   22.7045 H   0  0  0  0  0  0
  -24.5872  -30.7095   25.7830 H   0  0  0  0  0  0
  -24.8931  -32.2878   26.4961 H   0  0  0  0  0  0
  -25.8078  -30.8875   27.0221 H   0  0  0  0  0  0
  -26.2806  -29.6865   24.1079 H   0  0  0  0  0  0
  -27.4042  -29.7280   25.4480 H   0  0  0  0  0  0
  -27.8629  -30.4429   23.9190 H   0  0  0  0  0  0
  -27.2639  -33.3618   26.2094 H   0  0  0  0  0  0
  -28.3800  -32.6926   25.0282 H   0  0  0  0  0  0
  -28.0719  -31.8436   26.5354 H   0  0  0  0  0  0
  -28.2611  -38.0108   24.7510 H   0  0  0  0  0  0
  -28.1070  -36.2640   24.6285 H   0  0  0  0  0  0
  -27.2310  -37.1455   25.8875 H   0  0  0  0  0  0
  -20.9279  -29.8744   21.6944 H   0  0  0  0  0  0
  -26.0188  -38.2887   24.1420 H   0  0  0  0  0  0
  -31.1251  -17.0073   19.4920 H   0  0  0  0  0  0
  -28.6224  -17.2083   24.4961 H   0  0  0  0  0  0
  -29.6363  -15.8958   23.9788 H   0  0  0  0  0  0
  -28.0162  -16.0752   23.2983 H   0  0  0  0  0  0
  -29.2161  -19.4116   24.5312 H   0  0  0  0  0  0
  -27.6583  -19.2054   23.7183 H   0  0  0  0  0  0
  -28.5956  -20.6596   23.4835 H   0  0  0  0  0  0
  -32.9479  -21.8699   22.4490 H   0  0  0  0  0  0
  -32.4940  -20.2906   21.8720 H   0  0  0  0  0  0
  -31.7410  -20.9413   23.3298 H   0  0  0  0  0  0
  -30.6960  -24.4532   20.3206 H   0  0  0  0  0  0
  -29.0998  -23.8141   20.6200 H   0  0  0  0  0  0
  -30.3527  -25.7883   22.5700 H   0  0  0  0  0  0
  -28.6648  -25.4177   22.3909 H   0  0  0  0  0  0
  -29.9550  -23.0721   22.9497 H   0  0  0  0  0  0
  -31.5052  -23.6892   22.4842 H   0  0  0  0  0  0
  -30.3818  -26.9074   20.3327 H   0  0  0  0  0  0
  -29.4174  -27.6778   21.5500 H   0  0  0  0  0  0
  -31.4011  -22.0274   20.4801 H   0  0  0  0  0  0
  -29.3530  -14.9094   21.9717 H   0  0  0  0  0  0
  -29.0225  -21.3413   21.8955 H   0  0  0  0  0  0
  1 25  1  0  0  0
  1 30  2  0  0  0
  1 85  1  0  0  0
  2  3  1  0  0  0
  2 25  1  0  0  0
  2 88  1  0  0  0
  2 89  1  0  0  0
  3  4  1  0  0  0
  3 90  1  0  0  0
  3 91  1  0  0  0
  4  5  1  0  0  0
  4 92  1  0  0  0
  4 93  1  0  0  0
  5  6  1  0  0  0
  5 26  1  0  0  0
  5 94  1  0  0  0
  6 25  1  0  0  0
  6 95  1  0  0  0
  6 96  1  0  0  0
  7  8  2  0  0  0
  7 26  1  0  0  0
  7 29  1  0  0  0
  8  9  1  0  0  0
  8 22  1  0  0  0
  9 10  1  0  0  0
  9 27  2  0  0  0
 10 11  2  0  0  0
 10 15  1  0  0  0
 11 12  1  0  0  0
 11 97  1  0  0  0
 12 13  2  0  0  0
 12 98  1  0  0  0
 13 14  1  0  0  0
 13 31  1  0  0  0
 14 15  2  0  0  0
 14 99  1  0  0  0
 15100  1  0  0  0
 16 17  2  0  0  0
 16 21  1  0  0  0
 16 31  1  0  0  0
 17 18  1  0  0  0
 17101  1  0  0  0
 18 19  2  0  0  0
 18102  1  0  0  0
 19 20  1  0  0  0
 19 24  1  0  0  0
 20 21  2  0  0  0
 20103  1  0  0  0
 21 23  1  0  0  0
 22 28  1  0  0  0
 22 32  2  0  0  0
 26 27  1  0  0  0
 28104  1  0  0  0
 28105  1  0  0  0
 29106  1  0  0  0
 29107  1  0  0  0
 33 34  1  0  0  0
 33 66  1  0  0  0
 33 70  2  0  0  0
 34 36  1  0  0  0
 34 59  1  0  0  0
 34108  1  0  0  0
 35 44  2  0  0  0
 35 45  1  0  0  0
 35 68  1  0  0  0
 36 56  1  0  0  0
 36109  1  0  0  0
 37 39  1  0  0  0
 37 47  1  0  0  0
 37 66  1  0  0  0
 37110  1  0  0  0
 38 43  2  0  0  0
 38 46  1  0  0  0
 38 47  1  0  0  0
 39 64  1  0  0  0
 39 67  2  0  0  0
 40 52  1  0  0  0
 40 53  2  0  0  0
 40 58  1  0  0  0
 41111  1  0  0  0
 41112  1  0  0  0
 41113  1  0  0  0
 41 48  1  0  0  0
 42 43  1  0  0  0
 42 66  1  0  0  0
 42114  1  0  0  0
 42115  1  0  0  0
 43 44  1  0  0  0
 44116  1  0  0  0
 45 46  2  0  0  0
 45117  1  0  0  0
 46118  1  0  0  0
 47119  1  0  0  0
 47120  1  0  0  0
 48 56  1  0  0  0
 48 65  1  0  0  0
 48121  1  0  0  0
 49 50  1  0  0  0
 49 53  1  0  0  0
 49 64  1  0  0  0
 49122  1  0  0  0
 50 51  1  0  0  0
 50123  1  0  0  0
 50124  1  0  0  0
 51 52  1  0  0  0
 51125  1  0  0  0
 51126  1  0  0  0
 52127  1  0  0  0
 52128  1  0  0  0
 53 54  1  0  0  0
 54 55  2  0  0  0
 54129  1  0  0  0
 55 57  1  0  0  0
 55130  1  0  0  0
 56 69  2  0  0  0
 57 58  2  0  0  0
 57131  1  0  0  0
 58132  1  0  0  0
 59 60  1  0  0  0
 59 61  1  0  0  0
 59 62  1  0  0  0
 60133  1  0  0  0
 60134  1  0  0  0
 60135  1  0  0  0
 61136  1  0  0  0
 61137  1  0  0  0
 61138  1  0  0  0
 62139  1  0  0  0
 62140  1  0  0  0
 62141  1  0  0  0
 63 65  1  0  0  0
 63142  1  0  0  0
 63143  1  0  0  0
 63144  1  0  0  0
 64145  1  0  0  0
 65146  1  0  0  0
 68 83  1  0  0  0
 71 74  2  0  0  0
 71 76  1  0  0  0
 71147  1  0  0  0
 72 73  2  0  0  0
 72 74  1  0  0  0
 72 77  1  0  0  0
 73 75  1  0  0  0
 73 78  1  0  0  0
 74 85  1  0  0  0
 75 76  2  0  0  0
 75 86  1  0  0  0
 76 87  1  0  0  0
 77148  1  0  0  0
 77149  1  0  0  0
 77150  1  0  0  0
 78151  1  0  0  0
 78152  1  0  0  0
 78153  1  0  0  0
 79154  1  0  0  0
 79155  1  0  0  0
 79156  1  0  0  0
 79 84  1  0  0  0
 80 81  1  0  0  0
 80 82  1  0  0  0
 80157  1  0  0  0
 80158  1  0  0  0
 81 83  1  0  0  0
 81159  1  0  0  0
 81160  1  0  0  0
 82 84  1  0  0  0
 82161  1  0  0  0
 82162  1  0  0  0
 83163  1  0  0  0
 83164  1  0  0  0
 84 86  1  0  0  0
 84165  1  0  0  0
 85166  1  0  0  0
 86167  1  0  0  0
M  ISO  4   1 100  68 101  83 101  85 100
M  END
> <chiral flag>
0

> <version>
0

> <s_m_source_file>
/data/baiqing/PycharmProjects/Reinvent-master-3.2/result/LINK_invent/BTK/process_docking_weight1_custom_sum_contain_oxygen_bond_distance_aromatic_linkinvent_7_9_3/rearranged_h_0016.sdf

> <i_m_source_file_index>
61

> <r_mmod_Potential_Energy-OPLS-2005>
-39.2242317199707

> <r_mmod_Stretch_Energy-OPLS-2005>
39.5504188537598

> <r_mmod_Bend_Energy-OPLS-2005>
118.971305847168

> <r_mmod_Torsional_Energy-OPLS-2005>
234.378997802734

> <r_mmod_Improper_Torsional_Energy-OPLS-2005>
6.69687271118164

> <r_mmod_Van_der_Waal_Energy-OPLS-2005>
167.983642578125

> <r_mmod_Electrostatic_Energy-OPLS-2005>
-410.507385253906

> <r_mmod_Solvation_Energy-OPLS-2005>
-204.187835693359

> <b_mmod_Minimization_Converged-OPLS-2005>
0

> <r_mmod_RMS_Derivative-OPLS-2005>
1.28476274013519

$$$$
61
                    3D
 Structure written by MMmdl.
179187  0  0  1  0            999 V2000
  -30.7887  -14.3452   20.7205 C   0  0  0  0  0  0
  -30.4209  -12.2894   19.4039 C   0  0  0  0  0  0
  -29.4888  -12.5232   18.2003 C   0  0  0  0  0  0
  -28.0109  -12.4007   18.6142 C   0  0  0  0  0  0
  -27.6749  -13.2056   19.8940 C   0  0  2  0  0  0
  -28.7116  -12.9380   21.0090 C   0  0  0  0  0  0
  -25.2670  -13.8155   20.5694 C   0  0  0  0  0  0
  -24.1902  -13.0448   20.9158 C   0  0  0  0  0  0
  -24.6445  -11.6910   20.8732 C   0  0  0  0  0  0
  -23.9082  -10.4297   21.0394 C   0  0  0  0  0  0
  -24.3610   -9.4208   21.9184 C   0  0  0  0  0  0
  -23.6282   -8.2253   22.0753 C   0  0  0  0  0  0
  -22.4272   -8.0281   21.3530 C   0  0  0  0  0  0
  -21.9916   -9.0278   20.4635 C   0  0  0  0  0  0
  -22.7250  -10.2161   20.3052 C   0  0  0  0  0  0
  -21.6871   -6.0743   22.5268 C   0  0  0  0  0  0
  -21.4011   -6.5648   23.8203 C   0  0  0  0  0  0
  -21.3647   -5.6789   24.9170 C   0  0  0  0  0  0
  -21.6043   -4.3057   24.7219 C   0  0  0  0  0  0
  -21.8817   -3.8145   23.4344 C   0  0  0  0  0  0
  -21.9196   -4.6967   22.3386 C   0  0  0  0  0  0
  -22.7923  -13.5280   21.1791 C   0  0  0  0  0  0
  -22.1673   -4.2151   21.0967 F   0  0  0  0  0  0
  -21.5629   -3.4533   25.7735 F   0  0  0  0  0  0
  -30.0548  -13.2280   20.4776 N   0  0  0  0  0  0
  -26.3116  -12.9316   20.3453 N   0  0  0  0  0  0
  -25.9367  -11.6473   20.5788 N   0  0  0  0  0  0
  -22.0543  -12.8289   22.0327 N   0  0  0  0  0  0
  -25.4469  -15.1866   20.4082 N   0  0  0  0  0  0
  -31.7724  -14.6520   20.0381 O   0  0  0  0  0  0
  -21.6648   -6.8898   21.4234 O   0  0  0  0  0  0
  -22.3611  -14.5575   20.6624 O   0  0  0  0  0  0
  -24.6200  -31.8693   23.2066 C   0  0  0  0  0  0
  -25.9103  -32.4800   23.8379 C   0  0  1  0  0  0
  -27.2062  -27.4097   20.0803 C   0  0  0  0  0  0
  -25.5989  -33.8593   24.2315 N   0  0  0  0  0  0
  -23.4046  -30.5018   21.5509 C   0  0  2  0  0  0
  -24.8381  -28.9774   20.0992 C   0  0  0  0  0  0
  -22.7463  -29.4686   22.4949 C   0  0  0  0  0  0
  -18.0305  -28.1363   22.8432 C   0  0  0  0  0  0
  -24.1509  -36.7277   23.2644 C   0  0  0  0  0  0
  -25.9410  -30.8216   21.3666 C   0  0  0  0  0  0
  -26.0069  -29.4624   20.7026 C   0  0  0  0  0  0
  -27.1941  -28.6901   20.6848 C   0  0  0  0  0  0
  -26.0107  -26.9552   19.4624 C   0  0  0  0  0  0
  -24.8394  -27.7229   19.4757 C   0  0  0  0  0  0
  -23.6071  -29.8527   20.1588 C   0  0  0  0  0  0
  -25.4123  -36.3063   24.0347 C   0  0  1  0  0  0
  -20.5899  -28.3679   23.1237 C   0  0  2  0  0  0
  -20.6786  -26.9398   22.5373 C   0  0  0  0  0  0
  -19.5791  -26.6343   21.5167 C   0  0  0  0  0  0
  -18.1960  -26.7935   22.1537 C   0  0  0  0  0  0
  -19.1557  -28.8840   23.2842 C   0  0  0  0  0  0
  -18.9513  -30.1456   23.8832 C   0  0  0  0  0  0
  -17.6501  -30.6538   24.0583 C   0  0  0  0  0  0
  -25.9053  -34.9430   23.5111 C   0  0  0  0  0  0
  -16.5384  -29.9044   23.6301 C   0  0  0  0  0  0
  -16.7304  -28.6497   23.0266 C   0  0  0  0  0  0
  -26.4478  -31.6576   25.0721 C   0  0  0  0  0  0
  -25.3717  -31.3731   26.1475 C   0  0  0  0  0  0
  -27.0337  -30.3036   24.6086 C   0  0  0  0  0  0
  -27.6042  -32.4335   25.7465 C   0  0  0  0  0  0
  -27.5600  -37.1786   24.8467 C   0  0  0  0  0  0
  -21.4199  -29.3059   22.3681 N   0  0  0  0  0  0
  -26.4301  -37.3759   23.9420 N   0  0  0  0  0  0
  -24.6745  -31.0820   22.0950 N   0  0  0  0  0  0
  -23.4244  -28.8207   23.2957 O   0  0  0  0  0  0
  -28.3501  -26.6197   20.1201 O   0  0  0  0  0  0
  -26.5592  -34.8915   22.4652 O   0  0  0  0  0  0
  -23.5384  -32.1458   23.7451 O   0  0  0  0  0  0
  -30.0380  -21.0616   21.3579 C   0  0  0  0  0  0
  -27.7266  -22.3475   23.2008 C   0  0  0  0  0  0
  -28.3703  -19.9418   22.5248 C   0  0  0  0  0  0
  -29.9013  -20.0470   22.4671 C   0  0  1  0  0  0
  -27.8170  -21.3098   22.0427 C   0  0  1  0  0  0
  -27.4288  -21.8937   24.6263 C   0  0  0  0  0  0
  -26.3940  -20.2807   20.0577 C   0  0  0  0  0  0
  -25.3438  -20.5072   22.3151 C   0  0  0  0  0  0
  -29.8720  -17.3778   24.1660 C   0  0  0  0  0  0
  -29.2128  -24.2096   20.3136 C   0  0  0  0  0  0
  -28.7305  -22.7572   20.0151 C   0  0  0  0  0  0
  -31.0751  -16.3433   22.1624 C   0  0  0  0  0  0
  -28.1083  -25.2132   19.9245 C   0  0  0  0  0  0
  -26.4060  -21.1159   21.3651 C   0  0  0  0  0  0
  -30.0905  -17.4549   22.6254 C   0  0  2  0  0  0
  -28.8967  -21.7426   21.1015 N   0  0  0  0  0  0
  -30.4254  -15.0791   21.7865 N   0  0  0  0  0  0
  -31.1802  -21.2467   20.6697 N   0  3  0  0  0  0
  -30.6242  -18.7748   22.1620 N   0  3  0  0  0  0
  -27.8349  -23.5554   22.9877 O   0  0  0  0  0  0
  -31.4634  -12.3948   19.0942 H   0  0  0  0  0  0
  -30.3268  -11.2625   19.7606 H   0  0  0  0  0  0
  -29.7122  -11.8078   17.4086 H   0  0  0  0  0  0
  -29.6749  -13.5097   17.7754 H   0  0  0  0  0  0
  -27.7982  -11.3452   18.7765 H   0  0  0  0  0  0
  -27.3668  -12.7219   17.7952 H   0  0  0  0  0  0
  -27.7393  -14.2619   19.6322 H   0  0  0  0  0  0
  -28.6724  -11.8927   21.3232 H   0  0  0  0  0  0
  -28.4665  -13.5195   21.8975 H   0  0  0  0  0  0
  -25.2771   -9.5705   22.4751 H   0  0  0  0  0  0
  -23.9994   -7.4663   22.7480 H   0  0  0  0  0  0
  -21.0857   -8.8790   19.8943 H   0  0  0  0  0  0
  -22.3702  -10.9697   19.6151 H   0  0  0  0  0  0
  -21.1990   -7.6163   23.9708 H   0  0  0  0  0  0
  -21.1467   -6.0531   25.9074 H   0  0  0  0  0  0
  -22.0596   -2.7609   23.2841 H   0  0  0  0  0  0
  -22.4106  -11.9960   22.4767 H   0  0  0  0  0  0
  -21.1138  -13.1331   22.2435 H   0  0  0  0  0  0
  -24.6930  -15.8540   20.5167 H   0  0  0  0  0  0
  -26.3019  -15.6064   20.0635 H   0  0  0  0  0  0
  -26.7174  -32.5449   23.1117 H   0  0  0  0  0  0
  -25.0294  -33.9721   25.0571 H   0  0  0  0  0  0
  -22.6937  -31.3197   21.4192 H   0  0  0  0  0  0
  -23.3780  -35.9607   23.3281 H   0  0  0  0  0  0
  -24.3649  -36.8886   22.2076 H   0  0  0  0  0  0
  -23.7224  -37.6452   23.6682 H   0  0  0  0  0  0
  -26.0795  -31.5864   20.6030 H   0  0  0  0  0  0
  -26.8205  -30.8484   21.9995 H   0  0  0  0  0  0
  -28.0945  -29.0619   21.1547 H   0  0  0  0  0  0
  -25.9366  -26.0020   18.9621 H   0  0  0  0  0  0
  -23.9483  -27.3403   18.9966 H   0  0  0  0  0  0
  -23.7171  -30.6390   19.4101 H   0  0  0  0  0  0
  -22.7250  -29.2878   19.8537 H   0  0  0  0  0  0
  -25.1271  -36.1925   25.0838 H   0  0  0  0  0  0
  -20.9992  -28.3232   24.1363 H   0  0  0  0  0  0
  -20.5621  -26.2299   23.3579 H   0  0  0  0  0  0
  -21.6669  -26.7339   22.1231 H   0  0  0  0  0  0
  -19.6969  -25.6244   21.1215 H   0  0  0  0  0  0
  -19.6771  -27.3144   20.6718 H   0  0  0  0  0  0
  -17.4245  -26.6694   21.3927 H   0  0  0  0  0  0
  -18.0327  -26.0047   22.8893 H   0  0  0  0  0  0
  -19.7987  -30.7307   24.2097 H   0  0  0  0  0  0
  -17.5056  -31.6181   24.5252 H   0  0  0  0  0  0
  -15.5420  -30.2942   23.7666 H   0  0  0  0  0  0
  -15.8700  -28.0866   22.6899 H   0  0  0  0  0  0
  -24.5962  -30.6967   25.7870 H   0  0  0  0  0  0
  -24.8825  -32.2906   26.4782 H   0  0  0  0  0  0
  -25.8060  -30.9060   27.0328 H   0  0  0  0  0  0
  -26.2888  -29.6782   24.1152 H   0  0  0  0  0  0
  -27.4189  -29.7264   25.4489 H   0  0  0  0  0  0
  -27.8670  -30.4401   23.9183 H   0  0  0  0  0  0
  -27.2662  -33.3675   26.1977 H   0  0  0  0  0  0
  -28.3859  -32.6847   25.0279 H   0  0  0  0  0  0
  -28.0720  -31.8527   26.5424 H   0  0  0  0  0  0
  -28.2560  -38.0135   24.7524 H   0  0  0  0  0  0
  -28.1129  -36.2648   24.6224 H   0  0  0  0  0  0
  -27.2349  -37.1312   25.8878 H   0  0  0  0  0  0
  -20.9356  -29.8869   21.6987 H   0  0  0  0  0  0
  -26.0169  -38.2834   24.1435 H   0  0  0  0  0  0
  -28.0242  -19.6438   23.5096 H   0  0  0  0  0  0
  -28.0210  -19.1637   21.8538 H   0  0  0  0  0  0
  -30.2914  -20.4768   23.3907 H   0  0  0  0  0  0
  -26.8288  -20.9868   24.6608 H   0  0  0  0  0  0
  -26.8760  -22.6759   25.1481 H   0  0  0  0  0  0
  -28.3598  -21.7278   25.1652 H   0  0  0  0  0  0
  -27.1376  -20.6037   19.3309 H   0  0  0  0  0  0
  -25.4228  -20.3685   19.5638 H   0  0  0  0  0  0
  -26.5502  -19.2147   20.2352 H   0  0  0  0  0  0
  -25.1360  -21.1426   23.1751 H   0  0  0  0  0  0
  -25.6478  -19.5296   22.6924 H   0  0  0  0  0  0
  -24.3901  -20.3606   21.8034 H   0  0  0  0  0  0
  -29.4589  -16.4104   24.4692 H   0  0  0  0  0  0
  -29.1647  -18.1173   24.5356 H   0  0  0  0  0  0
  -30.7958  -17.5211   24.7322 H   0  0  0  0  0  0
  -30.1057  -24.4216   19.7271 H   0  0  0  0  0  0
  -29.5072  -24.3414   21.3520 H   0  0  0  0  0  0
  -29.2405  -22.3885   19.1250 H   0  0  0  0  0  0
  -27.6871  -22.7848   19.7126 H   0  0  0  0  0  0
  -31.8126  -16.1374   22.9394 H   0  0  0  0  0  0
  -31.6572  -16.7131   21.3142 H   0  0  0  0  0  0
  -27.2386  -24.9299   20.5238 H   0  0  0  0  0  0
  -27.8642  -25.0347   18.8783 H   0  0  0  0  0  0
  -26.0272  -22.1073   21.1110 H   0  0  0  0  0  0
  -29.1358  -17.2868   22.1241 H   0  0  0  0  0  0
  -29.6323  -14.7629   22.3257 H   0  0  0  0  0  0
  -32.0690  -20.8555   20.9417 H   0  0  0  0  0  0
  -31.2097  -21.9013   19.9031 H   0  0  0  0  0  0
  -31.5824  -18.8674   22.4657 H   0  0  0  0  0  0
  -30.6577  -18.7296   21.1529 H   0  0  0  0  0  0
  1 25  1  0  0  0
  1 30  2  0  0  0
  1 87  1  0  0  0
  2  3  1  0  0  0
  2 25  1  0  0  0
  2 91  1  0  0  0
  2 92  1  0  0  0
  3  4  1  0  0  0
  3 93  1  0  0  0
  3 94  1  0  0  0
  4  5  1  0  0  0
  4 95  1  0  0  0
  4 96  1  0  0  0
  5  6  1  0  0  0
  5 26  1  0  0  0
  5 97  1  0  0  0
  6 25  1  0  0  0
  6 98  1  0  0  0
  6 99  1  0  0  0
  7  8  2  0  0  0
  7 26  1  0  0  0
  7 29  1  0  0  0
  8  9  1  0  0  0
  8 22  1  0  0  0
  9 10  1  0  0  0
  9 27  2  0  0  0
 10 11  2  0  0  0
 10 15  1  0  0  0
 11 12  1  0  0  0
 11100  1  0  0  0
 12 13  2  0  0  0
 12101  1  0  0  0
 13 14  1  0  0  0
 13 31  1  0  0  0
 14 15  2  0  0  0
 14102  1  0  0  0
 15103  1  0  0  0
 16 17  2  0  0  0
 16 21  1  0  0  0
 16 31  1  0  0  0
 17 18  1  0  0  0
 17104  1  0  0  0
 18 19  2  0  0  0
 18105  1  0  0  0
 19 20  1  0  0  0
 19 24  1  0  0  0
 20 21  2  0  0  0
 20106  1  0  0  0
 21 23  1  0  0  0
 22 28  1  0  0  0
 22 32  2  0  0  0
 26 27  1  0  0  0
 28107  1  0  0  0
 28108  1  0  0  0
 29109  1  0  0  0
 29110  1  0  0  0
 33 34  1  0  0  0
 33 66  1  0  0  0
 33 70  2  0  0  0
 34 36  1  0  0  0
 34 59  1  0  0  0
 34111  1  0  0  0
 35 44  2  0  0  0
 35 45  1  0  0  0
 35 68  1  0  0  0
 36 56  1  0  0  0
 36112  1  0  0  0
 37 39  1  0  0  0
 37 47  1  0  0  0
 37 66  1  0  0  0
 37113  1  0  0  0
 38 43  2  0  0  0
 38 46  1  0  0  0
 38 47  1  0  0  0
 39 64  1  0  0  0
 39 67  2  0  0  0
 40 52  1  0  0  0
 40 53  2  0  0  0
 40 58  1  0  0  0
 41114  1  0  0  0
 41115  1  0  0  0
 41116  1  0  0  0
 41 48  1  0  0  0
 42 43  1  0  0  0
 42 66  1  0  0  0
 42117  1  0  0  0
 42118  1  0  0  0
 43 44  1  0  0  0
 44119  1  0  0  0
 45 46  2  0  0  0
 45120  1  0  0  0
 46121  1  0  0  0
 47122  1  0  0  0
 47123  1  0  0  0
 48 56  1  0  0  0
 48 65  1  0  0  0
 48124  1  0  0  0
 49 50  1  0  0  0
 49 53  1  0  0  0
 49 64  1  0  0  0
 49125  1  0  0  0
 50 51  1  0  0  0
 50126  1  0  0  0
 50127  1  0  0  0
 51 52  1  0  0  0
 51128  1  0  0  0
 51129  1  0  0  0
 52130  1  0  0  0
 52131  1  0  0  0
 53 54  1  0  0  0
 54 55  2  0  0  0
 54132  1  0  0  0
 55 57  1  0  0  0
 55133  1  0  0  0
 56 69  2  0  0  0
 57 58  2  0  0  0
 57134  1  0  0  0
 58135  1  0  0  0
 59 60  1  0  0  0
 59 61  1  0  0  0
 59 62  1  0  0  0
 60136  1  0  0  0
 60137  1  0  0  0
 60138  1  0  0  0
 61139  1  0  0  0
 61140  1  0  0  0
 61141  1  0  0  0
 62142  1  0  0  0
 62143  1  0  0  0
 62144  1  0  0  0
 63 65  1  0  0  0
 63145  1  0  0  0
 63146  1  0  0  0
 63147  1  0  0  0
 64148  1  0  0  0
 65149  1  0  0  0
 68 83  1  0  0  0
 71 74  1  0  0  0
 71 86  1  0  0  0
 71 88  2  0  0  0
 72 76  1  0  0  0
 72 90  2  0  0  0
 72 75  1  0  0  0
 73 74  1  0  0  0
 73 75  1  0  0  0
 73150  1  0  0  0
 73151  1  0  0  0
 74 89  1  0  0  0
 74152  1  0  0  0
 75 84  1  0  0  0
 75 86  1  0  0  0
 76153  1  0  0  0
 76154  1  0  0  0
 76155  1  0  0  0
 77156  1  0  0  0
 77157  1  0  0  0
 77158  1  0  0  0
 77 84  1  0  0  0
 78 84  1  0  0  0
 78159  1  0  0  0
 78160  1  0  0  0
 78161  1  0  0  0
 79162  1  0  0  0
 79163  1  0  0  0
 79164  1  0  0  0
 79 85  1  0  0  0
 80 81  1  0  0  0
 80 83  1  0  0  0
 80165  1  0  0  0
 80166  1  0  0  0
 81 86  1  0  0  0
 81167  1  0  0  0
 81168  1  0  0  0
 82 85  1  0  0  0
 82 87  1  0  0  0
 82169  1  0  0  0
 82170  1  0  0  0
 83171  1  0  0  0
 83172  1  0  0  0
 84173  1  0  0  0
 85 89  1  0  0  0
 85174  1  0  0  0
 87175  1  0  0  0
 88176  1  0  0  0
 88177  1  0  0  0
 89178  1  0  0  0
 89179  1  0  0  0
M  CHG  2  88   1  89   1
M  ISO  4   1 100  68 101  83 101  87 100
M  END
> <chiral flag>
0

> <version>
0

> <s_m_source_file>
/data/baiqing/PycharmProjects/Reinvent-master-3.2/result/LINK_invent/BTK/process_docking_weight1_custom_sum_contain_oxygen_bond_distance_aromatic_linkinvent_7_9_3/rearranged_h_0016.sdf

> <i_m_source_file_index>
62

> <r_mmod_Potential_Energy-OPLS-2005>
-366.930603027344

> <r_mmod_Stretch_Energy-OPLS-2005>
48.1939811706543

> <r_mmod_Bend_Energy-OPLS-2005>
163.359954833984

> <r_mmod_Torsional_Energy-OPLS-2005>
287.388824462891

> <r_mmod_Improper_Torsional_Energy-OPLS-2005>
2.34131002426147

> <r_mmod_Van_der_Waal_Energy-OPLS-2005>
156.699737548828

> <r_mmod_Electrostatic_Energy-OPLS-2005>
15.6237373352051

> <r_mmod_Solvation_Energy-OPLS-2005>
-1054.44445800781

> <b_mmod_Minimization_Converged-OPLS-2005>
0

> <r_mmod_RMS_Derivative-OPLS-2005>
5.94786357879639

$$$$
62
                    3D
 Structure written by MMmdl.
162170  0  0  1  0            999 V2000
  -30.6201  -14.6224   20.5052 C   0  0  0  0  0  0
  -30.4407  -12.3827   19.4477 C   0  0  0  0  0  0
  -29.5077  -12.5092   18.2225 C   0  0  0  0  0  0
  -28.0305  -12.3465   18.6350 C   0  0  0  0  0  0
  -27.6560  -13.2129   19.8669 C   0  0  2  0  0  0
  -28.7002  -13.0520   20.9947 C   0  0  0  0  0  0
  -25.2573  -13.8163   20.5687 C   0  0  0  0  0  0
  -24.1831  -13.0434   20.9184 C   0  0  0  0  0  0
  -24.6395  -11.6904   20.8734 C   0  0  0  0  0  0
  -23.9063  -10.4290   21.0404 C   0  0  0  0  0  0
  -24.3612   -9.4208   21.9184 C   0  0  0  0  0  0
  -23.6288   -8.2244   22.0755 C   0  0  0  0  0  0
  -22.4272   -8.0279   21.3544 C   0  0  0  0  0  0
  -21.9907   -9.0253   20.4647 C   0  0  0  0  0  0
  -22.7234  -10.2132   20.3055 C   0  0  0  0  0  0
  -21.6853   -6.0733   22.5279 C   0  0  0  0  0  0
  -21.4013   -6.5638   23.8211 C   0  0  0  0  0  0
  -21.3659   -5.6791   24.9172 C   0  0  0  0  0  0
  -21.6044   -4.3053   24.7225 C   0  0  0  0  0  0
  -21.8818   -3.8145   23.4346 C   0  0  0  0  0  0
  -21.9192   -4.6961   22.3402 C   0  0  0  0  0  0
  -22.7854  -13.5232   21.1849 C   0  0  0  0  0  0
  -22.1660   -4.2147   21.0979 F   0  0  0  0  0  0
  -21.5630   -3.4537   25.7737 F   0  0  0  0  0  0
  -30.0180  -13.3946   20.4348 N   0  0  0  0  0  0
  -26.3002  -12.9339   20.3335 N   0  0  0  0  0  0
  -25.9324  -11.6497   20.5761 N   0  0  0  0  0  0
  -22.0494  -12.8225   22.0404 N   0  0  0  0  0  0
  -25.4287  -15.1884   20.4106 N   0  0  0  0  0  0
  -31.7806  -14.7967   20.1217 O   0  0  0  0  0  0
  -21.6637   -6.8876   21.4241 O   0  0  0  0  0  0
  -22.3544  -14.5543   20.6704 O   0  0  0  0  0  0
  -24.6254  -31.8608   23.2035 C   0  0  0  0  0  0
  -25.9103  -32.4786   23.8361 C   0  0  1  0  0  0
  -27.2253  -27.3301   20.1112 C   0  0  0  0  0  0
  -25.5919  -33.8585   24.2285 N   0  0  0  0  0  0
  -23.4183  -30.4855   21.5458 C   0  0  2  0  0  0
  -24.8643  -28.9429   20.1109 C   0  0  0  0  0  0
  -22.7471  -29.4634   22.4938 C   0  0  0  0  0  0
  -18.0286  -28.1382   22.8490 C   0  0  0  0  0  0
  -24.1486  -36.7298   23.2641 C   0  0  0  0  0  0
  -25.9590  -30.7950   21.3729 C   0  0  0  0  0  0
  -26.0331  -29.4237   20.7142 C   0  0  0  0  0  0
  -27.2165  -28.6291   20.7045 C   0  0  0  0  0  0
  -26.0319  -26.9012   19.4830 C   0  0  0  0  0  0
  -24.8653  -27.6866   19.4872 C   0  0  0  0  0  0
  -23.6318  -29.8215   20.1608 C   0  0  0  0  0  0
  -25.4110  -36.3089   24.0332 C   0  0  1  0  0  0
  -20.5887  -28.3688   23.1283 C   0  0  2  0  0  0
  -20.6774  -26.9412   22.5406 C   0  0  0  0  0  0
  -19.5750  -26.6383   21.5211 C   0  0  0  0  0  0
  -18.1931  -26.7929   22.1623 C   0  0  0  0  0  0
  -19.1539  -28.8851   23.2885 C   0  0  0  0  0  0
  -18.9464  -30.1454   23.8901 C   0  0  0  0  0  0
  -17.6463  -30.6586   24.0566 C   0  0  0  0  0  0
  -25.9046  -34.9457   23.5109 C   0  0  0  0  0  0
  -16.5356  -29.9086   23.6330 C   0  0  0  0  0  0
  -16.7274  -28.6503   23.0353 C   0  0  0  0  0  0
  -26.4488  -31.6594   25.0731 C   0  0  0  0  0  0
  -25.3721  -31.3732   26.1459 C   0  0  0  0  0  0
  -27.0337  -30.3024   24.6177 C   0  0  0  0  0  0
  -27.6048  -32.4330   25.7500 C   0  0  0  0  0  0
  -27.5579  -37.1806   24.8466 C   0  0  0  0  0  0
  -21.4185  -29.3049   22.3684 N   0  0  0  0  0  0
  -26.4291  -37.3782   23.9411 N   0  0  0  0  0  0
  -24.6865  -31.0631   22.0979 N   0  0  0  0  0  0
  -23.4202  -28.8168   23.3007 O   0  0  0  0  0  0
  -28.3492  -26.4917   20.1614 O   0  0  0  0  0  0
  -26.5618  -34.8922   22.4678 O   0  0  0  0  0  0
  -23.5419  -32.1398   23.7368 O   0  0  0  0  0  0
  -30.1590  -19.2019   19.4779 C   0  0  0  0  0  0
  -29.9224  -20.0361   20.6017 C   0  0  0  0  0  0
  -29.6416  -19.3650   21.8303 C   0  0  0  0  0  0
  -29.6551  -17.9288   21.9194 C   0  0  0  0  0  0
  -29.9304  -17.1037   20.7847 C   0  0  0  0  0  0
  -30.1513  -17.7798   19.5505 C   0  0  0  0  0  0
  -29.3506  -20.1832   23.0867 C   0  0  0  0  0  0
  -29.3718  -17.2647   23.2671 C   0  0  0  0  0  0
  -29.6970  -24.4035   21.9554 C   0  0  0  0  0  0
  -30.1612  -21.5928   20.4961 C   0  0  0  0  0  0
  -28.1365  -25.0316   20.0377 C   0  0  0  0  0  0
  -29.3000  -24.0522   20.5048 C   0  0  2  0  0  0
  -29.8080  -15.6503   20.8945 N   0  0  0  0  0  0
  -28.9989  -22.5560   20.3631 N   0  3  0  0  0  0
  -30.3611  -16.9023   18.0745 Cl  0  0  0  0  0  0
  -31.4812  -12.5123   19.1449 H   0  0  0  0  0  0
  -30.3772  -11.3830   19.8804 H   0  0  0  0  0  0
  -29.7698  -11.7634   17.4710 H   0  0  0  0  0  0
  -29.6506  -13.4825   17.7503 H   0  0  0  0  0  0
  -27.8669  -11.2926   18.8628 H   0  0  0  0  0  0
  -27.3751  -12.5802   17.7953 H   0  0  0  0  0  0
  -27.6793  -14.2505   19.5337 H   0  0  0  0  0  0
  -28.7077  -12.0258   21.3653 H   0  0  0  0  0  0
  -28.4466  -13.6726   21.8554 H   0  0  0  0  0  0
  -25.2758   -9.5682   22.4757 H   0  0  0  0  0  0
  -23.9996   -7.4635   22.7474 H   0  0  0  0  0  0
  -21.0839   -8.8770   19.8951 H   0  0  0  0  0  0
  -22.3695  -10.9669   19.6161 H   0  0  0  0  0  0
  -21.2005   -7.6146   23.9714 H   0  0  0  0  0  0
  -21.1482   -6.0521   25.9075 H   0  0  0  0  0  0
  -22.0598   -2.7608   23.2847 H   0  0  0  0  0  0
  -22.4098  -11.9875   22.4780 H   0  0  0  0  0  0
  -21.1116  -13.1260   22.2615 H   0  0  0  0  0  0
  -24.6601  -15.8413   20.5182 H   0  0  0  0  0  0
  -26.2773  -15.6298   20.0800 H   0  0  0  0  0  0
  -26.7175  -32.5458   23.1113 H   0  0  0  0  0  0
  -25.0067  -33.9733   25.0432 H   0  0  0  0  0  0
  -22.7121  -31.3067   21.4034 H   0  0  0  0  0  0
  -23.3751  -35.9628   23.3299 H   0  0  0  0  0  0
  -24.3581  -36.8920   22.2056 H   0  0  0  0  0  0
  -23.7232  -37.6497   23.6663 H   0  0  0  0  0  0
  -26.0888  -31.5595   20.6056 H   0  0  0  0  0  0
  -26.8401  -30.8434   22.0011 H   0  0  0  0  0  0
  -28.1136  -28.9931   21.1857 H   0  0  0  0  0  0
  -25.9684  -25.9449   18.9861 H   0  0  0  0  0  0
  -23.9697  -27.3136   19.0093 H   0  0  0  0  0  0
  -23.7502  -30.5984   19.4045 H   0  0  0  0  0  0
  -22.7520  -29.2507   19.8581 H   0  0  0  0  0  0
  -25.1287  -36.1946   25.0825 H   0  0  0  0  0  0
  -20.9985  -28.3257   24.1402 H   0  0  0  0  0  0
  -20.5676  -26.2299   23.3604 H   0  0  0  0  0  0
  -21.6641  -26.7441   22.1197 H   0  0  0  0  0  0
  -19.6913  -25.6295   21.1238 H   0  0  0  0  0  0
  -19.6685  -27.3198   20.6746 H   0  0  0  0  0  0
  -17.4200  -26.6685   21.4025 H   0  0  0  0  0  0
  -18.0325  -26.0063   22.9010 H   0  0  0  0  0  0
  -19.7939  -30.7270   24.2268 H   0  0  0  0  0  0
  -17.5020  -31.6268   24.5165 H   0  0  0  0  0  0
  -15.5359  -30.2994   23.7648 H   0  0  0  0  0  0
  -15.8672  -28.0826   22.7066 H   0  0  0  0  0  0
  -24.5884  -30.7096   25.7784 H   0  0  0  0  0  0
  -24.8928  -32.2901   26.4901 H   0  0  0  0  0  0
  -25.8038  -30.8890   27.0228 H   0  0  0  0  0  0
  -26.2915  -29.6774   24.1198 H   0  0  0  0  0  0
  -27.4044  -29.7277   25.4675 H   0  0  0  0  0  0
  -27.8773  -30.4323   23.9395 H   0  0  0  0  0  0
  -27.2662  -33.3637   26.2065 H   0  0  0  0  0  0
  -28.3862  -32.6879   25.0328 H   0  0  0  0  0  0
  -28.0710  -31.8463   26.5424 H   0  0  0  0  0  0
  -28.2593  -38.0109   24.7515 H   0  0  0  0  0  0
  -28.1077  -36.2638   24.6282 H   0  0  0  0  0  0
  -27.2301  -37.1441   25.8871 H   0  0  0  0  0  0
  -20.9360  -29.8789   21.6912 H   0  0  0  0  0  0
  -26.0173  -38.2858   24.1409 H   0  0  0  0  0  0
  -30.3759  -19.6590   18.5231 H   0  0  0  0  0  0
  -29.0939  -21.2195   22.8788 H   0  0  0  0  0  0
  -30.2174  -20.1827   23.7485 H   0  0  0  0  0  0
  -28.5030  -19.7703   23.6346 H   0  0  0  0  0  0
  -29.8599  -17.7965   24.0830 H   0  0  0  0  0  0
  -29.7376  -16.2407   23.3279 H   0  0  0  0  0  0
  -28.2992  -17.2496   23.4614 H   0  0  0  0  0  0
  -29.9094  -25.4691   22.0508 H   0  0  0  0  0  0
  -30.5949  -23.8814   22.2827 H   0  0  0  0  0  0
  -28.8972  -24.1704   22.6592 H   0  0  0  0  0  0
  -30.8243  -21.7712   19.6486 H   0  0  0  0  0  0
  -30.7576  -21.8700   21.3639 H   0  0  0  0  0  0
  -27.2438  -24.7649   20.6065 H   0  0  0  0  0  0
  -27.9150  -24.8136   18.9921 H   0  0  0  0  0  0
  -30.1561  -24.2645   19.8624 H   0  0  0  0  0  0
  -28.9409  -15.3358   21.2994 H   0  0  0  0  0  0
  -28.2895  -22.2915   21.0275 H   0  0  0  0  0  0
  -28.6069  -22.3907   19.4484 H   0  0  0  0  0  0
  1 25  1  0  0  0
  1 30  2  0  0  0
  1 83  1  0  0  0
  2  3  1  0  0  0
  2 25  1  0  0  0
  2 86  1  0  0  0
  2 87  1  0  0  0
  3  4  1  0  0  0
  3 88  1  0  0  0
  3 89  1  0  0  0
  4  5  1  0  0  0
  4 90  1  0  0  0
  4 91  1  0  0  0
  5  6  1  0  0  0
  5 26  1  0  0  0
  5 92  1  0  0  0
  6 25  1  0  0  0
  6 93  1  0  0  0
  6 94  1  0  0  0
  7  8  2  0  0  0
  7 26  1  0  0  0
  7 29  1  0  0  0
  8  9  1  0  0  0
  8 22  1  0  0  0
  9 10  1  0  0  0
  9 27  2  0  0  0
 10 11  2  0  0  0
 10 15  1  0  0  0
 11 12  1  0  0  0
 11 95  1  0  0  0
 12 13  2  0  0  0
 12 96  1  0  0  0
 13 14  1  0  0  0
 13 31  1  0  0  0
 14 15  2  0  0  0
 14 97  1  0  0  0
 15 98  1  0  0  0
 16 17  2  0  0  0
 16 21  1  0  0  0
 16 31  1  0  0  0
 17 18  1  0  0  0
 17 99  1  0  0  0
 18 19  2  0  0  0
 18100  1  0  0  0
 19 20  1  0  0  0
 19 24  1  0  0  0
 20 21  2  0  0  0
 20101  1  0  0  0
 21 23  1  0  0  0
 22 28  1  0  0  0
 22 32  2  0  0  0
 26 27  1  0  0  0
 28102  1  0  0  0
 28103  1  0  0  0
 29104  1  0  0  0
 29105  1  0  0  0
 33 34  1  0  0  0
 33 66  1  0  0  0
 33 70  2  0  0  0
 34 36  1  0  0  0
 34 59  1  0  0  0
 34106  1  0  0  0
 35 44  2  0  0  0
 35 45  1  0  0  0
 35 68  1  0  0  0
 36 56  1  0  0  0
 36107  1  0  0  0
 37 39  1  0  0  0
 37 47  1  0  0  0
 37 66  1  0  0  0
 37108  1  0  0  0
 38 43  2  0  0  0
 38 46  1  0  0  0
 38 47  1  0  0  0
 39 64  1  0  0  0
 39 67  2  0  0  0
 40 52  1  0  0  0
 40 53  2  0  0  0
 40 58  1  0  0  0
 41109  1  0  0  0
 41110  1  0  0  0
 41111  1  0  0  0
 41 48  1  0  0  0
 42 43  1  0  0  0
 42 66  1  0  0  0
 42112  1  0  0  0
 42113  1  0  0  0
 43 44  1  0  0  0
 44114  1  0  0  0
 45 46  2  0  0  0
 45115  1  0  0  0
 46116  1  0  0  0
 47117  1  0  0  0
 47118  1  0  0  0
 48 56  1  0  0  0
 48 65  1  0  0  0
 48119  1  0  0  0
 49 50  1  0  0  0
 49 53  1  0  0  0
 49 64  1  0  0  0
 49120  1  0  0  0
 50 51  1  0  0  0
 50121  1  0  0  0
 50122  1  0  0  0
 51 52  1  0  0  0
 51123  1  0  0  0
 51124  1  0  0  0
 52125  1  0  0  0
 52126  1  0  0  0
 53 54  1  0  0  0
 54 55  2  0  0  0
 54127  1  0  0  0
 55 57  1  0  0  0
 55128  1  0  0  0
 56 69  2  0  0  0
 57 58  2  0  0  0
 57129  1  0  0  0
 58130  1  0  0  0
 59 60  1  0  0  0
 59 61  1  0  0  0
 59 62  1  0  0  0
 60131  1  0  0  0
 60132  1  0  0  0
 60133  1  0  0  0
 61134  1  0  0  0
 61135  1  0  0  0
 61136  1  0  0  0
 62137  1  0  0  0
 62138  1  0  0  0
 62139  1  0  0  0
 63 65  1  0  0  0
 63140  1  0  0  0
 63141  1  0  0  0
 63142  1  0  0  0
 64143  1  0  0  0
 65144  1  0  0  0
 68 81  1  0  0  0
 71 72  2  0  0  0
 71 76  1  0  0  0
 71145  1  0  0  0
 72 73  1  0  0  0
 72 80  1  0  0  0
 73 74  2  0  0  0
 73 77  1  0  0  0
 74 75  1  0  0  0
 74 78  1  0  0  0
 75 76  2  0  0  0
 75 83  1  0  0  0
 76 85  1  0  0  0
 77146  1  0  0  0
 77147  1  0  0  0
 77148  1  0  0  0
 78149  1  0  0  0
 78150  1  0  0  0
 78151  1  0  0  0
 79152  1  0  0  0
 79153  1  0  0  0
 79154  1  0  0  0
 79 82  1  0  0  0
 80 84  1  0  0  0
 80155  1  0  0  0
 80156  1  0  0  0
 81 82  1  0  0  0
 81157  1  0  0  0
 81158  1  0  0  0
 82 84  1  0  0  0
 82159  1  0  0  0
 83160  1  0  0  0
 84161  1  0  0  0
 84162  1  0  0  0
M  CHG  1  84   1
M  ISO  4   1 100  68 101  81 101  83 100
M  END
> <chiral flag>
0

> <version>
0

> <s_m_source_file>
/data/baiqing/PycharmProjects/Reinvent-master-3.2/result/LINK_invent/BTK/process_docking_weight1_custom_sum_contain_oxygen_bond_distance_aromatic_linkinvent_7_9_3/rearranged_h_0016.sdf

> <i_m_source_file_index>
63

> <r_mmod_Potential_Energy-OPLS-2005>
-120.648368835449

> <r_mmod_Stretch_Energy-OPLS-2005>
80.4496231079102

> <r_mmod_Bend_Energy-OPLS-2005>
130.891220092773

> <r_mmod_Torsional_Energy-OPLS-2005>
229.151763916016

> <r_mmod_Improper_Torsional_Energy-OPLS-2005>
4.74009656906128

> <r_mmod_Van_der_Waal_Energy-OPLS-2005>
149.339324951172

> <r_mmod_Electrostatic_Energy-OPLS-2005>
-295.282257080078

> <r_mmod_Solvation_Energy-OPLS-2005>
-463.462158203125

> <b_mmod_Minimization_Converged-OPLS-2005>
0

> <r_mmod_RMS_Derivative-OPLS-2005>
0.552796125411987

$$$$
63
                    3D
 Structure written by MMmdl.
157165  0  0  1  0            999 V2000
  -30.7721  -14.3430   20.6633 C   0  0  0  0  0  0
  -30.4102  -12.2530   19.4034 C   0  0  0  0  0  0
  -29.4801  -12.4933   18.1987 C   0  0  0  0  0  0
  -28.0056  -12.3605   18.6180 C   0  0  0  0  0  0
  -27.6701  -13.1947   19.8814 C   0  0  2  0  0  0
  -28.7052  -12.9315   20.9993 C   0  0  0  0  0  0
  -25.2626  -13.8165   20.5639 C   0  0  0  0  0  0
  -24.1864  -13.0467   20.9171 C   0  0  0  0  0  0
  -24.6391  -11.6924   20.8746 C   0  0  0  0  0  0
  -23.9048  -10.4307   21.0415 C   0  0  0  0  0  0
  -24.3607   -9.4214   21.9182 C   0  0  0  0  0  0
  -23.6300   -8.2244   22.0746 C   0  0  0  0  0  0
  -22.4274   -8.0278   21.3553 C   0  0  0  0  0  0
  -21.9905   -9.0244   20.4642 C   0  0  0  0  0  0
  -22.7224  -10.2135   20.3058 C   0  0  0  0  0  0
  -21.6849   -6.0736   22.5287 C   0  0  0  0  0  0
  -21.3999   -6.5634   23.8218 C   0  0  0  0  0  0
  -21.3662   -5.6793   24.9184 C   0  0  0  0  0  0
  -21.6045   -4.3056   24.7234 C   0  0  0  0  0  0
  -21.8819   -3.8145   23.4356 C   0  0  0  0  0  0
  -21.9193   -4.6964   22.3414 C   0  0  0  0  0  0
  -22.7877  -13.5262   21.1839 C   0  0  0  0  0  0
  -22.1667   -4.2149   21.0990 F   0  0  0  0  0  0
  -21.5639   -3.4541   25.7744 F   0  0  0  0  0  0
  -30.0565  -13.2041   20.4698 N   0  0  0  0  0  0
  -26.3060  -12.9312   20.3396 N   0  0  0  0  0  0
  -25.9310  -11.6479   20.5806 N   0  0  0  0  0  0
  -22.0526  -12.8240   22.0395 N   0  0  0  0  0  0
  -25.4376  -15.1861   20.3924 N   0  0  0  0  0  0
  -31.7615  -14.6252   19.9844 O   0  0  0  0  0  0
  -21.6642   -6.8874   21.4244 O   0  0  0  0  0  0
  -22.3559  -14.5575   20.6708 O   0  0  0  0  0  0
  -24.6131  -31.8678   23.2088 C   0  0  0  0  0  0
  -25.9023  -32.4848   23.8382 C   0  0  1  0  0  0
  -27.2484  -27.4572   20.0784 C   0  0  0  0  0  0
  -25.5883  -33.8643   24.2318 N   0  0  0  0  0  0
  -23.4017  -30.4874   21.5521 C   0  0  2  0  0  0
  -24.8495  -28.9583   20.1207 C   0  0  0  0  0  0
  -22.7442  -29.4614   22.5015 C   0  0  0  0  0  0
  -18.0274  -28.1379   22.8480 C   0  0  0  0  0  0
  -24.1492  -36.7300   23.2642 C   0  0  0  0  0  0
  -25.9290  -30.8444   21.3538 C   0  0  0  0  0  0
  -26.0112  -29.4789   20.7028 C   0  0  0  0  0  0
  -27.2141  -28.7391   20.6714 C   0  0  0  0  0  0
  -26.0604  -26.9479   19.4980 C   0  0  0  0  0  0
  -24.8689  -27.6908   19.5188 C   0  0  0  0  0  0
  -23.6090  -29.8177   20.1685 C   0  0  0  0  0  0
  -25.4106  -36.3106   24.0347 C   0  0  1  0  0  0
  -20.5884  -28.3620   23.1357 C   0  0  2  0  0  0
  -20.6783  -26.9369   22.5399 C   0  0  0  0  0  0
  -19.5748  -26.6387   21.5214 C   0  0  0  0  0  0
  -18.1926  -26.7930   22.1628 C   0  0  0  0  0  0
  -19.1534  -28.8826   23.2916 C   0  0  0  0  0  0
  -18.9460  -30.1455   23.8889 C   0  0  0  0  0  0
  -17.6464  -30.6577   24.0566 C   0  0  0  0  0  0
  -25.9033  -34.9485   23.5123 C   0  0  0  0  0  0
  -16.5352  -29.9073   23.6339 C   0  0  0  0  0  0
  -16.7272  -28.6517   23.0312 C   0  0  0  0  0  0
  -26.4451  -31.6620   25.0689 C   0  0  0  0  0  0
  -25.3716  -31.3739   26.1430 C   0  0  0  0  0  0
  -27.0266  -30.3076   24.5996 C   0  0  0  0  0  0
  -27.6030  -32.4312   25.7463 C   0  0  0  0  0  0
  -27.5583  -37.1801   24.8473 C   0  0  0  0  0  0
  -21.4162  -29.2999   22.3793 N   0  0  0  0  0  0
  -26.4290  -37.3778   23.9424 N   0  0  0  0  0  0
  -24.6682  -31.0783   22.0992 N   0  0  0  0  0  0
  -23.4230  -28.8152   23.3046 O   0  0  0  0  0  0
  -28.4322  -26.7492   20.0657 O   0  0  0  0  0  0
  -26.5587  -34.8940   22.4685 O   0  0  0  0  0  0
  -23.5333  -32.1402   23.7490 O   0  0  0  0  0  0
  -31.3271  -17.3591   21.4516 C   0  0  0  0  0  0
  -30.6741  -18.6262   21.5682 C   0  0  0  0  0  0
  -30.3424  -16.4446   21.7187 C   0  0  0  0  0  0
  -31.3493  -19.9482   21.3070 C   0  0  0  0  0  0
  -27.9478  -16.6789   22.6233 C   0  0  0  0  0  0
  -29.5197  -23.1520   20.6877 C   0  0  0  0  0  0
  -29.6873  -24.6401   20.3168 C   0  0  0  0  0  0
  -30.8149  -22.3198   20.6985 C   0  0  0  0  0  0
  -28.3186  -25.3349   20.2361 C   0  0  0  0  0  0
  -29.4063  -18.4796   21.9630 N   0  0  0  0  0  0
  -29.2170  -17.1473   22.1017 N   0  0  0  0  0  0
  -30.3744  -15.0879   21.7003 N   0  0  0  0  0  0
  -30.4961  -20.9186   20.9555 N   0  0  0  0  0  0
  -32.5658  -20.1188   21.4104 O   0  0  0  0  0  0
  -32.9992  -17.0605   21.0956 Cl  0  0  0  0  0  0
  -31.4549  -12.3305   19.0977 H   0  0  0  0  0  0
  -30.2922  -11.2306   19.7697 H   0  0  0  0  0  0
  -29.7024  -11.7798   17.4039 H   0  0  0  0  0  0
  -29.6590  -13.4834   17.7789 H   0  0  0  0  0  0
  -27.8111  -11.3048   18.8148 H   0  0  0  0  0  0
  -27.3479  -12.6398   17.7946 H   0  0  0  0  0  0
  -27.7328  -14.2473   19.6018 H   0  0  0  0  0  0
  -28.6534  -11.8870   21.3123 H   0  0  0  0  0  0
  -28.4518  -13.5036   21.8895 H   0  0  0  0  0  0
  -25.2745   -9.5695   22.4760 H   0  0  0  0  0  0
  -24.0016   -7.4621   22.7431 H   0  0  0  0  0  0
  -21.0852   -8.8746   19.8921 H   0  0  0  0  0  0
  -22.3669  -10.9677   19.6171 H   0  0  0  0  0  0
  -21.1970   -7.6136   23.9723 H   0  0  0  0  0  0
  -21.1488   -6.0519   25.9089 H   0  0  0  0  0  0
  -22.0593   -2.7604   23.2857 H   0  0  0  0  0  0
  -22.4155  -11.9904   22.4789 H   0  0  0  0  0  0
  -21.1139  -13.1246   22.2605 H   0  0  0  0  0  0
  -24.6651  -15.8390   20.4565 H   0  0  0  0  0  0
  -26.2784  -15.6058   20.0179 H   0  0  0  0  0  0
  -26.7098  -32.5534   23.1165 H   0  0  0  0  0  0
  -25.0058  -33.9812   25.0482 H   0  0  0  0  0  0
  -22.6854  -31.2999   21.4133 H   0  0  0  0  0  0
  -23.3759  -35.9632   23.3311 H   0  0  0  0  0  0
  -24.3594  -36.8872   22.2055 H   0  0  0  0  0  0
  -23.7257  -37.6518   23.6633 H   0  0  0  0  0  0
  -26.0263  -31.6123   20.5849 H   0  0  0  0  0  0
  -26.8238  -30.9046   21.9611 H   0  0  0  0  0  0
  -28.1179  -29.1478   21.1035 H   0  0  0  0  0  0
  -26.0311  -25.9860   19.0087 H   0  0  0  0  0  0
  -23.9772  -27.2800   19.0670 H   0  0  0  0  0  0
  -23.7170  -30.5920   19.4087 H   0  0  0  0  0  0
  -22.7354  -29.2337   19.8692 H   0  0  0  0  0  0
  -25.1294  -36.1963   25.0838 H   0  0  0  0  0  0
  -20.9947  -28.3143   24.1489 H   0  0  0  0  0  0
  -20.5703  -26.2213   23.3554 H   0  0  0  0  0  0
  -21.6655  -26.7412   22.1179 H   0  0  0  0  0  0
  -19.6904  -25.6304   21.1218 H   0  0  0  0  0  0
  -19.6727  -27.3236   20.6780 H   0  0  0  0  0  0
  -17.4197  -26.6685   21.4018 H   0  0  0  0  0  0
  -18.0305  -26.0066   22.9017 H   0  0  0  0  0  0
  -19.7941  -30.7296   24.2215 H   0  0  0  0  0  0
  -17.5013  -31.6241   24.5181 H   0  0  0  0  0  0
  -15.5357  -30.2970   23.7687 H   0  0  0  0  0  0
  -15.8672  -28.0871   22.6981 H   0  0  0  0  0  0
  -24.5893  -30.7085   25.7765 H   0  0  0  0  0  0
  -24.8915  -32.2910   26.4830 H   0  0  0  0  0  0
  -25.8040  -30.8935   27.0214 H   0  0  0  0  0  0
  -26.2790  -29.6878   24.1031 H   0  0  0  0  0  0
  -27.4075  -29.7242   25.4389 H   0  0  0  0  0  0
  -27.8593  -30.4438   23.9101 H   0  0  0  0  0  0
  -27.2662  -33.3611   26.2049 H   0  0  0  0  0  0
  -28.3845  -32.6856   25.0296 H   0  0  0  0  0  0
  -28.0684  -31.8430   26.5374 H   0  0  0  0  0  0
  -28.2590  -38.0109   24.7496 H   0  0  0  0  0  0
  -28.1094  -36.2633   24.6311 H   0  0  0  0  0  0
  -27.2302  -37.1423   25.8877 H   0  0  0  0  0  0
  -20.9312  -29.8714   21.7013 H   0  0  0  0  0  0
  -26.0186  -38.2861   24.1410 H   0  0  0  0  0  0
  -27.9086  -15.5924   22.6509 H   0  0  0  0  0  0
  -27.1295  -17.0465   22.0049 H   0  0  0  0  0  0
  -27.8213  -17.0486   23.6417 H   0  0  0  0  0  0
  -28.8118  -22.6948   19.9936 H   0  0  0  0  0  0
  -29.0564  -23.0883   21.6743 H   0  0  0  0  0  0
  -30.1903  -24.7323   19.3526 H   0  0  0  0  0  0
  -30.3209  -25.1410   21.0485 H   0  0  0  0  0  0
  -31.4937  -22.6888   21.4692 H   0  0  0  0  0  0
  -31.3364  -22.4042   19.7445 H   0  0  0  0  0  0
  -27.7584  -25.1377   21.1518 H   0  0  0  0  0  0
  -27.7738  -24.8827   19.4079 H   0  0  0  0  0  0
  -29.6430  -14.6462   22.2341 H   0  0  0  0  0  0
  -29.5283  -20.6256   20.9045 H   0  0  0  0  0  0
  1 25  1  0  0  0
  1 30  2  0  0  0
  1 82  1  0  0  0
  2  3  1  0  0  0
  2 25  1  0  0  0
  2 86  1  0  0  0
  2 87  1  0  0  0
  3  4  1  0  0  0
  3 88  1  0  0  0
  3 89  1  0  0  0
  4  5  1  0  0  0
  4 90  1  0  0  0
  4 91  1  0  0  0
  5  6  1  0  0  0
  5 26  1  0  0  0
  5 92  1  0  0  0
  6 25  1  0  0  0
  6 93  1  0  0  0
  6 94  1  0  0  0
  7  8  2  0  0  0
  7 26  1  0  0  0
  7 29  1  0  0  0
  8  9  1  0  0  0
  8 22  1  0  0  0
  9 10  1  0  0  0
  9 27  2  0  0  0
 10 11  2  0  0  0
 10 15  1  0  0  0
 11 12  1  0  0  0
 11 95  1  0  0  0
 12 13  2  0  0  0
 12 96  1  0  0  0
 13 14  1  0  0  0
 13 31  1  0  0  0
 14 15  2  0  0  0
 14 97  1  0  0  0
 15 98  1  0  0  0
 16 17  2  0  0  0
 16 21  1  0  0  0
 16 31  1  0  0  0
 17 18  1  0  0  0
 17 99  1  0  0  0
 18 19  2  0  0  0
 18100  1  0  0  0
 19 20  1  0  0  0
 19 24  1  0  0  0
 20 21  2  0  0  0
 20101  1  0  0  0
 21 23  1  0  0  0
 22 28  1  0  0  0
 22 32  2  0  0  0
 26 27  1  0  0  0
 28102  1  0  0  0
 28103  1  0  0  0
 29104  1  0  0  0
 29105  1  0  0  0
 33 34  1  0  0  0
 33 66  1  0  0  0
 33 70  2  0  0  0
 34 36  1  0  0  0
 34 59  1  0  0  0
 34106  1  0  0  0
 35 44  2  0  0  0
 35 45  1  0  0  0
 35 68  1  0  0  0
 36 56  1  0  0  0
 36107  1  0  0  0
 37 39  1  0  0  0
 37 47  1  0  0  0
 37 66  1  0  0  0
 37108  1  0  0  0
 38 43  2  0  0  0
 38 46  1  0  0  0
 38 47  1  0  0  0
 39 64  1  0  0  0
 39 67  2  0  0  0
 40 52  1  0  0  0
 40 53  2  0  0  0
 40 58  1  0  0  0
 41109  1  0  0  0
 41110  1  0  0  0
 41111  1  0  0  0
 41 48  1  0  0  0
 42 43  1  0  0  0
 42 66  1  0  0  0
 42112  1  0  0  0
 42113  1  0  0  0
 43 44  1  0  0  0
 44114  1  0  0  0
 45 46  2  0  0  0
 45115  1  0  0  0
 46116  1  0  0  0
 47117  1  0  0  0
 47118  1  0  0  0
 48 56  1  0  0  0
 48 65  1  0  0  0
 48119  1  0  0  0
 49 50  1  0  0  0
 49 53  1  0  0  0
 49 64  1  0  0  0
 49120  1  0  0  0
 50 51  1  0  0  0
 50121  1  0  0  0
 50122  1  0  0  0
 51 52  1  0  0  0
 51123  1  0  0  0
 51124  1  0  0  0
 52125  1  0  0  0
 52126  1  0  0  0
 53 54  1  0  0  0
 54 55  2  0  0  0
 54127  1  0  0  0
 55 57  1  0  0  0
 55128  1  0  0  0
 56 69  2  0  0  0
 57 58  2  0  0  0
 57129  1  0  0  0
 58130  1  0  0  0
 59 60  1  0  0  0
 59 61  1  0  0  0
 59 62  1  0  0  0
 60131  1  0  0  0
 60132  1  0  0  0
 60133  1  0  0  0
 61134  1  0  0  0
 61135  1  0  0  0
 61136  1  0  0  0
 62137  1  0  0  0
 62138  1  0  0  0
 62139  1  0  0  0
 63 65  1  0  0  0
 63140  1  0  0  0
 63141  1  0  0  0
 63142  1  0  0  0
 64143  1  0  0  0
 65144  1  0  0  0
 68 79  1  0  0  0
 71 72  1  0  0  0
 71 73  2  0  0  0
 71 85  1  0  0  0
 72 74  1  0  0  0
 72 80  2  0  0  0
 73 81  1  0  0  0
 73 82  1  0  0  0
 74 83  1  0  0  0
 74 84  2  0  0  0
 75 81  1  0  0  0
 75145  1  0  0  0
 75146  1  0  0  0
 75147  1  0  0  0
 76 77  1  0  0  0
 76 78  1  0  0  0
 76148  1  0  0  0
 76149  1  0  0  0
 77 79  1  0  0  0
 77150  1  0  0  0
 77151  1  0  0  0
 78 83  1  0  0  0
 78152  1  0  0  0
 78153  1  0  0  0
 79154  1  0  0  0
 79155  1  0  0  0
 80 81  1  0  0  0
 82156  1  0  0  0
 83157  1  0  0  0
M  ISO  4   1 100  68 101  79 101  82 100
M  END
> <chiral flag>
0

> <version>
0

> <s_m_source_file>
/data/baiqing/PycharmProjects/Reinvent-master-3.2/result/LINK_invent/BTK/process_docking_weight1_custom_sum_contain_oxygen_bond_distance_aromatic_linkinvent_7_9_3/rearranged_h_0016.sdf

> <i_m_source_file_index>
64

> <r_mmod_Potential_Energy-OPLS-2005>
-130.920333862305

> <r_mmod_Stretch_Energy-OPLS-2005>
32.441520690918

> <r_mmod_Bend_Energy-OPLS-2005>
118.719573974609

> <r_mmod_Torsional_Energy-OPLS-2005>
239.793151855469

> <r_mmod_Improper_Torsional_Energy-OPLS-2005>
5.35057497024536

> <r_mmod_Van_der_Waal_Energy-OPLS-2005>
134.365539550781

> <r_mmod_Electrostatic_Energy-OPLS-2005>
-424.057159423828

> <r_mmod_Solvation_Energy-OPLS-2005>
-245.826080322266

> <b_mmod_Minimization_Converged-OPLS-2005>
0

> <r_mmod_RMS_Derivative-OPLS-2005>
3.28767800331116

$$$$
64
                    3D
 Structure written by MMmdl.
148155  0  0  1  0            999 V2000
  -30.4052  -15.3354   20.3637 C   0  0  0  0  0  0
  -30.4388  -12.8530   19.5524 C   0  0  0  0  0  0
  -29.5460  -12.5974   18.3087 C   0  0  0  0  0  0
  -28.0958  -12.3074   18.7294 C   0  0  0  0  0  0
  -27.6122  -13.2838   19.8295 C   0  0  2  0  0  0
  -28.6374  -13.4790   20.9698 C   0  0  0  0  0  0
  -25.2378  -13.8261   20.5754 C   0  0  0  0  0  0
  -24.1735  -13.0441   20.9254 C   0  0  0  0  0  0
  -24.6400  -11.6941   20.8754 C   0  0  0  0  0  0
  -23.9100  -10.4293   21.0398 C   0  0  0  0  0  0
  -24.3642   -9.4207   21.9178 C   0  0  0  0  0  0
  -23.6305   -8.2249   22.0755 C   0  0  0  0  0  0
  -22.4285   -8.0288   21.3548 C   0  0  0  0  0  0
  -21.9926   -9.0263   20.4650 C   0  0  0  0  0  0
  -22.7268  -10.2133   20.3053 C   0  0  0  0  0  0
  -21.6856   -6.0738   22.5278 C   0  0  0  0  0  0
  -21.4019   -6.5641   23.8211 C   0  0  0  0  0  0
  -21.3660   -5.6793   24.9173 C   0  0  0  0  0  0
  -21.6044   -4.3055   24.7223 C   0  0  0  0  0  0
  -21.8819   -3.8148   23.4343 C   0  0  0  0  0  0
  -21.9193   -4.6965   22.3400 C   0  0  0  0  0  0
  -22.7750  -13.5190   21.1899 C   0  0  0  0  0  0
  -22.1662   -4.2152   21.0978 F   0  0  0  0  0  0
  -21.5626   -3.4539   25.7733 F   0  0  0  0  0  0
  -29.8693  -14.0060   20.3561 N   0  0  0  0  0  0
  -26.2815  -12.9553   20.3235 N   0  0  0  0  0  0
  -25.9342  -11.6647   20.5716 N   0  0  0  0  0  0
  -22.0410  -12.8173   22.0454 N   0  0  0  0  0  0
  -25.4003  -15.1999   20.4198 N   0  0  0  0  0  0
  -31.6103  -15.3437   20.0684 O   0  0  0  0  0  0
  -21.6648   -6.8885   21.4242 O   0  0  0  0  0  0
  -22.3429  -14.5491   20.6736 O   0  0  0  0  0  0
  -24.6669  -31.8195   23.1699 C   0  0  0  0  0  0
  -25.9333  -32.4565   23.8172 C   0  0  1  0  0  0
  -27.2076  -26.8629   20.2045 C   0  0  0  0  0  0
  -25.5987  -33.8385   24.2064 N   0  0  0  0  0  0
  -23.4849  -30.4306   21.5189 C   0  0  2  0  0  0
  -24.9420  -28.8130   20.1119 C   0  0  0  0  0  0
  -22.7690  -29.4413   22.4762 C   0  0  0  0  0  0
  -18.0328  -28.1405   22.8464 C   0  0  0  0  0  0
  -24.1496  -36.7195   23.2649 C   0  0  0  0  0  0
  -26.0575  -30.6000   21.4196 C   0  0  0  0  0  0
  -26.1209  -29.1830   20.7704 C   0  0  0  0  0  0
  -27.2415  -28.2261   20.8041 C   0  0  0  0  0  0
  -26.0288  -26.7008   19.4367 C   0  0  0  0  0  0
  -24.9250  -27.5922   19.4230 C   0  0  0  0  0  0
  -23.7308  -29.7468   20.1453 C   0  0  0  0  0  0
  -25.4138  -36.2954   24.0298 C   0  0  1  0  0  0
  -20.5956  -28.3756   23.1171 C   0  0  2  0  0  0
  -20.6801  -26.9432   22.5398 C   0  0  0  0  0  0
  -19.5774  -26.6370   21.5212 C   0  0  0  0  0  0
  -18.1958  -26.7937   22.1622 C   0  0  0  0  0  0
  -19.1591  -28.8903   23.2805 C   0  0  0  0  0  0
  -18.9501  -30.1491   23.8846 C   0  0  0  0  0  0
  -17.6494  -30.6595   24.0552 C   0  0  0  0  0  0
  -25.9106  -34.9335   23.5002 C   0  0  0  0  0  0
  -16.5383  -29.9080   23.6344 C   0  0  0  0  0  0
  -16.7310  -28.6498   23.0367 C   0  0  0  0  0  0
  -26.4565  -31.6531   25.0724 C   0  0  0  0  0  0
  -25.3674  -31.3805   26.1369 C   0  0  0  0  0  0
  -27.0478  -30.2886   24.6521 C   0  0  0  0  0  0
  -27.6045  -32.4358   25.7524 C   0  0  0  0  0  0
  -27.5567  -37.1758   24.8468 C   0  0  0  0  0  0
  -21.4355  -29.3038   22.3512 N   0  0  0  0  0  0
  -26.4281  -37.3692   23.9404 N   0  0  0  0  0  0
  -24.7576  -30.9794   22.0882 N   0  0  0  0  0  0
  -23.4209  -28.7987   23.3029 O   0  0  0  0  0  0
  -28.1794  -25.7023   20.2723 O   0  0  0  0  0  0
  -26.5718  -34.8872   22.4601 O   0  0  0  0  0  0
  -23.5723  -32.1205   23.6743 O   0  0  0  0  0  0
  -26.6253  -23.7702   20.4790 C   0  0  0  0  0  0
  -27.9059  -24.1662   20.3819 C   0  0  0  0  0  0
  -29.3711  -19.8422   20.7105 C   0  0  0  0  0  0
  -30.3474  -23.2879   19.8413 C   0  0  0  0  0  0
  -29.6326  -18.2313   20.0078 C   0  0  0  0  0  0
  -29.0340  -22.8175   20.4752 C   0  0  2  0  0  0
  -28.9162  -21.1535   20.1400 N   0  0  0  0  0  0
  -29.6263  -16.6071   20.5057 N   0  0  0  0  0  0
  -29.6955  -19.8914   21.8968 O   0  0  0  0  0  0
  -31.4581  -13.0584   19.2236 H   0  0  0  0  0  0
  -30.5125  -11.9533   20.1655 H   0  0  0  0  0  0
  -29.9413  -11.7693   17.7185 H   0  0  0  0  0  0
  -29.5697  -13.4749   17.6608 H   0  0  0  0  0  0
  -28.0591  -11.2845   19.1063 H   0  0  0  0  0  0
  -27.4314  -12.3405   17.8649 H   0  0  0  0  0  0
  -27.5228  -14.2465   19.3244 H   0  0  0  0  0  0
  -28.8125  -12.5493   21.5132 H   0  0  0  0  0  0
  -28.2591  -14.1972   21.6989 H   0  0  0  0  0  0
  -25.2784   -9.5684   22.4760 H   0  0  0  0  0  0
  -24.0007   -7.4643   22.7481 H   0  0  0  0  0  0
  -21.0855   -8.8792   19.8959 H   0  0  0  0  0  0
  -22.3728  -10.9674   19.6166 H   0  0  0  0  0  0
  -21.2018   -7.6149   23.9715 H   0  0  0  0  0  0
  -21.1481   -6.0523   25.9076 H   0  0  0  0  0  0
  -22.0596   -2.7609   23.2843 H   0  0  0  0  0  0
  -22.4043  -11.9849   22.4852 H   0  0  0  0  0  0
  -21.1024  -13.1184   22.2659 H   0  0  0  0  0  0
  -24.6273  -15.8471   20.5327 H   0  0  0  0  0  0
  -26.2371  -15.6422   20.0631 H   0  0  0  0  0  0
  -26.7404  -32.5082   23.0881 H   0  0  0  0  0  0
  -25.0078  -33.9459   25.0177 H   0  0  0  0  0  0
  -22.8008  -31.2642   21.3453 H   0  0  0  0  0  0
  -23.3767  -35.9517   23.3288 H   0  0  0  0  0  0
  -24.3568  -36.8866   22.2068 H   0  0  0  0  0  0
  -23.7246  -37.6373   23.6721 H   0  0  0  0  0  0
  -26.2492  -31.3338   20.6355 H   0  0  0  0  0  0
  -26.9138  -30.6590   22.0788 H   0  0  0  0  0  0
  -28.1235  -28.5022   21.3643 H   0  0  0  0  0  0
  -25.9208  -25.7974   18.8554 H   0  0  0  0  0  0
  -24.0444  -27.3139   18.8603 H   0  0  0  0  0  0
  -23.8920  -30.5158   19.3890 H   0  0  0  0  0  0
  -22.8400  -29.2047   19.8231 H   0  0  0  0  0  0
  -25.1339  -36.1748   25.0789 H   0  0  0  0  0  0
  -21.0043  -28.3369   24.1294 H   0  0  0  0  0  0
  -20.5677  -26.2379   23.3646 H   0  0  0  0  0  0
  -21.6664  -26.7400   22.1209 H   0  0  0  0  0  0
  -19.6933  -25.6268   21.1279 H   0  0  0  0  0  0
  -19.6709  -27.3151   20.6718 H   0  0  0  0  0  0
  -17.4226  -26.6682   21.4026 H   0  0  0  0  0  0
  -18.0353  -26.0089   22.9029 H   0  0  0  0  0  0
  -19.7975  -30.7321   24.2191 H   0  0  0  0  0  0
  -17.5044  -31.6271   24.5162 H   0  0  0  0  0  0
  -15.5381  -30.2967   23.7694 H   0  0  0  0  0  0
  -15.8710  -28.0795   22.7119 H   0  0  0  0  0  0
  -24.5858  -30.7155   25.7673 H   0  0  0  0  0  0
  -24.8862  -32.3018   26.4664 H   0  0  0  0  0  0
  -25.7885  -30.9049   27.0236 H   0  0  0  0  0  0
  -26.3170  -29.6536   24.1504 H   0  0  0  0  0  0
  -27.3948  -29.7282   25.5213 H   0  0  0  0  0  0
  -27.9138  -30.4047   24.0003 H   0  0  0  0  0  0
  -27.2601  -33.3701   26.1968 H   0  0  0  0  0  0
  -28.3920  -32.6854   25.0401 H   0  0  0  0  0  0
  -28.0645  -31.8582   26.5552 H   0  0  0  0  0  0
  -28.2574  -38.0063   24.7500 H   0  0  0  0  0  0
  -28.1073  -36.2587   24.6318 H   0  0  0  0  0  0
  -27.2279  -37.1428   25.8870 H   0  0  0  0  0  0
  -20.9621  -29.8724   21.6629 H   0  0  0  0  0  0
  -26.0126  -38.2753   24.1397 H   0  0  0  0  0  0
  -26.3954  -22.7179   20.5621 H   0  0  0  0  0  0
  -25.7832  -24.4396   20.4993 H   0  0  0  0  0  0
  -30.6304  -24.2740   20.2116 H   0  0  0  0  0  0
  -30.2565  -23.3543   18.7569 H   0  0  0  0  0  0
  -31.1674  -22.6066   20.0699 H   0  0  0  0  0  0
  -30.6124  -18.3349   19.5408 H   0  0  0  0  0  0
  -28.9471  -18.2281   19.1604 H   0  0  0  0  0  0
  -29.2280  -22.7966   21.5487 H   0  0  0  0  0  0
  -28.5678  -21.0127   19.2000 H   0  0  0  0  0  0
  -28.7097  -16.3797   20.8624 H   0  0  0  0  0  0
  1 25  1  0  0  0
  1 30  2  0  0  0
  1 78  1  0  0  0
  2  3  1  0  0  0
  2 25  1  0  0  0
  2 80  1  0  0  0
  2 81  1  0  0  0
  3  4  1  0  0  0
  3 82  1  0  0  0
  3 83  1  0  0  0
  4  5  1  0  0  0
  4 84  1  0  0  0
  4 85  1  0  0  0
  5  6  1  0  0  0
  5 26  1  0  0  0
  5 86  1  0  0  0
  6 25  1  0  0  0
  6 87  1  0  0  0
  6 88  1  0  0  0
  7  8  2  0  0  0
  7 26  1  0  0  0
  7 29  1  0  0  0
  8  9  1  0  0  0
  8 22  1  0  0  0
  9 10  1  0  0  0
  9 27  2  0  0  0
 10 11  2  0  0  0
 10 15  1  0  0  0
 11 12  1  0  0  0
 11 89  1  0  0  0
 12 13  2  0  0  0
 12 90  1  0  0  0
 13 14  1  0  0  0
 13 31  1  0  0  0
 14 15  2  0  0  0
 14 91  1  0  0  0
 15 92  1  0  0  0
 16 17  2  0  0  0
 16 21  1  0  0  0
 16 31  1  0  0  0
 17 18  1  0  0  0
 17 93  1  0  0  0
 18 19  2  0  0  0
 18 94  1  0  0  0
 19 20  1  0  0  0
 19 24  1  0  0  0
 20 21  2  0  0  0
 20 95  1  0  0  0
 21 23  1  0  0  0
 22 28  1  0  0  0
 22 32  2  0  0  0
 26 27  1  0  0  0
 28 96  1  0  0  0
 28 97  1  0  0  0
 29 98  1  0  0  0
 29 99  1  0  0  0
 33 34  1  0  0  0
 33 66  1  0  0  0
 33 70  2  0  0  0
 34 36  1  0  0  0
 34 59  1  0  0  0
 34100  1  0  0  0
 35 44  2  0  0  0
 35 45  1  0  0  0
 35 68  1  0  0  0
 36 56  1  0  0  0
 36101  1  0  0  0
 37 39  1  0  0  0
 37 47  1  0  0  0
 37 66  1  0  0  0
 37102  1  0  0  0
 38 43  2  0  0  0
 38 46  1  0  0  0
 38 47  1  0  0  0
 39 64  1  0  0  0
 39 67  2  0  0  0
 40 52  1  0  0  0
 40 53  2  0  0  0
 40 58  1  0  0  0
 41103  1  0  0  0
 41104  1  0  0  0
 41105  1  0  0  0
 41 48  1  0  0  0
 42 43  1  0  0  0
 42 66  1  0  0  0
 42106  1  0  0  0
 42107  1  0  0  0
 43 44  1  0  0  0
 44108  1  0  0  0
 45 46  2  0  0  0
 45109  1  0  0  0
 46110  1  0  0  0
 47111  1  0  0  0
 47112  1  0  0  0
 48 56  1  0  0  0
 48 65  1  0  0  0
 48113  1  0  0  0
 49 50  1  0  0  0
 49 53  1  0  0  0
 49 64  1  0  0  0
 49114  1  0  0  0
 50 51  1  0  0  0
 50115  1  0  0  0
 50116  1  0  0  0
 51 52  1  0  0  0
 51117  1  0  0  0
 51118  1  0  0  0
 52119  1  0  0  0
 52120  1  0  0  0
 53 54  1  0  0  0
 54 55  2  0  0  0
 54121  1  0  0  0
 55 57  1  0  0  0
 55122  1  0  0  0
 56 69  2  0  0  0
 57 58  2  0  0  0
 57123  1  0  0  0
 58124  1  0  0  0
 59 60  1  0  0  0
 59 61  1  0  0  0
 59 62  1  0  0  0
 60125  1  0  0  0
 60126  1  0  0  0
 60127  1  0  0  0
 61128  1  0  0  0
 61129  1  0  0  0
 61130  1  0  0  0
 62131  1  0  0  0
 62132  1  0  0  0
 62133  1  0  0  0
 63 65  1  0  0  0
 63134  1  0  0  0
 63135  1  0  0  0
 63136  1  0  0  0
 64137  1  0  0  0
 65138  1  0  0  0
 68 72  1  0  0  0
 71 72  2  0  0  0
 71139  1  0  0  0
 71140  1  0  0  0
 72 76  1  0  0  0
 73 75  1  0  0  0
 73 77  1  0  0  0
 73 79  2  0  0  0
 74141  1  0  0  0
 74142  1  0  0  0
 74143  1  0  0  0
 74 76  1  0  0  0
 75 78  1  0  0  0
 75144  1  0  0  0
 75145  1  0  0  0
 76 77  1  0  0  0
 76146  1  0  0  0
 77147  1  0  0  0
 78148  1  0  0  0
M  ISO  4   1 100  68 101  72 101  78 100
M  END
> <chiral flag>
0

> <version>
0

> <s_m_source_file>
/data/baiqing/PycharmProjects/Reinvent-master-3.2/result/LINK_invent/BTK/process_docking_weight1_custom_sum_contain_oxygen_bond_distance_aromatic_linkinvent_7_9_3/rearranged_h_0016.sdf

> <i_m_source_file_index>
65

> <r_mmod_Potential_Energy-OPLS-2005>
1277.81787109375

> <r_mmod_Stretch_Energy-OPLS-2005>
668.566528320312

> <r_mmod_Bend_Energy-OPLS-2005>
473.312561035156

> <r_mmod_Torsional_Energy-OPLS-2005>
213.514114379883

> <r_mmod_Improper_Torsional_Energy-OPLS-2005>
5.70176076889038

> <r_mmod_Van_der_Waal_Energy-OPLS-2005>
114.013999938965

> <r_mmod_Electrostatic_Energy-OPLS-2005>
-498.572601318359

> <r_mmod_Solvation_Energy-OPLS-2005>
-247.645233154297

> <b_mmod_Minimization_Converged-OPLS-2005>
0

> <r_mmod_RMS_Derivative-OPLS-2005>
0.67020845413208

$$$$
65
                    3D
 Structure written by MMmdl.
170178  0  0  1  0            999 V2000
  -30.5931  -14.7515   20.4525 C   0  0  0  0  0  0
  -30.4245  -12.4541   19.4738 C   0  0  0  0  0  0
  -29.5014  -12.5010   18.2349 C   0  0  0  0  0  0
  -28.0290  -12.3273   18.6492 C   0  0  0  0  0  0
  -27.6340  -13.2278   19.8491 C   0  0  2  0  0  0
  -28.6789  -13.1589   20.9831 C   0  0  0  0  0  0
  -25.2448  -13.8161   20.5674 C   0  0  0  0  0  0
  -24.1770  -13.0418   20.9228 C   0  0  0  0  0  0
  -24.6346  -11.6888   20.8747 C   0  0  0  0  0  0
  -23.9015  -10.4285   21.0378 C   0  0  0  0  0  0
  -24.3577   -9.4198   21.9154 C   0  0  0  0  0  0
  -23.6268   -8.2236   22.0738 C   0  0  0  0  0  0
  -22.4248   -8.0255   21.3532 C   0  0  0  0  0  0
  -21.9875   -9.0209   20.4628 C   0  0  0  0  0  0
  -22.7197  -10.2099   20.3033 C   0  0  0  0  0  0
  -21.6857   -6.0697   22.5249 C   0  0  0  0  0  0
  -21.4014   -6.5604   23.8181 C   0  0  0  0  0  0
  -21.3661   -5.6774   24.9152 C   0  0  0  0  0  0
  -21.6058   -4.3031   24.7221 C   0  0  0  0  0  0
  -21.8819   -3.8112   23.4343 C   0  0  0  0  0  0
  -21.9190   -4.6925   22.3384 C   0  0  0  0  0  0
  -22.7785  -13.5182   21.1878 C   0  0  0  0  0  0
  -22.1663   -4.2105   21.0959 F   0  0  0  0  0  0
  -21.5627   -3.4518   25.7739 F   0  0  0  0  0  0
  -29.9752  -13.5194   20.4005 N   0  0  0  0  0  0
  -26.2870  -12.9375   20.3259 N   0  0  0  0  0  0
  -25.9275  -11.6511   20.5736 N   0  0  0  0  0  0
  -22.0450  -12.8173   22.0440 N   0  0  0  0  0  0
  -25.4135  -15.1880   20.4023 N   0  0  0  0  0  0
  -31.7883  -14.8174   20.1439 O   0  0  0  0  0  0
  -21.6631   -6.8841   21.4218 O   0  0  0  0  0  0
  -22.3474  -14.5484   20.6724 O   0  0  0  0  0  0
  -24.6274  -31.8520   23.1967 C   0  0  0  0  0  0
  -25.9103  -32.4743   23.8306 C   0  0  1  0  0  0
  -27.2359  -27.2892   20.1107 C   0  0  0  0  0  0
  -25.5922  -33.8524   24.2250 N   0  0  0  0  0  0
  -23.4254  -30.4710   21.5382 C   0  0  2  0  0  0
  -24.8755  -28.9134   20.1126 C   0  0  0  0  0  0
  -22.7501  -29.4563   22.4908 C   0  0  0  0  0  0
  -18.0283  -28.1342   22.8465 C   0  0  0  0  0  0
  -24.1478  -36.7303   23.2645 C   0  0  0  0  0  0
  -25.9646  -30.7755   21.3699 C   0  0  0  0  0  0
  -26.0446  -29.3967   20.7144 C   0  0  0  0  0  0
  -27.2307  -28.5969   20.6972 C   0  0  0  0  0  0
  -26.0416  -26.8573   19.4959 C   0  0  0  0  0  0
  -24.8762  -27.6513   19.4950 C   0  0  0  0  0  0
  -23.6435  -29.7989   20.1554 C   0  0  0  0  0  0
  -25.4112  -36.3065   24.0321 C   0  0  1  0  0  0
  -20.5894  -28.3657   23.1262 C   0  0  2  0  0  0
  -20.6763  -26.9377   22.5400 C   0  0  0  0  0  0
  -19.5769  -26.6367   21.5176 C   0  0  0  0  0  0
  -18.1925  -26.7893   22.1589 C   0  0  0  0  0  0
  -19.1537  -28.8814   23.2853 C   0  0  0  0  0  0
  -18.9476  -30.1416   23.8872 C   0  0  0  0  0  0
  -17.6483  -30.6561   24.0542 C   0  0  0  0  0  0
  -25.9052  -34.9425   23.5107 C   0  0  0  0  0  0
  -16.5368  -29.9063   23.6307 C   0  0  0  0  0  0
  -16.7281  -28.6472   23.0345 C   0  0  0  0  0  0
  -26.4486  -31.6586   25.0700 C   0  0  0  0  0  0
  -25.3743  -31.3689   26.1444 C   0  0  0  0  0  0
  -27.0342  -30.3030   24.6149 C   0  0  0  0  0  0
  -27.6034  -32.4348   25.7474 C   0  0  0  0  0  0
  -27.5590  -37.1807   24.8459 C   0  0  0  0  0  0
  -21.4210  -29.3004   22.3664 N   0  0  0  0  0  0
  -26.4290  -37.3784   23.9403 N   0  0  0  0  0  0
  -24.6896  -31.0519   22.0922 N   0  0  0  0  0  0
  -23.4197  -28.8094   23.2997 O   0  0  0  0  0  0
  -28.3663  -26.4564   20.0656 O   0  0  0  0  0  0
  -26.5628  -34.8934   22.4680 O   0  0  0  0  0  0
  -23.5444  -32.1315   23.7314 O   0  0  0  0  0  0
  -30.8291  -20.0818   20.4015 C   0  0  0  0  0  0
  -29.4572  -19.8067   20.3159 C   0  0  0  0  0  0
  -29.1012  -18.3890   20.4307 C   0  0  0  0  0  0
  -31.7586  -19.0420   20.5760 C   0  0  0  0  0  0
  -30.1096  -17.3402   20.5533 C   0  0  0  0  0  0
  -27.6433  -17.9627   20.4084 C   0  0  0  0  0  0
  -29.5962  -24.0486   18.6117 C   0  0  0  0  0  0
  -33.8833  -18.5212   21.8172 C   0  0  0  0  0  0
  -33.6001  -20.8055   20.8860 C   0  0  0  0  0  0
  -33.9028  -18.8931   19.3027 C   0  0  0  0  0  0
  -28.5049  -21.0595   20.0303 C   0  0  0  0  0  0
  -28.3250  -25.0680   20.6172 C   0  0  0  0  0  0
  -28.5493  -23.7458   19.7094 C   0  0  2  0  0  0
  -33.2695  -19.3124   20.6426 C   0  0  0  0  0  0
  -31.3958  -17.7395   20.6192 N   0  0  0  0  0  0
  -29.7954  -15.8841   20.6293 N   0  0  0  0  0  0
  -28.9751  -22.4581   20.4546 N   0  3  0  0  0  0
  -31.4667  -12.5732   19.1703 H   0  0  0  0  0  0
  -30.3688  -11.4806   19.9638 H   0  0  0  0  0  0
  -29.7846  -11.7226   17.5258 H   0  0  0  0  0  0
  -29.6252  -13.4524   17.7167 H   0  0  0  0  0  0
  -27.8851  -11.2785   18.9145 H   0  0  0  0  0  0
  -27.3705  -12.5187   17.8022 H   0  0  0  0  0  0
  -27.6270  -14.2477   19.4644 H   0  0  0  0  0  0
  -28.7195  -12.1542   21.4061 H   0  0  0  0  0  0
  -28.4153  -13.8268   21.8039 H   0  0  0  0  0  0
  -25.2717   -9.5685   22.4729 H   0  0  0  0  0  0
  -23.9963   -7.4629   22.7478 H   0  0  0  0  0  0
  -21.0798   -8.8710   19.8944 H   0  0  0  0  0  0
  -22.3618  -10.9622   19.6137 H   0  0  0  0  0  0
  -21.2011   -7.6113   23.9672 H   0  0  0  0  0  0
  -21.1489   -6.0503   25.9059 H   0  0  0  0  0  0
  -22.0603   -2.7574   23.2847 H   0  0  0  0  0  0
  -22.4091  -11.9841   22.4846 H   0  0  0  0  0  0
  -21.1040  -13.1121   22.2620 H   0  0  0  0  0  0
  -24.6304  -15.8277   20.4820 H   0  0  0  0  0  0
  -26.2168  -15.5997   19.9493 H   0  0  0  0  0  0
  -26.7156  -32.5426   23.1048 H   0  0  0  0  0  0
  -25.0026  -33.9613   25.0367 H   0  0  0  0  0  0
  -22.7214  -31.2933   21.3907 H   0  0  0  0  0  0
  -23.3734  -35.9637   23.3280 H   0  0  0  0  0  0
  -24.3573  -36.8976   22.2071 H   0  0  0  0  0  0
  -23.7232  -37.6486   23.6705 H   0  0  0  0  0  0
  -26.0924  -31.5410   20.6017 H   0  0  0  0  0  0
  -26.8403  -30.8284   22.0021 H   0  0  0  0  0  0
  -28.1349  -28.9718   21.1575 H   0  0  0  0  0  0
  -26.0106  -25.8967   18.9993 H   0  0  0  0  0  0
  -23.9831  -27.2824   19.0070 H   0  0  0  0  0  0
  -23.7624  -30.5704   19.3923 H   0  0  0  0  0  0
  -22.7649  -29.2257   19.8563 H   0  0  0  0  0  0
  -25.1295  -36.1927   25.0812 H   0  0  0  0  0  0
  -20.9953  -28.3243   24.1408 H   0  0  0  0  0  0
  -20.5614  -26.2286   23.3603 H   0  0  0  0  0  0
  -21.6645  -26.7388   22.1239 H   0  0  0  0  0  0
  -19.6933  -25.6273   21.1218 H   0  0  0  0  0  0
  -19.6713  -27.3164   20.6677 H   0  0  0  0  0  0
  -17.4204  -26.6614   21.3974 H   0  0  0  0  0  0
  -18.0337  -26.0008   22.8966 H   0  0  0  0  0  0
  -19.7956  -30.7191   24.2277 H   0  0  0  0  0  0
  -17.5048  -31.6254   24.5147 H   0  0  0  0  0  0
  -15.5366  -30.2966   23.7656 H   0  0  0  0  0  0
  -15.8676  -28.0806   22.7075 H   0  0  0  0  0  0
  -24.6014  -30.6906   25.7840 H   0  0  0  0  0  0
  -24.8796  -32.2792   26.4826 H   0  0  0  0  0  0
  -25.8111  -30.8993   27.0268 H   0  0  0  0  0  0
  -26.2880  -29.6772   24.1217 H   0  0  0  0  0  0
  -27.4091  -29.7327   25.4657 H   0  0  0  0  0  0
  -27.8749  -30.4335   23.9317 H   0  0  0  0  0  0
  -27.2626  -33.3689   26.1955 H   0  0  0  0  0  0
  -28.3865  -32.6832   25.0306 H   0  0  0  0  0  0
  -28.0639  -31.8515   26.5468 H   0  0  0  0  0  0
  -28.2584  -38.0128   24.7551 H   0  0  0  0  0  0
  -28.1100  -36.2664   24.6221 H   0  0  0  0  0  0
  -27.2299  -37.1397   25.8854 H   0  0  0  0  0  0
  -20.9393  -29.8807   21.6943 H   0  0  0  0  0  0
  -26.0175  -38.2849   24.1446 H   0  0  0  0  0  0
  -31.1725  -21.0966   20.3032 H   0  0  0  0  0  0
  -26.9459  -18.7929   20.3114 H   0  0  0  0  0  0
  -27.4004  -17.4391   21.3354 H   0  0  0  0  0  0
  -27.4596  -17.2825   19.5778 H   0  0  0  0  0  0
  -29.3551  -24.9586   18.0588 H   0  0  0  0  0  0
  -29.6645  -23.2443   17.8770 H   0  0  0  0  0  0
  -30.5916  -24.1958   19.0361 H   0  0  0  0  0  0
  -33.4082  -18.8005   22.7587 H   0  0  0  0  0  0
  -34.9524  -18.7073   21.9141 H   0  0  0  0  0  0
  -33.7537  -17.4452   21.6928 H   0  0  0  0  0  0
  -33.0993  -21.1867   21.7769 H   0  0  0  0  0  0
  -33.3116  -21.4343   20.0423 H   0  0  0  0  0  0
  -34.6705  -20.9538   21.0306 H   0  0  0  0  0  0
  -33.7532  -17.8318   19.1037 H   0  0  0  0  0  0
  -34.9748  -19.0889   19.2830 H   0  0  0  0  0  0
  -33.4489  -19.4425   18.4760 H   0  0  0  0  0  0
  -27.5461  -20.8976   20.5166 H   0  0  0  0  0  0
  -28.2966  -21.0746   18.9602 H   0  0  0  0  0  0
  -29.1348  -25.0683   21.3474 H   0  0  0  0  0  0
  -27.4160  -24.9482   21.2069 H   0  0  0  0  0  0
  -27.5959  -23.5438   19.2156 H   0  0  0  0  0  0
  -28.8256  -15.6697   20.7944 H   0  0  0  0  0  0
  -29.9803  -22.4190   20.4233 H   0  0  0  0  0  0
  -28.7304  -22.5389   21.4295 H   0  0  0  0  0  0
  1 25  1  0  0  0
  1 30  2  0  0  0
  1 86  1  0  0  0
  2  3  1  0  0  0
  2 25  1  0  0  0
  2 88  1  0  0  0
  2 89  1  0  0  0
  3  4  1  0  0  0
  3 90  1  0  0  0
  3 91  1  0  0  0
  4  5  1  0  0  0
  4 92  1  0  0  0
  4 93  1  0  0  0
  5  6  1  0  0  0
  5 26  1  0  0  0
  5 94  1  0  0  0
  6 25  1  0  0  0
  6 95  1  0  0  0
  6 96  1  0  0  0
  7  8  2  0  0  0
  7 26  1  0  0  0
  7 29  1  0  0  0
  8  9  1  0  0  0
  8 22  1  0  0  0
  9 10  1  0  0  0
  9 27  2  0  0  0
 10 11  2  0  0  0
 10 15  1  0  0  0
 11 12  1  0  0  0
 11 97  1  0  0  0
 12 13  2  0  0  0
 12 98  1  0  0  0
 13 14  1  0  0  0
 13 31  1  0  0  0
 14 15  2  0  0  0
 14 99  1  0  0  0
 15100  1  0  0  0
 16 17  2  0  0  0
 16 21  1  0  0  0
 16 31  1  0  0  0
 17 18  1  0  0  0
 17101  1  0  0  0
 18 19  2  0  0  0
 18102  1  0  0  0
 19 20  1  0  0  0
 19 24  1  0  0  0
 20 21  2  0  0  0
 20103  1  0  0  0
 21 23  1  0  0  0
 22 28  1  0  0  0
 22 32  2  0  0  0
 26 27  1  0  0  0
 28104  1  0  0  0
 28105  1  0  0  0
 29106  1  0  0  0
 29107  1  0  0  0
 33 34  1  0  0  0
 33 66  1  0  0  0
 33 70  2  0  0  0
 34 36  1  0  0  0
 34 59  1  0  0  0
 34108  1  0  0  0
 35 44  2  0  0  0
 35 45  1  0  0  0
 35 68  1  0  0  0
 36 56  1  0  0  0
 36109  1  0  0  0
 37 39  1  0  0  0
 37 47  1  0  0  0
 37 66  1  0  0  0
 37110  1  0  0  0
 38 43  2  0  0  0
 38 46  1  0  0  0
 38 47  1  0  0  0
 39 64  1  0  0  0
 39 67  2  0  0  0
 40 52  1  0  0  0
 40 53  2  0  0  0
 40 58  1  0  0  0
 41111  1  0  0  0
 41112  1  0  0  0
 41113  1  0  0  0
 41 48  1  0  0  0
 42 43  1  0  0  0
 42 66  1  0  0  0
 42114  1  0  0  0
 42115  1  0  0  0
 43 44  1  0  0  0
 44116  1  0  0  0
 45 46  2  0  0  0
 45117  1  0  0  0
 46118  1  0  0  0
 47119  1  0  0  0
 47120  1  0  0  0
 48 56  1  0  0  0
 48 65  1  0  0  0
 48121  1  0  0  0
 49 50  1  0  0  0
 49 53  1  0  0  0
 49 64  1  0  0  0
 49122  1  0  0  0
 50 51  1  0  0  0
 50123  1  0  0  0
 50124  1  0  0  0
 51 52  1  0  0  0
 51125  1  0  0  0
 51126  1  0  0  0
 52127  1  0  0  0
 52128  1  0  0  0
 53 54  1  0  0  0
 54 55  2  0  0  0
 54129  1  0  0  0
 55 57  1  0  0  0
 55130  1  0  0  0
 56 69  2  0  0  0
 57 58  2  0  0  0
 57131  1  0  0  0
 58132  1  0  0  0
 59 60  1  0  0  0
 59 61  1  0  0  0
 59 62  1  0  0  0
 60133  1  0  0  0
 60134  1  0  0  0
 60135  1  0  0  0
 61136  1  0  0  0
 61137  1  0  0  0
 61138  1  0  0  0
 62139  1  0  0  0
 62140  1  0  0  0
 62141  1  0  0  0
 63 65  1  0  0  0
 63142  1  0  0  0
 63143  1  0  0  0
 63144  1  0  0  0
 64145  1  0  0  0
 65146  1  0  0  0
 68 82  1  0  0  0
 71 72  2  0  0  0
 71 74  1  0  0  0
 71147  1  0  0  0
 72 73  1  0  0  0
 72 81  1  0  0  0
 73 75  2  0  0  0
 73 76  1  0  0  0
 74 84  1  0  0  0
 74 85  2  0  0  0
 75 85  1  0  0  0
 75 86  1  0  0  0
 76148  1  0  0  0
 76149  1  0  0  0
 76150  1  0  0  0
 77151  1  0  0  0
 77152  1  0  0  0
 77153  1  0  0  0
 77 83  1  0  0  0
 78154  1  0  0  0
 78155  1  0  0  0
 78156  1  0  0  0
 78 84  1  0  0  0
 79 84  1  0  0  0
 79157  1  0  0  0
 79158  1  0  0  0
 79159  1  0  0  0
 80 84  1  0  0  0
 80160  1  0  0  0
 80161  1  0  0  0
 80162  1  0  0  0
 81 87  1  0  0  0
 81163  1  0  0  0
 81164  1  0  0  0
 82 83  1  0  0  0
 82165  1  0  0  0
 82166  1  0  0  0
 83 87  1  0  0  0
 83167  1  0  0  0
 86168  1  0  0  0
 87169  1  0  0  0
 87170  1  0  0  0
M  CHG  1  87   1
M  ISO  4   1 100  68 101  82 101  86 100
M  END
> <chiral flag>
0

> <version>
0

> <s_m_source_file>
/data/baiqing/PycharmProjects/Reinvent-master-3.2/result/LINK_invent/BTK/process_docking_weight1_custom_sum_contain_oxygen_bond_distance_aromatic_linkinvent_7_9_3/rearranged_h_0016.sdf

> <i_m_source_file_index>
66

> <r_mmod_Potential_Energy-OPLS-2005>
-215.570220947266

> <r_mmod_Stretch_Energy-OPLS-2005>
123.017021179199

> <r_mmod_Bend_Energy-OPLS-2005>
175.97526550293

> <r_mmod_Torsional_Energy-OPLS-2005>
229.49885559082

> <r_mmod_Improper_Torsional_Energy-OPLS-2005>
6.15819931030273

> <r_mmod_Van_der_Waal_Energy-OPLS-2005>
142.329452514648

> <r_mmod_Electrostatic_Energy-OPLS-2005>
-485.134002685547

> <r_mmod_Solvation_Energy-OPLS-2005>
-481.776458740234

> <b_mmod_Minimization_Converged-OPLS-2005>
0

> <r_mmod_RMS_Derivative-OPLS-2005>
4.50640773773193

$$$$
66
                    3D
 Structure written by MMmdl.
161169  0  0  1  0            999 V2000
  -30.6219  -14.6124   20.5212 C   0  0  0  0  0  0
  -30.4407  -12.3795   19.4466 C   0  0  0  0  0  0
  -29.5071  -12.5136   18.2224 C   0  0  0  0  0  0
  -28.0298  -12.3521   18.6337 C   0  0  0  0  0  0
  -27.6585  -13.2114   19.8715 C   0  0  2  0  0  0
  -28.7021  -13.0359   20.9982 C   0  0  0  0  0  0
  -25.2589  -13.8163   20.5692 C   0  0  0  0  0  0
  -24.1842  -13.0438   20.9182 C   0  0  0  0  0  0
  -24.6399  -11.6906   20.8737 C   0  0  0  0  0  0
  -23.9063  -10.4294   21.0408 C   0  0  0  0  0  0
  -24.3614   -9.4209   21.9187 C   0  0  0  0  0  0
  -23.6290   -8.2244   22.0759 C   0  0  0  0  0  0
  -22.4273   -8.0282   21.3546 C   0  0  0  0  0  0
  -21.9906   -9.0255   20.4650 C   0  0  0  0  0  0
  -22.7234  -10.2137   20.3059 C   0  0  0  0  0  0
  -21.6852   -6.0738   22.5277 C   0  0  0  0  0  0
  -21.4015   -6.5641   23.8211 C   0  0  0  0  0  0
  -21.3659   -5.6794   24.9173 C   0  0  0  0  0  0
  -21.6042   -4.3057   24.7224 C   0  0  0  0  0  0
  -21.8819   -3.8149   23.4347 C   0  0  0  0  0  0
  -21.9193   -4.6966   22.3402 C   0  0  0  0  0  0
  -22.7866  -13.5240   21.1836 C   0  0  0  0  0  0
  -22.1662   -4.2152   21.0980 F   0  0  0  0  0  0
  -21.5627   -3.4540   25.7739 F   0  0  0  0  0  0
  -30.0219  -13.3834   20.4437 N   0  0  0  0  0  0
  -26.3017  -12.9334   20.3352 N   0  0  0  0  0  0
  -25.9327  -11.6492   20.5767 N   0  0  0  0  0  0
  -22.0500  -12.8243   22.0395 N   0  0  0  0  0  0
  -25.4315  -15.1882   20.4113 N   0  0  0  0  0  0
  -31.7659  -14.8007   20.0954 O   0  0  0  0  0  0
  -21.6637   -6.8881   21.4240 O   0  0  0  0  0  0
  -22.3556  -14.5548   20.6683 O   0  0  0  0  0  0
  -24.6239  -31.8609   23.2050 C   0  0  0  0  0  0
  -25.9098  -32.4785   23.8367 C   0  0  1  0  0  0
  -27.2272  -27.3424   20.1176 C   0  0  0  0  0  0
  -25.5925  -33.8586   24.2297 N   0  0  0  0  0  0
  -23.4167  -30.4836   21.5480 C   0  0  2  0  0  0
  -24.8643  -28.9408   20.1138 C   0  0  0  0  0  0
  -22.7461  -29.4617   22.4960 C   0  0  0  0  0  0
  -18.0285  -28.1368   22.8480 C   0  0  0  0  0  0
  -24.1489  -36.7298   23.2636 C   0  0  0  0  0  0
  -25.9554  -30.7977   21.3738 C   0  0  0  0  0  0
  -26.0315  -29.4267   20.7177 C   0  0  0  0  0  0
  -27.2182  -28.6390   20.7101 C   0  0  0  0  0  0
  -26.0439  -26.9077   19.4813 C   0  0  0  0  0  0
  -24.8710  -27.6848   19.4874 C   0  0  0  0  0  0
  -23.6306  -29.8179   20.1633 C   0  0  0  0  0  0
  -25.4109  -36.3089   24.0333 C   0  0  1  0  0  0
  -20.5881  -28.3670   23.1293 C   0  0  2  0  0  0
  -20.6779  -26.9399   22.5409 C   0  0  0  0  0  0
  -19.5758  -26.6375   21.5206 C   0  0  0  0  0  0
  -18.1933  -26.7913   22.1614 C   0  0  0  0  0  0
  -19.1535  -28.8836   23.2878 C   0  0  0  0  0  0
  -18.9460  -30.1441   23.8890 C   0  0  0  0  0  0
  -17.6460  -30.6576   24.0556 C   0  0  0  0  0  0
  -25.9043  -34.9454   23.5113 C   0  0  0  0  0  0
  -16.5352  -29.9072   23.6328 C   0  0  0  0  0  0
  -16.7273  -28.6490   23.0348 C   0  0  0  0  0  0
  -26.4496  -31.6583   25.0722 C   0  0  0  0  0  0
  -25.3738  -31.3710   26.1453 C   0  0  0  0  0  0
  -27.0338  -30.3013   24.6151 C   0  0  0  0  0  0
  -27.6057  -32.4316   25.7492 C   0  0  0  0  0  0
  -27.5584  -37.1800   24.8460 C   0  0  0  0  0  0
  -21.4179  -29.3024   22.3693 N   0  0  0  0  0  0
  -26.4291  -37.3782   23.9412 N   0  0  0  0  0  0
  -24.6840  -31.0632   22.0996 N   0  0  0  0  0  0
  -23.4192  -28.8161   23.3036 O   0  0  0  0  0  0
  -28.3458  -26.5043   20.1351 O   0  0  0  0  0  0
  -26.5606  -34.8915   22.4675 O   0  0  0  0  0  0
  -23.5410  -32.1404   23.7387 O   0  0  0  0  0  0
  -30.6670  -17.7701   19.9468 C   0  0  0  0  0  0
  -30.5825  -19.1799   19.7679 C   0  0  0  0  0  0
  -28.8812  -17.8636   21.5710 C   0  0  0  0  0  0
  -28.7869  -19.2936   21.3959 C   0  0  0  0  0  0
  -29.8217  -17.0726   20.8401 C   0  0  0  0  0  0
  -29.6400  -19.9867   20.4733 C   0  0  0  0  0  0
  -31.5407  -19.8210   18.7733 C   0  0  0  0  0  0
  -27.9483  -17.1660   22.5651 C   0  0  0  0  0  0
  -27.7615  -20.0808   22.2127 C   0  0  0  0  0  0
  -29.0682  -23.9600   20.0865 C   0  0  0  0  0  0
  -28.7664  -22.5087   20.6618 C   0  0  0  0  0  0
  -28.1349  -25.1253   20.6187 C   0  0  0  0  0  0
  -29.8264  -15.6181   20.9932 N   0  0  0  0  0  0
  -29.6504  -21.4012   20.1889 N   0  0  0  0  0  0
  -31.4817  -12.5076   19.1447 H   0  0  0  0  0  0
  -30.3757  -11.3774   19.8724 H   0  0  0  0  0  0
  -29.7680  -11.7714   17.4667 H   0  0  0  0  0  0
  -29.6510  -13.4890   17.7547 H   0  0  0  0  0  0
  -27.8622  -11.2972   18.8537 H   0  0  0  0  0  0
  -27.3751  -12.5948   17.7959 H   0  0  0  0  0  0
  -27.6865  -14.2521   19.5479 H   0  0  0  0  0  0
  -28.7086  -12.0045   21.3538 H   0  0  0  0  0  0
  -28.4451  -13.6411   21.8684 H   0  0  0  0  0  0
  -25.2761   -9.5685   22.4759 H   0  0  0  0  0  0
  -23.9999   -7.4639   22.7480 H   0  0  0  0  0  0
  -21.0838   -8.8776   19.8957 H   0  0  0  0  0  0
  -22.3694  -10.9677   19.6169 H   0  0  0  0  0  0
  -21.2010   -7.6149   23.9715 H   0  0  0  0  0  0
  -21.1479   -6.0525   25.9076 H   0  0  0  0  0  0
  -22.0598   -2.7612   23.2845 H   0  0  0  0  0  0
  -22.4112  -11.9905   22.4788 H   0  0  0  0  0  0
  -21.1119  -13.1278   22.2593 H   0  0  0  0  0  0
  -24.6616  -15.8402   20.5119 H   0  0  0  0  0  0
  -26.2804  -15.6268   20.0782 H   0  0  0  0  0  0
  -26.7159  -32.5467   23.1112 H   0  0  0  0  0  0
  -25.0086  -33.9738   25.0453 H   0  0  0  0  0  0
  -22.7091  -31.3030   21.4064 H   0  0  0  0  0  0
  -23.3751  -35.9629   23.3290 H   0  0  0  0  0  0
  -24.3586  -36.8931   22.2053 H   0  0  0  0  0  0
  -23.7239  -37.6498   23.6659 H   0  0  0  0  0  0
  -26.0829  -31.5613   20.6054 H   0  0  0  0  0  0
  -26.8377  -30.8482   22.0003 H   0  0  0  0  0  0
  -28.1154  -29.0073   21.1880 H   0  0  0  0  0  0
  -26.0171  -25.9530   18.9754 H   0  0  0  0  0  0
  -23.9793  -27.3090   19.0049 H   0  0  0  0  0  0
  -23.7483  -30.5950   19.4072 H   0  0  0  0  0  0
  -22.7513  -29.2459   19.8615 H   0  0  0  0  0  0
  -25.1287  -36.1946   25.0828 H   0  0  0  0  0  0
  -20.9967  -28.3238   24.1417 H   0  0  0  0  0  0
  -20.5691  -26.2270   23.3599 H   0  0  0  0  0  0
  -21.6649  -26.7439   22.1200 H   0  0  0  0  0  0
  -19.6926  -25.6289   21.1235 H   0  0  0  0  0  0
  -19.6703  -27.3186   20.6735 H   0  0  0  0  0  0
  -17.4207  -26.6654   21.4012 H   0  0  0  0  0  0
  -18.0336  -26.0049   22.9005 H   0  0  0  0  0  0
  -19.7937  -30.7253   24.2262 H   0  0  0  0  0  0
  -17.5017  -31.6262   24.5148 H   0  0  0  0  0  0
  -15.5354  -30.2970   23.7657 H   0  0  0  0  0  0
  -15.8670  -28.0810   22.7064 H   0  0  0  0  0  0
  -24.5911  -30.7062   25.7782 H   0  0  0  0  0  0
  -24.8927  -32.2872   26.4883 H   0  0  0  0  0  0
  -25.8071  -30.8884   27.0222 H   0  0  0  0  0  0
  -26.2904  -29.6761   24.1190 H   0  0  0  0  0  0
  -27.4074  -29.7264   25.4635 H   0  0  0  0  0  0
  -27.8756  -30.4315   23.9344 H   0  0  0  0  0  0
  -27.2670  -33.3616   26.2070 H   0  0  0  0  0  0
  -28.3865  -32.6882   25.0321 H   0  0  0  0  0  0
  -28.0719  -31.8438   26.5410 H   0  0  0  0  0  0
  -28.2584  -38.0113   24.7533 H   0  0  0  0  0  0
  -28.1105  -36.2649   24.6258 H   0  0  0  0  0  0
  -27.2308  -37.1414   25.8864 H   0  0  0  0  0  0
  -20.9353  -29.8741   21.6901 H   0  0  0  0  0  0
  -26.0175  -38.2858   24.1425 H   0  0  0  0  0  0
  -31.3892  -17.2173   19.3639 H   0  0  0  0  0  0
  -32.1999  -19.0850   18.3127 H   0  0  0  0  0  0
  -32.1698  -20.5604   19.2699 H   0  0  0  0  0  0
  -30.9885  -20.3146   17.9732 H   0  0  0  0  0  0
  -28.0755  -17.5880   23.5623 H   0  0  0  0  0  0
  -28.1098  -16.0961   22.6755 H   0  0  0  0  0  0
  -26.9087  -17.2945   22.2614 H   0  0  0  0  0  0
  -27.1455  -19.4917   22.8858 H   0  0  0  0  0  0
  -27.0621  -20.5880   21.5516 H   0  0  0  0  0  0
  -28.2668  -20.8142   22.8392 H   0  0  0  0  0  0
  -28.9881  -23.9310   18.9993 H   0  0  0  0  0  0
  -30.1030  -24.2242   20.3054 H   0  0  0  0  0  0
  -27.7353  -22.2633   20.4083 H   0  0  0  0  0  0
  -28.8291  -22.5683   21.7476 H   0  0  0  0  0  0
  -28.2451  -25.1679   21.7026 H   0  0  0  0  0  0
  -27.1083  -24.7976   20.4651 H   0  0  0  0  0  0
  -28.9935  -15.2568   21.4300 H   0  0  0  0  0  0
  -30.3463  -21.6858   19.5065 H   0  0  0  0  0  0
  1 25  1  0  0  0
  1 30  2  0  0  0
  1 83  1  0  0  0
  2  3  1  0  0  0
  2 25  1  0  0  0
  2 85  1  0  0  0
  2 86  1  0  0  0
  3  4  1  0  0  0
  3 87  1  0  0  0
  3 88  1  0  0  0
  4  5  1  0  0  0
  4 89  1  0  0  0
  4 90  1  0  0  0
  5  6  1  0  0  0
  5 26  1  0  0  0
  5 91  1  0  0  0
  6 25  1  0  0  0
  6 92  1  0  0  0
  6 93  1  0  0  0
  7  8  2  0  0  0
  7 26  1  0  0  0
  7 29  1  0  0  0
  8  9  1  0  0  0
  8 22  1  0  0  0
  9 10  1  0  0  0
  9 27  2  0  0  0
 10 11  2  0  0  0
 10 15  1  0  0  0
 11 12  1  0  0  0
 11 94  1  0  0  0
 12 13  2  0  0  0
 12 95  1  0  0  0
 13 14  1  0  0  0
 13 31  1  0  0  0
 14 15  2  0  0  0
 14 96  1  0  0  0
 15 97  1  0  0  0
 16 17  2  0  0  0
 16 21  1  0  0  0
 16 31  1  0  0  0
 17 18  1  0  0  0
 17 98  1  0  0  0
 18 19  2  0  0  0
 18 99  1  0  0  0
 19 20  1  0  0  0
 19 24  1  0  0  0
 20 21  2  0  0  0
 20100  1  0  0  0
 21 23  1  0  0  0
 22 28  1  0  0  0
 22 32  2  0  0  0
 26 27  1  0  0  0
 28101  1  0  0  0
 28102  1  0  0  0
 29103  1  0  0  0
 29104  1  0  0  0
 33 34  1  0  0  0
 33 66  1  0  0  0
 33 70  2  0  0  0
 34 36  1  0  0  0
 34 59  1  0  0  0
 34105  1  0  0  0
 35 44  2  0  0  0
 35 45  1  0  0  0
 35 68  1  0  0  0
 36 56  1  0  0  0
 36106  1  0  0  0
 37 39  1  0  0  0
 37 47  1  0  0  0
 37 66  1  0  0  0
 37107  1  0  0  0
 38 43  2  0  0  0
 38 46  1  0  0  0
 38 47  1  0  0  0
 39 64  1  0  0  0
 39 67  2  0  0  0
 40 52  1  0  0  0
 40 53  2  0  0  0
 40 58  1  0  0  0
 41108  1  0  0  0
 41109  1  0  0  0
 41110  1  0  0  0
 41 48  1  0  0  0
 42 43  1  0  0  0
 42 66  1  0  0  0
 42111  1  0  0  0
 42112  1  0  0  0
 43 44  1  0  0  0
 44113  1  0  0  0
 45 46  2  0  0  0
 45114  1  0  0  0
 46115  1  0  0  0
 47116  1  0  0  0
 47117  1  0  0  0
 48 56  1  0  0  0
 48 65  1  0  0  0
 48118  1  0  0  0
 49 50  1  0  0  0
 49 53  1  0  0  0
 49 64  1  0  0  0
 49119  1  0  0  0
 50 51  1  0  0  0
 50120  1  0  0  0
 50121  1  0  0  0
 51 52  1  0  0  0
 51122  1  0  0  0
 51123  1  0  0  0
 52124  1  0  0  0
 52125  1  0  0  0
 53 54  1  0  0  0
 54 55  2  0  0  0
 54126  1  0  0  0
 55 57  1  0  0  0
 55127  1  0  0  0
 56 69  2  0  0  0
 57 58  2  0  0  0
 57128  1  0  0  0
 58129  1  0  0  0
 59 60  1  0  0  0
 59 61  1  0  0  0
 59 62  1  0  0  0
 60130  1  0  0  0
 60131  1  0  0  0
 60132  1  0  0  0
 61133  1  0  0  0
 61134  1  0  0  0
 61135  1  0  0  0
 62136  1  0  0  0
 62137  1  0  0  0
 62138  1  0  0  0
 63 65  1  0  0  0
 63139  1  0  0  0
 63140  1  0  0  0
 63141  1  0  0  0
 64142  1  0  0  0
 65143  1  0  0  0
 68 82  1  0  0  0
 71 72  2  0  0  0
 71 75  1  0  0  0
 71144  1  0  0  0
 72 76  1  0  0  0
 72 77  1  0  0  0
 73 74  1  0  0  0
 73 75  2  0  0  0
 73 78  1  0  0  0
 74 76  2  0  0  0
 74 79  1  0  0  0
 75 83  1  0  0  0
 76 84  1  0  0  0
 77145  1  0  0  0
 77146  1  0  0  0
 77147  1  0  0  0
 78148  1  0  0  0
 78149  1  0  0  0
 78150  1  0  0  0
 79151  1  0  0  0
 79152  1  0  0  0
 79153  1  0  0  0
 80 81  1  0  0  0
 80 82  1  0  0  0
 80154  1  0  0  0
 80155  1  0  0  0
 81 84  1  0  0  0
 81156  1  0  0  0
 81157  1  0  0  0
 82158  1  0  0  0
 82159  1  0  0  0
 83160  1  0  0  0
 84161  1  0  0  0
M  ISO  4   1 100  68 101  82 101  83 100
M  END
> <chiral flag>
0

> <version>
0

> <s_m_source_file>
/data/baiqing/PycharmProjects/Reinvent-master-3.2/result/LINK_invent/BTK/process_docking_weight1_custom_sum_contain_oxygen_bond_distance_aromatic_linkinvent_7_9_3/rearranged_h_0016.sdf

> <i_m_source_file_index>
67

> <r_mmod_Potential_Energy-OPLS-2005>
-0.588831901550293

> <r_mmod_Stretch_Energy-OPLS-2005>
76.7191925048828

> <r_mmod_Bend_Energy-OPLS-2005>
157.643600463867

> <r_mmod_Torsional_Energy-OPLS-2005>
215.293395996094

> <r_mmod_Improper_Torsional_Energy-OPLS-2005>
3.32094311714172

> <r_mmod_Van_der_Waal_Energy-OPLS-2005>
162.702743530273

> <r_mmod_Electrostatic_Energy-OPLS-2005>
-445.136138916016

> <r_mmod_Solvation_Energy-OPLS-2005>
-209.988342285156

> <b_mmod_Minimization_Converged-OPLS-2005>
0

> <r_mmod_RMS_Derivative-OPLS-2005>
0.620269596576691

$$$$
67
                    3D
 Structure written by MMmdl.
167175  0  0  1  0            999 V2000
  -29.7360  -15.2660   20.6818 C   0  0  0  0  0  0
  -30.3626  -12.9091   19.6089 C   0  0  0  0  0  0
  -29.5213  -12.6475   18.3239 C   0  0  0  0  0  0
  -28.0515  -12.3073   18.6623 C   0  0  0  0  0  0
  -27.5421  -13.1938   19.8244 C   0  0  2  0  0  0
  -28.4804  -13.1536   21.0247 C   0  0  0  0  0  0
  -25.2088  -13.7950   20.5641 C   0  0  0  0  0  0
  -24.1462  -13.0258   20.9306 C   0  0  0  0  0  0
  -24.6040  -11.6755   20.8724 C   0  0  0  0  0  0
  -23.8828  -10.4190   21.0405 C   0  0  0  0  0  0
  -24.3510   -9.4173   21.9159 C   0  0  0  0  0  0
  -23.6268   -8.2177   22.0697 C   0  0  0  0  0  0
  -22.4229   -8.0213   21.3509 C   0  0  0  0  0  0
  -21.9794   -9.0156   20.4610 C   0  0  0  0  0  0
  -22.7044  -10.2063   20.3042 C   0  0  0  0  0  0
  -21.6859   -6.0696   22.5294 C   0  0  0  0  0  0
  -21.3991   -6.5614   23.8216 C   0  0  0  0  0  0
  -21.3653   -5.6776   24.9187 C   0  0  0  0  0  0
  -21.6049   -4.3038   24.7260 C   0  0  0  0  0  0
  -21.8825   -3.8125   23.4387 C   0  0  0  0  0  0
  -21.9213   -4.6924   22.3437 C   0  0  0  0  0  0
  -22.7556  -13.5149   21.2009 C   0  0  0  0  0  0
  -22.1681   -4.2096   21.1019 F   0  0  0  0  0  0
  -21.5636   -3.4543   25.7774 F   0  0  0  0  0  0
  -29.6188  -13.8649   20.5262 N   0  0  0  0  0  0
  -26.2163  -12.9031   20.2717 N   0  0  0  0  0  0
  -25.8836  -11.6229   20.5403 N   0  0  0  0  0  0
  -22.0202  -12.8101   22.0521 N   0  0  0  0  0  0
  -25.3888  -15.1664   20.4355 N   0  0  0  0  0  0
  -30.9242  -15.5981   20.4199 O   0  0  0  0  0  0
  -21.6633   -6.8798   21.4225 O   0  0  0  0  0  0
  -22.3329  -14.5515   20.6908 O   0  0  0  0  0  0
  -24.6551  -31.9339   23.2351 C   0  0  0  0  0  0
  -25.9471  -32.5072   23.8687 C   0  0  1  0  0  0
  -26.1387  -27.2299   20.3898 C   0  0  0  0  0  0
  -25.6382  -33.8840   24.2637 N   0  0  0  0  0  0
  -23.4589  -30.5856   21.5951 C   0  0  2  0  0  0
  -24.8682  -29.3582   19.7926 C   0  0  0  0  0  0
  -23.0685  -29.4787   22.6144 C   0  0  0  0  0  0
  -18.5984  -27.7570   22.4363 C   0  0  0  0  0  0
  -24.1524  -36.7340   23.2608 C   0  0  0  0  0  0
  -25.9909  -30.8377   21.4430 C   0  0  0  0  0  0
  -25.9305  -29.5378   20.6808 C   0  0  0  0  0  0
  -26.7639  -28.4236   20.8733 C   0  0  0  0  0  0
  -25.8970  -27.2682   19.0473 C   0  0  0  0  0  0
  -24.9913  -28.3205   18.8164 C   0  0  0  0  0  0
  -23.6201  -30.1649   20.0848 C   0  0  0  0  0  0
  -25.4139  -36.3213   24.0350 C   0  0  1  0  0  0
  -21.3223  -28.0302   23.5094 C   0  0  2  0  0  0
  -22.2142  -26.3308   22.7327 C   0  0  0  0  0  0
  -20.6823  -25.3608   21.2408 C   0  0  0  0  0  0
  -18.9285  -26.3711   21.3581 C   0  0  0  0  0  0
  -19.6346  -28.4649   23.2892 C   0  0  0  0  0  0
  -19.2000  -29.7020   23.9271 C   0  0  0  0  0  0
  -17.8818  -30.2237   23.9396 C   0  0  0  0  0  0
  -25.9128  -34.9599   23.5184 C   0  0  0  0  0  0
  -16.8751  -29.4665   23.3313 C   0  0  0  0  0  0
  -17.2376  -28.2808   22.6102 C   0  0  0  0  0  0
  -26.4596  -31.6691   25.0998 C   0  0  0  0  0  0
  -25.3735  -31.3797   26.1616 C   0  0  0  0  0  0
  -27.0433  -30.3089   24.6520 C   0  0  0  0  0  0
  -27.6164  -32.4334   25.7847 C   0  0  0  0  0  0
  -27.5607  -37.1892   24.8475 C   0  0  0  0  0  0
  -21.8233  -29.3218   22.9753 N   0  0  0  0  0  0
  -26.4319  -37.3890   23.9416 N   0  0  0  0  0  0
  -24.7149  -31.1827   22.1074 N   0  0  0  0  0  0
  -23.8952  -28.7878   23.1899 O   0  0  0  0  0  0
  -24.8159  -26.9745   20.9537 O   0  0  0  0  0  0
  -26.5459  -34.8995   22.4600 O   0  0  0  0  0  0
  -23.5725  -32.1998   23.7795 O   0  0  0  0  0  0
  -23.8688  -20.4120   20.7682 C   0  0  0  0  0  0
  -24.4774  -19.4817   19.8651 C   0  0  0  0  0  0
  -26.3305  -18.6934   21.3936 C   0  0  0  0  0  0
  -24.3258  -20.6968   22.0735 C   0  0  0  0  0  0
  -25.6382  -18.6798   20.1487 C   0  0  0  0  0  0
  -25.6081  -19.7735   22.3087 C   0  0  0  0  0  0
  -23.8163  -19.3563   18.4938 C   0  0  0  0  0  0
  -23.4543  -21.5406   24.3223 C   0  0  0  0  0  0
  -27.8664  -17.6919   21.5016 C   0  0  0  0  0  0
  -20.1528  -25.8603   23.3506 C   0  0  0  0  0  0
  -21.0638  -24.0861   23.5304 C   0  0  0  0  0  0
  -21.1312  -27.5424   21.2162 C   0  0  0  0  0  0
  -22.3516  -23.0526   22.5683 C   0  0  0  0  0  0
  -23.0403  -27.2032   20.5167 C   0  0  0  0  0  0
  -28.5046  -16.1391   21.0119 N   0  0  0  0  0  0
  -23.4253  -21.7679   22.8838 N   0  0  0  0  0  0
  -26.2856  -17.7048   18.8703 Cl  0  0  0  0  0  0
  -26.4356  -20.0159   23.8065 Cl  0  0  0  0  0  0
  -31.3383  -13.3150   19.3349 H   0  0  0  0  0  0
  -30.5663  -11.9704   20.1241 H   0  0  0  0  0  0
  -29.9725  -11.8593   17.7194 H   0  0  0  0  0  0
  -29.5385  -13.5493   17.7103 H   0  0  0  0  0  0
  -27.9968  -11.2564   18.9509 H   0  0  0  0  0  0
  -27.4188  -12.4256   17.7806 H   0  0  0  0  0  0
  -27.5018  -14.2029   19.4101 H   0  0  0  0  0  0
  -28.7102  -12.1339   21.3352 H   0  0  0  0  0  0
  -28.0507  -13.6498   21.8984 H   0  0  0  0  0  0
  -25.2679   -9.5700   22.4700 H   0  0  0  0  0  0
  -24.0041   -7.4562   22.7390 H   0  0  0  0  0  0
  -21.0715   -8.8677   19.8936 H   0  0  0  0  0  0
  -22.3503  -10.9633   19.6188 H   0  0  0  0  0  0
  -21.1916   -7.6126   23.9705 H   0  0  0  0  0  0
  -21.1469   -6.0506   25.9085 H   0  0  0  0  0  0
  -22.0598   -2.7594   23.2922 H   0  0  0  0  0  0
  -22.3851  -11.9721   22.4792 H   0  0  0  0  0  0
  -21.0764  -13.0973   22.2744 H   0  0  0  0  0  0
  -24.5599  -15.7355   20.5463 H   0  0  0  0  0  0
  -26.0109  -15.5587   19.7377 H   0  0  0  0  0  0
  -26.7568  -32.5583   23.1462 H   0  0  0  0  0  0
  -25.0836  -34.0017   25.0994 H   0  0  0  0  0  0
  -22.6660  -31.3365   21.6095 H   0  0  0  0  0  0
  -23.3827  -35.9627   23.3257 H   0  0  0  0  0  0
  -24.3676  -36.8923   22.2027 H   0  0  0  0  0  0
  -23.7208  -37.6542   23.6566 H   0  0  0  0  0  0
  -26.2437  -31.6373   20.7466 H   0  0  0  0  0  0
  -26.8382  -30.7415   22.1097 H   0  0  0  0  0  0
  -27.5148  -28.4061   21.6512 H   0  0  0  0  0  0
  -25.8202  -26.3734   18.4442 H   0  0  0  0  0  0
  -24.3073  -28.2552   17.9826 H   0  0  0  0  0  0
  -23.7206  -31.0829   19.5035 H   0  0  0  0  0  0
  -22.7148  -29.6978   19.7056 H   0  0  0  0  0  0
  -25.1283  -36.2101   25.0834 H   0  0  0  0  0  0
  -21.5325  -28.0572   24.5816 H   0  0  0  0  0  0
  -22.4895  -25.8249   23.6585 H   0  0  0  0  0  0
  -23.2816  -26.3120   22.5512 H   0  0  0  0  0  0
  -20.4592  -24.3001   21.3056 H   0  0  0  0  0  0
  -21.0314  -25.3334   20.2035 H   0  0  0  0  0  0
  -18.6556  -26.6997   20.3551 H   0  0  0  0  0  0
  -18.1429  -25.6369   21.5454 H   0  0  0  0  0  0
  -19.9385  -30.2626   24.4856 H   0  0  0  0  0  0
  -17.6500  -31.1426   24.4631 H   0  0  0  0  0  0
  -15.8440  -29.7923   23.3611 H   0  0  0  0  0  0
  -16.4410  -27.7594   22.0951 H   0  0  0  0  0  0
  -24.5941  -30.7163   25.7847 H   0  0  0  0  0  0
  -24.8912  -32.2941   26.5070 H   0  0  0  0  0  0
  -25.8008  -30.8921   27.0382 H   0  0  0  0  0  0
  -26.3077  -29.6915   24.1372 H   0  0  0  0  0  0
  -27.3852  -29.7284   25.5093 H   0  0  0  0  0  0
  -27.9087  -30.4311   24.0015 H   0  0  0  0  0  0
  -27.2800  -33.3620   26.2465 H   0  0  0  0  0  0
  -28.4030  -32.6891   25.0743 H   0  0  0  0  0  0
  -28.0751  -31.8395   26.5757 H   0  0  0  0  0  0
  -28.2595  -38.0220   24.7564 H   0  0  0  0  0  0
  -28.1138  -36.2756   24.6241 H   0  0  0  0  0  0
  -27.2346  -37.1469   25.8887 H   0  0  0  0  0  0
  -21.1250  -29.9566   22.6148 H   0  0  0  0  0  0
  -26.0214  -38.2963   24.1451 H   0  0  0  0  0  0
  -22.9806  -20.9272   20.4337 H   0  0  0  0  0  0
  -23.0948  -20.1559   18.3121 H   0  0  0  0  0  0
  -23.2902  -18.4040   18.4048 H   0  0  0  0  0  0
  -24.5395  -19.4177   17.6831 H   0  0  0  0  0  0
  -24.2053  -20.8321   24.6506 H   0  0  0  0  0  0
  -22.4914  -21.1452   24.6509 H   0  0  0  0  0  0
  -23.6292  -22.4817   24.8486 H   0  0  0  0  0  0
  -28.0806  -17.7081   22.5708 H   0  0  0  0  0  0
  -28.6044  -18.3790   21.0812 H   0  0  0  0  0  0
  -20.2276  -26.2272   24.3794 H   0  0  0  0  0  0
  -19.1013  -25.5845   23.4663 H   0  0  0  0  0  0
  -20.2363  -23.3870   23.6622 H   0  0  0  0  0  0
  -21.4739  -24.1145   24.5424 H   0  0  0  0  0  0
  -20.7862  -28.5708   21.1154 H   0  0  0  0  0  0
  -20.6637  -27.4198   20.2307 H   0  0  0  0  0  0
  -23.0053  -23.7884   22.1024 H   0  0  0  0  0  0
  -21.7845  -22.6559   21.7257 H   0  0  0  0  0  0
  -22.9075  -27.5873   19.5165 H   0  0  0  0  0  0
  -22.9668  -26.1570   20.2247 H   0  0  0  0  0  0
  -27.7250  -15.4978   21.0634 H   0  0  0  0  0  0
  1 25  1  0  0  0
  1 30  2  0  0  0
  1 85  1  0  0  0
  2  3  1  0  0  0
  2 25  1  0  0  0
  2 89  1  0  0  0
  2 90  1  0  0  0
  3  4  1  0  0  0
  3 91  1  0  0  0
  3 92  1  0  0  0
  4  5  1  0  0  0
  4 93  1  0  0  0
  4 94  1  0  0  0
  5  6  1  0  0  0
  5 26  1  0  0  0
  5 95  1  0  0  0
  6 25  1  0  0  0
  6 96  1  0  0  0
  6 97  1  0  0  0
  7  8  2  0  0  0
  7 26  1  0  0  0
  7 29  1  0  0  0
  8  9  1  0  0  0
  8 22  1  0  0  0
  9 10  1  0  0  0
  9 27  2  0  0  0
 10 11  2  0  0  0
 10 15  1  0  0  0
 11 12  1  0  0  0
 11 98  1  0  0  0
 12 13  2  0  0  0
 12 99  1  0  0  0
 13 14  1  0  0  0
 13 31  1  0  0  0
 14 15  2  0  0  0
 14100  1  0  0  0
 15101  1  0  0  0
 16 17  2  0  0  0
 16 21  1  0  0  0
 16 31  1  0  0  0
 17 18  1  0  0  0
 17102  1  0  0  0
 18 19  2  0  0  0
 18103  1  0  0  0
 19 20  1  0  0  0
 19 24  1  0  0  0
 20 21  2  0  0  0
 20104  1  0  0  0
 21 23  1  0  0  0
 22 28  1  0  0  0
 22 32  2  0  0  0
 26 27  1  0  0  0
 28105  1  0  0  0
 28106  1  0  0  0
 29107  1  0  0  0
 29108  1  0  0  0
 33 34  1  0  0  0
 33 66  1  0  0  0
 33 70  2  0  0  0
 34 36  1  0  0  0
 34 59  1  0  0  0
 34109  1  0  0  0
 35 44  2  0  0  0
 35 45  1  0  0  0
 35 68  1  0  0  0
 36 56  1  0  0  0
 36110  1  0  0  0
 37 39  1  0  0  0
 37 47  1  0  0  0
 37 66  1  0  0  0
 37111  1  0  0  0
 38 43  2  0  0  0
 38 46  1  0  0  0
 38 47  1  0  0  0
 39 64  1  0  0  0
 39 67  2  0  0  0
 40 52  1  0  0  0
 40 53  2  0  0  0
 40 58  1  0  0  0
 41112  1  0  0  0
 41113  1  0  0  0
 41114  1  0  0  0
 41 48  1  0  0  0
 42 43  1  0  0  0
 42 66  1  0  0  0
 42115  1  0  0  0
 42116  1  0  0  0
 43 44  1  0  0  0
 44117  1  0  0  0
 45 46  2  0  0  0
 45118  1  0  0  0
 46119  1  0  0  0
 47120  1  0  0  0
 47121  1  0  0  0
 48 56  1  0  0  0
 48 65  1  0  0  0
 48122  1  0  0  0
 49 50  1  0  0  0
 49 53  1  0  0  0
 49 64  1  0  0  0
 49123  1  0  0  0
 50 51  1  0  0  0
 50124  1  0  0  0
 50125  1  0  0  0
 51 52  1  0  0  0
 51126  1  0  0  0
 51127  1  0  0  0
 52128  1  0  0  0
 52129  1  0  0  0
 53 54  1  0  0  0
 54 55  2  0  0  0
 54130  1  0  0  0
 55 57  1  0  0  0
 55131  1  0  0  0
 56 69  2  0  0  0
 57 58  2  0  0  0
 57132  1  0  0  0
 58133  1  0  0  0
 59 60  1  0  0  0
 59 61  1  0  0  0
 59 62  1  0  0  0
 60134  1  0  0  0
 60135  1  0  0  0
 60136  1  0  0  0
 61137  1  0  0  0
 61138  1  0  0  0
 61139  1  0  0  0
 62140  1  0  0  0
 62141  1  0  0  0
 62142  1  0  0  0
 63 65  1  0  0  0
 63143  1  0  0  0
 63144  1  0  0  0
 63145  1  0  0  0
 64146  1  0  0  0
 65147  1  0  0  0
 68 84  1  0  0  0
 71 72  2  0  0  0
 71 74  1  0  0  0
 71148  1  0  0  0
 72 75  1  0  0  0
 72 77  1  0  0  0
 73 75  2  0  0  0
 73 76  1  0  0  0
 73 79  1  0  0  0
 74 76  2  0  0  0
 74 86  1  0  0  0
 75 87  1  0  0  0
 76 88  1  0  0  0
 77149  1  0  0  0
 77150  1  0  0  0
 77151  1  0  0  0
 78 86  1  0  0  0
 78152  1  0  0  0
 78153  1  0  0  0
 78154  1  0  0  0
 79 85  1  0  0  0
 79155  1  0  0  0
 79156  1  0  0  0
 80 81  1  0  0  0
 80 82  1  0  0  0
 80157  1  0  0  0
 80158  1  0  0  0
 81 83  1  0  0  0
 81159  1  0  0  0
 81160  1  0  0  0
 82 84  1  0  0  0
 82161  1  0  0  0
 82162  1  0  0  0
 83 86  1  0  0  0
 83163  1  0  0  0
 83164  1  0  0  0
 84165  1  0  0  0
 84166  1  0  0  0
 85167  1  0  0  0
M  ISO  4   1 100  68 101  84 101  85 100
M  END
> <chiral flag>
0

> <version>
0

> <s_m_source_file>
/data/baiqing/PycharmProjects/Reinvent-master-3.2/result/LINK_invent/BTK/process_docking_weight1_custom_sum_contain_oxygen_bond_distance_aromatic_linkinvent_7_9_3/rearranged_h_0016.sdf

> <i_m_source_file_index>
68

> <r_mmod_Potential_Energy-OPLS-2005>
11785.1103515625

> <r_mmod_Stretch_Energy-OPLS-2005>
5431.3203125

> <r_mmod_Bend_Energy-OPLS-2005>
1086.05297851562

> <r_mmod_Torsional_Energy-OPLS-2005>
528.913635253906

> <r_mmod_Improper_Torsional_Energy-OPLS-2005>
41.2195777893066

> <r_mmod_Van_der_Waal_Energy-OPLS-2005>
1916.51953125

> <r_mmod_Electrostatic_Energy-OPLS-2005>
-368.581726074219

> <r_mmod_Solvation_Energy-OPLS-2005>
-214.818008422852

> <b_mmod_Minimization_Converged-OPLS-2005>
0

> <r_mmod_RMS_Derivative-OPLS-2005>
7.8280816078186

$$$$
68
                    3D
 Structure written by MMmdl.
182190  0  0  1  0            999 V2000
  -30.7439  -14.4619   20.5569 C   0  0  0  0  0  0
  -30.4097  -12.3016   19.4190 C   0  0  0  0  0  0
  -29.4825  -12.4575   18.2024 C   0  0  0  0  0  0
  -28.0019  -12.3377   18.6174 C   0  0  0  0  0  0
  -27.6450  -13.1954   19.8557 C   0  0  2  0  0  0
  -28.6965  -13.0480   20.9805 C   0  0  0  0  0  0
  -25.2511  -13.8079   20.5628 C   0  0  0  0  0  0
  -24.1816  -13.0380   20.9243 C   0  0  0  0  0  0
  -24.6354  -11.6860   20.8821 C   0  0  0  0  0  0
  -23.9047  -10.4279   21.0481 C   0  0  0  0  0  0
  -24.3589   -9.4216   21.9266 C   0  0  0  0  0  0
  -23.6311   -8.2228   22.0802 C   0  0  0  0  0  0
  -22.4304   -8.0255   21.3575 C   0  0  0  0  0  0
  -21.9921   -9.0246   20.4687 C   0  0  0  0  0  0
  -22.7223  -10.2153   20.3120 C   0  0  0  0  0  0
  -21.6879   -6.0714   22.5289 C   0  0  0  0  0  0
  -21.4019   -6.5606   23.8208 C   0  0  0  0  0  0
  -21.3685   -5.6765   24.9168 C   0  0  0  0  0  0
  -21.6068   -4.3017   24.7229 C   0  0  0  0  0  0
  -21.8861   -3.8124   23.4337 C   0  0  0  0  0  0
  -21.9216   -4.6938   22.3397 C   0  0  0  0  0  0
  -22.7865  -13.5229   21.1915 C   0  0  0  0  0  0
  -22.1701   -4.2138   21.0974 F   0  0  0  0  0  0
  -21.5628   -3.4501   25.7730 F   0  0  0  0  0  0
  -30.0216  -13.3179   20.4021 N   0  0  0  0  0  0
  -26.2930  -12.9249   20.3306 N   0  0  0  0  0  0
  -25.9259  -11.6422   20.5776 N   0  0  0  0  0  0
  -22.0513  -12.8221   22.0458 N   0  0  0  0  0  0
  -25.4079  -15.1778   20.3821 N   0  0  0  0  0  0
  -31.9226  -14.5718   20.2163 O   0  0  0  0  0  0
  -21.6676   -6.8856   21.4239 O   0  0  0  0  0  0
  -22.3601  -14.5577   20.6804 O   0  0  0  0  0  0
  -24.6084  -31.8698   23.2142 C   0  0  0  0  0  0
  -25.9002  -32.4832   23.8405 C   0  0  1  0  0  0
  -27.2301  -27.4609   20.0990 C   0  0  0  0  0  0
  -25.5895  -33.8635   24.2352 N   0  0  0  0  0  0
  -23.3981  -30.4894   21.5526 C   0  0  2  0  0  0
  -24.8461  -28.9602   20.1159 C   0  0  0  0  0  0
  -22.7407  -29.4622   22.5018 C   0  0  0  0  0  0
  -18.0274  -28.1373   22.8437 C   0  0  0  0  0  0
  -24.1485  -36.7319   23.2636 C   0  0  0  0  0  0
  -25.9245  -30.8428   21.3640 C   0  0  0  0  0  0
  -26.0035  -29.4796   20.7149 C   0  0  0  0  0  0
  -27.1991  -28.7302   20.7139 C   0  0  0  0  0  0
  -26.0687  -26.9564   19.4838 C   0  0  0  0  0  0
  -24.8681  -27.6938   19.5049 C   0  0  0  0  0  0
  -23.6037  -29.8217   20.1670 C   0  0  0  0  0  0
  -25.4108  -36.3123   24.0336 C   0  0  1  0  0  0
  -20.5847  -28.3663   23.1338 C   0  0  2  0  0  0
  -20.6784  -26.9418   22.5434 C   0  0  0  0  0  0
  -19.5790  -26.6376   21.5212 C   0  0  0  0  0  0
  -18.1953  -26.7914   22.1579 C   0  0  0  0  0  0
  -19.1515  -28.8832   23.2876 C   0  0  0  0  0  0
  -18.9419  -30.1412   23.8900 C   0  0  0  0  0  0
  -17.6424  -30.6569   24.0538 C   0  0  0  0  0  0
  -25.9024  -34.9477   23.5139 C   0  0  0  0  0  0
  -16.5332  -29.9057   23.6268 C   0  0  0  0  0  0
  -16.7256  -28.6471   23.0306 C   0  0  0  0  0  0
  -26.4445  -31.6601   25.0715 C   0  0  0  0  0  0
  -25.3703  -31.3728   26.1473 C   0  0  0  0  0  0
  -27.0237  -30.3036   24.6048 C   0  0  0  0  0  0
  -27.6039  -32.4325   25.7472 C   0  0  0  0  0  0
  -27.5600  -37.1812   24.8466 C   0  0  0  0  0  0
  -21.4139  -29.3040   22.3771 N   0  0  0  0  0  0
  -26.4309  -37.3800   23.9406 N   0  0  0  0  0  0
  -24.6615  -31.0804   22.1018 N   0  0  0  0  0  0
  -23.4198  -28.8149   23.3057 O   0  0  0  0  0  0
  -28.3826  -26.7213   20.0517 O   0  0  0  0  0  0
  -26.5597  -34.8944   22.4703 O   0  0  0  0  0  0
  -23.5276  -32.1449   23.7539 O   0  0  0  0  0  0
  -29.3870  -16.0954   18.5465 C   0  0  0  0  0  0
  -28.2496  -16.7012   17.9340 C   0  0  0  0  0  0
  -29.2535  -16.1936   19.9048 C   0  0  0  0  0  0
  -27.5797  -17.2922   18.9838 C   0  0  0  0  0  0
  -26.1896  -19.2170   18.5842 C   0  0  0  0  0  0
  -28.6596  -15.4489   15.7826 C   0  0  0  0  0  0
  -28.3650  -17.9188   15.7337 C   0  0  0  0  0  0
  -26.4147  -16.3777   16.2015 C   0  0  0  0  0  0
  -27.7292  -17.3949   21.5325 C   0  0  0  0  0  0
  -24.7170  -19.6347   18.5179 C   0  0  0  0  0  0
  -24.4194  -21.1157   18.8239 C   0  0  0  0  0  0
  -24.7866  -21.5815   20.2465 C   0  0  0  0  0  0
  -25.9941  -22.5317   20.3139 C   0  0  0  0  0  0
  -26.2992  -22.9578   21.7620 C   0  0  0  0  0  0
  -26.8526  -24.3925   21.8845 C   0  0  0  0  0  0
  -28.2507  -24.5951   21.2700 C   0  0  0  0  0  0
  -28.7337  -26.0658   21.2665 C   0  0  0  0  0  0
  -27.9183  -16.6302   16.4404 C   0  0  0  0  0  0
  -28.1742  -16.9981   20.2063 N   0  0  0  0  0  0
  -26.3895  -17.9319   18.8929 N   0  0  0  0  0  0
  -30.0422  -15.5793   20.8278 N   0  0  0  0  0  0
  -27.0991  -20.0143   18.3421 O   0  0  0  0  0  0
  -31.4489  -12.3917   19.1025 H   0  0  0  0  0  0
  -30.3038  -11.3062   19.8503 H   0  0  0  0  0  0
  -29.7142  -11.6978   17.4553 H   0  0  0  0  0  0
  -29.6731  -13.4173   17.7265 H   0  0  0  0  0  0
  -27.7986  -11.2875   18.8327 H   0  0  0  0  0  0
  -27.3570  -12.6085   17.7816 H   0  0  0  0  0  0
  -27.6541  -14.2226   19.5075 H   0  0  0  0  0  0
  -28.6752  -12.0462   21.4084 H   0  0  0  0  0  0
  -28.4661  -13.7330   21.8008 H   0  0  0  0  0  0
  -25.2723   -9.5673   22.4863 H   0  0  0  0  0  0
  -24.0031   -7.4628   22.7507 H   0  0  0  0  0  0
  -21.0880   -8.8788   19.8975 H   0  0  0  0  0  0
  -22.3717  -10.9709   19.6243 H   0  0  0  0  0  0
  -21.1987   -7.6115   23.9699 H   0  0  0  0  0  0
  -21.1436   -6.0468   25.9078 H   0  0  0  0  0  0
  -22.0583   -2.7581   23.2842 H   0  0  0  0  0  0
  -22.4038  -11.9702   22.4567 H   0  0  0  0  0  0
  -21.1189  -13.1377   22.2761 H   0  0  0  0  0  0
  -24.6083  -15.7968   20.4410 H   0  0  0  0  0  0
  -26.2465  -15.5965   19.9984 H   0  0  0  0  0  0
  -26.7103  -32.5527   23.1197 H   0  0  0  0  0  0
  -25.0008  -33.9822   25.0476 H   0  0  0  0  0  0
  -22.6848  -31.3041   21.4150 H   0  0  0  0  0  0
  -23.3758  -35.9644   23.3295 H   0  0  0  0  0  0
  -24.3586  -36.8924   22.2055 H   0  0  0  0  0  0
  -23.7253  -37.6535   23.6638 H   0  0  0  0  0  0
  -26.0316  -31.6099   20.5948 H   0  0  0  0  0  0
  -26.8178  -30.8998   21.9755 H   0  0  0  0  0  0
  -28.0958  -29.1166   21.1747 H   0  0  0  0  0  0
  -26.0864  -25.9838   19.0137 H   0  0  0  0  0  0
  -23.9778  -27.2861   19.0473 H   0  0  0  0  0  0
  -23.7091  -30.5981   19.4085 H   0  0  0  0  0  0
  -22.7290  -29.2411   19.8714 H   0  0  0  0  0  0
  -25.1287  -36.1987   25.0831 H   0  0  0  0  0  0
  -20.9896  -28.3207   24.1473 H   0  0  0  0  0  0
  -20.5671  -26.2267   23.3607 H   0  0  0  0  0  0
  -21.6654  -26.7471   22.1245 H   0  0  0  0  0  0
  -19.6995  -25.6286   21.1257 H   0  0  0  0  0  0
  -19.6732  -27.3163   20.6727 H   0  0  0  0  0  0
  -17.4230  -26.6595   21.3992 H   0  0  0  0  0  0
  -18.0344  -26.0099   22.9001 H   0  0  0  0  0  0
  -19.7879  -30.7206   24.2339 H   0  0  0  0  0  0
  -17.4955  -31.6218   24.5152 H   0  0  0  0  0  0
  -15.5335  -30.2942   23.7568 H   0  0  0  0  0  0
  -15.8653  -28.0766   22.7060 H   0  0  0  0  0  0
  -24.5831  -30.7123   25.7832 H   0  0  0  0  0  0
  -24.8918  -32.2875   26.4967 H   0  0  0  0  0  0
  -25.8028  -30.8859   27.0203 H   0  0  0  0  0  0
  -26.2744  -29.6879   24.1046 H   0  0  0  0  0  0
  -27.3967  -29.7223   25.4489 H   0  0  0  0  0  0
  -27.8609  -30.4407   23.9202 H   0  0  0  0  0  0
  -27.2657  -33.3617   26.2089 H   0  0  0  0  0  0
  -28.3806  -32.6907   25.0258 H   0  0  0  0  0  0
  -28.0731  -31.8395   26.5332 H   0  0  0  0  0  0
  -28.2610  -38.0120   24.7499 H   0  0  0  0  0  0
  -28.1091  -36.2637   24.6272 H   0  0  0  0  0  0
  -27.2295  -37.1457   25.8867 H   0  0  0  0  0  0
  -20.9319  -29.8779   21.7004 H   0  0  0  0  0  0
  -26.0187  -38.2875   24.1403 H   0  0  0  0  0  0
  -30.1783  -15.5658   18.0387 H   0  0  0  0  0  0
  -29.7411  -15.5380   15.8630 H   0  0  0  0  0  0
  -28.4351  -15.3698   14.7201 H   0  0  0  0  0  0
  -28.3757  -14.5035   16.2372 H   0  0  0  0  0  0
  -29.4338  -18.0965   15.8780 H   0  0  0  0  0  0
  -27.8356  -18.7918   16.1106 H   0  0  0  0  0  0
  -28.1842  -17.8651   14.6579 H   0  0  0  0  0  0
  -26.0675  -15.5056   16.7588 H   0  0  0  0  0  0
  -26.2053  -16.1970   15.1486 H   0  0  0  0  0  0
  -25.7932  -17.2260   16.4831 H   0  0  0  0  0  0
  -28.5363  -17.9076   22.0579 H   0  0  0  0  0  0
  -27.4378  -16.5088   22.0965 H   0  0  0  0  0  0
  -26.8840  -18.0786   21.4654 H   0  0  0  0  0  0
  -24.1427  -19.0012   19.1962 H   0  0  0  0  0  0
  -24.3531  -19.4017   17.5171 H   0  0  0  0  0  0
  -23.3456  -21.2470   18.6935 H   0  0  0  0  0  0
  -24.8705  -21.7650   18.0721 H   0  0  0  0  0  0
  -24.9467  -20.7293   20.9067 H   0  0  0  0  0  0
  -23.9259  -22.1109   20.6606 H   0  0  0  0  0  0
  -25.7901  -23.4063   19.6948 H   0  0  0  0  0  0
  -26.8828  -22.0673   19.8798 H   0  0  0  0  0  0
  -26.9730  -22.2322   22.2226 H   0  0  0  0  0  0
  -25.3806  -22.9052   22.3485 H   0  0  0  0  0  0
  -26.8962  -24.6617   22.9423 H   0  0  0  0  0  0
  -26.1400  -25.0854   21.4360 H   0  0  0  0  0  0
  -28.2911  -24.2070   20.2504 H   0  0  0  0  0  0
  -28.9576  -23.9936   21.8437 H   0  0  0  0  0  0
  -29.8233  -26.0749   21.3161 H   0  0  0  0  0  0
  -28.3946  -26.6098   22.1526 H   0  0  0  0  0  0
  -25.5598  -17.3834   19.0693 H   0  0  0  0  0  0
  -30.5446  -16.2368   21.4064 H   0  0  0  0  0  0
  1 25  1  0  0  0
  1 30  2  0  0  0
  1 91  1  0  0  0
  2  3  1  0  0  0
  2 25  1  0  0  0
  2 93  1  0  0  0
  2 94  1  0  0  0
  3  4  1  0  0  0
  3 95  1  0  0  0
  3 96  1  0  0  0
  4  5  1  0  0  0
  4 97  1  0  0  0
  4 98  1  0  0  0
  5  6  1  0  0  0
  5 26  1  0  0  0
  5 99  1  0  0  0
  6 25  1  0  0  0
  6100  1  0  0  0
  6101  1  0  0  0
  7  8  2  0  0  0
  7 26  1  0  0  0
  7 29  1  0  0  0
  8  9  1  0  0  0
  8 22  1  0  0  0
  9 10  1  0  0  0
  9 27  2  0  0  0
 10 11  2  0  0  0
 10 15  1  0  0  0
 11 12  1  0  0  0
 11102  1  0  0  0
 12 13  2  0  0  0
 12103  1  0  0  0
 13 14  1  0  0  0
 13 31  1  0  0  0
 14 15  2  0  0  0
 14104  1  0  0  0
 15105  1  0  0  0
 16 17  2  0  0  0
 16 21  1  0  0  0
 16 31  1  0  0  0
 17 18  1  0  0  0
 17106  1  0  0  0
 18 19  2  0  0  0
 18107  1  0  0  0
 19 20  1  0  0  0
 19 24  1  0  0  0
 20 21  2  0  0  0
 20108  1  0  0  0
 21 23  1  0  0  0
 22 28  1  0  0  0
 22 32  2  0  0  0
 26 27  1  0  0  0
 28109  1  0  0  0
 28110  1  0  0  0
 29111  1  0  0  0
 29112  1  0  0  0
 33 34  1  0  0  0
 33 66  1  0  0  0
 33 70  2  0  0  0
 34 36  1  0  0  0
 34 59  1  0  0  0
 34113  1  0  0  0
 35 44  2  0  0  0
 35 45  1  0  0  0
 35 68  1  0  0  0
 36 56  1  0  0  0
 36114  1  0  0  0
 37 39  1  0  0  0
 37 47  1  0  0  0
 37 66  1  0  0  0
 37115  1  0  0  0
 38 43  2  0  0  0
 38 46  1  0  0  0
 38 47  1  0  0  0
 39 64  1  0  0  0
 39 67  2  0  0  0
 40 52  1  0  0  0
 40 53  2  0  0  0
 40 58  1  0  0  0
 41116  1  0  0  0
 41117  1  0  0  0
 41118  1  0  0  0
 41 48  1  0  0  0
 42 43  1  0  0  0
 42 66  1  0  0  0
 42119  1  0  0  0
 42120  1  0  0  0
 43 44  1  0  0  0
 44121  1  0  0  0
 45 46  2  0  0  0
 45122  1  0  0  0
 46123  1  0  0  0
 47124  1  0  0  0
 47125  1  0  0  0
 48 56  1  0  0  0
 48 65  1  0  0  0
 48126  1  0  0  0
 49 50  1  0  0  0
 49 53  1  0  0  0
 49 64  1  0  0  0
 49127  1  0  0  0
 50 51  1  0  0  0
 50128  1  0  0  0
 50129  1  0  0  0
 51 52  1  0  0  0
 51130  1  0  0  0
 51131  1  0  0  0
 52132  1  0  0  0
 52133  1  0  0  0
 53 54  1  0  0  0
 54 55  2  0  0  0
 54134  1  0  0  0
 55 57  1  0  0  0
 55135  1  0  0  0
 56 69  2  0  0  0
 57 58  2  0  0  0
 57136  1  0  0  0
 58137  1  0  0  0
 59 60  1  0  0  0
 59 61  1  0  0  0
 59 62  1  0  0  0
 60138  1  0  0  0
 60139  1  0  0  0
 60140  1  0  0  0
 61141  1  0  0  0
 61142  1  0  0  0
 61143  1  0  0  0
 62144  1  0  0  0
 62145  1  0  0  0
 62146  1  0  0  0
 63 65  1  0  0  0
 63147  1  0  0  0
 63148  1  0  0  0
 63149  1  0  0  0
 64150  1  0  0  0
 65151  1  0  0  0
 68 87  1  0  0  0
 71 72  1  0  0  0
 71 73  2  0  0  0
 71152  1  0  0  0
 72 74  2  0  0  0
 72 88  1  0  0  0
 73 89  1  0  0  0
 73 91  1  0  0  0
 74 89  1  0  0  0
 74 90  1  0  0  0
 75 80  1  0  0  0
 75 90  1  0  0  0
 75 92  2  0  0  0
 76153  1  0  0  0
 76154  1  0  0  0
 76155  1  0  0  0
 76 88  1  0  0  0
 77 88  1  0  0  0
 77156  1  0  0  0
 77157  1  0  0  0
 77158  1  0  0  0
 78 88  1  0  0  0
 78159  1  0  0  0
 78160  1  0  0  0
 78161  1  0  0  0
 79 89  1  0  0  0
 79162  1  0  0  0
 79163  1  0  0  0
 79164  1  0  0  0
 80 81  1  0  0  0
 80165  1  0  0  0
 80166  1  0  0  0
 81 82  1  0  0  0
 81167  1  0  0  0
 81168  1  0  0  0
 82 83  1  0  0  0
 82169  1  0  0  0
 82170  1  0  0  0
 83 84  1  0  0  0
 83171  1  0  0  0
 83172  1  0  0  0
 84 85  1  0  0  0
 84173  1  0  0  0
 84174  1  0  0  0
 85 86  1  0  0  0
 85175  1  0  0  0
 85176  1  0  0  0
 86 87  1  0  0  0
 86177  1  0  0  0
 86178  1  0  0  0
 87179  1  0  0  0
 87180  1  0  0  0
 90181  1  0  0  0
 91182  1  0  0  0
M  ISO  4   1 100  68 101  87 101  91 100
M  END
> <chiral flag>
0

> <version>
0

> <s_m_source_file>
/data/baiqing/PycharmProjects/Reinvent-master-3.2/result/LINK_invent/BTK/process_docking_weight1_custom_sum_contain_oxygen_bond_distance_aromatic_linkinvent_7_9_3/rearranged_h_0016.sdf

> <i_m_source_file_index>
69

> <r_mmod_Potential_Energy-OPLS-2005>
-10.3738307952881

> <r_mmod_Stretch_Energy-OPLS-2005>
32.7663230895996

> <r_mmod_Bend_Energy-OPLS-2005>
125.835639953613

> <r_mmod_Torsional_Energy-OPLS-2005>
339.491058349609

> <r_mmod_Improper_Torsional_Energy-OPLS-2005>
11.5023183822632

> <r_mmod_Van_der_Waal_Energy-OPLS-2005>
109.31876373291

> <r_mmod_Electrostatic_Energy-OPLS-2005>
-442.199890136719

> <r_mmod_Solvation_Energy-OPLS-2005>
-205.149719238281

> <b_mmod_Minimization_Converged-OPLS-2005>
0

> <r_mmod_RMS_Derivative-OPLS-2005>
5.84745740890503

$$$$
69
                    3D
 Structure written by MMmdl.
194202  0  0  1  0            999 V2000
  -30.7758  -14.3921   20.6451 C   0  0  0  0  0  0
  -30.4147  -12.2853   19.4175 C   0  0  0  0  0  0
  -29.4978  -12.5336   18.2060 C   0  0  0  0  0  0
  -28.0173  -12.3932   18.6095 C   0  0  0  0  0  0
  -27.6673  -13.2183   19.8763 C   0  0  2  0  0  0
  -28.7051  -12.9815   20.9991 C   0  0  0  0  0  0
  -25.2608  -13.8201   20.5682 C   0  0  0  0  0  0
  -24.1845  -13.0476   20.9165 C   0  0  0  0  0  0
  -24.6401  -11.6939   20.8683 C   0  0  0  0  0  0
  -23.9058  -10.4337   21.0370 C   0  0  0  0  0  0
  -24.3602   -9.4261   21.9164 C   0  0  0  0  0  0
  -23.6298   -8.2286   22.0739 C   0  0  0  0  0  0
  -22.4285   -8.0300   21.3541 C   0  0  0  0  0  0
  -21.9907   -9.0260   20.4633 C   0  0  0  0  0  0
  -22.7220  -10.2147   20.3029 C   0  0  0  0  0  0
  -21.6859   -6.0741   22.5283 C   0  0  0  0  0  0
  -21.4018   -6.5642   23.8210 C   0  0  0  0  0  0
  -21.3656   -5.6790   24.9171 C   0  0  0  0  0  0
  -21.6037   -4.3054   24.7212 C   0  0  0  0  0  0
  -21.8826   -3.8145   23.4339 C   0  0  0  0  0  0
  -21.9198   -4.6969   22.3393 C   0  0  0  0  0  0
  -22.7872  -13.5262   21.1833 C   0  0  0  0  0  0
  -22.1668   -4.2161   21.0974 F   0  0  0  0  0  0
  -21.5633   -3.4525   25.7721 F   0  0  0  0  0  0
  -30.0542  -13.2526   20.4660 N   0  0  0  0  0  0
  -26.3049  -12.9394   20.3335 N   0  0  0  0  0  0
  -25.9342  -11.6545   20.5716 N   0  0  0  0  0  0
  -22.0473  -12.8245   22.0355 N   0  0  0  0  0  0
  -25.4356  -15.1908   20.4121 N   0  0  0  0  0  0
  -31.8187  -14.6236   20.0272 O   0  0  0  0  0  0
  -21.6664   -6.8879   21.4239 O   0  0  0  0  0  0
  -22.3569  -14.5576   20.6696 O   0  0  0  0  0  0
  -24.6107  -31.8732   23.2125 C   0  0  0  0  0  0
  -25.9007  -32.4856   23.8388 C   0  0  1  0  0  0
  -27.2307  -27.4876   20.0403 C   0  0  0  0  0  0
  -25.5864  -33.8643   24.2351 N   0  0  0  0  0  0
  -23.3915  -30.4986   21.5564 C   0  0  2  0  0  0
  -24.8281  -28.9580   20.1267 C   0  0  0  0  0  0
  -22.7367  -29.4706   22.5058 C   0  0  0  0  0  0
  -18.0252  -28.1360   22.8479 C   0  0  0  0  0  0
  -24.1479  -36.7345   23.2632 C   0  0  0  0  0  0
  -25.9139  -30.8455   21.3534 C   0  0  0  0  0  0
  -25.9855  -29.4729   20.7229 C   0  0  0  0  0  0
  -27.1824  -28.7285   20.7097 C   0  0  0  0  0  0
  -26.0409  -26.9521   19.4936 C   0  0  0  0  0  0
  -24.8439  -27.6880   19.5255 C   0  0  0  0  0  0
  -23.5919  -29.8259   20.1724 C   0  0  0  0  0  0
  -25.4100  -36.3155   24.0344 C   0  0  1  0  0  0
  -20.5843  -28.3636   23.1377 C   0  0  2  0  0  0
  -20.6760  -26.9389   22.5448 C   0  0  0  0  0  0
  -19.5747  -26.6371   21.5231 C   0  0  0  0  0  0
  -18.1924  -26.7904   22.1633 C   0  0  0  0  0  0
  -19.1492  -28.8814   23.2929 C   0  0  0  0  0  0
  -18.9410  -30.1436   23.8923 C   0  0  0  0  0  0
  -17.6415  -30.6576   24.0538 C   0  0  0  0  0  0
  -25.9008  -34.9511   23.5148 C   0  0  0  0  0  0
  -16.5311  -29.9076   23.6297 C   0  0  0  0  0  0
  -16.7239  -28.6491   23.0310 C   0  0  0  0  0  0
  -26.4449  -31.6587   25.0679 C   0  0  0  0  0  0
  -25.3729  -31.3639   26.1425 C   0  0  0  0  0  0
  -27.0203  -30.3033   24.5946 C   0  0  0  0  0  0
  -27.6037  -32.4256   25.7466 C   0  0  0  0  0  0
  -27.5592  -37.1840   24.8461 C   0  0  0  0  0  0
  -21.4105  -29.3027   22.3810 N   0  0  0  0  0  0
  -26.4293  -37.3845   23.9418 N   0  0  0  0  0  0
  -24.6587  -31.0846   22.1020 N   0  0  0  0  0  0
  -23.4174  -28.8263   23.3072 O   0  0  0  0  0  0
  -28.4511  -26.8774   19.8730 O   0  0  0  0  0  0
  -26.5584  -34.8961   22.4724 O   0  0  0  0  0  0
  -23.5313  -32.1491   23.7539 O   0  0  0  0  0  0
  -31.8328  -17.1075   21.9528 C   0  0  0  0  0  0
  -31.6705  -18.5030   21.7457 C   0  0  0  0  0  0
  -30.6338  -16.5730   21.5740 C   0  0  0  0  0  0
  -28.2858  -17.4163   19.2754 C   0  0  0  0  0  0
  -29.2918  -30.7685   17.2370 C   0  0  0  0  0  0
  -30.8436  -30.0692   19.1142 C   0  0  0  0  0  0
  -27.5005  -27.9902   16.9040 C   0  0  0  0  0  0
  -33.2724  -24.9193   18.8953 C   0  0  0  0  0  0
  -33.4651  -23.4055   19.0417 C   0  0  0  0  0  0
  -32.9488  -25.3264   17.4529 C   0  0  0  0  0  0
  -33.0677  -22.9074   20.4345 C   0  0  0  0  0  0
  -32.6087  -26.8191   17.3480 C   0  0  0  0  0  0
  -33.2002  -21.3859   20.5700 C   0  0  0  0  0  0
  -31.7176  -27.1460   16.1349 C   0  0  0  0  0  0
  -28.4129  -17.6043   20.7923 C   0  0  0  0  0  0
  -32.4514  -20.8647   21.7985 C   0  0  0  0  0  0
  -30.8666  -28.4161   16.3424 C   0  0  0  0  0  0
  -28.7313  -26.3380   18.5677 C   0  0  0  0  0  0
  -29.6816  -29.6279   18.2047 C   0  0  0  0  0  0
  -28.8302  -27.3595   17.3869 C   0  0  2  0  0  0
  -30.4556  -18.8105   21.3005 N   0  0  0  0  0  0
  -29.7990  -17.6212   21.2235 N   0  0  0  0  0  0
  -32.6773  -19.4393   21.9940 N   0  0  0  0  0  0
  -30.2835  -15.2613   21.5389 N   0  0  0  0  0  0
  -29.9782  -28.3196   17.5391 N   0  3  1  0  0  0
  -33.2338  -16.2909   22.5562 Cl  0  0  0  0  0  0
  -31.4644  -12.3542   19.1240 H   0  0  0  0  0  0
  -30.2846  -11.2697   19.7953 H   0  0  0  0  0  0
  -29.7423  -11.8357   17.4033 H   0  0  0  0  0  0
  -29.6801  -13.5349   17.8091 H   0  0  0  0  0  0
  -27.8178  -11.3366   18.7941 H   0  0  0  0  0  0
  -27.3731  -12.6853   17.7803 H   0  0  0  0  0  0
  -27.7162  -14.2697   19.5901 H   0  0  0  0  0  0
  -28.6559  -11.9466   21.3379 H   0  0  0  0  0  0
  -28.4585  -13.5795   21.8757 H   0  0  0  0  0  0
  -25.2734   -9.5771   22.4745 H   0  0  0  0  0  0
  -24.0032   -7.4687   22.7451 H   0  0  0  0  0  0
  -21.0845   -8.8742   19.8938 H   0  0  0  0  0  0
  -22.3652  -10.9666   19.6132 H   0  0  0  0  0  0
  -21.2004   -7.6151   23.9714 H   0  0  0  0  0  0
  -21.1479   -6.0516   25.9073 H   0  0  0  0  0  0
  -22.0608   -2.7616   23.2817 H   0  0  0  0  0  0
  -22.4061  -11.9903   22.4759 H   0  0  0  0  0  0
  -21.1086  -13.1296   22.2515 H   0  0  0  0  0  0
  -24.6656  -15.8436   20.5030 H   0  0  0  0  0  0
  -26.2814  -15.6152   20.0554 H   0  0  0  0  0  0
  -26.7073  -32.5568   23.1143 H   0  0  0  0  0  0
  -24.9982  -33.9808   25.0469 H   0  0  0  0  0  0
  -22.6779  -31.3147   21.4236 H   0  0  0  0  0  0
  -23.3758  -35.9662   23.3276 H   0  0  0  0  0  0
  -24.3573  -36.8952   22.2048 H   0  0  0  0  0  0
  -23.7203  -37.6545   23.6624 H   0  0  0  0  0  0
  -25.9956  -31.6004   20.5690 H   0  0  0  0  0  0
  -26.8153  -30.9232   21.9487 H   0  0  0  0  0  0
  -28.0834  -29.1402   21.1457 H   0  0  0  0  0  0
  -26.0237  -25.9940   18.9962 H   0  0  0  0  0  0
  -23.9497  -27.2847   19.0694 H   0  0  0  0  0  0
  -23.6955  -30.5945   19.4068 H   0  0  0  0  0  0
  -22.7135  -29.2462   19.8853 H   0  0  0  0  0  0
  -25.1300  -36.2049   25.0846 H   0  0  0  0  0  0
  -20.9941  -28.3176   24.1493 H   0  0  0  0  0  0
  -20.5673  -26.2254   23.3631 H   0  0  0  0  0  0
  -21.6641  -26.7476   22.1246 H   0  0  0  0  0  0
  -19.6903  -25.6289   21.1243 H   0  0  0  0  0  0
  -19.6668  -27.3207   20.6786 H   0  0  0  0  0  0
  -17.4231  -26.6647   21.3997 H   0  0  0  0  0  0
  -18.0291  -26.0042   22.9035 H   0  0  0  0  0  0
  -19.7892  -30.7244   24.2294 H   0  0  0  0  0  0
  -17.4962  -31.6252   24.5158 H   0  0  0  0  0  0
  -15.5311  -30.2966   23.7595 H   0  0  0  0  0  0
  -15.8654  -28.0834   22.6954 H   0  0  0  0  0  0
  -24.5978  -30.6874   25.7786 H   0  0  0  0  0  0
  -24.8793  -32.2733   26.4847 H   0  0  0  0  0  0
  -25.8106  -30.8882   27.0195 H   0  0  0  0  0  0
  -26.2655  -29.6875   24.1014 H   0  0  0  0  0  0
  -27.4002  -29.7200   25.4335 H   0  0  0  0  0  0
  -27.8500  -30.4347   23.8994 H   0  0  0  0  0  0
  -27.2697  -33.3597   26.2001 H   0  0  0  0  0  0
  -28.3908  -32.6715   25.0322 H   0  0  0  0  0  0
  -28.0615  -31.8354   26.5424 H   0  0  0  0  0  0
  -28.2651  -38.0114   24.7574 H   0  0  0  0  0  0
  -28.1066  -36.2664   24.6243 H   0  0  0  0  0  0
  -27.2303  -37.1456   25.8858 H   0  0  0  0  0  0
  -20.9253  -29.8749   21.7051 H   0  0  0  0  0  0
  -26.0209  -38.2939   24.1389 H   0  0  0  0  0  0
  -27.2394  -17.3960   18.9729 H   0  0  0  0  0  0
  -28.7431  -16.4812   18.9546 H   0  0  0  0  0  0
  -28.7687  -18.2303   18.7324 H   0  0  0  0  0  0
  -28.9869  -31.6509   17.7993 H   0  0  0  0  0  0
  -28.4583  -30.5080   16.5903 H   0  0  0  0  0  0
  -30.1221  -31.0759   16.6047 H   0  0  0  0  0  0
  -30.5723  -30.9601   19.6805 H   0  0  0  0  0  0
  -31.7390  -30.3161   18.5441 H   0  0  0  0  0  0
  -31.1075  -29.3019   19.8433 H   0  0  0  0  0  0
  -26.7394  -27.2189   16.7809 H   0  0  0  0  0  0
  -27.6151  -28.4578   15.9256 H   0  0  0  0  0  0
  -27.0960  -28.7368   17.5867 H   0  0  0  0  0  0
  -34.1547  -25.4500   19.2555 H   0  0  0  0  0  0
  -32.4471  -25.2354   19.5381 H   0  0  0  0  0  0
  -34.4985  -23.1379   18.8141 H   0  0  0  0  0  0
  -32.8468  -22.8853   18.3093 H   0  0  0  0  0  0
  -32.0948  -24.7299   17.1272 H   0  0  0  0  0  0
  -33.7672  -25.0751   16.7760 H   0  0  0  0  0  0
  -32.0312  -23.1924   20.6259 H   0  0  0  0  0  0
  -33.6639  -23.4010   21.2036 H   0  0  0  0  0  0
  -33.5237  -27.4142   17.3166 H   0  0  0  0  0  0
  -32.1123  -27.1159   18.2703 H   0  0  0  0  0  0
  -34.2563  -21.1199   20.6253 H   0  0  0  0  0  0
  -32.8034  -20.8985   19.6773 H   0  0  0  0  0  0
  -31.0776  -26.2985   15.8936 H   0  0  0  0  0  0
  -32.3441  -27.2678   15.2497 H   0  0  0  0  0  0
  -27.8912  -16.8113   21.3275 H   0  0  0  0  0  0
  -27.9356  -18.5378   21.0964 H   0  0  0  0  0  0
  -31.3890  -21.0891   21.6926 H   0  0  0  0  0  0
  -32.7844  -21.3969   22.6894 H   0  0  0  0  0  0
  -30.2711  -28.6256   15.4519 H   0  0  0  0  0  0
  -31.5554  -29.2563   16.4493 H   0  0  0  0  0  0
  -29.6871  -25.8162   18.6419 H   0  0  0  0  0  0
  -28.0226  -25.5494   18.3160 H   0  0  0  0  0  0
  -28.8421  -29.4692   18.8701 H   0  0  0  0  0  0
  -29.0804  -26.7073   16.5522 H   0  0  0  0  0  0
  -33.5506  -19.1227   22.4065 H   0  0  0  0  0  0
  -29.4167  -15.0055   21.9814 H   0  0  0  0  0  0
  -30.5684  -27.8589   18.2177 H   0  0  0  0  0  0
  1 25  1  0  0  0
  1 30  2  0  0  0
  1 94  1  0  0  0
  2  3  1  0  0  0
  2 25  1  0  0  0
  2 97  1  0  0  0
  2 98  1  0  0  0
  3  4  1  0  0  0
  3 99  1  0  0  0
  3100  1  0  0  0
  4  5  1  0  0  0
  4101  1  0  0  0
  4102  1  0  0  0
  5  6  1  0  0  0
  5 26  1  0  0  0
  5103  1  0  0  0
  6 25  1  0  0  0
  6104  1  0  0  0
  6105  1  0  0  0
  7  8  2  0  0  0
  7 26  1  0  0  0
  7 29  1  0  0  0
  8  9  1  0  0  0
  8 22  1  0  0  0
  9 10  1  0  0  0
  9 27  2  0  0  0
 10 11  2  0  0  0
 10 15  1  0  0  0
 11 12  1  0  0  0
 11106  1  0  0  0
 12 13  2  0  0  0
 12107  1  0  0  0
 13 14  1  0  0  0
 13 31  1  0  0  0
 14 15  2  0  0  0
 14108  1  0  0  0
 15109  1  0  0  0
 16 17  2  0  0  0
 16 21  1  0  0  0
 16 31  1  0  0  0
 17 18  1  0  0  0
 17110  1  0  0  0
 18 19  2  0  0  0
 18111  1  0  0  0
 19 20  1  0  0  0
 19 24  1  0  0  0
 20 21  2  0  0  0
 20112  1  0  0  0
 21 23  1  0  0  0
 22 28  1  0  0  0
 22 32  2  0  0  0
 26 27  1  0  0  0
 28113  1  0  0  0
 28114  1  0  0  0
 29115  1  0  0  0
 29116  1  0  0  0
 33 34  1  0  0  0
 33 66  1  0  0  0
 33 70  2  0  0  0
 34 36  1  0  0  0
 34 59  1  0  0  0
 34117  1  0  0  0
 35 44  2  0  0  0
 35 45  1  0  0  0
 35 68  1  0  0  0
 36 56  1  0  0  0
 36118  1  0  0  0
 37 39  1  0  0  0
 37 47  1  0  0  0
 37 66  1  0  0  0
 37119  1  0  0  0
 38 43  2  0  0  0
 38 46  1  0  0  0
 38 47  1  0  0  0
 39 64  1  0  0  0
 39 67  2  0  0  0
 40 52  1  0  0  0
 40 53  2  0  0  0
 40 58  1  0  0  0
 41120  1  0  0  0
 41121  1  0  0  0
 41122  1  0  0  0
 41 48  1  0  0  0
 42 43  1  0  0  0
 42 66  1  0  0  0
 42123  1  0  0  0
 42124  1  0  0  0
 43 44  1  0  0  0
 44125  1  0  0  0
 45 46  2  0  0  0
 45126  1  0  0  0
 46127  1  0  0  0
 47128  1  0  0  0
 47129  1  0  0  0
 48 56  1  0  0  0
 48 65  1  0  0  0
 48130  1  0  0  0
 49 50  1  0  0  0
 49 53  1  0  0  0
 49 64  1  0  0  0
 49131  1  0  0  0
 50 51  1  0  0  0
 50132  1  0  0  0
 50133  1  0  0  0
 51 52  1  0  0  0
 51134  1  0  0  0
 51135  1  0  0  0
 52136  1  0  0  0
 52137  1  0  0  0
 53 54  1  0  0  0
 54 55  2  0  0  0
 54138  1  0  0  0
 55 57  1  0  0  0
 55139  1  0  0  0
 56 69  2  0  0  0
 57 58  2  0  0  0
 57140  1  0  0  0
 58141  1  0  0  0
 59 60  1  0  0  0
 59 61  1  0  0  0
 59 62  1  0  0  0
 60142  1  0  0  0
 60143  1  0  0  0
 60144  1  0  0  0
 61145  1  0  0  0
 61146  1  0  0  0
 61147  1  0  0  0
 62148  1  0  0  0
 62149  1  0  0  0
 62150  1  0  0  0
 63 65  1  0  0  0
 63151  1  0  0  0
 63152  1  0  0  0
 63153  1  0  0  0
 64154  1  0  0  0
 65155  1  0  0  0
 68 88  1  0  0  0
 71 72  1  0  0  0
 71 73  2  0  0  0
 71 96  1  0  0  0
 72 91  2  0  0  0
 72 93  1  0  0  0
 73 92  1  0  0  0
 73 94  1  0  0  0
 74 85  1  0  0  0
 74156  1  0  0  0
 74157  1  0  0  0
 74158  1  0  0  0
 75159  1  0  0  0
 75160  1  0  0  0
 75161  1  0  0  0
 75 89  1  0  0  0
 76 89  1  0  0  0
 76162  1  0  0  0
 76163  1  0  0  0
 76164  1  0  0  0
 77165  1  0  0  0
 77166  1  0  0  0
 77167  1  0  0  0
 77 90  1  0  0  0
 78 79  1  0  0  0
 78 80  1  0  0  0
 78168  1  0  0  0
 78169  1  0  0  0
 79 81  1  0  0  0
 79170  1  0  0  0
 79171  1  0  0  0
 80 82  1  0  0  0
 80172  1  0  0  0
 80173  1  0  0  0
 81 83  1  0  0  0
 81174  1  0  0  0
 81175  1  0  0  0
 82 84  1  0  0  0
 82176  1  0  0  0
 82177  1  0  0  0
 83 86  1  0  0  0
 83178  1  0  0  0
 83179  1  0  0  0
 84 87  1  0  0  0
 84180  1  0  0  0
 84181  1  0  0  0
 85 92  1  0  0  0
 85182  1  0  0  0
 85183  1  0  0  0
 86 93  1  0  0  0
 86184  1  0  0  0
 86185  1  0  0  0
 87186  1  0  0  0
 87187  1  0  0  0
 87 95  1  0  0  0
 88 90  1  0  0  0
 88188  1  0  0  0
 88189  1  0  0  0
 89 95  1  0  0  0
 89190  1  0  0  0
 90 95  1  0  0  0
 90191  1  0  0  0
 91 92  1  0  0  0
 93192  1  0  0  0
 94193  1  0  0  0
 95194  1  0  0  0
M  CHG  1  95   1
M  ISO  4   1 100  68 101  88 101  94 100
M  END
> <chiral flag>
0

> <version>
0

> <s_m_source_file>
/data/baiqing/PycharmProjects/Reinvent-master-3.2/result/LINK_invent/BTK/process_docking_weight1_custom_sum_contain_oxygen_bond_distance_aromatic_linkinvent_7_9_3/rearranged_h_0016.sdf

> <i_m_source_file_index>
70

> <r_mmod_Potential_Energy-OPLS-2005>
-93.9437713623047

> <r_mmod_Stretch_Energy-OPLS-2005>
37.7861061096191

> <r_mmod_Bend_Energy-OPLS-2005>
154.832046508789

> <r_mmod_Torsional_Energy-OPLS-2005>
289.361968994141

> <r_mmod_Improper_Torsional_Energy-OPLS-2005>
3.40822863578796

> <r_mmod_Van_der_Waal_Energy-OPLS-2005>
125.61580657959

> <r_mmod_Electrostatic_Energy-OPLS-2005>
-310.455902099609

> <r_mmod_Solvation_Energy-OPLS-2005>
-406.592803955078

> <b_mmod_Minimization_Converged-OPLS-2005>
0

> <r_mmod_RMS_Derivative-OPLS-2005>
3.87741684913635

$$$$
70
                    3D
 Structure written by MMmdl.
170177  0  0  1  0            999 V2000
  -30.7813  -14.4317   20.5112 C   0  0  0  0  0  0
  -30.4207  -12.2499   19.4503 C   0  0  0  0  0  0
  -29.5008  -12.4383   18.2249 C   0  0  0  0  0  0
  -28.0074  -12.3414   18.6164 C   0  0  0  0  0  0
  -27.6561  -13.1976   19.8616 C   0  0  2  0  0  0
  -28.7087  -13.0276   20.9837 C   0  0  0  0  0  0
  -25.2600  -13.8182   20.5749 C   0  0  0  0  0  0
  -24.1829  -13.0481   20.9253 C   0  0  0  0  0  0
  -24.6392  -11.6950   20.8815 C   0  0  0  0  0  0
  -23.9096  -10.4332   21.0470 C   0  0  0  0  0  0
  -24.3638   -9.4250   21.9245 C   0  0  0  0  0  0
  -23.6299   -8.2293   22.0773 C   0  0  0  0  0  0
  -22.4260   -8.0349   21.3581 C   0  0  0  0  0  0
  -21.9913   -9.0327   20.4677 C   0  0  0  0  0  0
  -22.7257  -10.2203   20.3112 C   0  0  0  0  0  0
  -21.6835   -6.0811   22.5319 C   0  0  0  0  0  0
  -21.4023   -6.5694   23.8272 C   0  0  0  0  0  0
  -21.3613   -5.6823   24.9188 C   0  0  0  0  0  0
  -21.6002   -4.3082   24.7198 C   0  0  0  0  0  0
  -21.8776   -3.8213   23.4313 C   0  0  0  0  0  0
  -21.9170   -4.7043   22.3386 C   0  0  0  0  0  0
  -22.7850  -13.5344   21.1786 C   0  0  0  0  0  0
  -22.1665   -4.2270   21.0975 F   0  0  0  0  0  0
  -21.5554   -3.4552   25.7702 F   0  0  0  0  0  0
  -30.0527  -13.2827   20.4286 N   0  0  0  0  0  0
  -26.3009  -12.9323   20.3375 N   0  0  0  0  0  0
  -25.9319  -11.6513   20.5803 N   0  0  0  0  0  0
  -22.0331  -12.8493   22.0332 N   0  0  0  0  0  0
  -25.4343  -15.1902   20.4169 N   0  0  0  0  0  0
  -31.9805  -14.4608   20.2556 O   0  0  0  0  0  0
  -21.6611   -6.8968   21.4292 O   0  0  0  0  0  0
  -22.3631  -14.5621   20.6502 O   0  0  0  0  0  0
  -24.6121  -31.8678   23.2087 C   0  0  0  0  0  0
  -25.9010  -32.4821   23.8372 C   0  0  1  0  0  0
  -27.2352  -27.4343   20.1179 C   0  0  0  0  0  0
  -25.5880  -33.8608   24.2314 N   0  0  0  0  0  0
  -23.3960  -30.4929   21.5504 C   0  0  2  0  0  0
  -24.8440  -28.9528   20.1202 C   0  0  0  0  0  0
  -22.7364  -29.4663   22.4994 C   0  0  0  0  0  0
  -18.0266  -28.1326   22.8517 C   0  0  0  0  0  0
  -24.1485  -36.7306   23.2643 C   0  0  0  0  0  0
  -25.9235  -30.8371   21.3611 C   0  0  0  0  0  0
  -26.0021  -29.4727   20.7104 C   0  0  0  0  0  0
  -27.1988  -28.7197   20.7022 C   0  0  0  0  0  0
  -26.0615  -26.9302   19.5086 C   0  0  0  0  0  0
  -24.8679  -27.6806   19.5208 C   0  0  0  0  0  0
  -23.6040  -29.8189   20.1681 C   0  0  0  0  0  0
  -25.4100  -36.3097   24.0340 C   0  0  1  0  0  0
  -20.5854  -28.3615   23.1319 C   0  0  2  0  0  0
  -20.6758  -26.9352   22.5425 C   0  0  0  0  0  0
  -19.5744  -26.6359   21.5204 C   0  0  0  0  0  0
  -18.1917  -26.7887   22.1623 C   0  0  0  0  0  0
  -19.1518  -28.8788   23.2932 C   0  0  0  0  0  0
  -18.9463  -30.1393   23.8918 C   0  0  0  0  0  0
  -17.6470  -30.6561   24.0546 C   0  0  0  0  0  0
  -25.9022  -34.9476   23.5123 C   0  0  0  0  0  0
  -16.5352  -29.9053   23.6333 C   0  0  0  0  0  0
  -16.7258  -28.6468   23.0379 C   0  0  0  0  0  0
  -26.4462  -31.6590   25.0697 C   0  0  0  0  0  0
  -25.3768  -31.3697   26.1477 C   0  0  0  0  0  0
  -27.0287  -30.3039   24.6047 C   0  0  0  0  0  0
  -27.6023  -32.4308   25.7463 C   0  0  0  0  0  0
  -27.5561  -37.1808   24.8468 C   0  0  0  0  0  0
  -21.4099  -29.3020   22.3732 N   0  0  0  0  0  0
  -26.4289  -37.3779   23.9394 N   0  0  0  0  0  0
  -24.6607  -31.0800   22.0983 N   0  0  0  0  0  0
  -23.4142  -28.8222   23.3043 O   0  0  0  0  0  0
  -28.4166  -26.7169   20.1386 O   0  0  0  0  0  0
  -26.5585  -34.8917   22.4690 O   0  0  0  0  0  0
  -23.5311  -32.1418   23.7514 O   0  0  0  0  0  0
  -30.0160  -15.6698   20.4745 C   0  0  0  0  0  0
  -30.4426  -16.9077   20.8225 C   0  0  0  0  0  0
  -32.6005  -20.5170   20.8509 C   0  0  0  0  0  0
  -29.1941  -18.0969   18.9136 C   0  0  0  0  0  0
  -31.3514  -18.0982   22.8699 C   0  0  0  0  0  0
  -33.9040  -19.3953   19.0368 C   0  0  0  0  0  0
  -29.5435  -18.0751   20.4219 C   0  0  0  0  0  0
  -29.9575  -23.2332   20.4873 C   0  0  0  0  0  0
  -29.7935  -24.7690   20.6222 C   0  0  0  0  0  0
  -31.4009  -22.7218   20.7467 C   0  0  0  0  0  0
  -28.3540  -25.3057   20.4015 C   0  0  0  0  0  0
  -31.7190  -17.2618   21.6312 C   0  0  2  0  0  0
  -32.7561  -19.1926   20.0515 C   0  0  1  0  0  0
  -32.9381  -17.8588   20.8560 C   0  0  0  0  0  0
  -31.5207  -21.2710   20.5649 N   0  0  0  0  0  0
  -33.4932  -20.9120   21.6057 O   0  0  0  0  0  0
  -33.9419  -18.0061   21.7242 F   0  0  0  0  0  0
  -33.3360  -16.9169   19.9964 F   0  0  0  0  0  0
  -31.4662  -12.3163   19.1472 H   0  0  0  0  0  0
  -30.3060  -11.2543   19.8874 H   0  0  0  0  0  0
  -29.7296  -11.6855   17.4713 H   0  0  0  0  0  0
  -29.7029  -13.4027   17.7586 H   0  0  0  0  0  0
  -27.7771  -11.2938   18.8081 H   0  0  0  0  0  0
  -27.3827  -12.6457   17.7743 H   0  0  0  0  0  0
  -27.6573  -14.2239   19.5172 H   0  0  0  0  0  0
  -28.6625  -12.0076   21.3680 H   0  0  0  0  0  0
  -28.5018  -13.6763   21.8340 H   0  0  0  0  0  0
  -25.2760   -9.5688   22.4861 H   0  0  0  0  0  0
  -23.9964   -7.4642   22.7492 H   0  0  0  0  0  0
  -21.0821   -8.8888   19.8988 H   0  0  0  0  0  0
  -22.3758  -10.9766   19.6223 H   0  0  0  0  0  0
  -21.2128   -7.6218   23.9826 H   0  0  0  0  0  0
  -21.1425   -6.0539   25.9107 H   0  0  0  0  0  0
  -22.0597   -2.7695   23.2758 H   0  0  0  0  0  0
  -22.3777  -12.0264   22.5029 H   0  0  0  0  0  0
  -21.0905  -13.1659   22.2297 H   0  0  0  0  0  0
  -24.6579  -15.8342   20.5272 H   0  0  0  0  0  0
  -26.2853  -15.6418   20.1109 H   0  0  0  0  0  0
  -26.7071  -32.5533   23.1118 H   0  0  0  0  0  0
  -25.0023  -33.9774   25.0452 H   0  0  0  0  0  0
  -22.6853  -31.3098   21.4096 H   0  0  0  0  0  0
  -23.3728  -35.9667   23.3358 H   0  0  0  0  0  0
  -24.3568  -36.8866   22.2050 H   0  0  0  0  0  0
  -23.7276  -37.6540   23.6625 H   0  0  0  0  0  0
  -26.0347  -31.6082   20.5970 H   0  0  0  0  0  0
  -26.8093  -30.8890   21.9803 H   0  0  0  0  0  0
  -28.0907  -29.1166   21.1694 H   0  0  0  0  0  0
  -26.0637  -25.9688   19.0164 H   0  0  0  0  0  0
  -23.9739  -27.2691   19.0717 H   0  0  0  0  0  0
  -23.7042  -30.5896   19.4041 H   0  0  0  0  0  0
  -22.7297  -29.2359   19.8772 H   0  0  0  0  0  0
  -25.1291  -36.1960   25.0837 H   0  0  0  0  0  0
  -20.9968  -28.3179   24.1421 H   0  0  0  0  0  0
  -20.5619  -26.2213   23.3608 H   0  0  0  0  0  0
  -21.6633  -26.7377   22.1227 H   0  0  0  0  0  0
  -19.6893  -25.6277   21.1203 H   0  0  0  0  0  0
  -19.6670  -27.3196   20.6753 H   0  0  0  0  0  0
  -17.4185  -26.6653   21.4023 H   0  0  0  0  0  0
  -18.0308  -25.9995   22.8985 H   0  0  0  0  0  0
  -19.7947  -30.7211   24.2286 H   0  0  0  0  0  0
  -17.5029  -31.6255   24.5116 H   0  0  0  0  0  0
  -15.5346  -30.2962   23.7641 H   0  0  0  0  0  0
  -15.8661  -28.0764   22.7101 H   0  0  0  0  0  0
  -24.5903  -30.7064   25.7846 H   0  0  0  0  0  0
  -24.9017  -32.2876   26.4969 H   0  0  0  0  0  0
  -25.8181  -30.8844   27.0202 H   0  0  0  0  0  0
  -26.2814  -29.6785   24.1145 H   0  0  0  0  0  0
  -27.4119  -29.7271   25.4477 H   0  0  0  0  0  0
  -27.8622  -30.4354   23.9139 H   0  0  0  0  0  0
  -27.2607  -33.3570   26.2097 H   0  0  0  0  0  0
  -28.3822  -32.6927   25.0300 H   0  0  0  0  0  0
  -28.0704  -31.8400   26.5356 H   0  0  0  0  0  0
  -28.2625  -38.0055   24.7451 H   0  0  0  0  0  0
  -28.1008  -36.2590   24.6381 H   0  0  0  0  0  0
  -27.2273  -37.1572   25.8870 H   0  0  0  0  0  0
  -20.9196  -29.8728   21.6980 H   0  0  0  0  0  0
  -26.0181  -38.2859   24.1374 H   0  0  0  0  0  0
  -29.0403  -15.6213   20.0305 H   0  0  0  0  0  0
  -29.3313  -17.1373   18.4121 H   0  0  0  0  0  0
  -29.8205  -18.8007   18.3675 H   0  0  0  0  0  0
  -28.1553  -18.3956   18.7484 H   0  0  0  0  0  0
  -30.5465  -17.6346   23.4371 H   0  0  0  0  0  0
  -31.0189  -19.0988   22.6041 H   0  0  0  0  0  0
  -32.2067  -18.2103   23.5337 H   0  0  0  0  0  0
  -34.0865  -20.4504   18.8256 H   0  0  0  0  0  0
  -33.6483  -18.9271   18.0874 H   0  0  0  0  0  0
  -34.8444  -18.9641   19.3801 H   0  0  0  0  0  0
  -28.6418  -17.9842   21.0283 H   0  0  0  0  0  0
  -29.9759  -19.0316   20.6952 H   0  0  0  0  0  0
  -29.6492  -22.9325   19.4829 H   0  0  0  0  0  0
  -29.2772  -22.7369   21.1792 H   0  0  0  0  0  0
  -30.4561  -25.2581   19.9073 H   0  0  0  0  0  0
  -30.1248  -25.0844   21.6117 H   0  0  0  0  0  0
  -31.7225  -23.0109   21.7495 H   0  0  0  0  0  0
  -32.0868  -23.1993   20.0430 H   0  0  0  0  0  0
  -27.7558  -25.1213   21.2994 H   0  0  0  0  0  0
  -27.8737  -24.7752   19.5785 H   0  0  0  0  0  0
  -32.0849  -16.3269   22.0532 H   0  0  0  0  0  0
  -31.8630  -19.0747   19.4528 H   0  0  0  0  0  0
  -30.8007  -20.8231   20.0128 H   0  0  0  0  0  0
  1 25  1  0  0  0
  1 30  2  0  0  0
  1 71  1  0  0  0
  2  3  1  0  0  0
  2 25  1  0  0  0
  2 89  1  0  0  0
  2 90  1  0  0  0
  3  4  1  0  0  0
  3 91  1  0  0  0
  3 92  1  0  0  0
  4  5  1  0  0  0
  4 93  1  0  0  0
  4 94  1  0  0  0
  5  6  1  0  0  0
  5 26  1  0  0  0
  5 95  1  0  0  0
  6 25  1  0  0  0
  6 96  1  0  0  0
  6 97  1  0  0  0
  7  8  2  0  0  0
  7 26  1  0  0  0
  7 29  1  0  0  0
  8  9  1  0  0  0
  8 22  1  0  0  0
  9 10  1  0  0  0
  9 27  2  0  0  0
 10 11  2  0  0  0
 10 15  1  0  0  0
 11 12  1  0  0  0
 11 98  1  0  0  0
 12 13  2  0  0  0
 12 99  1  0  0  0
 13 14  1  0  0  0
 13 31  1  0  0  0
 14 15  2  0  0  0
 14100  1  0  0  0
 15101  1  0  0  0
 16 17  2  0  0  0
 16 21  1  0  0  0
 16 31  1  0  0  0
 17 18  1  0  0  0
 17102  1  0  0  0
 18 19  2  0  0  0
 18103  1  0  0  0
 19 20  1  0  0  0
 19 24  1  0  0  0
 20 21  2  0  0  0
 20104  1  0  0  0
 21 23  1  0  0  0
 22 28  1  0  0  0
 22 32  2  0  0  0
 26 27  1  0  0  0
 28105  1  0  0  0
 28106  1  0  0  0
 29107  1  0  0  0
 29108  1  0  0  0
 33 34  1  0  0  0
 33 66  1  0  0  0
 33 70  2  0  0  0
 34 36  1  0  0  0
 34 59  1  0  0  0
 34109  1  0  0  0
 35 44  2  0  0  0
 35 45  1  0  0  0
 35 68  1  0  0  0
 36 56  1  0  0  0
 36110  1  0  0  0
 37 39  1  0  0  0
 37 47  1  0  0  0
 37 66  1  0  0  0
 37111  1  0  0  0
 38 43  2  0  0  0
 38 46  1  0  0  0
 38 47  1  0  0  0
 39 64  1  0  0  0
 39 67  2  0  0  0
 40 52  1  0  0  0
 40 53  2  0  0  0
 40 58  1  0  0  0
 41112  1  0  0  0
 41113  1  0  0  0
 41114  1  0  0  0
 41 48  1  0  0  0
 42 43  1  0  0  0
 42 66  1  0  0  0
 42115  1  0  0  0
 42116  1  0  0  0
 43 44  1  0  0  0
 44117  1  0  0  0
 45 46  2  0  0  0
 45118  1  0  0  0
 46119  1  0  0  0
 47120  1  0  0  0
 47121  1  0  0  0
 48 56  1  0  0  0
 48 65  1  0  0  0
 48122  1  0  0  0
 49 50  1  0  0  0
 49 53  1  0  0  0
 49 64  1  0  0  0
 49123  1  0  0  0
 50 51  1  0  0  0
 50124  1  0  0  0
 50125  1  0  0  0
 51 52  1  0  0  0
 51126  1  0  0  0
 51127  1  0  0  0
 52128  1  0  0  0
 52129  1  0  0  0
 53 54  1  0  0  0
 54 55  2  0  0  0
 54130  1  0  0  0
 55 57  1  0  0  0
 55131  1  0  0  0
 56 69  2  0  0  0
 57 58  2  0  0  0
 57132  1  0  0  0
 58133  1  0  0  0
 59 60  1  0  0  0
 59 61  1  0  0  0
 59 62  1  0  0  0
 60134  1  0  0  0
 60135  1  0  0  0
 60136  1  0  0  0
 61137  1  0  0  0
 61138  1  0  0  0
 61139  1  0  0  0
 62140  1  0  0  0
 62141  1  0  0  0
 62142  1  0  0  0
 63 65  1  0  0  0
 63143  1  0  0  0
 63144  1  0  0  0
 63145  1  0  0  0
 64146  1  0  0  0
 65147  1  0  0  0
 68 81  1  0  0  0
 71 72  2  0  0  0
 71148  1  0  0  0
 72 77  1  0  0  0
 72 82  1  0  0  0
 73 83  1  0  0  0
 73 85  1  0  0  0
 73 86  2  0  0  0
 74 77  1  0  0  0
 74149  1  0  0  0
 74150  1  0  0  0
 74151  1  0  0  0
 75152  1  0  0  0
 75153  1  0  0  0
 75154  1  0  0  0
 75 82  1  0  0  0
 76155  1  0  0  0
 76156  1  0  0  0
 76157  1  0  0  0
 76 83  1  0  0  0
 77158  1  0  0  0
 77159  1  0  0  0
 78 79  1  0  0  0
 78 80  1  0  0  0
 78160  1  0  0  0
 78161  1  0  0  0
 79 81  1  0  0  0
 79162  1  0  0  0
 79163  1  0  0  0
 80 85  1  0  0  0
 80164  1  0  0  0
 80165  1  0  0  0
 81166  1  0  0  0
 81167  1  0  0  0
 82 84  1  0  0  0
 82168  1  0  0  0
 83 84  1  0  0  0
 83169  1  0  0  0
 84 87  1  0  0  0
 84 88  1  0  0  0
 85170  1  0  0  0
M  ISO  4   1 100  68 101  71 100  81 101
M  END
> <chiral flag>
0

> <version>
0

> <s_m_source_file>
/data/baiqing/PycharmProjects/Reinvent-master-3.2/result/LINK_invent/BTK/process_docking_weight1_custom_sum_contain_oxygen_bond_distance_aromatic_linkinvent_7_9_3/rearranged_h_0016.sdf

> <i_m_source_file_index>
71

> <r_mmod_Potential_Energy-OPLS-2005>
29.6372547149658

> <r_mmod_Stretch_Energy-OPLS-2005>
42.8712615966797

> <r_mmod_Bend_Energy-OPLS-2005>
130.845092773438

> <r_mmod_Torsional_Energy-OPLS-2005>
238.211639404297

> <r_mmod_Improper_Torsional_Energy-OPLS-2005>
14.7792596817017

> <r_mmod_Van_der_Waal_Energy-OPLS-2005>
139.353942871094

> <r_mmod_Electrostatic_Energy-OPLS-2005>
-346.779357910156

> <r_mmod_Solvation_Energy-OPLS-2005>
-216.412185668945

> <b_mmod_Minimization_Converged-OPLS-2005>
0

> <r_mmod_RMS_Derivative-OPLS-2005>
7.96589803695679

$$$$
71
                    3D
 Structure written by MMmdl.
158166  0  0  1  0            999 V2000
  -30.6191  -14.6305   20.4952 C   0  0  0  0  0  0
  -30.4389  -12.3849   19.4509 C   0  0  0  0  0  0
  -29.5084  -12.5088   18.2233 C   0  0  0  0  0  0
  -28.0302  -12.3494   18.6337 C   0  0  0  0  0  0
  -27.6555  -13.2156   19.8656 C   0  0  2  0  0  0
  -28.6992  -13.0608   20.9946 C   0  0  0  0  0  0
  -25.2573  -13.8166   20.5691 C   0  0  0  0  0  0
  -24.1832  -13.0437   20.9186 C   0  0  0  0  0  0
  -24.6394  -11.6906   20.8734 C   0  0  0  0  0  0
  -23.9055  -10.4293   21.0403 C   0  0  0  0  0  0
  -24.3607   -9.4209   21.9180 C   0  0  0  0  0  0
  -23.6288   -8.2239   22.0748 C   0  0  0  0  0  0
  -22.4269   -8.0278   21.3542 C   0  0  0  0  0  0
  -21.9902   -9.0250   20.4643 C   0  0  0  0  0  0
  -22.7228  -10.2130   20.3054 C   0  0  0  0  0  0
  -21.6853   -6.0734   22.5281 C   0  0  0  0  0  0
  -21.4015   -6.5637   23.8217 C   0  0  0  0  0  0
  -21.3660   -5.6789   24.9178 C   0  0  0  0  0  0
  -21.6046   -4.3052   24.7227 C   0  0  0  0  0  0
  -21.8819   -3.8145   23.4348 C   0  0  0  0  0  0
  -21.9194   -4.6961   22.3405 C   0  0  0  0  0  0
  -22.7857  -13.5237   21.1852 C   0  0  0  0  0  0
  -22.1661   -4.2144   21.0981 F   0  0  0  0  0  0
  -21.5630   -3.4538   25.7740 F   0  0  0  0  0  0
  -30.0165  -13.4016   20.4342 N   0  0  0  0  0  0
  -26.3002  -12.9345   20.3328 N   0  0  0  0  0  0
  -25.9325  -11.6499   20.5750 N   0  0  0  0  0  0
  -22.0488  -12.8237   22.0410 N   0  0  0  0  0  0
  -25.4283  -15.1890   20.4121 N   0  0  0  0  0  0
  -31.7827  -14.7931   20.1174 O   0  0  0  0  0  0
  -21.6634   -6.8876   21.4244 O   0  0  0  0  0  0
  -22.3547  -14.5546   20.6699 O   0  0  0  0  0  0
  -24.6257  -31.8608   23.2046 C   0  0  0  0  0  0
  -25.9108  -32.4786   23.8368 C   0  0  1  0  0  0
  -27.2229  -27.3260   20.1124 C   0  0  0  0  0  0
  -25.5920  -33.8584   24.2287 N   0  0  0  0  0  0
  -23.4188  -30.4861   21.5474 C   0  0  2  0  0  0
  -24.8641  -28.9451   20.1124 C   0  0  0  0  0  0
  -22.7476  -29.4624   22.4943 C   0  0  0  0  0  0
  -18.0286  -28.1392   22.8489 C   0  0  0  0  0  0
  -24.1487  -36.7296   23.2640 C   0  0  0  0  0  0
  -25.9607  -30.7943   21.3748 C   0  0  0  0  0  0
  -26.0347  -29.4234   20.7145 C   0  0  0  0  0  0
  -27.2178  -28.6267   20.7030 C   0  0  0  0  0  0
  -26.0246  -26.8994   19.4920 C   0  0  0  0  0  0
  -24.8607  -27.6876   19.4932 C   0  0  0  0  0  0
  -23.6331  -29.8250   20.1618 C   0  0  0  0  0  0
  -25.4112  -36.3086   24.0331 C   0  0  1  0  0  0
  -20.5887  -28.3687   23.1289 C   0  0  2  0  0  0
  -20.6775  -26.9412   22.5412 C   0  0  0  0  0  0
  -19.5748  -26.6388   21.5216 C   0  0  0  0  0  0
  -18.1930  -26.7935   22.1631 C   0  0  0  0  0  0
  -19.1540  -28.8857   23.2883 C   0  0  0  0  0  0
  -18.9461  -30.1461   23.8896 C   0  0  0  0  0  0
  -17.6459  -30.6591   24.0567 C   0  0  0  0  0  0
  -25.9050  -34.9455   23.5111 C   0  0  0  0  0  0
  -16.5350  -29.9090   23.6331 C   0  0  0  0  0  0
  -16.7273  -28.6511   23.0350 C   0  0  0  0  0  0
  -26.4491  -31.6594   25.0736 C   0  0  0  0  0  0
  -25.3725  -31.3730   26.1465 C   0  0  0  0  0  0
  -27.0337  -30.3019   24.6189 C   0  0  0  0  0  0
  -27.6054  -32.4328   25.7502 C   0  0  0  0  0  0
  -27.5579  -37.1803   24.8464 C   0  0  0  0  0  0
  -21.4190  -29.3040   22.3686 N   0  0  0  0  0  0
  -26.4290  -37.3780   23.9410 N   0  0  0  0  0  0
  -24.6873  -31.0629   22.0993 N   0  0  0  0  0  0
  -23.4206  -28.8161   23.3015 O   0  0  0  0  0  0
  -28.3429  -26.4796   20.1547 O   0  0  0  0  0  0
  -26.5619  -34.8919   22.4678 O   0  0  0  0  0  0
  -23.5420  -32.1401   23.7376 O   0  0  0  0  0  0
  -29.3959  -17.9782   21.6634 C   0  0  0  0  0  0
  -29.3128  -19.3930   21.5195 C   0  0  0  0  0  0
  -30.2004  -17.7638   19.3949 C   0  0  0  0  0  0
  -29.8606  -17.1226   20.6281 C   0  0  0  0  0  0
  -29.6817  -20.0390   20.3136 C   0  0  0  0  0  0
  -30.1186  -19.1914   19.2551 C   0  0  0  0  0  0
  -28.9356  -22.4911   20.6449 C   0  0  0  0  0  0
  -30.6062  -16.9356   18.1821 C   0  0  0  0  0  0
  -29.3496  -20.0968   17.2398 C   0  0  0  0  0  0
  -29.2926  -24.0036   20.3498 C   0  0  0  0  0  0
  -28.0974  -25.0189   20.1049 C   0  0  0  0  0  0
  -29.7179  -21.4915   20.1345 N   0  0  0  0  0  0
  -29.8071  -15.6740   20.8561 N   0  0  0  0  0  0
  -27.9553  -22.2405   21.3489 O   0  0  0  0  0  0
  -30.4672  -19.7690   18.0594 O   0  0  0  0  0  0
  -31.4803  -12.5101   19.1491 H   0  0  0  0  0  0
  -30.3722  -11.3867   19.8867 H   0  0  0  0  0  0
  -29.7713  -11.7594   17.4758 H   0  0  0  0  0  0
  -29.6543  -13.4795   17.7466 H   0  0  0  0  0  0
  -27.8641  -11.2956   18.8595 H   0  0  0  0  0  0
  -27.3762  -12.5856   17.7934 H   0  0  0  0  0  0
  -27.6769  -14.2530   19.5305 H   0  0  0  0  0  0
  -28.7075  -12.0368   21.3713 H   0  0  0  0  0  0
  -28.4448  -13.6890   21.8493 H   0  0  0  0  0  0
  -25.2745   -9.5690   22.4758 H   0  0  0  0  0  0
  -24.0004   -7.4633   22.7465 H   0  0  0  0  0  0
  -21.0830   -8.8767   19.8953 H   0  0  0  0  0  0
  -22.3682  -10.9667   19.6165 H   0  0  0  0  0  0
  -21.2003   -7.6143   23.9722 H   0  0  0  0  0  0
  -21.1486   -6.0514   25.9082 H   0  0  0  0  0  0
  -22.0596   -2.7606   23.2848 H   0  0  0  0  0  0
  -22.4088  -11.9898   22.4809 H   0  0  0  0  0  0
  -21.1111  -13.1277   22.2613 H   0  0  0  0  0  0
  -24.6611  -15.8429   20.5226 H   0  0  0  0  0  0
  -26.2813  -15.6317   20.0939 H   0  0  0  0  0  0
  -26.7175  -32.5458   23.1116 H   0  0  0  0  0  0
  -25.0055  -33.9725   25.0422 H   0  0  0  0  0  0
  -22.7117  -31.3063   21.4067 H   0  0  0  0  0  0
  -23.3748  -35.9629   23.3303 H   0  0  0  0  0  0
  -24.3579  -36.8917   22.2054 H   0  0  0  0  0  0
  -23.7237  -37.6499   23.6660 H   0  0  0  0  0  0
  -26.0919  -31.5598   20.6088 H   0  0  0  0  0  0
  -26.8412  -30.8410   22.0044 H   0  0  0  0  0  0
  -28.1161  -28.9903   21.1824 H   0  0  0  0  0  0
  -25.9499  -25.9413   19.0026 H   0  0  0  0  0  0
  -23.9631  -27.3143   19.0194 H   0  0  0  0  0  0
  -23.7541  -30.6033   19.4073 H   0  0  0  0  0  0
  -22.7532  -29.2556   19.8577 H   0  0  0  0  0  0
  -25.1290  -36.1944   25.0822 H   0  0  0  0  0  0
  -20.9977  -28.3260   24.1411 H   0  0  0  0  0  0
  -20.5685  -26.2293   23.3609 H   0  0  0  0  0  0
  -21.6642  -26.7449   22.1197 H   0  0  0  0  0  0
  -19.6906  -25.6300   21.1244 H   0  0  0  0  0  0
  -19.6688  -27.3201   20.6748 H   0  0  0  0  0  0
  -17.4198  -26.6681   21.4035 H   0  0  0  0  0  0
  -18.0330  -26.0080   22.9031 H   0  0  0  0  0  0
  -19.7935  -30.7282   24.2262 H   0  0  0  0  0  0
  -17.5013  -31.6272   24.5171 H   0  0  0  0  0  0
  -15.5350  -30.2993   23.7656 H   0  0  0  0  0  0
  -15.8675  -28.0835   22.7056 H   0  0  0  0  0  0
  -24.5891  -30.7091   25.7791 H   0  0  0  0  0  0
  -24.8926  -32.2897   26.4901 H   0  0  0  0  0  0
  -25.8047  -30.8895   27.0235 H   0  0  0  0  0  0
  -26.2914  -29.6772   24.1207 H   0  0  0  0  0  0
  -27.4030  -29.7273   25.4694 H   0  0  0  0  0  0
  -27.8783  -30.4308   23.9419 H   0  0  0  0  0  0
  -27.2666  -33.3622   26.2089 H   0  0  0  0  0  0
  -28.3855  -32.6901   25.0325 H   0  0  0  0  0  0
  -28.0735  -31.8452   26.5409 H   0  0  0  0  0  0
  -28.2595  -38.0102   24.7516 H   0  0  0  0  0  0
  -28.1078  -36.2635   24.6283 H   0  0  0  0  0  0
  -27.2300  -37.1445   25.8867 H   0  0  0  0  0  0
  -20.9369  -29.8766   21.6900 H   0  0  0  0  0  0
  -26.0176  -38.2855   24.1417 H   0  0  0  0  0  0
  -29.0911  -17.5467   22.6066 H   0  0  0  0  0  0
  -28.9757  -19.9804   22.3612 H   0  0  0  0  0  0
  -30.0134  -16.0248   18.1121 H   0  0  0  0  0  0
  -31.6599  -16.6659   18.2441 H   0  0  0  0  0  0
  -30.4585  -17.4669   17.2436 H   0  0  0  0  0  0
  -29.6966  -20.4552   16.2707 H   0  0  0  0  0  0
  -28.7351  -20.8815   17.6815 H   0  0  0  0  0  0
  -28.7153  -19.2263   17.0654 H   0  0  0  0  0  0
  -29.9794  -24.0508   19.5046 H   0  0  0  0  0  0
  -29.8601  -24.3530   21.2118 H   0  0  0  0  0  0
  -27.3062  -24.7934   20.8216 H   0  0  0  0  0  0
  -27.7028  -24.7693   19.1203 H   0  0  0  0  0  0
  -30.4140  -21.8032   19.4704 H   0  0  0  0  0  0
  -28.9646  -15.3597   21.3128 H   0  0  0  0  0  0
  1 25  1  0  0  0
  1 30  2  0  0  0
  1 83  1  0  0  0
  2  3  1  0  0  0
  2 25  1  0  0  0
  2 86  1  0  0  0
  2 87  1  0  0  0
  3  4  1  0  0  0
  3 88  1  0  0  0
  3 89  1  0  0  0
  4  5  1  0  0  0
  4 90  1  0  0  0
  4 91  1  0  0  0
  5  6  1  0  0  0
  5 26  1  0  0  0
  5 92  1  0  0  0
  6 25  1  0  0  0
  6 93  1  0  0  0
  6 94  1  0  0  0
  7  8  2  0  0  0
  7 26  1  0  0  0
  7 29  1  0  0  0
  8  9  1  0  0  0
  8 22  1  0  0  0
  9 10  1  0  0  0
  9 27  2  0  0  0
 10 11  2  0  0  0
 10 15  1  0  0  0
 11 12  1  0  0  0
 11 95  1  0  0  0
 12 13  2  0  0  0
 12 96  1  0  0  0
 13 14  1  0  0  0
 13 31  1  0  0  0
 14 15  2  0  0  0
 14 97  1  0  0  0
 15 98  1  0  0  0
 16 17  2  0  0  0
 16 21  1  0  0  0
 16 31  1  0  0  0
 17 18  1  0  0  0
 17 99  1  0  0  0
 18 19  2  0  0  0
 18100  1  0  0  0
 19 20  1  0  0  0
 19 24  1  0  0  0
 20 21  2  0  0  0
 20101  1  0  0  0
 21 23  1  0  0  0
 22 28  1  0  0  0
 22 32  2  0  0  0
 26 27  1  0  0  0
 28102  1  0  0  0
 28103  1  0  0  0
 29104  1  0  0  0
 29105  1  0  0  0
 33 34  1  0  0  0
 33 66  1  0  0  0
 33 70  2  0  0  0
 34 36  1  0  0  0
 34 59  1  0  0  0
 34106  1  0  0  0
 35 44  2  0  0  0
 35 45  1  0  0  0
 35 68  1  0  0  0
 36 56  1  0  0  0
 36107  1  0  0  0
 37 39  1  0  0  0
 37 47  1  0  0  0
 37 66  1  0  0  0
 37108  1  0  0  0
 38 43  2  0  0  0
 38 46  1  0  0  0
 38 47  1  0  0  0
 39 64  1  0  0  0
 39 67  2  0  0  0
 40 52  1  0  0  0
 40 53  2  0  0  0
 40 58  1  0  0  0
 41109  1  0  0  0
 41110  1  0  0  0
 41111  1  0  0  0
 41 48  1  0  0  0
 42 43  1  0  0  0
 42 66  1  0  0  0
 42112  1  0  0  0
 42113  1  0  0  0
 43 44  1  0  0  0
 44114  1  0  0  0
 45 46  2  0  0  0
 45115  1  0  0  0
 46116  1  0  0  0
 47117  1  0  0  0
 47118  1  0  0  0
 48 56  1  0  0  0
 48 65  1  0  0  0
 48119  1  0  0  0
 49 50  1  0  0  0
 49 53  1  0  0  0
 49 64  1  0  0  0
 49120  1  0  0  0
 50 51  1  0  0  0
 50121  1  0  0  0
 50122  1  0  0  0
 51 52  1  0  0  0
 51123  1  0  0  0
 51124  1  0  0  0
 52125  1  0  0  0
 52126  1  0  0  0
 53 54  1  0  0  0
 54 55  2  0  0  0
 54127  1  0  0  0
 55 57  1  0  0  0
 55128  1  0  0  0
 56 69  2  0  0  0
 57 58  2  0  0  0
 57129  1  0  0  0
 58130  1  0  0  0
 59 60  1  0  0  0
 59 61  1  0  0  0
 59 62  1  0  0  0
 60131  1  0  0  0
 60132  1  0  0  0
 60133  1  0  0  0
 61134  1  0  0  0
 61135  1  0  0  0
 61136  1  0  0  0
 62137  1  0  0  0
 62138  1  0  0  0
 62139  1  0  0  0
 63 65  1  0  0  0
 63140  1  0  0  0
 63141  1  0  0  0
 63142  1  0  0  0
 64143  1  0  0  0
 65144  1  0  0  0
 68 81  1  0  0  0
 71 72  2  0  0  0
 71 74  1  0  0  0
 71145  1  0  0  0
 72 75  1  0  0  0
 72146  1  0  0  0
 73 74  2  0  0  0
 73 76  1  0  0  0
 73 78  1  0  0  0
 74 83  1  0  0  0
 75 76  2  0  0  0
 75 82  1  0  0  0
 76 85  1  0  0  0
 77 80  1  0  0  0
 77 82  1  0  0  0
 77 84  2  0  0  0
 78147  1  0  0  0
 78148  1  0  0  0
 78149  1  0  0  0
 79 85  1  0  0  0
 79150  1  0  0  0
 79151  1  0  0  0
 79152  1  0  0  0
 80 81  1  0  0  0
 80153  1  0  0  0
 80154  1  0  0  0
 81155  1  0  0  0
 81156  1  0  0  0
 82157  1  0  0  0
 83158  1  0  0  0
M  ISO  4   1 100  68 101  81 101  83 100
M  END
> <chiral flag>
0

> <version>
0

> <s_m_source_file>
/data/baiqing/PycharmProjects/Reinvent-master-3.2/result/LINK_invent/BTK/process_docking_weight1_custom_sum_contain_oxygen_bond_distance_aromatic_linkinvent_7_9_3/rearranged_h_0016.sdf

> <i_m_source_file_index>
72

> <r_mmod_Potential_Energy-OPLS-2005>
-2.13965272903442

> <r_mmod_Stretch_Energy-OPLS-2005>
77.9602966308594

> <r_mmod_Bend_Energy-OPLS-2005>
137.149154663086

> <r_mmod_Torsional_Energy-OPLS-2005>
276.010986328125

> <r_mmod_Improper_Torsional_Energy-OPLS-2005>
4.32459735870361

> <r_mmod_Van_der_Waal_Energy-OPLS-2005>
148.440383911133

> <r_mmod_Electrostatic_Energy-OPLS-2005>
-459.678863525391

> <r_mmod_Solvation_Energy-OPLS-2005>
-231.94499206543

> <b_mmod_Minimization_Converged-OPLS-2005>
0

> <r_mmod_RMS_Derivative-OPLS-2005>
0.781041443347931

$$$$
72
                    3D
 Structure written by MMmdl.
165173  0  0  1  0            999 V2000
  -30.6727  -14.5495   20.5990 C   0  0  0  0  0  0
  -30.4469  -12.3641   19.4335 C   0  0  0  0  0  0
  -29.5080  -12.5236   18.2170 C   0  0  0  0  0  0
  -28.0315  -12.3659   18.6276 C   0  0  0  0  0  0
  -27.6668  -13.2070   19.8791 C   0  0  2  0  0  0
  -28.7116  -13.0021   21.0000 C   0  0  0  0  0  0
  -25.2631  -13.8164   20.5691 C   0  0  0  0  0  0
  -24.1864  -13.0448   20.9176 C   0  0  0  0  0  0
  -24.6413  -11.6902   20.8733 C   0  0  0  0  0  0
  -23.9058  -10.4295   21.0380 C   0  0  0  0  0  0
  -24.3605   -9.4223   21.9182 C   0  0  0  0  0  0
  -23.6284   -8.2268   22.0762 C   0  0  0  0  0  0
  -22.4262   -8.0304   21.3547 C   0  0  0  0  0  0
  -21.9886   -9.0264   20.4655 C   0  0  0  0  0  0
  -22.7221  -10.2144   20.3051 C   0  0  0  0  0  0
  -21.6860   -6.0739   22.5267 C   0  0  0  0  0  0
  -21.4036   -6.5637   23.8210 C   0  0  0  0  0  0
  -21.3654   -5.6783   24.9159 C   0  0  0  0  0  0
  -21.6026   -4.3038   24.7206 C   0  0  0  0  0  0
  -21.8825   -3.8141   23.4333 C   0  0  0  0  0  0
  -21.9201   -4.6963   22.3387 C   0  0  0  0  0  0
  -22.7886  -13.5261   21.1805 C   0  0  0  0  0  0
  -22.1662   -4.2140   21.0962 F   0  0  0  0  0  0
  -21.5609   -3.4522   25.7728 F   0  0  0  0  0  0
  -30.0409  -13.3448   20.4583 N   0  0  0  0  0  0
  -26.3068  -12.9328   20.3381 N   0  0  0  0  0  0
  -25.9347  -11.6493   20.5779 N   0  0  0  0  0  0
  -22.0499  -12.8282   22.0366 N   0  0  0  0  0  0
  -25.4381  -15.1896   20.4123 N   0  0  0  0  0  0
  -31.7868  -14.7723   20.1143 O   0  0  0  0  0  0
  -21.6644   -6.8890   21.4242 O   0  0  0  0  0  0
  -22.3579  -14.5553   20.6638 O   0  0  0  0  0  0
  -24.6186  -31.8643   23.2065 C   0  0  0  0  0  0
  -25.9073  -32.4785   23.8371 C   0  0  1  0  0  0
  -27.2482  -27.3855   20.1243 C   0  0  0  0  0  0
  -25.5918  -33.8589   24.2291 N   0  0  0  0  0  0
  -23.4114  -30.4813   21.5471 C   0  0  2  0  0  0
  -24.8690  -28.9356   20.1270 C   0  0  0  0  0  0
  -22.7434  -29.4621   22.4986 C   0  0  0  0  0  0
  -18.0278  -28.1391   22.8473 C   0  0  0  0  0  0
  -24.1480  -36.7298   23.2630 C   0  0  0  0  0  0
  -25.9455  -30.8084   21.3767 C   0  0  0  0  0  0
  -26.0272  -29.4332   20.7381 C   0  0  0  0  0  0
  -27.2212  -28.6619   20.7458 C   0  0  0  0  0  0
  -26.0755  -26.9163   19.4993 C   0  0  0  0  0  0
  -24.8880  -27.6732   19.5071 C   0  0  0  0  0  0
  -23.6286  -29.8049   20.1666 C   0  0  0  0  0  0
  -25.4096  -36.3075   24.0322 C   0  0  1  0  0  0
  -20.5868  -28.3669   23.1307 C   0  0  2  0  0  0
  -20.6777  -26.9405   22.5406 C   0  0  0  0  0  0
  -19.5753  -26.6388   21.5203 C   0  0  0  0  0  0
  -18.1934  -26.7934   22.1614 C   0  0  0  0  0  0
  -19.1528  -28.8847   23.2887 C   0  0  0  0  0  0
  -18.9455  -30.1453   23.8899 C   0  0  0  0  0  0
  -17.6462  -30.6578   24.0564 C   0  0  0  0  0  0
  -25.9034  -34.9448   23.5100 C   0  0  0  0  0  0
  -16.5350  -29.9076   23.6340 C   0  0  0  0  0  0
  -16.7271  -28.6502   23.0337 C   0  0  0  0  0  0
  -26.4486  -31.6581   25.0719 C   0  0  0  0  0  0
  -25.3733  -31.3765   26.1464 C   0  0  0  0  0  0
  -27.0310  -30.2987   24.6169 C   0  0  0  0  0  0
  -27.6050  -32.4318   25.7481 C   0  0  0  0  0  0
  -27.5574  -37.1787   24.8444 C   0  0  0  0  0  0
  -21.4160  -29.3016   22.3708 N   0  0  0  0  0  0
  -26.4270  -37.3769   23.9411 N   0  0  0  0  0  0
  -24.6751  -31.0676   22.1004 N   0  0  0  0  0  0
  -23.4164  -28.8197   23.3086 O   0  0  0  0  0  0
  -28.3786  -26.5942   19.9935 O   0  0  0  0  0  0
  -26.5599  -34.8914   22.4663 O   0  0  0  0  0  0
  -23.5363  -32.1448   23.7416 O   0  0  0  0  0  0
  -28.8009  -17.5977   21.6611 C   0  0  0  0  0  0
  -31.1024  -17.7630   20.9715 C   0  0  0  0  0  0
  -28.7099  -19.0059   21.7811 C   0  0  0  0  0  0
  -31.0364  -19.1842   21.1033 C   0  0  0  0  0  0
  -29.8325  -19.8428   21.5149 C   0  0  0  0  0  0
  -29.9834  -16.9413   21.2616 C   0  0  0  0  0  0
  -29.4874  -23.4722   20.4538 C   0  0  0  0  0  0
  -27.3840  -19.5743   22.2601 C   0  0  0  0  0  0
  -32.3051  -19.9795   20.8426 C   0  0  0  0  0  0
  -29.6427  -24.0385   19.0550 C   0  0  0  0  0  0
  -29.3955  -24.3141   22.9262 C   0  0  0  0  0  0
  -29.7600  -21.3863   21.7779 C   0  0  0  0  0  0
  -29.0307  -26.0466   21.1571 C   0  0  0  0  0  0
  -28.8662  -24.4973   21.4836 C   0  0  1  0  0  0
  -29.8247  -22.2226   20.5742 N   0  0  0  0  0  0
  -29.9407  -15.4960   21.2390 N   0  0  0  0  0  0
  -31.4859  -12.4958   19.1255 H   0  0  0  0  0  0
  -30.3838  -11.3531   19.8368 H   0  0  0  0  0  0
  -29.7612  -11.7962   17.4448 H   0  0  0  0  0  0
  -29.6606  -13.5090   17.7695 H   0  0  0  0  0  0
  -27.8492  -11.3085   18.8282 H   0  0  0  0  0  0
  -27.3816  -12.6350   17.7955 H   0  0  0  0  0  0
  -27.7045  -14.2535   19.5763 H   0  0  0  0  0  0
  -28.7080  -11.9628   21.3281 H   0  0  0  0  0  0
  -28.4508  -13.5791   21.8900 H   0  0  0  0  0  0
  -25.2762   -9.5691   22.4749 H   0  0  0  0  0  0
  -23.9979   -7.4652   22.7478 H   0  0  0  0  0  0
  -21.0812   -8.8787   19.8955 H   0  0  0  0  0  0
  -22.3685  -10.9678   19.6146 H   0  0  0  0  0  0
  -21.2058   -7.6159   23.9709 H   0  0  0  0  0  0
  -21.1452   -6.0510   25.9055 H   0  0  0  0  0  0
  -22.0613   -2.7601   23.2833 H   0  0  0  0  0  0
  -22.4085  -11.9953   22.4790 H   0  0  0  0  0  0
  -21.1113  -13.1332   22.2541 H   0  0  0  0  0  0
  -24.6770  -15.8511   20.5232 H   0  0  0  0  0  0
  -26.2855  -15.6183   20.0649 H   0  0  0  0  0  0
  -26.7150  -32.5495   23.1139 H   0  0  0  0  0  0
  -25.0054  -33.9739   25.0429 H   0  0  0  0  0  0
  -22.7006  -31.2970   21.4002 H   0  0  0  0  0  0
  -23.3729  -35.9639   23.3266 H   0  0  0  0  0  0
  -24.3583  -36.8947   22.2051 H   0  0  0  0  0  0
  -23.7256  -37.6500   23.6677 H   0  0  0  0  0  0
  -26.0664  -31.5656   20.6012 H   0  0  0  0  0  0
  -26.8279  -30.8680   22.0002 H   0  0  0  0  0  0
  -28.1176  -29.0473   21.2125 H   0  0  0  0  0  0
  -26.0888  -25.9560   19.0023 H   0  0  0  0  0  0
  -24.0031  -27.2817   19.0248 H   0  0  0  0  0  0
  -23.7358  -30.5733   19.4004 H   0  0  0  0  0  0
  -22.7542  -29.2209   19.8743 H   0  0  0  0  0  0
  -25.1276  -36.1910   25.0810 H   0  0  0  0  0  0
  -20.9951  -28.3248   24.1433 H   0  0  0  0  0  0
  -20.5698  -26.2268   23.3586 H   0  0  0  0  0  0
  -21.6657  -26.7461   22.1204 H   0  0  0  0  0  0
  -19.6923  -25.6310   21.1206 H   0  0  0  0  0  0
  -19.6688  -27.3208   20.6743 H   0  0  0  0  0  0
  -17.4203  -26.6666   21.4021 H   0  0  0  0  0  0
  -18.0331  -26.0075   22.9003 H   0  0  0  0  0  0
  -19.7938  -30.7271   24.2253 H   0  0  0  0  0  0
  -17.5017  -31.6263   24.5166 H   0  0  0  0  0  0
  -15.5356  -30.2974   23.7671 H   0  0  0  0  0  0
  -15.8669  -28.0823   22.7051 H   0  0  0  0  0  0
  -24.5852  -30.7161   25.7831 H   0  0  0  0  0  0
  -24.8993  -32.2963   26.4904 H   0  0  0  0  0  0
  -25.8061  -30.8938   27.0231 H   0  0  0  0  0  0
  -26.2876  -29.6743   24.1191 H   0  0  0  0  0  0
  -27.3992  -29.7244   25.4686 H   0  0  0  0  0  0
  -27.8756  -30.4245   23.9385 H   0  0  0  0  0  0
  -27.2649  -33.3611   26.2065 H   0  0  0  0  0  0
  -28.3855  -32.6893   25.0307 H   0  0  0  0  0  0
  -28.0710  -31.8439   26.5399 H   0  0  0  0  0  0
  -28.2561  -38.0112   24.7529 H   0  0  0  0  0  0
  -28.1102  -36.2656   24.6198 H   0  0  0  0  0  0
  -27.2309  -37.1354   25.8848 H   0  0  0  0  0  0
  -20.9334  -29.8694   21.6884 H   0  0  0  0  0  0
  -26.0141  -38.2825   24.1452 H   0  0  0  0  0  0
  -27.9342  -16.9973   21.9041 H   0  0  0  0  0  0
  -32.0361  -17.3051   20.6766 H   0  0  0  0  0  0
  -26.5768  -18.8505   22.1438 H   0  0  0  0  0  0
  -27.0991  -20.4608   21.6946 H   0  0  0  0  0  0
  -27.4527  -19.8339   23.3173 H   0  0  0  0  0  0
  -33.0348  -19.4007   20.2736 H   0  0  0  0  0  0
  -32.7633  -20.2725   21.7883 H   0  0  0  0  0  0
  -32.1002  -20.8815   20.2682 H   0  0  0  0  0  0
  -30.2803  -24.9226   19.0487 H   0  0  0  0  0  0
  -28.6636  -24.3015   18.6537 H   0  0  0  0  0  0
  -30.0953  -23.3103   18.3781 H   0  0  0  0  0  0
  -29.0985  -23.3815   23.3954 H   0  0  0  0  0  0
  -28.9935  -25.0852   23.5839 H   0  0  0  0  0  0
  -30.4828  -24.3903   22.9659 H   0  0  0  0  0  0
  -30.5841  -21.6402   22.4473 H   0  0  0  0  0  0
  -28.8574  -21.6135   22.3376 H   0  0  0  0  0  0
  -30.0951  -26.2586   21.0462 H   0  0  0  0  0  0
  -28.7148  -26.6365   22.0187 H   0  0  0  0  0  0
  -27.7954  -24.2914   21.5090 H   0  0  0  0  0  0
  -29.0936  -15.1017   21.6152 H   0  0  0  0  0  0
  1 25  1  0  0  0
  1 30  2  0  0  0
  1 86  1  0  0  0
  2  3  1  0  0  0
  2 25  1  0  0  0
  2 87  1  0  0  0
  2 88  1  0  0  0
  3  4  1  0  0  0
  3 89  1  0  0  0
  3 90  1  0  0  0
  4  5  1  0  0  0
  4 91  1  0  0  0
  4 92  1  0  0  0
  5  6  1  0  0  0
  5 26  1  0  0  0
  5 93  1  0  0  0
  6 25  1  0  0  0
  6 94  1  0  0  0
  6 95  1  0  0  0
  7  8  2  0  0  0
  7 26  1  0  0  0
  7 29  1  0  0  0
  8  9  1  0  0  0
  8 22  1  0  0  0
  9 10  1  0  0  0
  9 27  2  0  0  0
 10 11  2  0  0  0
 10 15  1  0  0  0
 11 12  1  0  0  0
 11 96  1  0  0  0
 12 13  2  0  0  0
 12 97  1  0  0  0
 13 14  1  0  0  0
 13 31  1  0  0  0
 14 15  2  0  0  0
 14 98  1  0  0  0
 15 99  1  0  0  0
 16 17  2  0  0  0
 16 21  1  0  0  0
 16 31  1  0  0  0
 17 18  1  0  0  0
 17100  1  0  0  0
 18 19  2  0  0  0
 18101  1  0  0  0
 19 20  1  0  0  0
 19 24  1  0  0  0
 20 21  2  0  0  0
 20102  1  0  0  0
 21 23  1  0  0  0
 22 28  1  0  0  0
 22 32  2  0  0  0
 26 27  1  0  0  0
 28103  1  0  0  0
 28104  1  0  0  0
 29105  1  0  0  0
 29106  1  0  0  0
 33 34  1  0  0  0
 33 66  1  0  0  0
 33 70  2  0  0  0
 34 36  1  0  0  0
 34 59  1  0  0  0
 34107  1  0  0  0
 35 44  2  0  0  0
 35 45  1  0  0  0
 35 68  1  0  0  0
 36 56  1  0  0  0
 36108  1  0  0  0
 37 39  1  0  0  0
 37 47  1  0  0  0
 37 66  1  0  0  0
 37109  1  0  0  0
 38 43  2  0  0  0
 38 46  1  0  0  0
 38 47  1  0  0  0
 39 64  1  0  0  0
 39 67  2  0  0  0
 40 52  1  0  0  0
 40 53  2  0  0  0
 40 58  1  0  0  0
 41110  1  0  0  0
 41111  1  0  0  0
 41112  1  0  0  0
 41 48  1  0  0  0
 42 43  1  0  0  0
 42 66  1  0  0  0
 42113  1  0  0  0
 42114  1  0  0  0
 43 44  1  0  0  0
 44115  1  0  0  0
 45 46  2  0  0  0
 45116  1  0  0  0
 46117  1  0  0  0
 47118  1  0  0  0
 47119  1  0  0  0
 48 56  1  0  0  0
 48 65  1  0  0  0
 48120  1  0  0  0
 49 50  1  0  0  0
 49 53  1  0  0  0
 49 64  1  0  0  0
 49121  1  0  0  0
 50 51  1  0  0  0
 50122  1  0  0  0
 50123  1  0  0  0
 51 52  1  0  0  0
 51124  1  0  0  0
 51125  1  0  0  0
 52126  1  0  0  0
 52127  1  0  0  0
 53 54  1  0  0  0
 54 55  2  0  0  0
 54128  1  0  0  0
 55 57  1  0  0  0
 55129  1  0  0  0
 56 69  2  0  0  0
 57 58  2  0  0  0
 57130  1  0  0  0
 58131  1  0  0  0
 59 60  1  0  0  0
 59 61  1  0  0  0
 59 62  1  0  0  0
 60132  1  0  0  0
 60133  1  0  0  0
 60134  1  0  0  0
 61135  1  0  0  0
 61136  1  0  0  0
 61137  1  0  0  0
 62138  1  0  0  0
 62139  1  0  0  0
 62140  1  0  0  0
 63 65  1  0  0  0
 63141  1  0  0  0
 63142  1  0  0  0
 63143  1  0  0  0
 64144  1  0  0  0
 65145  1  0  0  0
 68 83  1  0  0  0
 71 73  2  0  0  0
 71 76  1  0  0  0
 71146  1  0  0  0
 72 74  1  0  0  0
 72 76  2  0  0  0
 72147  1  0  0  0
 73 75  1  0  0  0
 73 78  1  0  0  0
 74 75  2  0  0  0
 74 79  1  0  0  0
 75 82  1  0  0  0
 76 86  1  0  0  0
 77 80  1  0  0  0
 77 84  1  0  0  0
 77 85  2  0  0  0
 78148  1  0  0  0
 78149  1  0  0  0
 78150  1  0  0  0
 79151  1  0  0  0
 79152  1  0  0  0
 79153  1  0  0  0
 80154  1  0  0  0
 80155  1  0  0  0
 80156  1  0  0  0
 81157  1  0  0  0
 81158  1  0  0  0
 81159  1  0  0  0
 81 84  1  0  0  0
 82 85  1  0  0  0
 82160  1  0  0  0
 82161  1  0  0  0
 83 84  1  0  0  0
 83162  1  0  0  0
 83163  1  0  0  0
 84164  1  0  0  0
 86165  1  0  0  0
M  ISO  4   1 100  68 101  83 101  86 100
M  END
> <chiral flag>
0

> <version>
0

> <s_m_source_file>
/data/baiqing/PycharmProjects/Reinvent-master-3.2/result/LINK_invent/BTK/process_docking_weight1_custom_sum_contain_oxygen_bond_distance_aromatic_linkinvent_7_9_3/rearranged_h_0016.sdf

> <i_m_source_file_index>
73

> <r_mmod_Potential_Energy-OPLS-2005>
53.0625610351562

> <r_mmod_Stretch_Energy-OPLS-2005>
64.2154006958008

> <r_mmod_Bend_Energy-OPLS-2005>
165.67561340332

> <r_mmod_Torsional_Energy-OPLS-2005>
234.445449829102

> <r_mmod_Improper_Torsional_Energy-OPLS-2005>
4.03740787506104

> <r_mmod_Van_der_Waal_Energy-OPLS-2005>
152.073303222656

> <r_mmod_Electrostatic_Energy-OPLS-2005>
-381.085113525391

> <r_mmod_Solvation_Energy-OPLS-2005>
-208.760055541992

> <b_mmod_Minimization_Converged-OPLS-2005>
0

> <r_mmod_RMS_Derivative-OPLS-2005>
3.74568128585815

$$$$
73
                    3D
 Structure written by MMmdl.
196205  0  0  1  0            999 V2000
  -30.7924  -14.3966   20.6724 C   0  0  0  0  0  0
  -30.4258  -12.3124   19.3891 C   0  0  0  0  0  0
  -29.4803  -12.5040   18.1867 C   0  0  0  0  0  0
  -28.0037  -12.3629   18.6039 C   0  0  0  0  0  0
  -27.6580  -13.1864   19.8686 C   0  0  2  0  0  0
  -28.7041  -12.9693   20.9786 C   0  0  0  0  0  0
  -25.2636  -13.8106   20.5721 C   0  0  0  0  0  0
  -24.1872  -13.0424   20.9223 C   0  0  0  0  0  0
  -24.6364  -11.6861   20.8713 C   0  0  0  0  0  0
  -23.8986  -10.4278   21.0377 C   0  0  0  0  0  0
  -24.3546   -9.4189   21.9156 C   0  0  0  0  0  0
  -23.6216   -8.2228   22.0738 C   0  0  0  0  0  0
  -22.4212   -8.0259   21.3513 C   0  0  0  0  0  0
  -21.9830   -9.0230   20.4630 C   0  0  0  0  0  0
  -22.7147  -10.2124   20.3033 C   0  0  0  0  0  0
  -21.6830   -6.0695   22.5246 C   0  0  0  0  0  0
  -21.3997   -6.5597   23.8187 C   0  0  0  0  0  0
  -21.3668   -5.6764   24.9162 C   0  0  0  0  0  0
  -21.6049   -4.3017   24.7216 C   0  0  0  0  0  0
  -21.8829   -3.8111   23.4335 C   0  0  0  0  0  0
  -21.9183   -4.6926   22.3392 C   0  0  0  0  0  0
  -22.7905  -13.5267   21.1867 C   0  0  0  0  0  0
  -22.1678   -4.2121   21.0971 F   0  0  0  0  0  0
  -21.5645   -3.4510   25.7724 F   0  0  0  0  0  0
  -30.0539  -13.2676   20.4477 N   0  0  0  0  0  0
  -26.3019  -12.9206   20.3332 N   0  0  0  0  0  0
  -25.9275  -11.6396   20.5717 N   0  0  0  0  0  0
  -22.0526  -12.8292   22.0411 N   0  0  0  0  0  0
  -25.4416  -15.1832   20.4074 N   0  0  0  0  0  0
  -31.7884  -14.6843   20.0045 O   0  0  0  0  0  0
  -21.6601   -6.8837   21.4206 O   0  0  0  0  0  0
  -22.3640  -14.5587   20.6682 O   0  0  0  0  0  0
  -24.6119  -31.8667   23.2112 C   0  0  0  0  0  0
  -25.9023  -32.4809   23.8367 C   0  0  1  0  0  0
  -27.2574  -27.4610   20.0894 C   0  0  0  0  0  0
  -25.5897  -33.8599   24.2300 N   0  0  0  0  0  0
  -23.3971  -30.4886   21.5490 C   0  0  2  0  0  0
  -24.8463  -28.9467   20.1205 C   0  0  0  0  0  0
  -22.7384  -29.4675   22.5014 C   0  0  0  0  0  0
  -18.0289  -28.1362   22.8568 C   0  0  0  0  0  0
  -24.1496  -36.7319   23.2635 C   0  0  0  0  0  0
  -25.9225  -30.8380   21.3598 C   0  0  0  0  0  0
  -26.0013  -29.4727   20.7104 C   0  0  0  0  0  0
  -27.2032  -28.7340   20.6920 C   0  0  0  0  0  0
  -26.0824  -26.9349   19.5049 C   0  0  0  0  0  0
  -24.8784  -27.6734   19.5214 C   0  0  0  0  0  0
  -23.6027  -29.8086   20.1680 C   0  0  0  0  0  0
  -25.4111  -36.3089   24.0321 C   0  0  1  0  0  0
  -20.5870  -28.3655   23.1377 C   0  0  2  0  0  0
  -20.6773  -26.9430   22.5369 C   0  0  0  0  0  0
  -19.5741  -26.6623   21.5109 C   0  0  0  0  0  0
  -18.2002  -26.7905   22.1725 C   0  0  0  0  0  0
  -19.1538  -28.8834   23.2955 C   0  0  0  0  0  0
  -18.9460  -30.1454   23.8927 C   0  0  0  0  0  0
  -17.6493  -30.6631   24.0527 C   0  0  0  0  0  0
  -25.9038  -34.9453   23.5106 C   0  0  0  0  0  0
  -16.5374  -29.9098   23.6382 C   0  0  0  0  0  0
  -16.7293  -28.6494   23.0425 C   0  0  0  0  0  0
  -26.4486  -31.6587   25.0675 C   0  0  0  0  0  0
  -25.3774  -31.3665   26.1450 C   0  0  0  0  0  0
  -27.0317  -30.3019   24.6043 C   0  0  0  0  0  0
  -27.6092  -32.4293   25.7395 C   0  0  0  0  0  0
  -27.5586  -37.1795   24.8458 C   0  0  0  0  0  0
  -21.4110  -29.3069   22.3819 N   0  0  0  0  0  0
  -26.4313  -37.3750   23.9387 N   0  0  0  0  0  0
  -24.6617  -31.0775   22.0998 N   0  0  0  0  0  0
  -23.4181  -28.8192   23.3018 O   0  0  0  0  0  0
  -28.4802  -26.8233   20.0790 O   0  0  0  0  0  0
  -26.5608  -34.8907   22.4655 O   0  0  0  0  0  0
  -23.5324  -32.1435   23.7532 O   0  0  0  0  0  0
  -30.1262  -18.8941   20.2680 C   0  0  0  0  0  0
  -29.1477  -16.8995   19.2936 C   0  0  0  0  0  0
  -28.8943  -19.0424   18.1745 C   0  0  0  0  0  0
  -29.8785  -17.5032   20.3395 C   0  0  0  0  0  0
  -29.6184  -19.6702   19.2040 C   0  0  0  0  0  0
  -28.6542  -17.6519   18.2008 C   0  0  0  0  0  0
  -28.3395  -17.7875   22.6348 C   0  0  0  0  0  0
  -25.8116  -24.0140   21.6705 C   0  0  0  0  0  0
  -29.5833  -15.9413   23.7570 C   0  0  0  0  0  0
  -30.3953  -16.7299   21.5685 C   0  0  1  0  0  0
  -29.7061  -17.1883   22.8762 C   0  0  1  0  0  0
  -30.4078  -14.8778   23.0391 C   0  0  2  0  0  0
  -31.8688  -14.8461   23.5462 C   0  0  0  0  0  0
  -28.3900  -15.6955   16.7498 C   0  0  0  0  0  0
  -27.1169  -17.8049   16.2549 C   0  0  0  0  0  0
  -24.4980  -23.3842   21.2036 C   0  0  0  0  0  0
  -24.6331  -21.9600   20.6199 C   0  0  0  0  0  0
  -25.0090  -20.8816   21.6558 C   0  0  0  0  0  0
  -26.5021  -20.5086   21.7055 C   0  0  0  0  0  0
  -28.1458  -24.5812   21.0227 C   0  0  0  0  0  0
  -26.8184  -19.7414   22.9969 C   0  0  0  0  0  0
  -28.5920  -25.4265   19.8143 C   0  0  0  0  0  0
  -29.8136  -21.1791   19.1451 C   0  0  0  0  0  0
  -30.3220  -15.2469   21.6142 N   0  0  0  0  0  0
  -27.3359  -17.0437   22.1222 N   0  0  0  0  0  0
  -26.8289  -23.9985   20.8033 N   0  0  0  0  0  0
  -27.9300  -17.0126   17.1743 N   0  0  0  0  0  0
  -28.1260  -19.0731   22.9773 N   0  3  0  0  0  0
  -25.8906  -24.5165   22.7921 O   0  0  0  0  0  0
  -30.3556  -21.6618   20.2643 F   0  0  0  0  0  0
  -30.6016  -21.4928   18.1192 F   0  0  0  0  0  0
  -28.6333  -21.7759   18.9713 F   0  0  0  0  0  0
  -31.4577  -12.4377   19.0556 H   0  0  0  0  0  0
  -30.3650  -11.2938   19.7721 H   0  0  0  0  0  0
  -29.7132  -11.7815   17.4015 H   0  0  0  0  0  0
  -29.6538  -13.4837   17.7470 H   0  0  0  0  0  0
  -27.8068  -11.3050   18.7817 H   0  0  0  0  0  0
  -27.3512  -12.6544   17.7802 H   0  0  0  0  0  0
  -27.6848  -14.2311   19.5845 H   0  0  0  0  0  0
  -28.6749  -11.9383   21.3323 H   0  0  0  0  0  0
  -28.4114  -13.5793   21.8295 H   0  0  0  0  0  0
  -25.2699   -9.5681   22.4720 H   0  0  0  0  0  0
  -23.9920   -7.4625   22.7461 H   0  0  0  0  0  0
  -21.0772   -8.8745   19.8935 H   0  0  0  0  0  0
  -22.3581  -10.9661   19.6150 H   0  0  0  0  0  0
  -21.1984   -7.6103   23.9697 H   0  0  0  0  0  0
  -21.1489   -6.0479   25.9069 H   0  0  0  0  0  0
  -22.0597   -2.7563   23.2842 H   0  0  0  0  0  0
  -22.4080  -11.9883   22.4742 H   0  0  0  0  0  0
  -21.1171  -13.1381   22.2647 H   0  0  0  0  0  0
  -24.6007  -15.7483   20.3529 H   0  0  0  0  0  0
  -26.1683  -15.5251   19.7919 H   0  0  0  0  0  0
  -26.7066  -32.5530   23.1112 H   0  0  0  0  0  0
  -25.0024  -33.9737   25.0431 H   0  0  0  0  0  0
  -22.6857  -31.3065   21.4069 H   0  0  0  0  0  0
  -23.3736  -35.9675   23.3297 H   0  0  0  0  0  0
  -24.3609  -36.8940   22.2061 H   0  0  0  0  0  0
  -23.7297  -37.6536   23.6657 H   0  0  0  0  0  0
  -26.0362  -31.6095   20.5978 H   0  0  0  0  0  0
  -26.8073  -30.8825   21.9821 H   0  0  0  0  0  0
  -28.1022  -29.1394   21.1365 H   0  0  0  0  0  0
  -26.0761  -25.9648   19.0315 H   0  0  0  0  0  0
  -23.9860  -27.2549   19.0755 H   0  0  0  0  0  0
  -23.6933  -30.5800   19.4009 H   0  0  0  0  0  0
  -22.7306  -29.2157   19.8881 H   0  0  0  0  0  0
  -25.1278  -36.1952   25.0815 H   0  0  0  0  0  0
  -20.9998  -28.3197   24.1481 H   0  0  0  0  0  0
  -20.5615  -26.2202   23.3458 H   0  0  0  0  0  0
  -21.6657  -26.7497   22.1198 H   0  0  0  0  0  0
  -19.6960  -25.6727   21.0725 H   0  0  0  0  0  0
  -19.6545  -27.3754   20.6879 H   0  0  0  0  0  0
  -17.4156  -26.6481   21.4299 H   0  0  0  0  0  0
  -18.0672  -26.0077   22.9188 H   0  0  0  0  0  0
  -19.7927  -30.7243   24.2286 H   0  0  0  0  0  0
  -17.5110  -31.6367   24.5041 H   0  0  0  0  0  0
  -15.5397  -30.3015   23.7780 H   0  0  0  0  0  0
  -15.8689  -28.0737   22.7304 H   0  0  0  0  0  0
  -24.5946  -30.7012   25.7785 H   0  0  0  0  0  0
  -24.8976  -32.2811   26.4939 H   0  0  0  0  0  0
  -25.8157  -30.8816   27.0183 H   0  0  0  0  0  0
  -26.2869  -29.6776   24.1102 H   0  0  0  0  0  0
  -27.4112  -29.7235   25.4478 H   0  0  0  0  0  0
  -27.8676  -30.4295   23.9160 H   0  0  0  0  0  0
  -27.2749  -33.3552   26.2057 H   0  0  0  0  0  0
  -28.3847  -32.6925   25.0195 H   0  0  0  0  0  0
  -28.0831  -31.8376   26.5242 H   0  0  0  0  0  0
  -28.2587  -38.0101   24.7462 H   0  0  0  0  0  0
  -28.1083  -36.2623   24.6289 H   0  0  0  0  0  0
  -27.2305  -37.1437   25.8863 H   0  0  0  0  0  0
  -20.9255  -29.8882   21.7130 H   0  0  0  0  0  0
  -26.0216  -38.2844   24.1304 H   0  0  0  0  0  0
  -30.6951  -19.3829   21.0446 H   0  0  0  0  0  0
  -28.9461  -15.8488   19.3305 H   0  0  0  0  0  0
  -28.5343  -19.6593   17.3650 H   0  0  0  0  0  0
  -28.5471  -15.6109   23.8332 H   0  0  0  0  0  0
  -29.9241  -16.1178   24.7772 H   0  0  0  0  0  0
  -31.4554  -16.9830   21.6454 H   0  0  0  0  0  0
  -30.3323  -17.9293   23.3721 H   0  0  0  0  0  0
  -29.9847  -13.8909   23.2393 H   0  0  0  0  0  0
  -32.3662  -15.8100   23.4328 H   0  0  0  0  0  0
  -32.4710  -14.1075   23.0152 H   0  0  0  0  0  0
  -31.9071  -14.5922   24.6072 H   0  0  0  0  0  0
  -27.8953  -14.9174   17.3274 H   0  0  0  0  0  0
  -29.4682  -15.5954   16.8783 H   0  0  0  0  0  0
  -28.1758  -15.5070   15.6988 H   0  0  0  0  0  0
  -26.5329  -18.5565   16.7881 H   0  0  0  0  0  0
  -26.4116  -17.1683   15.7200 H   0  0  0  0  0  0
  -27.7404  -18.3077   15.5149 H   0  0  0  0  0  0
  -24.0503  -24.0429   20.4589 H   0  0  0  0  0  0
  -23.7971  -23.3686   22.0386 H   0  0  0  0  0  0
  -23.6602  -21.6938   20.2020 H   0  0  0  0  0  0
  -25.3195  -21.9407   19.7721 H   0  0  0  0  0  0
  -24.4474  -19.9720   21.4316 H   0  0  0  0  0  0
  -24.6655  -21.1897   22.6438 H   0  0  0  0  0  0
  -27.1214  -21.4021   21.6696 H   0  0  0  0  0  0
  -26.7748  -19.9243   20.8248 H   0  0  0  0  0  0
  -28.1971  -25.1720   21.9408 H   0  0  0  0  0  0
  -28.8350  -23.7492   21.1620 H   0  0  0  0  0  0
  -26.0547  -18.9882   23.1844 H   0  0  0  0  0  0
  -26.7819  -20.4193   23.8508 H   0  0  0  0  0  0
  -28.1215  -25.1247   18.8791 H   0  0  0  0  0  0
  -29.6577  -25.2500   19.6652 H   0  0  0  0  0  0
  -27.4457  -16.0614   21.9186 H   0  0  0  0  0  0
  -26.4310  -17.4282   21.8978 H   0  0  0  0  0  0
  -26.6783  -23.5218   19.9245 H   0  0  0  0  0  0
  -28.9135  -19.6208   23.3013 H   0  0  0  0  0  0
  1 25  1  0  0  0
  1 30  2  0  0  0
  1 94  1  0  0  0
  2  3  1  0  0  0
  2 25  1  0  0  0
  2103  1  0  0  0
  2104  1  0  0  0
  3  4  1  0  0  0
  3105  1  0  0  0
  3106  1  0  0  0
  4  5  1  0  0  0
  4107  1  0  0  0
  4108  1  0  0  0
  5  6  1  0  0  0
  5 26  1  0  0  0
  5109  1  0  0  0
  6 25  1  0  0  0
  6110  1  0  0  0
  6111  1  0  0  0
  7  8  2  0  0  0
  7 26  1  0  0  0
  7 29  1  0  0  0
  8  9  1  0  0  0
  8 22  1  0  0  0
  9 10  1  0  0  0
  9 27  2  0  0  0
 10 11  2  0  0  0
 10 15  1  0  0  0
 11 12  1  0  0  0
 11112  1  0  0  0
 12 13  2  0  0  0
 12113  1  0  0  0
 13 14  1  0  0  0
 13 31  1  0  0  0
 14 15  2  0  0  0
 14114  1  0  0  0
 15115  1  0  0  0
 16 17  2  0  0  0
 16 21  1  0  0  0
 16 31  1  0  0  0
 17 18  1  0  0  0
 17116  1  0  0  0
 18 19  2  0  0  0
 18117  1  0  0  0
 19 20  1  0  0  0
 19 24  1  0  0  0
 20 21  2  0  0  0
 20118  1  0  0  0
 21 23  1  0  0  0
 22 28  1  0  0  0
 22 32  2  0  0  0
 26 27  1  0  0  0
 28119  1  0  0  0
 28120  1  0  0  0
 29121  1  0  0  0
 29122  1  0  0  0
 33 34  1  0  0  0
 33 66  1  0  0  0
 33 70  2  0  0  0
 34 36  1  0  0  0
 34 59  1  0  0  0
 34123  1  0  0  0
 35 44  2  0  0  0
 35 45  1  0  0  0
 35 68  1  0  0  0
 36 56  1  0  0  0
 36124  1  0  0  0
 37 39  1  0  0  0
 37 47  1  0  0  0
 37 66  1  0  0  0
 37125  1  0  0  0
 38 43  2  0  0  0
 38 46  1  0  0  0
 38 47  1  0  0  0
 39 64  1  0  0  0
 39 67  2  0  0  0
 40 52  1  0  0  0
 40 53  2  0  0  0
 40 58  1  0  0  0
 41126  1  0  0  0
 41127  1  0  0  0
 41128  1  0  0  0
 41 48  1  0  0  0
 42 43  1  0  0  0
 42 66  1  0  0  0
 42129  1  0  0  0
 42130  1  0  0  0
 43 44  1  0  0  0
 44131  1  0  0  0
 45 46  2  0  0  0
 45132  1  0  0  0
 46133  1  0  0  0
 47134  1  0  0  0
 47135  1  0  0  0
 48 56  1  0  0  0
 48 65  1  0  0  0
 48136  1  0  0  0
 49 50  1  0  0  0
 49 53  1  0  0  0
 49 64  1  0  0  0
 49137  1  0  0  0
 50 51  1  0  0  0
 50138  1  0  0  0
 50139  1  0  0  0
 51 52  1  0  0  0
 51140  1  0  0  0
 51141  1  0  0  0
 52142  1  0  0  0
 52143  1  0  0  0
 53 54  1  0  0  0
 54 55  2  0  0  0
 54144  1  0  0  0
 55 57  1  0  0  0
 55145  1  0  0  0
 56 69  2  0  0  0
 57 58  2  0  0  0
 57146  1  0  0  0
 58147  1  0  0  0
 59 60  1  0  0  0
 59 61  1  0  0  0
 59 62  1  0  0  0
 60148  1  0  0  0
 60149  1  0  0  0
 60150  1  0  0  0
 61151  1  0  0  0
 61152  1  0  0  0
 61153  1  0  0  0
 62154  1  0  0  0
 62155  1  0  0  0
 62156  1  0  0  0
 63 65  1  0  0  0
 63157  1  0  0  0
 63158  1  0  0  0
 63159  1  0  0  0
 64160  1  0  0  0
 65161  1  0  0  0
 68 92  1  0  0  0
 71 74  2  0  0  0
 71 75  1  0  0  0
 71162  1  0  0  0
 72 74  1  0  0  0
 72 76  2  0  0  0
 72163  1  0  0  0
 73 75  2  0  0  0
 73 76  1  0  0  0
 73164  1  0  0  0
 74 80  1  0  0  0
 75 93  1  0  0  0
 76 97  1  0  0  0
 77 95  1  0  0  0
 77 98  2  0  0  0
 77 81  1  0  0  0
 78 86  1  0  0  0
 78 96  1  0  0  0
 78 99  2  0  0  0
 79 81  1  0  0  0
 79 82  1  0  0  0
 79165  1  0  0  0
 79166  1  0  0  0
 80 81  1  0  0  0
 80 94  1  0  0  0
 80167  1  0  0  0
 81168  1  0  0  0
 82 83  1  0  0  0
 82 94  1  0  0  0
 82169  1  0  0  0
 83170  1  0  0  0
 83171  1  0  0  0
 83172  1  0  0  0
 84 97  1  0  0  0
 84173  1  0  0  0
 84174  1  0  0  0
 84175  1  0  0  0
 85 97  1  0  0  0
 85176  1  0  0  0
 85177  1  0  0  0
 85178  1  0  0  0
 86 87  1  0  0  0
 86179  1  0  0  0
 86180  1  0  0  0
 87 88  1  0  0  0
 87181  1  0  0  0
 87182  1  0  0  0
 88 89  1  0  0  0
 88183  1  0  0  0
 88184  1  0  0  0
 89 91  1  0  0  0
 89185  1  0  0  0
 89186  1  0  0  0
 90 92  1  0  0  0
 90 96  1  0  0  0
 90187  1  0  0  0
 90188  1  0  0  0
 91 98  1  0  0  0
 91189  1  0  0  0
 91190  1  0  0  0
 92191  1  0  0  0
 92192  1  0  0  0
 93100  1  0  0  0
 93101  1  0  0  0
 93102  1  0  0  0
 95193  1  0  0  0
 95194  1  0  0  0
 96195  1  0  0  0
 98196  1  0  0  0
M  CHG  1  98   1
M  ISO  4   1 100  68 101  92 101  94 100
M  END
> <chiral flag>
0

> <version>
0

> <s_m_source_file>
/data/baiqing/PycharmProjects/Reinvent-master-3.2/result/LINK_invent/BTK/process_docking_weight1_custom_sum_contain_oxygen_bond_distance_aromatic_linkinvent_7_9_3/rearranged_h_0016.sdf

> <i_m_source_file_index>
74

> <r_mmod_Potential_Energy-OPLS-2005>
55.2965202331543

> <r_mmod_Stretch_Energy-OPLS-2005>
41.643726348877

> <r_mmod_Bend_Energy-OPLS-2005>
154.679290771484

> <r_mmod_Torsional_Energy-OPLS-2005>
341.630828857422

> <r_mmod_Improper_Torsional_Energy-OPLS-2005>
9.87771224975586

> <r_mmod_Van_der_Waal_Energy-OPLS-2005>
129.407562255859

> <r_mmod_Electrostatic_Energy-OPLS-2005>
-176.767837524414

> <r_mmod_Solvation_Energy-OPLS-2005>
-454.973846435547

> <b_mmod_Minimization_Converged-OPLS-2005>
0

> <r_mmod_RMS_Derivative-OPLS-2005>
4.49823522567749

$$$$
74
                    3D
 Structure written by MMmdl.
159167  0  0  1  0            999 V2000
  -30.7101  -14.4096   20.6393 C   0  0  0  0  0  0
  -30.4236  -12.2931   19.3990 C   0  0  0  0  0  0
  -29.4875  -12.5254   18.1957 C   0  0  0  0  0  0
  -28.0104  -12.3735   18.6098 C   0  0  0  0  0  0
  -27.6668  -13.1965   19.8784 C   0  0  2  0  0  0
  -28.7039  -12.9188   20.9883 C   0  0  0  0  0  0
  -25.2594  -13.8135   20.5613 C   0  0  0  0  0  0
  -24.1855  -13.0434   20.9164 C   0  0  0  0  0  0
  -24.6401  -11.6898   20.8749 C   0  0  0  0  0  0
  -23.9062  -10.4289   21.0421 C   0  0  0  0  0  0
  -24.3618   -9.4204   21.9203 C   0  0  0  0  0  0
  -23.6295   -8.2240   22.0758 C   0  0  0  0  0  0
  -22.4282   -8.0280   21.3540 C   0  0  0  0  0  0
  -21.9911   -9.0256   20.4648 C   0  0  0  0  0  0
  -22.7238  -10.2135   20.3061 C   0  0  0  0  0  0
  -21.6851   -6.0744   22.5277 C   0  0  0  0  0  0
  -21.4020   -6.5644   23.8211 C   0  0  0  0  0  0
  -21.3653   -5.6793   24.9171 C   0  0  0  0  0  0
  -21.6046   -4.3055   24.7221 C   0  0  0  0  0  0
  -21.8819   -3.8149   23.4341 C   0  0  0  0  0  0
  -21.9196   -4.6972   22.3401 C   0  0  0  0  0  0
  -22.7874  -13.5232   21.1826 C   0  0  0  0  0  0
  -22.1667   -4.2154   21.0978 F   0  0  0  0  0  0
  -21.5618   -3.4538   25.7731 F   0  0  0  0  0  0
  -30.0455  -13.2360   20.4626 N   0  0  0  0  0  0
  -26.3045  -12.9302   20.3368 N   0  0  0  0  0  0
  -25.9321  -11.6469   20.5768 N   0  0  0  0  0  0
  -22.0515  -12.8237   22.0391 N   0  0  0  0  0  0
  -25.4295  -15.1840   20.3902 N   0  0  0  0  0  0
  -31.7692  -14.6659   20.0621 O   0  0  0  0  0  0
  -21.6640   -6.8885   21.4238 O   0  0  0  0  0  0
  -22.3556  -14.5547   20.6686 O   0  0  0  0  0  0
  -24.6108  -31.8697   23.2109 C   0  0  0  0  0  0
  -25.9012  -32.4833   23.8390 C   0  0  1  0  0  0
  -27.2462  -27.4602   20.0857 C   0  0  0  0  0  0
  -25.5877  -33.8628   24.2335 N   0  0  0  0  0  0
  -23.3966  -30.4901   21.5520 C   0  0  2  0  0  0
  -24.8435  -28.9536   20.1160 C   0  0  0  0  0  0
  -22.7383  -29.4657   22.5026 C   0  0  0  0  0  0
  -18.0279  -28.1369   22.8503 C   0  0  0  0  0  0
  -24.1484  -36.7319   23.2638 C   0  0  0  0  0  0
  -25.9209  -30.8383   21.3619 C   0  0  0  0  0  0
  -25.9984  -29.4724   20.7139 C   0  0  0  0  0  0
  -27.1940  -28.7267   20.7054 C   0  0  0  0  0  0
  -26.0687  -26.9384   19.5008 C   0  0  0  0  0  0
  -24.8725  -27.6838   19.5112 C   0  0  0  0  0  0
  -23.6021  -29.8152   20.1675 C   0  0  0  0  0  0
  -25.4112  -36.3130   24.0338 C   0  0  1  0  0  0
  -20.5857  -28.3648   23.1348 C   0  0  2  0  0  0
  -20.6761  -26.9392   22.5430 C   0  0  0  0  0  0
  -19.5741  -26.6379   21.5229 C   0  0  0  0  0  0
  -18.1919  -26.7918   22.1634 C   0  0  0  0  0  0
  -19.1518  -28.8829   23.2918 C   0  0  0  0  0  0
  -18.9447  -30.1444   23.8921 C   0  0  0  0  0  0
  -17.6447  -30.6577   24.0577 C   0  0  0  0  0  0
  -25.9029  -34.9485   23.5142 C   0  0  0  0  0  0
  -16.5344  -29.9078   23.6324 C   0  0  0  0  0  0
  -16.7268  -28.6494   23.0351 C   0  0  0  0  0  0
  -26.4458  -31.6597   25.0704 C   0  0  0  0  0  0
  -25.3734  -31.3685   26.1458 C   0  0  0  0  0  0
  -27.0284  -30.3048   24.6055 C   0  0  0  0  0  0
  -27.6050  -32.4298   25.7457 C   0  0  0  0  0  0
  -27.5585  -37.1826   24.8470 C   0  0  0  0  0  0
  -21.4120  -29.3018   22.3756 N   0  0  0  0  0  0
  -26.4316  -37.3801   23.9395 N   0  0  0  0  0  0
  -24.6607  -31.0797   22.1010 N   0  0  0  0  0  0
  -23.4170  -28.8227   23.3078 O   0  0  0  0  0  0
  -28.4502  -26.7938   20.1196 O   0  0  0  0  0  0
  -26.5596  -34.8938   22.4710 O   0  0  0  0  0  0
  -23.5310  -32.1449   23.7521 O   0  0  0  0  0  0
  -28.8583  -19.2903   21.1466 C   0  0  0  0  0  0
  -30.0340  -18.8962   20.4748 C   0  0  0  0  0  0
  -29.7739  -16.6081   21.3672 C   0  0  0  0  0  0
  -28.1503  -18.3631   21.9302 C   0  0  0  0  0  0
  -30.4938  -17.5616   20.5951 C   0  0  0  0  0  0
  -28.6057  -17.0325   22.0468 C   0  0  0  0  0  0
  -30.4424  -22.2503   19.6180 C   0  0  0  0  0  0
  -31.4832  -22.5480   20.6905 C   0  0  0  0  0  0
  -30.8498  -19.8839   19.6445 C   0  0  0  0  0  0
  -29.8384  -23.4820   18.9475 C   0  0  0  0  0  0
  -29.0568  -24.4484   19.8676 C   0  0  0  0  0  0
  -28.7624  -25.7867   19.1609 C   0  0  0  0  0  0
  -30.1179  -21.0802   19.2141 N   0  0  0  0  0  0
  -30.1433  -15.2346   21.5339 N   0  0  0  0  0  0
  -27.0264  -18.7606   22.5754 F   0  0  0  0  0  0
  -31.6490  -17.2328   19.9749 F   0  0  0  0  0  0
  -27.7188  -15.9216   23.0365 Cl  0  0  0  0  0  0
  -31.4657  -12.4032   19.0941 H   0  0  0  0  0  0
  -30.3276  -11.2684   19.7627 H   0  0  0  0  0  0
  -29.7230  -11.8248   17.3932 H   0  0  0  0  0  0
  -29.6509  -13.5241   17.7884 H   0  0  0  0  0  0
  -27.8256  -11.3146   18.7976 H   0  0  0  0  0  0
  -27.3533  -12.6554   17.7851 H   0  0  0  0  0  0
  -27.7295  -14.2518   19.6110 H   0  0  0  0  0  0
  -28.6731  -11.8646   21.2667 H   0  0  0  0  0  0
  -28.4496  -13.4521   21.9028 H   0  0  0  0  0  0
  -25.2761   -9.5685   22.4788 H   0  0  0  0  0  0
  -24.0002   -7.4627   22.7470 H   0  0  0  0  0  0
  -21.0845   -8.8780   19.8948 H   0  0  0  0  0  0
  -22.3706  -10.9686   19.6173 H   0  0  0  0  0  0
  -21.2025   -7.6152   23.9720 H   0  0  0  0  0  0
  -21.1469   -6.0522   25.9075 H   0  0  0  0  0  0
  -22.0611   -2.7612   23.2839 H   0  0  0  0  0  0
  -22.4125  -11.9891   22.4777 H   0  0  0  0  0  0
  -21.1127  -13.1257   22.2583 H   0  0  0  0  0  0
  -24.6674  -15.8410   20.5117 H   0  0  0  0  0  0
  -26.2797  -15.6191   20.0594 H   0  0  0  0  0  0
  -26.7086  -32.5552   23.1148 H   0  0  0  0  0  0
  -25.0041  -33.9785   25.0490 H   0  0  0  0  0  0
  -22.6855  -31.3077   21.4131 H   0  0  0  0  0  0
  -23.3746  -35.9647   23.3323 H   0  0  0  0  0  0
  -24.3584  -36.8913   22.2050 H   0  0  0  0  0  0
  -23.7235  -37.6534   23.6634 H   0  0  0  0  0  0
  -26.0281  -31.6018   20.5901 H   0  0  0  0  0  0
  -26.8109  -30.8969   21.9768 H   0  0  0  0  0  0
  -28.0848  -29.1220   21.1732 H   0  0  0  0  0  0
  -26.0496  -25.9553   19.0545 H   0  0  0  0  0  0
  -23.9827  -27.2716   19.0557 H   0  0  0  0  0  0
  -23.7053  -30.5864   19.4039 H   0  0  0  0  0  0
  -22.7271  -29.2303   19.8758 H   0  0  0  0  0  0
  -25.1290  -36.2014   25.0833 H   0  0  0  0  0  0
  -20.9958  -28.3203   24.1469 H   0  0  0  0  0  0
  -20.5690  -26.2248   23.3610 H   0  0  0  0  0  0
  -21.6627  -26.7453   22.1213 H   0  0  0  0  0  0
  -19.6898  -25.6298   21.1237 H   0  0  0  0  0  0
  -19.6670  -27.3207   20.6777 H   0  0  0  0  0  0
  -17.4193  -26.6695   21.4027 H   0  0  0  0  0  0
  -18.0307  -26.0052   22.9021 H   0  0  0  0  0  0
  -19.7927  -30.7260   24.2281 H   0  0  0  0  0  0
  -17.5007  -31.6263   24.5168 H   0  0  0  0  0  0
  -15.5341  -30.2993   23.7629 H   0  0  0  0  0  0
  -15.8674  -28.0826   22.7046 H   0  0  0  0  0  0
  -24.5898  -30.7046   25.7783 H   0  0  0  0  0  0
  -24.8923  -32.2833   26.4936 H   0  0  0  0  0  0
  -25.8090  -30.8826   27.0199 H   0  0  0  0  0  0
  -26.2808  -29.6816   24.1132 H   0  0  0  0  0  0
  -27.4099  -29.7284   25.4494 H   0  0  0  0  0  0
  -27.8622  -30.4377   23.9157 H   0  0  0  0  0  0
  -27.2680  -33.3578   26.2087 H   0  0  0  0  0  0
  -28.3825  -32.6896   25.0256 H   0  0  0  0  0  0
  -28.0755  -31.8388   26.5327 H   0  0  0  0  0  0
  -28.2637  -38.0095   24.7511 H   0  0  0  0  0  0
  -28.1062  -36.2636   24.6316 H   0  0  0  0  0  0
  -27.2304  -37.1495   25.8877 H   0  0  0  0  0  0
  -20.9291  -29.8720   21.6955 H   0  0  0  0  0  0
  -26.0218  -38.2891   24.1377 H   0  0  0  0  0  0
  -28.4947  -20.3045   21.0794 H   0  0  0  0  0  0
  -32.4743  -22.2239   20.3732 H   0  0  0  0  0  0
  -31.2238  -22.0393   21.6193 H   0  0  0  0  0  0
  -31.5554  -23.6134   20.9058 H   0  0  0  0  0  0
  -31.1895  -19.3642   18.7451 H   0  0  0  0  0  0
  -31.7650  -20.0951   20.1962 H   0  0  0  0  0  0
  -29.1925  -23.1658   18.1274 H   0  0  0  0  0  0
  -30.6612  -24.0238   18.4802 H   0  0  0  0  0  0
  -29.6316  -24.6651   20.7680 H   0  0  0  0  0  0
  -28.1284  -23.9884   20.2062 H   0  0  0  0  0  0
  -29.6711  -26.1385   18.6711 H   0  0  0  0  0  0
  -28.0388  -25.6678   18.3562 H   0  0  0  0  0  0
  -29.4938  -14.7454   22.1314 H   0  0  0  0  0  0
  1 25  1  0  0  0
  1 30  2  0  0  0
  1 84  1  0  0  0
  2  3  1  0  0  0
  2 25  1  0  0  0
  2 88  1  0  0  0
  2 89  1  0  0  0
  3  4  1  0  0  0
  3 90  1  0  0  0
  3 91  1  0  0  0
  4  5  1  0  0  0
  4 92  1  0  0  0
  4 93  1  0  0  0
  5  6  1  0  0  0
  5 26  1  0  0  0
  5 94  1  0  0  0
  6 25  1  0  0  0
  6 95  1  0  0  0
  6 96  1  0  0  0
  7  8  2  0  0  0
  7 26  1  0  0  0
  7 29  1  0  0  0
  8  9  1  0  0  0
  8 22  1  0  0  0
  9 10  1  0  0  0
  9 27  2  0  0  0
 10 11  2  0  0  0
 10 15  1  0  0  0
 11 12  1  0  0  0
 11 97  1  0  0  0
 12 13  2  0  0  0
 12 98  1  0  0  0
 13 14  1  0  0  0
 13 31  1  0  0  0
 14 15  2  0  0  0
 14 99  1  0  0  0
 15100  1  0  0  0
 16 17  2  0  0  0
 16 21  1  0  0  0
 16 31  1  0  0  0
 17 18  1  0  0  0
 17101  1  0  0  0
 18 19  2  0  0  0
 18102  1  0  0  0
 19 20  1  0  0  0
 19 24  1  0  0  0
 20 21  2  0  0  0
 20103  1  0  0  0
 21 23  1  0  0  0
 22 28  1  0  0  0
 22 32  2  0  0  0
 26 27  1  0  0  0
 28104  1  0  0  0
 28105  1  0  0  0
 29106  1  0  0  0
 29107  1  0  0  0
 33 34  1  0  0  0
 33 66  1  0  0  0
 33 70  2  0  0  0
 34 36  1  0  0  0
 34 59  1  0  0  0
 34108  1  0  0  0
 35 44  2  0  0  0
 35 45  1  0  0  0
 35 68  1  0  0  0
 36 56  1  0  0  0
 36109  1  0  0  0
 37 39  1  0  0  0
 37 47  1  0  0  0
 37 66  1  0  0  0
 37110  1  0  0  0
 38 43  2  0  0  0
 38 46  1  0  0  0
 38 47  1  0  0  0
 39 64  1  0  0  0
 39 67  2  0  0  0
 40 52  1  0  0  0
 40 53  2  0  0  0
 40 58  1  0  0  0
 41111  1  0  0  0
 41112  1  0  0  0
 41113  1  0  0  0
 41 48  1  0  0  0
 42 43  1  0  0  0
 42 66  1  0  0  0
 42114  1  0  0  0
 42115  1  0  0  0
 43 44  1  0  0  0
 44116  1  0  0  0
 45 46  2  0  0  0
 45117  1  0  0  0
 46118  1  0  0  0
 47119  1  0  0  0
 47120  1  0  0  0
 48 56  1  0  0  0
 48 65  1  0  0  0
 48121  1  0  0  0
 49 50  1  0  0  0
 49 53  1  0  0  0
 49 64  1  0  0  0
 49122  1  0  0  0
 50 51  1  0  0  0
 50123  1  0  0  0
 50124  1  0  0  0
 51 52  1  0  0  0
 51125  1  0  0  0
 51126  1  0  0  0
 52127  1  0  0  0
 52128  1  0  0  0
 53 54  1  0  0  0
 54 55  2  0  0  0
 54129  1  0  0  0
 55 57  1  0  0  0
 55130  1  0  0  0
 56 69  2  0  0  0
 57 58  2  0  0  0
 57131  1  0  0  0
 58132  1  0  0  0
 59 60  1  0  0  0
 59 61  1  0  0  0
 59 62  1  0  0  0
 60133  1  0  0  0
 60134  1  0  0  0
 60135  1  0  0  0
 61136  1  0  0  0
 61137  1  0  0  0
 61138  1  0  0  0
 62139  1  0  0  0
 62140  1  0  0  0
 62141  1  0  0  0
 63 65  1  0  0  0
 63142  1  0  0  0
 63143  1  0  0  0
 63144  1  0  0  0
 64145  1  0  0  0
 65146  1  0  0  0
 68 82  1  0  0  0
 71 72  2  0  0  0
 71 74  1  0  0  0
 71147  1  0  0  0
 72 75  1  0  0  0
 72 79  1  0  0  0
 73 75  2  0  0  0
 73 76  1  0  0  0
 73 84  1  0  0  0
 74 76  2  0  0  0
 74 85  1  0  0  0
 75 86  1  0  0  0
 76 87  1  0  0  0
 77 78  1  0  0  0
 77 80  1  0  0  0
 77 83  2  0  0  0
 78148  1  0  0  0
 78149  1  0  0  0
 78150  1  0  0  0
 79 83  1  0  0  0
 79151  1  0  0  0
 79152  1  0  0  0
 80 81  1  0  0  0
 80153  1  0  0  0
 80154  1  0  0  0
 81 82  1  0  0  0
 81155  1  0  0  0
 81156  1  0  0  0
 82157  1  0  0  0
 82158  1  0  0  0
 84159  1  0  0  0
M  ISO  4   1 100  68 101  82 101  84 100
M  END
> <chiral flag>
0

> <version>
0

> <s_m_source_file>
/data/baiqing/PycharmProjects/Reinvent-master-3.2/result/LINK_invent/BTK/process_docking_weight1_custom_sum_contain_oxygen_bond_distance_aromatic_linkinvent_7_9_3/rearranged_h_0016.sdf

> <i_m_source_file_index>
75

> <r_mmod_Potential_Energy-OPLS-2005>
-107.697738647461

> <r_mmod_Stretch_Energy-OPLS-2005>
36.8688659667969

> <r_mmod_Bend_Energy-OPLS-2005>
120.325294494629

> <r_mmod_Torsional_Energy-OPLS-2005>
224.332656860352

> <r_mmod_Improper_Torsional_Energy-OPLS-2005>
5.43220710754395

> <r_mmod_Van_der_Waal_Energy-OPLS-2005>
164.193145751953

> <r_mmod_Electrostatic_Energy-OPLS-2005>
-457.522003173828

> <r_mmod_Solvation_Energy-OPLS-2005>
-210.371124267578

> <b_mmod_Minimization_Converged-OPLS-2005>
0

> <r_mmod_RMS_Derivative-OPLS-2005>
2.03780150413513

$$$$
75
                    3D
 Structure written by MMmdl.
189198  0  0  1  0            999 V2000
  -30.8195  -14.2687   20.8211 C   0  0  0  0  0  0
  -30.4179  -12.3138   19.3592 C   0  0  0  0  0  0
  -29.4712  -12.5501   18.1706 C   0  0  0  0  0  0
  -28.0022  -12.3792   18.5954 C   0  0  0  0  0  0
  -27.6614  -13.1982   19.8641 C   0  0  2  0  0  0
  -28.6946  -12.9409   20.9791 C   0  0  0  0  0  0
  -25.2602  -13.8149   20.5644 C   0  0  0  0  0  0
  -24.1848  -13.0442   20.9155 C   0  0  0  0  0  0
  -24.6387  -11.6905   20.8700 C   0  0  0  0  0  0
  -23.9044  -10.4298   21.0387 C   0  0  0  0  0  0
  -24.3598   -9.4220   21.9179 C   0  0  0  0  0  0
  -23.6286   -8.2253   22.0757 C   0  0  0  0  0  0
  -22.4272   -8.0286   21.3542 C   0  0  0  0  0  0
  -21.9905   -9.0250   20.4637 C   0  0  0  0  0  0
  -22.7223  -10.2135   20.3038 C   0  0  0  0  0  0
  -21.6858   -6.0745   22.5280 C   0  0  0  0  0  0
  -21.4015   -6.5640   23.8213 C   0  0  0  0  0  0
  -21.3651   -5.6793   24.9172 C   0  0  0  0  0  0
  -21.6036   -4.3058   24.7232 C   0  0  0  0  0  0
  -21.8820   -3.8147   23.4348 C   0  0  0  0  0  0
  -21.9197   -4.6971   22.3402 C   0  0  0  0  0  0
  -22.7871  -13.5248   21.1836 C   0  0  0  0  0  0
  -22.1663   -4.2163   21.0987 F   0  0  0  0  0  0
  -21.5626   -3.4541   25.7738 F   0  0  0  0  0  0
  -30.0498  -13.2142   20.4579 N   0  0  0  0  0  0
  -26.3014  -12.9300   20.3274 N   0  0  0  0  0  0
  -25.9294  -11.6460   20.5673 N   0  0  0  0  0  0
  -22.0499  -12.8232   22.0379 N   0  0  0  0  0  0
  -25.4344  -15.1870   20.4088 N   0  0  0  0  0  0
  -31.7312  -14.7334   20.1278 O   0  0  0  0  0  0
  -21.6633   -6.8882   21.4239 O   0  0  0  0  0  0
  -22.3557  -14.5566   20.6708 O   0  0  0  0  0  0
  -24.6084  -31.8699   23.2133 C   0  0  0  0  0  0
  -25.9031  -32.4806   23.8378 C   0  0  1  0  0  0
  -27.2498  -27.4897   20.1008 C   0  0  0  0  0  0
  -25.5966  -33.8595   24.2353 N   0  0  0  0  0  0
  -23.3888  -30.4944   21.5503 C   0  0  2  0  0  0
  -24.8393  -28.9623   20.1215 C   0  0  0  0  0  0
  -22.7368  -29.4661   22.5018 C   0  0  0  0  0  0
  -18.0273  -28.1357   22.8498 C   0  0  0  0  0  0
  -24.1507  -36.7269   23.2641 C   0  0  0  0  0  0
  -25.9075  -30.8605   21.3490 C   0  0  0  0  0  0
  -25.9884  -29.4891   20.7183 C   0  0  0  0  0  0
  -27.1921  -28.7588   20.7237 C   0  0  0  0  0  0
  -26.0831  -26.9681   19.5055 C   0  0  0  0  0  0
  -24.8748  -27.6916   19.5187 C   0  0  0  0  0  0
  -23.5963  -29.8212   20.1642 C   0  0  0  0  0  0
  -25.4118  -36.3068   24.0361 C   0  0  1  0  0  0
  -20.5850  -28.3617   23.1365 C   0  0  2  0  0  0
  -20.6777  -26.9359   22.5429 C   0  0  0  0  0  0
  -19.5771  -26.6368   21.5209 C   0  0  0  0  0  0
  -18.1931  -26.7892   22.1601 C   0  0  0  0  0  0
  -19.1511  -28.8801   23.2919 C   0  0  0  0  0  0
  -18.9459  -30.1408   23.8922 C   0  0  0  0  0  0
  -17.6477  -30.6577   24.0561 C   0  0  0  0  0  0
  -25.9055  -34.9457   23.5139 C   0  0  0  0  0  0
  -16.5368  -29.9083   23.6322 C   0  0  0  0  0  0
  -16.7261  -28.6491   23.0340 C   0  0  0  0  0  0
  -26.4492  -31.6549   25.0654 C   0  0  0  0  0  0
  -25.3787  -31.3648   26.1427 C   0  0  0  0  0  0
  -27.0332  -30.3043   24.5892 C   0  0  0  0  0  0
  -27.6054  -32.4213   25.7473 C   0  0  0  0  0  0
  -27.5576  -37.1797   24.8484 C   0  0  0  0  0  0
  -21.4101  -29.2979   22.3776 N   0  0  0  0  0  0
  -26.4289  -37.3757   23.9437 N   0  0  0  0  0  0
  -24.6524  -31.0889   22.0963 N   0  0  0  0  0  0
  -23.4174  -28.8205   23.3049 O   0  0  0  0  0  0
  -28.3948  -26.7452   19.9661 O   0  0  0  0  0  0
  -26.5542  -34.8923   22.4644 O   0  0  0  0  0  0
  -23.5319  -32.1390   23.7632 O   0  0  0  0  0  0
  -31.8169  -16.7122   22.6461 C   0  0  0  0  0  0
  -32.3663  -15.6050   25.2242 C   0  0  0  0  0  0
  -32.4771  -17.4726   23.6413 C   0  0  0  0  0  0
  -32.7535  -16.9083   24.8789 C   0  0  0  0  0  0
  -31.4030  -15.3950   22.9729 C   0  0  0  0  0  0
  -31.6533  -14.8582   24.2657 C   0  0  0  0  0  0
  -32.8814  -18.8873   23.7323 C   0  0  0  0  0  0
  -33.4724  -19.0441   25.0700 C   0  0  0  0  0  0
  -32.7168  -19.8934   22.8377 C   0  0  0  0  0  0
  -28.7673  -19.9914   19.7057 C   0  0  0  0  0  0
  -35.6183  -19.1923   19.5461 C   0  0  0  0  0  0
  -32.9823  -21.3902   23.0428 C   0  0  0  0  0  0
  -30.1967  -19.4832   19.9382 C   0  0  0  0  0  0
  -34.6228  -19.1441   20.7131 C   0  0  0  0  0  0
  -31.9347  -22.0367   23.9803 C   0  0  0  0  0  0
  -31.8526  -23.5686   23.8386 C   0  0  0  0  0  0
  -30.4575  -24.0337   23.3897 C   0  0  0  0  0  0
  -30.4757  -25.4426   22.7824 C   0  0  0  0  0  0
  -29.2082  -25.7381   21.9675 C   0  0  0  0  0  0
  -30.9007  -20.1803   21.1247 C   0  0  0  0  0  0
  -33.2604  -19.7969   20.3779 C   0  0  0  0  0  0
  -29.4301  -26.8491   20.9358 C   0  0  0  0  0  0
  -33.3718  -17.8615   25.6858 N   0  0  0  0  0  0
  -30.6036  -14.6220   22.0965 N   0  0  0  0  0  0
  -32.2361  -19.6056   21.4476 N   0  3  0  0  0  0
  -34.0127  -20.0280   25.5751 O   0  0  0  0  0  0
  -31.0595  -13.2926   24.6966 Cl  0  0  0  0  0  0
  -31.4553  -12.4500   19.0478 H   0  0  0  0  0  0
  -30.3422  -11.2812   19.7047 H   0  0  0  0  0  0
  -29.7072  -11.8602   17.3595 H   0  0  0  0  0  0
  -29.6218  -13.5547   17.7741 H   0  0  0  0  0  0
  -27.8202  -11.3181   18.7744 H   0  0  0  0  0  0
  -27.3405  -12.6656   17.7774 H   0  0  0  0  0  0
  -27.7198  -14.2501   19.5886 H   0  0  0  0  0  0
  -28.6474  -11.9039   21.3161 H   0  0  0  0  0  0
  -28.4174  -13.5450   21.8431 H   0  0  0  0  0  0
  -25.2753   -9.5720   22.4751 H   0  0  0  0  0  0
  -24.0007   -7.4656   22.7489 H   0  0  0  0  0  0
  -21.0833   -8.8752   19.8938 H   0  0  0  0  0  0
  -22.3677  -10.9664   19.6134 H   0  0  0  0  0  0
  -21.1999   -7.6151   23.9724 H   0  0  0  0  0  0
  -21.1464   -6.0520   25.9077 H   0  0  0  0  0  0
  -22.0602   -2.7620   23.2844 H   0  0  0  0  0  0
  -22.4100  -11.9870   22.4733 H   0  0  0  0  0  0
  -21.1110  -13.1241   22.2566 H   0  0  0  0  0  0
  -24.6751  -15.8469   20.5376 H   0  0  0  0  0  0
  -26.2931  -15.6259   20.1001 H   0  0  0  0  0  0
  -26.7121  -32.5525   23.1190 H   0  0  0  0  0  0
  -25.0329  -33.9751   25.0628 H   0  0  0  0  0  0
  -22.6727  -31.3074   21.4125 H   0  0  0  0  0  0
  -23.3767  -35.9591   23.3285 H   0  0  0  0  0  0
  -24.3671  -36.8863   22.2059 H   0  0  0  0  0  0
  -23.7261  -37.6485   23.6642 H   0  0  0  0  0  0
  -25.9945  -31.6196   20.5701 H   0  0  0  0  0  0
  -26.8042  -30.9315   21.9484 H   0  0  0  0  0  0
  -28.0603  -29.2085   21.1741 H   0  0  0  0  0  0
  -26.1133  -26.0017   19.0221 H   0  0  0  0  0  0
  -23.9931  -27.2676   19.0592 H   0  0  0  0  0  0
  -23.6972  -30.5908   19.3989 H   0  0  0  0  0  0
  -22.7269  -29.2299   19.8707 H   0  0  0  0  0  0
  -25.1277  -36.1950   25.0849 H   0  0  0  0  0  0
  -20.9910  -28.3170   24.1507 H   0  0  0  0  0  0
  -20.5752  -26.2190   23.3599 H   0  0  0  0  0  0
  -21.6654  -26.7471   22.1196 H   0  0  0  0  0  0
  -19.6963  -25.6292   21.1206 H   0  0  0  0  0  0
  -19.6752  -27.3200   20.6771 H   0  0  0  0  0  0
  -17.4213  -26.6665   21.3981 H   0  0  0  0  0  0
  -18.0305  -26.0003   22.8972 H   0  0  0  0  0  0
  -19.7956  -30.7174   24.2301 H   0  0  0  0  0  0
  -17.5064  -31.6271   24.5131 H   0  0  0  0  0  0
  -15.5374  -30.3021   23.7641 H   0  0  0  0  0  0
  -15.8638  -28.0859   22.7042 H   0  0  0  0  0  0
  -24.6005  -30.6932   25.7802 H   0  0  0  0  0  0
  -24.8947  -32.2810   26.4788 H   0  0  0  0  0  0
  -25.8162  -30.8916   27.0227 H   0  0  0  0  0  0
  -26.2844  -29.6789   24.1029 H   0  0  0  0  0  0
  -27.4333  -29.7254   25.4225 H   0  0  0  0  0  0
  -27.8546  -30.4441   23.8862 H   0  0  0  0  0  0
  -27.2658  -33.3497   26.2043 H   0  0  0  0  0  0
  -28.3914  -32.6729   25.0352 H   0  0  0  0  0  0
  -28.0628  -31.8303   26.5413 H   0  0  0  0  0  0
  -28.2549  -38.0123   24.7511 H   0  0  0  0  0  0
  -28.1081  -36.2650   24.6278 H   0  0  0  0  0  0
  -27.2312  -37.1418   25.8888 H   0  0  0  0  0  0
  -20.9253  -29.8677   21.6986 H   0  0  0  0  0  0
  -26.0165  -38.2822   24.1437 H   0  0  0  0  0  0
  -31.5625  -17.1134   21.6794 H   0  0  0  0  0  0
  -32.5623  -15.2025   26.2082 H   0  0  0  0  0  0
  -28.3087  -19.4801   18.8583 H   0  0  0  0  0  0
  -28.7530  -21.0606   19.4892 H   0  0  0  0  0  0
  -28.1333  -19.8157   20.5756 H   0  0  0  0  0  0
  -36.5746  -18.7552   19.8401 H   0  0  0  0  0  0
  -35.8090  -20.2179   19.2240 H   0  0  0  0  0  0
  -35.2483  -18.6284   18.6886 H   0  0  0  0  0  0
  -32.9881  -21.9129   22.0854 H   0  0  0  0  0  0
  -33.9834  -21.5378   23.4488 H   0  0  0  0  0  0
  -30.7577  -19.6403   19.0169 H   0  0  0  0  0  0
  -30.1531  -18.4054   20.0999 H   0  0  0  0  0  0
  -35.0765  -19.6455   21.5709 H   0  0  0  0  0  0
  -34.4739  -18.1035   21.0050 H   0  0  0  0  0  0
  -32.1576  -21.7920   25.0187 H   0  0  0  0  0  0
  -30.9530  -21.5947   23.8009 H   0  0  0  0  0  0
  -32.5999  -23.9098   23.1197 H   0  0  0  0  0  0
  -32.1170  -24.0482   24.7803 H   0  0  0  0  0  0
  -29.7484  -23.9877   24.2184 H   0  0  0  0  0  0
  -30.0886  -23.3353   22.6365 H   0  0  0  0  0  0
  -31.3349  -25.5117   22.1145 H   0  0  0  0  0  0
  -30.6293  -26.1998   23.5539 H   0  0  0  0  0  0
  -28.3653  -25.9686   22.6218 H   0  0  0  0  0  0
  -28.9291  -24.8389   21.4165 H   0  0  0  0  0  0
  -30.2670  -20.0754   22.0066 H   0  0  0  0  0  0
  -30.9898  -21.2504   20.9372 H   0  0  0  0  0  0
  -32.8985  -19.3620   19.4482 H   0  0  0  0  0  0
  -33.3964  -20.8590   20.1706 H   0  0  0  0  0  0
  -30.3604  -26.6724   20.3951 H   0  0  0  0  0  0
  -29.5528  -27.8194   21.4130 H   0  0  0  0  0  0
  -33.7153  -17.6677   26.6164 H   0  0  0  0  0  0
  -29.9471  -14.0132   22.5626 H   0  0  0  0  0  0
  -32.0655  -18.6135   21.4314 H   0  0  0  0  0  0
  1 25  1  0  0  0
  1 30  2  0  0  0
  1 94  1  0  0  0
  2  3  1  0  0  0
  2 25  1  0  0  0
  2 98  1  0  0  0
  2 99  1  0  0  0
  3  4  1  0  0  0
  3100  1  0  0  0
  3101  1  0  0  0
  4  5  1  0  0  0
  4102  1  0  0  0
  4103  1  0  0  0
  5  6  1  0  0  0
  5 26  1  0  0  0
  5104  1  0  0  0
  6 25  1  0  0  0
  6105  1  0  0  0
  6106  1  0  0  0
  7  8  2  0  0  0
  7 26  1  0  0  0
  7 29  1  0  0  0
  8  9  1  0  0  0
  8 22  1  0  0  0
  9 10  1  0  0  0
  9 27  2  0  0  0
 10 11  2  0  0  0
 10 15  1  0  0  0
 11 12  1  0  0  0
 11107  1  0  0  0
 12 13  2  0  0  0
 12108  1  0  0  0
 13 14  1  0  0  0
 13 31  1  0  0  0
 14 15  2  0  0  0
 14109  1  0  0  0
 15110  1  0  0  0
 16 17  2  0  0  0
 16 21  1  0  0  0
 16 31  1  0  0  0
 17 18  1  0  0  0
 17111  1  0  0  0
 18 19  2  0  0  0
 18112  1  0  0  0
 19 20  1  0  0  0
 19 24  1  0  0  0
 20 21  2  0  0  0
 20113  1  0  0  0
 21 23  1  0  0  0
 22 28  1  0  0  0
 22 32  2  0  0  0
 26 27  1  0  0  0
 28114  1  0  0  0
 28115  1  0  0  0
 29116  1  0  0  0
 29117  1  0  0  0
 33 34  1  0  0  0
 33 66  1  0  0  0
 33 70  2  0  0  0
 34 36  1  0  0  0
 34 59  1  0  0  0
 34118  1  0  0  0
 35 44  2  0  0  0
 35 45  1  0  0  0
 35 68  1  0  0  0
 36 56  1  0  0  0
 36119  1  0  0  0
 37 39  1  0  0  0
 37 47  1  0  0  0
 37 66  1  0  0  0
 37120  1  0  0  0
 38 43  2  0  0  0
 38 46  1  0  0  0
 38 47  1  0  0  0
 39 64  1  0  0  0
 39 67  2  0  0  0
 40 52  1  0  0  0
 40 53  2  0  0  0
 40 58  1  0  0  0
 41121  1  0  0  0
 41122  1  0  0  0
 41123  1  0  0  0
 41 48  1  0  0  0
 42 43  1  0  0  0
 42 66  1  0  0  0
 42124  1  0  0  0
 42125  1  0  0  0
 43 44  1  0  0  0
 44126  1  0  0  0
 45 46  2  0  0  0
 45127  1  0  0  0
 46128  1  0  0  0
 47129  1  0  0  0
 47130  1  0  0  0
 48 56  1  0  0  0
 48 65  1  0  0  0
 48131  1  0  0  0
 49 50  1  0  0  0
 49 53  1  0  0  0
 49 64  1  0  0  0
 49132  1  0  0  0
 50 51  1  0  0  0
 50133  1  0  0  0
 50134  1  0  0  0
 51 52  1  0  0  0
 51135  1  0  0  0
 51136  1  0  0  0
 52137  1  0  0  0
 52138  1  0  0  0
 53 54  1  0  0  0
 54 55  2  0  0  0
 54139  1  0  0  0
 55 57  1  0  0  0
 55140  1  0  0  0
 56 69  2  0  0  0
 57 58  2  0  0  0
 57141  1  0  0  0
 58142  1  0  0  0
 59 60  1  0  0  0
 59 61  1  0  0  0
 59 62  1  0  0  0
 60143  1  0  0  0
 60144  1  0  0  0
 60145  1  0  0  0
 61146  1  0  0  0
 61147  1  0  0  0
 61148  1  0  0  0
 62149  1  0  0  0
 62150  1  0  0  0
 62151  1  0  0  0
 63 65  1  0  0  0
 63152  1  0  0  0
 63153  1  0  0  0
 63154  1  0  0  0
 64155  1  0  0  0
 65156  1  0  0  0
 68 92  1  0  0  0
 71 73  2  0  0  0
 71 75  1  0  0  0
 71157  1  0  0  0
 72 74  2  0  0  0
 72 76  1  0  0  0
 72158  1  0  0  0
 73 74  1  0  0  0
 73 77  1  0  0  0
 74 93  1  0  0  0
 75 76  2  0  0  0
 75 94  1  0  0  0
 76 97  1  0  0  0
 77 78  1  0  0  0
 77 79  2  0  0  0
 78 93  1  0  0  0
 78 96  2  0  0  0
 79 82  1  0  0  0
 79 95  1  0  0  0
 80 83  1  0  0  0
 80159  1  0  0  0
 80160  1  0  0  0
 80161  1  0  0  0
 81 84  1  0  0  0
 81162  1  0  0  0
 81163  1  0  0  0
 81164  1  0  0  0
 82 85  1  0  0  0
 82165  1  0  0  0
 82166  1  0  0  0
 83 90  1  0  0  0
 83167  1  0  0  0
 83168  1  0  0  0
 84 91  1  0  0  0
 84169  1  0  0  0
 84170  1  0  0  0
 85 86  1  0  0  0
 85171  1  0  0  0
 85172  1  0  0  0
 86 87  1  0  0  0
 86173  1  0  0  0
 86174  1  0  0  0
 87 88  1  0  0  0
 87175  1  0  0  0
 87176  1  0  0  0
 88 89  1  0  0  0
 88177  1  0  0  0
 88178  1  0  0  0
 89 92  1  0  0  0
 89179  1  0  0  0
 89180  1  0  0  0
 90181  1  0  0  0
 90182  1  0  0  0
 90 95  1  0  0  0
 91 95  1  0  0  0
 91183  1  0  0  0
 91184  1  0  0  0
 92185  1  0  0  0
 92186  1  0  0  0
 93187  1  0  0  0
 94188  1  0  0  0
 95189  1  0  0  0
M  CHG  1  95   1
M  ISO  4   1 100  68 101  92 101  94 100
M  END
> <chiral flag>
0

> <version>
0

> <s_m_source_file>
/data/baiqing/PycharmProjects/Reinvent-master-3.2/result/LINK_invent/BTK/process_docking_weight1_custom_sum_contain_oxygen_bond_distance_aromatic_linkinvent_7_9_3/rearranged_h_0016.sdf

> <i_m_source_file_index>
76

> <r_mmod_Potential_Energy-OPLS-2005>
-52.5491561889648

> <r_mmod_Stretch_Energy-OPLS-2005>
37.4921646118164

> <r_mmod_Bend_Energy-OPLS-2005>
187.826751708984

> <r_mmod_Torsional_Energy-OPLS-2005>
269.525848388672

> <r_mmod_Improper_Torsional_Energy-OPLS-2005>
5.94922971725464

> <r_mmod_Van_der_Waal_Energy-OPLS-2005>
147.121841430664

> <r_mmod_Electrostatic_Energy-OPLS-2005>
-288.944061279297

> <r_mmod_Solvation_Energy-OPLS-2005>
-422.151184082031

> <b_mmod_Minimization_Converged-OPLS-2005>
0

> <r_mmod_RMS_Derivative-OPLS-2005>
3.9103844165802

$$$$
76
                    3D
 Structure written by MMmdl.
150158  0  0  1  0            999 V2000
  -30.2970  -15.6022   20.3263 C   0  0  0  0  0  0
  -30.4344  -13.0515   19.5481 C   0  0  0  0  0  0
  -29.5570  -12.6496   18.3279 C   0  0  0  0  0  0
  -28.1276  -12.2951   18.7666 C   0  0  0  0  0  0
  -27.6011  -13.3011   19.8151 C   0  0  2  0  0  0
  -28.6157  -13.6161   20.9394 C   0  0  0  0  0  0
  -25.2349  -13.8275   20.5778 C   0  0  0  0  0  0
  -24.1724  -13.0440   20.9278 C   0  0  0  0  0  0
  -24.6404  -11.6944   20.8754 C   0  0  0  0  0  0
  -23.9092  -10.4305   21.0391 C   0  0  0  0  0  0
  -24.3634   -9.4216   21.9169 C   0  0  0  0  0  0
  -23.6307   -8.2249   22.0748 C   0  0  0  0  0  0
  -22.4287   -8.0285   21.3545 C   0  0  0  0  0  0
  -21.9920   -9.0254   20.4644 C   0  0  0  0  0  0
  -22.7259  -10.2134   20.3050 C   0  0  0  0  0  0
  -21.6858   -6.0734   22.5280 C   0  0  0  0  0  0
  -21.4013   -6.5636   23.8211 C   0  0  0  0  0  0
  -21.3663   -5.6790   24.9172 C   0  0  0  0  0  0
  -21.6042   -4.3048   24.7223 C   0  0  0  0  0  0
  -21.8823   -3.8140   23.4348 C   0  0  0  0  0  0
  -21.9187   -4.6959   22.3401 C   0  0  0  0  0  0
  -22.7741  -13.5183   21.1911 C   0  0  0  0  0  0
  -22.1663   -4.2142   21.0983 F   0  0  0  0  0  0
  -21.5622   -3.4533   25.7737 F   0  0  0  0  0  0
  -29.8028  -14.2274   20.2985 N   0  0  0  0  0  0
  -26.2785  -12.9583   20.3212 N   0  0  0  0  0  0
  -25.9346  -11.6666   20.5684 N   0  0  0  0  0  0
  -22.0393  -12.8177   22.0464 N   0  0  0  0  0  0
  -25.3960  -15.2017   20.4226 N   0  0  0  0  0  0
  -31.5261  -15.5769   20.1202 O   0  0  0  0  0  0
  -21.6650   -6.8887   21.4247 O   0  0  0  0  0  0
  -22.3420  -14.5470   20.6730 O   0  0  0  0  0  0
  -24.6823  -31.8031   23.1526 C   0  0  0  0  0  0
  -25.9423  -32.4473   23.8061 C   0  0  1  0  0  0
  -27.2281  -26.7221   20.2013 C   0  0  0  0  0  0
  -25.6024  -33.8295   24.1954 N   0  0  0  0  0  0
  -23.5066  -30.4057   21.5066 C   0  0  2  0  0  0
  -24.9638  -28.7522   20.1125 C   0  0  0  0  0  0
  -22.7765  -29.4335   22.4721 C   0  0  0  0  0  0
  -18.0342  -28.1434   22.8461 C   0  0  0  0  0  0
  -24.1488  -36.7146   23.2650 C   0  0  0  0  0  0
  -26.0868  -30.5420   21.4135 C   0  0  0  0  0  0
  -26.1527  -29.1087   20.7595 C   0  0  0  0  0  0
  -27.2691  -28.1206   20.7744 C   0  0  0  0  0  0
  -26.0078  -26.5738   19.4952 C   0  0  0  0  0  0
  -24.9292  -27.5092   19.4576 C   0  0  0  0  0  0
  -23.7584  -29.7050   20.1398 C   0  0  0  0  0  0
  -25.4139  -36.2900   24.0283 C   0  0  1  0  0  0
  -20.5980  -28.3783   23.1158 C   0  0  2  0  0  0
  -20.6804  -26.9445   22.5417 C   0  0  0  0  0  0
  -19.5785  -26.6380   21.5228 C   0  0  0  0  0  0
  -18.1965  -26.7965   22.1621 C   0  0  0  0  0  0
  -19.1609  -28.8931   23.2790 C   0  0  0  0  0  0
  -18.9513  -30.1518   23.8822 C   0  0  0  0  0  0
  -17.6499  -30.6609   24.0554 C   0  0  0  0  0  0
  -25.9121  -34.9294   23.4948 C   0  0  0  0  0  0
  -16.5386  -29.9088   23.6358 C   0  0  0  0  0  0
  -16.7325  -28.6524   23.0362 C   0  0  0  0  0  0
  -26.4608  -31.6496   25.0667 C   0  0  0  0  0  0
  -25.3690  -31.3850   26.1304 C   0  0  0  0  0  0
  -27.0494  -30.2813   24.6557 C   0  0  0  0  0  0
  -27.6068  -32.4341   25.7475 C   0  0  0  0  0  0
  -27.5555  -37.1738   24.8470 C   0  0  0  0  0  0
  -21.4414  -29.3022   22.3471 N   0  0  0  0  0  0
  -26.4258  -37.3658   23.9412 N   0  0  0  0  0  0
  -24.7818  -30.9501   22.0766 N   0  0  0  0  0  0
  -23.4225  -28.7934   23.3057 O   0  0  0  0  0  0
  -28.1805  -25.4996   20.2938 O   0  0  0  0  0  0
  -26.5741  -34.8874   22.4549 O   0  0  0  0  0  0
  -23.5858  -32.1087   23.6517 O   0  0  0  0  0  0
  -29.6578  -21.2535   19.5778 C   0  0  0  0  0  0
  -27.9828  -20.9511   20.9913 C   0  0  0  0  0  0
  -28.6059  -22.0792   20.2560 C   0  0  0  0  0  0
  -29.9927  -19.7466   19.6285 C   0  0  0  0  0  0
  -28.2846  -19.4567   21.0565 C   0  0  0  0  0  0
  -29.3305  -18.6310   20.3797 C   0  0  0  0  0  0
  -31.1440  -19.3249   18.7354 C   0  0  0  0  0  0
  -27.3306  -18.6964   21.9609 C   0  0  0  0  0  0
  -27.9102  -23.7977   20.0057 C   0  0  0  0  0  0
  -29.4687  -16.9103   20.4446 N   0  0  0  0  0  0
  -31.4295  -13.3139   19.1873 H   0  0  0  0  0  0
  -30.5898  -12.2004   20.2128 H   0  0  0  0  0  0
  -30.0074  -11.8129   17.7917 H   0  0  0  0  0  0
  -29.5214  -13.4819   17.6248 H   0  0  0  0  0  0
  -28.1517  -11.2975   19.2060 H   0  0  0  0  0  0
  -27.4598  -12.2394   17.9066 H   0  0  0  0  0  0
  -27.4703  -14.2265   19.2514 H   0  0  0  0  0  0
  -28.8649  -12.7298   21.5242 H   0  0  0  0  0  0
  -28.1864  -14.3326   21.6411 H   0  0  0  0  0  0
  -25.2778   -9.5690   22.4739 H   0  0  0  0  0  0
  -24.0012   -7.4642   22.7467 H   0  0  0  0  0  0
  -21.0843   -8.8777   19.8958 H   0  0  0  0  0  0
  -22.3708  -10.9664   19.6155 H   0  0  0  0  0  0
  -21.2020   -7.6150   23.9716 H   0  0  0  0  0  0
  -21.1478   -6.0517   25.9075 H   0  0  0  0  0  0
  -22.0598   -2.7602   23.2842 H   0  0  0  0  0  0
  -22.4019  -11.9865   22.4897 H   0  0  0  0  0  0
  -21.0998  -13.1180   22.2638 H   0  0  0  0  0  0
  -24.6186  -15.8460   20.5247 H   0  0  0  0  0  0
  -26.2242  -15.6380   20.0388 H   0  0  0  0  0  0
  -26.7504  -32.4949   23.0782 H   0  0  0  0  0  0
  -25.0125  -33.9319   25.0080 H   0  0  0  0  0  0
  -22.8311  -31.2430   21.3200 H   0  0  0  0  0  0
  -23.3757  -35.9467   23.3303 H   0  0  0  0  0  0
  -24.3563  -36.8808   22.2067 H   0  0  0  0  0  0
  -23.7246  -37.6329   23.6718 H   0  0  0  0  0  0
  -26.2870  -31.2721   20.6278 H   0  0  0  0  0  0
  -26.9391  -30.6079   22.0773 H   0  0  0  0  0  0
  -28.1605  -28.3990   21.3179 H   0  0  0  0  0  0
  -25.8419  -25.6318   18.9929 H   0  0  0  0  0  0
  -24.0317  -27.2276   18.9239 H   0  0  0  0  0  0
  -23.9310  -30.4675   19.3794 H   0  0  0  0  0  0
  -22.8631  -29.1723   19.8153 H   0  0  0  0  0  0
  -25.1355  -36.1655   25.0769 H   0  0  0  0  0  0
  -21.0054  -28.3404   24.1289 H   0  0  0  0  0  0
  -20.5665  -26.2406   23.3683 H   0  0  0  0  0  0
  -21.6668  -26.7389   22.1242 H   0  0  0  0  0  0
  -19.6932  -25.6272   21.1306 H   0  0  0  0  0  0
  -19.6728  -27.3154   20.6737 H   0  0  0  0  0  0
  -17.4238  -26.6722   21.4016 H   0  0  0  0  0  0
  -18.0332  -26.0128   22.9035 H   0  0  0  0  0  0
  -19.7981  -30.7371   24.2140 H   0  0  0  0  0  0
  -17.5047  -31.6277   24.5181 H   0  0  0  0  0  0
  -15.5387  -30.2964   23.7732 H   0  0  0  0  0  0
  -15.8731  -28.0831   22.7091 H   0  0  0  0  0  0
  -24.5880  -30.7175   25.7657 H   0  0  0  0  0  0
  -24.8869  -32.3086   26.4518 H   0  0  0  0  0  0
  -25.7883  -30.9182   27.0224 H   0  0  0  0  0  0
  -26.3190  -29.6459   24.1524 H   0  0  0  0  0  0
  -27.3889  -29.7232   25.5299 H   0  0  0  0  0  0
  -27.9214  -30.3920   24.0099 H   0  0  0  0  0  0
  -27.2618  -33.3717   26.1857 H   0  0  0  0  0  0
  -28.3980  -32.6778   25.0366 H   0  0  0  0  0  0
  -28.0622  -31.8586   26.5551 H   0  0  0  0  0  0
  -28.2579  -38.0023   24.7473 H   0  0  0  0  0  0
  -28.1037  -36.2548   24.6340 H   0  0  0  0  0  0
  -27.2283  -37.1453   25.8877 H   0  0  0  0  0  0
  -20.9708  -29.8672   21.6537 H   0  0  0  0  0  0
  -26.0092  -38.2706   24.1397 H   0  0  0  0  0  0
  -30.2661  -21.8223   18.8880 H   0  0  0  0  0  0
  -27.1138  -21.2563   21.5592 H   0  0  0  0  0  0
  -32.0358  -19.9093   18.9595 H   0  0  0  0  0  0
  -30.8907  -19.4800   17.6868 H   0  0  0  0  0  0
  -31.3952  -18.2719   18.8693 H   0  0  0  0  0  0
  -27.3554  -19.1192   22.9652 H   0  0  0  0  0  0
  -27.5718  -17.6391   22.0484 H   0  0  0  0  0  0
  -26.3101  -18.7756   21.5859 H   0  0  0  0  0  0
  -26.9110  -23.6772   20.4226 H   0  0  0  0  0  0
  -27.7362  -23.7948   18.9291 H   0  0  0  0  0  0
  -28.5568  -16.5585   20.6949 H   0  0  0  0  0  0
  1 25  1  0  0  0
  1 30  2  0  0  0
  1 80  1  0  0  0
  2  3  1  0  0  0
  2 25  1  0  0  0
  2 81  1  0  0  0
  2 82  1  0  0  0
  3  4  1  0  0  0
  3 83  1  0  0  0
  3 84  1  0  0  0
  4  5  1  0  0  0
  4 85  1  0  0  0
  4 86  1  0  0  0
  5  6  1  0  0  0
  5 26  1  0  0  0
  5 87  1  0  0  0
  6 25  1  0  0  0
  6 88  1  0  0  0
  6 89  1  0  0  0
  7  8  2  0  0  0
  7 26  1  0  0  0
  7 29  1  0  0  0
  8  9  1  0  0  0
  8 22  1  0  0  0
  9 10  1  0  0  0
  9 27  2  0  0  0
 10 11  2  0  0  0
 10 15  1  0  0  0
 11 12  1  0  0  0
 11 90  1  0  0  0
 12 13  2  0  0  0
 12 91  1  0  0  0
 13 14  1  0  0  0
 13 31  1  0  0  0
 14 15  2  0  0  0
 14 92  1  0  0  0
 15 93  1  0  0  0
 16 17  2  0  0  0
 16 21  1  0  0  0
 16 31  1  0  0  0
 17 18  1  0  0  0
 17 94  1  0  0  0
 18 19  2  0  0  0
 18 95  1  0  0  0
 19 20  1  0  0  0
 19 24  1  0  0  0
 20 21  2  0  0  0
 20 96  1  0  0  0
 21 23  1  0  0  0
 22 28  1  0  0  0
 22 32  2  0  0  0
 26 27  1  0  0  0
 28 97  1  0  0  0
 28 98  1  0  0  0
 29 99  1  0  0  0
 29100  1  0  0  0
 33 34  1  0  0  0
 33 66  1  0  0  0
 33 70  2  0  0  0
 34 36  1  0  0  0
 34 59  1  0  0  0
 34101  1  0  0  0
 35 44  2  0  0  0
 35 45  1  0  0  0
 35 68  1  0  0  0
 36 56  1  0  0  0
 36102  1  0  0  0
 37 39  1  0  0  0
 37 47  1  0  0  0
 37 66  1  0  0  0
 37103  1  0  0  0
 38 43  2  0  0  0
 38 46  1  0  0  0
 38 47  1  0  0  0
 39 64  1  0  0  0
 39 67  2  0  0  0
 40 52  1  0  0  0
 40 53  2  0  0  0
 40 58  1  0  0  0
 41104  1  0  0  0
 41105  1  0  0  0
 41106  1  0  0  0
 41 48  1  0  0  0
 42 43  1  0  0  0
 42 66  1  0  0  0
 42107  1  0  0  0
 42108  1  0  0  0
 43 44  1  0  0  0
 44109  1  0  0  0
 45 46  2  0  0  0
 45110  1  0  0  0
 46111  1  0  0  0
 47112  1  0  0  0
 47113  1  0  0  0
 48 56  1  0  0  0
 48 65  1  0  0  0
 48114  1  0  0  0
 49 50  1  0  0  0
 49 53  1  0  0  0
 49 64  1  0  0  0
 49115  1  0  0  0
 50 51  1  0  0  0
 50116  1  0  0  0
 50117  1  0  0  0
 51 52  1  0  0  0
 51118  1  0  0  0
 51119  1  0  0  0
 52120  1  0  0  0
 52121  1  0  0  0
 53 54  1  0  0  0
 54 55  2  0  0  0
 54122  1  0  0  0
 55 57  1  0  0  0
 55123  1  0  0  0
 56 69  2  0  0  0
 57 58  2  0  0  0
 57124  1  0  0  0
 58125  1  0  0  0
 59 60  1  0  0  0
 59 61  1  0  0  0
 59 62  1  0  0  0
 60126  1  0  0  0
 60127  1  0  0  0
 60128  1  0  0  0
 61129  1  0  0  0
 61130  1  0  0  0
 61131  1  0  0  0
 62132  1  0  0  0
 62133  1  0  0  0
 62134  1  0  0  0
 63 65  1  0  0  0
 63135  1  0  0  0
 63136  1  0  0  0
 63137  1  0  0  0
 64138  1  0  0  0
 65139  1  0  0  0
 68 79  1  0  0  0
 71 73  2  0  0  0
 71 74  1  0  0  0
 71140  1  0  0  0
 72 73  1  0  0  0
 72 75  2  0  0  0
 72141  1  0  0  0
 73 79  1  0  0  0
 74 76  2  0  0  0
 74 77  1  0  0  0
 75 76  1  0  0  0
 75 78  1  0  0  0
 76 80  1  0  0  0
 77142  1  0  0  0
 77143  1  0  0  0
 77144  1  0  0  0
 78145  1  0  0  0
 78146  1  0  0  0
 78147  1  0  0  0
 79148  1  0  0  0
 79149  1  0  0  0
 80150  1  0  0  0
M  ISO  4   1 100  68 101  79 101  80 100
M  END
> <chiral flag>
0

> <version>
0

> <s_m_source_file>
/data/baiqing/PycharmProjects/Reinvent-master-3.2/result/LINK_invent/BTK/process_docking_weight1_custom_sum_contain_oxygen_bond_distance_aromatic_linkinvent_7_9_3/rearranged_h_0016.sdf

> <i_m_source_file_index>
77

> <r_mmod_Potential_Energy-OPLS-2005>
2228.138671875

> <r_mmod_Stretch_Energy-OPLS-2005>
917.705139160156

> <r_mmod_Bend_Energy-OPLS-2005>
670.249450683594

> <r_mmod_Torsional_Energy-OPLS-2005>
233.790985107422

> <r_mmod_Improper_Torsional_Energy-OPLS-2005>
7.19244623184204

> <r_mmod_Van_der_Waal_Energy-OPLS-2005>
129.548431396484

> <r_mmod_Electrostatic_Energy-OPLS-2005>
-383.336364746094

> <r_mmod_Solvation_Energy-OPLS-2005>
-209.716339111328

> <b_mmod_Minimization_Converged-OPLS-2005>
0

> <r_mmod_RMS_Derivative-OPLS-2005>
2.11817598342896

$$$$
77
                    3D
 Structure written by MMmdl.
162170  0  0  1  0            999 V2000
  -30.7052  -14.4312   20.6184 C   0  0  0  0  0  0
  -30.4272  -12.2974   19.4046 C   0  0  0  0  0  0
  -29.4924  -12.5195   18.1971 C   0  0  0  0  0  0
  -28.0126  -12.3813   18.6089 C   0  0  0  0  0  0
  -27.6666  -13.2006   19.8810 C   0  0  2  0  0  0
  -28.7062  -12.9339   20.9920 C   0  0  0  0  0  0
  -25.2577  -13.8126   20.5608 C   0  0  0  0  0  0
  -24.1830  -13.0419   20.9137 C   0  0  0  0  0  0
  -24.6388  -11.6890   20.8726 C   0  0  0  0  0  0
  -23.9058  -10.4284   21.0405 C   0  0  0  0  0  0
  -24.3612   -9.4204   21.9185 C   0  0  0  0  0  0
  -23.6290   -8.2243   22.0757 C   0  0  0  0  0  0
  -22.4273   -8.0277   21.3545 C   0  0  0  0  0  0
  -21.9904   -9.0248   20.4648 C   0  0  0  0  0  0
  -22.7232  -10.2129   20.3053 C   0  0  0  0  0  0
  -21.6849   -6.0737   22.5279 C   0  0  0  0  0  0
  -21.4012   -6.5644   23.8213 C   0  0  0  0  0  0
  -21.3660   -5.6798   24.9175 C   0  0  0  0  0  0
  -21.6040   -4.3058   24.7225 C   0  0  0  0  0  0
  -21.8818   -3.8148   23.4349 C   0  0  0  0  0  0
  -21.9194   -4.6966   22.3404 C   0  0  0  0  0  0
  -22.7861  -13.5234   21.1819 C   0  0  0  0  0  0
  -22.1662   -4.2154   21.0980 F   0  0  0  0  0  0
  -21.5630   -3.4536   25.7740 F   0  0  0  0  0  0
  -30.0442  -13.2523   20.4546 N   0  0  0  0  0  0
  -26.3045  -12.9301   20.3384 N   0  0  0  0  0  0
  -25.9317  -11.6468   20.5771 N   0  0  0  0  0  0
  -22.0509  -12.8229   22.0388 N   0  0  0  0  0  0
  -25.4244  -15.1826   20.3921 N   0  0  0  0  0  0
  -31.7892  -14.6702   20.0773 O   0  0  0  0  0  0
  -21.6635   -6.8878   21.4243 O   0  0  0  0  0  0
  -22.3541  -14.5543   20.6682 O   0  0  0  0  0  0
  -24.6123  -31.8693   23.2100 C   0  0  0  0  0  0
  -25.9020  -32.4838   23.8389 C   0  0  1  0  0  0
  -27.2387  -27.4538   20.0926 C   0  0  0  0  0  0
  -25.5878  -33.8631   24.2333 N   0  0  0  0  0  0
  -23.4007  -30.4904   21.5500 C   0  0  2  0  0  0
  -24.8493  -28.9533   20.1196 C   0  0  0  0  0  0
  -22.7403  -29.4657   22.5000 C   0  0  0  0  0  0
  -18.0270  -28.1363   22.8499 C   0  0  0  0  0  0
  -24.1490  -36.7306   23.2639 C   0  0  0  0  0  0
  -25.9274  -30.8392   21.3603 C   0  0  0  0  0  0
  -26.0069  -29.4724   20.7134 C   0  0  0  0  0  0
  -27.2078  -28.7280   20.6990 C   0  0  0  0  0  0
  -26.0676  -26.9389   19.5011 C   0  0  0  0  0  0
  -24.8717  -27.6830   19.5142 C   0  0  0  0  0  0
  -23.6096  -29.8178   20.1667 C   0  0  0  0  0  0
  -25.4112  -36.3118   24.0347 C   0  0  1  0  0  0
  -20.5859  -28.3644   23.1329 C   0  0  2  0  0  0
  -20.6770  -26.9377   22.5424 C   0  0  0  0  0  0
  -19.5752  -26.6374   21.5211 C   0  0  0  0  0  0
  -18.1922  -26.7914   22.1615 C   0  0  0  0  0  0
  -19.1521  -28.8818   23.2916 C   0  0  0  0  0  0
  -18.9451  -30.1429   23.8913 C   0  0  0  0  0  0
  -17.6457  -30.6577   24.0562 C   0  0  0  0  0  0
  -25.9023  -34.9485   23.5136 C   0  0  0  0  0  0
  -16.5345  -29.9087   23.6324 C   0  0  0  0  0  0
  -16.7259  -28.6498   23.0351 C   0  0  0  0  0  0
  -26.4451  -31.6612   25.0709 C   0  0  0  0  0  0
  -25.3730  -31.3712   26.1466 C   0  0  0  0  0  0
  -27.0271  -30.3068   24.6046 C   0  0  0  0  0  0
  -27.6035  -32.4318   25.7468 C   0  0  0  0  0  0
  -27.5589  -37.1807   24.8470 C   0  0  0  0  0  0
  -21.4132  -29.3021   22.3745 N   0  0  0  0  0  0
  -26.4301  -37.3805   23.9419 N   0  0  0  0  0  0
  -24.6652  -31.0802   22.0990 N   0  0  0  0  0  0
  -23.4188  -28.8192   23.3027 O   0  0  0  0  0  0
  -28.3999  -26.7232   20.0402 O   0  0  0  0  0  0
  -26.5593  -34.8935   22.4701 O   0  0  0  0  0  0
  -23.5325  -32.1416   23.7508 O   0  0  0  0  0  0
  -31.2540  -17.4993   21.0277 C   0  0  0  0  0  0
  -31.2798  -18.9051   21.1784 C   0  0  0  0  0  0
  -30.1772  -19.5896   21.7628 C   0  0  0  0  0  0
  -29.0335  -18.8339   22.1506 C   0  0  0  0  0  0
  -30.1398  -16.7438   21.4549 C   0  0  0  0  0  0
  -29.0354  -17.4219   22.0148 C   0  0  0  0  0  0
  -32.5329  -19.6442   20.7319 C   0  0  0  0  0  0
  -27.7978  -19.5001   22.7542 C   0  0  0  0  0  0
  -30.2585  -21.0976   22.0675 C   0  0  0  0  0  0
  -28.9298  -24.3539   20.4538 C   0  0  0  0  0  0
  -29.3269  -23.3338   21.5482 C   0  0  0  0  0  0
  -28.5232  -25.7206   21.0513 C   0  0  0  0  0  0
  -30.0512  -15.3205   21.3831 N   0  0  0  0  0  0
  -29.6393  -21.9711   21.0407 N   0  3  0  0  0  0
  -27.6807  -16.4906   22.5673 Cl  0  0  0  0  0  0
  -31.4703  -12.4065   19.1022 H   0  0  0  0  0  0
  -30.3335  -11.2761   19.7773 H   0  0  0  0  0  0
  -29.7268  -11.8080   17.4043 H   0  0  0  0  0  0
  -29.6638  -13.5119   17.7763 H   0  0  0  0  0  0
  -27.8150  -11.3236   18.7853 H   0  0  0  0  0  0
  -27.3632  -12.6766   17.7840 H   0  0  0  0  0  0
  -27.7237  -14.2561   19.6132 H   0  0  0  0  0  0
  -28.6771  -11.8826   21.2832 H   0  0  0  0  0  0
  -28.4555  -13.4816   21.9006 H   0  0  0  0  0  0
  -25.2758   -9.5683   22.4755 H   0  0  0  0  0  0
  -23.9998   -7.4634   22.7470 H   0  0  0  0  0  0
  -21.0839   -8.8764   19.8949 H   0  0  0  0  0  0
  -22.3690  -10.9667   19.6159 H   0  0  0  0  0  0
  -21.1998   -7.6151   23.9720 H   0  0  0  0  0  0
  -21.1482   -6.0524   25.9080 H   0  0  0  0  0  0
  -22.0596   -2.7611   23.2842 H   0  0  0  0  0  0
  -22.4129  -11.9893   22.4775 H   0  0  0  0  0  0
  -21.1127  -13.1254   22.2592 H   0  0  0  0  0  0
  -24.6684  -15.8409   20.5397 H   0  0  0  0  0  0
  -26.3019  -15.6309   20.1641 H   0  0  0  0  0  0
  -26.7087  -32.5549   23.1149 H   0  0  0  0  0  0
  -25.0055  -33.9799   25.0496 H   0  0  0  0  0  0
  -22.6895  -31.3066   21.4093 H   0  0  0  0  0  0
  -23.3759  -35.9629   23.3307 H   0  0  0  0  0  0
  -24.3581  -36.8905   22.2051 H   0  0  0  0  0  0
  -23.7235  -37.6515   23.6635 H   0  0  0  0  0  0
  -26.0360  -31.6027   20.5890 H   0  0  0  0  0  0
  -26.8175  -30.8966   21.9742 H   0  0  0  0  0  0
  -28.1074  -29.1268   21.1468 H   0  0  0  0  0  0
  -26.0864  -25.9675   19.0269 H   0  0  0  0  0  0
  -23.9792  -27.2789   19.0564 H   0  0  0  0  0  0
  -23.7154  -30.5906   19.4042 H   0  0  0  0  0  0
  -22.7354  -29.2340   19.8726 H   0  0  0  0  0  0
  -25.1290  -36.1979   25.0842 H   0  0  0  0  0  0
  -20.9944  -28.3185   24.1454 H   0  0  0  0  0  0
  -20.5669  -26.2233   23.3601 H   0  0  0  0  0  0
  -21.6642  -26.7429   22.1209 H   0  0  0  0  0  0
  -19.6920  -25.6291   21.1223 H   0  0  0  0  0  0
  -19.6704  -27.3206   20.6759 H   0  0  0  0  0  0
  -17.4205  -26.6662   21.4010 H   0  0  0  0  0  0
  -18.0318  -26.0053   22.9001 H   0  0  0  0  0  0
  -19.7933  -30.7243   24.2279 H   0  0  0  0  0  0
  -17.5020  -31.6263   24.5158 H   0  0  0  0  0  0
  -15.5350  -30.3004   23.7645 H   0  0  0  0  0  0
  -15.8650  -28.0831   22.7058 H   0  0  0  0  0  0
  -24.5894  -30.7062   25.7809 H   0  0  0  0  0  0
  -24.8917  -32.2868   26.4918 H   0  0  0  0  0  0
  -25.8086  -30.8883   27.0220 H   0  0  0  0  0  0
  -26.2798  -29.6847   24.1103 H   0  0  0  0  0  0
  -27.4083  -29.7278   25.4463 H   0  0  0  0  0  0
  -27.8611  -30.4415   23.9155 H   0  0  0  0  0  0
  -27.2660  -33.3609   26.2072 H   0  0  0  0  0  0
  -28.3829  -32.6888   25.0283 H   0  0  0  0  0  0
  -28.0713  -31.8423   26.5362 H   0  0  0  0  0  0
  -28.2609  -38.0104   24.7529 H   0  0  0  0  0  0
  -28.1083  -36.2638   24.6276 H   0  0  0  0  0  0
  -27.2305  -37.1438   25.8872 H   0  0  0  0  0  0
  -20.9273  -29.8734   21.6968 H   0  0  0  0  0  0
  -26.0188  -38.2884   24.1424 H   0  0  0  0  0  0
  -32.1189  -17.0092   20.6069 H   0  0  0  0  0  0
  -33.1826  -19.0053   20.1321 H   0  0  0  0  0  0
  -33.1107  -19.9777   21.5945 H   0  0  0  0  0  0
  -32.2847  -20.5119   20.1212 H   0  0  0  0  0  0
  -27.7819  -19.3560   23.8347 H   0  0  0  0  0  0
  -26.8867  -19.0658   22.3421 H   0  0  0  0  0  0
  -27.7265  -20.5665   22.5545 H   0  0  0  0  0  0
  -31.2922  -21.4084   22.2162 H   0  0  0  0  0  0
  -29.7918  -21.2754   23.0372 H   0  0  0  0  0  0
  -28.1050  -23.9660   19.8550 H   0  0  0  0  0  0
  -29.7682  -24.4949   19.7707 H   0  0  0  0  0  0
  -28.5210  -23.2567   22.2809 H   0  0  0  0  0  0
  -30.1951  -23.7207   22.0852 H   0  0  0  0  0  0
  -29.2858  -26.0613   21.7527 H   0  0  0  0  0  0
  -27.6041  -25.6085   21.6314 H   0  0  0  0  0  0
  -29.2116  -14.9476   21.8016 H   0  0  0  0  0  0
  -28.7934  -21.5370   20.7109 H   0  0  0  0  0  0
  -30.2713  -22.0375   20.2601 H   0  0  0  0  0  0
  1 25  1  0  0  0
  1 30  2  0  0  0
  1 83  1  0  0  0
  2  3  1  0  0  0
  2 25  1  0  0  0
  2 86  1  0  0  0
  2 87  1  0  0  0
  3  4  1  0  0  0
  3 88  1  0  0  0
  3 89  1  0  0  0
  4  5  1  0  0  0
  4 90  1  0  0  0
  4 91  1  0  0  0
  5  6  1  0  0  0
  5 26  1  0  0  0
  5 92  1  0  0  0
  6 25  1  0  0  0
  6 93  1  0  0  0
  6 94  1  0  0  0
  7  8  2  0  0  0
  7 26  1  0  0  0
  7 29  1  0  0  0
  8  9  1  0  0  0
  8 22  1  0  0  0
  9 10  1  0  0  0
  9 27  2  0  0  0
 10 11  2  0  0  0
 10 15  1  0  0  0
 11 12  1  0  0  0
 11 95  1  0  0  0
 12 13  2  0  0  0
 12 96  1  0  0  0
 13 14  1  0  0  0
 13 31  1  0  0  0
 14 15  2  0  0  0
 14 97  1  0  0  0
 15 98  1  0  0  0
 16 17  2  0  0  0
 16 21  1  0  0  0
 16 31  1  0  0  0
 17 18  1  0  0  0
 17 99  1  0  0  0
 18 19  2  0  0  0
 18100  1  0  0  0
 19 20  1  0  0  0
 19 24  1  0  0  0
 20 21  2  0  0  0
 20101  1  0  0  0
 21 23  1  0  0  0
 22 28  1  0  0  0
 22 32  2  0  0  0
 26 27  1  0  0  0
 28102  1  0  0  0
 28103  1  0  0  0
 29104  1  0  0  0
 29105  1  0  0  0
 33 34  1  0  0  0
 33 66  1  0  0  0
 33 70  2  0  0  0
 34 36  1  0  0  0
 34 59  1  0  0  0
 34106  1  0  0  0
 35 44  2  0  0  0
 35 45  1  0  0  0
 35 68  1  0  0  0
 36 56  1  0  0  0
 36107  1  0  0  0
 37 39  1  0  0  0
 37 47  1  0  0  0
 37 66  1  0  0  0
 37108  1  0  0  0
 38 43  2  0  0  0
 38 46  1  0  0  0
 38 47  1  0  0  0
 39 64  1  0  0  0
 39 67  2  0  0  0
 40 52  1  0  0  0
 40 53  2  0  0  0
 40 58  1  0  0  0
 41109  1  0  0  0
 41110  1  0  0  0
 41111  1  0  0  0
 41 48  1  0  0  0
 42 43  1  0  0  0
 42 66  1  0  0  0
 42112  1  0  0  0
 42113  1  0  0  0
 43 44  1  0  0  0
 44114  1  0  0  0
 45 46  2  0  0  0
 45115  1  0  0  0
 46116  1  0  0  0
 47117  1  0  0  0
 47118  1  0  0  0
 48 56  1  0  0  0
 48 65  1  0  0  0
 48119  1  0  0  0
 49 50  1  0  0  0
 49 53  1  0  0  0
 49 64  1  0  0  0
 49120  1  0  0  0
 50 51  1  0  0  0
 50121  1  0  0  0
 50122  1  0  0  0
 51 52  1  0  0  0
 51123  1  0  0  0
 51124  1  0  0  0
 52125  1  0  0  0
 52126  1  0  0  0
 53 54  1  0  0  0
 54 55  2  0  0  0
 54127  1  0  0  0
 55 57  1  0  0  0
 55128  1  0  0  0
 56 69  2  0  0  0
 57 58  2  0  0  0
 57129  1  0  0  0
 58130  1  0  0  0
 59 60  1  0  0  0
 59 61  1  0  0  0
 59 62  1  0  0  0
 60131  1  0  0  0
 60132  1  0  0  0
 60133  1  0  0  0
 61134  1  0  0  0
 61135  1  0  0  0
 61136  1  0  0  0
 62137  1  0  0  0
 62138  1  0  0  0
 62139  1  0  0  0
 63 65  1  0  0  0
 63140  1  0  0  0
 63141  1  0  0  0
 63142  1  0  0  0
 64143  1  0  0  0
 65144  1  0  0  0
 68 82  1  0  0  0
 71 72  2  0  0  0
 71 75  1  0  0  0
 71145  1  0  0  0
 72 73  1  0  0  0
 72 77  1  0  0  0
 73 74  2  0  0  0
 73 79  1  0  0  0
 74 76  1  0  0  0
 74 78  1  0  0  0
 75 76  2  0  0  0
 75 83  1  0  0  0
 76 85  1  0  0  0
 77146  1  0  0  0
 77147  1  0  0  0
 77148  1  0  0  0
 78149  1  0  0  0
 78150  1  0  0  0
 78151  1  0  0  0
 79 84  1  0  0  0
 79152  1  0  0  0
 79153  1  0  0  0
 80 81  1  0  0  0
 80 82  1  0  0  0
 80154  1  0  0  0
 80155  1  0  0  0
 81 84  1  0  0  0
 81156  1  0  0  0
 81157  1  0  0  0
 82158  1  0  0  0
 82159  1  0  0  0
 83160  1  0  0  0
 84161  1  0  0  0
 84162  1  0  0  0
M  CHG  1  84   1
M  ISO  4   1 100  68 101  82 101  83 100
M  END
> <chiral flag>
0

> <version>
0

> <s_m_source_file>
/data/baiqing/PycharmProjects/Reinvent-master-3.2/result/LINK_invent/BTK/process_docking_weight1_custom_sum_contain_oxygen_bond_distance_aromatic_linkinvent_7_9_3/rearranged_h_0016.sdf

> <i_m_source_file_index>
78

> <r_mmod_Potential_Energy-OPLS-2005>
-258.957824707031

> <r_mmod_Stretch_Energy-OPLS-2005>
38.0028877258301

> <r_mmod_Bend_Energy-OPLS-2005>
99.1033477783203

> <r_mmod_Torsional_Energy-OPLS-2005>
226.996368408203

> <r_mmod_Improper_Torsional_Energy-OPLS-2005>
3.05688047409058

> <r_mmod_Van_der_Waal_Energy-OPLS-2005>
156.328247070312

> <r_mmod_Electrostatic_Energy-OPLS-2005>
-322.85498046875

> <r_mmod_Solvation_Energy-OPLS-2005>
-467.685699462891

> <b_mmod_Minimization_Converged-OPLS-2005>
0

> <r_mmod_RMS_Derivative-OPLS-2005>
1.34731030464172

$$$$
78
                    3D
 Structure written by MMmdl.
161169  0  0  1  0            999 V2000
  -30.6397  -14.7361   20.5051 C   0  0  0  0  0  0
  -30.4266  -12.4650   19.4640 C   0  0  0  0  0  0
  -29.5024  -12.5096   18.2296 C   0  0  0  0  0  0
  -28.0314  -12.3305   18.6495 C   0  0  0  0  0  0
  -27.6384  -13.2334   19.8492 C   0  0  2  0  0  0
  -28.6851  -13.1756   20.9815 C   0  0  0  0  0  0
  -25.2487  -13.8204   20.5701 C   0  0  0  0  0  0
  -24.1786  -13.0441   20.9220 C   0  0  0  0  0  0
  -24.6383  -11.6921   20.8757 C   0  0  0  0  0  0
  -23.9066  -10.4292   21.0410 C   0  0  0  0  0  0
  -24.3617   -9.4205   21.9186 C   0  0  0  0  0  0
  -23.6295   -8.2239   22.0756 C   0  0  0  0  0  0
  -22.4277   -8.0277   21.3546 C   0  0  0  0  0  0
  -21.9910   -9.0250   20.4651 C   0  0  0  0  0  0
  -22.7238  -10.2130   20.3061 C   0  0  0  0  0  0
  -21.6854   -6.0733   22.5281 C   0  0  0  0  0  0
  -21.4013   -6.5640   23.8213 C   0  0  0  0  0  0
  -21.3662   -5.6795   24.9178 C   0  0  0  0  0  0
  -21.6045   -4.3057   24.7231 C   0  0  0  0  0  0
  -21.8819   -3.8146   23.4352 C   0  0  0  0  0  0
  -21.9193   -4.6960   22.3406 C   0  0  0  0  0  0
  -22.7807  -13.5217   21.1875 C   0  0  0  0  0  0
  -22.1661   -4.2146   21.0984 F   0  0  0  0  0  0
  -21.5631   -3.4544   25.7745 F   0  0  0  0  0  0
  -29.9793  -13.5322   20.3893 N   0  0  0  0  0  0
  -26.2919  -12.9415   20.3295 N   0  0  0  0  0  0
  -25.9315  -11.6551   20.5767 N   0  0  0  0  0  0
  -22.0459  -12.8204   22.0434 N   0  0  0  0  0  0
  -25.4158  -15.1929   20.4105 N   0  0  0  0  0  0
  -31.8232  -14.8078   20.1611 O   0  0  0  0  0  0
  -21.6643   -6.8873   21.4241 O   0  0  0  0  0  0
  -22.3489  -14.5520   20.6723 O   0  0  0  0  0  0
  -24.6328  -31.8545   23.1994 C   0  0  0  0  0  0
  -25.9150  -32.4747   23.8343 C   0  0  1  0  0  0
  -27.2138  -27.2496   20.1254 C   0  0  0  0  0  0
  -25.5940  -33.8552   24.2262 N   0  0  0  0  0  0
  -23.4301  -30.4785   21.5429 C   0  0  2  0  0  0
  -24.8768  -28.9294   20.1082 C   0  0  0  0  0  0
  -22.7510  -29.4595   22.4908 C   0  0  0  0  0  0
  -18.0288  -28.1381   22.8480 C   0  0  0  0  0  0
  -24.1492  -36.7287   23.2640 C   0  0  0  0  0  0
  -25.9783  -30.7637   21.3825 C   0  0  0  0  0  0
  -26.0501  -29.3867   20.7215 C   0  0  0  0  0  0
  -27.2214  -28.5594   20.7202 C   0  0  0  0  0  0
  -26.0185  -26.8736   19.4704 C   0  0  0  0  0  0
  -24.8672  -27.6815   19.4708 C   0  0  0  0  0  0
  -23.6492  -29.8173   20.1578 C   0  0  0  0  0  0
  -25.4119  -36.3068   24.0322 C   0  0  1  0  0  0
  -20.5895  -28.3695   23.1263 C   0  0  2  0  0  0
  -20.6779  -26.9411   22.5404 C   0  0  0  0  0  0
  -19.5754  -26.6377   21.5207 C   0  0  0  0  0  0
  -18.1932  -26.7921   22.1621 C   0  0  0  0  0  0
  -19.1543  -28.8857   23.2862 C   0  0  0  0  0  0
  -18.9465  -30.1456   23.8881 C   0  0  0  0  0  0
  -17.6465  -30.6582   24.0559 C   0  0  0  0  0  0
  -25.9059  -34.9435   23.5097 C   0  0  0  0  0  0
  -16.5354  -29.9079   23.6332 C   0  0  0  0  0  0
  -16.7275  -28.6498   23.0350 C   0  0  0  0  0  0
  -26.4509  -31.6576   25.0739 C   0  0  0  0  0  0
  -25.3723  -31.3722   26.1453 C   0  0  0  0  0  0
  -27.0367  -30.2991   24.6248 C   0  0  0  0  0  0
  -27.6076  -32.4312   25.7500 C   0  0  0  0  0  0
  -27.5576  -37.1797   24.8460 C   0  0  0  0  0  0
  -21.4215  -29.3043   22.3655 N   0  0  0  0  0  0
  -26.4291  -37.3770   23.9402 N   0  0  0  0  0  0
  -24.6997  -31.0499   22.0977 N   0  0  0  0  0  0
  -23.4206  -28.8126   23.3003 O   0  0  0  0  0  0
  -28.2909  -26.3281   20.2008 O   0  0  0  0  0  0
  -26.5630  -34.8906   22.4664 O   0  0  0  0  0  0
  -23.5473  -32.1372   23.7282 O   0  0  0  0  0  0
  -30.0515  -18.5643   21.4609 C   0  0  0  0  0  0
  -30.3886  -17.1041   21.5338 C   0  0  0  0  0  0
  -30.6879  -19.1089   22.5722 C   0  0  0  0  0  0
  -31.2172  -16.9094   22.6170 C   0  0  0  0  0  0
  -29.1912  -19.5544   20.6044 C   0  0  0  0  0  0
  -30.6459  -20.4814   23.2110 C   0  0  0  0  0  0
  -31.7859  -15.6634   23.2497 C   0  0  0  0  0  0
  -32.3989  -18.3737   24.2925 C   0  0  0  0  0  0
  -28.9860  -23.6455   20.4514 C   0  0  0  0  0  0
  -28.5571  -22.1031   20.1363 C   0  0  0  0  0  0
  -28.0107  -24.8584   19.9853 C   0  0  0  0  0  0
  -31.4790  -18.1419   23.1787 N   0  0  0  0  0  0
  -29.9258  -15.8966   20.8021 N   0  0  0  0  0  0
  -29.3891  -20.9318   20.6628 N   0  0  0  0  0  0
  -28.3142  -19.1025   19.8677 O   0  0  0  0  0  0
  -31.4656  -12.5896   19.1549 H   0  0  0  0  0  0
  -30.3764  -11.4910   19.9532 H   0  0  0  0  0  0
  -29.7850  -11.7348   17.5160 H   0  0  0  0  0  0
  -29.6244  -13.4627   17.7131 H   0  0  0  0  0  0
  -27.8921  -11.2822   18.9167 H   0  0  0  0  0  0
  -27.3707  -12.5183   17.8023 H   0  0  0  0  0  0
  -27.6296  -14.2535   19.4652 H   0  0  0  0  0  0
  -28.7265  -12.1801   21.4256 H   0  0  0  0  0  0
  -28.4205  -13.8617   21.7875 H   0  0  0  0  0  0
  -25.2760   -9.5690   22.4764 H   0  0  0  0  0  0
  -24.0012   -7.4632   22.7472 H   0  0  0  0  0  0
  -21.0844   -8.8764   19.8955 H   0  0  0  0  0  0
  -22.3690  -10.9670   19.6173 H   0  0  0  0  0  0
  -21.1999   -7.6147   23.9715 H   0  0  0  0  0  0
  -21.1488   -6.0527   25.9081 H   0  0  0  0  0  0
  -22.0594   -2.7607   23.2857 H   0  0  0  0  0  0
  -22.4089  -11.9874   22.4823 H   0  0  0  0  0  0
  -21.1075  -13.1219   22.2642 H   0  0  0  0  0  0
  -24.6443  -15.8431   20.5178 H   0  0  0  0  0  0
  -26.2589  -15.6366   20.0692 H   0  0  0  0  0  0
  -26.7219  -32.5392   23.1085 H   0  0  0  0  0  0
  -25.0081  -33.9692   25.0402 H   0  0  0  0  0  0
  -22.7271  -31.3013   21.3971 H   0  0  0  0  0  0
  -23.3752  -35.9621   23.3299 H   0  0  0  0  0  0
  -24.3592  -36.8919   22.2057 H   0  0  0  0  0  0
  -23.7245  -37.6486   23.6672 H   0  0  0  0  0  0
  -26.1198  -31.5255   20.6149 H   0  0  0  0  0  0
  -26.8554  -30.8114   22.0161 H   0  0  0  0  0  0
  -28.1169  -28.9005   21.2213 H   0  0  0  0  0  0
  -25.9349  -25.9252   18.9622 H   0  0  0  0  0  0
  -23.9712  -27.3293   18.9778 H   0  0  0  0  0  0
  -23.7753  -30.5956   19.4042 H   0  0  0  0  0  0
  -22.7678  -29.2520   19.8502 H   0  0  0  0  0  0
  -25.1297  -36.1922   25.0815 H   0  0  0  0  0  0
  -20.9977  -28.3274   24.1388 H   0  0  0  0  0  0
  -20.5677  -26.2302   23.3609 H   0  0  0  0  0  0
  -21.6647  -26.7433   22.1196 H   0  0  0  0  0  0
  -19.6919  -25.6286   21.1240 H   0  0  0  0  0  0
  -19.6691  -27.3186   20.6736 H   0  0  0  0  0  0
  -17.4200  -26.6657   21.4024 H   0  0  0  0  0  0
  -18.0340  -26.0060   22.9017 H   0  0  0  0  0  0
  -19.7942  -30.7271   24.2242 H   0  0  0  0  0  0
  -17.5020  -31.6260   24.5164 H   0  0  0  0  0  0
  -15.5356  -30.2978   23.7665 H   0  0  0  0  0  0
  -15.8672  -28.0816   22.7074 H   0  0  0  0  0  0
  -24.5930  -30.7027   25.7786 H   0  0  0  0  0  0
  -24.8867  -32.2879   26.4837 H   0  0  0  0  0  0
  -25.8039  -30.8940   27.0255 H   0  0  0  0  0  0
  -26.2964  -29.6718   24.1268 H   0  0  0  0  0  0
  -27.4034  -29.7274   25.4784 H   0  0  0  0  0  0
  -27.8846  -30.4258   23.9513 H   0  0  0  0  0  0
  -27.2714  -33.3634   26.2052 H   0  0  0  0  0  0
  -28.3899  -32.6833   25.0327 H   0  0  0  0  0  0
  -28.0727  -31.8442   26.5429 H   0  0  0  0  0  0
  -28.2590  -38.0096   24.7518 H   0  0  0  0  0  0
  -28.1073  -36.2630   24.6279 H   0  0  0  0  0  0
  -27.2294  -37.1441   25.8862 H   0  0  0  0  0  0
  -20.9403  -29.8779   21.6872 H   0  0  0  0  0  0
  -26.0167  -38.2841   24.1413 H   0  0  0  0  0  0
  -29.6429  -20.9076   23.1888 H   0  0  0  0  0  0
  -31.3339  -21.1716   22.7223 H   0  0  0  0  0  0
  -30.8988  -20.4617   24.2704 H   0  0  0  0  0  0
  -31.0929  -14.8261   23.1818 H   0  0  0  0  0  0
  -31.9730  -15.7847   24.3158 H   0  0  0  0  0  0
  -32.7231  -15.3746   22.7742 H   0  0  0  0  0  0
  -32.8599  -19.3580   24.2154 H   0  0  0  0  0  0
  -33.2161  -17.6531   24.2801 H   0  0  0  0  0  0
  -31.8643  -18.2977   25.2399 H   0  0  0  0  0  0
  -29.9654  -23.8193   20.0061 H   0  0  0  0  0  0
  -29.1358  -23.7417   21.5273 H   0  0  0  0  0  0
  -28.4756  -21.9821   19.0552 H   0  0  0  0  0  0
  -27.5454  -21.9583   20.5180 H   0  0  0  0  0  0
  -27.0518  -24.6390   20.4573 H   0  0  0  0  0  0
  -27.8496  -24.7309   18.9138 H   0  0  0  0  0  0
  -28.9246  -15.8130   20.7099 H   0  0  0  0  0  0
  -30.1684  -21.1904   21.2508 H   0  0  0  0  0  0
  1 25  1  0  0  0
  1 30  2  0  0  0
  1 83  1  0  0  0
  2  3  1  0  0  0
  2 25  1  0  0  0
  2 86  1  0  0  0
  2 87  1  0  0  0
  3  4  1  0  0  0
  3 88  1  0  0  0
  3 89  1  0  0  0
  4  5  1  0  0  0
  4 90  1  0  0  0
  4 91  1  0  0  0
  5  6  1  0  0  0
  5 26  1  0  0  0
  5 92  1  0  0  0
  6 25  1  0  0  0
  6 93  1  0  0  0
  6 94  1  0  0  0
  7  8  2  0  0  0
  7 26  1  0  0  0
  7 29  1  0  0  0
  8  9  1  0  0  0
  8 22  1  0  0  0
  9 10  1  0  0  0
  9 27  2  0  0  0
 10 11  2  0  0  0
 10 15  1  0  0  0
 11 12  1  0  0  0
 11 95  1  0  0  0
 12 13  2  0  0  0
 12 96  1  0  0  0
 13 14  1  0  0  0
 13 31  1  0  0  0
 14 15  2  0  0  0
 14 97  1  0  0  0
 15 98  1  0  0  0
 16 17  2  0  0  0
 16 21  1  0  0  0
 16 31  1  0  0  0
 17 18  1  0  0  0
 17 99  1  0  0  0
 18 19  2  0  0  0
 18100  1  0  0  0
 19 20  1  0  0  0
 19 24  1  0  0  0
 20 21  2  0  0  0
 20101  1  0  0  0
 21 23  1  0  0  0
 22 28  1  0  0  0
 22 32  2  0  0  0
 26 27  1  0  0  0
 28102  1  0  0  0
 28103  1  0  0  0
 29104  1  0  0  0
 29105  1  0  0  0
 33 34  1  0  0  0
 33 66  1  0  0  0
 33 70  2  0  0  0
 34 36  1  0  0  0
 34 59  1  0  0  0
 34106  1  0  0  0
 35 44  2  0  0  0
 35 45  1  0  0  0
 35 68  1  0  0  0
 36 56  1  0  0  0
 36107  1  0  0  0
 37 39  1  0  0  0
 37 47  1  0  0  0
 37 66  1  0  0  0
 37108  1  0  0  0
 38 43  2  0  0  0
 38 46  1  0  0  0
 38 47  1  0  0  0
 39 64  1  0  0  0
 39 67  2  0  0  0
 40 52  1  0  0  0
 40 53  2  0  0  0
 40 58  1  0  0  0
 41109  1  0  0  0
 41110  1  0  0  0
 41111  1  0  0  0
 41 48  1  0  0  0
 42 43  1  0  0  0
 42 66  1  0  0  0
 42112  1  0  0  0
 42113  1  0  0  0
 43 44  1  0  0  0
 44114  1  0  0  0
 45 46  2  0  0  0
 45115  1  0  0  0
 46116  1  0  0  0
 47117  1  0  0  0
 47118  1  0  0  0
 48 56  1  0  0  0
 48 65  1  0  0  0
 48119  1  0  0  0
 49 50  1  0  0  0
 49 53  1  0  0  0
 49 64  1  0  0  0
 49120  1  0  0  0
 50 51  1  0  0  0
 50121  1  0  0  0
 50122  1  0  0  0
 51 52  1  0  0  0
 51123  1  0  0  0
 51124  1  0  0  0
 52125  1  0  0  0
 52126  1  0  0  0
 53 54  1  0  0  0
 54 55  2  0  0  0
 54127  1  0  0  0
 55 57  1  0  0  0
 55128  1  0  0  0
 56 69  2  0  0  0
 57 58  2  0  0  0
 57129  1  0  0  0
 58130  1  0  0  0
 59 60  1  0  0  0
 59 61  1  0  0  0
 59 62  1  0  0  0
 60131  1  0  0  0
 60132  1  0  0  0
 60133  1  0  0  0
 61134  1  0  0  0
 61135  1  0  0  0
 61136  1  0  0  0
 62137  1  0  0  0
 62138  1  0  0  0
 62139  1  0  0  0
 63 65  1  0  0  0
 63140  1  0  0  0
 63141  1  0  0  0
 63142  1  0  0  0
 64143  1  0  0  0
 65144  1  0  0  0
 68 81  1  0  0  0
 71 72  1  0  0  0
 71 73  2  0  0  0
 71 75  1  0  0  0
 72 74  2  0  0  0
 72 83  1  0  0  0
 73 76  1  0  0  0
 73 82  1  0  0  0
 74 77  1  0  0  0
 74 82  1  0  0  0
 75 84  1  0  0  0
 75 85  2  0  0  0
 76145  1  0  0  0
 76146  1  0  0  0
 76147  1  0  0  0
 77148  1  0  0  0
 77149  1  0  0  0
 77150  1  0  0  0
 78 82  1  0  0  0
 78151  1  0  0  0
 78152  1  0  0  0
 78153  1  0  0  0
 79 80  1  0  0  0
 79 81  1  0  0  0
 79154  1  0  0  0
 79155  1  0  0  0
 80 84  1  0  0  0
 80156  1  0  0  0
 80157  1  0  0  0
 81158  1  0  0  0
 81159  1  0  0  0
 83160  1  0  0  0
 84161  1  0  0  0
M  ISO  4   1 100  68 101  81 101  83 100
M  END
> <chiral flag>
0

> <version>
0

> <s_m_source_file>
/data/baiqing/PycharmProjects/Reinvent-master-3.2/result/LINK_invent/BTK/process_docking_weight1_custom_sum_contain_oxygen_bond_distance_aromatic_linkinvent_7_9_3/rearranged_h_0016.sdf

> <i_m_source_file_index>
79

> <r_mmod_Potential_Energy-OPLS-2005>
211.336654663086

> <r_mmod_Stretch_Energy-OPLS-2005>
141.70866394043

> <r_mmod_Bend_Energy-OPLS-2005>
187.519317626953

> <r_mmod_Torsional_Energy-OPLS-2005>
244.53141784668

> <r_mmod_Improper_Torsional_Energy-OPLS-2005>
6.10058784484863

> <r_mmod_Van_der_Waal_Energy-OPLS-2005>
145.272705078125

> <r_mmod_Electrostatic_Energy-OPLS-2005>
-365.621276855469

> <r_mmod_Solvation_Energy-OPLS-2005>
-237.485061645508

> <b_mmod_Minimization_Converged-OPLS-2005>
0

> <r_mmod_RMS_Derivative-OPLS-2005>
0.843653440475464

$$$$
79
                    3D
 Structure written by MMmdl.
159167  0  0  1  0            999 V2000
  -30.7091  -14.4980   20.4615 C   0  0  0  0  0  0
  -30.4106  -12.2900   19.4482 C   0  0  0  0  0  0
  -29.4933  -12.4571   18.2196 C   0  0  0  0  0  0
  -28.0179  -12.3154   18.6399 C   0  0  0  0  0  0
  -27.6523  -13.2074   19.8575 C   0  0  2  0  0  0
  -28.6968  -13.0662   20.9894 C   0  0  0  0  0  0
  -25.2545  -13.8175   20.5664 C   0  0  0  0  0  0
  -24.1797  -13.0435   20.9177 C   0  0  0  0  0  0
  -24.6369  -11.6918   20.8754 C   0  0  0  0  0  0
  -23.9045  -10.4289   21.0418 C   0  0  0  0  0  0
  -24.3600   -9.4210   21.9200 C   0  0  0  0  0  0
  -23.6282   -8.2244   22.0766 C   0  0  0  0  0  0
  -22.4274   -8.0276   21.3543 C   0  0  0  0  0  0
  -21.9906   -9.0247   20.4640 C   0  0  0  0  0  0
  -22.7226  -10.2131   20.3054 C   0  0  0  0  0  0
  -21.6839   -6.0730   22.5278 C   0  0  0  0  0  0
  -21.4019   -6.5634   23.8215 C   0  0  0  0  0  0
  -21.3670   -5.6786   24.9177 C   0  0  0  0  0  0
  -21.6036   -4.3044   24.7219 C   0  0  0  0  0  0
  -21.8815   -3.8143   23.4334 C   0  0  0  0  0  0
  -21.9191   -4.6961   22.3396 C   0  0  0  0  0  0
  -22.7823  -13.5240   21.1844 C   0  0  0  0  0  0
  -22.1648   -4.2143   21.0971 F   0  0  0  0  0  0
  -21.5637   -3.4532   25.7734 F   0  0  0  0  0  0
  -30.0263  -13.3245   20.4192 N   0  0  0  0  0  0
  -26.2972  -12.9340   20.3323 N   0  0  0  0  0  0
  -25.9296  -11.6499   20.5782 N   0  0  0  0  0  0
  -22.0460  -12.8237   22.0397 N   0  0  0  0  0  0
  -25.4250  -15.1885   20.4070 N   0  0  0  0  0  0
  -31.9039  -14.5731   20.1748 O   0  0  0  0  0  0
  -21.6633   -6.8877   21.4240 O   0  0  0  0  0  0
  -22.3513  -14.5541   20.6685 O   0  0  0  0  0  0
  -24.6180  -31.8696   23.2111 C   0  0  0  0  0  0
  -25.9087  -32.4821   23.8413 C   0  0  1  0  0  0
  -27.2317  -27.4414   20.0983 C   0  0  0  0  0  0
  -25.5985  -33.8612   24.2373 N   0  0  0  0  0  0
  -23.4058  -30.4903   21.5528 C   0  0  2  0  0  0
  -24.8503  -28.9607   20.1113 C   0  0  0  0  0  0
  -22.7446  -29.4649   22.5029 C   0  0  0  0  0  0
  -18.0293  -28.1338   22.8463 C   0  0  0  0  0  0
  -24.1508  -36.7283   23.2640 C   0  0  0  0  0  0
  -25.9336  -30.8370   21.3632 C   0  0  0  0  0  0
  -26.0113  -29.4737   20.7058 C   0  0  0  0  0  0
  -27.2090  -28.7214   20.6949 C   0  0  0  0  0  0
  -26.0602  -26.9484   19.4855 C   0  0  0  0  0  0
  -24.8694  -27.6966   19.4950 C   0  0  0  0  0  0
  -23.6125  -29.8257   20.1650 C   0  0  0  0  0  0
  -25.4127  -36.3092   24.0344 C   0  0  1  0  0  0
  -20.5872  -28.3642   23.1313 C   0  0  2  0  0  0
  -20.6787  -26.9390   22.5401 C   0  0  0  0  0  0
  -19.5768  -26.6349   21.5193 C   0  0  0  0  0  0
  -18.1943  -26.7879   22.1591 C   0  0  0  0  0  0
  -19.1532  -28.8813   23.2879 C   0  0  0  0  0  0
  -18.9454  -30.1419   23.8891 C   0  0  0  0  0  0
  -17.6454  -30.6555   24.0535 C   0  0  0  0  0  0
  -25.9059  -34.9465   23.5135 C   0  0  0  0  0  0
  -16.5355  -29.9046   23.6288 C   0  0  0  0  0  0
  -16.7282  -28.6461   23.0316 C   0  0  0  0  0  0
  -26.4525  -31.6575   25.0718 C   0  0  0  0  0  0
  -25.3803  -31.3604   26.1465 C   0  0  0  0  0  0
  -27.0388  -30.3061   24.6011 C   0  0  0  0  0  0
  -27.6120  -32.4273   25.7483 C   0  0  0  0  0  0
  -27.5600  -37.1815   24.8487 C   0  0  0  0  0  0
  -21.4184  -29.3018   22.3751 N   0  0  0  0  0  0
  -26.4324  -37.3772   23.9403 N   0  0  0  0  0  0
  -24.6707  -31.0793   22.1006 N   0  0  0  0  0  0
  -23.4201  -28.8211   23.3101 O   0  0  0  0  0  0
  -28.3597  -26.6515   20.1431 O   0  0  0  0  0  0
  -26.5567  -34.8909   22.4658 O   0  0  0  0  0  0
  -23.5379  -32.1455   23.7509 O   0  0  0  0  0  0
  -31.1535  -17.1609   19.0545 C   0  0  0  0  0  0
  -31.3254  -18.4383   18.5030 C   0  0  0  0  0  0
  -29.5641  -19.3305   19.9504 C   0  0  0  0  0  0
  -30.1924  -16.9250   20.0694 C   0  0  0  0  0  0
  -30.5354  -19.5153   18.9328 C   0  0  0  0  0  0
  -29.3944  -18.0219   20.5050 C   0  0  0  0  0  0
  -28.3021  -22.9491   22.6542 C   0  0  0  0  0  0
  -28.6594  -20.5126   20.3577 C   0  0  0  0  0  0
  -29.0444  -24.2590   20.5599 C   0  0  0  0  0  0
  -28.1715  -25.4763   20.9539 C   0  0  0  0  0  0
  -28.5124  -22.9046   21.1284 C   0  0  1  0  0  0
  -29.9538  -15.6092   20.6128 N   0  0  0  0  0  0
  -29.3841  -21.7482   20.7680 N   0  3  0  0  0  0
  -30.7794  -21.0479   18.1638 Cl  0  0  0  0  0  0
  -28.1782  -17.7186   21.7010 Cl  0  0  0  0  0  0
  -31.4598  -12.3475   19.1537 H   0  0  0  0  0  0
  -30.2816  -11.3016   19.8909 H   0  0  0  0  0  0
  -29.7393  -11.7081   17.4656 H   0  0  0  0  0  0
  -29.6572  -13.4301   17.7533 H   0  0  0  0  0  0
  -27.8575  -11.2667   18.8949 H   0  0  0  0  0  0
  -27.3577  -12.5229   17.7982 H   0  0  0  0  0  0
  -27.6737  -14.2375   19.5017 H   0  0  0  0  0  0
  -28.6668  -12.0618   21.4128 H   0  0  0  0  0  0
  -28.4719  -13.7478   21.8116 H   0  0  0  0  0  0
  -25.2742   -9.5680   22.4775 H   0  0  0  0  0  0
  -23.9976   -7.4634   22.7492 H   0  0  0  0  0  0
  -21.0843   -8.8754   19.8935 H   0  0  0  0  0  0
  -22.3692  -10.9664   19.6149 H   0  0  0  0  0  0
  -21.2014   -7.6145   23.9715 H   0  0  0  0  0  0
  -21.1501   -6.0519   25.9080 H   0  0  0  0  0  0
  -22.0590   -2.7605   23.2835 H   0  0  0  0  0  0
  -22.4046  -11.9885   22.4780 H   0  0  0  0  0  0
  -21.1079  -13.1273   22.2597 H   0  0  0  0  0  0
  -24.6556  -15.8411   20.5073 H   0  0  0  0  0  0
  -26.2839  -15.6362   20.1148 H   0  0  0  0  0  0
  -26.7161  -32.5541   23.1186 H   0  0  0  0  0  0
  -25.0288  -33.9764   25.0632 H   0  0  0  0  0  0
  -22.6950  -31.3068   21.4171 H   0  0  0  0  0  0
  -23.3782  -35.9613   23.3300 H   0  0  0  0  0  0
  -24.3642  -36.8870   22.2064 H   0  0  0  0  0  0
  -23.7225  -37.6479   23.6631 H   0  0  0  0  0  0
  -26.0440  -31.6069   20.5976 H   0  0  0  0  0  0
  -26.8194  -30.8866   21.9842 H   0  0  0  0  0  0
  -28.1020  -29.1027   21.1697 H   0  0  0  0  0  0
  -26.0637  -25.9722   19.0217 H   0  0  0  0  0  0
  -23.9808  -27.2916   19.0301 H   0  0  0  0  0  0
  -23.7240  -30.6031   19.4084 H   0  0  0  0  0  0
  -22.7349  -29.2461   19.8697 H   0  0  0  0  0  0
  -25.1291  -36.1981   25.0837 H   0  0  0  0  0  0
  -20.9941  -28.3209   24.1436 H   0  0  0  0  0  0
  -20.5713  -26.2272   23.3593 H   0  0  0  0  0  0
  -21.6665  -26.7468   22.1187 H   0  0  0  0  0  0
  -19.6939  -25.6253   21.1234 H   0  0  0  0  0  0
  -19.6686  -27.3153   20.6706 H   0  0  0  0  0  0
  -17.4221  -26.6635   21.3978 H   0  0  0  0  0  0
  -18.0329  -26.0028   22.8986 H   0  0  0  0  0  0
  -19.7954  -30.7203   24.2281 H   0  0  0  0  0  0
  -17.5025  -31.6232   24.5145 H   0  0  0  0  0  0
  -15.5351  -30.2934   23.7606 H   0  0  0  0  0  0
  -15.8696  -28.0781   22.6988 H   0  0  0  0  0  0
  -24.6038  -30.6881   25.7796 H   0  0  0  0  0  0
  -24.8934  -32.2711   26.4957 H   0  0  0  0  0  0
  -25.8207  -30.8775   27.0195 H   0  0  0  0  0  0
  -26.2908  -29.6766   24.1181 H   0  0  0  0  0  0
  -27.4364  -29.7326   25.4393 H   0  0  0  0  0  0
  -27.8638  -30.4465   23.9020 H   0  0  0  0  0  0
  -27.2786  -33.3596   26.2045 H   0  0  0  0  0  0
  -28.3938  -32.6770   25.0298 H   0  0  0  0  0  0
  -28.0761  -31.8374   26.5395 H   0  0  0  0  0  0
  -28.2618  -38.0127   24.7547 H   0  0  0  0  0  0
  -28.1076  -36.2639   24.6281 H   0  0  0  0  0  0
  -27.2301  -37.1426   25.8892 H   0  0  0  0  0  0
  -20.9360  -29.8840   21.7054 H   0  0  0  0  0  0
  -26.0204  -38.2848   24.1388 H   0  0  0  0  0  0
  -31.7677  -16.3726   18.6489 H   0  0  0  0  0  0
  -32.0634  -18.5923   17.7282 H   0  0  0  0  0  0
  -27.5007  -23.6397   22.9187 H   0  0  0  0  0  0
  -29.2021  -23.2770   23.1734 H   0  0  0  0  0  0
  -28.0195  -21.9736   23.0559 H   0  0  0  0  0  0
  -27.9771  -20.2416   21.1606 H   0  0  0  0  0  0
  -28.0244  -20.7493   19.5029 H   0  0  0  0  0  0
  -30.0690  -24.4384   20.8833 H   0  0  0  0  0  0
  -29.0788  -24.1922   19.4721 H   0  0  0  0  0  0
  -28.3854  -25.7635   21.9836 H   0  0  0  0  0  0
  -27.1312  -25.1485   20.9550 H   0  0  0  0  0  0
  -27.5339  -22.7392   20.6727 H   0  0  0  0  0  0
  -29.0334  -15.4616   20.9975 H   0  0  0  0  0  0
  -29.9627  -22.0034   19.9808 H   0  0  0  0  0  0
  -30.0009  -21.5420   21.5383 H   0  0  0  0  0  0
  1 25  1  0  0  0
  1 30  2  0  0  0
  1 82  1  0  0  0
  2  3  1  0  0  0
  2 25  1  0  0  0
  2 86  1  0  0  0
  2 87  1  0  0  0
  3  4  1  0  0  0
  3 88  1  0  0  0
  3 89  1  0  0  0
  4  5  1  0  0  0
  4 90  1  0  0  0
  4 91  1  0  0  0
  5  6  1  0  0  0
  5 26  1  0  0  0
  5 92  1  0  0  0
  6 25  1  0  0  0
  6 93  1  0  0  0
  6 94  1  0  0  0
  7  8  2  0  0  0
  7 26  1  0  0  0
  7 29  1  0  0  0
  8  9  1  0  0  0
  8 22  1  0  0  0
  9 10  1  0  0  0
  9 27  2  0  0  0
 10 11  2  0  0  0
 10 15  1  0  0  0
 11 12  1  0  0  0
 11 95  1  0  0  0
 12 13  2  0  0  0
 12 96  1  0  0  0
 13 14  1  0  0  0
 13 31  1  0  0  0
 14 15  2  0  0  0
 14 97  1  0  0  0
 15 98  1  0  0  0
 16 17  2  0  0  0
 16 21  1  0  0  0
 16 31  1  0  0  0
 17 18  1  0  0  0
 17 99  1  0  0  0
 18 19  2  0  0  0
 18100  1  0  0  0
 19 20  1  0  0  0
 19 24  1  0  0  0
 20 21  2  0  0  0
 20101  1  0  0  0
 21 23  1  0  0  0
 22 28  1  0  0  0
 22 32  2  0  0  0
 26 27  1  0  0  0
 28102  1  0  0  0
 28103  1  0  0  0
 29104  1  0  0  0
 29105  1  0  0  0
 33 34  1  0  0  0
 33 66  1  0  0  0
 33 70  2  0  0  0
 34 36  1  0  0  0
 34 59  1  0  0  0
 34106  1  0  0  0
 35 44  2  0  0  0
 35 45  1  0  0  0
 35 68  1  0  0  0
 36 56  1  0  0  0
 36107  1  0  0  0
 37 39  1  0  0  0
 37 47  1  0  0  0
 37 66  1  0  0  0
 37108  1  0  0  0
 38 43  2  0  0  0
 38 46  1  0  0  0
 38 47  1  0  0  0
 39 64  1  0  0  0
 39 67  2  0  0  0
 40 52  1  0  0  0
 40 53  2  0  0  0
 40 58  1  0  0  0
 41109  1  0  0  0
 41110  1  0  0  0
 41111  1  0  0  0
 41 48  1  0  0  0
 42 43  1  0  0  0
 42 66  1  0  0  0
 42112  1  0  0  0
 42113  1  0  0  0
 43 44  1  0  0  0
 44114  1  0  0  0
 45 46  2  0  0  0
 45115  1  0  0  0
 46116  1  0  0  0
 47117  1  0  0  0
 47118  1  0  0  0
 48 56  1  0  0  0
 48 65  1  0  0  0
 48119  1  0  0  0
 49 50  1  0  0  0
 49 53  1  0  0  0
 49 64  1  0  0  0
 49120  1  0  0  0
 50 51  1  0  0  0
 50121  1  0  0  0
 50122  1  0  0  0
 51 52  1  0  0  0
 51123  1  0  0  0
 51124  1  0  0  0
 52125  1  0  0  0
 52126  1  0  0  0
 53 54  1  0  0  0
 54 55  2  0  0  0
 54127  1  0  0  0
 55 57  1  0  0  0
 55128  1  0  0  0
 56 69  2  0  0  0
 57 58  2  0  0  0
 57129  1  0  0  0
 58130  1  0  0  0
 59 60  1  0  0  0
 59 61  1  0  0  0
 59 62  1  0  0  0
 60131  1  0  0  0
 60132  1  0  0  0
 60133  1  0  0  0
 61134  1  0  0  0
 61135  1  0  0  0
 61136  1  0  0  0
 62137  1  0  0  0
 62138  1  0  0  0
 62139  1  0  0  0
 63 65  1  0  0  0
 63140  1  0  0  0
 63141  1  0  0  0
 63142  1  0  0  0
 64143  1  0  0  0
 65144  1  0  0  0
 68 80  1  0  0  0
 71 72  2  0  0  0
 71 74  1  0  0  0
 71145  1  0  0  0
 72 75  1  0  0  0
 72146  1  0  0  0
 73 75  2  0  0  0
 73 76  1  0  0  0
 73 78  1  0  0  0
 74 76  2  0  0  0
 74 82  1  0  0  0
 75 84  1  0  0  0
 76 85  1  0  0  0
 77147  1  0  0  0
 77148  1  0  0  0
 77149  1  0  0  0
 77 81  1  0  0  0
 78 83  1  0  0  0
 78150  1  0  0  0
 78151  1  0  0  0
 79 80  1  0  0  0
 79 81  1  0  0  0
 79152  1  0  0  0
 79153  1  0  0  0
 80154  1  0  0  0
 80155  1  0  0  0
 81 83  1  0  0  0
 81156  1  0  0  0
 82157  1  0  0  0
 83158  1  0  0  0
 83159  1  0  0  0
M  CHG  1  83   1
M  ISO  4   1 100  68 101  80 101  82 100
M  END
> <chiral flag>
0

> <version>
0

> <s_m_source_file>
/data/baiqing/PycharmProjects/Reinvent-master-3.2/result/LINK_invent/BTK/process_docking_weight1_custom_sum_contain_oxygen_bond_distance_aromatic_linkinvent_7_9_3/rearranged_h_0016.sdf

> <i_m_source_file_index>
80

> <r_mmod_Potential_Energy-OPLS-2005>
-237.716262817383

> <r_mmod_Stretch_Energy-OPLS-2005>
42.3768081665039

> <r_mmod_Bend_Energy-OPLS-2005>
95.2833023071289

> <r_mmod_Torsional_Energy-OPLS-2005>
253.461074829102

> <r_mmod_Improper_Torsional_Energy-OPLS-2005>
5.7533540725708

> <r_mmod_Van_der_Waal_Energy-OPLS-2005>
161.426132202148

> <r_mmod_Electrostatic_Energy-OPLS-2005>
-358.196502685547

> <r_mmod_Solvation_Energy-OPLS-2005>
-462.274932861328

> <b_mmod_Minimization_Converged-OPLS-2005>
0

> <r_mmod_RMS_Derivative-OPLS-2005>
2.96092534065247

$$$$
80
                    3D
 Structure written by MMmdl.
184192  0  0  1  0            999 V2000
  -30.7666  -14.3403   20.7024 C   0  0  0  0  0  0
  -30.4216  -12.2821   19.3778 C   0  0  0  0  0  0
  -29.4817  -12.5340   18.1842 C   0  0  0  0  0  0
  -28.0072  -12.3851   18.6029 C   0  0  0  0  0  0
  -27.6700  -13.1968   19.8797 C   0  0  2  0  0  0
  -28.7072  -12.9123   20.9874 C   0  0  0  0  0  0
  -25.2628  -13.8144   20.5663 C   0  0  0  0  0  0
  -24.1864  -13.0438   20.9149 C   0  0  0  0  0  0
  -24.6401  -11.6897   20.8721 C   0  0  0  0  0  0
  -23.9057  -10.4293   21.0401 C   0  0  0  0  0  0
  -24.3612   -9.4208   21.9178 C   0  0  0  0  0  0
  -23.6291   -8.2243   22.0748 C   0  0  0  0  0  0
  -22.4271   -8.0280   21.3544 C   0  0  0  0  0  0
  -21.9904   -9.0251   20.4643 C   0  0  0  0  0  0
  -22.7228  -10.2131   20.3053 C   0  0  0  0  0  0
  -21.6852   -6.0735   22.5280 C   0  0  0  0  0  0
  -21.4013   -6.5641   23.8210 C   0  0  0  0  0  0
  -21.3657   -5.6793   24.9174 C   0  0  0  0  0  0
  -21.6048   -4.3056   24.7225 C   0  0  0  0  0  0
  -21.8818   -3.8146   23.4345 C   0  0  0  0  0  0
  -21.9191   -4.6965   22.3402 C   0  0  0  0  0  0
  -22.7889  -13.5245   21.1835 C   0  0  0  0  0  0
  -22.1659   -4.2151   21.0980 F   0  0  0  0  0  0
  -21.5629   -3.4539   25.7737 F   0  0  0  0  0  0
  -30.0586  -13.2049   20.4621 N   0  0  0  0  0  0
  -26.3067  -12.9303   20.3373 N   0  0  0  0  0  0
  -25.9324  -11.6467   20.5745 N   0  0  0  0  0  0
  -22.0530  -12.8240   22.0388 N   0  0  0  0  0  0
  -25.4384  -15.1857   20.4061 N   0  0  0  0  0  0
  -31.7551  -14.6738   20.0381 O   0  0  0  0  0  0
  -21.6637   -6.8877   21.4240 O   0  0  0  0  0  0
  -22.3568  -14.5551   20.6679 O   0  0  0  0  0  0
  -24.6090  -31.8704   23.2092 C   0  0  0  0  0  0
  -25.9005  -32.4804   23.8391 C   0  0  1  0  0  0
  -27.2439  -27.4820   20.0864 C   0  0  0  0  0  0
  -25.5912  -33.8603   24.2352 N   0  0  0  0  0  0
  -23.3970  -30.4908   21.5489 C   0  0  2  0  0  0
  -24.8452  -28.9553   20.1167 C   0  0  0  0  0  0
  -22.7382  -29.4668   22.5006 C   0  0  0  0  0  0
  -18.0268  -28.1379   22.8489 C   0  0  0  0  0  0
  -24.1496  -36.7294   23.2632 C   0  0  0  0  0  0
  -25.9187  -30.8509   21.3513 C   0  0  0  0  0  0
  -26.0006  -29.4874   20.7021 C   0  0  0  0  0  0
  -27.2055  -28.7595   20.6795 C   0  0  0  0  0  0
  -26.0750  -26.9457   19.5095 C   0  0  0  0  0  0
  -24.8738  -27.6810   19.5195 C   0  0  0  0  0  0
  -23.6026  -29.8140   20.1664 C   0  0  0  0  0  0
  -25.4116  -36.3106   24.0345 C   0  0  1  0  0  0
  -20.5858  -28.3640   23.1324 C   0  0  2  0  0  0
  -20.6768  -26.9385   22.5411 C   0  0  0  0  0  0
  -19.5739  -26.6379   21.5216 C   0  0  0  0  0  0
  -18.1921  -26.7926   22.1622 C   0  0  0  0  0  0
  -19.1521  -28.8823   23.2909 C   0  0  0  0  0  0
  -18.9449  -30.1424   23.8925 C   0  0  0  0  0  0
  -17.6457  -30.6578   24.0578 C   0  0  0  0  0  0
  -25.9040  -34.9462   23.5148 C   0  0  0  0  0  0
  -16.5342  -29.9094   23.6342 C   0  0  0  0  0  0
  -16.7260  -28.6514   23.0351 C   0  0  0  0  0  0
  -26.4416  -31.6534   25.0690 C   0  0  0  0  0  0
  -25.3697  -31.3568   26.1427 C   0  0  0  0  0  0
  -27.0267  -30.3003   24.5995 C   0  0  0  0  0  0
  -27.5992  -32.4180   25.7530 C   0  0  0  0  0  0
  -27.5590  -37.1799   24.8474 C   0  0  0  0  0  0
  -21.4117  -29.3023   22.3740 N   0  0  0  0  0  0
  -26.4301  -37.3798   23.9418 N   0  0  0  0  0  0
  -24.6598  -31.0839   22.0960 N   0  0  0  0  0  0
  -23.4166  -28.8255   23.3062 O   0  0  0  0  0  0
  -28.4184  -26.7721   20.0625 O   0  0  0  0  0  0
  -26.5575  -34.8907   22.4692 O   0  0  0  0  0  0
  -23.5294  -32.1463   23.7501 O   0  0  0  0  0  0
  -30.2726  -18.9995   22.9297 C   0  0  0  0  0  0
  -29.5505  -18.0435   23.6685 C   0  0  0  0  0  0
  -29.6331  -16.6918   23.2719 C   0  0  0  0  0  0
  -31.0333  -18.5746   21.8278 C   0  0  0  0  0  0
  -30.4132  -16.3477   22.1424 C   0  0  0  0  0  0
  -28.7352  -18.4260   24.8296 C   0  0  0  0  0  0
  -27.7381  -19.3390   24.8696 C   0  0  0  0  0  0
  -27.1104  -19.5702   26.1704 C   0  0  0  0  0  0
  -31.8191  -19.5643   20.9942 C   0  0  0  0  0  0
  -27.2498  -20.1239   23.6505 C   0  0  0  0  0  0
  -25.0791  -25.3923   25.5541 C   0  0  0  0  0  0
  -26.2281  -26.3097   25.1103 C   0  0  0  0  0  0
  -25.5131  -24.3784   26.6287 C   0  0  0  0  0  0
  -27.0954  -25.6621   24.0173 C   0  0  0  0  0  0
  -24.9412  -22.9746   26.3954 C   0  0  0  0  0  0
  -28.4599  -26.3628   23.8295 C   0  0  0  0  0  0
  -25.2985  -22.0016   27.5324 C   0  0  0  0  0  0
  -29.1108  -26.2249   22.4154 C   0  0  0  0  0  0
  -25.0373  -20.5270   27.1817 C   0  0  0  0  0  0
  -28.5190  -25.7393   21.0515 C   0  0  0  0  0  0
  -31.0998  -17.2835   21.4410 N   0  0  0  0  0  0
  -30.3709  -14.9769   21.8089 N   0  0  0  0  0  0
  -25.8830  -20.0939   26.0725 N   0  0  0  0  0  0
  -27.6304  -19.3325   27.2630 O   0  0  0  0  0  0
  -28.7552  -15.4701   24.1391 Cl  0  0  0  0  0  0
  -31.4631  -12.3908   19.0690 H   0  0  0  0  0  0
  -30.3253  -11.2519   19.7246 H   0  0  0  0  0  0
  -29.7101  -11.8426   17.3721 H   0  0  0  0  0  0
  -29.6519  -13.5368   17.7892 H   0  0  0  0  0  0
  -27.8136  -11.3256   18.7747 H   0  0  0  0  0  0
  -27.3518  -12.6837   17.7841 H   0  0  0  0  0  0
  -27.7363  -14.2543   19.6220 H   0  0  0  0  0  0
  -28.6637  -11.8624   21.2809 H   0  0  0  0  0  0
  -28.4427  -13.4663   21.8876 H   0  0  0  0  0  0
  -25.2763   -9.5684   22.4744 H   0  0  0  0  0  0
  -24.0003   -7.4635   22.7466 H   0  0  0  0  0  0
  -21.0835   -8.8763   19.8954 H   0  0  0  0  0  0
  -22.3684  -10.9667   19.6158 H   0  0  0  0  0  0
  -21.2005   -7.6148   23.9717 H   0  0  0  0  0  0
  -21.1483   -6.0522   25.9077 H   0  0  0  0  0  0
  -22.0601   -2.7610   23.2842 H   0  0  0  0  0  0
  -22.4141  -11.9894   22.4775 H   0  0  0  0  0  0
  -21.1149  -13.1268   22.2602 H   0  0  0  0  0  0
  -24.6789  -15.8480   20.5188 H   0  0  0  0  0  0
  -26.3020  -15.6210   20.1076 H   0  0  0  0  0  0
  -26.7093  -32.5518   23.1178 H   0  0  0  0  0  0
  -25.0157  -33.9765   25.0563 H   0  0  0  0  0  0
  -22.6857  -31.3070   21.4078 H   0  0  0  0  0  0
  -23.3750  -35.9631   23.3303 H   0  0  0  0  0  0
  -24.3602  -36.8883   22.2044 H   0  0  0  0  0  0
  -23.7236  -37.6507   23.6623 H   0  0  0  0  0  0
  -26.0210  -31.6134   20.5781 H   0  0  0  0  0  0
  -26.8114  -30.9079   21.9627 H   0  0  0  0  0  0
  -28.1026  -29.1692   21.1223 H   0  0  0  0  0  0
  -26.0986  -25.9676   19.0503 H   0  0  0  0  0  0
  -23.9839  -27.2618   19.0711 H   0  0  0  0  0  0
  -23.7012  -30.5835   19.3999 H   0  0  0  0  0  0
  -22.7301  -29.2263   19.8773 H   0  0  0  0  0  0
  -25.1275  -36.1988   25.0829 H   0  0  0  0  0  0
  -20.9957  -28.3195   24.1437 H   0  0  0  0  0  0
  -20.5679  -26.2226   23.3570 H   0  0  0  0  0  0
  -21.6650  -26.7464   22.1217 H   0  0  0  0  0  0
  -19.6895  -25.6294   21.1230 H   0  0  0  0  0  0
  -19.6676  -27.3192   20.6756 H   0  0  0  0  0  0
  -17.4190  -26.6643   21.4033 H   0  0  0  0  0  0
  -18.0324  -26.0084   22.9033 H   0  0  0  0  0  0
  -19.7933  -30.7225   24.2299 H   0  0  0  0  0  0
  -17.5036  -31.6262   24.5169 H   0  0  0  0  0  0
  -15.5350  -30.3024   23.7666 H   0  0  0  0  0  0
  -15.8667  -28.0847   22.7044 H   0  0  0  0  0  0
  -25.8017  -30.8534   27.0089 H   0  0  0  0  0  0
  -24.5806  -30.7029   25.7689 H   0  0  0  0  0  0
  -24.8990  -32.2711   26.5045 H   0  0  0  0  0  0
  -26.2853  -29.6777   24.0982 H   0  0  0  0  0  0
  -27.4008  -29.7167   25.4405 H   0  0  0  0  0  0
  -27.8655  -30.4374   23.9168 H   0  0  0  0  0  0
  -27.2658  -33.3503   26.2105 H   0  0  0  0  0  0
  -28.3911  -32.6625   25.0446 H   0  0  0  0  0  0
  -28.0520  -31.8247   26.5481 H   0  0  0  0  0  0
  -28.2626  -38.0085   24.7528 H   0  0  0  0  0  0
  -28.1086  -36.2622   24.6313 H   0  0  0  0  0  0
  -27.2305  -37.1445   25.8877 H   0  0  0  0  0  0
  -20.9261  -29.8748   21.6979 H   0  0  0  0  0  0
  -26.0195  -38.2885   24.1403 H   0  0  0  0  0  0
  -30.2410  -20.0440   23.2078 H   0  0  0  0  0  0
  -29.0068  -17.9046   25.7376 H   0  0  0  0  0  0
  -31.9396  -20.5137   21.5161 H   0  0  0  0  0  0
  -31.3042  -19.7566   20.0532 H   0  0  0  0  0  0
  -32.8129  -19.1776   20.7685 H   0  0  0  0  0  0
  -27.7714  -19.8521   22.7352 H   0  0  0  0  0  0
  -27.3942  -21.1930   23.8108 H   0  0  0  0  0  0
  -26.1911  -19.9458   23.4632 H   0  0  0  0  0  0
  -24.6748  -24.8824   24.6787 H   0  0  0  0  0  0
  -24.2565  -25.9937   25.9441 H   0  0  0  0  0  0
  -26.8340  -26.5936   25.9712 H   0  0  0  0  0  0
  -25.8127  -27.2407   24.7204 H   0  0  0  0  0  0
  -25.2174  -24.7482   27.6118 H   0  0  0  0  0  0
  -26.6011  -24.3007   26.6549 H   0  0  0  0  0  0
  -26.5189  -25.6827   23.0918 H   0  0  0  0  0  0
  -27.2666  -24.6079   24.2434 H   0  0  0  0  0  0
  -25.3313  -22.6069   25.4450 H   0  0  0  0  0  0
  -23.8572  -23.0218   26.2862 H   0  0  0  0  0  0
  -29.1462  -25.9658   24.5817 H   0  0  0  0  0  0
  -28.3698  -27.4143   24.1264 H   0  0  0  0  0  0
  -24.7245  -22.2672   28.4211 H   0  0  0  0  0  0
  -26.3474  -22.1205   27.8097 H   0  0  0  0  0  0
  -28.3480  -26.9773   22.2692 H   0  0  0  0  0  0
  -29.1157  -25.1620   22.6651 H   0  0  0  0  0  0
  -23.9922  -20.3835   26.9040 H   0  0  0  0  0  0
  -25.2072  -19.8994   28.0592 H   0  0  0  0  0  0
  -27.5650  -25.2196   21.1689 H   0  0  0  0  0  0
  -29.1928  -24.9972   20.6182 H   0  0  0  0  0  0
  -29.7133  -14.4588   22.3706 H   0  0  0  0  0  0
  -25.5296  -20.2341   25.1360 H   0  0  0  0  0  0
  1 25  1  0  0  0
  1 30  2  0  0  0
  1 92  1  0  0  0
  2  3  1  0  0  0
  2 25  1  0  0  0
  2 96  1  0  0  0
  2 97  1  0  0  0
  3  4  1  0  0  0
  3 98  1  0  0  0
  3 99  1  0  0  0
  4  5  1  0  0  0
  4100  1  0  0  0
  4101  1  0  0  0
  5  6  1  0  0  0
  5 26  1  0  0  0
  5102  1  0  0  0
  6 25  1  0  0  0
  6103  1  0  0  0
  6104  1  0  0  0
  7  8  2  0  0  0
  7 26  1  0  0  0
  7 29  1  0  0  0
  8  9  1  0  0  0
  8 22  1  0  0  0
  9 10  1  0  0  0
  9 27  2  0  0  0
 10 11  2  0  0  0
 10 15  1  0  0  0
 11 12  1  0  0  0
 11105  1  0  0  0
 12 13  2  0  0  0
 12106  1  0  0  0
 13 14  1  0  0  0
 13 31  1  0  0  0
 14 15  2  0  0  0
 14107  1  0  0  0
 15108  1  0  0  0
 16 17  2  0  0  0
 16 21  1  0  0  0
 16 31  1  0  0  0
 17 18  1  0  0  0
 17109  1  0  0  0
 18 19  2  0  0  0
 18110  1  0  0  0
 19 20  1  0  0  0
 19 24  1  0  0  0
 20 21  2  0  0  0
 20111  1  0  0  0
 21 23  1  0  0  0
 22 28  1  0  0  0
 22 32  2  0  0  0
 26 27  1  0  0  0
 28112  1  0  0  0
 28113  1  0  0  0
 29114  1  0  0  0
 29115  1  0  0  0
 33 34  1  0  0  0
 33 66  1  0  0  0
 33 70  2  0  0  0
 34 36  1  0  0  0
 34 59  1  0  0  0
 34116  1  0  0  0
 35 44  2  0  0  0
 35 45  1  0  0  0
 35 68  1  0  0  0
 36 56  1  0  0  0
 36117  1  0  0  0
 37 39  1  0  0  0
 37 47  1  0  0  0
 37 66  1  0  0  0
 37118  1  0  0  0
 38 43  2  0  0  0
 38 46  1  0  0  0
 38 47  1  0  0  0
 39 64  1  0  0  0
 39 67  2  0  0  0
 40 52  1  0  0  0
 40 53  2  0  0  0
 40 58  1  0  0  0
 41119  1  0  0  0
 41120  1  0  0  0
 41121  1  0  0  0
 41 48  1  0  0  0
 42 43  1  0  0  0
 42 66  1  0  0  0
 42122  1  0  0  0
 42123  1  0  0  0
 43 44  1  0  0  0
 44124  1  0  0  0
 45 46  2  0  0  0
 45125  1  0  0  0
 46126  1  0  0  0
 47127  1  0  0  0
 47128  1  0  0  0
 48 56  1  0  0  0
 48 65  1  0  0  0
 48129  1  0  0  0
 49 50  1  0  0  0
 49 53  1  0  0  0
 49 64  1  0  0  0
 49130  1  0  0  0
 50 51  1  0  0  0
 50131  1  0  0  0
 50132  1  0  0  0
 51 52  1  0  0  0
 51133  1  0  0  0
 51134  1  0  0  0
 52135  1  0  0  0
 52136  1  0  0  0
 53 54  1  0  0  0
 54 55  2  0  0  0
 54137  1  0  0  0
 55 57  1  0  0  0
 55138  1  0  0  0
 56 69  2  0  0  0
 57 58  2  0  0  0
 57139  1  0  0  0
 58140  1  0  0  0
 59 60  1  0  0  0
 59 61  1  0  0  0
 59 62  1  0  0  0
 60141  1  0  0  0
 60142  1  0  0  0
 60143  1  0  0  0
 61144  1  0  0  0
 61145  1  0  0  0
 61146  1  0  0  0
 62147  1  0  0  0
 62148  1  0  0  0
 62149  1  0  0  0
 63 65  1  0  0  0
 63150  1  0  0  0
 63151  1  0  0  0
 63152  1  0  0  0
 64153  1  0  0  0
 65154  1  0  0  0
 68 90  1  0  0  0
 71 72  2  0  0  0
 71 74  1  0  0  0
 71155  1  0  0  0
 72 73  1  0  0  0
 72 76  1  0  0  0
 73 75  2  0  0  0
 73 95  1  0  0  0
 74 79  1  0  0  0
 74 91  2  0  0  0
 75 91  1  0  0  0
 75 92  1  0  0  0
 76 77  2  0  0  0
 76156  1  0  0  0
 77 78  1  0  0  0
 77 80  1  0  0  0
 78 93  1  0  0  0
 78 94  2  0  0  0
 79157  1  0  0  0
 79158  1  0  0  0
 79159  1  0  0  0
 80160  1  0  0  0
 80161  1  0  0  0
 80162  1  0  0  0
 81 82  1  0  0  0
 81 83  1  0  0  0
 81163  1  0  0  0
 81164  1  0  0  0
 82 84  1  0  0  0
 82165  1  0  0  0
 82166  1  0  0  0
 83 85  1  0  0  0
 83167  1  0  0  0
 83168  1  0  0  0
 84 86  1  0  0  0
 84169  1  0  0  0
 84170  1  0  0  0
 85 87  1  0  0  0
 85171  1  0  0  0
 85172  1  0  0  0
 86 88  1  0  0  0
 86173  1  0  0  0
 86174  1  0  0  0
 87 89  1  0  0  0
 87175  1  0  0  0
 87176  1  0  0  0
 88 90  1  0  0  0
 88177  1  0  0  0
 88178  1  0  0  0
 89 93  1  0  0  0
 89179  1  0  0  0
 89180  1  0  0  0
 90181  1  0  0  0
 90182  1  0  0  0
 92183  1  0  0  0
 93184  1  0  0  0
M  ISO  4   1 100  68 101  90 101  92 100
M  END
> <chiral flag>
0

> <version>
0

> <s_m_source_file>
/data/baiqing/PycharmProjects/Reinvent-master-3.2/result/LINK_invent/BTK/process_docking_weight1_custom_sum_contain_oxygen_bond_distance_aromatic_linkinvent_7_9_3/rearranged_h_0016.sdf

> <i_m_source_file_index>
81

> <r_mmod_Potential_Energy-OPLS-2005>
40.4345970153809

> <r_mmod_Stretch_Energy-OPLS-2005>
36.8484420776367

> <r_mmod_Bend_Energy-OPLS-2005>
331.483642578125

> <r_mmod_Torsional_Energy-OPLS-2005>
295.313140869141

> <r_mmod_Improper_Torsional_Energy-OPLS-2005>
3.94314980506897

> <r_mmod_Van_der_Waal_Energy-OPLS-2005>
172.485107421875

> <r_mmod_Electrostatic_Energy-OPLS-2005>
-572.788391113281

> <r_mmod_Solvation_Energy-OPLS-2005>
-233.627426147461

> <b_mmod_Minimization_Converged-OPLS-2005>
0

> <r_mmod_RMS_Derivative-OPLS-2005>
1.96245455741882

$$$$
81
                    3D
 Structure written by MMmdl.
176184  0  0  1  0            999 V2000
  -30.7819  -14.3118   20.7118 C   0  0  0  0  0  0
  -30.4201  -12.2791   19.3637 C   0  0  0  0  0  0
  -29.4782  -12.5350   18.1725 C   0  0  0  0  0  0
  -28.0015  -12.4017   18.5956 C   0  0  0  0  0  0
  -27.6720  -13.2009   19.8808 C   0  0  2  0  0  0
  -28.7073  -12.9062   20.9832 C   0  0  0  0  0  0
  -25.2632  -13.8165   20.5680 C   0  0  0  0  0  0
  -24.1857  -13.0451   20.9171 C   0  0  0  0  0  0
  -24.6396  -11.6915   20.8723 C   0  0  0  0  0  0
  -23.9062  -10.4303   21.0418 C   0  0  0  0  0  0
  -24.3615   -9.4211   21.9195 C   0  0  0  0  0  0
  -23.6279   -8.2248   22.0775 C   0  0  0  0  0  0
  -22.4244   -8.0292   21.3574 C   0  0  0  0  0  0
  -21.9881   -9.0276   20.4672 C   0  0  0  0  0  0
  -22.7233  -10.2150   20.3075 C   0  0  0  0  0  0
  -21.6851   -6.0735   22.5294 C   0  0  0  0  0  0
  -21.4025   -6.5648   23.8227 C   0  0  0  0  0  0
  -21.3652   -5.6798   24.9193 C   0  0  0  0  0  0
  -21.6027   -4.3053   24.7236 C   0  0  0  0  0  0
  -21.8813   -3.8148   23.4356 C   0  0  0  0  0  0
  -21.9194   -4.6964   22.3419 C   0  0  0  0  0  0
  -22.7879  -13.5265   21.1833 C   0  0  0  0  0  0
  -22.1665   -4.2152   21.0992 F   0  0  0  0  0  0
  -21.5612   -3.4540   25.7746 F   0  0  0  0  0  0
  -30.0550  -13.1957   20.4500 N   0  0  0  0  0  0
  -26.3069  -12.9333   20.3364 N   0  0  0  0  0  0
  -25.9317  -11.6493   20.5718 N   0  0  0  0  0  0
  -22.0514  -12.8288   22.0398 N   0  0  0  0  0  0
  -25.4384  -15.1889   20.4131 N   0  0  0  0  0  0
  -31.7722  -14.6564   20.0606 O   0  0  0  0  0  0
  -21.6618   -6.8881   21.4257 O   0  0  0  0  0  0
  -22.3567  -14.5554   20.6657 O   0  0  0  0  0  0
  -24.6111  -31.8707   23.2186 C   0  0  0  0  0  0
  -25.9014  -32.4842   23.8451 C   0  0  1  0  0  0
  -27.2509  -27.4741   20.0777 C   0  0  0  0  0  0
  -25.5882  -33.8642   24.2381 N   0  0  0  0  0  0
  -23.3990  -30.4965   21.5542 C   0  0  2  0  0  0
  -24.8516  -28.9711   20.1188 C   0  0  0  0  0  0
  -22.7396  -29.4667   22.4991 C   0  0  0  0  0  0
  -18.0272  -28.1371   22.8508 C   0  0  0  0  0  0
  -24.1481  -36.7317   23.2636 C   0  0  0  0  0  0
  -25.9267  -30.8447   21.3733 C   0  0  0  0  0  0
  -26.0100  -29.4842   20.7176 C   0  0  0  0  0  0
  -27.2133  -28.7440   20.7033 C   0  0  0  0  0  0
  -26.0737  -26.9705   19.4876 C   0  0  0  0  0  0
  -24.8755  -27.7080   19.5047 C   0  0  0  0  0  0
  -23.6106  -29.8326   20.1682 C   0  0  0  0  0  0
  -25.4103  -36.3125   24.0339 C   0  0  1  0  0  0
  -20.5863  -28.3650   23.1326 C   0  0  2  0  0  0
  -20.6757  -26.9381   22.5427 C   0  0  0  0  0  0
  -19.5742  -26.6375   21.5214 C   0  0  0  0  0  0
  -18.1917  -26.7916   22.1620 C   0  0  0  0  0  0
  -19.1515  -28.8821   23.2917 C   0  0  0  0  0  0
  -18.9441  -30.1424   23.8929 C   0  0  0  0  0  0
  -17.6440  -30.6573   24.0563 C   0  0  0  0  0  0
  -25.9027  -34.9483   23.5165 C   0  0  0  0  0  0
  -16.5334  -29.9078   23.6322 C   0  0  0  0  0  0
  -16.7253  -28.6490   23.0357 C   0  0  0  0  0  0
  -26.4464  -31.6610   25.0761 C   0  0  0  0  0  0
  -25.3761  -31.3672   26.1523 C   0  0  0  0  0  0
  -27.0314  -30.3066   24.6129 C   0  0  0  0  0  0
  -27.6060  -32.4316   25.7492 C   0  0  0  0  0  0
  -27.5585  -37.1808   24.8457 C   0  0  0  0  0  0
  -21.4118  -29.3030   22.3722 N   0  0  0  0  0  0
  -26.4295  -37.3806   23.9410 N   0  0  0  0  0  0
  -24.6624  -31.0842   22.1071 N   0  0  0  0  0  0
  -23.4164  -28.8194   23.3011 O   0  0  0  0  0  0
  -28.3549  -26.6578   19.9904 O   0  0  0  0  0  0
  -26.5579  -34.8922   22.4708 O   0  0  0  0  0  0
  -23.5305  -32.1431   23.7598 O   0  0  0  0  0  0
  -29.9213  -17.1752   20.6224 C   0  0  0  0  0  0
  -32.6917  -25.3977   19.8919 C   0  0  0  0  0  0
  -30.2737  -15.6419   24.0934 C   0  0  0  0  0  0
  -29.9273  -16.8490   23.2294 C   0  0  0  0  0  0
  -30.9127  -14.6389   23.1312 C   0  0  0  0  0  0
  -29.6602  -16.2513   21.8329 C   0  0  2  0  0  0
  -32.4815  -26.3693   17.6126 C   0  0  0  0  0  0
  -32.8172  -23.9778   19.3157 C   0  0  0  0  0  0
  -32.1440  -22.9241   20.2143 C   0  0  0  0  0  0
  -32.0756  -21.5376   19.5534 C   0  0  0  0  0  0
  -31.4618  -20.4713   20.4732 C   0  0  0  0  0  0
  -30.3972  -27.9274   19.5644 C   0  0  0  0  0  0
  -31.2590  -19.1159   19.7765 C   0  0  0  0  0  0
  -31.9345  -27.7409   19.6079 C   0  0  0  0  0  0
  -29.6072  -27.0372   20.5434 C   0  0  0  0  0  0
  -30.3961  -14.9799   21.8103 N   0  0  0  0  0  0
  -30.8586  -18.1205   20.7624 N   0  0  0  0  0  0
  -32.3644  -26.4319   19.0765 N   0  0  0  0  0  0
  -29.2942  -17.0055   19.5773 O   0  0  0  0  0  0
  -32.8427  -25.5462   21.1092 O   0  0  0  0  0  0
  -31.4628  -12.3910   19.0567 H   0  0  0  0  0  0
  -30.3220  -11.2475   19.7074 H   0  0  0  0  0  0
  -29.6947  -11.8385   17.3610 H   0  0  0  0  0  0
  -29.6591  -13.5329   17.7698 H   0  0  0  0  0  0
  -27.7919  -11.3438   18.7584 H   0  0  0  0  0  0
  -27.3455  -12.7230   17.7862 H   0  0  0  0  0  0
  -27.7455  -14.2605   19.6322 H   0  0  0  0  0  0
  -28.6607  -11.8551   21.2699 H   0  0  0  0  0  0
  -28.4539  -13.4586   21.8876 H   0  0  0  0  0  0
  -25.2790   -9.5645   22.4738 H   0  0  0  0  0  0
  -23.9999   -7.4614   22.7466 H   0  0  0  0  0  0
  -21.0819   -8.8804   19.8970 H   0  0  0  0  0  0
  -22.3732  -10.9684   19.6151 H   0  0  0  0  0  0
  -21.2041   -7.6158   23.9738 H   0  0  0  0  0  0
  -21.1468   -6.0530   25.9093 H   0  0  0  0  0  0
  -22.0590   -2.7608   23.2865 H   0  0  0  0  0  0
  -22.4114  -11.9980   22.4858 H   0  0  0  0  0  0
  -21.1145  -13.1359   22.2595 H   0  0  0  0  0  0
  -24.6676  -15.8430   20.4968 H   0  0  0  0  0  0
  -26.2950  -15.6218   20.0910 H   0  0  0  0  0  0
  -26.7086  -32.5581   23.1219 H   0  0  0  0  0  0
  -25.0061  -33.9804   25.0542 H   0  0  0  0  0  0
  -22.6855  -31.3126   21.4203 H   0  0  0  0  0  0
  -23.3747  -35.9649   23.3323 H   0  0  0  0  0  0
  -24.3575  -36.8915   22.2052 H   0  0  0  0  0  0
  -23.7244  -37.6523   23.6642 H   0  0  0  0  0  0
  -26.0486  -31.6187   20.6137 H   0  0  0  0  0  0
  -26.8073  -30.8881   22.0018 H   0  0  0  0  0  0
  -28.0960  -29.1619   21.1646 H   0  0  0  0  0  0
  -26.0893  -26.0048   19.0017 H   0  0  0  0  0  0
  -23.9863  -27.3075   19.0379 H   0  0  0  0  0  0
  -23.7176  -30.6095   19.4103 H   0  0  0  0  0  0
  -22.7348  -29.2534   19.8711 H   0  0  0  0  0  0
  -25.1283  -36.2003   25.0836 H   0  0  0  0  0  0
  -20.9960  -28.3215   24.1438 H   0  0  0  0  0  0
  -20.5650  -26.2247   23.3608 H   0  0  0  0  0  0
  -21.6637  -26.7417   22.1233 H   0  0  0  0  0  0
  -19.6901  -25.6289   21.1238 H   0  0  0  0  0  0
  -19.6691  -27.3191   20.6755 H   0  0  0  0  0  0
  -17.4189  -26.6661   21.4023 H   0  0  0  0  0  0
  -18.0321  -26.0039   22.9003 H   0  0  0  0  0  0
  -19.7908  -30.7235   24.2321 H   0  0  0  0  0  0
  -17.4993  -31.6266   24.5141 H   0  0  0  0  0  0
  -15.5336  -30.2988   23.7628 H   0  0  0  0  0  0
  -15.8653  -28.0805   22.7081 H   0  0  0  0  0  0
  -24.5889  -30.7084   25.7838 H   0  0  0  0  0  0
  -24.8993  -32.2813   26.5074 H   0  0  0  0  0  0
  -25.8121  -30.8739   27.0224 H   0  0  0  0  0  0
  -26.2870  -29.6795   24.1208 H   0  0  0  0  0  0
  -27.4134  -29.7327   25.4583 H   0  0  0  0  0  0
  -27.8686  -30.4405   23.9273 H   0  0  0  0  0  0
  -27.2708  -33.3601   26.2120 H   0  0  0  0  0  0
  -28.3819  -32.6897   25.0276 H   0  0  0  0  0  0
  -28.0789  -31.8418   26.5350 H   0  0  0  0  0  0
  -28.2602  -38.0107   24.7524 H   0  0  0  0  0  0
  -28.1082  -36.2643   24.6263 H   0  0  0  0  0  0
  -27.2300  -37.1446   25.8856 H   0  0  0  0  0  0
  -20.9255  -29.8757   21.6970 H   0  0  0  0  0  0
  -26.0189  -38.2879   24.1432 H   0  0  0  0  0  0
  -29.3550  -15.2143   24.5004 H   0  0  0  0  0  0
  -30.9223  -15.8836   24.9357 H   0  0  0  0  0  0
  -30.7799  -17.5298   23.2294 H   0  0  0  0  0  0
  -29.0714  -17.3997   23.6183 H   0  0  0  0  0  0
  -30.6878  -13.6060   23.4070 H   0  0  0  0  0  0
  -31.9986  -14.7522   23.1221 H   0  0  0  0  0  0
  -28.6025  -15.9817   21.7913 H   0  0  0  0  0  0
  -33.2179  -25.6378   17.2786 H   0  0  0  0  0  0
  -32.8083  -27.3223   17.1915 H   0  0  0  0  0  0
  -31.5219  -26.1158   17.1567 H   0  0  0  0  0  0
  -33.8761  -23.7488   19.1792 H   0  0  0  0  0  0
  -32.3499  -23.9144   18.3343 H   0  0  0  0  0  0
  -31.1318  -23.2563   20.4590 H   0  0  0  0  0  0
  -32.6804  -22.8506   21.1623 H   0  0  0  0  0  0
  -33.0814  -21.2340   19.2606 H   0  0  0  0  0  0
  -31.4911  -21.6007   18.6337 H   0  0  0  0  0  0
  -30.4968  -20.8213   20.8441 H   0  0  0  0  0  0
  -32.0976  -20.3483   21.3500 H   0  0  0  0  0  0
  -30.0479  -27.7478   18.5460 H   0  0  0  0  0  0
  -30.1552  -28.9701   19.7704 H   0  0  0  0  0  0
  -32.1806  -18.7865   19.2924 H   0  0  0  0  0  0
  -30.5124  -19.2175   18.9866 H   0  0  0  0  0  0
  -32.2876  -27.8954   20.6287 H   0  0  0  0  0  0
  -32.4097  -28.5352   19.0308 H   0  0  0  0  0  0
  -29.5177  -27.4811   21.5349 H   0  0  0  0  0  0
  -30.1327  -26.0962   20.6952 H   0  0  0  0  0  0
  -31.3263  -18.1580   21.6583 H   0  0  0  0  0  0
  1 25  1  0  0  0
  1 30  2  0  0  0
  1 86  1  0  0  0
  2  3  1  0  0  0
  2 25  1  0  0  0
  2 91  1  0  0  0
  2 92  1  0  0  0
  3  4  1  0  0  0
  3 93  1  0  0  0
  3 94  1  0  0  0
  4  5  1  0  0  0
  4 95  1  0  0  0
  4 96  1  0  0  0
  5  6  1  0  0  0
  5 26  1  0  0  0
  5 97  1  0  0  0
  6 25  1  0  0  0
  6 98  1  0  0  0
  6 99  1  0  0  0
  7  8  2  0  0  0
  7 26  1  0  0  0
  7 29  1  0  0  0
  8  9  1  0  0  0
  8 22  1  0  0  0
  9 10  1  0  0  0
  9 27  2  0  0  0
 10 11  2  0  0  0
 10 15  1  0  0  0
 11 12  1  0  0  0
 11100  1  0  0  0
 12 13  2  0  0  0
 12101  1  0  0  0
 13 14  1  0  0  0
 13 31  1  0  0  0
 14 15  2  0  0  0
 14102  1  0  0  0
 15103  1  0  0  0
 16 17  2  0  0  0
 16 21  1  0  0  0
 16 31  1  0  0  0
 17 18  1  0  0  0
 17104  1  0  0  0
 18 19  2  0  0  0
 18105  1  0  0  0
 19 20  1  0  0  0
 19 24  1  0  0  0
 20 21  2  0  0  0
 20106  1  0  0  0
 21 23  1  0  0  0
 22 28  1  0  0  0
 22 32  2  0  0  0
 26 27  1  0  0  0
 28107  1  0  0  0
 28108  1  0  0  0
 29109  1  0  0  0
 29110  1  0  0  0
 33 34  1  0  0  0
 33 66  1  0  0  0
 33 70  2  0  0  0
 34 36  1  0  0  0
 34 59  1  0  0  0
 34111  1  0  0  0
 35 44  2  0  0  0
 35 45  1  0  0  0
 35 68  1  0  0  0
 36 56  1  0  0  0
 36112  1  0  0  0
 37 39  1  0  0  0
 37 47  1  0  0  0
 37 66  1  0  0  0
 37113  1  0  0  0
 38 43  2  0  0  0
 38 46  1  0  0  0
 38 47  1  0  0  0
 39 64  1  0  0  0
 39 67  2  0  0  0
 40 52  1  0  0  0
 40 53  2  0  0  0
 40 58  1  0  0  0
 41114  1  0  0  0
 41115  1  0  0  0
 41116  1  0  0  0
 41 48  1  0  0  0
 42 43  1  0  0  0
 42 66  1  0  0  0
 42117  1  0  0  0
 42118  1  0  0  0
 43 44  1  0  0  0
 44119  1  0  0  0
 45 46  2  0  0  0
 45120  1  0  0  0
 46121  1  0  0  0
 47122  1  0  0  0
 47123  1  0  0  0
 48 56  1  0  0  0
 48 65  1  0  0  0
 48124  1  0  0  0
 49 50  1  0  0  0
 49 53  1  0  0  0
 49 64  1  0  0  0
 49125  1  0  0  0
 50 51  1  0  0  0
 50126  1  0  0  0
 50127  1  0  0  0
 51 52  1  0  0  0
 51128  1  0  0  0
 51129  1  0  0  0
 52130  1  0  0  0
 52131  1  0  0  0
 53 54  1  0  0  0
 54 55  2  0  0  0
 54132  1  0  0  0
 55 57  1  0  0  0
 55133  1  0  0  0
 56 69  2  0  0  0
 57 58  2  0  0  0
 57134  1  0  0  0
 58135  1  0  0  0
 59 60  1  0  0  0
 59 61  1  0  0  0
 59 62  1  0  0  0
 60136  1  0  0  0
 60137  1  0  0  0
 60138  1  0  0  0
 61139  1  0  0  0
 61140  1  0  0  0
 61141  1  0  0  0
 62142  1  0  0  0
 62143  1  0  0  0
 62144  1  0  0  0
 63 65  1  0  0  0
 63145  1  0  0  0
 63146  1  0  0  0
 63147  1  0  0  0
 64148  1  0  0  0
 65149  1  0  0  0
 68 85  1  0  0  0
 71 87  1  0  0  0
 71 89  2  0  0  0
 71 76  1  0  0  0
 72 78  1  0  0  0
 72 88  1  0  0  0
 72 90  2  0  0  0
 73 74  1  0  0  0
 73 75  1  0  0  0
 73150  1  0  0  0
 73151  1  0  0  0
 74 76  1  0  0  0
 74152  1  0  0  0
 74153  1  0  0  0
 75 86  1  0  0  0
 75154  1  0  0  0
 75155  1  0  0  0
 76 86  1  0  0  0
 76156  1  0  0  0
 77 88  1  0  0  0
 77157  1  0  0  0
 77158  1  0  0  0
 77159  1  0  0  0
 78 79  1  0  0  0
 78160  1  0  0  0
 78161  1  0  0  0
 79 80  1  0  0  0
 79162  1  0  0  0
 79163  1  0  0  0
 80 81  1  0  0  0
 80164  1  0  0  0
 80165  1  0  0  0
 81 83  1  0  0  0
 81166  1  0  0  0
 81167  1  0  0  0
 82 84  1  0  0  0
 82 85  1  0  0  0
 82168  1  0  0  0
 82169  1  0  0  0
 83 87  1  0  0  0
 83170  1  0  0  0
 83171  1  0  0  0
 84 88  1  0  0  0
 84172  1  0  0  0
 84173  1  0  0  0
 85174  1  0  0  0
 85175  1  0  0  0
 87176  1  0  0  0
M  ISO  4   1 100  68 101  85 101  86 100
M  END
> <chiral flag>
0

> <version>
0

> <s_m_source_file>
/data/baiqing/PycharmProjects/Reinvent-master-3.2/result/LINK_invent/BTK/process_docking_weight1_custom_sum_contain_oxygen_bond_distance_aromatic_linkinvent_7_9_3/rearranged_h_0016.sdf

> <i_m_source_file_index>
82

> <r_mmod_Potential_Energy-OPLS-2005>
-12.7275362014771

> <r_mmod_Stretch_Energy-OPLS-2005>
34.9655380249023

> <r_mmod_Bend_Energy-OPLS-2005>
127.762329101562

> <r_mmod_Torsional_Energy-OPLS-2005>
326.997039794922

> <r_mmod_Improper_Torsional_Energy-OPLS-2005>
2.96579813957214

> <r_mmod_Van_der_Waal_Energy-OPLS-2005>
142.125

> <r_mmod_Electrostatic_Energy-OPLS-2005>
-422.421936035156

> <r_mmod_Solvation_Energy-OPLS-2005>
-232.830444335938

> <b_mmod_Minimization_Converged-OPLS-2005>
0

> <r_mmod_RMS_Derivative-OPLS-2005>
4.11358642578125

$$$$
82
                    3D
 Structure written by MMmdl.
161169  0  0  1  0            999 V2000
  -30.5343  -14.8931   20.4315 C   0  0  0  0  0  0
  -30.4474  -12.5480   19.4947 C   0  0  0  0  0  0
  -29.5227  -12.5290   18.2548 C   0  0  0  0  0  0
  -28.0536  -12.3213   18.6695 C   0  0  0  0  0  0
  -27.6388  -13.2393   19.8488 C   0  0  2  0  0  0
  -28.6816  -13.2182   20.9885 C   0  0  0  0  0  0
  -25.2506  -13.8209   20.5711 C   0  0  0  0  0  0
  -24.1801  -13.0440   20.9226 C   0  0  0  0  0  0
  -24.6406  -11.6925   20.8758 C   0  0  0  0  0  0
  -23.9083  -10.4295   21.0408 C   0  0  0  0  0  0
  -24.3628   -9.4208   21.9186 C   0  0  0  0  0  0
  -23.6300   -8.2242   22.0751 C   0  0  0  0  0  0
  -22.4283   -8.0282   21.3538 C   0  0  0  0  0  0
  -21.9925   -9.0260   20.4641 C   0  0  0  0  0  0
  -22.7256  -10.2140   20.3054 C   0  0  0  0  0  0
  -21.6857   -6.0740   22.5282 C   0  0  0  0  0  0
  -21.4013   -6.5643   23.8217 C   0  0  0  0  0  0
  -21.3659   -5.6793   24.9179 C   0  0  0  0  0  0
  -21.6045   -4.3055   24.7229 C   0  0  0  0  0  0
  -21.8817   -3.8150   23.4349 C   0  0  0  0  0  0
  -21.9193   -4.6967   22.3406 C   0  0  0  0  0  0
  -22.7822  -13.5219   21.1882 C   0  0  0  0  0  0
  -22.1661   -4.2154   21.0981 F   0  0  0  0  0  0
  -21.5630   -3.4537   25.7741 F   0  0  0  0  0  0
  -29.9700  -13.6225   20.4073 N   0  0  0  0  0  0
  -26.2930  -12.9424   20.3278 N   0  0  0  0  0  0
  -25.9337  -11.6563   20.5749 N   0  0  0  0  0  0
  -22.0468  -12.8199   22.0432 N   0  0  0  0  0  0
  -25.4195  -15.1933   20.4147 N   0  0  0  0  0  0
  -31.7164  -15.0099   20.0908 O   0  0  0  0  0  0
  -21.6641   -6.8883   21.4242 O   0  0  0  0  0  0
  -22.3505  -14.5522   20.6728 O   0  0  0  0  0  0
  -24.6417  -31.8451   23.1891 C   0  0  0  0  0  0
  -25.9201  -32.4693   23.8257 C   0  0  1  0  0  0
  -27.2202  -27.1583   20.1337 C   0  0  0  0  0  0
  -25.5966  -33.8500   24.2177 N   0  0  0  0  0  0
  -23.4417  -30.4670   21.5343 C   0  0  2  0  0  0
  -24.8898  -28.8971   20.1042 C   0  0  0  0  0  0
  -22.7546  -29.4551   22.4851 C   0  0  0  0  0  0
  -18.0296  -28.1397   22.8469 C   0  0  0  0  0  0
  -24.1491  -36.7258   23.2638 C   0  0  0  0  0  0
  -25.9961  -30.7248   21.3844 C   0  0  0  0  0  0
  -26.0656  -29.3391   20.7223 C   0  0  0  0  0  0
  -27.2273  -28.4840   20.7237 C   0  0  0  0  0  0
  -26.0160  -26.8109   19.4809 C   0  0  0  0  0  0
  -24.8772  -27.6457   19.4695 C   0  0  0  0  0  0
  -23.6655  -29.7984   20.1518 C   0  0  0  0  0  0
  -25.4124  -36.3023   24.0310 C   0  0  1  0  0  0
  -20.5904  -28.3715   23.1227 C   0  0  2  0  0  0
  -20.6782  -26.9419   22.5401 C   0  0  0  0  0  0
  -19.5764  -26.6378   21.5203 C   0  0  0  0  0  0
  -18.1943  -26.7932   22.1612 C   0  0  0  0  0  0
  -19.1555  -28.8874   23.2840 C   0  0  0  0  0  0
  -18.9479  -30.1470   23.8864 C   0  0  0  0  0  0
  -17.6483  -30.6596   24.0558 C   0  0  0  0  0  0
  -25.9075  -34.9408   23.5048 C   0  0  0  0  0  0
  -16.5371  -29.9092   23.6338 C   0  0  0  0  0  0
  -16.7285  -28.6512   23.0352 C   0  0  0  0  0  0
  -26.4528  -31.6572   25.0704 C   0  0  0  0  0  0
  -25.3717  -31.3773   26.1405 C   0  0  0  0  0  0
  -27.0405  -30.2971   24.6282 C   0  0  0  0  0  0
  -27.6038  -32.4357   25.7504 C   0  0  0  0  0  0
  -27.5579  -37.1779   24.8464 C   0  0  0  0  0  0
  -21.4240  -29.3049   22.3608 N   0  0  0  0  0  0
  -26.4280  -37.3744   23.9416 N   0  0  0  0  0  0
  -24.7128  -31.0326   22.0915 N   0  0  0  0  0  0
  -23.4201  -28.8086   23.2981 O   0  0  0  0  0  0
  -28.3021  -26.2145   20.2422 O   0  0  0  0  0  0
  -26.5662  -34.8908   22.4625 O   0  0  0  0  0  0
  -23.5549  -32.1323   23.7139 O   0  0  0  0  0  0
  -29.7287  -19.6327   19.1457 C   0  0  0  0  0  0
  -29.9271  -18.2058   19.3041 C   0  0  0  0  0  0
  -29.1331  -19.8892   21.4149 C   0  0  0  0  0  0
  -29.3286  -18.4382   21.5893 C   0  0  0  0  0  0
  -29.3338  -20.5836   20.1599 C   0  0  0  0  0  0
  -29.7277  -17.5219   20.5426 C   0  0  0  0  0  0
  -30.3451  -17.4057   18.0826 C   0  0  0  0  0  0
  -28.7278  -20.7112   22.6353 C   0  0  0  0  0  0
  -29.1163  -17.8313   22.9756 C   0  0  0  0  0  0
  -30.2817  -22.4084   18.8589 C   0  0  0  0  0  0
  -28.6876  -23.3357   20.5391 C   0  0  0  0  0  0
  -28.3404  -24.7606   19.7030 C   0  0  0  0  0  0
  -29.7068  -16.0017   20.7171 N   0  0  0  0  0  0
  -29.2492  -22.0529   19.8378 N   0  0  0  0  0  0
  -31.4816  -12.7086   19.1864 H   0  0  0  0  0  0
  -30.4354  -11.5827   20.0038 H   0  0  0  0  0  0
  -29.8324  -11.7418   17.5662 H   0  0  0  0  0  0
  -29.6190  -13.4699   17.7108 H   0  0  0  0  0  0
  -27.9415  -11.2762   18.9625 H   0  0  0  0  0  0
  -27.3901  -12.4721   17.8168 H   0  0  0  0  0  0
  -27.6193  -14.2502   19.4414 H   0  0  0  0  0  0
  -28.7523  -12.2257   21.4367 H   0  0  0  0  0  0
  -28.3883  -13.8952   21.7917 H   0  0  0  0  0  0
  -25.2772   -9.5684   22.4763 H   0  0  0  0  0  0
  -24.0012   -7.4636   22.7471 H   0  0  0  0  0  0
  -21.0854   -8.8782   19.8950 H   0  0  0  0  0  0
  -22.3714  -10.9680   19.6161 H   0  0  0  0  0  0
  -21.2001   -7.6149   23.9725 H   0  0  0  0  0  0
  -21.1485   -6.0521   25.9084 H   0  0  0  0  0  0
  -22.0594   -2.7612   23.2851 H   0  0  0  0  0  0
  -22.4089  -11.9859   22.4810 H   0  0  0  0  0  0
  -21.1088  -13.1218   22.2644 H   0  0  0  0  0  0
  -24.6492  -15.8439   20.5253 H   0  0  0  0  0  0
  -26.2628  -15.6369   20.0739 H   0  0  0  0  0  0
  -26.7272  -32.5294   23.0983 H   0  0  0  0  0  0
  -25.0091  -33.9603   25.0308 H   0  0  0  0  0  0
  -22.7433  -31.2934   21.3852 H   0  0  0  0  0  0
  -23.3751  -35.9594   23.3286 H   0  0  0  0  0  0
  -24.3567  -36.8911   22.2055 H   0  0  0  0  0  0
  -23.7257  -37.6450   23.6696 H   0  0  0  0  0  0
  -26.1502  -31.4833   20.6154 H   0  0  0  0  0  0
  -26.8668  -30.7702   22.0268 H   0  0  0  0  0  0
  -28.1230  -28.8181   21.2274 H   0  0  0  0  0  0
  -25.9004  -25.8571   18.9946 H   0  0  0  0  0  0
  -23.9798  -27.2998   18.9755 H   0  0  0  0  0  0
  -23.7973  -30.5779   19.4005 H   0  0  0  0  0  0
  -22.7790  -29.2421   19.8408 H   0  0  0  0  0  0
  -25.1307  -36.1844   25.0803 H   0  0  0  0  0  0
  -20.9992  -28.3326   24.1345 H   0  0  0  0  0  0
  -20.5689  -26.2325   23.3620 H   0  0  0  0  0  0
  -21.6649  -26.7444   22.1194 H   0  0  0  0  0  0
  -19.6927  -25.6280   21.1262 H   0  0  0  0  0  0
  -19.6713  -27.3160   20.6708 H   0  0  0  0  0  0
  -17.4206  -26.6673   21.4017 H   0  0  0  0  0  0
  -18.0347  -26.0080   22.9013 H   0  0  0  0  0  0
  -19.7970  -30.7286   24.2219 H   0  0  0  0  0  0
  -17.5050  -31.6274   24.5163 H   0  0  0  0  0  0
  -15.5372  -30.2988   23.7691 H   0  0  0  0  0  0
  -15.8681  -28.0840   22.7066 H   0  0  0  0  0  0
  -24.5888  -30.7119   25.7737 H   0  0  0  0  0  0
  -24.8908  -32.2961   26.4768 H   0  0  0  0  0  0
  -25.7987  -30.8993   27.0227 H   0  0  0  0  0  0
  -26.3023  -29.6675   24.1289 H   0  0  0  0  0  0
  -27.4013  -29.7285   25.4863 H   0  0  0  0  0  0
  -27.8929  -30.4202   23.9595 H   0  0  0  0  0  0
  -27.2597  -33.3676   26.2008 H   0  0  0  0  0  0
  -28.3881  -32.6897   25.0362 H   0  0  0  0  0  0
  -28.0665  -31.8540   26.5489 H   0  0  0  0  0  0
  -28.2562  -38.0108   24.7520 H   0  0  0  0  0  0
  -28.1100  -36.2628   24.6266 H   0  0  0  0  0  0
  -27.2293  -37.1394   25.8865 H   0  0  0  0  0  0
  -20.9437  -29.8784   21.6820 H   0  0  0  0  0  0
  -26.0143  -38.2804   24.1441 H   0  0  0  0  0  0
  -29.8934  -20.0103   18.1477 H   0  0  0  0  0  0
  -30.2909  -17.9987   17.1699 H   0  0  0  0  0  0
  -29.7073  -16.5331   17.9471 H   0  0  0  0  0  0
  -31.3751  -17.0652   18.1957 H   0  0  0  0  0  0
  -28.1274  -20.1478   23.3471 H   0  0  0  0  0  0
  -28.1037  -21.5554   22.3726 H   0  0  0  0  0  0
  -29.6125  -21.0847   23.1515 H   0  0  0  0  0  0
  -29.5818  -18.4438   23.7480 H   0  0  0  0  0  0
  -29.5640  -16.8440   23.0844 H   0  0  0  0  0  0
  -28.0520  -17.7374   23.1954 H   0  0  0  0  0  0
  -31.1622  -21.7663   18.9266 H   0  0  0  0  0  0
  -30.6605  -23.4197   19.0001 H   0  0  0  0  0  0
  -29.8849  -22.3413   17.8447 H   0  0  0  0  0  0
  -27.7569  -23.0716   21.0377 H   0  0  0  0  0  0
  -29.3928  -23.5814   21.3340 H   0  0  0  0  0  0
  -27.4503  -24.5486   19.1201 H   0  0  0  0  0  0
  -29.0994  -24.8582   18.9308 H   0  0  0  0  0  0
  -28.8393  -15.6826   21.1191 H   0  0  0  0  0  0
  1 25  1  0  0  0
  1 30  2  0  0  0
  1 83  1  0  0  0
  2  3  1  0  0  0
  2 25  1  0  0  0
  2 85  1  0  0  0
  2 86  1  0  0  0
  3  4  1  0  0  0
  3 87  1  0  0  0
  3 88  1  0  0  0
  4  5  1  0  0  0
  4 89  1  0  0  0
  4 90  1  0  0  0
  5  6  1  0  0  0
  5 26  1  0  0  0
  5 91  1  0  0  0
  6 25  1  0  0  0
  6 92  1  0  0  0
  6 93  1  0  0  0
  7  8  2  0  0  0
  7 26  1  0  0  0
  7 29  1  0  0  0
  8  9  1  0  0  0
  8 22  1  0  0  0
  9 10  1  0  0  0
  9 27  2  0  0  0
 10 11  2  0  0  0
 10 15  1  0  0  0
 11 12  1  0  0  0
 11 94  1  0  0  0
 12 13  2  0  0  0
 12 95  1  0  0  0
 13 14  1  0  0  0
 13 31  1  0  0  0
 14 15  2  0  0  0
 14 96  1  0  0  0
 15 97  1  0  0  0
 16 17  2  0  0  0
 16 21  1  0  0  0
 16 31  1  0  0  0
 17 18  1  0  0  0
 17 98  1  0  0  0
 18 19  2  0  0  0
 18 99  1  0  0  0
 19 20  1  0  0  0
 19 24  1  0  0  0
 20 21  2  0  0  0
 20100  1  0  0  0
 21 23  1  0  0  0
 22 28  1  0  0  0
 22 32  2  0  0  0
 26 27  1  0  0  0
 28101  1  0  0  0
 28102  1  0  0  0
 29103  1  0  0  0
 29104  1  0  0  0
 33 34  1  0  0  0
 33 66  1  0  0  0
 33 70  2  0  0  0
 34 36  1  0  0  0
 34 59  1  0  0  0
 34105  1  0  0  0
 35 44  2  0  0  0
 35 45  1  0  0  0
 35 68  1  0  0  0
 36 56  1  0  0  0
 36106  1  0  0  0
 37 39  1  0  0  0
 37 47  1  0  0  0
 37 66  1  0  0  0
 37107  1  0  0  0
 38 43  2  0  0  0
 38 46  1  0  0  0
 38 47  1  0  0  0
 39 64  1  0  0  0
 39 67  2  0  0  0
 40 52  1  0  0  0
 40 53  2  0  0  0
 40 58  1  0  0  0
 41108  1  0  0  0
 41109  1  0  0  0
 41110  1  0  0  0
 41 48  1  0  0  0
 42 43  1  0  0  0
 42 66  1  0  0  0
 42111  1  0  0  0
 42112  1  0  0  0
 43 44  1  0  0  0
 44113  1  0  0  0
 45 46  2  0  0  0
 45114  1  0  0  0
 46115  1  0  0  0
 47116  1  0  0  0
 47117  1  0  0  0
 48 56  1  0  0  0
 48 65  1  0  0  0
 48118  1  0  0  0
 49 50  1  0  0  0
 49 53  1  0  0  0
 49 64  1  0  0  0
 49119  1  0  0  0
 50 51  1  0  0  0
 50120  1  0  0  0
 50121  1  0  0  0
 51 52  1  0  0  0
 51122  1  0  0  0
 51123  1  0  0  0
 52124  1  0  0  0
 52125  1  0  0  0
 53 54  1  0  0  0
 54 55  2  0  0  0
 54126  1  0  0  0
 55 57  1  0  0  0
 55127  1  0  0  0
 56 69  2  0  0  0
 57 58  2  0  0  0
 57128  1  0  0  0
 58129  1  0  0  0
 59 60  1  0  0  0
 59 61  1  0  0  0
 59 62  1  0  0  0
 60130  1  0  0  0
 60131  1  0  0  0
 60132  1  0  0  0
 61133  1  0  0  0
 61134  1  0  0  0
 61135  1  0  0  0
 62136  1  0  0  0
 62137  1  0  0  0
 62138  1  0  0  0
 63 65  1  0  0  0
 63139  1  0  0  0
 63140  1  0  0  0
 63141  1  0  0  0
 64142  1  0  0  0
 65143  1  0  0  0
 68 82  1  0  0  0
 71 72  2  0  0  0
 71 75  1  0  0  0
 71144  1  0  0  0
 72 76  1  0  0  0
 72 77  1  0  0  0
 73 74  1  0  0  0
 73 75  2  0  0  0
 73 78  1  0  0  0
 74 76  2  0  0  0
 74 79  1  0  0  0
 75 84  1  0  0  0
 76 83  1  0  0  0
 77145  1  0  0  0
 77146  1  0  0  0
 77147  1  0  0  0
 78148  1  0  0  0
 78149  1  0  0  0
 78150  1  0  0  0
 79151  1  0  0  0
 79152  1  0  0  0
 79153  1  0  0  0
 80 84  1  0  0  0
 80154  1  0  0  0
 80155  1  0  0  0
 80156  1  0  0  0
 81 82  1  0  0  0
 81 84  1  0  0  0
 81157  1  0  0  0
 81158  1  0  0  0
 82159  1  0  0  0
 82160  1  0  0  0
 83161  1  0  0  0
M  ISO  4   1 100  68 101  82 101  83 100
M  END
> <chiral flag>
0

> <version>
0

> <s_m_source_file>
/data/baiqing/PycharmProjects/Reinvent-master-3.2/result/LINK_invent/BTK/process_docking_weight1_custom_sum_contain_oxygen_bond_distance_aromatic_linkinvent_7_9_3/rearranged_h_0016.sdf

> <i_m_source_file_index>
83

> <r_mmod_Potential_Energy-OPLS-2005>
429.080322265625

> <r_mmod_Stretch_Energy-OPLS-2005>
229.693862915039

> <r_mmod_Bend_Energy-OPLS-2005>
285.918975830078

> <r_mmod_Torsional_Energy-OPLS-2005>
227.821197509766

> <r_mmod_Improper_Torsional_Energy-OPLS-2005>
5.57751417160034

> <r_mmod_Van_der_Waal_Energy-OPLS-2005>
156.403823852539

> <r_mmod_Electrostatic_Energy-OPLS-2005>
-412.012420654297

> <r_mmod_Solvation_Energy-OPLS-2005>
-225.614318847656

> <b_mmod_Minimization_Converged-OPLS-2005>
0

> <r_mmod_RMS_Derivative-OPLS-2005>
1.65537893772125

$$$$
83
                    3D
 Structure written by MMmdl.
162170  0  0  1  0            999 V2000
  -30.6435  -14.7253   20.4840 C   0  0  0  0  0  0
  -30.4218  -12.4470   19.4758 C   0  0  0  0  0  0
  -29.5124  -12.5274   18.2322 C   0  0  0  0  0  0
  -28.0355  -12.3542   18.6385 C   0  0  0  0  0  0
  -27.6431  -13.2363   19.8556 C   0  0  2  0  0  0
  -28.6878  -13.1598   20.9916 C   0  0  0  0  0  0
  -25.2505  -13.8199   20.5658 C   0  0  0  0  0  0
  -24.1819  -13.0435   20.9182 C   0  0  0  0  0  0
  -24.6420  -11.6910   20.8717 C   0  0  0  0  0  0
  -23.9089  -10.4290   21.0368 C   0  0  0  0  0  0
  -24.3636   -9.4209   21.9159 C   0  0  0  0  0  0
  -23.6306   -8.2251   22.0744 C   0  0  0  0  0  0
  -22.4285   -8.0286   21.3532 C   0  0  0  0  0  0
  -21.9916   -9.0257   20.4632 C   0  0  0  0  0  0
  -22.7254  -10.2130   20.3031 C   0  0  0  0  0  0
  -21.6861   -6.0729   22.5278 C   0  0  0  0  0  0
  -21.4021   -6.5631   23.8213 C   0  0  0  0  0  0
  -21.3668   -5.6782   24.9178 C   0  0  0  0  0  0
  -21.6041   -4.3046   24.7226 C   0  0  0  0  0  0
  -21.8824   -3.8135   23.4348 C   0  0  0  0  0  0
  -21.9196   -4.6951   22.3400 C   0  0  0  0  0  0
  -22.7836  -13.5209   21.1848 C   0  0  0  0  0  0
  -22.1659   -4.2137   21.0976 F   0  0  0  0  0  0
  -21.5636   -3.4536   25.7742 F   0  0  0  0  0  0
  -29.9888  -13.5133   20.4109 N   0  0  0  0  0  0
  -26.2950  -12.9422   20.3287 N   0  0  0  0  0  0
  -25.9350  -11.6549   20.5721 N   0  0  0  0  0  0
  -22.0493  -12.8200   22.0405 N   0  0  0  0  0  0
  -25.4142  -15.1923   20.4028 N   0  0  0  0  0  0
  -31.8201  -14.7806   20.1223 O   0  0  0  0  0  0
  -21.6648   -6.8880   21.4241 O   0  0  0  0  0  0
  -22.3512  -14.5509   20.6688 O   0  0  0  0  0  0
  -24.6312  -31.8548   23.1999 C   0  0  0  0  0  0
  -25.9118  -32.4752   23.8350 C   0  0  1  0  0  0
  -27.2182  -27.2603   20.1295 C   0  0  0  0  0  0
  -25.5876  -33.8556   24.2216 N   0  0  0  0  0  0
  -23.4336  -30.4782   21.5389 C   0  0  2  0  0  0
  -24.8824  -28.9312   20.1051 C   0  0  0  0  0  0
  -22.7532  -29.4582   22.4863 C   0  0  0  0  0  0
  -18.0300  -28.1388   22.8471 C   0  0  0  0  0  0
  -24.1463  -36.7264   23.2671 C   0  0  0  0  0  0
  -25.9840  -30.7657   21.3909 C   0  0  0  0  0  0
  -26.0541  -29.3944   20.7171 C   0  0  0  0  0  0
  -27.2240  -28.5698   20.7182 C   0  0  0  0  0  0
  -26.0322  -26.8797   19.4646 C   0  0  0  0  0  0
  -24.8767  -27.6808   19.4700 C   0  0  0  0  0  0
  -23.6560  -29.8189   20.1526 C   0  0  0  0  0  0
  -25.4095  -36.3063   24.0341 C   0  0  1  0  0  0
  -20.5919  -28.3682   23.1229 C   0  0  2  0  0  0
  -20.6763  -26.9402   22.5400 C   0  0  0  0  0  0
  -19.5739  -26.6386   21.5184 C   0  0  0  0  0  0
  -18.1918  -26.7924   22.1622 C   0  0  0  0  0  0
  -19.1564  -28.8853   23.2848 C   0  0  0  0  0  0
  -18.9507  -30.1437   23.8888 C   0  0  0  0  0  0
  -17.6513  -30.6574   24.0557 C   0  0  0  0  0  0
  -25.9054  -34.9442   23.5100 C   0  0  0  0  0  0
  -16.5383  -29.9106   23.6324 C   0  0  0  0  0  0
  -16.7305  -28.6516   23.0342 C   0  0  0  0  0  0
  -26.4453  -31.6644   25.0786 C   0  0  0  0  0  0
  -25.3626  -31.3847   26.1480 C   0  0  0  0  0  0
  -27.0332  -30.3058   24.6377 C   0  0  0  0  0  0
  -27.5958  -32.4490   25.7522 C   0  0  0  0  0  0
  -27.5546  -37.1764   24.8476 C   0  0  0  0  0  0
  -21.4228  -29.3055   22.3621 N   0  0  0  0  0  0
  -26.4240  -37.3780   23.9453 N   0  0  0  0  0  0
  -24.7008  -31.0517   22.0967 N   0  0  0  0  0  0
  -23.4215  -28.8096   23.2961 O   0  0  0  0  0  0
  -28.3032  -26.3544   20.2243 O   0  0  0  0  0  0
  -26.5685  -34.8908   22.4702 O   0  0  0  0  0  0
  -23.5454  -32.1412   23.7260 O   0  0  0  0  0  0
  -31.7170  -17.6014   21.0979 C   0  0  0  0  0  0
  -32.2100  -18.9177   21.1737 C   0  0  0  0  0  0
  -29.9696  -19.8713   20.7419 C   0  0  0  0  0  0
  -30.3671  -17.3164   20.8026 C   0  0  0  0  0  0
  -31.3557  -20.0314   21.0012 C   0  0  0  0  0  0
  -29.4995  -18.4838   20.6404 C   0  0  0  0  0  0
  -33.6852  -19.1306   21.4741 C   0  0  0  0  0  0
  -30.5402  -24.5714   19.6191 C   0  0  0  0  0  0
  -27.0468  -24.4645   21.2669 C   0  0  0  0  0  0
  -29.0525  -21.1984   20.7733 C   0  0  0  0  0  0
  -29.3768  -23.8850   20.3615 C   0  0  1  0  0  0
  -28.0854  -24.8514   20.1918 C   0  0  2  0  0  0
  -29.9210  -15.8905   20.7422 N   0  0  0  0  0  0
  -29.3210  -22.4128   19.8635 N   0  3  0  0  0  0
  -32.0338  -21.6170   21.1627 Cl  0  0  0  0  0  0
  -27.8266  -18.1782   20.3345 Cl  0  0  0  0  0  0
  -31.4688  -12.5416   19.1816 H   0  0  0  0  0  0
  -30.3371  -11.4665   19.9471 H   0  0  0  0  0  0
  -29.7968  -11.7731   17.4972 H   0  0  0  0  0  0
  -29.6519  -13.4953   17.7457 H   0  0  0  0  0  0
  -27.8817  -11.3000   18.8769 H   0  0  0  0  0  0
  -27.3856  -12.5718   17.7897 H   0  0  0  0  0  0
  -27.6416  -14.2644   19.4936 H   0  0  0  0  0  0
  -28.7226  -12.1553   21.4161 H   0  0  0  0  0  0
  -28.4254  -13.8302   21.8106 H   0  0  0  0  0  0
  -25.2790   -9.5689   22.4724 H   0  0  0  0  0  0
  -24.0009   -7.4644   22.7469 H   0  0  0  0  0  0
  -21.0847   -8.8784   19.8938 H   0  0  0  0  0  0
  -22.3721  -10.9664   19.6133 H   0  0  0  0  0  0
  -21.2020   -7.6143   23.9716 H   0  0  0  0  0  0
  -21.1481   -6.0512   25.9081 H   0  0  0  0  0  0
  -22.0591   -2.7594   23.2856 H   0  0  0  0  0  0
  -22.4129  -11.9872   22.4810 H   0  0  0  0  0  0
  -21.1086  -13.1170   22.2573 H   0  0  0  0  0  0
  -24.6369  -15.8349   20.5129 H   0  0  0  0  0  0
  -26.2461  -15.6404   20.0423 H   0  0  0  0  0  0
  -26.7202  -32.5349   23.1080 H   0  0  0  0  0  0
  -24.9850  -33.9690   25.0236 H   0  0  0  0  0  0
  -22.7366  -31.3042   21.3830 H   0  0  0  0  0  0
  -23.3708  -35.9607   23.3369 H   0  0  0  0  0  0
  -24.3553  -36.8900   22.2092 H   0  0  0  0  0  0
  -23.7213  -37.6463   23.6698 H   0  0  0  0  0  0
  -26.1600  -31.5425   20.6437 H   0  0  0  0  0  0
  -26.8451  -30.7852   22.0489 H   0  0  0  0  0  0
  -28.1166  -28.9126   21.2232 H   0  0  0  0  0  0
  -25.9646  -25.9303   18.9602 H   0  0  0  0  0  0
  -23.9838  -27.3127   18.9841 H   0  0  0  0  0  0
  -23.8033  -30.6052   19.4114 H   0  0  0  0  0  0
  -22.7733  -29.2688   19.8275 H   0  0  0  0  0  0
  -25.1270  -36.1900   25.0827 H   0  0  0  0  0  0
  -21.0030  -28.3234   24.1346 H   0  0  0  0  0  0
  -20.5634  -26.2290   23.3599 H   0  0  0  0  0  0
  -21.6612  -26.7381   22.1205 H   0  0  0  0  0  0
  -19.6900  -25.6305   21.1220 H   0  0  0  0  0  0
  -19.6663  -27.3177   20.6680 H   0  0  0  0  0  0
  -17.4200  -26.6684   21.4011 H   0  0  0  0  0  0
  -18.0293  -26.0042   22.8998 H   0  0  0  0  0  0
  -19.7986  -30.7229   24.2252 H   0  0  0  0  0  0
  -17.5091  -31.6263   24.5140 H   0  0  0  0  0  0
  -15.5400  -30.3052   23.7594 H   0  0  0  0  0  0
  -15.8681  -28.0858   22.7056 H   0  0  0  0  0  0
  -24.5783  -30.7230   25.7803 H   0  0  0  0  0  0
  -24.8787  -32.3040   26.4831 H   0  0  0  0  0  0
  -25.7874  -30.9069   27.0330 H   0  0  0  0  0  0
  -26.2960  -29.6750   24.1421 H   0  0  0  0  0  0
  -27.4027  -29.7414   25.4952 H   0  0  0  0  0  0
  -27.8820  -30.4331   23.9654 H   0  0  0  0  0  0
  -27.2497  -33.3832   26.1953 H   0  0  0  0  0  0
  -28.3730  -32.7063   25.0312 H   0  0  0  0  0  0
  -28.0635  -31.8772   26.5553 H   0  0  0  0  0  0
  -28.2533  -38.0094   24.7555 H   0  0  0  0  0  0
  -28.1055  -36.2624   24.6213 H   0  0  0  0  0  0
  -27.2292  -37.1309   25.8888 H   0  0  0  0  0  0
  -20.9423  -29.8876   21.6909 H   0  0  0  0  0  0
  -26.0118  -38.2835   24.1523 H   0  0  0  0  0  0
  -32.4131  -16.7983   21.2938 H   0  0  0  0  0  0
  -34.2133  -18.1881   21.6215 H   0  0  0  0  0  0
  -33.8097  -19.7278   22.3774 H   0  0  0  0  0  0
  -34.1607  -19.6567   20.6475 H   0  0  0  0  0  0
  -30.7300  -25.5744   20.0043 H   0  0  0  0  0  0
  -30.3252  -24.6731   18.5560 H   0  0  0  0  0  0
  -31.4781  -24.0219   19.7162 H   0  0  0  0  0  0
  -27.2277  -24.9900   22.2057 H   0  0  0  0  0  0
  -27.0678  -23.3939   21.4775 H   0  0  0  0  0  0
  -26.0276  -24.6910   20.9567 H   0  0  0  0  0  0
  -29.0807  -21.5550   21.8022 H   0  0  0  0  0  0
  -28.0164  -20.9084   20.6152 H   0  0  0  0  0  0
  -29.6603  -23.8609   21.4170 H   0  0  0  0  0  0
  -27.6754  -24.6097   19.2131 H   0  0  0  0  0  0
  -28.9289  -15.7517   20.8636 H   0  0  0  0  0  0
  -28.7489  -22.3438   19.0352 H   0  0  0  0  0  0
  -30.2637  -22.2454   19.5502 H   0  0  0  0  0  0
  1 25  1  0  0  0
  1 30  2  0  0  0
  1 83  1  0  0  0
  2  3  1  0  0  0
  2 25  1  0  0  0
  2 87  1  0  0  0
  2 88  1  0  0  0
  3  4  1  0  0  0
  3 89  1  0  0  0
  3 90  1  0  0  0
  4  5  1  0  0  0
  4 91  1  0  0  0
  4 92  1  0  0  0
  5  6  1  0  0  0
  5 26  1  0  0  0
  5 93  1  0  0  0
  6 25  1  0  0  0
  6 94  1  0  0  0
  6 95  1  0  0  0
  7  8  2  0  0  0
  7 26  1  0  0  0
  7 29  1  0  0  0
  8  9  1  0  0  0
  8 22  1  0  0  0
  9 10  1  0  0  0
  9 27  2  0  0  0
 10 11  2  0  0  0
 10 15  1  0  0  0
 11 12  1  0  0  0
 11 96  1  0  0  0
 12 13  2  0  0  0
 12 97  1  0  0  0
 13 14  1  0  0  0
 13 31  1  0  0  0
 14 15  2  0  0  0
 14 98  1  0  0  0
 15 99  1  0  0  0
 16 17  2  0  0  0
 16 21  1  0  0  0
 16 31  1  0  0  0
 17 18  1  0  0  0
 17100  1  0  0  0
 18 19  2  0  0  0
 18101  1  0  0  0
 19 20  1  0  0  0
 19 24  1  0  0  0
 20 21  2  0  0  0
 20102  1  0  0  0
 21 23  1  0  0  0
 22 28  1  0  0  0
 22 32  2  0  0  0
 26 27  1  0  0  0
 28103  1  0  0  0
 28104  1  0  0  0
 29105  1  0  0  0
 29106  1  0  0  0
 33 34  1  0  0  0
 33 66  1  0  0  0
 33 70  2  0  0  0
 34 36  1  0  0  0
 34 59  1  0  0  0
 34107  1  0  0  0
 35 44  2  0  0  0
 35 45  1  0  0  0
 35 68  1  0  0  0
 36 56  1  0  0  0
 36108  1  0  0  0
 37 39  1  0  0  0
 37 47  1  0  0  0
 37 66  1  0  0  0
 37109  1  0  0  0
 38 43  2  0  0  0
 38 46  1  0  0  0
 38 47  1  0  0  0
 39 64  1  0  0  0
 39 67  2  0  0  0
 40 52  1  0  0  0
 40 53  2  0  0  0
 40 58  1  0  0  0
 41110  1  0  0  0
 41111  1  0  0  0
 41112  1  0  0  0
 41 48  1  0  0  0
 42 43  1  0  0  0
 42 66  1  0  0  0
 42113  1  0  0  0
 42114  1  0  0  0
 43 44  1  0  0  0
 44115  1  0  0  0
 45 46  2  0  0  0
 45116  1  0  0  0
 46117  1  0  0  0
 47118  1  0  0  0
 47119  1  0  0  0
 48 56  1  0  0  0
 48 65  1  0  0  0
 48120  1  0  0  0
 49 50  1  0  0  0
 49 53  1  0  0  0
 49 64  1  0  0  0
 49121  1  0  0  0
 50 51  1  0  0  0
 50122  1  0  0  0
 50123  1  0  0  0
 51 52  1  0  0  0
 51124  1  0  0  0
 51125  1  0  0  0
 52126  1  0  0  0
 52127  1  0  0  0
 53 54  1  0  0  0
 54 55  2  0  0  0
 54128  1  0  0  0
 55 57  1  0  0  0
 55129  1  0  0  0
 56 69  2  0  0  0
 57 58  2  0  0  0
 57130  1  0  0  0
 58131  1  0  0  0
 59 60  1  0  0  0
 59 61  1  0  0  0
 59 62  1  0  0  0
 60132  1  0  0  0
 60133  1  0  0  0
 60134  1  0  0  0
 61135  1  0  0  0
 61136  1  0  0  0
 61137  1  0  0  0
 62138  1  0  0  0
 62139  1  0  0  0
 62140  1  0  0  0
 63 65  1  0  0  0
 63141  1  0  0  0
 63142  1  0  0  0
 63143  1  0  0  0
 64144  1  0  0  0
 65145  1  0  0  0
 68 82  1  0  0  0
 71 72  2  0  0  0
 71 74  1  0  0  0
 71146  1  0  0  0
 72 75  1  0  0  0
 72 77  1  0  0  0
 73 75  2  0  0  0
 73 76  1  0  0  0
 73 80  1  0  0  0
 74 76  2  0  0  0
 74 83  1  0  0  0
 75 85  1  0  0  0
 76 86  1  0  0  0
 77147  1  0  0  0
 77148  1  0  0  0
 77149  1  0  0  0
 78150  1  0  0  0
 78151  1  0  0  0
 78152  1  0  0  0
 78 81  1  0  0  0
 79153  1  0  0  0
 79154  1  0  0  0
 79155  1  0  0  0
 79 82  1  0  0  0
 80 84  1  0  0  0
 80156  1  0  0  0
 80157  1  0  0  0
 81 82  1  0  0  0
 81 84  1  0  0  0
 81158  1  0  0  0
 82159  1  0  0  0
 83160  1  0  0  0
 84161  1  0  0  0
 84162  1  0  0  0
M  CHG  1  84   1
M  ISO  4   1 100  68 101  82 101  83 100
M  END
> <chiral flag>
0

> <version>
0

> <s_m_source_file>
/data/baiqing/PycharmProjects/Reinvent-master-3.2/result/LINK_invent/BTK/process_docking_weight1_custom_sum_contain_oxygen_bond_distance_aromatic_linkinvent_7_9_3/rearranged_h_0016.sdf

> <i_m_source_file_index>
84

> <r_mmod_Potential_Energy-OPLS-2005>
-1.5828720331192

> <r_mmod_Stretch_Energy-OPLS-2005>
140.673187255859

> <r_mmod_Bend_Energy-OPLS-2005>
179.414657592773

> <r_mmod_Torsional_Energy-OPLS-2005>
235.245483398438

> <r_mmod_Improper_Torsional_Energy-OPLS-2005>
5.93011331558228

> <r_mmod_Van_der_Waal_Energy-OPLS-2005>
146.082946777344

> <r_mmod_Electrostatic_Energy-OPLS-2005>
-357.897766113281

> <r_mmod_Solvation_Energy-OPLS-2005>
-433.694763183594

> <b_mmod_Minimization_Converged-OPLS-2005>
0

> <r_mmod_RMS_Derivative-OPLS-2005>
4.76440477371216

$$$$
84
                    3D
 Structure written by MMmdl.
156164  0  0  1  0            999 V2000
  -30.2958  -15.6029   20.3284 C   0  0  0  0  0  0
  -30.4274  -13.0502   19.5489 C   0  0  0  0  0  0
  -29.5514  -12.6589   18.3245 C   0  0  0  0  0  0
  -28.1211  -12.3068   18.7602 C   0  0  0  0  0  0
  -27.5975  -13.3065   19.8163 C   0  0  2  0  0  0
  -28.6139  -13.6148   20.9407 C   0  0  0  0  0  0
  -25.2323  -13.8287   20.5787 C   0  0  0  0  0  0
  -24.1710  -13.0433   20.9290 C   0  0  0  0  0  0
  -24.6414  -11.6944   20.8772 C   0  0  0  0  0  0
  -23.9121  -10.4291   21.0405 C   0  0  0  0  0  0
  -24.3654   -9.4203   21.9187 C   0  0  0  0  0  0
  -23.6317   -8.2243   22.0757 C   0  0  0  0  0  0
  -22.4298   -8.0287   21.3547 C   0  0  0  0  0  0
  -21.9951   -9.0258   20.4641 C   0  0  0  0  0  0
  -22.7292  -10.2133   20.3049 C   0  0  0  0  0  0
  -21.6857   -6.0744   22.5282 C   0  0  0  0  0  0
  -21.4017   -6.5643   23.8216 C   0  0  0  0  0  0
  -21.3663   -5.6796   24.9176 C   0  0  0  0  0  0
  -21.6051   -4.3059   24.7225 C   0  0  0  0  0  0
  -21.8819   -3.8148   23.4345 C   0  0  0  0  0  0
  -21.9194   -4.6972   22.3404 C   0  0  0  0  0  0
  -22.7721  -13.5165   21.1923 C   0  0  0  0  0  0
  -22.1659   -4.2160   21.0981 F   0  0  0  0  0  0
  -21.5630   -3.4537   25.7731 F   0  0  0  0  0  0
  -29.7991  -14.2282   20.2984 N   0  0  0  0  0  0
  -26.2766  -12.9611   20.3224 N   0  0  0  0  0  0
  -25.9358  -11.6682   20.5703 N   0  0  0  0  0  0
  -22.0381  -12.8134   22.0468 N   0  0  0  0  0  0
  -25.3918  -15.2030   20.4208 N   0  0  0  0  0  0
  -31.5256  -15.5740   20.1259 O   0  0  0  0  0  0
  -21.6649   -6.8893   21.4248 O   0  0  0  0  0  0
  -22.3394  -14.5461   20.6764 O   0  0  0  0  0  0
  -24.6833  -31.8008   23.1535 C   0  0  0  0  0  0
  -25.9420  -32.4481   23.8070 C   0  0  1  0  0  0
  -27.2265  -26.7129   20.2138 C   0  0  0  0  0  0
  -25.6000  -33.8301   24.1958 N   0  0  0  0  0  0
  -23.5096  -30.4035   21.5063 C   0  0  2  0  0  0
  -24.9681  -28.7479   20.1182 C   0  0  0  0  0  0
  -22.7766  -29.4317   22.4711 C   0  0  0  0  0  0
  -18.0333  -28.1425   22.8464 C   0  0  0  0  0  0
  -24.1474  -36.7143   23.2656 C   0  0  0  0  0  0
  -26.0893  -30.5383   21.4163 C   0  0  0  0  0  0
  -26.1563  -29.1034   20.7672 C   0  0  0  0  0  0
  -27.2717  -28.1136   20.7832 C   0  0  0  0  0  0
  -26.0062  -26.5663   19.5064 C   0  0  0  0  0  0
  -24.9316  -27.5048   19.4645 C   0  0  0  0  0  0
  -23.7642  -29.7023   20.1409 C   0  0  0  0  0  0
  -25.4129  -36.2894   24.0283 C   0  0  1  0  0  0
  -20.5972  -28.3782   23.1144 C   0  0  2  0  0  0
  -20.6798  -26.9443   22.5404 C   0  0  0  0  0  0
  -19.5776  -26.6375   21.5214 C   0  0  0  0  0  0
  -18.1952  -26.7961   22.1608 C   0  0  0  0  0  0
  -19.1602  -28.8929   23.2782 C   0  0  0  0  0  0
  -18.9509  -30.1514   23.8825 C   0  0  0  0  0  0
  -17.6504  -30.6616   24.0552 C   0  0  0  0  0  0
  -25.9117  -34.9291   23.4952 C   0  0  0  0  0  0
  -16.5391  -29.9099   23.6362 C   0  0  0  0  0  0
  -16.7317  -28.6519   23.0381 C   0  0  0  0  0  0
  -26.4594  -31.6526   25.0696 C   0  0  0  0  0  0
  -25.3649  -31.3828   26.1300 C   0  0  0  0  0  0
  -27.0549  -30.2882   24.6589 C   0  0  0  0  0  0
  -27.6033  -32.4393   25.7524 C   0  0  0  0  0  0
  -27.5549  -37.1719   24.8466 C   0  0  0  0  0  0
  -21.4413  -29.3033   22.3467 N   0  0  0  0  0  0
  -26.4246  -37.3669   23.9429 N   0  0  0  0  0  0
  -24.7838  -30.9462   22.0784 N   0  0  0  0  0  0
  -23.4212  -28.7908   23.3049 O   0  0  0  0  0  0
  -28.1789  -25.4890   20.2912 O   0  0  0  0  0  0
  -26.5747  -34.8867   22.4562 O   0  0  0  0  0  0
  -23.5854  -32.1070   23.6497 O   0  0  0  0  0  0
  -28.6256  -21.0988   21.3969 C   0  0  0  0  0  0
  -29.0721  -21.1204   19.1880 C   0  0  0  0  0  0
  -28.6284  -22.0658   20.2608 C   0  0  0  0  0  0
  -28.9485  -19.5907   21.4427 C   0  0  0  0  0  0
  -29.3963  -19.6091   19.2331 C   0  0  0  0  0  0
  -29.3826  -18.6416   20.3714 C   0  0  0  0  0  0
  -28.1793  -21.7384   22.7075 C   0  0  0  0  0  0
  -29.1564  -21.7905   17.8200 C   0  0  0  0  0  0
  -28.7738  -18.9168   22.7998 C   0  0  0  0  0  0
  -29.7286  -18.9527   17.9000 C   0  0  0  0  0  0
  -27.8670  -23.7765   20.1245 C   0  0  0  0  0  0
  -29.4709  -16.9166   20.4307 N   0  0  0  0  0  0
  -31.4278  -13.3041   19.1971 H   0  0  0  0  0  0
  -30.5687  -12.1938   20.2109 H   0  0  0  0  0  0
  -29.9976  -11.8242   17.7829 H   0  0  0  0  0  0
  -29.5194  -13.4977   17.6276 H   0  0  0  0  0  0
  -28.1404  -11.3029   19.1864 H   0  0  0  0  0  0
  -27.4538  -12.2668   17.8987 H   0  0  0  0  0  0
  -27.4675  -14.2358   19.2599 H   0  0  0  0  0  0
  -28.8595  -12.7226   21.5187 H   0  0  0  0  0  0
  -28.1860  -14.3289   21.6458 H   0  0  0  0  0  0
  -25.2791   -9.5678   22.4777 H   0  0  0  0  0  0
  -24.0020   -7.4639   22.7484 H   0  0  0  0  0  0
  -21.0889   -8.8778   19.8941 H   0  0  0  0  0  0
  -22.3752  -10.9671   19.6159 H   0  0  0  0  0  0
  -21.2006   -7.6149   23.9723 H   0  0  0  0  0  0
  -21.1490   -6.0520   25.9084 H   0  0  0  0  0  0
  -22.0596   -2.7610   23.2837 H   0  0  0  0  0  0
  -22.4013  -11.9802   22.4854 H   0  0  0  0  0  0
  -21.0986  -13.1131   22.2665 H   0  0  0  0  0  0
  -24.6152  -15.8487   20.5184 H   0  0  0  0  0  0
  -26.2209  -15.6396   20.0402 H   0  0  0  0  0  0
  -26.7509  -32.4963   23.0786 H   0  0  0  0  0  0
  -25.0101  -33.9336   25.0086 H   0  0  0  0  0  0
  -22.8354  -31.2412   21.3177 H   0  0  0  0  0  0
  -23.3766  -35.9437   23.3247 H   0  0  0  0  0  0
  -24.3542  -36.8889   22.2086 H   0  0  0  0  0  0
  -23.7200  -37.6283   23.6788 H   0  0  0  0  0  0
  -26.2879  -31.2643   20.6265 H   0  0  0  0  0  0
  -26.9417  -30.6091   22.0796 H   0  0  0  0  0  0
  -28.1638  -28.3905   21.3268 H   0  0  0  0  0  0
  -25.8383  -25.6254   19.0019 H   0  0  0  0  0  0
  -24.0355  -27.2261   18.9277 H   0  0  0  0  0  0
  -23.9400  -30.4622   19.3785 H   0  0  0  0  0  0
  -22.8701  -29.1678   19.8164 H   0  0  0  0  0  0
  -25.1335  -36.1641   25.0771 H   0  0  0  0  0  0
  -21.0042  -28.3403   24.1274 H   0  0  0  0  0  0
  -20.5663  -26.2403   23.3660 H   0  0  0  0  0  0
  -21.6662  -26.7391   22.1220 H   0  0  0  0  0  0
  -19.6917  -25.6262   21.1304 H   0  0  0  0  0  0
  -19.6723  -27.3135   20.6704 H   0  0  0  0  0  0
  -17.4230  -26.6734   21.3996 H   0  0  0  0  0  0
  -18.0312  -26.0108   22.8998 H   0  0  0  0  0  0
  -19.7989  -30.7348   24.2153 H   0  0  0  0  0  0
  -17.5065  -31.6290   24.5166 H   0  0  0  0  0  0
  -15.5390  -30.2983   23.7738 H   0  0  0  0  0  0
  -15.8712  -28.0819   22.7144 H   0  0  0  0  0  0
  -24.5887  -30.7120   25.7603 H   0  0  0  0  0  0
  -24.8764  -32.3037   26.4494 H   0  0  0  0  0  0
  -25.7821  -30.9162   27.0234 H   0  0  0  0  0  0
  -26.3276  -29.6485   24.1584 H   0  0  0  0  0  0
  -27.4010  -29.7344   25.5327 H   0  0  0  0  0  0
  -27.9238  -30.4050   24.0110 H   0  0  0  0  0  0
  -27.2581  -33.3789   26.1851 H   0  0  0  0  0  0
  -28.3975  -32.6805   25.0446 H   0  0  0  0  0  0
  -28.0549  -31.8685   26.5645 H   0  0  0  0  0  0
  -28.2516  -38.0059   24.7547 H   0  0  0  0  0  0
  -28.1087  -36.2585   24.6248 H   0  0  0  0  0  0
  -27.2261  -37.1309   25.8862 H   0  0  0  0  0  0
  -20.9707  -29.8722   21.6565 H   0  0  0  0  0  0
  -26.0056  -38.2698   24.1495 H   0  0  0  0  0  0
  -28.1422  -22.8253   22.6424 H   0  0  0  0  0  0
  -28.8724  -21.5141   23.5174 H   0  0  0  0  0  0
  -27.1842  -21.3931   22.9892 H   0  0  0  0  0  0
  -29.1861  -22.8765   17.9027 H   0  0  0  0  0  0
  -28.2929  -21.5277   17.2076 H   0  0  0  0  0  0
  -30.0613  -21.5122   17.2811 H   0  0  0  0  0  0
  -29.4813  -19.3244   23.5214 H   0  0  0  0  0  0
  -28.9498  -17.8429   22.7669 H   0  0  0  0  0  0
  -27.7629  -19.0604   23.1819 H   0  0  0  0  0  0
  -30.6780  -19.3253   17.5159 H   0  0  0  0  0  0
  -28.9497  -19.1523   17.1633 H   0  0  0  0  0  0
  -29.8177  -17.8700   17.9820 H   0  0  0  0  0  0
  -26.9974  -23.6673   20.7722 H   0  0  0  0  0  0
  -27.4241  -23.7361   19.1302 H   0  0  0  0  0  0
  -28.5439  -16.5814   20.6484 H   0  0  0  0  0  0
  1 25  1  0  0  0
  1 30  2  0  0  0
  1 82  1  0  0  0
  2  3  1  0  0  0
  2 25  1  0  0  0
  2 83  1  0  0  0
  2 84  1  0  0  0
  3  4  1  0  0  0
  3 85  1  0  0  0
  3 86  1  0  0  0
  4  5  1  0  0  0
  4 87  1  0  0  0
  4 88  1  0  0  0
  5  6  1  0  0  0
  5 26  1  0  0  0
  5 89  1  0  0  0
  6 25  1  0  0  0
  6 90  1  0  0  0
  6 91  1  0  0  0
  7  8  2  0  0  0
  7 26  1  0  0  0
  7 29  1  0  0  0
  8  9  1  0  0  0
  8 22  1  0  0  0
  9 10  1  0  0  0
  9 27  2  0  0  0
 10 11  2  0  0  0
 10 15  1  0  0  0
 11 12  1  0  0  0
 11 92  1  0  0  0
 12 13  2  0  0  0
 12 93  1  0  0  0
 13 14  1  0  0  0
 13 31  1  0  0  0
 14 15  2  0  0  0
 14 94  1  0  0  0
 15 95  1  0  0  0
 16 17  2  0  0  0
 16 21  1  0  0  0
 16 31  1  0  0  0
 17 18  1  0  0  0
 17 96  1  0  0  0
 18 19  2  0  0  0
 18 97  1  0  0  0
 19 20  1  0  0  0
 19 24  1  0  0  0
 20 21  2  0  0  0
 20 98  1  0  0  0
 21 23  1  0  0  0
 22 28  1  0  0  0
 22 32  2  0  0  0
 26 27  1  0  0  0
 28 99  1  0  0  0
 28100  1  0  0  0
 29101  1  0  0  0
 29102  1  0  0  0
 33 34  1  0  0  0
 33 66  1  0  0  0
 33 70  2  0  0  0
 34 36  1  0  0  0
 34 59  1  0  0  0
 34103  1  0  0  0
 35 44  2  0  0  0
 35 45  1  0  0  0
 35 68  1  0  0  0
 36 56  1  0  0  0
 36104  1  0  0  0
 37 39  1  0  0  0
 37 47  1  0  0  0
 37 66  1  0  0  0
 37105  1  0  0  0
 38 43  2  0  0  0
 38 46  1  0  0  0
 38 47  1  0  0  0
 39 64  1  0  0  0
 39 67  2  0  0  0
 40 52  1  0  0  0
 40 53  2  0  0  0
 40 58  1  0  0  0
 41106  1  0  0  0
 41107  1  0  0  0
 41108  1  0  0  0
 41 48  1  0  0  0
 42 43  1  0  0  0
 42 66  1  0  0  0
 42109  1  0  0  0
 42110  1  0  0  0
 43 44  1  0  0  0
 44111  1  0  0  0
 45 46  2  0  0  0
 45112  1  0  0  0
 46113  1  0  0  0
 47114  1  0  0  0
 47115  1  0  0  0
 48 56  1  0  0  0
 48 65  1  0  0  0
 48116  1  0  0  0
 49 50  1  0  0  0
 49 53  1  0  0  0
 49 64  1  0  0  0
 49117  1  0  0  0
 50 51  1  0  0  0
 50118  1  0  0  0
 50119  1  0  0  0
 51 52  1  0  0  0
 51120  1  0  0  0
 51121  1  0  0  0
 52122  1  0  0  0
 52123  1  0  0  0
 53 54  1  0  0  0
 54 55  2  0  0  0
 54124  1  0  0  0
 55 57  1  0  0  0
 55125  1  0  0  0
 56 69  2  0  0  0
 57 58  2  0  0  0
 57126  1  0  0  0
 58127  1  0  0  0
 59 60  1  0  0  0
 59 61  1  0  0  0
 59 62  1  0  0  0
 60128  1  0  0  0
 60129  1  0  0  0
 60130  1  0  0  0
 61131  1  0  0  0
 61132  1  0  0  0
 61133  1  0  0  0
 62134  1  0  0  0
 62135  1  0  0  0
 62136  1  0  0  0
 63 65  1  0  0  0
 63137  1  0  0  0
 63138  1  0  0  0
 63139  1  0  0  0
 64140  1  0  0  0
 65141  1  0  0  0
 68 81  1  0  0  0
 71 73  2  0  0  0
 71 74  1  0  0  0
 71 77  1  0  0  0
 72 73  1  0  0  0
 72 75  2  0  0  0
 72 78  1  0  0  0
 73 81  1  0  0  0
 74 76  2  0  0  0
 74 79  1  0  0  0
 75 76  1  0  0  0
 75 80  1  0  0  0
 76 82  1  0  0  0
 77142  1  0  0  0
 77143  1  0  0  0
 77144  1  0  0  0
 78145  1  0  0  0
 78146  1  0  0  0
 78147  1  0  0  0
 79148  1  0  0  0
 79149  1  0  0  0
 79150  1  0  0  0
 80151  1  0  0  0
 80152  1  0  0  0
 80153  1  0  0  0
 81154  1  0  0  0
 81155  1  0  0  0
 82156  1  0  0  0
M  ISO  4   1 100  68 101  81 101  82 100
M  END
> <chiral flag>
0

> <version>
0

> <s_m_source_file>
/data/baiqing/PycharmProjects/Reinvent-master-3.2/result/LINK_invent/BTK/process_docking_weight1_custom_sum_contain_oxygen_bond_distance_aromatic_linkinvent_7_9_3/rearranged_h_0016.sdf

> <i_m_source_file_index>
85

> <r_mmod_Potential_Energy-OPLS-2005>
2259.22241210938

> <r_mmod_Stretch_Energy-OPLS-2005>
940.248229980469

> <r_mmod_Bend_Energy-OPLS-2005>
638.989868164062

> <r_mmod_Torsional_Energy-OPLS-2005>
258.704620361328

> <r_mmod_Improper_Torsional_Energy-OPLS-2005>
9.39475345611572

> <r_mmod_Van_der_Waal_Energy-OPLS-2005>
142.759948730469

> <r_mmod_Electrostatic_Energy-OPLS-2005>
-390.464752197266

> <r_mmod_Solvation_Energy-OPLS-2005>
-210.310836791992

> <b_mmod_Minimization_Converged-OPLS-2005>
0

> <r_mmod_RMS_Derivative-OPLS-2005>
1.11194562911987

$$$$
85
                    3D
 Structure written by MMmdl.
159167  0  0  1  0            999 V2000
  -30.6236  -14.6253   20.4956 C   0  0  0  0  0  0
  -30.4380  -12.3812   19.4478 C   0  0  0  0  0  0
  -29.5066  -12.4980   18.2205 C   0  0  0  0  0  0
  -28.0290  -12.3418   18.6338 C   0  0  0  0  0  0
  -27.6545  -13.2125   19.8629 C   0  0  2  0  0  0
  -28.6985  -13.0600   20.9917 C   0  0  0  0  0  0
  -25.2573  -13.8149   20.5655 C   0  0  0  0  0  0
  -24.1842  -13.0433   20.9196 C   0  0  0  0  0  0
  -24.6404  -11.6903   20.8755 C   0  0  0  0  0  0
  -23.9065  -10.4289   21.0414 C   0  0  0  0  0  0
  -24.3615   -9.4205   21.9193 C   0  0  0  0  0  0
  -23.6292   -8.2242   22.0758 C   0  0  0  0  0  0
  -22.4277   -8.0282   21.3546 C   0  0  0  0  0  0
  -21.9911   -9.0256   20.4650 C   0  0  0  0  0  0
  -22.7238  -10.2137   20.3063 C   0  0  0  0  0  0
  -21.6853   -6.0740   22.5279 C   0  0  0  0  0  0
  -21.4011   -6.5644   23.8213 C   0  0  0  0  0  0
  -21.3656   -5.6796   24.9176 C   0  0  0  0  0  0
  -21.6039   -4.3056   24.7225 C   0  0  0  0  0  0
  -21.8822   -3.8151   23.4345 C   0  0  0  0  0  0
  -21.9195   -4.6968   22.3402 C   0  0  0  0  0  0
  -22.7867  -13.5238   21.1849 C   0  0  0  0  0  0
  -22.1666   -4.2155   21.0978 F   0  0  0  0  0  0
  -21.5626   -3.4538   25.7736 F   0  0  0  0  0  0
  -30.0155  -13.3999   20.4293 N   0  0  0  0  0  0
  -26.2998  -12.9328   20.3310 N   0  0  0  0  0  0
  -25.9330  -11.6488   20.5770 N   0  0  0  0  0  0
  -22.0502  -12.8239   22.0402 N   0  0  0  0  0  0
  -25.4271  -15.1854   20.3979 N   0  0  0  0  0  0
  -31.7848  -14.7860   20.1090 O   0  0  0  0  0  0
  -21.6642   -6.8881   21.4240 O   0  0  0  0  0  0
  -22.3568  -14.5551   20.6697 O   0  0  0  0  0  0
  -24.6254  -31.8597   23.2027 C   0  0  0  0  0  0
  -25.9102  -32.4777   23.8359 C   0  0  1  0  0  0
  -27.2253  -27.3309   20.1120 C   0  0  0  0  0  0
  -25.5924  -33.8575   24.2299 N   0  0  0  0  0  0
  -23.4189  -30.4860   21.5424 C   0  0  2  0  0  0
  -24.8646  -28.9434   20.1071 C   0  0  0  0  0  0
  -22.7474  -29.4637   22.4904 C   0  0  0  0  0  0
  -18.0301  -28.1387   22.8480 C   0  0  0  0  0  0
  -24.1490  -36.7282   23.2641 C   0  0  0  0  0  0
  -25.9587  -30.7955   21.3710 C   0  0  0  0  0  0
  -26.0322  -29.4242   20.7131 C   0  0  0  0  0  0
  -27.2157  -28.6293   20.7061 C   0  0  0  0  0  0
  -26.0336  -26.9020   19.4807 C   0  0  0  0  0  0
  -24.8663  -27.6872   19.4837 C   0  0  0  0  0  0
  -23.6326  -29.8218   20.1561 C   0  0  0  0  0  0
  -25.4110  -36.3073   24.0338 C   0  0  1  0  0  0
  -20.5900  -28.3684   23.1265 C   0  0  2  0  0  0
  -20.6788  -26.9406   22.5394 C   0  0  0  0  0  0
  -19.5765  -26.6385   21.5189 C   0  0  0  0  0  0
  -18.1950  -26.7936   22.1605 C   0  0  0  0  0  0
  -19.1558  -28.8845   23.2880 C   0  0  0  0  0  0
  -18.9478  -30.1450   23.8891 C   0  0  0  0  0  0
  -17.6483  -30.6583   24.0563 C   0  0  0  0  0  0
  -25.9038  -34.9443   23.5113 C   0  0  0  0  0  0
  -16.5371  -29.9086   23.6326 C   0  0  0  0  0  0
  -16.7291  -28.6505   23.0341 C   0  0  0  0  0  0
  -26.4498  -31.6577   25.0717 C   0  0  0  0  0  0
  -25.3755  -31.3705   26.1461 C   0  0  0  0  0  0
  -27.0344  -30.3015   24.6135 C   0  0  0  0  0  0
  -27.6066  -32.4294   25.7494 C   0  0  0  0  0  0
  -27.5579  -37.1798   24.8471 C   0  0  0  0  0  0
  -21.4183  -29.3059   22.3661 N   0  0  0  0  0  0
  -26.4290  -37.3769   23.9416 N   0  0  0  0  0  0
  -24.6862  -31.0640   22.0959 N   0  0  0  0  0  0
  -23.4207  -28.8165   23.2965 O   0  0  0  0  0  0
  -28.3494  -26.4932   20.1655 O   0  0  0  0  0  0
  -26.5599  -34.8908   22.4675 O   0  0  0  0  0  0
  -23.5415  -32.1379   23.7371 O   0  0  0  0  0  0
  -30.9383  -17.7874   19.9986 C   0  0  0  0  0  0
  -28.9255  -17.9779   21.3113 C   0  0  0  0  0  0
  -30.0287  -20.0587   20.4902 C   0  0  0  0  0  0
  -29.9147  -17.1258   20.7256 C   0  0  0  0  0  0
  -28.9912  -19.4036   21.1958 C   0  0  0  0  0  0
  -31.0006  -19.2064   19.8847 C   0  0  0  0  0  0
  -27.7579  -17.3962   22.0965 C   0  0  0  0  0  0
  -29.6257  -24.3822   22.0068 C   0  0  0  0  0  0
  -30.2034  -21.6246   20.5293 C   0  0  0  0  0  0
  -28.1392  -25.0337   20.0358 C   0  0  0  0  0  0
  -29.2951  -24.0598   20.5325 C   0  0  2  0  0  0
  -29.8136  -15.6675   20.8638 N   0  0  0  0  0  0
  -29.0280  -22.5624   20.3420 N   0  3  0  0  0  0
  -28.0441  -20.1677   21.7958 F   0  0  0  0  0  0
  -32.3402  -19.8712   19.0150 Cl  0  0  0  0  0  0
  -31.4788  -12.5064   19.1435 H   0  0  0  0  0  0
  -30.3736  -11.3841   19.8857 H   0  0  0  0  0  0
  -29.7667  -11.7407   17.4794 H   0  0  0  0  0  0
  -29.6531  -13.4636   17.7341 H   0  0  0  0  0  0
  -27.8631  -11.2891   18.8657 H   0  0  0  0  0  0
  -27.3737  -12.5723   17.7927 H   0  0  0  0  0  0
  -27.6755  -14.2482   19.5239 H   0  0  0  0  0  0
  -28.7056  -12.0370   21.3702 H   0  0  0  0  0  0
  -28.4444  -13.6887   21.8461 H   0  0  0  0  0  0
  -25.2761   -9.5687   22.4770 H   0  0  0  0  0  0
  -24.0007   -7.4631   22.7473 H   0  0  0  0  0  0
  -21.0849   -8.8774   19.8949 H   0  0  0  0  0  0
  -22.3698  -10.9681   19.6176 H   0  0  0  0  0  0
  -21.1998   -7.6153   23.9720 H   0  0  0  0  0  0
  -21.1473   -6.0523   25.9079 H   0  0  0  0  0  0
  -22.0602   -2.7613   23.2842 H   0  0  0  0  0  0
  -22.4108  -11.9896   22.4788 H   0  0  0  0  0  0
  -21.1121  -13.1275   22.2597 H   0  0  0  0  0  0
  -24.6434  -15.8252   20.4647 H   0  0  0  0  0  0
  -26.2490  -15.6073   19.9861 H   0  0  0  0  0  0
  -26.7165  -32.5441   23.1104 H   0  0  0  0  0  0
  -25.0103  -33.9723   25.0466 H   0  0  0  0  0  0
  -22.7142  -31.3078   21.3996 H   0  0  0  0  0  0
  -23.3744  -35.9620   23.3297 H   0  0  0  0  0  0
  -24.3592  -36.8896   22.2058 H   0  0  0  0  0  0
  -23.7251  -37.6493   23.6650 H   0  0  0  0  0  0
  -26.0890  -31.5600   20.6038 H   0  0  0  0  0  0
  -26.8412  -30.8441   21.9971 H   0  0  0  0  0  0
  -28.1111  -28.9936   21.1903 H   0  0  0  0  0  0
  -25.9714  -25.9463   18.9818 H   0  0  0  0  0  0
  -23.9722  -27.3141   19.0021 H   0  0  0  0  0  0
  -23.7529  -30.5983   19.3997 H   0  0  0  0  0  0
  -22.7532  -29.2512   19.8512 H   0  0  0  0  0  0
  -25.1298  -36.1914   25.0833 H   0  0  0  0  0  0
  -21.0011  -28.3238   24.1373 H   0  0  0  0  0  0
  -20.5657  -26.2293   23.3591 H   0  0  0  0  0  0
  -21.6662  -26.7426   22.1203 H   0  0  0  0  0  0
  -19.6924  -25.6293   21.1222 H   0  0  0  0  0  0
  -19.6700  -27.3191   20.6710 H   0  0  0  0  0  0
  -17.4223  -26.6664   21.4014 H   0  0  0  0  0  0
  -18.0362  -26.0095   22.9013 H   0  0  0  0  0  0
  -19.7957  -30.7270   24.2250 H   0  0  0  0  0  0
  -17.5040  -31.6262   24.5170 H   0  0  0  0  0  0
  -15.5373  -30.2988   23.7657 H   0  0  0  0  0  0
  -15.8690  -28.0826   22.7045 H   0  0  0  0  0  0
  -24.5940  -30.7031   25.7813 H   0  0  0  0  0  0
  -24.8936  -32.2866   26.4882 H   0  0  0  0  0  0
  -25.8115  -30.8911   27.0234 H   0  0  0  0  0  0
  -26.2910  -29.6758   24.1183 H   0  0  0  0  0  0
  -27.4111  -29.7266   25.4604 H   0  0  0  0  0  0
  -27.8745  -30.4342   23.9315 H   0  0  0  0  0  0
  -27.2695  -33.3599   26.2073 H   0  0  0  0  0  0
  -28.3893  -32.6825   25.0331 H   0  0  0  0  0  0
  -28.0707  -31.8403   26.5417 H   0  0  0  0  0  0
  -28.2590  -38.0099   24.7516 H   0  0  0  0  0  0
  -28.1082  -36.2632   24.6295 H   0  0  0  0  0  0
  -27.2302  -37.1452   25.8875 H   0  0  0  0  0  0
  -20.9336  -29.8804   21.6907 H   0  0  0  0  0  0
  -26.0158  -38.2839   24.1416 H   0  0  0  0  0  0
  -31.7133  -17.2116   19.5153 H   0  0  0  0  0  0
  -27.8993  -16.3561   22.3850 H   0  0  0  0  0  0
  -26.8439  -17.4635   21.5066 H   0  0  0  0  0  0
  -27.6006  -17.9609   23.0157 H   0  0  0  0  0  0
  -29.8163  -25.4486   22.1364 H   0  0  0  0  0  0
  -30.5178  -23.8672   22.3599 H   0  0  0  0  0  0
  -28.8020  -24.1164   22.6706 H   0  0  0  0  0  0
  -30.9442  -21.9289   19.7926 H   0  0  0  0  0  0
  -30.6603  -21.8288   21.4962 H   0  0  0  0  0  0
  -27.2356  -24.7631   20.5850 H   0  0  0  0  0  0
  -27.9427  -24.8191   18.9846 H   0  0  0  0  0  0
  -30.1736  -24.3010   19.9321 H   0  0  0  0  0  0
  -28.9292  -15.3474   21.2258 H   0  0  0  0  0  0
  -28.2965  -22.2607   20.9691 H   0  0  0  0  0  0
  -28.6874  -22.4139   19.4037 H   0  0  0  0  0  0
  1 25  1  0  0  0
  1 30  2  0  0  0
  1 82  1  0  0  0
  2  3  1  0  0  0
  2 25  1  0  0  0
  2 86  1  0  0  0
  2 87  1  0  0  0
  3  4  1  0  0  0
  3 88  1  0  0  0
  3 89  1  0  0  0
  4  5  1  0  0  0
  4 90  1  0  0  0
  4 91  1  0  0  0
  5  6  1  0  0  0
  5 26  1  0  0  0
  5 92  1  0  0  0
  6 25  1  0  0  0
  6 93  1  0  0  0
  6 94  1  0  0  0
  7  8  2  0  0  0
  7 26  1  0  0  0
  7 29  1  0  0  0
  8  9  1  0  0  0
  8 22  1  0  0  0
  9 10  1  0  0  0
  9 27  2  0  0  0
 10 11  2  0  0  0
 10 15  1  0  0  0
 11 12  1  0  0  0
 11 95  1  0  0  0
 12 13  2  0  0  0
 12 96  1  0  0  0
 13 14  1  0  0  0
 13 31  1  0  0  0
 14 15  2  0  0  0
 14 97  1  0  0  0
 15 98  1  0  0  0
 16 17  2  0  0  0
 16 21  1  0  0  0
 16 31  1  0  0  0
 17 18  1  0  0  0
 17 99  1  0  0  0
 18 19  2  0  0  0
 18100  1  0  0  0
 19 20  1  0  0  0
 19 24  1  0  0  0
 20 21  2  0  0  0
 20101  1  0  0  0
 21 23  1  0  0  0
 22 28  1  0  0  0
 22 32  2  0  0  0
 26 27  1  0  0  0
 28102  1  0  0  0
 28103  1  0  0  0
 29104  1  0  0  0
 29105  1  0  0  0
 33 34  1  0  0  0
 33 66  1  0  0  0
 33 70  2  0  0  0
 34 36  1  0  0  0
 34 59  1  0  0  0
 34106  1  0  0  0
 35 44  2  0  0  0
 35 45  1  0  0  0
 35 68  1  0  0  0
 36 56  1  0  0  0
 36107  1  0  0  0
 37 39  1  0  0  0
 37 47  1  0  0  0
 37 66  1  0  0  0
 37108  1  0  0  0
 38 43  2  0  0  0
 38 46  1  0  0  0
 38 47  1  0  0  0
 39 64  1  0  0  0
 39 67  2  0  0  0
 40 52  1  0  0  0
 40 53  2  0  0  0
 40 58  1  0  0  0
 41109  1  0  0  0
 41110  1  0  0  0
 41111  1  0  0  0
 41 48  1  0  0  0
 42 43  1  0  0  0
 42 66  1  0  0  0
 42112  1  0  0  0
 42113  1  0  0  0
 43 44  1  0  0  0
 44114  1  0  0  0
 45 46  2  0  0  0
 45115  1  0  0  0
 46116  1  0  0  0
 47117  1  0  0  0
 47118  1  0  0  0
 48 56  1  0  0  0
 48 65  1  0  0  0
 48119  1  0  0  0
 49 50  1  0  0  0
 49 53  1  0  0  0
 49 64  1  0  0  0
 49120  1  0  0  0
 50 51  1  0  0  0
 50121  1  0  0  0
 50122  1  0  0  0
 51 52  1  0  0  0
 51123  1  0  0  0
 51124  1  0  0  0
 52125  1  0  0  0
 52126  1  0  0  0
 53 54  1  0  0  0
 54 55  2  0  0  0
 54127  1  0  0  0
 55 57  1  0  0  0
 55128  1  0  0  0
 56 69  2  0  0  0
 57 58  2  0  0  0
 57129  1  0  0  0
 58130  1  0  0  0
 59 60  1  0  0  0
 59 61  1  0  0  0
 59 62  1  0  0  0
 60131  1  0  0  0
 60132  1  0  0  0
 60133  1  0  0  0
 61134  1  0  0  0
 61135  1  0  0  0
 61136  1  0  0  0
 62137  1  0  0  0
 62138  1  0  0  0
 62139  1  0  0  0
 63 65  1  0  0  0
 63140  1  0  0  0
 63141  1  0  0  0
 63142  1  0  0  0
 64143  1  0  0  0
 65144  1  0  0  0
 68 80  1  0  0  0
 71 74  2  0  0  0
 71 76  1  0  0  0
 71145  1  0  0  0
 72 74  1  0  0  0
 72 75  2  0  0  0
 72 77  1  0  0  0
 73 75  1  0  0  0
 73 76  2  0  0  0
 73 79  1  0  0  0
 74 82  1  0  0  0
 75 84  1  0  0  0
 76 85  1  0  0  0
 77146  1  0  0  0
 77147  1  0  0  0
 77148  1  0  0  0
 78149  1  0  0  0
 78150  1  0  0  0
 78151  1  0  0  0
 78 81  1  0  0  0
 79 83  1  0  0  0
 79152  1  0  0  0
 79153  1  0  0  0
 80 81  1  0  0  0
 80154  1  0  0  0
 80155  1  0  0  0
 81 83  1  0  0  0
 81156  1  0  0  0
 82157  1  0  0  0
 83158  1  0  0  0
 83159  1  0  0  0
M  CHG  1  83   1
M  ISO  4   1 100  68 101  80 101  82 100
M  END
> <chiral flag>
0

> <version>
0

> <s_m_source_file>
/data/baiqing/PycharmProjects/Reinvent-master-3.2/result/LINK_invent/BTK/process_docking_weight1_custom_sum_contain_oxygen_bond_distance_aromatic_linkinvent_7_9_3/rearranged_h_0016.sdf

> <i_m_source_file_index>
86

> <r_mmod_Potential_Energy-OPLS-2005>
-113.611183166504

> <r_mmod_Stretch_Energy-OPLS-2005>
79.3975067138672

> <r_mmod_Bend_Energy-OPLS-2005>
135.392578125

> <r_mmod_Torsional_Energy-OPLS-2005>
212.191467285156

> <r_mmod_Improper_Torsional_Energy-OPLS-2005>
4.91852617263794

> <r_mmod_Van_der_Waal_Energy-OPLS-2005>
147.98908996582

> <r_mmod_Electrostatic_Energy-OPLS-2005>
-295.975128173828

> <r_mmod_Solvation_Energy-OPLS-2005>
-441.476501464844

> <b_mmod_Minimization_Converged-OPLS-2005>
0

> <r_mmod_RMS_Derivative-OPLS-2005>
1.31174397468567

$$$$
86
                    3D
 Structure written by MMmdl.
169177  0  0  1  0            999 V2000
  -30.7975  -14.3559   20.3890 C   0  0  0  0  0  0
  -30.3576  -12.1835   19.4384 C   0  0  0  0  0  0
  -29.4770  -12.4267   18.1986 C   0  0  0  0  0  0
  -27.9902  -12.3512   18.5878 C   0  0  0  0  0  0
  -27.6571  -13.2132   19.8328 C   0  0  2  0  0  0
  -28.6991  -13.0907   20.9615 C   0  0  0  0  0  0
  -25.2706  -13.8294   20.5709 C   0  0  0  0  0  0
  -24.2001  -13.0613   20.9055 C   0  0  0  0  0  0
  -24.6481  -11.6985   20.8597 C   0  0  0  0  0  0
  -23.9194  -10.4427   21.0314 C   0  0  0  0  0  0
  -24.3711   -9.4416   21.9147 C   0  0  0  0  0  0
  -23.6366   -8.2483   22.0775 C   0  0  0  0  0  0
  -22.4408   -8.0417   21.3458 C   0  0  0  0  0  0
  -22.0040   -9.0330   20.4552 C   0  0  0  0  0  0
  -22.7383  -10.2199   20.2927 C   0  0  0  0  0  0
  -21.6922   -6.0831   22.5202 C   0  0  0  0  0  0
  -21.4126   -6.5730   23.8150 C   0  0  0  0  0  0
  -21.3613   -5.6842   24.9059 C   0  0  0  0  0  0
  -21.6066   -4.3113   24.7090 C   0  0  0  0  0  0
  -21.8920   -3.8224   23.4209 C   0  0  0  0  0  0
  -21.9241   -4.7068   22.3259 C   0  0  0  0  0  0
  -22.8037  -13.5314   21.1621 C   0  0  0  0  0  0
  -22.1751   -4.2314   21.0859 F   0  0  0  0  0  0
  -21.5477   -3.4574   25.7573 F   0  0  0  0  0  0
  -30.0261  -13.2483   20.3755 N   0  0  0  0  0  0
  -26.3140  -12.9466   20.3181 N   0  0  0  0  0  0
  -25.9453  -11.6636   20.5709 N   0  0  0  0  0  0
  -22.0739  -12.8112   22.0058 N   0  0  0  0  0  0
  -25.4491  -15.2007   20.4101 N   0  0  0  0  0  0
  -32.0216  -14.2980   20.3664 O   0  0  0  0  0  0
  -21.6775   -6.8977   21.4156 O   0  0  0  0  0  0
  -22.3827  -14.5728   20.6583 O   0  0  0  0  0  0
  -24.6138  -31.8794   23.2347 C   0  0  0  0  0  0
  -25.9028  -32.4879   23.8571 C   0  0  1  0  0  0
  -27.0890  -27.3749   20.0136 C   0  0  0  0  0  0
  -25.5934  -33.8692   24.2512 N   0  0  0  0  0  0
  -23.3869  -30.5247   21.5942 C   0  0  2  0  0  0
  -24.7970  -29.0393   20.1038 C   0  0  0  0  0  0
  -22.7349  -29.4710   22.5078 C   0  0  0  0  0  0
  -18.0256  -28.1390   22.8480 C   0  0  0  0  0  0
  -24.1479  -36.7329   23.2627 C   0  0  0  0  0  0
  -25.9329  -30.7851   21.4214 C   0  0  0  0  0  0
  -25.9709  -29.4316   20.7564 C   0  0  0  0  0  0
  -27.1156  -28.5881   20.7516 C   0  0  0  0  0  0
  -25.9504  -27.1542   19.1885 C   0  0  0  0  0  0
  -24.7856  -27.9025   19.3117 C   0  0  0  0  0  0
  -23.5743  -29.9174   20.1897 C   0  0  0  0  0  0
  -25.4088  -36.3160   24.0382 C   0  0  1  0  0  0
  -20.5844  -28.3654   23.1345 C   0  0  2  0  0  0
  -20.6805  -26.9416   22.5421 C   0  0  0  0  0  0
  -19.5772  -26.6417   21.5222 C   0  0  0  0  0  0
  -18.1922  -26.7947   22.1617 C   0  0  0  0  0  0
  -19.1496  -28.8831   23.2917 C   0  0  0  0  0  0
  -18.9449  -30.1443   23.8915 C   0  0  0  0  0  0
  -17.6469  -30.6597   24.0564 C   0  0  0  0  0  0
  -25.9020  -34.9492   23.5217 C   0  0  0  0  0  0
  -16.5347  -29.9105   23.6326 C   0  0  0  0  0  0
  -16.7259  -28.6526   23.0321 C   0  0  0  0  0  0
  -26.4507  -31.6606   25.0856 C   0  0  0  0  0  0
  -25.3802  -31.3586   26.1612 C   0  0  0  0  0  0
  -27.0307  -30.3071   24.6111 C   0  0  0  0  0  0
  -27.6132  -32.4303   25.7548 C   0  0  0  0  0  0
  -27.5598  -37.1806   24.8495 C   0  0  0  0  0  0
  -21.4094  -29.3062   22.3739 N   0  0  0  0  0  0
  -26.4307  -37.3836   23.9423 N   0  0  0  0  0  0
  -24.6653  -31.0787   22.1372 N   0  0  0  0  0  0
  -23.4140  -28.8158   23.3003 O   0  0  0  0  0  0
  -28.0799  -26.4008   20.1231 O   0  0  0  0  0  0
  -26.5561  -34.8902   22.4755 O   0  0  0  0  0  0
  -23.5342  -32.1633   23.7700 O   0  0  0  0  0  0
  -31.0900  -20.1652   18.9966 C   0  0  0  0  0  0
  -31.4268  -20.4733   20.3250 C   0  0  0  0  0  0
  -31.1931  -17.7985   19.5353 C   0  0  0  0  0  0
  -30.9526  -18.8387   18.5991 C   0  0  0  0  0  0
  -31.8008  -19.4688   21.2305 C   0  0  0  0  0  0
  -31.6866  -18.1169   20.8338 C   0  0  0  0  0  0
  -29.1596  -23.3275   20.6297 C   0  0  0  0  0  0
  -26.8086  -22.8446   22.8528 C   0  0  0  0  0  0
  -26.7275  -22.7232   19.6721 C   0  0  0  0  0  0
  -28.7203  -20.8336   20.7148 C   0  0  0  0  0  0
  -31.0497  -21.8444   20.8204 C   0  0  0  0  0  0
  -30.9947  -16.3702   19.0720 C   0  0  0  0  0  0
  -27.0810  -24.0352   21.8913 C   0  0  0  0  0  0
  -27.6869  -25.0527   19.6421 C   0  0  0  0  0  0
  -27.6748  -23.7294   20.4795 C   0  0  1  0  0  0
  -30.2042  -15.4601   19.9183 N   0  0  0  0  0  0
  -29.5858  -22.0468   20.7133 N   0  0  0  0  0  0
  -29.9811  -24.2501   20.7297 O   0  0  0  0  0  0
  -30.4215  -18.5367   16.9674 Cl  0  0  0  0  0  0
  -32.2514  -19.8641   22.8555 Cl  0  0  0  0  0  0
  -32.0972  -16.9132   22.0083 Cl  0  0  0  0  0  0
  -31.4108  -12.1715   19.1625 H   0  0  0  0  0  0
  -30.1470  -11.2103   19.8908 H   0  0  0  0  0  0
  -29.6869  -11.6932   17.4237 H   0  0  0  0  0  0
  -29.7172  -13.3956   17.7466 H   0  0  0  0  0  0
  -27.7339  -11.3009   18.7573 H   0  0  0  0  0  0
  -27.3836  -12.6612   17.7362 H   0  0  0  0  0  0
  -27.6780  -14.2453   19.4776 H   0  0  0  0  0  0
  -28.6254  -12.1305   21.4725 H   0  0  0  0  0  0
  -28.5182  -13.8417   21.7265 H   0  0  0  0  0  0
  -25.2887   -9.5950   22.4590 H   0  0  0  0  0  0
  -24.0134   -7.4961   22.7594 H   0  0  0  0  0  0
  -21.1027   -8.8814   19.8800 H   0  0  0  0  0  0
  -22.3964  -10.9691   19.5917 H   0  0  0  0  0  0
  -21.2341   -7.6273   23.9690 H   0  0  0  0  0  0
  -21.1199   -6.0517   25.8941 H   0  0  0  0  0  0
  -22.0716   -2.7718   23.2631 H   0  0  0  0  0  0
  -22.4830  -11.9802   22.4161 H   0  0  0  0  0  0
  -21.1706  -13.1293   22.3059 H   0  0  0  0  0  0
  -24.6804  -15.8555   20.5167 H   0  0  0  0  0  0
  -26.3153  -15.6434   20.1062 H   0  0  0  0  0  0
  -26.7018  -32.5446   23.1231 H   0  0  0  0  0  0
  -25.0179  -33.9973   25.0700 H   0  0  0  0  0  0
  -22.6759  -31.3493   21.5014 H   0  0  0  0  0  0
  -23.3739  -35.9669   23.3383 H   0  0  0  0  0  0
  -24.3610  -36.8806   22.2027 H   0  0  0  0  0  0
  -23.7208  -37.6559   23.6562 H   0  0  0  0  0  0
  -26.0608  -31.5308   20.6391 H   0  0  0  0  0  0
  -26.8262  -30.8293   22.0326 H   0  0  0  0  0  0
  -27.9867  -28.8178   21.3538 H   0  0  0  0  0  0
  -25.8684  -26.4002   18.4090 H   0  0  0  0  0  0
  -23.9139  -27.6617   18.7256 H   0  0  0  0  0  0
  -23.6795  -30.7232   19.4617 H   0  0  0  0  0  0
  -22.6761  -29.3812   19.8761 H   0  0  0  0  0  0
  -25.1232  -36.2126   25.0898 H   0  0  0  0  0  0
  -20.9957  -28.3225   24.1458 H   0  0  0  0  0  0
  -20.5798  -26.2224   23.3533 H   0  0  0  0  0  0
  -21.6632  -26.7532   22.1114 H   0  0  0  0  0  0
  -19.6949  -25.6351   21.1150 H   0  0  0  0  0  0
  -19.6738  -27.3271   20.6762 H   0  0  0  0  0  0
  -17.4212  -26.6638   21.4026 H   0  0  0  0  0  0
  -18.0385  -26.0115   22.9037 H   0  0  0  0  0  0
  -19.7914  -30.7250   24.2284 H   0  0  0  0  0  0
  -17.5016  -31.6274   24.5158 H   0  0  0  0  0  0
  -15.5332  -30.3020   23.7698 H   0  0  0  0  0  0
  -15.8640  -28.0887   22.7042 H   0  0  0  0  0  0
  -24.5957  -30.7027   25.7899 H   0  0  0  0  0  0
  -24.9026  -32.2653   26.5297 H   0  0  0  0  0  0
  -25.8192  -30.8556   27.0212 H   0  0  0  0  0  0
  -26.2824  -29.6903   24.1153 H   0  0  0  0  0  0
  -27.4107  -29.7275   25.4510 H   0  0  0  0  0  0
  -27.8678  -30.4497   23.9281 H   0  0  0  0  0  0
  -27.2799  -33.3475   26.2388 H   0  0  0  0  0  0
  -28.3742  -32.7031   25.0250 H   0  0  0  0  0  0
  -28.1014  -31.8263   26.5183 H   0  0  0  0  0  0
  -28.2662  -38.0072   24.7538 H   0  0  0  0  0  0
  -28.1075  -36.2605   24.6354 H   0  0  0  0  0  0
  -27.2359  -37.1493   25.8922 H   0  0  0  0  0  0
  -20.9220  -29.8783   21.6990 H   0  0  0  0  0  0
  -26.0243  -38.2942   24.1404 H   0  0  0  0  0  0
  -30.7802  -20.9460   18.3305 H   0  0  0  0  0  0
  -26.3405  -23.1951   23.7672 H   0  0  0  0  0  0
  -27.7368  -22.3400   23.1166 H   0  0  0  0  0  0
  -26.1442  -22.0967   22.4221 H   0  0  0  0  0  0
  -26.3776  -21.8894   20.2708 H   0  0  0  0  0  0
  -27.2253  -22.2787   18.8058 H   0  0  0  0  0  0
  -25.8042  -23.1571   19.2690 H   0  0  0  0  0  0
  -27.8542  -20.9457   21.3432 H   0  0  0  0  0  0
  -29.1735  -19.9220   21.1225 H   0  0  0  0  0  0
  -28.4131  -20.6042   19.6942 H   0  0  0  0  0  0
  -31.6254  -22.5417   20.2136 H   0  0  0  0  0  0
  -31.3753  -22.0654   21.8393 H   0  0  0  0  0  0
  -30.5497  -16.2961   18.0859 H   0  0  0  0  0  0
  -32.0208  -16.0389   18.8836 H   0  0  0  0  0  0
  -27.7708  -24.6971   22.4147 H   0  0  0  0  0  0
  -26.1727  -24.6090   21.7469 H   0  0  0  0  0  0
  -26.6330  -25.0145   19.5163 H   0  0  0  0  0  0
  -28.1503  -24.8527   18.6695 H   0  0  0  0  0  0
  -29.1925  -15.4891   19.8155 H   0  0  0  0  0  0
  1 25  1  0  0  0
  1 30  2  0  0  0
  1 86  1  0  0  0
  2  3  1  0  0  0
  2 25  1  0  0  0
  2 92  1  0  0  0
  2 93  1  0  0  0
  3  4  1  0  0  0
  3 94  1  0  0  0
  3 95  1  0  0  0
  4  5  1  0  0  0
  4 96  1  0  0  0
  4 97  1  0  0  0
  5  6  1  0  0  0
  5 26  1  0  0  0
  5 98  1  0  0  0
  6 25  1  0  0  0
  6 99  1  0  0  0
  6100  1  0  0  0
  7  8  2  0  0  0
  7 26  1  0  0  0
  7 29  1  0  0  0
  8  9  1  0  0  0
  8 22  1  0  0  0
  9 10  1  0  0  0
  9 27  2  0  0  0
 10 11  2  0  0  0
 10 15  1  0  0  0
 11 12  1  0  0  0
 11101  1  0  0  0
 12 13  2  0  0  0
 12102  1  0  0  0
 13 14  1  0  0  0
 13 31  1  0  0  0
 14 15  2  0  0  0
 14103  1  0  0  0
 15104  1  0  0  0
 16 17  2  0  0  0
 16 21  1  0  0  0
 16 31  1  0  0  0
 17 18  1  0  0  0
 17105  1  0  0  0
 18 19  2  0  0  0
 18106  1  0  0  0
 19 20  1  0  0  0
 19 24  1  0  0  0
 20 21  2  0  0  0
 20107  1  0  0  0
 21 23  1  0  0  0
 22 28  1  0  0  0
 22 32  2  0  0  0
 26 27  1  0  0  0
 28108  1  0  0  0
 28109  1  0  0  0
 29110  1  0  0  0
 29111  1  0  0  0
 33 34  1  0  0  0
 33 66  1  0  0  0
 33 70  2  0  0  0
 34 36  1  0  0  0
 34 59  1  0  0  0
 34112  1  0  0  0
 35 44  2  0  0  0
 35 45  1  0  0  0
 35 68  1  0  0  0
 36 56  1  0  0  0
 36113  1  0  0  0
 37 39  1  0  0  0
 37 47  1  0  0  0
 37 66  1  0  0  0
 37114  1  0  0  0
 38 43  2  0  0  0
 38 46  1  0  0  0
 38 47  1  0  0  0
 39 64  1  0  0  0
 39 67  2  0  0  0
 40 52  1  0  0  0
 40 53  2  0  0  0
 40 58  1  0  0  0
 41115  1  0  0  0
 41116  1  0  0  0
 41117  1  0  0  0
 41 48  1  0  0  0
 42 43  1  0  0  0
 42 66  1  0  0  0
 42118  1  0  0  0
 42119  1  0  0  0
 43 44  1  0  0  0
 44120  1  0  0  0
 45 46  2  0  0  0
 45121  1  0  0  0
 46122  1  0  0  0
 47123  1  0  0  0
 47124  1  0  0  0
 48 56  1  0  0  0
 48 65  1  0  0  0
 48125  1  0  0  0
 49 50  1  0  0  0
 49 53  1  0  0  0
 49 64  1  0  0  0
 49126  1  0  0  0
 50 51  1  0  0  0
 50127  1  0  0  0
 50128  1  0  0  0
 51 52  1  0  0  0
 51129  1  0  0  0
 51130  1  0  0  0
 52131  1  0  0  0
 52132  1  0  0  0
 53 54  1  0  0  0
 54 55  2  0  0  0
 54133  1  0  0  0
 55 57  1  0  0  0
 55134  1  0  0  0
 56 69  2  0  0  0
 57 58  2  0  0  0
 57135  1  0  0  0
 58136  1  0  0  0
 59 60  1  0  0  0
 59 61  1  0  0  0
 59 62  1  0  0  0
 60137  1  0  0  0
 60138  1  0  0  0
 60139  1  0  0  0
 61140  1  0  0  0
 61141  1  0  0  0
 61142  1  0  0  0
 62143  1  0  0  0
 62144  1  0  0  0
 62145  1  0  0  0
 63 65  1  0  0  0
 63146  1  0  0  0
 63147  1  0  0  0
 63148  1  0  0  0
 64149  1  0  0  0
 65150  1  0  0  0
 68 84  1  0  0  0
 71 72  2  0  0  0
 71 74  1  0  0  0
 71151  1  0  0  0
 72 75  1  0  0  0
 72 81  1  0  0  0
 73 74  2  0  0  0
 73 76  1  0  0  0
 73 82  1  0  0  0
 74 89  1  0  0  0
 75 76  2  0  0  0
 75 90  1  0  0  0
 76 91  1  0  0  0
 77 87  1  0  0  0
 77 88  2  0  0  0
 77 85  1  0  0  0
 78 83  1  0  0  0
 78152  1  0  0  0
 78153  1  0  0  0
 78154  1  0  0  0
 79155  1  0  0  0
 79156  1  0  0  0
 79157  1  0  0  0
 79 85  1  0  0  0
 80 87  1  0  0  0
 80158  1  0  0  0
 80159  1  0  0  0
 80160  1  0  0  0
 81 87  1  0  0  0
 81161  1  0  0  0
 81162  1  0  0  0
 82 86  1  0  0  0
 82163  1  0  0  0
 82164  1  0  0  0
 83 85  1  0  0  0
 83165  1  0  0  0
 83166  1  0  0  0
 84 85  1  0  0  0
 84167  1  0  0  0
 84168  1  0  0  0
 86169  1  0  0  0
M  ISO  4   1 100  68 101  84 101  86 100
M  END
> <chiral flag>
0

> <version>
0

> <s_m_source_file>
/data/baiqing/PycharmProjects/Reinvent-master-3.2/result/LINK_invent/BTK/process_docking_weight1_custom_sum_contain_oxygen_bond_distance_aromatic_linkinvent_7_9_3/rearranged_h_0016.sdf

> <i_m_source_file_index>
87

> <r_mmod_Potential_Energy-OPLS-2005>
352.715454101562

> <r_mmod_Stretch_Energy-OPLS-2005>
57.4882125854492

> <r_mmod_Bend_Energy-OPLS-2005>
177.871795654297

> <r_mmod_Torsional_Energy-OPLS-2005>
286.893463134766

> <r_mmod_Improper_Torsional_Energy-OPLS-2005>
21.239501953125

> <r_mmod_Van_der_Waal_Energy-OPLS-2005>
260.420684814453

> <r_mmod_Electrostatic_Energy-OPLS-2005>
-335.979644775391

> <r_mmod_Solvation_Energy-OPLS-2005>
-226.490280151367

> <b_mmod_Minimization_Converged-OPLS-2005>
0

> <r_mmod_RMS_Derivative-OPLS-2005>
19.2813320159912

$$$$
87
                    3D
 Structure written by MMmdl.
146154  0  0  1  0            999 V2000
  -30.2549  -15.7985   20.3126 C   0  0  0  0  0  0
  -30.4094  -13.2062   19.5337 C   0  0  0  0  0  0
  -29.5509  -12.6973   18.3364 C   0  0  0  0  0  0
  -28.1421  -12.3004   18.7940 C   0  0  0  0  0  0
  -27.5887  -13.3232   19.8087 C   0  0  2  0  0  0
  -28.5959  -13.7326   20.9145 C   0  0  0  0  0  0
  -25.2298  -13.8307   20.5825 C   0  0  0  0  0  0
  -24.1698  -13.0434   20.9296 C   0  0  0  0  0  0
  -24.6421  -11.6951   20.8761 C   0  0  0  0  0  0
  -23.9124  -10.4297   21.0393 C   0  0  0  0  0  0
  -24.3658   -9.4205   21.9173 C   0  0  0  0  0  0
  -23.6312   -8.2249   22.0753 C   0  0  0  0  0  0
  -22.4291   -8.0295   21.3544 C   0  0  0  0  0  0
  -21.9936   -9.0273   20.4644 C   0  0  0  0  0  0
  -22.7288  -10.2138   20.3047 C   0  0  0  0  0  0
  -21.6862   -6.0744   22.5279 C   0  0  0  0  0  0
  -21.4027   -6.5643   23.8215 C   0  0  0  0  0  0
  -21.3659   -5.6795   24.9173 C   0  0  0  0  0  0
  -21.6045   -4.3058   24.7225 C   0  0  0  0  0  0
  -21.8817   -3.8148   23.4343 C   0  0  0  0  0  0
  -21.9196   -4.6968   22.3400 C   0  0  0  0  0  0
  -22.7709  -13.5153   21.1927 C   0  0  0  0  0  0
  -22.1661   -4.2148   21.0981 F   0  0  0  0  0  0
  -21.5616   -3.4542   25.7737 F   0  0  0  0  0  0
  -29.7402  -14.4074   20.2432 N   0  0  0  0  0  0
  -26.2757  -12.9664   20.3259 N   0  0  0  0  0  0
  -25.9380  -11.6714   20.5697 N   0  0  0  0  0  0
  -22.0377  -12.8135   22.0481 N   0  0  0  0  0  0
  -25.3864  -15.2055   20.4279 N   0  0  0  0  0  0
  -31.4922  -15.6630   20.1906 O   0  0  0  0  0  0
  -21.6651   -6.8891   21.4246 O   0  0  0  0  0  0
  -22.3386  -14.5453   20.6761 O   0  0  0  0  0  0
  -24.6954  -31.7859   23.1419 C   0  0  0  0  0  0
  -25.9480  -32.4394   23.8015 C   0  0  1  0  0  0
  -27.2289  -26.5805   20.2280 C   0  0  0  0  0  0
  -25.6010  -33.8228   24.1884 N   0  0  0  0  0  0
  -23.5270  -30.3820   21.4996 C   0  0  2  0  0  0
  -24.9845  -28.6981   20.1227 C   0  0  0  0  0  0
  -22.7827  -29.4232   22.4689 C   0  0  0  0  0  0
  -18.0343  -28.1419   22.8437 C   0  0  0  0  0  0
  -24.1497  -36.7127   23.2656 C   0  0  0  0  0  0
  -26.1135  -30.4783   21.4243 C   0  0  0  0  0  0
  -26.1767  -29.0300   20.7768 C   0  0  0  0  0  0
  -27.2793  -28.0044   20.7899 C   0  0  0  0  0  0
  -26.0017  -26.4886   19.5147 C   0  0  0  0  0  0
  -24.9440  -27.4549   19.4663 C   0  0  0  0  0  0
  -23.7865  -29.6690   20.1399 C   0  0  0  0  0  0
  -25.4153  -36.2856   24.0269 C   0  0  1  0  0  0
  -20.5985  -28.3784   23.1120 C   0  0  2  0  0  0
  -20.6804  -26.9429   22.5410 C   0  0  0  0  0  0
  -19.5786  -26.6353   21.5218 C   0  0  0  0  0  0
  -18.1966  -26.7940   22.1613 C   0  0  0  0  0  0
  -19.1611  -28.8929   23.2749 C   0  0  0  0  0  0
  -18.9515  -30.1510   23.8797 C   0  0  0  0  0  0
  -17.6502  -30.6593   24.0542 C   0  0  0  0  0  0
  -25.9141  -34.9246   23.4927 C   0  0  0  0  0  0
  -16.5391  -29.9073   23.6349 C   0  0  0  0  0  0
  -16.7321  -28.6500   23.0360 C   0  0  0  0  0  0
  -26.4611  -31.6482   25.0695 C   0  0  0  0  0  0
  -25.3646  -31.3867   26.1297 C   0  0  0  0  0  0
  -27.0549  -30.2794   24.6697 C   0  0  0  0  0  0
  -27.6027  -32.4377   25.7522 C   0  0  0  0  0  0
  -27.5557  -37.1728   24.8465 C   0  0  0  0  0  0
  -21.4463  -29.3007   22.3431 N   0  0  0  0  0  0
  -26.4276  -37.3622   23.9392 N   0  0  0  0  0  0
  -24.8036  -30.9186   22.0735 N   0  0  0  0  0  0
  -23.4213  -28.7854   23.3091 O   0  0  0  0  0  0
  -28.1780  -25.3072   20.2874 O   0  0  0  0  0  0
  -26.5800  -34.8841   22.4555 O   0  0  0  0  0  0
  -23.5950  -32.0991   23.6300 O   0  0  0  0  0  0
  -31.2673  -20.9221   20.2085 C   0  0  0  0  0  0
  -30.3546  -22.0135   20.2240 C   0  0  0  0  0  0
  -30.9537  -19.5218   20.2362 C   0  0  0  0  0  0
  -28.9621  -21.8526   20.2671 C   0  0  0  0  0  0
  -29.6260  -18.9988   20.2964 C   0  0  0  0  0  0
  -32.1498  -18.5886   20.1870 C   0  0  0  0  0  0
  -27.9607  -23.4982   20.2271 C   0  0  0  0  0  0
  -28.7069  -20.2894   20.3013 N   0  0  0  0  0  0
  -29.5038  -17.2212   20.3360 N   0  0  0  0  0  0
  -31.3873  -13.4877   19.1421 H   0  0  0  0  0  0
  -30.6157  -12.3962   20.2353 H   0  0  0  0  0  0
  -30.0391  -11.8553   17.8438 H   0  0  0  0  0  0
  -29.4769  -13.4898   17.5898 H   0  0  0  0  0  0
  -28.2065  -11.3186   19.2647 H   0  0  0  0  0  0
  -27.4731  -12.1922   17.9395 H   0  0  0  0  0  0
  -27.4251  -14.2169   19.2048 H   0  0  0  0  0  0
  -28.8995  -12.8803   21.5242 H   0  0  0  0  0  0
  -28.1304  -14.4459   21.5968 H   0  0  0  0  0  0
  -25.2801   -9.5672   22.4756 H   0  0  0  0  0  0
  -24.0010   -7.4646   22.7484 H   0  0  0  0  0  0
  -21.0856   -8.8806   19.8967 H   0  0  0  0  0  0
  -22.3743  -10.9681   19.6162 H   0  0  0  0  0  0
  -21.2031   -7.6155   23.9715 H   0  0  0  0  0  0
  -21.1480   -6.0528   25.9076 H   0  0  0  0  0  0
  -22.0595   -2.7610   23.2850 H   0  0  0  0  0  0
  -22.4034  -11.9819   22.4883 H   0  0  0  0  0  0
  -21.0991  -13.1140   22.2703 H   0  0  0  0  0  0
  -24.6079  -15.8479   20.5317 H   0  0  0  0  0  0
  -26.2234  -15.6520   20.0794 H   0  0  0  0  0  0
  -26.7584  -32.4822   23.0740 H   0  0  0  0  0  0
  -25.0037  -33.9246   24.9960 H   0  0  0  0  0  0
  -22.8580  -31.2219   21.3016 H   0  0  0  0  0  0
  -23.3762  -35.9455   23.3293 H   0  0  0  0  0  0
  -24.3546  -36.8824   22.2075 H   0  0  0  0  0  0
  -23.7262  -37.6298   23.6762 H   0  0  0  0  0  0
  -26.3317  -31.1936   20.6301 H   0  0  0  0  0  0
  -26.9595  -30.5488   22.0958 H   0  0  0  0  0  0
  -28.1761  -28.2734   21.3305 H   0  0  0  0  0  0
  -25.8131  -25.5558   19.0028 H   0  0  0  0  0  0
  -24.0491  -27.1897   18.9205 H   0  0  0  0  0  0
  -23.9708  -30.4250   19.3759 H   0  0  0  0  0  0
  -22.8876  -29.1431   19.8136 H   0  0  0  0  0  0
  -25.1371  -36.1613   25.0761 H   0  0  0  0  0  0
  -21.0050  -28.3420   24.1253 H   0  0  0  0  0  0
  -20.5648  -26.2410   23.3685 H   0  0  0  0  0  0
  -21.6666  -26.7345   22.1243 H   0  0  0  0  0  0
  -19.6945  -25.6243   21.1298 H   0  0  0  0  0  0
  -19.6737  -27.3118   20.6717 H   0  0  0  0  0  0
  -17.4237  -26.6666   21.4018 H   0  0  0  0  0  0
  -18.0354  -26.0105   22.9032 H   0  0  0  0  0  0
  -19.7991  -30.7350   24.2122 H   0  0  0  0  0  0
  -17.5051  -31.6263   24.5167 H   0  0  0  0  0  0
  -15.5386  -30.2945   23.7729 H   0  0  0  0  0  0
  -15.8722  -28.0790   22.7130 H   0  0  0  0  0  0
  -24.5837  -30.7202   25.7619 H   0  0  0  0  0  0
  -24.8837  -32.3119   26.4484 H   0  0  0  0  0  0
  -25.7796  -30.9192   27.0238 H   0  0  0  0  0  0
  -26.3296  -29.6378   24.1685 H   0  0  0  0  0  0
  -27.3901  -29.7285   25.5498 H   0  0  0  0  0  0
  -27.9307  -30.3868   24.0294 H   0  0  0  0  0  0
  -27.2527  -33.3741   26.1880 H   0  0  0  0  0  0
  -28.3950  -32.6845   25.0443 H   0  0  0  0  0  0
  -28.0577  -31.8670   26.5629 H   0  0  0  0  0  0
  -28.2565  -38.0027   24.7461 H   0  0  0  0  0  0
  -28.1061  -36.2545   24.6361 H   0  0  0  0  0  0
  -27.2262  -37.1444   25.8866 H   0  0  0  0  0  0
  -20.9804  -29.8639   21.6451 H   0  0  0  0  0  0
  -26.0095  -38.2674   24.1375 H   0  0  0  0  0  0
  -32.3120  -21.1979   20.1644 H   0  0  0  0  0  0
  -30.7507  -23.0196   20.1914 H   0  0  0  0  0  0
  -33.0948  -19.1293   20.1280 H   0  0  0  0  0  0
  -32.0977  -17.9544   19.3023 H   0  0  0  0  0  0
  -32.1927  -17.9704   21.0838 H   0  0  0  0  0  0
  -27.2472  -23.3384   21.0350 H   0  0  0  0  0  0
  -27.3541  -23.3718   19.3309 H   0  0  0  0  0  0
  -28.5248  -16.9875   20.3888 H   0  0  0  0  0  0
  1 25  1  0  0  0
  1 30  2  0  0  0
  1 79  1  0  0  0
  2  3  1  0  0  0
  2 25  1  0  0  0
  2 80  1  0  0  0
  2 81  1  0  0  0
  3  4  1  0  0  0
  3 82  1  0  0  0
  3 83  1  0  0  0
  4  5  1  0  0  0
  4 84  1  0  0  0
  4 85  1  0  0  0
  5  6  1  0  0  0
  5 26  1  0  0  0
  5 86  1  0  0  0
  6 25  1  0  0  0
  6 87  1  0  0  0
  6 88  1  0  0  0
  7  8  2  0  0  0
  7 26  1  0  0  0
  7 29  1  0  0  0
  8  9  1  0  0  0
  8 22  1  0  0  0
  9 10  1  0  0  0
  9 27  2  0  0  0
 10 11  2  0  0  0
 10 15  1  0  0  0
 11 12  1  0  0  0
 11 89  1  0  0  0
 12 13  2  0  0  0
 12 90  1  0  0  0
 13 14  1  0  0  0
 13 31  1  0  0  0
 14 15  2  0  0  0
 14 91  1  0  0  0
 15 92  1  0  0  0
 16 17  2  0  0  0
 16 21  1  0  0  0
 16 31  1  0  0  0
 17 18  1  0  0  0
 17 93  1  0  0  0
 18 19  2  0  0  0
 18 94  1  0  0  0
 19 20  1  0  0  0
 19 24  1  0  0  0
 20 21  2  0  0  0
 20 95  1  0  0  0
 21 23  1  0  0  0
 22 28  1  0  0  0
 22 32  2  0  0  0
 26 27  1  0  0  0
 28 96  1  0  0  0
 28 97  1  0  0  0
 29 98  1  0  0  0
 29 99  1  0  0  0
 33 34  1  0  0  0
 33 66  1  0  0  0
 33 70  2  0  0  0
 34 36  1  0  0  0
 34 59  1  0  0  0
 34100  1  0  0  0
 35 44  2  0  0  0
 35 45  1  0  0  0
 35 68  1  0  0  0
 36 56  1  0  0  0
 36101  1  0  0  0
 37 39  1  0  0  0
 37 47  1  0  0  0
 37 66  1  0  0  0
 37102  1  0  0  0
 38 43  2  0  0  0
 38 46  1  0  0  0
 38 47  1  0  0  0
 39 64  1  0  0  0
 39 67  2  0  0  0
 40 52  1  0  0  0
 40 53  2  0  0  0
 40 58  1  0  0  0
 41103  1  0  0  0
 41104  1  0  0  0
 41105  1  0  0  0
 41 48  1  0  0  0
 42 43  1  0  0  0
 42 66  1  0  0  0
 42106  1  0  0  0
 42107  1  0  0  0
 43 44  1  0  0  0
 44108  1  0  0  0
 45 46  2  0  0  0
 45109  1  0  0  0
 46110  1  0  0  0
 47111  1  0  0  0
 47112  1  0  0  0
 48 56  1  0  0  0
 48 65  1  0  0  0
 48113  1  0  0  0
 49 50  1  0  0  0
 49 53  1  0  0  0
 49 64  1  0  0  0
 49114  1  0  0  0
 50 51  1  0  0  0
 50115  1  0  0  0
 50116  1  0  0  0
 51 52  1  0  0  0
 51117  1  0  0  0
 51118  1  0  0  0
 52119  1  0  0  0
 52120  1  0  0  0
 53 54  1  0  0  0
 54 55  2  0  0  0
 54121  1  0  0  0
 55 57  1  0  0  0
 55122  1  0  0  0
 56 69  2  0  0  0
 57 58  2  0  0  0
 57123  1  0  0  0
 58124  1  0  0  0
 59 60  1  0  0  0
 59 61  1  0  0  0
 59 62  1  0  0  0
 60125  1  0  0  0
 60126  1  0  0  0
 60127  1  0  0  0
 61128  1  0  0  0
 61129  1  0  0  0
 61130  1  0  0  0
 62131  1  0  0  0
 62132  1  0  0  0
 62133  1  0  0  0
 63 65  1  0  0  0
 63134  1  0  0  0
 63135  1  0  0  0
 63136  1  0  0  0
 64137  1  0  0  0
 65138  1  0  0  0
 68 77  1  0  0  0
 71 72  2  0  0  0
 71 73  1  0  0  0
 71139  1  0  0  0
 72 74  1  0  0  0
 72140  1  0  0  0
 73 75  2  0  0  0
 73 76  1  0  0  0
 74 77  1  0  0  0
 74 78  2  0  0  0
 75 78  1  0  0  0
 75 79  1  0  0  0
 76141  1  0  0  0
 76142  1  0  0  0
 76143  1  0  0  0
 77144  1  0  0  0
 77145  1  0  0  0
 79146  1  0  0  0
M  ISO  4   1 100  68 101  77 101  79 100
M  END
> <chiral flag>
0

> <version>
0

> <s_m_source_file>
/data/baiqing/PycharmProjects/Reinvent-master-3.2/result/LINK_invent/BTK/process_docking_weight1_custom_sum_contain_oxygen_bond_distance_aromatic_linkinvent_7_9_3/rearranged_h_0016.sdf

> <i_m_source_file_index>
88

> <r_mmod_Potential_Energy-OPLS-2005>
2819.10961914062

> <r_mmod_Stretch_Energy-OPLS-2005>
1341.68041992188

> <r_mmod_Bend_Energy-OPLS-2005>
690.546508789062

> <r_mmod_Torsional_Energy-OPLS-2005>
224.188568115234

> <r_mmod_Improper_Torsional_Energy-OPLS-2005>
3.86777806282043

> <r_mmod_Van_der_Waal_Energy-OPLS-2005>
135.239501953125

> <r_mmod_Electrostatic_Energy-OPLS-2005>
-504.408355712891

> <r_mmod_Solvation_Energy-OPLS-2005>
-231.206649780273

> <b_mmod_Minimization_Converged-OPLS-2005>
0

> <r_mmod_RMS_Derivative-OPLS-2005>
1.31596267223358

$$$$
88
                    3D
 Structure written by MMmdl.
167175  0  0  1  0            999 V2000
  -30.7741  -14.3662   20.6504 C   0  0  0  0  0  0
  -30.4099  -12.2768   19.3961 C   0  0  0  0  0  0
  -29.4817  -12.5215   18.1925 C   0  0  0  0  0  0
  -28.0054  -12.3838   18.6098 C   0  0  0  0  0  0
  -27.6669  -13.2061   19.8813 C   0  0  2  0  0  0
  -28.7067  -12.9549   20.9966 C   0  0  0  0  0  0
  -25.2605  -13.8169   20.5682 C   0  0  0  0  0  0
  -24.1846  -13.0443   20.9158 C   0  0  0  0  0  0
  -24.6396  -11.6908   20.8714 C   0  0  0  0  0  0
  -23.9056  -10.4293   21.0389 C   0  0  0  0  0  0
  -24.3608   -9.4213   21.9175 C   0  0  0  0  0  0
  -23.6295   -8.2242   22.0749 C   0  0  0  0  0  0
  -22.4276   -8.0271   21.3541 C   0  0  0  0  0  0
  -21.9903   -9.0241   20.4645 C   0  0  0  0  0  0
  -22.7223  -10.2129   20.3046 C   0  0  0  0  0  0
  -21.6844   -6.0730   22.5278 C   0  0  0  0  0  0
  -21.4008   -6.5636   23.8209 C   0  0  0  0  0  0
  -21.3664   -5.6789   24.9172 C   0  0  0  0  0  0
  -21.6046   -4.3053   24.7220 C   0  0  0  0  0  0
  -21.8823   -3.8144   23.4339 C   0  0  0  0  0  0
  -21.9196   -4.6959   22.3399 C   0  0  0  0  0  0
  -22.7865  -13.5231   21.1834 C   0  0  0  0  0  0
  -22.1660   -4.2146   21.0975 F   0  0  0  0  0  0
  -21.5639   -3.4538   25.7734 F   0  0  0  0  0  0
  -30.0493  -13.2344   20.4533 N   0  0  0  0  0  0
  -26.3050  -12.9345   20.3398 N   0  0  0  0  0  0
  -25.9326  -11.6494   20.5765 N   0  0  0  0  0  0
  -22.0502  -12.8220   22.0389 N   0  0  0  0  0  0
  -25.4357  -15.1886   20.4109 N   0  0  0  0  0  0
  -31.8112  -14.6067   20.0260 O   0  0  0  0  0  0
  -21.6634   -6.8871   21.4239 O   0  0  0  0  0  0
  -22.3546  -14.5535   20.6686 O   0  0  0  0  0  0
  -24.6094  -31.8700   23.2120 C   0  0  0  0  0  0
  -25.9006  -32.4832   23.8401 C   0  0  1  0  0  0
  -27.2406  -27.4828   20.0800 C   0  0  0  0  0  0
  -25.5876  -33.8631   24.2336 N   0  0  0  0  0  0
  -23.3956  -30.4926   21.5509 C   0  0  2  0  0  0
  -24.8444  -28.9603   20.1164 C   0  0  0  0  0  0
  -22.7386  -29.4663   22.5001 C   0  0  0  0  0  0
  -18.0270  -28.1369   22.8488 C   0  0  0  0  0  0
  -24.1486  -36.7331   23.2639 C   0  0  0  0  0  0
  -25.9186  -30.8491   21.3583 C   0  0  0  0  0  0
  -25.9996  -29.4847   20.7106 C   0  0  0  0  0  0
  -27.2024  -28.7499   20.6966 C   0  0  0  0  0  0
  -26.0722  -26.9511   19.5020 C   0  0  0  0  0  0
  -24.8720  -27.6893   19.5129 C   0  0  0  0  0  0
  -23.6027  -29.8218   20.1657 C   0  0  0  0  0  0
  -25.4095  -36.3119   24.0349 C   0  0  1  0  0  0
  -20.5855  -28.3650   23.1330 C   0  0  2  0  0  0
  -20.6751  -26.9389   22.5425 C   0  0  0  0  0  0
  -19.5744  -26.6385   21.5206 C   0  0  0  0  0  0
  -18.1916  -26.7926   22.1599 C   0  0  0  0  0  0
  -19.1517  -28.8824   23.2908 C   0  0  0  0  0  0
  -18.9448  -30.1429   23.8917 C   0  0  0  0  0  0
  -17.6453  -30.6579   24.0561 C   0  0  0  0  0  0
  -25.9023  -34.9487   23.5140 C   0  0  0  0  0  0
  -16.5345  -29.9085   23.6316 C   0  0  0  0  0  0
  -16.7262  -28.6497   23.0344 C   0  0  0  0  0  0
  -26.4463  -31.6601   25.0711 C   0  0  0  0  0  0
  -25.3754  -31.3705   26.1484 C   0  0  0  0  0  0
  -27.0281  -30.3050   24.6045 C   0  0  0  0  0  0
  -27.6055  -32.4312   25.7457 C   0  0  0  0  0  0
  -27.5597  -37.1798   24.8448 C   0  0  0  0  0  0
  -21.4121  -29.3025   22.3744 N   0  0  0  0  0  0
  -26.4275  -37.3810   23.9439 N   0  0  0  0  0  0
  -24.6591  -31.0840   22.0998 N   0  0  0  0  0  0
  -23.4183  -28.8212   23.3026 O   0  0  0  0  0  0
  -28.3980  -26.7552   20.0413 O   0  0  0  0  0  0
  -26.5590  -34.8940   22.4702 O   0  0  0  0  0  0
  -23.5299  -32.1432   23.7541 O   0  0  0  0  0  0
  -31.6650  -17.2547   21.2456 C   0  0  0  0  0  0
  -32.1029  -18.7381   23.1384 C   0  0  0  0  0  0
  -31.2770  -17.9252   23.9641 C   0  0  0  0  0  0
  -30.8930  -16.4027   22.0675 C   0  0  0  0  0  0
  -32.2761  -18.3990   21.7801 C   0  0  0  0  0  0
  -30.6798  -16.7559   23.4200 C   0  0  0  0  0  0
  -32.9880  -22.2575   22.7178 C   0  0  0  0  0  0
  -31.2304  -25.6039   19.7909 C   0  0  0  0  0  0
  -31.0542  -18.2928   25.4283 C   0  0  0  0  0  0
  -32.8421  -19.9647   23.6672 C   0  0  0  0  0  0
  -32.2088  -23.4843   22.2276 C   0  0  0  0  0  0
  -30.7625  -27.0471   19.5769 C   0  0  0  0  0  0
  -32.8664  -24.1609   21.0056 C   0  0  0  0  0  0
  -29.3250  -27.1847   19.0481 C   0  0  0  0  0  0
  -30.2946  -15.2031   21.5808 N   0  0  0  0  0  0
  -32.2754  -21.2197   23.1745 N   0  0  0  0  0  0
  -32.2258  -25.4319   20.6685 N   0  0  0  0  0  0
  -34.2206  -22.2576   22.6980 O   0  0  0  0  0  0
  -30.7229  -24.6655   19.1729 O   0  0  0  0  0  0
  -33.0467  -19.1701   20.9759 F   0  0  0  0  0  0
  -29.6989  -15.7130   24.3993 Cl  0  0  0  0  0  0
  -31.4536  -12.3598   19.0877 H   0  0  0  0  0  0
  -30.2943  -11.2561   19.7636 H   0  0  0  0  0  0
  -29.7101  -11.8164   17.3919 H   0  0  0  0  0  0
  -29.6608  -13.5173   17.7853 H   0  0  0  0  0  0
  -27.8060  -11.3267   18.7866 H   0  0  0  0  0  0
  -27.3525  -12.6821   17.7886 H   0  0  0  0  0  0
  -27.7248  -14.2595   19.6060 H   0  0  0  0  0  0
  -28.6647  -11.9147   21.3247 H   0  0  0  0  0  0
  -28.4612  -13.5456   21.8796 H   0  0  0  0  0  0
  -25.2756   -9.5700   22.4738 H   0  0  0  0  0  0
  -24.0014   -7.4631   22.7467 H   0  0  0  0  0  0
  -21.0830   -8.8749   19.8952 H   0  0  0  0  0  0
  -22.3674  -10.9654   19.6145 H   0  0  0  0  0  0
  -21.1988   -7.6140   23.9715 H   0  0  0  0  0  0
  -21.1486   -6.0512   25.9079 H   0  0  0  0  0  0
  -22.0600   -2.7605   23.2832 H   0  0  0  0  0  0
  -22.4095  -11.9865   22.4755 H   0  0  0  0  0  0
  -21.1129  -13.1266   22.2617 H   0  0  0  0  0  0
  -24.6771  -15.8524   20.5258 H   0  0  0  0  0  0
  -26.3048  -15.6258   20.1283 H   0  0  0  0  0  0
  -26.7070  -32.5572   23.1172 H   0  0  0  0  0  0
  -25.0015  -33.9785   25.0470 H   0  0  0  0  0  0
  -22.6816  -31.3074   21.4128 H   0  0  0  0  0  0
  -23.3754  -35.9656   23.3251 H   0  0  0  0  0  0
  -24.3605  -36.8988   22.2067 H   0  0  0  0  0  0
  -23.7220  -37.6517   23.6674 H   0  0  0  0  0  0
  -26.0203  -31.6137   20.5872 H   0  0  0  0  0  0
  -26.8103  -30.9073   21.9703 H   0  0  0  0  0  0
  -28.0982  -29.1512   21.1500 H   0  0  0  0  0  0
  -26.0978  -25.9760   19.0360 H   0  0  0  0  0  0
  -23.9833  -27.2773   19.0549 H   0  0  0  0  0  0
  -23.7059  -30.5949   19.4036 H   0  0  0  0  0  0
  -22.7284  -29.2370   19.8738 H   0  0  0  0  0  0
  -25.1257  -36.1974   25.0839 H   0  0  0  0  0  0
  -20.9950  -28.3211   24.1447 H   0  0  0  0  0  0
  -20.5631  -26.2262   23.3609 H   0  0  0  0  0  0
  -21.6625  -26.7425   22.1232 H   0  0  0  0  0  0
  -19.6908  -25.6300   21.1222 H   0  0  0  0  0  0
  -19.6701  -27.3202   20.6742 H   0  0  0  0  0  0
  -17.4202  -26.6703   21.3982 H   0  0  0  0  0  0
  -18.0297  -26.0051   22.8972 H   0  0  0  0  0  0
  -19.7928  -30.7229   24.2303 H   0  0  0  0  0  0
  -17.5016  -31.6260   24.5164 H   0  0  0  0  0  0
  -15.5345  -30.2991   23.7635 H   0  0  0  0  0  0
  -15.8661  -28.0826   22.7044 H   0  0  0  0  0  0
  -24.5891  -30.7089   25.7830 H   0  0  0  0  0  0
  -24.8994  -32.2868   26.4982 H   0  0  0  0  0  0
  -25.8126  -30.8831   27.0207 H   0  0  0  0  0  0
  -26.2792  -29.6806   24.1157 H   0  0  0  0  0  0
  -27.4131  -29.7284   25.4467 H   0  0  0  0  0  0
  -27.8595  -30.4378   23.9118 H   0  0  0  0  0  0
  -27.2683  -33.3598   26.2072 H   0  0  0  0  0  0
  -28.3840  -32.6890   25.0264 H   0  0  0  0  0  0
  -28.0756  -31.8414   26.5337 H   0  0  0  0  0  0
  -28.2552  -38.0155   24.7564 H   0  0  0  0  0  0
  -28.1141  -36.2688   24.6142 H   0  0  0  0  0  0
  -27.2343  -37.1302   25.8853 H   0  0  0  0  0  0
  -20.9277  -29.8760   21.6983 H   0  0  0  0  0  0
  -26.0162  -38.2877   24.1478 H   0  0  0  0  0  0
  -31.8202  -17.0430   20.1989 H   0  0  0  0  0  0
  -30.8806  -19.3625   25.5414 H   0  0  0  0  0  0
  -31.9285  -18.0206   26.0197 H   0  0  0  0  0  0
  -30.1884  -17.8019   25.8695 H   0  0  0  0  0  0
  -33.8839  -19.8620   23.3578 H   0  0  0  0  0  0
  -32.8807  -19.9939   24.7549 H   0  0  0  0  0  0
  -32.1579  -24.1883   23.0589 H   0  0  0  0  0  0
  -31.1813  -23.2045   21.9900 H   0  0  0  0  0  0
  -31.4479  -27.5080   18.8650 H   0  0  0  0  0  0
  -30.8614  -27.6092   20.5061 H   0  0  0  0  0  0
  -32.8607  -23.4827   20.1498 H   0  0  0  0  0  0
  -33.9153  -24.3760   21.2131 H   0  0  0  0  0  0
  -29.1823  -26.5961   18.1409 H   0  0  0  0  0  0
  -29.1577  -28.2257   18.7627 H   0  0  0  0  0  0
  -29.5047  -14.8600   22.1060 H   0  0  0  0  0  0
  -31.2675  -21.2955   23.1684 H   0  0  0  0  0  0
  -32.5972  -26.2621   21.1138 H   0  0  0  0  0  0
  1 25  1  0  0  0
  1 30  2  0  0  0
  1 85  1  0  0  0
  2  3  1  0  0  0
  2 25  1  0  0  0
  2 92  1  0  0  0
  2 93  1  0  0  0
  3  4  1  0  0  0
  3 94  1  0  0  0
  3 95  1  0  0  0
  4  5  1  0  0  0
  4 96  1  0  0  0
  4 97  1  0  0  0
  5  6  1  0  0  0
  5 26  1  0  0  0
  5 98  1  0  0  0
  6 25  1  0  0  0
  6 99  1  0  0  0
  6100  1  0  0  0
  7  8  2  0  0  0
  7 26  1  0  0  0
  7 29  1  0  0  0
  8  9  1  0  0  0
  8 22  1  0  0  0
  9 10  1  0  0  0
  9 27  2  0  0  0
 10 11  2  0  0  0
 10 15  1  0  0  0
 11 12  1  0  0  0
 11101  1  0  0  0
 12 13  2  0  0  0
 12102  1  0  0  0
 13 14  1  0  0  0
 13 31  1  0  0  0
 14 15  2  0  0  0
 14103  1  0  0  0
 15104  1  0  0  0
 16 17  2  0  0  0
 16 21  1  0  0  0
 16 31  1  0  0  0
 17 18  1  0  0  0
 17105  1  0  0  0
 18 19  2  0  0  0
 18106  1  0  0  0
 19 20  1  0  0  0
 19 24  1  0  0  0
 20 21  2  0  0  0
 20107  1  0  0  0
 21 23  1  0  0  0
 22 28  1  0  0  0
 22 32  2  0  0  0
 26 27  1  0  0  0
 28108  1  0  0  0
 28109  1  0  0  0
 29110  1  0  0  0
 29111  1  0  0  0
 33 34  1  0  0  0
 33 66  1  0  0  0
 33 70  2  0  0  0
 34 36  1  0  0  0
 34 59  1  0  0  0
 34112  1  0  0  0
 35 44  2  0  0  0
 35 45  1  0  0  0
 35 68  1  0  0  0
 36 56  1  0  0  0
 36113  1  0  0  0
 37 39  1  0  0  0
 37 47  1  0  0  0
 37 66  1  0  0  0
 37114  1  0  0  0
 38 43  2  0  0  0
 38 46  1  0  0  0
 38 47  1  0  0  0
 39 64  1  0  0  0
 39 67  2  0  0  0
 40 52  1  0  0  0
 40 53  2  0  0  0
 40 58  1  0  0  0
 41115  1  0  0  0
 41116  1  0  0  0
 41117  1  0  0  0
 41 48  1  0  0  0
 42 43  1  0  0  0
 42 66  1  0  0  0
 42118  1  0  0  0
 42119  1  0  0  0
 43 44  1  0  0  0
 44120  1  0  0  0
 45 46  2  0  0  0
 45121  1  0  0  0
 46122  1  0  0  0
 47123  1  0  0  0
 47124  1  0  0  0
 48 56  1  0  0  0
 48 65  1  0  0  0
 48125  1  0  0  0
 49 50  1  0  0  0
 49 53  1  0  0  0
 49 64  1  0  0  0
 49126  1  0  0  0
 50 51  1  0  0  0
 50127  1  0  0  0
 50128  1  0  0  0
 51 52  1  0  0  0
 51129  1  0  0  0
 51130  1  0  0  0
 52131  1  0  0  0
 52132  1  0  0  0
 53 54  1  0  0  0
 54 55  2  0  0  0
 54133  1  0  0  0
 55 57  1  0  0  0
 55134  1  0  0  0
 56 69  2  0  0  0
 57 58  2  0  0  0
 57135  1  0  0  0
 58136  1  0  0  0
 59 60  1  0  0  0
 59 61  1  0  0  0
 59 62  1  0  0  0
 60137  1  0  0  0
 60138  1  0  0  0
 60139  1  0  0  0
 61140  1  0  0  0
 61141  1  0  0  0
 61142  1  0  0  0
 62143  1  0  0  0
 62144  1  0  0  0
 62145  1  0  0  0
 63 65  1  0  0  0
 63146  1  0  0  0
 63147  1  0  0  0
 63148  1  0  0  0
 64149  1  0  0  0
 65150  1  0  0  0
 68 84  1  0  0  0
 71 74  2  0  0  0
 71 75  1  0  0  0
 71151  1  0  0  0
 72 73  1  0  0  0
 72 75  2  0  0  0
 72 80  1  0  0  0
 73 76  2  0  0  0
 73 79  1  0  0  0
 74 76  1  0  0  0
 74 85  1  0  0  0
 75 90  1  0  0  0
 76 91  1  0  0  0
 77 81  1  0  0  0
 77 86  1  0  0  0
 77 88  2  0  0  0
 78 82  1  0  0  0
 78 87  1  0  0  0
 78 89  2  0  0  0
 79152  1  0  0  0
 79153  1  0  0  0
 79154  1  0  0  0
 80 86  1  0  0  0
 80155  1  0  0  0
 80156  1  0  0  0
 81 83  1  0  0  0
 81157  1  0  0  0
 81158  1  0  0  0
 82 84  1  0  0  0
 82159  1  0  0  0
 82160  1  0  0  0
 83 87  1  0  0  0
 83161  1  0  0  0
 83162  1  0  0  0
 84163  1  0  0  0
 84164  1  0  0  0
 85165  1  0  0  0
 86166  1  0  0  0
 87167  1  0  0  0
M  ISO  4   1 100  68 101  84 101  85 100
M  END
> <chiral flag>
0

> <version>
0

> <s_m_source_file>
/data/baiqing/PycharmProjects/Reinvent-master-3.2/result/LINK_invent/BTK/process_docking_weight1_custom_sum_contain_oxygen_bond_distance_aromatic_linkinvent_7_9_3/rearranged_h_0016.sdf

> <i_m_source_file_index>
89

> <r_mmod_Potential_Energy-OPLS-2005>
-207.60693359375

> <r_mmod_Stretch_Energy-OPLS-2005>
34.3465766906738

> <r_mmod_Bend_Energy-OPLS-2005>
92.3859100341797

> <r_mmod_Torsional_Energy-OPLS-2005>
224.907135009766

> <r_mmod_Improper_Torsional_Energy-OPLS-2005>
2.08775639533997

> <r_mmod_Van_der_Waal_Energy-OPLS-2005>
168.932800292969

> <r_mmod_Electrostatic_Energy-OPLS-2005>
-472.646331787109

> <r_mmod_Solvation_Energy-OPLS-2005>
-264.212432861328

> <b_mmod_Minimization_Converged-OPLS-2005>
0

> <r_mmod_RMS_Derivative-OPLS-2005>
1.45608770847321

$$$$
89
                    3D
 Structure written by MMmdl.
163171  0  0  1  0            999 V2000
  -30.6840  -14.4273   20.6529 C   0  0  0  0  0  0
  -30.4349  -12.3101   19.3911 C   0  0  0  0  0  0
  -29.4903  -12.5342   18.1913 C   0  0  0  0  0  0
  -28.0115  -12.3891   18.6042 C   0  0  0  0  0  0
  -27.6688  -13.1971   19.8832 C   0  0  2  0  0  0
  -28.7068  -12.8976   20.9834 C   0  0  0  0  0  0
  -25.2641  -13.8151   20.5678 C   0  0  0  0  0  0
  -24.1864  -13.0446   20.9155 C   0  0  0  0  0  0
  -24.6400  -11.6907   20.8726 C   0  0  0  0  0  0
  -23.9058  -10.4296   21.0410 C   0  0  0  0  0  0
  -24.3607   -9.4206   21.9185 C   0  0  0  0  0  0
  -23.6275   -8.2245   22.0758 C   0  0  0  0  0  0
  -22.4262   -8.0282   21.3544 C   0  0  0  0  0  0
  -21.9896   -9.0269   20.4655 C   0  0  0  0  0  0
  -22.7234  -10.2143   20.3064 C   0  0  0  0  0  0
  -21.6850   -6.0732   22.5280 C   0  0  0  0  0  0
  -21.4019   -6.5640   23.8215 C   0  0  0  0  0  0
  -21.3649   -5.6798   24.9177 C   0  0  0  0  0  0
  -21.6039   -4.3063   24.7227 C   0  0  0  0  0  0
  -21.8823   -3.8146   23.4357 C   0  0  0  0  0  0
  -21.9191   -4.6959   22.3414 C   0  0  0  0  0  0
  -22.7889  -13.5251   21.1819 C   0  0  0  0  0  0
  -22.1654   -4.2137   21.0989 F   0  0  0  0  0  0
  -21.5620   -3.4547   25.7744 F   0  0  0  0  0  0
  -30.0447  -13.2402   20.4614 N   0  0  0  0  0  0
  -26.3064  -12.9295   20.3391 N   0  0  0  0  0  0
  -25.9323  -11.6467   20.5758 N   0  0  0  0  0  0
  -22.0529  -12.8254   22.0382 N   0  0  0  0  0  0
  -25.4421  -15.1863   20.4109 N   0  0  0  0  0  0
  -31.7432  -14.7126   20.0884 O   0  0  0  0  0  0
  -21.6637   -6.8866   21.4236 O   0  0  0  0  0  0
  -22.3571  -14.5552   20.6663 O   0  0  0  0  0  0
  -24.6127  -31.8686   23.2104 C   0  0  0  0  0  0
  -25.9024  -32.4826   23.8403 C   0  0  1  0  0  0
  -27.2431  -27.4534   20.0958 C   0  0  0  0  0  0
  -25.5883  -33.8627   24.2336 N   0  0  0  0  0  0
  -23.4017  -30.4908   21.5493 C   0  0  2  0  0  0
  -24.8514  -28.9512   20.1211 C   0  0  0  0  0  0
  -22.7399  -29.4672   22.4990 C   0  0  0  0  0  0
  -18.0273  -28.1376   22.8489 C   0  0  0  0  0  0
  -24.1476  -36.7320   23.2636 C   0  0  0  0  0  0
  -25.9276  -30.8387   21.3608 C   0  0  0  0  0  0
  -26.0084  -29.4704   20.7162 C   0  0  0  0  0  0
  -27.2097  -28.7276   20.7032 C   0  0  0  0  0  0
  -26.0743  -26.9383   19.5025 C   0  0  0  0  0  0
  -24.8768  -27.6811   19.5154 C   0  0  0  0  0  0
  -23.6125  -29.8180   20.1659 C   0  0  0  0  0  0
  -25.4095  -36.3118   24.0341 C   0  0  1  0  0  0
  -20.5859  -28.3669   23.1310 C   0  0  2  0  0  0
  -20.6758  -26.9405   22.5414 C   0  0  0  0  0  0
  -19.5744  -26.6394   21.5202 C   0  0  0  0  0  0
  -18.1925  -26.7922   22.1618 C   0  0  0  0  0  0
  -19.1519  -28.8835   23.2901 C   0  0  0  0  0  0
  -18.9453  -30.1435   23.8924 C   0  0  0  0  0  0
  -17.6457  -30.6579   24.0574 C   0  0  0  0  0  0
  -25.9027  -34.9479   23.5137 C   0  0  0  0  0  0
  -16.5348  -29.9091   23.6316 C   0  0  0  0  0  0
  -16.7265  -28.6506   23.0338 C   0  0  0  0  0  0
  -26.4460  -31.6597   25.0720 C   0  0  0  0  0  0
  -25.3748  -31.3708   26.1492 C   0  0  0  0  0  0
  -27.0267  -30.3038   24.6072 C   0  0  0  0  0  0
  -27.6053  -32.4302   25.7466 C   0  0  0  0  0  0
  -27.5580  -37.1805   24.8457 C   0  0  0  0  0  0
  -21.4128  -29.3038   22.3715 N   0  0  0  0  0  0
  -26.4282  -37.3801   23.9417 N   0  0  0  0  0  0
  -24.6656  -31.0803   22.0994 N   0  0  0  0  0  0
  -23.4168  -28.8227   23.3045 O   0  0  0  0  0  0
  -28.4089  -26.7300   20.0356 O   0  0  0  0  0  0
  -26.5593  -34.8931   22.4704 O   0  0  0  0  0  0
  -23.5322  -32.1430   23.7504 O   0  0  0  0  0  0
  -28.0881  -18.0249   22.8612 C   0  0  0  0  0  0
  -28.3993  -19.0789   21.9978 C   0  0  0  0  0  0
  -28.7017  -16.7716   22.7072 C   0  0  0  0  0  0
  -29.3440  -18.9128   20.9646 C   0  0  0  0  0  0
  -29.6264  -16.5391   21.6500 C   0  0  0  0  0  0
  -29.9418  -17.6275   20.7651 C   0  0  0  0  0  0
  -29.7799  -23.8177   19.8387 C   0  0  0  0  0  0
  -28.3086  -15.6821   23.6974 C   0  0  0  0  0  0
  -31.6865  -22.3389   19.4994 C   0  0  0  0  0  0
  -29.6649  -20.1355   20.0829 C   0  0  0  0  0  0
  -28.5306  -24.2927   20.6149 C   0  0  0  0  0  0
  -29.8209  -21.4766   20.8645 C   0  0  0  0  0  0
  -28.5911  -25.7710   21.0834 C   0  0  0  0  0  0
  -30.1184  -15.1870   21.6082 N   0  0  0  0  0  0
  -30.3453  -22.5925   20.0459 N   0  0  0  0  0  0
  -30.2780  -24.6085   19.0301 O   0  0  0  0  0  0
  -31.0144  -17.4346   19.4199 Cl  0  0  0  0  0  0
  -31.4737  -12.4467   19.0839 H   0  0  0  0  0  0
  -30.3656  -11.2807   19.7466 H   0  0  0  0  0  0
  -29.7237  -11.8319   17.3901 H   0  0  0  0  0  0
  -29.6563  -13.5310   17.7787 H   0  0  0  0  0  0
  -27.8158  -11.3291   18.7731 H   0  0  0  0  0  0
  -27.3589  -12.6911   17.7843 H   0  0  0  0  0  0
  -27.7354  -14.2567   19.6346 H   0  0  0  0  0  0
  -28.6823  -11.8364   21.2364 H   0  0  0  0  0  0
  -28.4454  -13.4028   21.9103 H   0  0  0  0  0  0
  -25.2758   -9.5673   22.4751 H   0  0  0  0  0  0
  -23.9976   -7.4639   22.7491 H   0  0  0  0  0  0
  -21.0823   -8.8820   19.8964 H   0  0  0  0  0  0
  -22.3711  -10.9698   19.6176 H   0  0  0  0  0  0
  -21.2028   -7.6156   23.9712 H   0  0  0  0  0  0
  -21.1453   -6.0533   25.9074 H   0  0  0  0  0  0
  -22.0606   -2.7608   23.2880 H   0  0  0  0  0  0
  -22.4123  -11.9899   22.4761 H   0  0  0  0  0  0
  -21.1162  -13.1313   22.2609 H   0  0  0  0  0  0
  -24.6893  -15.8542   20.5357 H   0  0  0  0  0  0
  -26.3144  -15.6199   20.1359 H   0  0  0  0  0  0
  -26.7105  -32.5554   23.1183 H   0  0  0  0  0  0
  -25.0025  -33.9787   25.0475 H   0  0  0  0  0  0
  -22.6907  -31.3074   21.4066 H   0  0  0  0  0  0
  -23.3731  -35.9660   23.3298 H   0  0  0  0  0  0
  -24.3579  -36.8930   22.2051 H   0  0  0  0  0  0
  -23.7227  -37.6528   23.6643 H   0  0  0  0  0  0
  -26.0324  -31.6007   20.5871 H   0  0  0  0  0  0
  -26.8183  -30.8996   21.9748 H   0  0  0  0  0  0
  -28.1088  -29.1303   21.1489 H   0  0  0  0  0  0
  -26.0968  -25.9696   19.0239 H   0  0  0  0  0  0
  -23.9878  -27.2734   19.0546 H   0  0  0  0  0  0
  -23.7252  -30.5921   19.4058 H   0  0  0  0  0  0
  -22.7369  -29.2387   19.8672 H   0  0  0  0  0  0
  -25.1264  -36.1984   25.0831 H   0  0  0  0  0  0
  -20.9956  -28.3240   24.1428 H   0  0  0  0  0  0
  -20.5641  -26.2287   23.3607 H   0  0  0  0  0  0
  -21.6631  -26.7435   22.1221 H   0  0  0  0  0  0
  -19.6912  -25.6313   21.1214 H   0  0  0  0  0  0
  -19.6686  -27.3220   20.6745 H   0  0  0  0  0  0
  -17.4192  -26.6662   21.4025 H   0  0  0  0  0  0
  -18.0346  -26.0057   22.9014 H   0  0  0  0  0  0
  -19.7931  -30.7234   24.2318 H   0  0  0  0  0  0
  -17.5017  -31.6256   24.5186 H   0  0  0  0  0  0
  -15.5353  -30.3010   23.7620 H   0  0  0  0  0  0
  -15.8664  -28.0840   22.7034 H   0  0  0  0  0  0
  -24.5901  -30.7070   25.7845 H   0  0  0  0  0  0
  -24.8970  -32.2869   26.4974 H   0  0  0  0  0  0
  -25.8124  -30.8858   27.0227 H   0  0  0  0  0  0
  -26.2791  -29.6816   24.1135 H   0  0  0  0  0  0
  -27.4048  -29.7257   25.4513 H   0  0  0  0  0  0
  -27.8627  -30.4354   23.9198 H   0  0  0  0  0  0
  -27.2689  -33.3597   26.2070 H   0  0  0  0  0  0
  -28.3843  -32.6862   25.0273 H   0  0  0  0  0  0
  -28.0737  -31.8402   26.5354 H   0  0  0  0  0  0
  -28.2589  -38.0110   24.7512 H   0  0  0  0  0  0
  -28.1078  -36.2642   24.6251 H   0  0  0  0  0  0
  -27.2311  -37.1420   25.8863 H   0  0  0  0  0  0
  -20.9294  -29.8759   21.6933 H   0  0  0  0  0  0
  -26.0168  -38.2876   24.1440 H   0  0  0  0  0  0
  -27.3669  -18.1892   23.6511 H   0  0  0  0  0  0
  -27.8951  -20.0218   22.1500 H   0  0  0  0  0  0
  -27.8460  -16.1117   24.5866 H   0  0  0  0  0  0
  -29.1696  -15.1062   24.0380 H   0  0  0  0  0  0
  -27.5779  -15.0087   23.2500 H   0  0  0  0  0  0
  -32.3335  -23.2141   19.5810 H   0  0  0  0  0  0
  -31.6180  -22.0682   18.4448 H   0  0  0  0  0  0
  -32.2013  -21.5324   20.0230 H   0  0  0  0  0  0
  -28.8715  -20.2344   19.3410 H   0  0  0  0  0  0
  -30.5750  -19.9522   19.5181 H   0  0  0  0  0  0
  -28.4074  -23.7109   21.5236 H   0  0  0  0  0  0
  -27.6431  -24.1188   20.0073 H   0  0  0  0  0  0
  -30.4983  -21.3352   21.7081 H   0  0  0  0  0  0
  -28.8559  -21.7233   21.2941 H   0  0  0  0  0  0
  -29.5578  -25.9659   21.5508 H   0  0  0  0  0  0
  -27.8558  -25.9212   21.8773 H   0  0  0  0  0  0
  -29.5779  -14.5964   22.2183 H   0  0  0  0  0  0
  1 25  1  0  0  0
  1 30  2  0  0  0
  1 84  1  0  0  0
  2  3  1  0  0  0
  2 25  1  0  0  0
  2 88  1  0  0  0
  2 89  1  0  0  0
  3  4  1  0  0  0
  3 90  1  0  0  0
  3 91  1  0  0  0
  4  5  1  0  0  0
  4 92  1  0  0  0
  4 93  1  0  0  0
  5  6  1  0  0  0
  5 26  1  0  0  0
  5 94  1  0  0  0
  6 25  1  0  0  0
  6 95  1  0  0  0
  6 96  1  0  0  0
  7  8  2  0  0  0
  7 26  1  0  0  0
  7 29  1  0  0  0
  8  9  1  0  0  0
  8 22  1  0  0  0
  9 10  1  0  0  0
  9 27  2  0  0  0
 10 11  2  0  0  0
 10 15  1  0  0  0
 11 12  1  0  0  0
 11 97  1  0  0  0
 12 13  2  0  0  0
 12 98  1  0  0  0
 13 14  1  0  0  0
 13 31  1  0  0  0
 14 15  2  0  0  0
 14 99  1  0  0  0
 15100  1  0  0  0
 16 17  2  0  0  0
 16 21  1  0  0  0
 16 31  1  0  0  0
 17 18  1  0  0  0
 17101  1  0  0  0
 18 19  2  0  0  0
 18102  1  0  0  0
 19 20  1  0  0  0
 19 24  1  0  0  0
 20 21  2  0  0  0
 20103  1  0  0  0
 21 23  1  0  0  0
 22 28  1  0  0  0
 22 32  2  0  0  0
 26 27  1  0  0  0
 28104  1  0  0  0
 28105  1  0  0  0
 29106  1  0  0  0
 29107  1  0  0  0
 33 34  1  0  0  0
 33 66  1  0  0  0
 33 70  2  0  0  0
 34 36  1  0  0  0
 34 59  1  0  0  0
 34108  1  0  0  0
 35 44  2  0  0  0
 35 45  1  0  0  0
 35 68  1  0  0  0
 36 56  1  0  0  0
 36109  1  0  0  0
 37 39  1  0  0  0
 37 47  1  0  0  0
 37 66  1  0  0  0
 37110  1  0  0  0
 38 43  2  0  0  0
 38 46  1  0  0  0
 38 47  1  0  0  0
 39 64  1  0  0  0
 39 67  2  0  0  0
 40 52  1  0  0  0
 40 53  2  0  0  0
 40 58  1  0  0  0
 41111  1  0  0  0
 41112  1  0  0  0
 41113  1  0  0  0
 41 48  1  0  0  0
 42 43  1  0  0  0
 42 66  1  0  0  0
 42114  1  0  0  0
 42115  1  0  0  0
 43 44  1  0  0  0
 44116  1  0  0  0
 45 46  2  0  0  0
 45117  1  0  0  0
 46118  1  0  0  0
 47119  1  0  0  0
 47120  1  0  0  0
 48 56  1  0  0  0
 48 65  1  0  0  0
 48121  1  0  0  0
 49 50  1  0  0  0
 49 53  1  0  0  0
 49 64  1  0  0  0
 49122  1  0  0  0
 50 51  1  0  0  0
 50123  1  0  0  0
 50124  1  0  0  0
 51 52  1  0  0  0
 51125  1  0  0  0
 51126  1  0  0  0
 52127  1  0  0  0
 52128  1  0  0  0
 53 54  1  0  0  0
 54 55  2  0  0  0
 54129  1  0  0  0
 55 57  1  0  0  0
 55130  1  0  0  0
 56 69  2  0  0  0
 57 58  2  0  0  0
 57131  1  0  0  0
 58132  1  0  0  0
 59 60  1  0  0  0
 59 61  1  0  0  0
 59 62  1  0  0  0
 60133  1  0  0  0
 60134  1  0  0  0
 60135  1  0  0  0
 61136  1  0  0  0
 61137  1  0  0  0
 61138  1  0  0  0
 62139  1  0  0  0
 62140  1  0  0  0
 62141  1  0  0  0
 63 65  1  0  0  0
 63142  1  0  0  0
 63143  1  0  0  0
 63144  1  0  0  0
 64145  1  0  0  0
 65146  1  0  0  0
 68 83  1  0  0  0
 71 72  2  0  0  0
 71 73  1  0  0  0
 71147  1  0  0  0
 72 74  1  0  0  0
 72148  1  0  0  0
 73 75  2  0  0  0
 73 78  1  0  0  0
 74 76  2  0  0  0
 74 80  1  0  0  0
 75 76  1  0  0  0
 75 84  1  0  0  0
 76 87  1  0  0  0
 77 81  1  0  0  0
 77 85  1  0  0  0
 77 86  2  0  0  0
 78149  1  0  0  0
 78150  1  0  0  0
 78151  1  0  0  0
 79 85  1  0  0  0
 79152  1  0  0  0
 79153  1  0  0  0
 79154  1  0  0  0
 80 82  1  0  0  0
 80155  1  0  0  0
 80156  1  0  0  0
 81 83  1  0  0  0
 81157  1  0  0  0
 81158  1  0  0  0
 82 85  1  0  0  0
 82159  1  0  0  0
 82160  1  0  0  0
 83161  1  0  0  0
 83162  1  0  0  0
 84163  1  0  0  0
M  ISO  4   1 100  68 101  83 101  84 100
M  END
> <chiral flag>
0

> <version>
0

> <s_m_source_file>
/data/baiqing/PycharmProjects/Reinvent-master-3.2/result/LINK_invent/BTK/process_docking_weight1_custom_sum_contain_oxygen_bond_distance_aromatic_linkinvent_7_9_3/rearranged_h_0016.sdf

> <i_m_source_file_index>
90

> <r_mmod_Potential_Energy-OPLS-2005>
-11.5857543945312

> <r_mmod_Stretch_Energy-OPLS-2005>
46.0529937744141

> <r_mmod_Bend_Energy-OPLS-2005>
129.964828491211

> <r_mmod_Torsional_Energy-OPLS-2005>
267.922393798828

> <r_mmod_Improper_Torsional_Energy-OPLS-2005>
5.57314252853394

> <r_mmod_Van_der_Waal_Energy-OPLS-2005>
171.523147583008

> <r_mmod_Electrostatic_Energy-OPLS-2005>
-399.218231201172

> <r_mmod_Solvation_Energy-OPLS-2005>
-242.225463867188

> <b_mmod_Minimization_Converged-OPLS-2005>
0

> <r_mmod_RMS_Derivative-OPLS-2005>
1.5164098739624

$$$$
90
                    3D
 Structure written by MMmdl.
181189  0  0  1  0            999 V2000
  -28.6195  -19.2846   20.4360 C   0  0  0  0  0  0
  -29.6403  -15.8082   19.5975 C   0  0  0  0  0  0
  -29.4157  -14.3325   18.6825 C   0  0  0  0  0  0
  -28.4854  -13.2430   19.2277 C   0  0  0  0  0  0
  -27.5147  -14.1384   19.9834 C   0  0  2  0  0  0
  -28.0731  -15.6135   20.8199 C   0  0  0  0  0  0
  -25.1154  -14.0062   20.6315 C   0  0  0  0  0  0
  -24.1497  -13.1044   20.9371 C   0  0  0  0  0  0
  -24.7393  -11.8022   20.8598 C   0  0  0  0  0  0
  -24.0224  -10.4824   21.0069 C   0  0  0  0  0  0
  -24.4347   -9.4693   21.9066 C   0  0  0  0  0  0
  -23.6784   -8.2782   22.0793 C   0  0  0  0  0  0
  -22.4749   -8.0729   21.3580 C   0  0  0  0  0  0
  -22.0594   -9.0786   20.4628 C   0  0  0  0  0  0
  -22.8214  -10.2550   20.2909 C   0  0  0  0  0  0
  -21.7108   -6.0997   22.5229 C   0  0  0  0  0  0
  -21.4200   -6.5805   23.8190 C   0  0  0  0  0  0
  -21.3663   -5.6890   24.9092 C   0  0  0  0  0  0
  -21.6010   -4.3166   24.7122 C   0  0  0  0  0  0
  -21.8822   -3.8304   23.4248 C   0  0  0  0  0  0
  -21.9291   -4.7163   22.3324 C   0  0  0  0  0  0
  -22.7251  -13.4878   21.1824 C   0  0  0  0  0  0
  -22.1725   -4.2346   21.0904 F   0  0  0  0  0  0
  -21.5551   -3.4593   25.7616 F   0  0  0  0  0  0
  -28.5822  -17.2185   20.2029 N   0  0  0  0  0  0
  -26.2969  -13.3491   20.4609 N   0  0  0  0  0  0
  -26.0709  -11.9599   20.5740 N   0  0  0  0  0  0
  -22.0210  -12.7626   22.0413 N   0  0  0  0  0  0
  -25.0709  -15.3763   20.4430 N   0  0  0  0  0  0
  -29.8688  -18.6949   20.4096 O   0  0  0  0  0  0
  -21.7025   -6.9321   21.4282 O   0  0  0  0  0  0
  -22.2490  -14.5028   20.6683 O   0  0  0  0  0  0
  -24.9092  -31.2384   23.1842 C   0  0  0  0  0  0
  -25.9865  -32.2550   23.7850 C   0  0  1  0  0  0
  -28.4817  -25.3679   19.1792 C   0  0  0  0  0  0
  -25.4915  -33.6771   24.0103 N   0  0  0  0  0  0
  -23.6711  -29.3662   21.6843 C   0  0  2  0  0  0
  -25.2076  -26.6203   20.0179 C   0  0  0  0  0  0
  -22.5609  -29.2635   22.6549 C   0  0  0  0  0  0
  -17.8938  -28.1339   22.8543 C   0  0  0  0  0  0
  -24.1119  -36.6566   23.2656 C   0  0  0  0  0  0
  -26.8514  -29.0380   22.3597 C   0  0  0  0  0  0
  -27.1909  -27.3280   21.1322 C   0  0  0  0  0  0
  -28.5467  -26.5111   20.6089 C   0  0  0  0  0  0
  -26.8604  -24.9700   18.3067 C   0  0  0  0  0  0
  -25.3387  -25.5845   18.8180 C   0  0  0  0  0  0
  -23.5781  -27.8240   20.3697 C   0  0  0  0  0  0
  -25.3979  -36.2092   23.9921 C   0  0  1  0  0  0
  -20.4374  -28.2769   23.0327 C   0  0  2  0  0  0
  -20.4320  -26.8797   22.3767 C   0  0  0  0  0  0
  -19.2977  -26.6863   21.3943 C   0  0  0  0  0  0
  -17.9952  -26.7848   22.1584 C   0  0  0  0  0  0
  -19.0556  -28.8496   23.2484 C   0  0  0  0  0  0
  -18.9257  -30.1038   23.8782 C   0  0  0  0  0  0
  -17.6581  -30.6721   24.0748 C   0  0  0  0  0  0
  -25.9121  -34.8365   23.4428 C   0  0  0  0  0  0
  -16.5095  -29.9768   23.6657 C   0  0  0  0  0  0
  -16.6208  -28.7033   23.0761 C   0  0  0  0  0  0
  -26.5352  -31.7303   25.1576 C   0  0  0  0  0  0
  -25.3980  -31.5254   26.1819 C   0  0  0  0  0  0
  -27.2410  -30.4037   24.9835 C   0  0  0  0  0  0
  -27.5858  -32.6651   25.7949 C   0  0  0  0  0  0
  -27.5267  -37.1318   24.8370 C   0  0  0  0  0  0
  -21.3021  -29.1638   22.2558 N   0  0  0  0  0  0
  -26.3927  -37.3173   23.9343 N   0  0  0  0  0  0
  -25.1582  -29.9151   22.5753 N   0  0  0  0  0  0
  -22.8963  -29.1446   23.8097 O   0  0  0  0  0  0
  -28.9979  -24.1838   19.2478 O   0  0  0  0  0  0
  -26.6919  -34.8352   22.4879 O   0  0  0  0  0  0
  -23.7758  -31.7496   23.3276 O   0  0  0  0  0  0
  -26.4101  -28.4751   19.1109 C   0  0  0  0  0  0
  -27.1011  -27.0820   18.9247 C   0  0  0  0  0  0
  -25.6362  -28.8058   20.4410 C   0  0  0  0  0  0
  -26.0251  -25.4776   21.9487 C   0  0  0  0  0  0
  -26.9050  -24.6640   20.6018 C   0  0  0  0  0  0
  -25.2176  -27.2296   22.1306 C   0  0  0  0  0  0
  -26.8969  -22.1953   18.0993 C   0  0  0  0  0  0
  -23.3328  -25.6964   22.9187 C   0  0  0  0  0  0
  -26.0309  -29.2189   17.8007 C   0  0  0  0  0  0
  -27.9495  -27.3276   17.5646 C   0  0  0  0  0  0
  -25.5179  -30.4142   20.1005 C   0  0  0  0  0  0
  -26.1896  -24.5976   23.2022 C   0  0  0  0  0  0
  -26.9971  -21.4428   16.7876 C   0  0  0  0  0  0
  -24.6363  -27.0643   24.5144 C   0  0  0  0  0  0
  -28.4371  -23.0209   18.3123 C   0  0  0  0  0  0
  -23.3874  -24.7357   21.6219 C   0  0  0  0  0  0
  -22.5514  -23.5454   21.0508 C   0  0  0  0  0  0
  -23.4143  -22.3492   20.3247 C   0  0  0  0  0  0
  -24.7120  -22.8130   19.4732 C   0  0  0  0  0  0
  -25.6641  -21.9810   18.6431 N   0  0  0  0  0  0
  -27.8080  -21.7031   20.6122 N   0  0  0  0  0  0
  -24.1992  -26.8155   23.1060 N   0  0  0  0  0  0
  -22.5833  -25.3242   23.8230 O   0  0  0  0  0  0
  -30.2519  -16.3665   18.8879 H   0  0  0  0  0  0
  -30.4069  -15.6155   20.3580 H   0  0  0  0  0  0
  -30.3915  -13.8895   18.4590 H   0  0  0  0  0  0
  -29.0091  -14.6274   17.7121 H   0  0  0  0  0  0
  -29.0162  -12.5876   19.9204 H   0  0  0  0  0  0
  -28.0172  -12.6507   18.4425 H   0  0  0  0  0  0
  -27.0693  -14.6349   19.1204 H   0  0  0  0  0  0
  -28.7384  -15.3008   21.6321 H   0  0  0  0  0  0
  -27.2417  -15.9211   21.4413 H   0  0  0  0  0  0
  -25.3404   -9.6146   22.4799 H   0  0  0  0  0  0
  -24.0380   -7.5285   22.7727 H   0  0  0  0  0  0
  -21.1464   -8.9489   19.8972 H   0  0  0  0  0  0
  -22.4677  -11.0077   19.5985 H   0  0  0  0  0  0
  -21.2298   -7.6325   23.9732 H   0  0  0  0  0  0
  -21.1388   -6.0602   25.8991 H   0  0  0  0  0  0
  -22.0563   -2.7762   23.2677 H   0  0  0  0  0  0
  -22.4132  -11.9497   22.4903 H   0  0  0  0  0  0
  -21.0725  -13.0347   22.2580 H   0  0  0  0  0  0
  -24.1936  -15.8857   20.4932 H   0  0  0  0  0  0
  -25.8507  -15.9511   20.1388 H   0  0  0  0  0  0
  -26.7818  -32.2984   23.0460 H   0  0  0  0  0  0
  -24.7269  -33.7709   24.6661 H   0  0  0  0  0  0
  -23.2843  -30.2330   21.1576 H   0  0  0  0  0  0
  -23.3487  -35.8795   23.3213 H   0  0  0  0  0  0
  -24.2752  -36.8691   22.2081 H   0  0  0  0  0  0
  -23.6752  -37.5449   23.7242 H   0  0  0  0  0  0
  -27.6074  -29.7795   22.0931 H   0  0  0  0  0  0
  -27.1721  -28.5959   23.2912 H   0  0  0  0  0  0
  -29.4841  -26.7056   21.1147 H   0  0  0  0  0  0
  -26.8684  -24.5404   17.3159 H   0  0  0  0  0  0
  -24.4985  -25.4183   18.1764 H   0  0  0  0  0  0
  -23.3363  -28.2321   19.3837 H   0  0  0  0  0  0
  -22.7023  -27.2382   20.5422 H   0  0  0  0  0  0
  -25.1272  -36.0627   25.0401 H   0  0  0  0  0  0
  -20.7832  -28.1455   24.0613 H   0  0  0  0  0  0
  -20.3471  -26.0975   23.1277 H   0  0  0  0  0  0
  -21.3057  -26.6611   21.8042 H   0  0  0  0  0  0
  -19.3415  -25.7267   20.8827 H   0  0  0  0  0  0
  -19.3244  -27.4551   20.6183 H   0  0  0  0  0  0
  -17.1531  -26.6243   21.4762 H   0  0  0  0  0  0
  -17.9154  -25.9796   22.8915 H   0  0  0  0  0  0
  -19.8112  -30.6281   24.2051 H   0  0  0  0  0  0
  -17.5702  -31.6424   24.5525 H   0  0  0  0  0  0
  -15.5366  -30.4283   23.8299 H   0  0  0  0  0  0
  -15.7101  -28.1892   22.7919 H   0  0  0  0  0  0
  -24.6630  -30.7876   25.8576 H   0  0  0  0  0  0
  -24.8626  -32.4610   26.3543 H   0  0  0  0  0  0
  -25.7782  -31.1902   27.1453 H   0  0  0  0  0  0
  -26.4824  -29.6539   24.8309 H   0  0  0  0  0  0
  -27.7216  -30.0795   25.9069 H   0  0  0  0  0  0
  -28.0141  -30.4286   24.2130 H   0  0  0  0  0  0
  -27.1404  -33.6176   26.0826 H   0  0  0  0  0  0
  -28.4244  -32.8895   25.1346 H   0  0  0  0  0  0
  -28.0079  -32.2470   26.7085 H   0  0  0  0  0  0
  -28.2308  -37.9622   24.7531 H   0  0  0  0  0  0
  -28.0703  -36.2145   24.6065 H   0  0  0  0  0  0
  -27.1944  -37.0818   25.8757 H   0  0  0  0  0  0
  -21.0407  -29.3538   21.2917 H   0  0  0  0  0  0
  -25.9585  -38.2123   24.1509 H   0  0  0  0  0  0
  -25.8951  -28.5266   16.9790 H   0  0  0  0  0  0
  -26.7648  -29.9642   17.5071 H   0  0  0  0  0  0
  -25.0506  -29.6918   17.8522 H   0  0  0  0  0  0
  -28.2721  -28.3598   17.4185 H   0  0  0  0  0  0
  -27.3827  -27.0067   16.6902 H   0  0  0  0  0  0
  -28.9253  -26.8533   17.4699 H   0  0  0  0  0  0
  -26.3325  -30.8025   19.4874 H   0  0  0  0  0  0
  -25.7728  -31.1758   20.8185 H   0  0  0  0  0  0
  -24.5752  -30.7163   19.6369 H   0  0  0  0  0  0
  -26.0648  -23.5418   22.9749 H   0  0  0  0  0  0
  -25.4928  -24.8090   23.9852 H   0  0  0  0  0  0
  -27.1685  -24.7265   23.6574 H   0  0  0  0  0  0
  -27.9208  -20.8833   16.7208 H   0  0  0  0  0  0
  -26.9403  -22.1434   15.9555 H   0  0  0  0  0  0
  -26.1830  -20.7277   16.6624 H   0  0  0  0  0  0
  -25.6438  -27.4860   24.5867 H   0  0  0  0  0  0
  -24.5759  -26.1700   25.1272 H   0  0  0  0  0  0
  -23.9893  -27.6972   25.0975 H   0  0  0  0  0  0
  -28.7123  -23.3708   17.3174 H   0  0  0  0  0  0
  -29.1700  -22.2264   18.4550 H   0  0  0  0  0  0
  -24.2253  -24.1086   21.8317 H   0  0  0  0  0  0
  -23.4848  -25.3036   20.7289 H   0  0  0  0  0  0
  -21.9428  -24.0238   20.2794 H   0  0  0  0  0  0
  -21.8127  -23.2076   21.7742 H   0  0  0  0  0  0
  -22.7146  -21.7645   19.7227 H   0  0  0  0  0  0
  -23.6823  -21.6579   21.1186 H   0  0  0  0  0  0
  -25.2443  -23.2800   20.2385 H   0  0  0  0  0  0
  -24.2533  -23.4963   18.7760 H   0  0  0  0  0  0
  -28.7797  -21.9377   20.7927 H   0  0  0  0  0  0
  1 25  1  0  0  0
  1 30  2  0  0  0
  1 91  1  0  0  0
  2  3  1  0  0  0
  2 25  1  0  0  0
  2 94  1  0  0  0
  2 95  1  0  0  0
  3  4  1  0  0  0
  3 96  1  0  0  0
  3 97  1  0  0  0
  4  5  1  0  0  0
  4 98  1  0  0  0
  4 99  1  0  0  0
  5  6  1  0  0  0
  5 26  1  0  0  0
  5100  1  0  0  0
  6 25  1  0  0  0
  6101  1  0  0  0
  6102  1  0  0  0
  7  8  2  0  0  0
  7 26  1  0  0  0
  7 29  1  0  0  0
  8  9  1  0  0  0
  8 22  1  0  0  0
  9 10  1  0  0  0
  9 27  2  0  0  0
 10 11  2  0  0  0
 10 15  1  0  0  0
 11 12  1  0  0  0
 11103  1  0  0  0
 12 13  2  0  0  0
 12104  1  0  0  0
 13 14  1  0  0  0
 13 31  1  0  0  0
 14 15  2  0  0  0
 14105  1  0  0  0
 15106  1  0  0  0
 16 17  2  0  0  0
 16 21  1  0  0  0
 16 31  1  0  0  0
 17 18  1  0  0  0
 17107  1  0  0  0
 18 19  2  0  0  0
 18108  1  0  0  0
 19 20  1  0  0  0
 19 24  1  0  0  0
 20 21  2  0  0  0
 20109  1  0  0  0
 21 23  1  0  0  0
 22 28  1  0  0  0
 22 32  2  0  0  0
 26 27  1  0  0  0
 28110  1  0  0  0
 28111  1  0  0  0
 29112  1  0  0  0
 29113  1  0  0  0
 33 34  1  0  0  0
 33 66  1  0  0  0
 33 70  2  0  0  0
 34 36  1  0  0  0
 34 59  1  0  0  0
 34114  1  0  0  0
 35 44  2  0  0  0
 35 45  1  0  0  0
 35 68  1  0  0  0
 36 56  1  0  0  0
 36115  1  0  0  0
 37 39  1  0  0  0
 37 47  1  0  0  0
 37 66  1  0  0  0
 37116  1  0  0  0
 38 43  2  0  0  0
 38 46  1  0  0  0
 38 47  1  0  0  0
 39 64  1  0  0  0
 39 67  2  0  0  0
 40 52  1  0  0  0
 40 53  2  0  0  0
 40 58  1  0  0  0
 41117  1  0  0  0
 41118  1  0  0  0
 41119  1  0  0  0
 41 48  1  0  0  0
 42 43  1  0  0  0
 42 66  1  0  0  0
 42120  1  0  0  0
 42121  1  0  0  0
 43 44  1  0  0  0
 44122  1  0  0  0
 45 46  2  0  0  0
 45123  1  0  0  0
 46124  1  0  0  0
 47125  1  0  0  0
 47126  1  0  0  0
 48 56  1  0  0  0
 48 65  1  0  0  0
 48127  1  0  0  0
 49 50  1  0  0  0
 49 53  1  0  0  0
 49 64  1  0  0  0
 49128  1  0  0  0
 50 51  1  0  0  0
 50129  1  0  0  0
 50130  1  0  0  0
 51 52  1  0  0  0
 51131  1  0  0  0
 51132  1  0  0  0
 52133  1  0  0  0
 52134  1  0  0  0
 53 54  1  0  0  0
 54 55  2  0  0  0
 54135  1  0  0  0
 55 57  1  0  0  0
 55136  1  0  0  0
 56 69  2  0  0  0
 57 58  2  0  0  0
 57137  1  0  0  0
 58138  1  0  0  0
 59 60  1  0  0  0
 59 61  1  0  0  0
 59 62  1  0  0  0
 60139  1  0  0  0
 60140  1  0  0  0
 60141  1  0  0  0
 61142  1  0  0  0
 61143  1  0  0  0
 61144  1  0  0  0
 62145  1  0  0  0
 62146  1  0  0  0
 62147  1  0  0  0
 63 65  1  0  0  0
 63148  1  0  0  0
 63149  1  0  0  0
 63150  1  0  0  0
 64151  1  0  0  0
 65152  1  0  0  0
 68 85  1  0  0  0
 71 72  2  0  0  0
 71 73  1  0  0  0
 71 79  1  0  0  0
 72 75  1  0  0  0
 72 80  1  0  0  0
 73 76  2  0  0  0
 73 81  1  0  0  0
 74 75  2  0  0  0
 74 76  1  0  0  0
 74 82  1  0  0  0
 75 91  1  0  0  0
 76 92  1  0  0  0
 77 83  1  0  0  0
 77 85  1  0  0  0
 77 90  2  0  0  0
 78 86  1  0  0  0
 78 92  1  0  0  0
 78 93  2  0  0  0
 79153  1  0  0  0
 79154  1  0  0  0
 79155  1  0  0  0
 80156  1  0  0  0
 80157  1  0  0  0
 80158  1  0  0  0
 81159  1  0  0  0
 81160  1  0  0  0
 81161  1  0  0  0
 82162  1  0  0  0
 82163  1  0  0  0
 82164  1  0  0  0
 83165  1  0  0  0
 83166  1  0  0  0
 83167  1  0  0  0
 84 92  1  0  0  0
 84168  1  0  0  0
 84169  1  0  0  0
 84170  1  0  0  0
 85171  1  0  0  0
 85172  1  0  0  0
 86 87  1  0  0  0
 86173  1  0  0  0
 86174  1  0  0  0
 87 88  1  0  0  0
 87175  1  0  0  0
 87176  1  0  0  0
 88 89  1  0  0  0
 88177  1  0  0  0
 88178  1  0  0  0
 89 90  1  0  0  0
 89179  1  0  0  0
 89180  1  0  0  0
 91181  1  0  0  0
M  ISO  4   1 100  68 101  85 101  91 100
M  END
> <chiral flag>
0

> <version>
0

> <s_m_source_file>
/data/baiqing/PycharmProjects/Reinvent-master-3.2/result/LINK_invent/BTK/process_docking_weight1_custom_sum_contain_oxygen_bond_distance_aromatic_linkinvent_7_9_3/rearranged_h_0016.sdf

> <i_m_source_file_index>
91

> <r_mmod_Potential_Energy-OPLS-2005>
45023.8203125

> <r_mmod_Stretch_Energy-OPLS-2005>
21779.83984375

> <r_mmod_Bend_Energy-OPLS-2005>
2429.7890625

> <r_mmod_Torsional_Energy-OPLS-2005>
592.746215820312

> <r_mmod_Improper_Torsional_Energy-OPLS-2005>
53.1557846069336

> <r_mmod_Van_der_Waal_Energy-OPLS-2005>
5391.6640625

> <r_mmod_Electrostatic_Energy-OPLS-2005>
-380.194641113281

> <r_mmod_Solvation_Energy-OPLS-2005>
-231.458038330078

> <b_mmod_Minimization_Converged-OPLS-2005>
0

> <r_mmod_RMS_Derivative-OPLS-2005>
31.3106861114502

$$$$
91
                    3D
 Structure written by MMmdl.
190198  0  0  1  0            999 V2000
  -30.7568  -14.4177   20.6250 C   0  0  0  0  0  0
  -30.4097  -12.3038   19.4040 C   0  0  0  0  0  0
  -29.4790  -12.5052   18.1909 C   0  0  0  0  0  0
  -28.0029  -12.3435   18.6067 C   0  0  0  0  0  0
  -27.6471  -13.1708   19.8664 C   0  0  2  0  0  0
  -28.6971  -12.9871   20.9866 C   0  0  0  0  0  0
  -25.2582  -13.8032   20.5750 C   0  0  0  0  0  0
  -24.1805  -13.0353   20.9244 C   0  0  0  0  0  0
  -24.6320  -11.6822   20.8743 C   0  0  0  0  0  0
  -23.8984  -10.4238   21.0376 C   0  0  0  0  0  0
  -24.3532   -9.4176   21.9162 C   0  0  0  0  0  0
  -23.6242   -8.2197   22.0728 C   0  0  0  0  0  0
  -22.4243   -8.0237   21.3505 C   0  0  0  0  0  0
  -21.9843   -9.0203   20.4620 C   0  0  0  0  0  0
  -22.7168  -10.2082   20.3028 C   0  0  0  0  0  0
  -21.6819   -6.0733   22.5296 C   0  0  0  0  0  0
  -21.3984   -6.5640   23.8236 C   0  0  0  0  0  0
  -21.3643   -5.6798   24.9210 C   0  0  0  0  0  0
  -21.6053   -4.3066   24.7263 C   0  0  0  0  0  0
  -21.8822   -3.8155   23.4377 C   0  0  0  0  0  0
  -21.9164   -4.6970   22.3425 C   0  0  0  0  0  0
  -22.7865  -13.5203   21.1907 C   0  0  0  0  0  0
  -22.1652   -4.2168   21.1008 F   0  0  0  0  0  0
  -21.5601   -3.4534   25.7770 F   0  0  0  0  0  0
  -30.0286  -13.2821   20.4324 N   0  0  0  0  0  0
  -26.2943  -12.9112   20.3366 N   0  0  0  0  0  0
  -25.9218  -11.6320   20.5770 N   0  0  0  0  0  0
  -22.0452  -12.8194   22.0420 N   0  0  0  0  0  0
  -25.4314  -15.1738   20.4231 N   0  0  0  0  0  0
  -31.8514  -14.6051   20.0884 O   0  0  0  0  0  0
  -21.6580   -6.8859   21.4246 O   0  0  0  0  0  0
  -22.3620  -14.5546   20.6793 O   0  0  0  0  0  0
  -24.6076  -31.8737   23.2155 C   0  0  0  0  0  0
  -25.8997  -32.4852   23.8433 C   0  0  1  0  0  0
  -27.2478  -27.4994   20.0682 C   0  0  0  0  0  0
  -25.5879  -33.8651   24.2353 N   0  0  0  0  0  0
  -23.3922  -30.4968   21.5551 C   0  0  2  0  0  0
  -24.8407  -28.9685   20.1164 C   0  0  0  0  0  0
  -22.7359  -29.4691   22.5035 C   0  0  0  0  0  0
  -18.0253  -28.1385   22.8495 C   0  0  0  0  0  0
  -24.1477  -36.7297   23.2641 C   0  0  0  0  0  0
  -25.9163  -30.8513   21.3646 C   0  0  0  0  0  0
  -25.9946  -29.4875   20.7164 C   0  0  0  0  0  0
  -27.1967  -28.7516   20.7063 C   0  0  0  0  0  0
  -26.0763  -26.9752   19.4781 C   0  0  0  0  0  0
  -24.8721  -27.7050   19.5015 C   0  0  0  0  0  0
  -23.5965  -29.8255   20.1700 C   0  0  0  0  0  0
  -25.4104  -36.3127   24.0351 C   0  0  1  0  0  0
  -20.5836  -28.3662   23.1338 C   0  0  2  0  0  0
  -20.6748  -26.9409   22.5431 C   0  0  0  0  0  0
  -19.5736  -26.6397   21.5219 C   0  0  0  0  0  0
  -18.1906  -26.7938   22.1620 C   0  0  0  0  0  0
  -19.1501  -28.8843   23.2912 C   0  0  0  0  0  0
  -18.9435  -30.1447   23.8922 C   0  0  0  0  0  0
  -17.6442  -30.6598   24.0570 C   0  0  0  0  0  0
  -25.9022  -34.9488   23.5148 C   0  0  0  0  0  0
  -16.5330  -29.9099   23.6334 C   0  0  0  0  0  0
  -16.7242  -28.6516   23.0354 C   0  0  0  0  0  0
  -26.4461  -31.6628   25.0737 C   0  0  0  0  0  0
  -25.3752  -31.3693   26.1497 C   0  0  0  0  0  0
  -27.0282  -30.3085   24.6076 C   0  0  0  0  0  0
  -27.6049  -32.4359   25.7469 C   0  0  0  0  0  0
  -27.5581  -37.1804   24.8474 C   0  0  0  0  0  0
  -21.4099  -29.3025   22.3749 N   0  0  0  0  0  0
  -26.4296  -37.3811   23.9414 N   0  0  0  0  0  0
  -24.6560  -31.0873   22.1035 N   0  0  0  0  0  0
  -23.4156  -28.8239   23.3066 O   0  0  0  0  0  0
  -28.4374  -26.8153   20.0450 O   0  0  0  0  0  0
  -26.5587  -34.8936   22.4697 O   0  0  0  0  0  0
  -23.5284  -32.1467   23.7587 O   0  0  0  0  0  0
  -30.5493  -17.4157   18.7759 C   0  0  0  0  0  0
  -30.9025  -17.4604   22.6523 C   0  0  0  0  0  0
  -31.0088  -15.9219   22.5462 C   0  0  0  0  0  0
  -29.2882  -16.3361   20.8392 C   0  0  0  0  0  0
  -29.9843  -17.5880   20.2280 C   0  0  1  0  0  0
  -31.0597  -18.1135   21.2586 C   0  0  1  0  0  0
  -30.0128  -20.3064   22.1250 C   0  0  0  0  0  0
  -32.5177  -20.1421   21.8570 C   0  0  0  0  0  0
  -30.6219  -16.5006   16.5260 C   0  0  0  0  0  0
  -27.3380  -20.4672   19.3864 C   0  0  0  0  0  0
  -27.0949  -21.9297   19.0278 C   0  0  0  0  0  0
  -26.2056  -19.5414   18.9154 C   0  0  0  0  0  0
  -28.4058  -22.7084   18.8674 C   0  0  0  0  0  0
  -26.6715  -18.0891   18.8025 C   0  0  0  0  0  0
  -28.1143  -24.1992   18.7594 C   0  0  0  0  0  0
  -27.5704  -17.8846   17.5663 C   0  0  0  0  0  0
  -29.3579  -25.0860   18.6419 C   0  0  0  0  0  0
  -28.4085  -16.5998   17.5789 C   0  0  0  0  0  0
  -28.9825  -26.5679   18.7505 C   0  0  0  0  0  0
  -31.1565  -19.6625   21.3199 C   0  0  0  0  0  0
  -30.2193  -15.3612   21.4310 N   0  0  0  0  0  0
  -29.8644  -16.8255   17.7474 N   0  0  0  0  0  0
  -31.6949  -17.8330   18.5653 O   0  0  0  0  0  0
  -31.4551  -12.3909   19.0999 H   0  0  0  0  0  0
  -30.3117  -11.2948   19.8044 H   0  0  0  0  0  0
  -29.7245  -11.7890   17.4048 H   0  0  0  0  0  0
  -29.6349  -13.4958   17.7576 H   0  0  0  0  0  0
  -27.8190  -11.2855   18.7900 H   0  0  0  0  0  0
  -27.3450  -12.6211   17.7814 H   0  0  0  0  0  0
  -27.6489  -14.1957   19.5352 H   0  0  0  0  0  0
  -28.6806  -11.9559   21.3443 H   0  0  0  0  0  0
  -28.4494  -13.6037   21.8522 H   0  0  0  0  0  0
  -25.2634   -9.5664   22.4782 H   0  0  0  0  0  0
  -23.9937   -7.4580   22.7443 H   0  0  0  0  0  0
  -21.0761   -8.8709   19.8948 H   0  0  0  0  0  0
  -22.3594  -10.9596   19.6151 H   0  0  0  0  0  0
  -21.1994   -7.6166   23.9746 H   0  0  0  0  0  0
  -21.1432   -6.0535   25.9110 H   0  0  0  0  0  0
  -22.0608   -2.7620   23.2885 H   0  0  0  0  0  0
  -22.3998  -11.9862   22.4876 H   0  0  0  0  0  0
  -21.1049  -13.1260   22.2507 H   0  0  0  0  0  0
  -24.6677  -15.8259   20.5680 H   0  0  0  0  0  0
  -26.2891  -15.6180   20.1277 H   0  0  0  0  0  0
  -26.7054  -32.5592   23.1197 H   0  0  0  0  0  0
  -25.0074  -33.9829   25.0532 H   0  0  0  0  0  0
  -22.6778  -31.3116   21.4184 H   0  0  0  0  0  0
  -23.3759  -35.9614   23.3338 H   0  0  0  0  0  0
  -24.3568  -36.8867   22.2050 H   0  0  0  0  0  0
  -23.7213  -37.6505   23.6625 H   0  0  0  0  0  0
  -26.0234  -31.6202   20.5970 H   0  0  0  0  0  0
  -26.8052  -30.9044   21.9816 H   0  0  0  0  0  0
  -28.0896  -29.1531   21.1646 H   0  0  0  0  0  0
  -26.0826  -26.0135   18.9913 H   0  0  0  0  0  0
  -23.9841  -27.2976   19.0377 H   0  0  0  0  0  0
  -23.6861  -30.5967   19.4039 H   0  0  0  0  0  0
  -22.7241  -29.2337   19.8869 H   0  0  0  0  0  0
  -25.1281  -36.2004   25.0851 H   0  0  0  0  0  0
  -20.9923  -28.3237   24.1462 H   0  0  0  0  0  0
  -20.5656  -26.2273   23.3612 H   0  0  0  0  0  0
  -21.6621  -26.7473   22.1219 H   0  0  0  0  0  0
  -19.6897  -25.6313   21.1236 H   0  0  0  0  0  0
  -19.6682  -27.3218   20.6755 H   0  0  0  0  0  0
  -17.4181  -26.6692   21.4012 H   0  0  0  0  0  0
  -18.0299  -26.0077   22.9012 H   0  0  0  0  0  0
  -19.7912  -30.7251   24.2307 H   0  0  0  0  0  0
  -17.5003  -31.6281   24.5168 H   0  0  0  0  0  0
  -15.5332  -30.3010   23.7666 H   0  0  0  0  0  0
  -15.8637  -28.0850   22.7062 H   0  0  0  0  0  0
  -24.5935  -30.7033   25.7831 H   0  0  0  0  0  0
  -24.8931  -32.2820   26.5003 H   0  0  0  0  0  0
  -25.8140  -30.8830   27.0218 H   0  0  0  0  0  0
  -26.2791  -29.6846   24.1189 H   0  0  0  0  0  0
  -27.4121  -29.7338   25.4512 H   0  0  0  0  0  0
  -27.8603  -30.4416   23.9161 H   0  0  0  0  0  0
  -27.2681  -33.3659   26.2068 H   0  0  0  0  0  0
  -28.3828  -32.6935   25.0266 H   0  0  0  0  0  0
  -28.0757  -31.8484   26.5360 H   0  0  0  0  0  0
  -28.2626  -38.0079   24.7522 H   0  0  0  0  0  0
  -28.1051  -36.2612   24.6305 H   0  0  0  0  0  0
  -27.2295  -37.1464   25.8879 H   0  0  0  0  0  0
  -20.9261  -29.8713   21.6941 H   0  0  0  0  0  0
  -26.0191  -38.2892   24.1427 H   0  0  0  0  0  0
  -31.6622  -17.8243   23.3439 H   0  0  0  0  0  0
  -29.9464  -17.7396   23.0977 H   0  0  0  0  0  0
  -30.6874  -15.4612   23.4795 H   0  0  0  0  0  0
  -32.0635  -15.6595   22.4342 H   0  0  0  0  0  0
  -28.5787  -16.6584   21.5998 H   0  0  0  0  0  0
  -28.6628  -15.8501   20.1204 H   0  0  0  0  0  0
  -29.2259  -18.3602   20.1291 H   0  0  0  0  0  0
  -32.0395  -17.7619   20.9298 H   0  0  0  0  0  0
  -29.0525  -19.8409   21.9105 H   0  0  0  0  0  0
  -29.9266  -21.3694   21.9020 H   0  0  0  0  0  0
  -30.1833  -20.2091   23.1981 H   0  0  0  0  0  0
  -33.3485  -19.6754   21.3271 H   0  0  0  0  0  0
  -32.6391  -19.9120   22.9164 H   0  0  0  0  0  0
  -32.6298  -21.2211   21.7448 H   0  0  0  0  0  0
  -30.7843  -17.4075   15.9406 H   0  0  0  0  0  0
  -30.1361  -15.7672   15.8821 H   0  0  0  0  0  0
  -31.5972  -16.0718   16.7660 H   0  0  0  0  0  0
  -27.4590  -20.3689   20.4652 H   0  0  0  0  0  0
  -28.2923  -20.1658   18.9597 H   0  0  0  0  0  0
  -26.4635  -22.3773   19.7952 H   0  0  0  0  0  0
  -26.5380  -22.0059   18.0929 H   0  0  0  0  0  0
  -25.8251  -19.8592   17.9431 H   0  0  0  0  0  0
  -25.3652  -19.6182   19.6070 H   0  0  0  0  0  0
  -28.9393  -22.3643   17.9790 H   0  0  0  0  0  0
  -29.0612  -22.5238   19.7198 H   0  0  0  0  0  0
  -25.7989  -17.4406   18.7184 H   0  0  0  0  0  0
  -27.1598  -17.7942   19.7269 H   0  0  0  0  0  0
  -27.5593  -24.4858   19.6519 H   0  0  0  0  0  0
  -27.4596  -24.3829   17.9060 H   0  0  0  0  0  0
  -28.2199  -18.7360   17.3762 H   0  0  0  0  0  0
  -26.9115  -17.8573   16.6968 H   0  0  0  0  0  0
  -29.8560  -24.9049   17.6879 H   0  0  0  0  0  0
  -30.0798  -24.8347   19.4198 H   0  0  0  0  0  0
  -28.2242  -16.1472   16.6041 H   0  0  0  0  0  0
  -27.9943  -15.8481   18.2338 H   0  0  0  0  0  0
  -28.3072  -26.8452   17.9399 H   0  0  0  0  0  0
  -29.8739  -27.1848   18.6335 H   0  0  0  0  0  0
  -31.0836  -20.0279   20.2945 H   0  0  0  0  0  0
  1 25  1  0  0  0
  1 30  2  0  0  0
  1 91  1  0  0  0
  2  3  1  0  0  0
  2 25  1  0  0  0
  2 94  1  0  0  0
  2 95  1  0  0  0
  3  4  1  0  0  0
  3 96  1  0  0  0
  3 97  1  0  0  0
  4  5  1  0  0  0
  4 98  1  0  0  0
  4 99  1  0  0  0
  5  6  1  0  0  0
  5 26  1  0  0  0
  5100  1  0  0  0
  6 25  1  0  0  0
  6101  1  0  0  0
  6102  1  0  0  0
  7  8  2  0  0  0
  7 26  1  0  0  0
  7 29  1  0  0  0
  8  9  1  0  0  0
  8 22  1  0  0  0
  9 10  1  0  0  0
  9 27  2  0  0  0
 10 11  2  0  0  0
 10 15  1  0  0  0
 11 12  1  0  0  0
 11103  1  0  0  0
 12 13  2  0  0  0
 12104  1  0  0  0
 13 14  1  0  0  0
 13 31  1  0  0  0
 14 15  2  0  0  0
 14105  1  0  0  0
 15106  1  0  0  0
 16 17  2  0  0  0
 16 21  1  0  0  0
 16 31  1  0  0  0
 17 18  1  0  0  0
 17107  1  0  0  0
 18 19  2  0  0  0
 18108  1  0  0  0
 19 20  1  0  0  0
 19 24  1  0  0  0
 20 21  2  0  0  0
 20109  1  0  0  0
 21 23  1  0  0  0
 22 28  1  0  0  0
 22 32  2  0  0  0
 26 27  1  0  0  0
 28110  1  0  0  0
 28111  1  0  0  0
 29112  1  0  0  0
 29113  1  0  0  0
 33 34  1  0  0  0
 33 66  1  0  0  0
 33 70  2  0  0  0
 34 36  1  0  0  0
 34 59  1  0  0  0
 34114  1  0  0  0
 35 44  2  0  0  0
 35 45  1  0  0  0
 35 68  1  0  0  0
 36 56  1  0  0  0
 36115  1  0  0  0
 37 39  1  0  0  0
 37 47  1  0  0  0
 37 66  1  0  0  0
 37116  1  0  0  0
 38 43  2  0  0  0
 38 46  1  0  0  0
 38 47  1  0  0  0
 39 64  1  0  0  0
 39 67  2  0  0  0
 40 52  1  0  0  0
 40 53  2  0  0  0
 40 58  1  0  0  0
 41117  1  0  0  0
 41118  1  0  0  0
 41119  1  0  0  0
 41 48  1  0  0  0
 42 43  1  0  0  0
 42 66  1  0  0  0
 42120  1  0  0  0
 42121  1  0  0  0
 43 44  1  0  0  0
 44122  1  0  0  0
 45 46  2  0  0  0
 45123  1  0  0  0
 46124  1  0  0  0
 47125  1  0  0  0
 47126  1  0  0  0
 48 56  1  0  0  0
 48 65  1  0  0  0
 48127  1  0  0  0
 49 50  1  0  0  0
 49 53  1  0  0  0
 49 64  1  0  0  0
 49128  1  0  0  0
 50 51  1  0  0  0
 50129  1  0  0  0
 50130  1  0  0  0
 51 52  1  0  0  0
 51131  1  0  0  0
 51132  1  0  0  0
 52133  1  0  0  0
 52134  1  0  0  0
 53 54  1  0  0  0
 54 55  2  0  0  0
 54135  1  0  0  0
 55 57  1  0  0  0
 55136  1  0  0  0
 56 69  2  0  0  0
 57 58  2  0  0  0
 57137  1  0  0  0
 58138  1  0  0  0
 59 60  1  0  0  0
 59 61  1  0  0  0
 59 62  1  0  0  0
 60139  1  0  0  0
 60140  1  0  0  0
 60141  1  0  0  0
 61142  1  0  0  0
 61143  1  0  0  0
 61144  1  0  0  0
 62145  1  0  0  0
 62146  1  0  0  0
 62147  1  0  0  0
 63 65  1  0  0  0
 63148  1  0  0  0
 63149  1  0  0  0
 63150  1  0  0  0
 64151  1  0  0  0
 65152  1  0  0  0
 68 89  1  0  0  0
 71 92  1  0  0  0
 71 93  2  0  0  0
 71 75  1  0  0  0
 72 73  1  0  0  0
 72153  1  0  0  0
 72154  1  0  0  0
 72 76  1  0  0  0
 73 91  1  0  0  0
 73155  1  0  0  0
 73156  1  0  0  0
 74 75  1  0  0  0
 74 91  1  0  0  0
 74157  1  0  0  0
 74158  1  0  0  0
 75 76  1  0  0  0
 75159  1  0  0  0
 76 90  1  0  0  0
 76160  1  0  0  0
 77161  1  0  0  0
 77162  1  0  0  0
 77163  1  0  0  0
 77 90  1  0  0  0
 78 90  1  0  0  0
 78164  1  0  0  0
 78165  1  0  0  0
 78166  1  0  0  0
 79 92  1  0  0  0
 79167  1  0  0  0
 79168  1  0  0  0
 79169  1  0  0  0
 80 81  1  0  0  0
 80 82  1  0  0  0
 80170  1  0  0  0
 80171  1  0  0  0
 81 83  1  0  0  0
 81172  1  0  0  0
 81173  1  0  0  0
 82 84  1  0  0  0
 82174  1  0  0  0
 82175  1  0  0  0
 83 85  1  0  0  0
 83176  1  0  0  0
 83177  1  0  0  0
 84 86  1  0  0  0
 84178  1  0  0  0
 84179  1  0  0  0
 85 87  1  0  0  0
 85180  1  0  0  0
 85181  1  0  0  0
 86 88  1  0  0  0
 86182  1  0  0  0
 86183  1  0  0  0
 87 89  1  0  0  0
 87184  1  0  0  0
 87185  1  0  0  0
 88 92  1  0  0  0
 88186  1  0  0  0
 88187  1  0  0  0
 89188  1  0  0  0
 89189  1  0  0  0
 90190  1  0  0  0
M  ISO  4   1 100  68 101  89 101  91 100
M  END
> <chiral flag>
0

> <version>
0

> <s_m_source_file>
/data/baiqing/PycharmProjects/Reinvent-master-3.2/result/LINK_invent/BTK/process_docking_weight1_custom_sum_contain_oxygen_bond_distance_aromatic_linkinvent_7_9_3/rearranged_h_0016.sdf

> <i_m_source_file_index>
92

> <r_mmod_Potential_Energy-OPLS-2005>
307.576751708984

> <r_mmod_Stretch_Energy-OPLS-2005>
44.9160995483398

> <r_mmod_Bend_Energy-OPLS-2005>
132.863922119141

> <r_mmod_Torsional_Energy-OPLS-2005>
401.913726806641

> <r_mmod_Improper_Torsional_Energy-OPLS-2005>
4.37094593048096

> <r_mmod_Van_der_Waal_Energy-OPLS-2005>
150.887008666992

> <r_mmod_Electrostatic_Energy-OPLS-2005>
-240.203018188477

> <r_mmod_Solvation_Energy-OPLS-2005>
-197.265380859375

> <b_mmod_Minimization_Converged-OPLS-2005>
0

> <r_mmod_RMS_Derivative-OPLS-2005>
3.5374698638916

$$$$
92
                    3D
 Structure written by MMmdl.
195203  0  0  1  0            999 V2000
  -30.6334  -14.4689   20.5336 C   0  0  0  0  0  0
  -30.4431  -12.2726   19.4389 C   0  0  0  0  0  0
  -29.5145  -12.4278   18.2145 C   0  0  0  0  0  0
  -28.0187  -12.3768   18.6062 C   0  0  0  0  0  0
  -27.6648  -13.1843   19.8870 C   0  0  2  0  0  0
  -28.7030  -12.9246   20.9985 C   0  0  0  0  0  0
  -25.2606  -13.8071   20.5619 C   0  0  0  0  0  0
  -24.1839  -13.0417   20.9187 C   0  0  0  0  0  0
  -24.6359  -11.6877   20.8757 C   0  0  0  0  0  0
  -23.9004  -10.4290   21.0444 C   0  0  0  0  0  0
  -24.3569   -9.4207   21.9206 C   0  0  0  0  0  0
  -23.6251   -8.2235   22.0759 C   0  0  0  0  0  0
  -22.4234   -8.0270   21.3556 C   0  0  0  0  0  0
  -21.9881   -9.0240   20.4663 C   0  0  0  0  0  0
  -22.7196  -10.2123   20.3090 C   0  0  0  0  0  0
  -21.6843   -6.0727   22.5275 C   0  0  0  0  0  0
  -21.4016   -6.5623   23.8207 C   0  0  0  0  0  0
  -21.3668   -5.6775   24.9171 C   0  0  0  0  0  0
  -21.6037   -4.3032   24.7231 C   0  0  0  0  0  0
  -21.8818   -3.8143   23.4343 C   0  0  0  0  0  0
  -21.9194   -4.6962   22.3413 C   0  0  0  0  0  0
  -22.7873  -13.5282   21.1816 C   0  0  0  0  0  0
  -22.1658   -4.2155   21.0986 F   0  0  0  0  0  0
  -21.5636   -3.4518   25.7746 F   0  0  0  0  0  0
  -30.0339  -13.2520   20.4548 N   0  0  0  0  0  0
  -26.3018  -12.9196   20.3391 N   0  0  0  0  0  0
  -25.9271  -11.6381   20.5772 N   0  0  0  0  0  0
  -22.0446  -12.8334   22.0362 N   0  0  0  0  0  0
  -25.4337  -15.1759   20.3901 N   0  0  0  0  0  0
  -31.7721  -14.6994   20.1144 O   0  0  0  0  0  0
  -21.6614   -6.8861   21.4237 O   0  0  0  0  0  0
  -22.3628  -14.5605   20.6640 O   0  0  0  0  0  0
  -24.6100  -31.8694   23.2138 C   0  0  0  0  0  0
  -25.9015  -32.4832   23.8417 C   0  0  1  0  0  0
  -27.2450  -27.4831   20.0758 C   0  0  0  0  0  0
  -25.5884  -33.8628   24.2343 N   0  0  0  0  0  0
  -23.3953  -30.4953   21.5499 C   0  0  2  0  0  0
  -24.8443  -28.9632   20.1134 C   0  0  0  0  0  0
  -22.7368  -29.4683   22.4980 C   0  0  0  0  0  0
  -18.0265  -28.1409   22.8482 C   0  0  0  0  0  0
  -24.1471  -36.7329   23.2632 C   0  0  0  0  0  0
  -25.9183  -30.8493   21.3571 C   0  0  0  0  0  0
  -25.9968  -29.4824   20.7140 C   0  0  0  0  0  0
  -27.1962  -28.7412   20.7066 C   0  0  0  0  0  0
  -26.0786  -26.9610   19.4768 C   0  0  0  0  0  0
  -24.8751  -27.6965   19.5019 C   0  0  0  0  0  0
  -23.6039  -29.8273   20.1632 C   0  0  0  0  0  0
  -25.4088  -36.3113   24.0331 C   0  0  1  0  0  0
  -20.5840  -28.3692   23.1317 C   0  0  2  0  0  0
  -20.6748  -26.9433   22.5411 C   0  0  0  0  0  0
  -19.5733  -26.6419   21.5195 C   0  0  0  0  0  0
  -18.1910  -26.7957   22.1608 C   0  0  0  0  0  0
  -19.1509  -28.8867   23.2897 C   0  0  0  0  0  0
  -18.9460  -30.1457   23.8934 C   0  0  0  0  0  0
  -17.6466  -30.6609   24.0581 C   0  0  0  0  0  0
  -25.9025  -34.9476   23.5137 C   0  0  0  0  0  0
  -16.5356  -29.9125   23.6317 C   0  0  0  0  0  0
  -16.7255  -28.6536   23.0345 C   0  0  0  0  0  0
  -26.4464  -31.6606   25.0730 C   0  0  0  0  0  0
  -25.3765  -31.3722   26.1507 C   0  0  0  0  0  0
  -27.0276  -30.3051   24.6076 C   0  0  0  0  0  0
  -27.6041  -32.4323   25.7494 C   0  0  0  0  0  0
  -27.5572  -37.1795   24.8450 C   0  0  0  0  0  0
  -21.4095  -29.3058   22.3714 N   0  0  0  0  0  0
  -26.4270  -37.3803   23.9417 N   0  0  0  0  0  0
  -24.6597  -31.0843   22.1009 N   0  0  0  0  0  0
  -23.4155  -28.8220   23.3009 O   0  0  0  0  0  0
  -28.4289  -26.7882   20.0868 O   0  0  0  0  0  0
  -26.5589  -34.8927   22.4703 O   0  0  0  0  0  0
  -23.5294  -32.1436   23.7547 O   0  0  0  0  0  0
  -28.9377  -18.2721   18.6706 C   0  0  0  0  0  0
  -28.9590  -19.0900   20.9416 C   0  0  0  0  0  0
  -28.6635  -19.2868   19.5854 C   0  0  0  0  0  0
  -29.3987  -17.0214   19.1087 C   0  0  0  0  0  0
  -29.4611  -17.8569   21.4401 C   0  0  0  0  0  0
  -29.6282  -16.7741   20.5026 C   0  0  0  0  0  0
  -29.5380  -15.9864   18.0062 C   0  0  0  0  0  0
  -25.0351  -18.0940   22.1973 C   0  0  0  0  0  0
  -25.3797  -16.9280   24.4378 C   0  0  0  0  0  0
  -32.1319  -24.6214   20.2686 C   0  0  0  0  0  0
  -30.8226  -16.7383   23.3692 C   0  0  0  0  0  0
  -30.3943  -19.1150   23.4805 C   0  0  0  0  0  0
  -27.0064  -19.4384   24.2138 C   0  0  0  0  0  0
  -28.0007  -20.5578   19.0936 C   0  0  0  0  0  0
  -28.9775  -21.5629   18.4756 C   0  0  0  0  0  0
  -30.4136  -26.0248   18.9924 C   0  0  0  0  0  0
  -29.7346  -22.4018   19.5172 C   0  0  0  0  0  0
  -28.4574  -17.4531   23.7742 C   0  0  0  0  0  0
  -28.9142  -26.3428   18.8284 C   0  0  0  0  0  0
  -26.0459  -17.4010   23.1281 C   0  0  0  0  0  0
  -30.6871  -24.7065   19.7477 C   0  0  1  0  0  0
  -29.7534  -17.7905   22.9764 C   0  0  0  0  0  0
  -29.8027  -15.4363   20.9736 N   0  0  0  0  0  0
  -30.3841  -23.5561   18.8661 N   0  3  0  0  0  0
  -27.2583  -18.2429   23.3620 N   0  3  1  0  0  0
  -31.4868  -12.3948   19.1448 H   0  0  0  0  0  0
  -30.3667  -11.2628   19.8458 H   0  0  0  0  0  0
  -29.7237  -11.6371   17.4922 H   0  0  0  0  0  0
  -29.7496  -13.3465   17.6866 H   0  0  0  0  0  0
  -27.7582  -11.3271   18.7510 H   0  0  0  0  0  0
  -27.4112  -12.7257   17.7714 H   0  0  0  0  0  0
  -27.7072  -14.2411   19.6395 H   0  0  0  0  0  0
  -28.6753  -11.8753   21.2998 H   0  0  0  0  0  0
  -28.4676  -13.4840   21.9045 H   0  0  0  0  0  0
  -25.2716   -9.5668   22.4760 H   0  0  0  0  0  0
  -23.9966   -7.4627   22.7461 H   0  0  0  0  0  0
  -21.0817   -8.8755   19.8950 H   0  0  0  0  0  0
  -22.3657  -10.9653   19.6186 H   0  0  0  0  0  0
  -21.1992   -7.6124   23.9719 H   0  0  0  0  0  0
  -21.1490   -6.0499   25.9070 H   0  0  0  0  0  0
  -22.0594   -2.7605   23.2841 H   0  0  0  0  0  0
  -22.3964  -11.9989   22.4815 H   0  0  0  0  0  0
  -21.1070  -13.1429   22.2494 H   0  0  0  0  0  0
  -24.6291  -15.7927   20.3883 H   0  0  0  0  0  0
  -26.2396  -15.5734   19.9260 H   0  0  0  0  0  0
  -26.7087  -32.5559   23.1188 H   0  0  0  0  0  0
  -24.9989  -33.9798   25.0459 H   0  0  0  0  0  0
  -22.6799  -31.3095   21.4127 H   0  0  0  0  0  0
  -23.3718  -35.9675   23.3287 H   0  0  0  0  0  0
  -24.3568  -36.8968   22.2052 H   0  0  0  0  0  0
  -23.7245  -37.6536   23.6664 H   0  0  0  0  0  0
  -26.0142  -31.6105   20.5800 H   0  0  0  0  0  0
  -26.8135  -30.9162   21.9641 H   0  0  0  0  0  0
  -28.0892  -29.1418   21.1634 H   0  0  0  0  0  0
  -26.0924  -25.9895   19.0044 H   0  0  0  0  0  0
  -23.9840  -27.2875   19.0463 H   0  0  0  0  0  0
  -23.7101  -30.6039   19.4040 H   0  0  0  0  0  0
  -22.7306  -29.2459   19.8622 H   0  0  0  0  0  0
  -25.1242  -36.1970   25.0815 H   0  0  0  0  0  0
  -20.9931  -28.3291   24.1440 H   0  0  0  0  0  0
  -20.5647  -26.2305   23.3594 H   0  0  0  0  0  0
  -21.6626  -26.7473   22.1230 H   0  0  0  0  0  0
  -19.6882  -25.6335   21.1218 H   0  0  0  0  0  0
  -19.6680  -27.3230   20.6725 H   0  0  0  0  0  0
  -17.4166  -26.6705   21.4021 H   0  0  0  0  0  0
  -18.0325  -26.0108   22.9017 H   0  0  0  0  0  0
  -19.7942  -30.7238   24.2345 H   0  0  0  0  0  0
  -17.5041  -31.6286   24.5186 H   0  0  0  0  0  0
  -15.5367  -30.3057   23.7616 H   0  0  0  0  0  0
  -15.8647  -28.0859   22.7071 H   0  0  0  0  0  0
  -24.5916  -30.7070   25.7887 H   0  0  0  0  0  0
  -24.8987  -32.2890   26.4972 H   0  0  0  0  0  0
  -25.8160  -30.8900   27.0254 H   0  0  0  0  0  0
  -26.2797  -29.6828   24.1146 H   0  0  0  0  0  0
  -27.4067  -29.7260   25.4510 H   0  0  0  0  0  0
  -27.8626  -30.4357   23.9190 H   0  0  0  0  0  0
  -27.2651  -33.3614   26.2089 H   0  0  0  0  0  0
  -28.3859  -32.6904   25.0340 H   0  0  0  0  0  0
  -28.0707  -31.8445   26.5412 H   0  0  0  0  0  0
  -28.2552  -38.0122   24.7526 H   0  0  0  0  0  0
  -28.1092  -36.2653   24.6209 H   0  0  0  0  0  0
  -27.2297  -37.1391   25.8852 H   0  0  0  0  0  0
  -20.9236  -29.8818   21.6978 H   0  0  0  0  0  0
  -26.0142  -38.2862   24.1467 H   0  0  0  0  0  0
  -28.7275  -18.4403   17.6226 H   0  0  0  0  0  0
  -28.7496  -19.9207   21.5975 H   0  0  0  0  0  0
  -29.4048  -16.4308   17.0198 H   0  0  0  0  0  0
  -28.7633  -15.2345   18.0981 H   0  0  0  0  0  0
  -30.5221  -15.5250   17.9944 H   0  0  0  0  0  0
  -24.2113  -17.4216   21.9563 H   0  0  0  0  0  0
  -25.4963  -18.3844   21.2526 H   0  0  0  0  0  0
  -24.5953  -18.9833   22.6471 H   0  0  0  0  0  0
  -24.5805  -16.2152   24.2311 H   0  0  0  0  0  0
  -24.9321  -17.7539   24.9917 H   0  0  0  0  0  0
  -26.0908  -16.4303   25.0974 H   0  0  0  0  0  0
  -32.3731  -25.4830   20.8917 H   0  0  0  0  0  0
  -32.8601  -24.5907   19.4565 H   0  0  0  0  0  0
  -32.2786  -23.7357   20.8866 H   0  0  0  0  0  0
  -31.7035  -16.8063   22.7311 H   0  0  0  0  0  0
  -30.4550  -15.7153   23.3391 H   0  0  0  0  0  0
  -31.1597  -16.8707   24.3979 H   0  0  0  0  0  0
  -31.3272  -19.3147   22.9533 H   0  0  0  0  0  0
  -30.6365  -19.0602   24.5428 H   0  0  0  0  0  0
  -29.7841  -20.0051   23.3701 H   0  0  0  0  0  0
  -27.8670  -20.0983   24.2729 H   0  0  0  0  0  0
  -26.7510  -19.1627   25.2364 H   0  0  0  0  0  0
  -26.1915  -20.0428   23.8190 H   0  0  0  0  0  0
  -27.4217  -21.0184   19.8950 H   0  0  0  0  0  0
  -27.2664  -20.2754   18.3367 H   0  0  0  0  0  0
  -28.3832  -22.2412   17.8624 H   0  0  0  0  0  0
  -29.6653  -21.0641   17.7904 H   0  0  0  0  0  0
  -30.8767  -26.8569   19.5240 H   0  0  0  0  0  0
  -30.8958  -25.9983   18.0153 H   0  0  0  0  0  0
  -30.4748  -21.8035   20.0509 H   0  0  0  0  0  0
  -29.0198  -22.7589   20.2605 H   0  0  0  0  0  0
  -28.6251  -17.5525   24.8475 H   0  0  0  0  0  0
  -28.2505  -16.3921   23.6292 H   0  0  0  0  0  0
  -28.3590  -25.4680   18.4839 H   0  0  0  0  0  0
  -28.7922  -27.1271   18.0779 H   0  0  0  0  0  0
  -26.3667  -16.5070   22.5902 H   0  0  0  0  0  0
  -30.0257  -24.6930   20.6162 H   0  0  0  0  0  0
  -29.0073  -15.0646   21.4677 H   0  0  0  0  0  0
  -29.7372  -23.8845   18.1691 H   0  0  0  0  0  0
  -31.2145  -23.2586   18.3778 H   0  0  0  0  0  0
  -27.5136  -18.5830   22.4445 H   0  0  0  0  0  0
  1 25  1  0  0  0
  1 30  2  0  0  0
  1 93  1  0  0  0
  2  3  1  0  0  0
  2 25  1  0  0  0
  2 96  1  0  0  0
  2 97  1  0  0  0
  3  4  1  0  0  0
  3 98  1  0  0  0
  3 99  1  0  0  0
  4  5  1  0  0  0
  4100  1  0  0  0
  4101  1  0  0  0
  5  6  1  0  0  0
  5 26  1  0  0  0
  5102  1  0  0  0
  6 25  1  0  0  0
  6103  1  0  0  0
  6104  1  0  0  0
  7  8  2  0  0  0
  7 26  1  0  0  0
  7 29  1  0  0  0
  8  9  1  0  0  0
  8 22  1  0  0  0
  9 10  1  0  0  0
  9 27  2  0  0  0
 10 11  2  0  0  0
 10 15  1  0  0  0
 11 12  1  0  0  0
 11105  1  0  0  0
 12 13  2  0  0  0
 12106  1  0  0  0
 13 14  1  0  0  0
 13 31  1  0  0  0
 14 15  2  0  0  0
 14107  1  0  0  0
 15108  1  0  0  0
 16 17  2  0  0  0
 16 21  1  0  0  0
 16 31  1  0  0  0
 17 18  1  0  0  0
 17109  1  0  0  0
 18 19  2  0  0  0
 18110  1  0  0  0
 19 20  1  0  0  0
 19 24  1  0  0  0
 20 21  2  0  0  0
 20111  1  0  0  0
 21 23  1  0  0  0
 22 28  1  0  0  0
 22 32  2  0  0  0
 26 27  1  0  0  0
 28112  1  0  0  0
 28113  1  0  0  0
 29114  1  0  0  0
 29115  1  0  0  0
 33 34  1  0  0  0
 33 66  1  0  0  0
 33 70  2  0  0  0
 34 36  1  0  0  0
 34 59  1  0  0  0
 34116  1  0  0  0
 35 44  2  0  0  0
 35 45  1  0  0  0
 35 68  1  0  0  0
 36 56  1  0  0  0
 36117  1  0  0  0
 37 39  1  0  0  0
 37 47  1  0  0  0
 37 66  1  0  0  0
 37118  1  0  0  0
 38 43  2  0  0  0
 38 46  1  0  0  0
 38 47  1  0  0  0
 39 64  1  0  0  0
 39 67  2  0  0  0
 40 52  1  0  0  0
 40 53  2  0  0  0
 40 58  1  0  0  0
 41119  1  0  0  0
 41120  1  0  0  0
 41121  1  0  0  0
 41 48  1  0  0  0
 42 43  1  0  0  0
 42 66  1  0  0  0
 42122  1  0  0  0
 42123  1  0  0  0
 43 44  1  0  0  0
 44124  1  0  0  0
 45 46  2  0  0  0
 45125  1  0  0  0
 46126  1  0  0  0
 47127  1  0  0  0
 47128  1  0  0  0
 48 56  1  0  0  0
 48 65  1  0  0  0
 48129  1  0  0  0
 49 50  1  0  0  0
 49 53  1  0  0  0
 49 64  1  0  0  0
 49130  1  0  0  0
 50 51  1  0  0  0
 50131  1  0  0  0
 50132  1  0  0  0
 51 52  1  0  0  0
 51133  1  0  0  0
 51134  1  0  0  0
 52135  1  0  0  0
 52136  1  0  0  0
 53 54  1  0  0  0
 54 55  2  0  0  0
 54137  1  0  0  0
 55 57  1  0  0  0
 55138  1  0  0  0
 56 69  2  0  0  0
 57 58  2  0  0  0
 57139  1  0  0  0
 58140  1  0  0  0
 59 60  1  0  0  0
 59 61  1  0  0  0
 59 62  1  0  0  0
 60141  1  0  0  0
 60142  1  0  0  0
 60143  1  0  0  0
 61144  1  0  0  0
 61145  1  0  0  0
 61146  1  0  0  0
 62147  1  0  0  0
 62148  1  0  0  0
 62149  1  0  0  0
 63 65  1  0  0  0
 63150  1  0  0  0
 63151  1  0  0  0
 63152  1  0  0  0
 64153  1  0  0  0
 65154  1  0  0  0
 68 89  1  0  0  0
 71 73  2  0  0  0
 71 74  1  0  0  0
 71155  1  0  0  0
 72 73  1  0  0  0
 72 75  2  0  0  0
 72156  1  0  0  0
 73 84  1  0  0  0
 74 76  2  0  0  0
 74 77  1  0  0  0
 75 76  1  0  0  0
 75 92  1  0  0  0
 76 93  1  0  0  0
 77157  1  0  0  0
 77158  1  0  0  0
 77159  1  0  0  0
 78160  1  0  0  0
 78161  1  0  0  0
 78162  1  0  0  0
 78 90  1  0  0  0
 79 90  1  0  0  0
 79163  1  0  0  0
 79164  1  0  0  0
 79165  1  0  0  0
 80166  1  0  0  0
 80167  1  0  0  0
 80168  1  0  0  0
 80 91  1  0  0  0
 81169  1  0  0  0
 81170  1  0  0  0
 81171  1  0  0  0
 81 92  1  0  0  0
 82 92  1  0  0  0
 82172  1  0  0  0
 82173  1  0  0  0
 82174  1  0  0  0
 83175  1  0  0  0
 83176  1  0  0  0
 83177  1  0  0  0
 83 95  1  0  0  0
 84 85  1  0  0  0
 84178  1  0  0  0
 84179  1  0  0  0
 85 87  1  0  0  0
 85180  1  0  0  0
 85181  1  0  0  0
 86 89  1  0  0  0
 86 91  1  0  0  0
 86182  1  0  0  0
 86183  1  0  0  0
 87 94  1  0  0  0
 87184  1  0  0  0
 87185  1  0  0  0
 88 92  1  0  0  0
 88 95  1  0  0  0
 88186  1  0  0  0
 88187  1  0  0  0
 89188  1  0  0  0
 89189  1  0  0  0
 90 95  1  0  0  0
 90190  1  0  0  0
 91 94  1  0  0  0
 91191  1  0  0  0
 93192  1  0  0  0
 94193  1  0  0  0
 94194  1  0  0  0
 95195  1  0  0  0
M  CHG  2  94   1  95   1
M  ISO  4   1 100  68 101  89 101  93 100
M  END
> <chiral flag>
0

> <version>
0

> <s_m_source_file>
/data/baiqing/PycharmProjects/Reinvent-master-3.2/result/LINK_invent/BTK/process_docking_weight1_custom_sum_contain_oxygen_bond_distance_aromatic_linkinvent_7_9_3/rearranged_h_0016.sdf

> <i_m_source_file_index>
93

> <r_mmod_Potential_Energy-OPLS-2005>
-186.88444519043

> <r_mmod_Stretch_Energy-OPLS-2005>
46.7256164550781

> <r_mmod_Bend_Energy-OPLS-2005>
128.553466796875

> <r_mmod_Torsional_Energy-OPLS-2005>
332.036010742188

> <r_mmod_Improper_Torsional_Energy-OPLS-2005>
7.66660594940186

> <r_mmod_Van_der_Waal_Energy-OPLS-2005>
160.092269897461

> <r_mmod_Electrostatic_Energy-OPLS-2005>
-41.6498222351074

> <r_mmod_Solvation_Energy-OPLS-2005>
-834.370910644531

> <b_mmod_Minimization_Converged-OPLS-2005>
0

> <r_mmod_RMS_Derivative-OPLS-2005>
3.07528948783875

$$$$
93
                    3D
 Structure written by MMmdl.
171179  0  0  1  0            999 V2000
  -30.5832  -14.7307   20.4939 C   0  0  0  0  0  0
  -30.4389  -12.4506   19.4584 C   0  0  0  0  0  0
  -29.5095  -12.5174   18.2266 C   0  0  0  0  0  0
  -28.0355  -12.3390   18.6412 C   0  0  0  0  0  0
  -27.6464  -13.2229   19.8563 C   0  0  2  0  0  0
  -28.6906  -13.1186   20.9885 C   0  0  0  0  0  0
  -25.2540  -13.8176   20.5691 C   0  0  0  0  0  0
  -24.1824  -13.0435   20.9206 C   0  0  0  0  0  0
  -24.6403  -11.6909   20.8753 C   0  0  0  0  0  0
  -23.9082  -10.4292   21.0422 C   0  0  0  0  0  0
  -24.3628   -9.4202   21.9201 C   0  0  0  0  0  0
  -23.6298   -8.2242   22.0765 C   0  0  0  0  0  0
  -22.4283   -8.0284   21.3551 C   0  0  0  0  0  0
  -21.9918   -9.0262   20.4656 C   0  0  0  0  0  0
  -22.7258  -10.2142   20.3067 C   0  0  0  0  0  0
  -21.6852   -6.0743   22.5290 C   0  0  0  0  0  0
  -21.4013   -6.5644   23.8221 C   0  0  0  0  0  0
  -21.3656   -5.6796   24.9181 C   0  0  0  0  0  0
  -21.6042   -4.3058   24.7228 C   0  0  0  0  0  0
  -21.8817   -3.8154   23.4351 C   0  0  0  0  0  0
  -21.9191   -4.6971   22.3409 C   0  0  0  0  0  0
  -22.7845  -13.5227   21.1864 C   0  0  0  0  0  0
  -22.1662   -4.2152   21.0985 F   0  0  0  0  0  0
  -21.5625   -3.4541   25.7743 F   0  0  0  0  0  0
  -29.9893  -13.4914   20.4111 N   0  0  0  0  0  0
  -26.2958  -12.9366   20.3302 N   0  0  0  0  0  0
  -25.9329  -11.6514   20.5764 N   0  0  0  0  0  0
  -22.0481  -12.8218   22.0411 N   0  0  0  0  0  0
  -25.4208  -15.1900   20.4082 N   0  0  0  0  0  0
  -31.7468  -14.8803   20.1094 O   0  0  0  0  0  0
  -21.6642   -6.8884   21.4252 O   0  0  0  0  0  0
  -22.3537  -14.5540   20.6720 O   0  0  0  0  0  0
  -24.6290  -31.8548   23.1930 C   0  0  0  0  0  0
  -25.9115  -32.4760   23.8286 C   0  0  1  0  0  0
  -27.2258  -27.2618   20.1271 C   0  0  0  0  0  0
  -25.5922  -33.8555   24.2226 N   0  0  0  0  0  0
  -23.4268  -30.4746   21.5360 C   0  0  2  0  0  0
  -24.8755  -28.9179   20.1040 C   0  0  0  0  0  0
  -22.7501  -29.4597   22.4884 C   0  0  0  0  0  0
  -18.0309  -28.1398   22.8502 C   0  0  0  0  0  0
  -24.1504  -36.7265   23.2648 C   0  0  0  0  0  0
  -25.9702  -30.7669   21.3725 C   0  0  0  0  0  0
  -26.0421  -29.3887   20.7153 C   0  0  0  0  0  0
  -27.2152  -28.5708   20.7179 C   0  0  0  0  0  0
  -26.0350  -26.8524   19.4880 C   0  0  0  0  0  0
  -24.8771  -27.6590   19.4789 C   0  0  0  0  0  0
  -23.6446  -29.8040   20.1529 C   0  0  0  0  0  0
  -25.4125  -36.3064   24.0339 C   0  0  1  0  0  0
  -20.5912  -28.3709   23.1280 C   0  0  2  0  0  0
  -20.6798  -26.9429   22.5413 C   0  0  0  0  0  0
  -19.5774  -26.6385   21.5239 C   0  0  0  0  0  0
  -18.1951  -26.7945   22.1639 C   0  0  0  0  0  0
  -19.1562  -28.8870   23.2893 C   0  0  0  0  0  0
  -18.9481  -30.1470   23.8917 C   0  0  0  0  0  0
  -17.6480  -30.6602   24.0577 C   0  0  0  0  0  0
  -25.9058  -34.9446   23.5075 C   0  0  0  0  0  0
  -16.5373  -29.9097   23.6346 C   0  0  0  0  0  0
  -16.7292  -28.6513   23.0364 C   0  0  0  0  0  0
  -26.4484  -31.6593   25.0680 C   0  0  0  0  0  0
  -25.3679  -31.3746   26.1380 C   0  0  0  0  0  0
  -27.0339  -30.3019   24.6154 C   0  0  0  0  0  0
  -27.6057  -32.4330   25.7429 C   0  0  0  0  0  0
  -27.5586  -37.1780   24.8469 C   0  0  0  0  0  0
  -21.4208  -29.3039   22.3638 N   0  0  0  0  0  0
  -26.4298  -37.3761   23.9421 N   0  0  0  0  0  0
  -24.6946  -31.0510   22.0905 N   0  0  0  0  0  0
  -23.4210  -28.8148   23.2983 O   0  0  0  0  0  0
  -28.3521  -26.4135   20.2244 O   0  0  0  0  0  0
  -26.5636  -34.8928   22.4655 O   0  0  0  0  0  0
  -23.5434  -32.1364   23.7204 O   0  0  0  0  0  0
  -30.4838  -20.0188   21.7313 C   0  0  0  0  0  0
  -31.1801  -18.9968   22.3941 C   0  0  0  0  0  0
  -29.4355  -19.7315   20.8487 C   0  0  0  0  0  0
  -30.8731  -17.6157   22.2557 C   0  0  0  0  0  0
  -29.2660  -18.3144   20.5153 C   0  0  0  0  0  0
  -30.0192  -17.2282   21.1608 C   0  0  0  0  0  0
  -28.2034  -17.9428   19.4892 C   0  0  0  0  0  0
  -26.6657  -23.4525   20.6552 C   0  0  0  0  0  0
  -31.4759  -17.4295   24.7547 C   0  0  0  0  0  0
  -32.8550  -16.2324   23.0699 C   0  0  0  0  0  0
  -30.5329  -15.4466   23.7119 C   0  0  0  0  0  0
  -28.4507  -20.9525   20.5051 C   0  0  0  0  0  0
  -28.4617  -25.0171   19.6749 C   0  0  0  0  0  0
  -28.1921  -23.6617   20.5372 C   0  0  2  0  0  0
  -31.4194  -16.6804   23.3919 C   0  0  0  0  0  0
  -29.7641  -15.7977   20.8413 N   0  0  0  0  0  0
  -28.9453  -22.3637   20.1104 N   0  3  0  0  0  0
  -31.4780  -12.5901   19.1528 H   0  0  0  0  0  0
  -30.3943  -11.4631   19.9211 H   0  0  0  0  0  0
  -29.7883  -11.7537   17.4994 H   0  0  0  0  0  0
  -29.6343  -13.4773   17.7238 H   0  0  0  0  0  0
  -27.8870  -11.2874   18.8890 H   0  0  0  0  0  0
  -27.3764  -12.5470   17.7979 H   0  0  0  0  0  0
  -27.6505  -14.2521   19.4967 H   0  0  0  0  0  0
  -28.7276  -12.1051   21.3911 H   0  0  0  0  0  0
  -28.4241  -13.7638   21.8268 H   0  0  0  0  0  0
  -25.2771   -9.5674   22.4774 H   0  0  0  0  0  0
  -24.0005   -7.4630   22.7481 H   0  0  0  0  0  0
  -21.0847   -8.8790   19.8957 H   0  0  0  0  0  0
  -22.3726  -10.9683   19.6173 H   0  0  0  0  0  0
  -21.2008   -7.6149   23.9725 H   0  0  0  0  0  0
  -21.1477   -6.0526   25.9082 H   0  0  0  0  0  0
  -22.0597   -2.7613   23.2855 H   0  0  0  0  0  0
  -22.4079  -11.9860   22.4779 H   0  0  0  0  0  0
  -21.1102  -13.1262   22.2628 H   0  0  0  0  0  0
  -24.6444  -15.8339   20.5113 H   0  0  0  0  0  0
  -26.2538  -15.6313   20.0437 H   0  0  0  0  0  0
  -26.7171  -32.5422   23.1018 H   0  0  0  0  0  0
  -25.0094  -33.9712   25.0392 H   0  0  0  0  0  0
  -22.7233  -31.2963   21.3866 H   0  0  0  0  0  0
  -23.3788  -35.9577   23.3302 H   0  0  0  0  0  0
  -24.3590  -36.8870   22.2057 H   0  0  0  0  0  0
  -23.7225  -37.6453   23.6666 H   0  0  0  0  0  0
  -26.1088  -31.5278   20.6035 H   0  0  0  0  0  0
  -26.8457  -30.8136   22.0082 H   0  0  0  0  0  0
  -28.1082  -28.9253   21.2135 H   0  0  0  0  0  0
  -25.9618  -25.8839   19.0172 H   0  0  0  0  0  0
  -23.9799  -27.2925   18.9995 H   0  0  0  0  0  0
  -23.7659  -30.5786   19.3947 H   0  0  0  0  0  0
  -22.7641  -29.2352   19.8527 H   0  0  0  0  0  0
  -25.1305  -36.1902   25.0828 H   0  0  0  0  0  0
  -21.0036  -28.3288   24.1392 H   0  0  0  0  0  0
  -20.5747  -26.2313   23.3603 H   0  0  0  0  0  0
  -21.6655  -26.7457   22.1189 H   0  0  0  0  0  0
  -19.6939  -25.6297   21.1271 H   0  0  0  0  0  0
  -19.6732  -27.3206   20.6781 H   0  0  0  0  0  0
  -17.4226  -26.6738   21.4022 H   0  0  0  0  0  0
  -18.0319  -26.0071   22.9010 H   0  0  0  0  0  0
  -19.7949  -30.7285   24.2293 H   0  0  0  0  0  0
  -17.5032  -31.6298   24.5154 H   0  0  0  0  0  0
  -15.5375  -30.3010   23.7649 H   0  0  0  0  0  0
  -15.8693  -28.0835   22.7074 H   0  0  0  0  0  0
  -24.5891  -30.7075   25.7663 H   0  0  0  0  0  0
  -24.8842  -32.2926   26.4744 H   0  0  0  0  0  0
  -25.7957  -30.8939   27.0192 H   0  0  0  0  0  0
  -26.2915  -29.6756   24.1198 H   0  0  0  0  0  0
  -27.4065  -29.7290   25.4656 H   0  0  0  0  0  0
  -27.8769  -30.4323   23.9361 H   0  0  0  0  0  0
  -27.2714  -33.3677   26.1947 H   0  0  0  0  0  0
  -28.3874  -32.6810   25.0233 H   0  0  0  0  0  0
  -28.0724  -31.8487   26.5369 H   0  0  0  0  0  0
  -28.2584  -38.0097   24.7528 H   0  0  0  0  0  0
  -28.1097  -36.2621   24.6275 H   0  0  0  0  0  0
  -27.2305  -37.1374   25.8872 H   0  0  0  0  0  0
  -20.9380  -29.8720   21.6813 H   0  0  0  0  0  0
  -26.0179  -38.2834   24.1432 H   0  0  0  0  0  0
  -30.6971  -21.0415   22.0090 H   0  0  0  0  0  0
  -31.9059  -19.3335   23.1150 H   0  0  0  0  0  0
  -28.1904  -18.6551   18.6643 H   0  0  0  0  0  0
  -27.2161  -17.9306   19.9513 H   0  0  0  0  0  0
  -28.3814  -16.9652   19.0425 H   0  0  0  0  0  0
  -26.1858  -24.3654   21.0127 H   0  0  0  0  0  0
  -26.3960  -22.6767   21.3702 H   0  0  0  0  0  0
  -26.2163  -23.2003   19.6940 H   0  0  0  0  0  0
  -32.2395  -18.2037   24.7951 H   0  0  0  0  0  0
  -31.7270  -16.7623   25.5800 H   0  0  0  0  0  0
  -30.5158  -17.8860   24.9981 H   0  0  0  0  0  0
  -33.5036  -17.0908   22.8910 H   0  0  0  0  0  0
  -32.9015  -15.6020   22.1862 H   0  0  0  0  0  0
  -33.2888  -15.6623   23.8926 H   0  0  0  0  0  0
  -29.4726  -15.7004   23.7331 H   0  0  0  0  0  0
  -30.7710  -15.0127   24.6833 H   0  0  0  0  0  0
  -30.6784  -14.6141   23.0351 H   0  0  0  0  0  0
  -27.8815  -21.0653   21.4268 H   0  0  0  0  0  0
  -27.7181  -20.6423   19.7619 H   0  0  0  0  0  0
  -27.9289  -24.9569   18.7264 H   0  0  0  0  0  0
  -29.5093  -24.9644   19.3781 H   0  0  0  0  0  0
  -28.5613  -23.8691   21.5423 H   0  0  0  0  0  0
  -28.7965  -15.5271   20.9240 H   0  0  0  0  0  0
  -29.0091  -22.3505   19.1042 H   0  0  0  0  0  0
  -29.8961  -22.4518   20.4335 H   0  0  0  0  0  0
  1 25  1  0  0  0
  1 30  2  0  0  0
  1 86  1  0  0  0
  2  3  1  0  0  0
  2 25  1  0  0  0
  2 88  1  0  0  0
  2 89  1  0  0  0
  3  4  1  0  0  0
  3 90  1  0  0  0
  3 91  1  0  0  0
  4  5  1  0  0  0
  4 92  1  0  0  0
  4 93  1  0  0  0
  5  6  1  0  0  0
  5 26  1  0  0  0
  5 94  1  0  0  0
  6 25  1  0  0  0
  6 95  1  0  0  0
  6 96  1  0  0  0
  7  8  2  0  0  0
  7 26  1  0  0  0
  7 29  1  0  0  0
  8  9  1  0  0  0
  8 22  1  0  0  0
  9 10  1  0  0  0
  9 27  2  0  0  0
 10 11  2  0  0  0
 10 15  1  0  0  0
 11 12  1  0  0  0
 11 97  1  0  0  0
 12 13  2  0  0  0
 12 98  1  0  0  0
 13 14  1  0  0  0
 13 31  1  0  0  0
 14 15  2  0  0  0
 14 99  1  0  0  0
 15100  1  0  0  0
 16 17  2  0  0  0
 16 21  1  0  0  0
 16 31  1  0  0  0
 17 18  1  0  0  0
 17101  1  0  0  0
 18 19  2  0  0  0
 18102  1  0  0  0
 19 20  1  0  0  0
 19 24  1  0  0  0
 20 21  2  0  0  0
 20103  1  0  0  0
 21 23  1  0  0  0
 22 28  1  0  0  0
 22 32  2  0  0  0
 26 27  1  0  0  0
 28104  1  0  0  0
 28105  1  0  0  0
 29106  1  0  0  0
 29107  1  0  0  0
 33 34  1  0  0  0
 33 66  1  0  0  0
 33 70  2  0  0  0
 34 36  1  0  0  0
 34 59  1  0  0  0
 34108  1  0  0  0
 35 44  2  0  0  0
 35 45  1  0  0  0
 35 68  1  0  0  0
 36 56  1  0  0  0
 36109  1  0  0  0
 37 39  1  0  0  0
 37 47  1  0  0  0
 37 66  1  0  0  0
 37110  1  0  0  0
 38 43  2  0  0  0
 38 46  1  0  0  0
 38 47  1  0  0  0
 39 64  1  0  0  0
 39 67  2  0  0  0
 40 52  1  0  0  0
 40 53  2  0  0  0
 40 58  1  0  0  0
 41111  1  0  0  0
 41112  1  0  0  0
 41113  1  0  0  0
 41 48  1  0  0  0
 42 43  1  0  0  0
 42 66  1  0  0  0
 42114  1  0  0  0
 42115  1  0  0  0
 43 44  1  0  0  0
 44116  1  0  0  0
 45 46  2  0  0  0
 45117  1  0  0  0
 46118  1  0  0  0
 47119  1  0  0  0
 47120  1  0  0  0
 48 56  1  0  0  0
 48 65  1  0  0  0
 48121  1  0  0  0
 49 50  1  0  0  0
 49 53  1  0  0  0
 49 64  1  0  0  0
 49122  1  0  0  0
 50 51  1  0  0  0
 50123  1  0  0  0
 50124  1  0  0  0
 51 52  1  0  0  0
 51125  1  0  0  0
 51126  1  0  0  0
 52127  1  0  0  0
 52128  1  0  0  0
 53 54  1  0  0  0
 54 55  2  0  0  0
 54129  1  0  0  0
 55 57  1  0  0  0
 55130  1  0  0  0
 56 69  2  0  0  0
 57 58  2  0  0  0
 57131  1  0  0  0
 58132  1  0  0  0
 59 60  1  0  0  0
 59 61  1  0  0  0
 59 62  1  0  0  0
 60133  1  0  0  0
 60134  1  0  0  0
 60135  1  0  0  0
 61136  1  0  0  0
 61137  1  0  0  0
 61138  1  0  0  0
 62139  1  0  0  0
 62140  1  0  0  0
 62141  1  0  0  0
 63 65  1  0  0  0
 63142  1  0  0  0
 63143  1  0  0  0
 63144  1  0  0  0
 64145  1  0  0  0
 65146  1  0  0  0
 68 83  1  0  0  0
 71 72  2  0  0  0
 71 73  1  0  0  0
 71147  1  0  0  0
 72 74  1  0  0  0
 72148  1  0  0  0
 73 75  2  0  0  0
 73 82  1  0  0  0
 74 76  2  0  0  0
 74 85  1  0  0  0
 75 76  1  0  0  0
 75 77  1  0  0  0
 76 86  1  0  0  0
 77149  1  0  0  0
 77150  1  0  0  0
 77151  1  0  0  0
 78152  1  0  0  0
 78153  1  0  0  0
 78154  1  0  0  0
 78 84  1  0  0  0
 79155  1  0  0  0
 79156  1  0  0  0
 79157  1  0  0  0
 79 85  1  0  0  0
 80 85  1  0  0  0
 80158  1  0  0  0
 80159  1  0  0  0
 80160  1  0  0  0
 81 85  1  0  0  0
 81161  1  0  0  0
 81162  1  0  0  0
 81163  1  0  0  0
 82 87  1  0  0  0
 82164  1  0  0  0
 82165  1  0  0  0
 83 84  1  0  0  0
 83166  1  0  0  0
 83167  1  0  0  0
 84 87  1  0  0  0
 84168  1  0  0  0
 86169  1  0  0  0
 87170  1  0  0  0
 87171  1  0  0  0
M  CHG  1  87   1
M  ISO  4   1 100  68 101  83 101  86 100
M  END
> <chiral flag>
0

> <version>
0

> <s_m_source_file>
/data/baiqing/PycharmProjects/Reinvent-master-3.2/result/LINK_invent/BTK/process_docking_weight1_custom_sum_contain_oxygen_bond_distance_aromatic_linkinvent_7_9_3/rearranged_h_0016.sdf

> <i_m_source_file_index>
94

> <r_mmod_Potential_Energy-OPLS-2005>
117.253105163574

> <r_mmod_Stretch_Energy-OPLS-2005>
144.641555786133

> <r_mmod_Bend_Energy-OPLS-2005>
213.506851196289

> <r_mmod_Torsional_Energy-OPLS-2005>
261.931335449219

> <r_mmod_Improper_Torsional_Energy-OPLS-2005>
6.58484745025635

> <r_mmod_Van_der_Waal_Energy-OPLS-2005>
150.061859130859

> <r_mmod_Electrostatic_Energy-OPLS-2005>
-291.684967041016

> <r_mmod_Solvation_Energy-OPLS-2005>
-446.849029541016

> <b_mmod_Minimization_Converged-OPLS-2005>
0

> <r_mmod_RMS_Derivative-OPLS-2005>
2.11175560951233

$$$$
