0
                    3D
 Structure written by MMmdl.
154162  0  0  1  0            999 V2000
  -30.6124  -14.7593   20.4887 C   0  0  0  0  0  0
  -30.4386  -12.4735   19.4713 C   0  0  0  0  0  0
  -29.5181  -12.5257   18.2322 C   0  0  0  0  0  0
  -28.0427  -12.3489   18.6395 C   0  0  0  0  0  0
  -27.6443  -13.2344   19.8507 C   0  0  2  0  0  0
  -28.6908  -13.1678   20.9849 C   0  0  0  0  0  0
  -25.2505  -13.8192   20.5664 C   0  0  0  0  0  0
  -24.1800  -13.0442   20.9174 C   0  0  0  0  0  0
  -24.6395  -11.6920   20.8723 C   0  0  0  0  0  0
  -23.9058  -10.4302   21.0408 C   0  0  0  0  0  0
  -24.3623   -9.4220   21.9180 C   0  0  0  0  0  0
  -23.6308   -8.2259   22.0767 C   0  0  0  0  0  0
  -22.4291   -8.0280   21.3552 C   0  0  0  0  0  0
  -21.9914   -9.0244   20.4651 C   0  0  0  0  0  0
  -22.7237  -10.2123   20.3062 C   0  0  0  0  0  0
  -21.6854   -6.0736   22.5292 C   0  0  0  0  0  0
  -21.4013   -6.5631   23.8215 C   0  0  0  0  0  0
  -21.3671   -5.6786   24.9177 C   0  0  0  0  0  0
  -21.6055   -4.3053   24.7234 C   0  0  0  0  0  0
  -21.8809   -3.8143   23.4344 C   0  0  0  0  0  0
  -21.9193   -4.6959   22.3405 C   0  0  0  0  0  0
  -22.7813  -13.5221   21.1837 C   0  0  0  0  0  0
  -22.1653   -4.2137   21.0988 F   0  0  0  0  0  0
  -21.5642   -3.4535   25.7747 F   0  0  0  0  0  0
  -29.9872  -13.5345   20.4013 N   0  0  0  0  0  0
  -26.2955  -12.9404   20.3265 N   0  0  0  0  0  0
  -25.9333  -11.6546   20.5720 N   0  0  0  0  0  0
  -22.0465  -12.8234   22.0412 N   0  0  0  0  0  0
  -25.4173  -15.1922   20.4062 N   0  0  0  0  0  0
  -31.8022  -14.8573   20.1727 O   0  0  0  0  0  0
  -21.6646   -6.8879   21.4258 O   0  0  0  0  0  0
  -22.3500  -14.5527   20.6681 O   0  0  0  0  0  0
  -24.6322  -31.8547   23.1971 C   0  0  0  0  0  0
  -25.9140  -32.4761   23.8334 C   0  0  1  0  0  0
  -27.2353  -27.2637   20.1293 C   0  0  0  0  0  0
  -25.5952  -33.8566   24.2277 N   0  0  0  0  0  0
  -23.4323  -30.4728   21.5385 C   0  0  2  0  0  0
  -24.8843  -28.9121   20.1163 C   0  0  0  0  0  0
  -22.7518  -29.4585   22.4902 C   0  0  0  0  0  0
  -18.0291  -28.1398   22.8466 C   0  0  0  0  0  0
  -24.1501  -36.7282   23.2634 C   0  0  0  0  0  0
  -25.9758  -30.7684   21.3739 C   0  0  0  0  0  0
  -26.0537  -29.3861   20.7238 C   0  0  0  0  0  0
  -27.2346  -28.5752   20.7146 C   0  0  0  0  0  0
  -26.0452  -26.8535   19.4950 C   0  0  0  0  0  0
  -24.8842  -27.6539   19.4899 C   0  0  0  0  0  0
  -23.6554  -29.8001   20.1581 C   0  0  0  0  0  0
  -25.4130  -36.3083   24.0327 C   0  0  1  0  0  0
  -20.5897  -28.3706   23.1264 C   0  0  2  0  0  0
  -20.6787  -26.9422   22.5409 C   0  0  0  0  0  0
  -19.5771  -26.6385   21.5209 C   0  0  0  0  0  0
  -18.1947  -26.7940   22.1610 C   0  0  0  0  0  0
  -19.1543  -28.8861   23.2865 C   0  0  0  0  0  0
  -18.9461  -30.1458   23.8892 C   0  0  0  0  0  0
  -17.6457  -30.6590   24.0557 C   0  0  0  0  0  0
  -25.9050  -34.9449   23.5099 C   0  0  0  0  0  0
  -16.5349  -29.9088   23.6320 C   0  0  0  0  0  0
  -16.7272  -28.6512   23.0330 C   0  0  0  0  0  0
  -26.4518  -31.6566   25.0706 C   0  0  0  0  0  0
  -25.3737  -31.3667   26.1403 C   0  0  0  0  0  0
  -27.0337  -30.3001   24.6124 C   0  0  0  0  0  0
  -27.6106  -32.4260   25.7475 C   0  0  0  0  0  0
  -27.5597  -37.1793   24.8456 C   0  0  0  0  0  0
  -21.4215  -29.3059   22.3654 N   0  0  0  0  0  0
  -26.4302  -37.3791   23.9405 N   0  0  0  0  0  0
  -24.6995  -31.0501   22.0944 N   0  0  0  0  0  0
  -23.4203  -28.8129   23.3020 O   0  0  0  0  0  0
  -28.3468  -26.3933   20.1187 O   0  0  0  0  0  0
  -26.5610  -34.8921   22.4662 O   0  0  0  0  0  0
  -23.5463  -32.1368   23.7250 O   0  0  0  0  0  0
  -30.6402  -20.0984   21.6313 C   0  0  0  0  0  0
  -31.2977  -19.0426   22.2897 C   0  0  0  0  0  0
  -29.4535  -18.4427   20.3069 C   0  0  0  0  0  0
  -29.6821  -19.8507   20.6300 C   0  0  0  0  0  0
  -31.0485  -17.6847   21.9881 C   0  0  0  0  0  0
  -30.1351  -17.3240   20.9552 C   0  0  0  0  0  0
  -29.0370  -21.0703   19.8944 C   0  0  0  0  0  0
  -31.7641  -16.6595   22.8549 C   0  0  0  0  0  0
  -28.7892  -23.7012   19.7499 C   0  0  0  0  0  0
  -28.2062  -24.9670   20.5842 C   0  0  0  0  0  0
  -29.8196  -15.8892   20.6876 N   0  0  0  0  0  0
  -29.0505  -22.3496   20.4334 N   0  0  0  0  0  0
  -28.5297  -20.8755   18.7893 O   0  0  0  0  0  0
  -31.4822  -12.5993   19.1747 H   0  0  0  0  0  0
  -30.3817  -11.4969   19.9536 H   0  0  0  0  0  0
  -29.8054  -11.7574   17.5135 H   0  0  0  0  0  0
  -29.6443  -13.4834   17.7235 H   0  0  0  0  0  0
  -27.8875  -11.2971   18.8801 H   0  0  0  0  0  0
  -27.3951  -12.5625   17.7887 H   0  0  0  0  0  0
  -27.6343  -14.2578   19.4747 H   0  0  0  0  0  0
  -28.7357  -12.1679   21.4187 H   0  0  0  0  0  0
  -28.4245  -13.8403   21.8019 H   0  0  0  0  0  0
  -25.2772   -9.5695   22.4730 H   0  0  0  0  0  0
  -24.0015   -7.4649   22.7493 H   0  0  0  0  0  0
  -21.0834   -8.8745   19.8954 H   0  0  0  0  0  0
  -22.3686  -10.9649   19.6168 H   0  0  0  0  0  0
  -21.2002   -7.6141   23.9714 H   0  0  0  0  0  0
  -21.1516   -6.0521   25.9074 H   0  0  0  0  0  0
  -22.0592   -2.7605   23.2854 H   0  0  0  0  0  0
  -22.4065  -11.9891   22.4811 H   0  0  0  0  0  0
  -21.1080  -13.1275   22.2611 H   0  0  0  0  0  0
  -24.6439  -15.8413   20.5028 H   0  0  0  0  0  0
  -26.2577  -15.6334   20.0594 H   0  0  0  0  0  0
  -26.7206  -32.5440   23.1076 H   0  0  0  0  0  0
  -25.0172  -33.9723   25.0468 H   0  0  0  0  0  0
  -22.7296  -31.2955   21.3872 H   0  0  0  0  0  0
  -23.3785  -35.9585   23.3263 H   0  0  0  0  0  0
  -24.3594  -36.8933   22.2051 H   0  0  0  0  0  0
  -23.7207  -37.6460   23.6666 H   0  0  0  0  0  0
  -26.1028  -31.5227   20.5963 H   0  0  0  0  0  0
  -26.8586  -30.8328   21.9990 H   0  0  0  0  0  0
  -28.1365  -28.9364   21.1914 H   0  0  0  0  0  0
  -26.0138  -25.8955   18.9978 H   0  0  0  0  0  0
  -23.9920  -27.2907   18.9996 H   0  0  0  0  0  0
  -23.7884  -30.5740   19.4012 H   0  0  0  0  0  0
  -22.7744  -29.2350   19.8480 H   0  0  0  0  0  0
  -25.1302  -36.1949   25.0819 H   0  0  0  0  0  0
  -20.9987  -28.3298   24.1389 H   0  0  0  0  0  0
  -20.5702  -26.2317   23.3616 H   0  0  0  0  0  0
  -21.6654  -26.7465   22.1202 H   0  0  0  0  0  0
  -19.6943  -25.6291   21.1253 H   0  0  0  0  0  0
  -19.6722  -27.3181   20.6731 H   0  0  0  0  0  0
  -17.4225  -26.6668   21.4011 H   0  0  0  0  0  0
  -18.0348  -26.0090   22.9017 H   0  0  0  0  0  0
  -19.7926  -30.7275   24.2284 H   0  0  0  0  0  0
  -17.4999  -31.6268   24.5166 H   0  0  0  0  0  0
  -15.5346  -30.2985   23.7638 H   0  0  0  0  0  0
  -15.8678  -28.0830   22.7033 H   0  0  0  0  0  0
  -24.5964  -30.6973   25.7696 H   0  0  0  0  0  0
  -24.8860  -32.2799   26.4823 H   0  0  0  0  0  0
  -25.8060  -30.8848   27.0180 H   0  0  0  0  0  0
  -26.2879  -29.6751   24.1193 H   0  0  0  0  0  0
  -27.4097  -29.7257   25.4601 H   0  0  0  0  0  0
  -27.8738  -30.4297   23.9293 H   0  0  0  0  0  0
  -27.2784  -33.3583   26.2047 H   0  0  0  0  0  0
  -28.3934  -32.6751   25.0298 H   0  0  0  0  0  0
  -28.0741  -31.8348   26.5380 H   0  0  0  0  0  0
  -28.2583  -38.0129   24.7571 H   0  0  0  0  0  0
  -28.1130  -36.2659   24.6208 H   0  0  0  0  0  0
  -27.2310  -37.1349   25.8857 H   0  0  0  0  0  0
  -20.9409  -29.8780   21.6850 H   0  0  0  0  0  0
  -26.0184  -38.2859   24.1448 H   0  0  0  0  0  0
  -30.8918  -21.1142   21.9065 H   0  0  0  0  0  0
  -32.0078  -19.2944   23.0650 H   0  0  0  0  0  0
  -28.7354  -18.2205   19.5294 H   0  0  0  0  0  0
  -32.0892  -17.1074   23.7950 H   0  0  0  0  0  0
  -32.6546  -16.2843   22.3514 H   0  0  0  0  0  0
  -31.1166  -15.8232   23.1135 H   0  0  0  0  0  0
  -29.7542  -24.0059   19.3436 H   0  0  0  0  0  0
  -28.1563  -23.5400   18.8779 H   0  0  0  0  0  0
  -28.7176  -24.9570   21.5460 H   0  0  0  0  0  0
  -27.1660  -24.7633   20.8321 H   0  0  0  0  0  0
  -28.8336  -15.6789   20.6763 H   0  0  0  0  0  0
  -29.4410  -22.4133   21.3624 H   0  0  0  0  0  0
  1 25  1  0  0  0
  1 30  2  0  0  0
  1 81  1  0  0  0
  2  3  1  0  0  0
  2 25  1  0  0  0
  2 84  1  0  0  0
  2 85  1  0  0  0
  3  4  1  0  0  0
  3 86  1  0  0  0
  3 87  1  0  0  0
  4  5  1  0  0  0
  4 88  1  0  0  0
  4 89  1  0  0  0
  5  6  1  0  0  0
  5 26  1  0  0  0
  5 90  1  0  0  0
  6 25  1  0  0  0
  6 91  1  0  0  0
  6 92  1  0  0  0
  7  8  2  0  0  0
  7 26  1  0  0  0
  7 29  1  0  0  0
  8  9  1  0  0  0
  8 22  1  0  0  0
  9 10  1  0  0  0
  9 27  2  0  0  0
 10 11  2  0  0  0
 10 15  1  0  0  0
 11 12  1  0  0  0
 11 93  1  0  0  0
 12 13  2  0  0  0
 12 94  1  0  0  0
 13 14  1  0  0  0
 13 31  1  0  0  0
 14 15  2  0  0  0
 14 95  1  0  0  0
 15 96  1  0  0  0
 16 17  2  0  0  0
 16 21  1  0  0  0
 16 31  1  0  0  0
 17 18  1  0  0  0
 17 97  1  0  0  0
 18 19  2  0  0  0
 18 98  1  0  0  0
 19 20  1  0  0  0
 19 24  1  0  0  0
 20 21  2  0  0  0
 20 99  1  0  0  0
 21 23  1  0  0  0
 22 28  1  0  0  0
 22 32  2  0  0  0
 26 27  1  0  0  0
 28100  1  0  0  0
 28101  1  0  0  0
 29102  1  0  0  0
 29103  1  0  0  0
 33 34  1  0  0  0
 33 66  1  0  0  0
 33 70  2  0  0  0
 34 36  1  0  0  0
 34 59  1  0  0  0
 34104  1  0  0  0
 35 44  2  0  0  0
 35 45  1  0  0  0
 35 68  1  0  0  0
 36 56  1  0  0  0
 36105  1  0  0  0
 37 39  1  0  0  0
 37 47  1  0  0  0
 37 66  1  0  0  0
 37106  1  0  0  0
 38 43  2  0  0  0
 38 46  1  0  0  0
 38 47  1  0  0  0
 39 64  1  0  0  0
 39 67  2  0  0  0
 40 52  1  0  0  0
 40 53  2  0  0  0
 40 58  1  0  0  0
 41107  1  0  0  0
 41108  1  0  0  0
 41109  1  0  0  0
 41 48  1  0  0  0
 42 43  1  0  0  0
 42 66  1  0  0  0
 42110  1  0  0  0
 42111  1  0  0  0
 43 44  1  0  0  0
 44112  1  0  0  0
 45 46  2  0  0  0
 45113  1  0  0  0
 46114  1  0  0  0
 47115  1  0  0  0
 47116  1  0  0  0
 48 56  1  0  0  0
 48 65  1  0  0  0
 48117  1  0  0  0
 49 50  1  0  0  0
 49 53  1  0  0  0
 49 64  1  0  0  0
 49118  1  0  0  0
 50 51  1  0  0  0
 50119  1  0  0  0
 50120  1  0  0  0
 51 52  1  0  0  0
 51121  1  0  0  0
 51122  1  0  0  0
 52123  1  0  0  0
 52124  1  0  0  0
 53 54  1  0  0  0
 54 55  2  0  0  0
 54125  1  0  0  0
 55 57  1  0  0  0
 55126  1  0  0  0
 56 69  2  0  0  0
 57 58  2  0  0  0
 57127  1  0  0  0
 58128  1  0  0  0
 59 60  1  0  0  0
 59 61  1  0  0  0
 59 62  1  0  0  0
 60129  1  0  0  0
 60130  1  0  0  0
 60131  1  0  0  0
 61132  1  0  0  0
 61133  1  0  0  0
 61134  1  0  0  0
 62135  1  0  0  0
 62136  1  0  0  0
 62137  1  0  0  0
 63 65  1  0  0  0
 63138  1  0  0  0
 63139  1  0  0  0
 63140  1  0  0  0
 64141  1  0  0  0
 65142  1  0  0  0
 68 80  1  0  0  0
 71 72  2  0  0  0
 71 74  1  0  0  0
 71143  1  0  0  0
 72 75  1  0  0  0
 72144  1  0  0  0
 73 74  2  0  0  0
 73 76  1  0  0  0
 73145  1  0  0  0
 74 77  1  0  0  0
 75 76  2  0  0  0
 75 78  1  0  0  0
 76 81  1  0  0  0
 77 82  1  0  0  0
 77 83  2  0  0  0
 78146  1  0  0  0
 78147  1  0  0  0
 78148  1  0  0  0
 79 80  1  0  0  0
 79 82  1  0  0  0
 79149  1  0  0  0
 79150  1  0  0  0
 80151  1  0  0  0
 80152  1  0  0  0
 81153  1  0  0  0
 82154  1  0  0  0
M  ISO  4   1 100  68 101  80 101  81 100
M  END
> <chiral flag>
0

> <version>
0

> <s_m_source_file>
/data/baiqing/PycharmProjects/Reinvent-master-3.2/result/LINK_invent/BTK/process_docking_weight1_custom_sum_contain_oxygen_bond_distance_aromatic_linkinvent_7_9_3/rearranged_h_0008.sdf

> <i_m_source_file_index>
1

> <r_mmod_Potential_Energy-OPLS-2005>
78.3702392578125

> <r_mmod_Stretch_Energy-OPLS-2005>
127.760429382324

> <r_mmod_Bend_Energy-OPLS-2005>
164.068511962891

> <r_mmod_Torsional_Energy-OPLS-2005>
254.825820922852

> <r_mmod_Improper_Torsional_Energy-OPLS-2005>
6.7613410949707

> <r_mmod_Van_der_Waal_Energy-OPLS-2005>
136.686004638672

> <r_mmod_Electrostatic_Energy-OPLS-2005>
-461.205627441406

> <r_mmod_Solvation_Energy-OPLS-2005>
-234.907363891602

> <b_mmod_Minimization_Converged-OPLS-2005>
0

> <r_mmod_RMS_Derivative-OPLS-2005>
3.06332159042358

$$$$
1
                    3D
 Structure written by MMmdl.
154162  0  0  1  0            999 V2000
  -30.6517  -14.7269   20.4444 C   0  0  0  0  0  0
  -30.4240  -12.4437   19.4770 C   0  0  0  0  0  0
  -29.5050  -12.5073   18.2375 C   0  0  0  0  0  0
  -28.0319  -12.3368   18.6522 C   0  0  0  0  0  0
  -27.6429  -13.2376   19.8553 C   0  0  2  0  0  0
  -28.6919  -13.1826   20.9891 C   0  0  0  0  0  0
  -25.2511  -13.8218   20.5721 C   0  0  0  0  0  0
  -24.1805  -13.0449   20.9205 C   0  0  0  0  0  0
  -24.6400  -11.6924   20.8756 C   0  0  0  0  0  0
  -23.9085  -10.4292   21.0399 C   0  0  0  0  0  0
  -24.3629   -9.4213   21.9184 C   0  0  0  0  0  0
  -23.6294   -8.2254   22.0758 C   0  0  0  0  0  0
  -22.4291   -8.0283   21.3539 C   0  0  0  0  0  0
  -21.9927   -9.0258   20.4655 C   0  0  0  0  0  0
  -22.7252  -10.2132   20.3058 C   0  0  0  0  0  0
  -21.6856   -6.0736   22.5261 C   0  0  0  0  0  0
  -21.4020   -6.5637   23.8195 C   0  0  0  0  0  0
  -21.3661   -5.6794   24.9163 C   0  0  0  0  0  0
  -21.6044   -4.3054   24.7218 C   0  0  0  0  0  0
  -21.8820   -3.8142   23.4339 C   0  0  0  0  0  0
  -21.9194   -4.6960   22.3390 C   0  0  0  0  0  0
  -22.7827  -13.5214   21.1854 C   0  0  0  0  0  0
  -22.1660   -4.2135   21.0970 F   0  0  0  0  0  0
  -21.5634   -3.4539   25.7738 F   0  0  0  0  0  0
  -29.9962  -13.5161   20.4049 N   0  0  0  0  0  0
  -26.2957  -12.9430   20.3344 N   0  0  0  0  0  0
  -25.9346  -11.6559   20.5795 N   0  0  0  0  0  0
  -22.0488  -12.8192   22.0409 N   0  0  0  0  0  0
  -25.4189  -15.1942   20.4140 N   0  0  0  0  0  0
  -31.8449  -14.7710   20.1417 O   0  0  0  0  0  0
  -21.6644   -6.8886   21.4229 O   0  0  0  0  0  0
  -22.3507  -14.5509   20.6693 O   0  0  0  0  0  0
  -24.6292  -31.8565   23.2039 C   0  0  0  0  0  0
  -25.9127  -32.4773   23.8368 C   0  0  1  0  0  0
  -27.2231  -27.2682   20.1298 C   0  0  0  0  0  0
  -25.5947  -33.8576   24.2293 N   0  0  0  0  0  0
  -23.4284  -30.4801   21.5447 C   0  0  2  0  0  0
  -24.8790  -28.9369   20.1055 C   0  0  0  0  0  0
  -22.7509  -29.4581   22.4897 C   0  0  0  0  0  0
  -18.0289  -28.1381   22.8460 C   0  0  0  0  0  0
  -24.1499  -36.7279   23.2634 C   0  0  0  0  0  0
  -25.9746  -30.7707   21.3887 C   0  0  0  0  0  0
  -26.0471  -29.3955   20.7263 C   0  0  0  0  0  0
  -27.2184  -28.5715   20.7341 C   0  0  0  0  0  0
  -26.0381  -26.8930   19.4528 C   0  0  0  0  0  0
  -24.8803  -27.6941   19.4563 C   0  0  0  0  0  0
  -23.6496  -29.8245   20.1562 C   0  0  0  0  0  0
  -25.4123  -36.3074   24.0324 C   0  0  1  0  0  0
  -20.5902  -28.3685   23.1259 C   0  0  2  0  0  0
  -20.6790  -26.9398   22.5411 C   0  0  0  0  0  0
  -19.5765  -26.6377   21.5209 C   0  0  0  0  0  0
  -18.1929  -26.7921   22.1605 C   0  0  0  0  0  0
  -19.1546  -28.8843   23.2847 C   0  0  0  0  0  0
  -18.9465  -30.1435   23.8881 C   0  0  0  0  0  0
  -17.6471  -30.6580   24.0539 C   0  0  0  0  0  0
  -25.9054  -34.9446   23.5103 C   0  0  0  0  0  0
  -16.5353  -29.9079   23.6327 C   0  0  0  0  0  0
  -16.7275  -28.6498   23.0342 C   0  0  0  0  0  0
  -26.4524  -31.6593   25.0746 C   0  0  0  0  0  0
  -25.3741  -31.3706   26.1461 C   0  0  0  0  0  0
  -27.0407  -30.3016   24.6239 C   0  0  0  0  0  0
  -27.6081  -32.4343   25.7502 C   0  0  0  0  0  0
  -27.5584  -37.1792   24.8455 C   0  0  0  0  0  0
  -21.4211  -29.3038   22.3651 N   0  0  0  0  0  0
  -26.4301  -37.3770   23.9393 N   0  0  0  0  0  0
  -24.6949  -31.0543   22.1015 N   0  0  0  0  0  0
  -23.4215  -28.8094   23.2970 O   0  0  0  0  0  0
  -28.3191  -26.3745   20.2298 O   0  0  0  0  0  0
  -26.5614  -34.8910   22.4666 O   0  0  0  0  0  0
  -23.5451  -32.1398   23.7341 O   0  0  0  0  0  0
  -31.1550  -17.5345   19.1786 C   0  0  0  0  0  0
  -30.7899  -19.9625   19.2416 C   0  0  0  0  0  0
  -29.5570  -18.4883   20.7318 C   0  0  0  0  0  0
  -31.4485  -18.8340   18.7059 C   0  0  0  0  0  0
  -30.2155  -17.2973   20.2116 C   0  0  0  0  0  0
  -29.8124  -19.8427   20.2541 C   0  0  0  0  0  0
  -28.9409  -23.7199   20.6375 C   0  0  0  0  0  0
  -28.1656  -24.9183   19.8804 C   0  0  0  0  0  0
  -28.8799  -22.2323   19.9984 C   0  0  0  0  0  0
  -32.5111  -19.0078   17.6261 C   0  0  0  0  0  0
  -29.9252  -15.8964   20.6448 N   0  0  0  0  0  0
  -29.2029  -21.0109   20.8018 O   0  0  0  0  0  0
  -32.4015  -18.0557   16.6970 F   0  0  0  0  0  0
  -32.4046  -20.1905   17.0171 F   0  0  0  0  0  0
  -33.7234  -18.9259   18.1751 F   0  0  0  0  0  0
  -31.4674  -12.5454   19.1731 H   0  0  0  0  0  0
  -30.3499  -11.4702   19.9631 H   0  0  0  0  0  0
  -29.7825  -11.7357   17.5173 H   0  0  0  0  0  0
  -29.6330  -13.4645   17.7275 H   0  0  0  0  0  0
  -27.8850  -11.2889   18.9151 H   0  0  0  0  0  0
  -27.3731  -12.5307   17.8053 H   0  0  0  0  0  0
  -27.6346  -14.2583   19.4719 H   0  0  0  0  0  0
  -28.7227  -12.1938   21.4471 H   0  0  0  0  0  0
  -28.4350  -13.8800   21.7884 H   0  0  0  0  0  0
  -25.2779   -9.5677   22.4759 H   0  0  0  0  0  0
  -23.9988   -7.4653   22.7493 H   0  0  0  0  0  0
  -21.0854   -8.8795   19.8964 H   0  0  0  0  0  0
  -22.3722  -10.9681   19.6168 H   0  0  0  0  0  0
  -21.2016   -7.6147   23.9690 H   0  0  0  0  0  0
  -21.1486   -6.0532   25.9065 H   0  0  0  0  0  0
  -22.0600   -2.7601   23.2845 H   0  0  0  0  0  0
  -22.4136  -11.9846   22.4760 H   0  0  0  0  0  0
  -21.1118  -13.1210   22.2654 H   0  0  0  0  0  0
  -24.6479  -15.8458   20.5200 H   0  0  0  0  0  0
  -26.2642  -15.6344   20.0721 H   0  0  0  0  0  0
  -26.7171  -32.5433   23.1090 H   0  0  0  0  0  0
  -25.0122  -33.9715   25.0461 H   0  0  0  0  0  0
  -22.7228  -31.3008   21.4020 H   0  0  0  0  0  0
  -23.3773  -35.9597   23.3305 H   0  0  0  0  0  0
  -24.3560  -36.8901   22.2035 H   0  0  0  0  0  0
  -23.7247  -37.6476   23.6676 H   0  0  0  0  0  0
  -26.1167  -31.5350   20.6245 H   0  0  0  0  0  0
  -26.8496  -30.8144   22.0272 H   0  0  0  0  0  0
  -28.1054  -28.9088   21.2509 H   0  0  0  0  0  0
  -25.9639  -25.9603   18.9160 H   0  0  0  0  0  0
  -23.9910  -27.3475   18.9476 H   0  0  0  0  0  0
  -23.7762  -30.6094   19.4089 H   0  0  0  0  0  0
  -22.7696  -29.2595   19.8449 H   0  0  0  0  0  0
  -25.1306  -36.1930   25.0821 H   0  0  0  0  0  0
  -20.9958  -28.3306   24.1395 H   0  0  0  0  0  0
  -20.5714  -26.2285   23.3624 H   0  0  0  0  0  0
  -21.6653  -26.7458   22.1173 H   0  0  0  0  0  0
  -19.6932  -25.6285   21.1237 H   0  0  0  0  0  0
  -19.6735  -27.3196   20.6736 H   0  0  0  0  0  0
  -17.4209  -26.6654   21.3988 H   0  0  0  0  0  0
  -18.0301  -26.0091   22.9018 H   0  0  0  0  0  0
  -19.7954  -30.7208   24.2305 H   0  0  0  0  0  0
  -17.5042  -31.6282   24.5112 H   0  0  0  0  0  0
  -15.5348  -30.2959   23.7700 H   0  0  0  0  0  0
  -15.8671  -28.0815   22.7075 H   0  0  0  0  0  0
  -24.5944  -30.7043   25.7752 H   0  0  0  0  0  0
  -24.8896  -32.2850   26.4902 H   0  0  0  0  0  0
  -25.8052  -30.8865   27.0235 H   0  0  0  0  0  0
  -26.3009  -29.6709   24.1303 H   0  0  0  0  0  0
  -27.4116  -29.7343   25.4781 H   0  0  0  0  0  0
  -27.8875  -30.4294   23.9489 H   0  0  0  0  0  0
  -27.2740  -33.3679   26.2053 H   0  0  0  0  0  0
  -28.3926  -32.6837   25.0341 H   0  0  0  0  0  0
  -28.0742  -31.8475   26.5445 H   0  0  0  0  0  0
  -28.2580  -38.0107   24.7526 H   0  0  0  0  0  0
  -28.1104  -36.2629   24.6290 H   0  0  0  0  0  0
  -27.2276  -37.1442   25.8848 H   0  0  0  0  0  0
  -20.9401  -29.8789   21.6876 H   0  0  0  0  0  0
  -26.0189  -38.2833   24.1440 H   0  0  0  0  0  0
  -31.6824  -16.7176   18.7109 H   0  0  0  0  0  0
  -31.0832  -20.9344   18.8779 H   0  0  0  0  0  0
  -28.8318  -18.3643   21.5232 H   0  0  0  0  0  0
  -28.5423  -23.6680   21.6513 H   0  0  0  0  0  0
  -29.9869  -23.9967   20.7547 H   0  0  0  0  0  0
  -27.1230  -24.6282   19.9838 H   0  0  0  0  0  0
  -28.3977  -24.8389   18.8180 H   0  0  0  0  0  0
  -29.4465  -22.2593   19.0711 H   0  0  0  0  0  0
  -27.8502  -22.0750   19.6764 H   0  0  0  0  0  0
  -29.0051  -15.7513   21.0338 H   0  0  0  0  0  0
  1 25  1  0  0  0
  1 30  2  0  0  0
  1 81  1  0  0  0
  2  3  1  0  0  0
  2 25  1  0  0  0
  2 86  1  0  0  0
  2 87  1  0  0  0
  3  4  1  0  0  0
  3 88  1  0  0  0
  3 89  1  0  0  0
  4  5  1  0  0  0
  4 90  1  0  0  0
  4 91  1  0  0  0
  5  6  1  0  0  0
  5 26  1  0  0  0
  5 92  1  0  0  0
  6 25  1  0  0  0
  6 93  1  0  0  0
  6 94  1  0  0  0
  7  8  2  0  0  0
  7 26  1  0  0  0
  7 29  1  0  0  0
  8  9  1  0  0  0
  8 22  1  0  0  0
  9 10  1  0  0  0
  9 27  2  0  0  0
 10 11  2  0  0  0
 10 15  1  0  0  0
 11 12  1  0  0  0
 11 95  1  0  0  0
 12 13  2  0  0  0
 12 96  1  0  0  0
 13 14  1  0  0  0
 13 31  1  0  0  0
 14 15  2  0  0  0
 14 97  1  0  0  0
 15 98  1  0  0  0
 16 17  2  0  0  0
 16 21  1  0  0  0
 16 31  1  0  0  0
 17 18  1  0  0  0
 17 99  1  0  0  0
 18 19  2  0  0  0
 18100  1  0  0  0
 19 20  1  0  0  0
 19 24  1  0  0  0
 20 21  2  0  0  0
 20101  1  0  0  0
 21 23  1  0  0  0
 22 28  1  0  0  0
 22 32  2  0  0  0
 26 27  1  0  0  0
 28102  1  0  0  0
 28103  1  0  0  0
 29104  1  0  0  0
 29105  1  0  0  0
 33 34  1  0  0  0
 33 66  1  0  0  0
 33 70  2  0  0  0
 34 36  1  0  0  0
 34 59  1  0  0  0
 34106  1  0  0  0
 35 44  2  0  0  0
 35 45  1  0  0  0
 35 68  1  0  0  0
 36 56  1  0  0  0
 36107  1  0  0  0
 37 39  1  0  0  0
 37 47  1  0  0  0
 37 66  1  0  0  0
 37108  1  0  0  0
 38 43  2  0  0  0
 38 46  1  0  0  0
 38 47  1  0  0  0
 39 64  1  0  0  0
 39 67  2  0  0  0
 40 52  1  0  0  0
 40 53  2  0  0  0
 40 58  1  0  0  0
 41109  1  0  0  0
 41110  1  0  0  0
 41111  1  0  0  0
 41 48  1  0  0  0
 42 43  1  0  0  0
 42 66  1  0  0  0
 42112  1  0  0  0
 42113  1  0  0  0
 43 44  1  0  0  0
 44114  1  0  0  0
 45 46  2  0  0  0
 45115  1  0  0  0
 46116  1  0  0  0
 47117  1  0  0  0
 47118  1  0  0  0
 48 56  1  0  0  0
 48 65  1  0  0  0
 48119  1  0  0  0
 49 50  1  0  0  0
 49 53  1  0  0  0
 49 64  1  0  0  0
 49120  1  0  0  0
 50 51  1  0  0  0
 50121  1  0  0  0
 50122  1  0  0  0
 51 52  1  0  0  0
 51123  1  0  0  0
 51124  1  0  0  0
 52125  1  0  0  0
 52126  1  0  0  0
 53 54  1  0  0  0
 54 55  2  0  0  0
 54127  1  0  0  0
 55 57  1  0  0  0
 55128  1  0  0  0
 56 69  2  0  0  0
 57 58  2  0  0  0
 57129  1  0  0  0
 58130  1  0  0  0
 59 60  1  0  0  0
 59 61  1  0  0  0
 59 62  1  0  0  0
 60131  1  0  0  0
 60132  1  0  0  0
 60133  1  0  0  0
 61134  1  0  0  0
 61135  1  0  0  0
 61136  1  0  0  0
 62137  1  0  0  0
 62138  1  0  0  0
 62139  1  0  0  0
 63 65  1  0  0  0
 63140  1  0  0  0
 63141  1  0  0  0
 63142  1  0  0  0
 64143  1  0  0  0
 65144  1  0  0  0
 68 78  1  0  0  0
 71 74  2  0  0  0
 71 75  1  0  0  0
 71145  1  0  0  0
 72 74  1  0  0  0
 72 76  2  0  0  0
 72146  1  0  0  0
 73 75  2  0  0  0
 73 76  1  0  0  0
 73147  1  0  0  0
 74 80  1  0  0  0
 75 81  1  0  0  0
 76 82  1  0  0  0
 77 78  1  0  0  0
 77 79  1  0  0  0
 77148  1  0  0  0
 77149  1  0  0  0
 78150  1  0  0  0
 78151  1  0  0  0
 79 82  1  0  0  0
 79152  1  0  0  0
 79153  1  0  0  0
 80 83  1  0  0  0
 80 84  1  0  0  0
 80 85  1  0  0  0
 81154  1  0  0  0
M  ISO  4   1 100  68 101  78 101  81 100
M  END
> <chiral flag>
0

> <version>
0

> <s_m_source_file>
/data/baiqing/PycharmProjects/Reinvent-master-3.2/result/LINK_invent/BTK/process_docking_weight1_custom_sum_contain_oxygen_bond_distance_aromatic_linkinvent_7_9_3/rearranged_h_0008.sdf

> <i_m_source_file_index>
2

> <r_mmod_Potential_Energy-OPLS-2005>
189.599533081055

> <r_mmod_Stretch_Energy-OPLS-2005>
124.66756439209

> <r_mmod_Bend_Energy-OPLS-2005>
169.273010253906

> <r_mmod_Torsional_Energy-OPLS-2005>
230.927490234375

> <r_mmod_Improper_Torsional_Energy-OPLS-2005>
4.37099266052246

> <r_mmod_Van_der_Waal_Energy-OPLS-2005>
152.08332824707

> <r_mmod_Electrostatic_Energy-OPLS-2005>
-364.498779296875

> <r_mmod_Solvation_Energy-OPLS-2005>
-209.674240112305

> <b_mmod_Minimization_Converged-OPLS-2005>
0

> <r_mmod_RMS_Derivative-OPLS-2005>
2.73974776268005

$$$$
2
                    3D
 Structure written by MMmdl.
154162  0  0  1  0            999 V2000
  -30.4828  -15.0845   20.3666 C   0  0  0  0  0  0
  -30.4399  -12.6684   19.5312 C   0  0  0  0  0  0
  -29.5310  -12.5470   18.2835 C   0  0  0  0  0  0
  -28.0683  -12.3113   18.6996 C   0  0  0  0  0  0
  -27.6259  -13.2513   19.8502 C   0  0  2  0  0  0
  -28.6647  -13.3394   20.9890 C   0  0  0  0  0  0
  -25.2447  -13.8214   20.5760 C   0  0  0  0  0  0
  -24.1758  -13.0437   20.9239 C   0  0  0  0  0  0
  -24.6382  -11.6923   20.8778 C   0  0  0  0  0  0
  -23.9070  -10.4293   21.0423 C   0  0  0  0  0  0
  -24.3621   -9.4205   21.9197 C   0  0  0  0  0  0
  -23.6293   -8.2244   22.0759 C   0  0  0  0  0  0
  -22.4275   -8.0289   21.3550 C   0  0  0  0  0  0
  -21.9913   -9.0263   20.4652 C   0  0  0  0  0  0
  -22.7245  -10.2139   20.3065 C   0  0  0  0  0  0
  -21.6856   -6.0741   22.5283 C   0  0  0  0  0  0
  -21.4014   -6.5643   23.8216 C   0  0  0  0  0  0
  -21.3653   -5.6796   24.9177 C   0  0  0  0  0  0
  -21.6039   -4.3058   24.7227 C   0  0  0  0  0  0
  -21.8818   -3.8149   23.4348 C   0  0  0  0  0  0
  -21.9191   -4.6968   22.3404 C   0  0  0  0  0  0
  -22.7778  -13.5216   21.1877 C   0  0  0  0  0  0
  -22.1663   -4.2156   21.0982 F   0  0  0  0  0  0
  -21.5621   -3.4540   25.7736 F   0  0  0  0  0  0
  -29.9284  -13.7901   20.3878 N   0  0  0  0  0  0
  -26.2873  -12.9438   20.3330 N   0  0  0  0  0  0
  -25.9322  -11.6566   20.5792 N   0  0  0  0  0  0
  -22.0419  -12.8213   22.0435 N   0  0  0  0  0  0
  -25.4119  -15.1948   20.4199 N   0  0  0  0  0  0
  -31.6712  -15.1372   20.0252 O   0  0  0  0  0  0
  -21.6642   -6.8886   21.4246 O   0  0  0  0  0  0
  -22.3472  -14.5519   20.6709 O   0  0  0  0  0  0
  -24.6496  -31.8331   23.1781 C   0  0  0  0  0  0
  -25.9234  -32.4633   23.8205 C   0  0  1  0  0  0
  -27.2262  -27.0521   20.1605 C   0  0  0  0  0  0
  -25.5948  -33.8445   24.2117 N   0  0  0  0  0  0
  -23.4594  -30.4454   21.5234 C   0  0  2  0  0  0
  -24.9138  -28.8540   20.0995 C   0  0  0  0  0  0
  -22.7604  -29.4474   22.4810 C   0  0  0  0  0  0
  -18.0310  -28.1401   22.8473 C   0  0  0  0  0  0
  -24.1492  -36.7234   23.2645 C   0  0  0  0  0  0
  -26.0177  -30.6776   21.3908 C   0  0  0  0  0  0
  -26.0870  -29.2805   20.7320 C   0  0  0  0  0  0
  -27.2342  -28.3918   20.7509 C   0  0  0  0  0  0
  -26.0332  -26.7450   19.4730 C   0  0  0  0  0  0
  -24.9044  -27.6040   19.4537 C   0  0  0  0  0  0
  -23.6913  -29.7644   20.1449 C   0  0  0  0  0  0
  -25.4128  -36.2996   24.0304 C   0  0  1  0  0  0
  -20.5928  -28.3728   23.1219 C   0  0  2  0  0  0
  -20.6788  -26.9421   22.5409 C   0  0  0  0  0  0
  -19.5765  -26.6375   21.5216 C   0  0  0  0  0  0
  -18.1947  -26.7938   22.1622 C   0  0  0  0  0  0
  -19.1570  -28.8884   23.2836 C   0  0  0  0  0  0
  -18.9483  -30.1478   23.8863 C   0  0  0  0  0  0
  -17.6478  -30.6593   24.0557 C   0  0  0  0  0  0
  -25.9082  -34.9374   23.5026 C   0  0  0  0  0  0
  -16.5370  -29.9084   23.6338 C   0  0  0  0  0  0
  -16.7295  -28.6504   23.0357 C   0  0  0  0  0  0
  -26.4530  -31.6549   25.0695 C   0  0  0  0  0  0
  -25.3689  -31.3779   26.1377 C   0  0  0  0  0  0
  -27.0415  -30.2930   24.6356 C   0  0  0  0  0  0
  -27.6037  -32.4344   25.7493 C   0  0  0  0  0  0
  -27.5572  -37.1774   24.8463 C   0  0  0  0  0  0
  -21.4286  -29.3030   22.3573 N   0  0  0  0  0  0
  -26.4283  -37.3719   23.9403 N   0  0  0  0  0  0
  -24.7288  -31.0103   22.0852 N   0  0  0  0  0  0
  -23.4207  -28.8042   23.3010 O   0  0  0  0  0  0
  -28.2563  -26.0343   20.3429 O   0  0  0  0  0  0
  -26.5687  -34.8893   22.4620 O   0  0  0  0  0  0
  -23.5598  -32.1249   23.6950 O   0  0  0  0  0  0
  -28.5529  -18.9048   18.0215 C   0  0  0  0  0  0
  -28.5059  -20.1709   18.6420 C   0  0  0  0  0  0
  -29.4704  -19.1056   20.5930 C   0  0  0  0  0  0
  -29.0438  -17.7262   18.6379 C   0  0  0  0  0  0
  -28.9982  -20.3955   19.9407 C   0  0  0  0  0  0
  -29.4960  -17.7098   19.9901 C   0  0  0  0  0  0
  -28.1890  -23.0411   20.1799 C   0  0  0  0  0  0
  -29.0158  -16.4691   17.7833 C   0  0  0  0  0  0
  -30.4252  -22.2997   20.8313 C   0  0  0  0  0  0
  -28.5039  -24.6268   19.6426 C   0  0  0  0  0  0
  -29.7230  -16.2909   20.6420 N   0  0  0  0  0  0
  -29.1098  -21.9193   20.3256 N   0  0  0  0  0  0
  -26.9957  -22.8118   20.4014 O   0  0  0  0  0  0
  -31.4722  -12.8315   19.2181 H   0  0  0  0  0  0
  -30.4524  -11.7324   20.0920 H   0  0  0  0  0  0
  -29.8720  -11.7336   17.6420 H   0  0  0  0  0  0
  -29.6030  -13.4568   17.6866 H   0  0  0  0  0  0
  -27.9842  -11.2733   19.0236 H   0  0  0  0  0  0
  -27.4037  -12.4176   17.8416 H   0  0  0  0  0  0
  -27.5638  -14.2401   19.4074 H   0  0  0  0  0  0
  -28.7820  -12.3791   21.4932 H   0  0  0  0  0  0
  -28.3371  -14.0494   21.7499 H   0  0  0  0  0  0
  -25.2764   -9.5676   22.4778 H   0  0  0  0  0  0
  -23.9997   -7.4633   22.7476 H   0  0  0  0  0  0
  -21.0843   -8.8784   19.8965 H   0  0  0  0  0  0
  -22.3704  -10.9681   19.6177 H   0  0  0  0  0  0
  -21.2016   -7.6155   23.9718 H   0  0  0  0  0  0
  -21.1472   -6.0530   25.9077 H   0  0  0  0  0  0
  -22.0601   -2.7614   23.2848 H   0  0  0  0  0  0
  -22.4030  -11.9884   22.4842 H   0  0  0  0  0  0
  -21.1033  -13.1242   22.2627 H   0  0  0  0  0  0
  -24.6420  -15.8457   20.5325 H   0  0  0  0  0  0
  -26.2598  -15.6402   20.0937 H   0  0  0  0  0  0
  -26.7296  -32.5206   23.0922 H   0  0  0  0  0  0
  -25.0051  -33.9537   25.0235 H   0  0  0  0  0  0
  -22.7659  -31.2729   21.3600 H   0  0  0  0  0  0
  -23.3756  -35.9563   23.3287 H   0  0  0  0  0  0
  -24.3565  -36.8896   22.2062 H   0  0  0  0  0  0
  -23.7250  -37.6422   23.6707 H   0  0  0  0  0  0
  -26.1848  -31.4269   20.6160 H   0  0  0  0  0  0
  -26.8829  -30.7296   22.0401 H   0  0  0  0  0  0
  -28.1187  -28.7041   21.2881 H   0  0  0  0  0  0
  -25.9346  -25.7776   19.0020 H   0  0  0  0  0  0
  -24.0077  -27.2721   18.9487 H   0  0  0  0  0  0
  -23.8304  -30.5350   19.3858 H   0  0  0  0  0  0
  -22.8051  -29.2077   19.8351 H   0  0  0  0  0  0
  -25.1323  -36.1805   25.0796 H   0  0  0  0  0  0
  -21.0015  -28.3329   24.1343 H   0  0  0  0  0  0
  -20.5671  -26.2342   23.3635 H   0  0  0  0  0  0
  -21.6655  -26.7408   22.1218 H   0  0  0  0  0  0
  -19.6924  -25.6277   21.1270 H   0  0  0  0  0  0
  -19.6711  -27.3164   20.6729 H   0  0  0  0  0  0
  -17.4217  -26.6681   21.4027 H   0  0  0  0  0  0
  -18.0342  -26.0089   22.9025 H   0  0  0  0  0  0
  -19.7956  -30.7308   24.2218 H   0  0  0  0  0  0
  -17.5027  -31.6267   24.5167 H   0  0  0  0  0  0
  -15.5370  -30.2974   23.7678 H   0  0  0  0  0  0
  -15.8696  -28.0811   22.7091 H   0  0  0  0  0  0
  -24.5868  -30.7128   25.7696 H   0  0  0  0  0  0
  -24.8884  -32.2981   26.4712 H   0  0  0  0  0  0
  -25.7945  -30.9007   27.0213 H   0  0  0  0  0  0
  -26.3056  -29.6628   24.1351 H   0  0  0  0  0  0
  -27.3974  -29.7264   25.4972 H   0  0  0  0  0  0
  -27.8983  -30.4138   23.9724 H   0  0  0  0  0  0
  -27.2603  -33.3665   26.1992 H   0  0  0  0  0  0
  -28.3891  -32.6877   25.0361 H   0  0  0  0  0  0
  -28.0658  -31.8532   26.5482 H   0  0  0  0  0  0
  -28.2578  -38.0080   24.7499 H   0  0  0  0  0  0
  -28.1080  -36.2607   24.6301 H   0  0  0  0  0  0
  -27.2285  -37.1427   25.8865 H   0  0  0  0  0  0
  -20.9511  -29.8726   21.6725 H   0  0  0  0  0  0
  -26.0142  -38.2782   24.1406 H   0  0  0  0  0  0
  -28.1908  -18.8480   17.0039 H   0  0  0  0  0  0
  -28.1417  -21.0051   18.0583 H   0  0  0  0  0  0
  -29.8273  -19.1907   21.6097 H   0  0  0  0  0  0
  -28.8128  -16.7010   16.7372 H   0  0  0  0  0  0
  -28.2300  -15.7984   18.1161 H   0  0  0  0  0  0
  -29.9730  -15.9512   17.8028 H   0  0  0  0  0  0
  -30.9178  -21.4595   21.3200 H   0  0  0  0  0  0
  -30.3666  -23.1065   21.5636 H   0  0  0  0  0  0
  -31.0636  -22.6275   20.0105 H   0  0  0  0  0  0
  -28.0229  -24.6925   18.6669 H   0  0  0  0  0  0
  -29.5671  -24.6319   19.4056 H   0  0  0  0  0  0
  -28.9427  -16.0487   21.2347 H   0  0  0  0  0  0
  1 25  1  0  0  0
  1 30  2  0  0  0
  1 81  1  0  0  0
  2  3  1  0  0  0
  2 25  1  0  0  0
  2 84  1  0  0  0
  2 85  1  0  0  0
  3  4  1  0  0  0
  3 86  1  0  0  0
  3 87  1  0  0  0
  4  5  1  0  0  0
  4 88  1  0  0  0
  4 89  1  0  0  0
  5  6  1  0  0  0
  5 26  1  0  0  0
  5 90  1  0  0  0
  6 25  1  0  0  0
  6 91  1  0  0  0
  6 92  1  0  0  0
  7  8  2  0  0  0
  7 26  1  0  0  0
  7 29  1  0  0  0
  8  9  1  0  0  0
  8 22  1  0  0  0
  9 10  1  0  0  0
  9 27  2  0  0  0
 10 11  2  0  0  0
 10 15  1  0  0  0
 11 12  1  0  0  0
 11 93  1  0  0  0
 12 13  2  0  0  0
 12 94  1  0  0  0
 13 14  1  0  0  0
 13 31  1  0  0  0
 14 15  2  0  0  0
 14 95  1  0  0  0
 15 96  1  0  0  0
 16 17  2  0  0  0
 16 21  1  0  0  0
 16 31  1  0  0  0
 17 18  1  0  0  0
 17 97  1  0  0  0
 18 19  2  0  0  0
 18 98  1  0  0  0
 19 20  1  0  0  0
 19 24  1  0  0  0
 20 21  2  0  0  0
 20 99  1  0  0  0
 21 23  1  0  0  0
 22 28  1  0  0  0
 22 32  2  0  0  0
 26 27  1  0  0  0
 28100  1  0  0  0
 28101  1  0  0  0
 29102  1  0  0  0
 29103  1  0  0  0
 33 34  1  0  0  0
 33 66  1  0  0  0
 33 70  2  0  0  0
 34 36  1  0  0  0
 34 59  1  0  0  0
 34104  1  0  0  0
 35 44  2  0  0  0
 35 45  1  0  0  0
 35 68  1  0  0  0
 36 56  1  0  0  0
 36105  1  0  0  0
 37 39  1  0  0  0
 37 47  1  0  0  0
 37 66  1  0  0  0
 37106  1  0  0  0
 38 43  2  0  0  0
 38 46  1  0  0  0
 38 47  1  0  0  0
 39 64  1  0  0  0
 39 67  2  0  0  0
 40 52  1  0  0  0
 40 53  2  0  0  0
 40 58  1  0  0  0
 41107  1  0  0  0
 41108  1  0  0  0
 41109  1  0  0  0
 41 48  1  0  0  0
 42 43  1  0  0  0
 42 66  1  0  0  0
 42110  1  0  0  0
 42111  1  0  0  0
 43 44  1  0  0  0
 44112  1  0  0  0
 45 46  2  0  0  0
 45113  1  0  0  0
 46114  1  0  0  0
 47115  1  0  0  0
 47116  1  0  0  0
 48 56  1  0  0  0
 48 65  1  0  0  0
 48117  1  0  0  0
 49 50  1  0  0  0
 49 53  1  0  0  0
 49 64  1  0  0  0
 49118  1  0  0  0
 50 51  1  0  0  0
 50119  1  0  0  0
 50120  1  0  0  0
 51 52  1  0  0  0
 51121  1  0  0  0
 51122  1  0  0  0
 52123  1  0  0  0
 52124  1  0  0  0
 53 54  1  0  0  0
 54 55  2  0  0  0
 54125  1  0  0  0
 55 57  1  0  0  0
 55126  1  0  0  0
 56 69  2  0  0  0
 57 58  2  0  0  0
 57127  1  0  0  0
 58128  1  0  0  0
 59 60  1  0  0  0
 59 61  1  0  0  0
 59 62  1  0  0  0
 60129  1  0  0  0
 60130  1  0  0  0
 60131  1  0  0  0
 61132  1  0  0  0
 61133  1  0  0  0
 61134  1  0  0  0
 62135  1  0  0  0
 62136  1  0  0  0
 62137  1  0  0  0
 63 65  1  0  0  0
 63138  1  0  0  0
 63139  1  0  0  0
 63140  1  0  0  0
 64141  1  0  0  0
 65142  1  0  0  0
 68 80  1  0  0  0
 71 72  2  0  0  0
 71 74  1  0  0  0
 71143  1  0  0  0
 72 75  1  0  0  0
 72144  1  0  0  0
 73 75  2  0  0  0
 73 76  1  0  0  0
 73145  1  0  0  0
 74 76  2  0  0  0
 74 78  1  0  0  0
 75 82  1  0  0  0
 76 81  1  0  0  0
 77 80  1  0  0  0
 77 82  1  0  0  0
 77 83  2  0  0  0
 78146  1  0  0  0
 78147  1  0  0  0
 78148  1  0  0  0
 79 82  1  0  0  0
 79149  1  0  0  0
 79150  1  0  0  0
 79151  1  0  0  0
 80152  1  0  0  0
 80153  1  0  0  0
 81154  1  0  0  0
M  ISO  4   1 100  68 101  80 101  81 100
M  END
> <chiral flag>
0

> <version>
0

> <s_m_source_file>
/data/baiqing/PycharmProjects/Reinvent-master-3.2/result/LINK_invent/BTK/process_docking_weight1_custom_sum_contain_oxygen_bond_distance_aromatic_linkinvent_7_9_3/rearranged_h_0008.sdf

> <i_m_source_file_index>
3

> <r_mmod_Potential_Energy-OPLS-2005>
918.765747070312

> <r_mmod_Stretch_Energy-OPLS-2005>
375.138214111328

> <r_mmod_Bend_Energy-OPLS-2005>
354.323913574219

> <r_mmod_Torsional_Energy-OPLS-2005>
332.014465332031

> <r_mmod_Improper_Torsional_Energy-OPLS-2005>
6.54196739196777

> <r_mmod_Van_der_Waal_Energy-OPLS-2005>
123.703750610352

> <r_mmod_Electrostatic_Energy-OPLS-2005>
-337.23974609375

> <r_mmod_Solvation_Energy-OPLS-2005>
-229.926559448242

> <b_mmod_Minimization_Converged-OPLS-2005>
0

> <r_mmod_RMS_Derivative-OPLS-2005>
0.84701406955719

$$$$
3
                    3D
 Structure written by MMmdl.
154162  0  0  1  0            999 V2000
  -30.5214  -14.9116   20.4378 C   0  0  0  0  0  0
  -30.4544  -12.5629   19.4923 C   0  0  0  0  0  0
  -29.5253  -12.5336   18.2542 C   0  0  0  0  0  0
  -28.0558  -12.3232   18.6698 C   0  0  0  0  0  0
  -27.6390  -13.2392   19.8492 C   0  0  2  0  0  0
  -28.6845  -13.2173   20.9861 C   0  0  0  0  0  0
  -25.2461  -13.8169   20.5614 C   0  0  0  0  0  0
  -24.1792  -13.0421   20.9224 C   0  0  0  0  0  0
  -24.6408  -11.6909   20.8781 C   0  0  0  0  0  0
  -23.9085  -10.4287   21.0428 C   0  0  0  0  0  0
  -24.3629   -9.4194   21.9199 C   0  0  0  0  0  0
  -23.6294   -8.2234   22.0758 C   0  0  0  0  0  0
  -22.4275   -8.0284   21.3550 C   0  0  0  0  0  0
  -21.9921   -9.0263   20.4653 C   0  0  0  0  0  0
  -22.7261  -10.2137   20.3071 C   0  0  0  0  0  0
  -21.6850   -6.0735   22.5285 C   0  0  0  0  0  0
  -21.4014   -6.5638   23.8220 C   0  0  0  0  0  0
  -21.3660   -5.6790   24.9181 C   0  0  0  0  0  0
  -21.6044   -4.3053   24.7232 C   0  0  0  0  0  0
  -21.8816   -3.8146   23.4352 C   0  0  0  0  0  0
  -21.9190   -4.6962   22.3408 C   0  0  0  0  0  0
  -22.7816  -13.5210   21.1877 C   0  0  0  0  0  0
  -22.1657   -4.2148   21.0985 F   0  0  0  0  0  0
  -21.5628   -3.4539   25.7742 F   0  0  0  0  0  0
  -29.9695  -13.6343   20.4042 N   0  0  0  0  0  0
  -26.2924  -12.9408   20.3266 N   0  0  0  0  0  0
  -25.9347  -11.6550   20.5783 N   0  0  0  0  0  0
  -22.0459  -12.8211   22.0440 N   0  0  0  0  0  0
  -25.4023  -15.1867   20.3812 N   0  0  0  0  0  0
  -31.7087  -15.0350   20.1177 O   0  0  0  0  0  0
  -21.6638   -6.8881   21.4245 O   0  0  0  0  0  0
  -22.3505  -14.5515   20.6711 O   0  0  0  0  0  0
  -24.6426  -31.8458   23.1899 C   0  0  0  0  0  0
  -25.9204  -32.4703   23.8283 C   0  0  1  0  0  0
  -27.2180  -27.1525   20.1451 C   0  0  0  0  0  0
  -25.5954  -33.8508   24.2203 N   0  0  0  0  0  0
  -23.4452  -30.4671   21.5348 C   0  0  2  0  0  0
  -24.8942  -28.8985   20.1105 C   0  0  0  0  0  0
  -22.7565  -29.4557   22.4852 C   0  0  0  0  0  0
  -18.0306  -28.1393   22.8472 C   0  0  0  0  0  0
  -24.1491  -36.7262   23.2642 C   0  0  0  0  0  0
  -26.0010  -30.7252   21.3866 C   0  0  0  0  0  0
  -26.0723  -29.3382   20.7273 C   0  0  0  0  0  0
  -27.2358  -28.4822   20.7265 C   0  0  0  0  0  0
  -26.0104  -26.8120   19.4934 C   0  0  0  0  0  0
  -24.8755  -27.6480   19.4784 C   0  0  0  0  0  0
  -23.6711  -29.7997   20.1529 C   0  0  0  0  0  0
  -25.4120  -36.3033   24.0317 C   0  0  1  0  0  0
  -20.5919  -28.3720   23.1230 C   0  0  2  0  0  0
  -20.6785  -26.9422   22.5398 C   0  0  0  0  0  0
  -19.5758  -26.6379   21.5205 C   0  0  0  0  0  0
  -18.1943  -26.7931   22.1621 C   0  0  0  0  0  0
  -19.1562  -28.8873   23.2847 C   0  0  0  0  0  0
  -18.9480  -30.1470   23.8875 C   0  0  0  0  0  0
  -17.6475  -30.6587   24.0560 C   0  0  0  0  0  0
  -25.9069  -34.9409   23.5066 C   0  0  0  0  0  0
  -16.5368  -29.9082   23.6333 C   0  0  0  0  0  0
  -16.7290  -28.6502   23.0350 C   0  0  0  0  0  0
  -26.4526  -31.6565   25.0720 C   0  0  0  0  0  0
  -25.3720  -31.3751   26.1423 C   0  0  0  0  0  0
  -27.0395  -30.2962   24.6300 C   0  0  0  0  0  0
  -27.6052  -32.4334   25.7510 C   0  0  0  0  0  0
  -27.5574  -37.1787   24.8465 C   0  0  0  0  0  0
  -21.4259  -29.3054   22.3605 N   0  0  0  0  0  0
  -26.4281  -37.3746   23.9409 N   0  0  0  0  0  0
  -24.7160  -31.0331   22.0924 N   0  0  0  0  0  0
  -23.4214  -28.8100   23.2993 O   0  0  0  0  0  0
  -28.2757  -26.1750   20.2068 O   0  0  0  0  0  0
  -26.5654  -34.8903   22.4644 O   0  0  0  0  0  0
  -23.5547  -32.1324   23.7127 O   0  0  0  0  0  0
  -28.1193  -19.5690   21.2017 C   0  0  0  0  0  0
  -30.0554  -19.9649   19.9379 C   0  0  0  0  0  0
  -28.4125  -18.1560   21.2649 C   0  0  0  0  0  0
  -30.3664  -18.5266   19.9696 C   0  0  0  0  0  0
  -29.5456  -17.5318   20.6345 C   0  0  0  0  0  0
  -28.8951  -20.5659   20.5411 C   0  0  0  0  0  0
  -27.4318  -17.3231   22.0794 C   0  0  0  0  0  0
  -31.6116  -18.0713   19.2361 C   0  0  0  0  0  0
  -27.9652  -24.6537   20.1308 C   0  0  0  0  0  0
  -28.9729  -23.3129   20.2760 C   0  0  0  0  0  0
  -29.6535  -15.9987   20.6975 N   0  0  0  0  0  0
  -28.3661  -21.9309   20.5295 O   0  0  0  0  0  0
  -31.4858  -12.7351   19.1798 H   0  0  0  0  0  0
  -30.4543  -11.5982   20.0018 H   0  0  0  0  0  0
  -29.8349  -11.7462   17.5658 H   0  0  0  0  0  0
  -29.6198  -13.4724   17.7063 H   0  0  0  0  0  0
  -27.9432  -11.2783   18.9605 H   0  0  0  0  0  0
  -27.3941  -12.4758   17.8163 H   0  0  0  0  0  0
  -27.6167  -14.2509   19.4445 H   0  0  0  0  0  0
  -28.7621  -12.2213   21.4241 H   0  0  0  0  0  0
  -28.3893  -13.8824   21.7986 H   0  0  0  0  0  0
  -25.2769   -9.5660   22.4781 H   0  0  0  0  0  0
  -23.9996   -7.4619   22.7470 H   0  0  0  0  0  0
  -21.0854   -8.8799   19.8956 H   0  0  0  0  0  0
  -22.3729  -10.9685   19.6186 H   0  0  0  0  0  0
  -21.2009   -7.6146   23.9728 H   0  0  0  0  0  0
  -21.1482   -6.0516   25.9085 H   0  0  0  0  0  0
  -22.0591   -2.7608   23.2856 H   0  0  0  0  0  0
  -22.4076  -11.9881   22.4841 H   0  0  0  0  0  0
  -21.1082  -13.1253   22.2651 H   0  0  0  0  0  0
  -24.6033  -15.8090   20.4313 H   0  0  0  0  0  0
  -26.2012  -15.6097   19.9282 H   0  0  0  0  0  0
  -26.7274  -32.5314   23.1018 H   0  0  0  0  0  0
  -25.0079  -33.9623   25.0333 H   0  0  0  0  0  0
  -22.7470  -31.2927   21.3821 H   0  0  0  0  0  0
  -23.3750  -35.9597   23.3291 H   0  0  0  0  0  0
  -24.3579  -36.8907   22.2060 H   0  0  0  0  0  0
  -23.7250  -37.6456   23.6687 H   0  0  0  0  0  0
  -26.1561  -31.4812   20.6154 H   0  0  0  0  0  0
  -26.8719  -30.7735   22.0287 H   0  0  0  0  0  0
  -28.1337  -28.8152   21.2278 H   0  0  0  0  0  0
  -25.9002  -25.8616   18.9967 H   0  0  0  0  0  0
  -23.9770  -27.3069   18.9825 H   0  0  0  0  0  0
  -23.8089  -30.5760   19.3991 H   0  0  0  0  0  0
  -22.7859  -29.2432   19.8400 H   0  0  0  0  0  0
  -25.1305  -36.1862   25.0808 H   0  0  0  0  0  0
  -21.0014  -28.3309   24.1351 H   0  0  0  0  0  0
  -20.5663  -26.2337   23.3619 H   0  0  0  0  0  0
  -21.6652  -26.7413   22.1207 H   0  0  0  0  0  0
  -19.6914  -25.6285   21.1250 H   0  0  0  0  0  0
  -19.6690  -27.3175   20.6724 H   0  0  0  0  0  0
  -17.4206  -26.6671   21.4033 H   0  0  0  0  0  0
  -18.0347  -26.0082   22.9027 H   0  0  0  0  0  0
  -19.7957  -30.7292   24.2233 H   0  0  0  0  0  0
  -17.5029  -31.6263   24.5169 H   0  0  0  0  0  0
  -15.5367  -30.2974   23.7667 H   0  0  0  0  0  0
  -15.8694  -28.0813   22.7070 H   0  0  0  0  0  0
  -24.5889  -30.7111   25.7746 H   0  0  0  0  0  0
  -24.8924  -32.2935   26.4817 H   0  0  0  0  0  0
  -25.8009  -30.8940   27.0222 H   0  0  0  0  0  0
  -26.3016  -29.6681   24.1298 H   0  0  0  0  0  0
  -27.4000  -29.7262   25.4874 H   0  0  0  0  0  0
  -27.8925  -30.4198   23.9624 H   0  0  0  0  0  0
  -27.2632  -33.3641   26.2049 H   0  0  0  0  0  0
  -28.3885  -32.6888   25.0360 H   0  0  0  0  0  0
  -28.0701  -31.8492   26.5463 H   0  0  0  0  0  0
  -28.2580  -38.0093   24.7504 H   0  0  0  0  0  0
  -28.1078  -36.2620   24.6292 H   0  0  0  0  0  0
  -27.2294  -37.1437   25.8868 H   0  0  0  0  0  0
  -20.9460  -29.8792   21.6812 H   0  0  0  0  0  0
  -26.0148  -38.2812   24.1410 H   0  0  0  0  0  0
  -27.2225  -19.9117   21.6988 H   0  0  0  0  0  0
  -30.7203  -20.6211   19.3945 H   0  0  0  0  0  0
  -26.4105  -17.6666   21.9138 H   0  0  0  0  0  0
  -27.6505  -17.4304   23.1420 H   0  0  0  0  0  0
  -27.4464  -16.2618   21.8444 H   0  0  0  0  0  0
  -32.0686  -18.8849   18.6729 H   0  0  0  0  0  0
  -31.3712  -17.2746   18.5321 H   0  0  0  0  0  0
  -32.3509  -17.6972   19.9448 H   0  0  0  0  0  0
  -27.1858  -24.5043   20.8786 H   0  0  0  0  0  0
  -27.4744  -24.4917   19.1729 H   0  0  0  0  0  0
  -29.6541  -23.4987   21.1062 H   0  0  0  0  0  0
  -29.6043  -23.2509   19.3898 H   0  0  0  0  0  0
  -28.7790  -15.6047   21.0051 H   0  0  0  0  0  0
  1 25  1  0  0  0
  1 30  2  0  0  0
  1 81  1  0  0  0
  2  3  1  0  0  0
  2 25  1  0  0  0
  2 83  1  0  0  0
  2 84  1  0  0  0
  3  4  1  0  0  0
  3 85  1  0  0  0
  3 86  1  0  0  0
  4  5  1  0  0  0
  4 87  1  0  0  0
  4 88  1  0  0  0
  5  6  1  0  0  0
  5 26  1  0  0  0
  5 89  1  0  0  0
  6 25  1  0  0  0
  6 90  1  0  0  0
  6 91  1  0  0  0
  7  8  2  0  0  0
  7 26  1  0  0  0
  7 29  1  0  0  0
  8  9  1  0  0  0
  8 22  1  0  0  0
  9 10  1  0  0  0
  9 27  2  0  0  0
 10 11  2  0  0  0
 10 15  1  0  0  0
 11 12  1  0  0  0
 11 92  1  0  0  0
 12 13  2  0  0  0
 12 93  1  0  0  0
 13 14  1  0  0  0
 13 31  1  0  0  0
 14 15  2  0  0  0
 14 94  1  0  0  0
 15 95  1  0  0  0
 16 17  2  0  0  0
 16 21  1  0  0  0
 16 31  1  0  0  0
 17 18  1  0  0  0
 17 96  1  0  0  0
 18 19  2  0  0  0
 18 97  1  0  0  0
 19 20  1  0  0  0
 19 24  1  0  0  0
 20 21  2  0  0  0
 20 98  1  0  0  0
 21 23  1  0  0  0
 22 28  1  0  0  0
 22 32  2  0  0  0
 26 27  1  0  0  0
 28 99  1  0  0  0
 28100  1  0  0  0
 29101  1  0  0  0
 29102  1  0  0  0
 33 34  1  0  0  0
 33 66  1  0  0  0
 33 70  2  0  0  0
 34 36  1  0  0  0
 34 59  1  0  0  0
 34103  1  0  0  0
 35 44  2  0  0  0
 35 45  1  0  0  0
 35 68  1  0  0  0
 36 56  1  0  0  0
 36104  1  0  0  0
 37 39  1  0  0  0
 37 47  1  0  0  0
 37 66  1  0  0  0
 37105  1  0  0  0
 38 43  2  0  0  0
 38 46  1  0  0  0
 38 47  1  0  0  0
 39 64  1  0  0  0
 39 67  2  0  0  0
 40 52  1  0  0  0
 40 53  2  0  0  0
 40 58  1  0  0  0
 41106  1  0  0  0
 41107  1  0  0  0
 41108  1  0  0  0
 41 48  1  0  0  0
 42 43  1  0  0  0
 42 66  1  0  0  0
 42109  1  0  0  0
 42110  1  0  0  0
 43 44  1  0  0  0
 44111  1  0  0  0
 45 46  2  0  0  0
 45112  1  0  0  0
 46113  1  0  0  0
 47114  1  0  0  0
 47115  1  0  0  0
 48 56  1  0  0  0
 48 65  1  0  0  0
 48116  1  0  0  0
 49 50  1  0  0  0
 49 53  1  0  0  0
 49 64  1  0  0  0
 49117  1  0  0  0
 50 51  1  0  0  0
 50118  1  0  0  0
 50119  1  0  0  0
 51 52  1  0  0  0
 51120  1  0  0  0
 51121  1  0  0  0
 52122  1  0  0  0
 52123  1  0  0  0
 53 54  1  0  0  0
 54 55  2  0  0  0
 54124  1  0  0  0
 55 57  1  0  0  0
 55125  1  0  0  0
 56 69  2  0  0  0
 57 58  2  0  0  0
 57126  1  0  0  0
 58127  1  0  0  0
 59 60  1  0  0  0
 59 61  1  0  0  0
 59 62  1  0  0  0
 60128  1  0  0  0
 60129  1  0  0  0
 60130  1  0  0  0
 61131  1  0  0  0
 61132  1  0  0  0
 61133  1  0  0  0
 62134  1  0  0  0
 62135  1  0  0  0
 62136  1  0  0  0
 63 65  1  0  0  0
 63137  1  0  0  0
 63138  1  0  0  0
 63139  1  0  0  0
 64140  1  0  0  0
 65141  1  0  0  0
 68 79  1  0  0  0
 71 73  2  0  0  0
 71 76  1  0  0  0
 71142  1  0  0  0
 72 74  1  0  0  0
 72 76  2  0  0  0
 72143  1  0  0  0
 73 75  1  0  0  0
 73 77  1  0  0  0
 74 75  2  0  0  0
 74 78  1  0  0  0
 75 81  1  0  0  0
 76 82  1  0  0  0
 77144  1  0  0  0
 77145  1  0  0  0
 77146  1  0  0  0
 78147  1  0  0  0
 78148  1  0  0  0
 78149  1  0  0  0
 79 80  1  0  0  0
 79150  1  0  0  0
 79151  1  0  0  0
 80 82  1  0  0  0
 80152  1  0  0  0
 80153  1  0  0  0
 81154  1  0  0  0
M  ISO  4   1 100  68 101  79 101  81 100
M  END
> <chiral flag>
0

> <version>
0

> <s_m_source_file>
/data/baiqing/PycharmProjects/Reinvent-master-3.2/result/LINK_invent/BTK/process_docking_weight1_custom_sum_contain_oxygen_bond_distance_aromatic_linkinvent_7_9_3/rearranged_h_0008.sdf

> <i_m_source_file_index>
4

> <r_mmod_Potential_Energy-OPLS-2005>
440.882080078125

> <r_mmod_Stretch_Energy-OPLS-2005>
219.512252807617

> <r_mmod_Bend_Energy-OPLS-2005>
306.338348388672

> <r_mmod_Torsional_Energy-OPLS-2005>
217.69140625

> <r_mmod_Improper_Torsional_Energy-OPLS-2005>
4.4046368598938

> <r_mmod_Van_der_Waal_Energy-OPLS-2005>
133.55078125

> <r_mmod_Electrostatic_Energy-OPLS-2005>
-406.874145507812

> <r_mmod_Solvation_Energy-OPLS-2005>
-205.703887939453

> <b_mmod_Minimization_Converged-OPLS-2005>
0

> <r_mmod_RMS_Derivative-OPLS-2005>
0.886530339717865

$$$$
4
                    3D
 Structure written by MMmdl.
152160  0  0  1  0            999 V2000
  -30.5196  -14.9274   20.4328 C   0  0  0  0  0  0
  -30.4560  -12.5734   19.4926 C   0  0  0  0  0  0
  -29.5264  -12.5303   18.2554 C   0  0  0  0  0  0
  -28.0579  -12.3216   18.6740 C   0  0  0  0  0  0
  -27.6412  -13.2413   19.8511 C   0  0  2  0  0  0
  -28.6862  -13.2287   20.9881 C   0  0  0  0  0  0
  -25.2521  -13.8199   20.5727 C   0  0  0  0  0  0
  -24.1810  -13.0429   20.9203 C   0  0  0  0  0  0
  -24.6421  -11.6916   20.8749 C   0  0  0  0  0  0
  -23.9099  -10.4287   21.0411 C   0  0  0  0  0  0
  -24.3640   -9.4201   21.9191 C   0  0  0  0  0  0
  -23.6304   -8.2243   22.0761 C   0  0  0  0  0  0
  -22.4283   -8.0294   21.3553 C   0  0  0  0  0  0
  -21.9928   -9.0270   20.4654 C   0  0  0  0  0  0
  -22.7269  -10.2140   20.3063 C   0  0  0  0  0  0
  -21.6853   -6.0747   22.5283 C   0  0  0  0  0  0
  -21.4013   -6.5650   23.8217 C   0  0  0  0  0  0
  -21.3654   -5.6798   24.9177 C   0  0  0  0  0  0
  -21.6044   -4.3061   24.7223 C   0  0  0  0  0  0
  -21.8818   -3.8157   23.4343 C   0  0  0  0  0  0
  -21.9194   -4.6975   22.3403 C   0  0  0  0  0  0
  -22.7832  -13.5216   21.1859 C   0  0  0  0  0  0
  -22.1664   -4.2165   21.0979 F   0  0  0  0  0  0
  -21.5624   -3.4542   25.7734 F   0  0  0  0  0  0
  -29.9693  -13.6479   20.4030 N   0  0  0  0  0  0
  -26.2957  -12.9421   20.3304 N   0  0  0  0  0  0
  -25.9359  -11.6556   20.5763 N   0  0  0  0  0  0
  -22.0475  -12.8208   22.0419 N   0  0  0  0  0  0
  -25.4184  -15.1923   20.4204 N   0  0  0  0  0  0
  -31.7024  -15.0586   20.0985 O   0  0  0  0  0  0
  -21.6645   -6.8894   21.4246 O   0  0  0  0  0  0
  -22.3514  -14.5520   20.6711 O   0  0  0  0  0  0
  -24.6431  -31.8447   23.1895 C   0  0  0  0  0  0
  -25.9210  -32.4695   23.8276 C   0  0  1  0  0  0
  -27.2213  -27.1420   20.1435 C   0  0  0  0  0  0
  -25.5963  -33.8505   24.2191 N   0  0  0  0  0  0
  -23.4468  -30.4661   21.5338 C   0  0  2  0  0  0
  -24.8975  -28.8974   20.1084 C   0  0  0  0  0  0
  -22.7569  -29.4564   22.4858 C   0  0  0  0  0  0
  -18.0310  -28.1397   22.8488 C   0  0  0  0  0  0
  -24.1488  -36.7244   23.2643 C   0  0  0  0  0  0
  -26.0042  -30.7207   21.3886 C   0  0  0  0  0  0
  -26.0756  -29.3329   20.7284 C   0  0  0  0  0  0
  -27.2379  -28.4719   20.7300 C   0  0  0  0  0  0
  -26.0148  -26.8128   19.4826 C   0  0  0  0  0  0
  -24.8804  -27.6500   19.4701 C   0  0  0  0  0  0
  -23.6727  -29.7975   20.1527 C   0  0  0  0  0  0
  -25.4123  -36.3027   24.0318 C   0  0  1  0  0  0
  -20.5927  -28.3725   23.1235 C   0  0  2  0  0  0
  -20.6793  -26.9425   22.5410 C   0  0  0  0  0  0
  -19.5764  -26.6380   21.5221 C   0  0  0  0  0  0
  -18.1943  -26.7939   22.1628 C   0  0  0  0  0  0
  -19.1570  -28.8878   23.2856 C   0  0  0  0  0  0
  -18.9486  -30.1480   23.8874 C   0  0  0  0  0  0
  -17.6482  -30.6595   24.0565 C   0  0  0  0  0  0
  -25.9075  -34.9409   23.5055 C   0  0  0  0  0  0
  -16.5370  -29.9089   23.6341 C   0  0  0  0  0  0
  -16.7295  -28.6507   23.0359 C   0  0  0  0  0  0
  -26.4531  -31.6555   25.0711 C   0  0  0  0  0  0
  -25.3716  -31.3782   26.1410 C   0  0  0  0  0  0
  -27.0371  -30.2938   24.6298 C   0  0  0  0  0  0
  -27.6074  -32.4311   25.7483 C   0  0  0  0  0  0
  -27.5577  -37.1773   24.8467 C   0  0  0  0  0  0
  -21.4260  -29.3050   22.3601 N   0  0  0  0  0  0
  -26.4284  -37.3741   23.9417 N   0  0  0  0  0  0
  -24.7178  -31.0314   22.0919 N   0  0  0  0  0  0
  -23.4213  -28.8111   23.3007 O   0  0  0  0  0  0
  -28.2658  -26.1449   20.2144 O   0  0  0  0  0  0
  -26.5658  -34.8907   22.4633 O   0  0  0  0  0  0
  -23.5552  -32.1325   23.7114 O   0  0  0  0  0  0
  -30.4859  -18.5225   20.0000 C   0  0  0  0  0  0
  -28.1332  -19.5984   20.9798 C   0  0  0  0  0  0
  -29.5894  -17.5497   20.5789 C   0  0  0  0  0  0
  -28.9958  -20.5820   20.3999 C   0  0  0  0  0  0
  -30.2101  -19.9730   19.8997 C   0  0  0  0  0  0
  -28.4082  -18.1849   21.0688 C   0  0  0  0  0  0
  -28.9406  -23.3622   20.2834 C   0  0  0  0  0  0
  -32.2807  -20.3402   18.7223 C   0  0  0  0  0  0
  -27.9208  -24.6404   20.0002 C   0  0  0  0  0  0
  -28.4778  -22.0222   20.2421 N   0  0  0  0  0  0
  -29.6645  -16.0214   20.7016 N   0  0  0  0  0  0
  -30.1246  -23.6039   20.5320 O   0  0  0  0  0  0
  -31.0721  -20.8481   19.2723 O   0  0  0  0  0  0
  -27.4697  -17.3906   21.6378 F   0  0  0  0  0  0
  -31.4852  -12.7479   19.1747 H   0  0  0  0  0  0
  -30.4635  -11.6097   20.0048 H   0  0  0  0  0  0
  -29.8378  -11.7346   17.5771 H   0  0  0  0  0  0
  -29.6192  -13.4620   17.6957 H   0  0  0  0  0  0
  -27.9472  -11.2773   18.9678 H   0  0  0  0  0  0
  -27.3942  -12.4690   17.8216 H   0  0  0  0  0  0
  -27.6158  -14.2523   19.4439 H   0  0  0  0  0  0
  -28.7672  -12.2369   21.4354 H   0  0  0  0  0  0
  -28.3872  -13.9003   21.7940 H   0  0  0  0  0  0
  -25.2785   -9.5672   22.4769 H   0  0  0  0  0  0
  -24.0010   -7.4634   22.7480 H   0  0  0  0  0  0
  -21.0860   -8.8801   19.8958 H   0  0  0  0  0  0
  -22.3741  -10.9686   19.6175 H   0  0  0  0  0  0
  -21.2005   -7.6160   23.9726 H   0  0  0  0  0  0
  -21.1472   -6.0528   25.9081 H   0  0  0  0  0  0
  -22.0600   -2.7621   23.2839 H   0  0  0  0  0  0
  -22.4091  -11.9865   22.4794 H   0  0  0  0  0  0
  -21.1097  -13.1242   22.2628 H   0  0  0  0  0  0
  -24.6612  -15.8448   20.5879 H   0  0  0  0  0  0
  -26.2855  -15.6528   20.1763 H   0  0  0  0  0  0
  -26.7275  -32.5295   23.1005 H   0  0  0  0  0  0
  -25.0095  -33.9616   25.0330 H   0  0  0  0  0  0
  -22.7491  -31.2926   21.3801 H   0  0  0  0  0  0
  -23.3757  -35.9565   23.3284 H   0  0  0  0  0  0
  -24.3586  -36.8890   22.2063 H   0  0  0  0  0  0
  -23.7225  -37.6430   23.6686 H   0  0  0  0  0  0
  -26.1626  -31.4769   20.6185 H   0  0  0  0  0  0
  -26.8734  -30.7681   22.0329 H   0  0  0  0  0  0
  -28.1335  -28.8025   21.2380 H   0  0  0  0  0  0
  -25.9028  -25.8645   18.9805 H   0  0  0  0  0  0
  -23.9837  -27.3130   18.9681 H   0  0  0  0  0  0
  -23.8056  -30.5720   19.3967 H   0  0  0  0  0  0
  -22.7876  -29.2381   19.8440 H   0  0  0  0  0  0
  -25.1306  -36.1851   25.0810 H   0  0  0  0  0  0
  -21.0034  -28.3313   24.1350 H   0  0  0  0  0  0
  -20.5681  -26.2339   23.3635 H   0  0  0  0  0  0
  -21.6654  -26.7423   22.1204 H   0  0  0  0  0  0
  -19.6922  -25.6285   21.1257 H   0  0  0  0  0  0
  -19.6696  -27.3189   20.6749 H   0  0  0  0  0  0
  -17.4216  -26.6697   21.4026 H   0  0  0  0  0  0
  -18.0335  -26.0090   22.9032 H   0  0  0  0  0  0
  -19.7962  -30.7309   24.2219 H   0  0  0  0  0  0
  -17.5033  -31.6270   24.5169 H   0  0  0  0  0  0
  -15.5368  -30.2978   23.7680 H   0  0  0  0  0  0
  -15.8697  -28.0819   22.7073 H   0  0  0  0  0  0
  -24.5899  -30.7116   25.7746 H   0  0  0  0  0  0
  -24.8908  -32.2983   26.4740 H   0  0  0  0  0  0
  -25.8003  -30.9024   27.0237 H   0  0  0  0  0  0
  -26.2979  -29.6669   24.1299 H   0  0  0  0  0  0
  -27.3954  -29.7233   25.4874 H   0  0  0  0  0  0
  -27.8905  -30.4137   23.9626 H   0  0  0  0  0  0
  -27.2692  -33.3662   26.1957 H   0  0  0  0  0  0
  -28.3941  -32.6778   25.0341 H   0  0  0  0  0  0
  -28.0666  -31.8490   26.5478 H   0  0  0  0  0  0
  -28.2578  -38.0084   24.7518 H   0  0  0  0  0  0
  -28.1082  -36.2611   24.6273 H   0  0  0  0  0  0
  -27.2305  -37.1399   25.8873 H   0  0  0  0  0  0
  -20.9467  -29.8756   21.6779 H   0  0  0  0  0  0
  -26.0142  -38.2800   24.1436 H   0  0  0  0  0  0
  -31.4019  -18.1224   19.5933 H   0  0  0  0  0  0
  -27.1826  -19.9297   21.3702 H   0  0  0  0  0  0
  -32.8222  -21.1500   18.2333 H   0  0  0  0  0  0
  -32.0938  -19.5748   17.9680 H   0  0  0  0  0  0
  -32.9312  -19.9344   19.4977 H   0  0  0  0  0  0
  -27.0162  -24.4297   20.5710 H   0  0  0  0  0  0
  -27.6455  -24.5340   18.9510 H   0  0  0  0  0  0
  -27.4741  -22.0354   20.1242 H   0  0  0  0  0  0
  -28.7838  -15.6664   21.0436 H   0  0  0  0  0  0
  1 25  1  0  0  0
  1 30  2  0  0  0
  1 81  1  0  0  0
  2  3  1  0  0  0
  2 25  1  0  0  0
  2 85  1  0  0  0
  2 86  1  0  0  0
  3  4  1  0  0  0
  3 87  1  0  0  0
  3 88  1  0  0  0
  4  5  1  0  0  0
  4 89  1  0  0  0
  4 90  1  0  0  0
  5  6  1  0  0  0
  5 26  1  0  0  0
  5 91  1  0  0  0
  6 25  1  0  0  0
  6 92  1  0  0  0
  6 93  1  0  0  0
  7  8  2  0  0  0
  7 26  1  0  0  0
  7 29  1  0  0  0
  8  9  1  0  0  0
  8 22  1  0  0  0
  9 10  1  0  0  0
  9 27  2  0  0  0
 10 11  2  0  0  0
 10 15  1  0  0  0
 11 12  1  0  0  0
 11 94  1  0  0  0
 12 13  2  0  0  0
 12 95  1  0  0  0
 13 14  1  0  0  0
 13 31  1  0  0  0
 14 15  2  0  0  0
 14 96  1  0  0  0
 15 97  1  0  0  0
 16 17  2  0  0  0
 16 21  1  0  0  0
 16 31  1  0  0  0
 17 18  1  0  0  0
 17 98  1  0  0  0
 18 19  2  0  0  0
 18 99  1  0  0  0
 19 20  1  0  0  0
 19 24  1  0  0  0
 20 21  2  0  0  0
 20100  1  0  0  0
 21 23  1  0  0  0
 22 28  1  0  0  0
 22 32  2  0  0  0
 26 27  1  0  0  0
 28101  1  0  0  0
 28102  1  0  0  0
 29103  1  0  0  0
 29104  1  0  0  0
 33 34  1  0  0  0
 33 66  1  0  0  0
 33 70  2  0  0  0
 34 36  1  0  0  0
 34 59  1  0  0  0
 34105  1  0  0  0
 35 44  2  0  0  0
 35 45  1  0  0  0
 35 68  1  0  0  0
 36 56  1  0  0  0
 36106  1  0  0  0
 37 39  1  0  0  0
 37 47  1  0  0  0
 37 66  1  0  0  0
 37107  1  0  0  0
 38 43  2  0  0  0
 38 46  1  0  0  0
 38 47  1  0  0  0
 39 64  1  0  0  0
 39 67  2  0  0  0
 40 52  1  0  0  0
 40 53  2  0  0  0
 40 58  1  0  0  0
 41108  1  0  0  0
 41109  1  0  0  0
 41110  1  0  0  0
 41 48  1  0  0  0
 42 43  1  0  0  0
 42 66  1  0  0  0
 42111  1  0  0  0
 42112  1  0  0  0
 43 44  1  0  0  0
 44113  1  0  0  0
 45 46  2  0  0  0
 45114  1  0  0  0
 46115  1  0  0  0
 47116  1  0  0  0
 47117  1  0  0  0
 48 56  1  0  0  0
 48 65  1  0  0  0
 48118  1  0  0  0
 49 50  1  0  0  0
 49 53  1  0  0  0
 49 64  1  0  0  0
 49119  1  0  0  0
 50 51  1  0  0  0
 50120  1  0  0  0
 50121  1  0  0  0
 51 52  1  0  0  0
 51122  1  0  0  0
 51123  1  0  0  0
 52124  1  0  0  0
 52125  1  0  0  0
 53 54  1  0  0  0
 54 55  2  0  0  0
 54126  1  0  0  0
 55 57  1  0  0  0
 55127  1  0  0  0
 56 69  2  0  0  0
 57 58  2  0  0  0
 57128  1  0  0  0
 58129  1  0  0  0
 59 60  1  0  0  0
 59 61  1  0  0  0
 59 62  1  0  0  0
 60130  1  0  0  0
 60131  1  0  0  0
 60132  1  0  0  0
 61133  1  0  0  0
 61134  1  0  0  0
 61135  1  0  0  0
 62136  1  0  0  0
 62137  1  0  0  0
 62138  1  0  0  0
 63 65  1  0  0  0
 63139  1  0  0  0
 63140  1  0  0  0
 63141  1  0  0  0
 64142  1  0  0  0
 65143  1  0  0  0
 68 79  1  0  0  0
 71 73  2  0  0  0
 71 75  1  0  0  0
 71144  1  0  0  0
 72 74  1  0  0  0
 72 76  2  0  0  0
 72145  1  0  0  0
 73 76  1  0  0  0
 73 81  1  0  0  0
 74 75  2  0  0  0
 74 80  1  0  0  0
 75 83  1  0  0  0
 76 84  1  0  0  0
 77 79  1  0  0  0
 77 80  1  0  0  0
 77 82  2  0  0  0
 78 83  1  0  0  0
 78146  1  0  0  0
 78147  1  0  0  0
 78148  1  0  0  0
 79149  1  0  0  0
 79150  1  0  0  0
 80151  1  0  0  0
 81152  1  0  0  0
M  ISO  4   1 100  68 101  79 101  81 100
M  END
> <chiral flag>
0

> <version>
0

> <s_m_source_file>
/data/baiqing/PycharmProjects/Reinvent-master-3.2/result/LINK_invent/BTK/process_docking_weight1_custom_sum_contain_oxygen_bond_distance_aromatic_linkinvent_7_9_3/rearranged_h_0008.sdf

> <i_m_source_file_index>
5

> <r_mmod_Potential_Energy-OPLS-2005>
385.115386962891

> <r_mmod_Stretch_Energy-OPLS-2005>
225.741409301758

> <r_mmod_Bend_Energy-OPLS-2005>
283.191192626953

> <r_mmod_Torsional_Energy-OPLS-2005>
228.205810546875

> <r_mmod_Improper_Torsional_Energy-OPLS-2005>
4.08434200286865

> <r_mmod_Van_der_Waal_Energy-OPLS-2005>
134.228637695312

> <r_mmod_Electrostatic_Energy-OPLS-2005>
-419.634246826172

> <r_mmod_Solvation_Energy-OPLS-2005>
-254.935455322266

> <b_mmod_Minimization_Converged-OPLS-2005>
0

> <r_mmod_RMS_Derivative-OPLS-2005>
1.34734869003296

$$$$
5
                    3D
 Structure written by MMmdl.
201209  0  0  1  0            999 V2000
  -30.7459  -14.5036   20.5371 C   0  0  0  0  0  0
  -30.4093  -12.3164   19.4391 C   0  0  0  0  0  0
  -29.4943  -12.5036   18.2124 C   0  0  0  0  0  0
  -28.0225  -12.3467   18.6306 C   0  0  0  0  0  0
  -27.6568  -13.2161   19.8616 C   0  0  2  0  0  0
  -28.6987  -13.0727   20.9967 C   0  0  0  0  0  0
  -25.2556  -13.8163   20.5637 C   0  0  0  0  0  0
  -24.1834  -13.0448   20.9135 C   0  0  0  0  0  0
  -24.6393  -11.6903   20.8704 C   0  0  0  0  0  0
  -23.9071  -10.4298   21.0415 C   0  0  0  0  0  0
  -24.3617   -9.4217   21.9202 C   0  0  0  0  0  0
  -23.6289   -8.2258   22.0773 C   0  0  0  0  0  0
  -22.4277   -8.0290   21.3558 C   0  0  0  0  0  0
  -21.9906   -9.0267   20.4664 C   0  0  0  0  0  0
  -22.7241  -10.2154   20.3062 C   0  0  0  0  0  0
  -21.6839   -6.0731   22.5271 C   0  0  0  0  0  0
  -21.4032   -6.5638   23.8212 C   0  0  0  0  0  0
  -21.3665   -5.6793   24.9168 C   0  0  0  0  0  0
  -21.6024   -4.3045   24.7224 C   0  0  0  0  0  0
  -21.8828   -3.8141   23.4348 C   0  0  0  0  0  0
  -21.9209   -4.6956   22.3405 C   0  0  0  0  0  0
  -22.7852  -13.5255   21.1824 C   0  0  0  0  0  0
  -22.1660   -4.2152   21.0970 F   0  0  0  0  0  0
  -21.5638   -3.4525   25.7736 F   0  0  0  0  0  0
  -30.0298  -13.3437   20.4322 N   0  0  0  0  0  0
  -26.3008  -12.9365   20.3288 N   0  0  0  0  0  0
  -25.9341  -11.6527   20.5767 N   0  0  0  0  0  0
  -22.0452  -12.8274   22.0346 N   0  0  0  0  0  0
  -25.4273  -15.1914   20.4069 N   0  0  0  0  0  0
  -31.8569  -14.6183   20.0270 O   0  0  0  0  0  0
  -21.6638   -6.8885   21.4253 O   0  0  0  0  0  0
  -22.3552  -14.5561   20.6660 O   0  0  0  0  0  0
  -24.6190  -31.8642   23.2084 C   0  0  0  0  0  0
  -25.9063  -32.4826   23.8365 C   0  0  1  0  0  0
  -27.2184  -27.3725   20.1003 C   0  0  0  0  0  0
  -25.5899  -33.8631   24.2279 N   0  0  0  0  0  0
  -23.4091  -30.4867   21.5527 C   0  0  2  0  0  0
  -24.8517  -28.9517   20.1156 C   0  0  0  0  0  0
  -22.7443  -29.4622   22.4987 C   0  0  0  0  0  0
  -18.0293  -28.1386   22.8551 C   0  0  0  0  0  0
  -24.1473  -36.7336   23.2649 C   0  0  0  0  0  0
  -25.9440  -30.8076   21.3742 C   0  0  0  0  0  0
  -26.0184  -29.4398   20.7197 C   0  0  0  0  0  0
  -27.2020  -28.6554   20.7168 C   0  0  0  0  0  0
  -26.0247  -26.9210   19.4854 C   0  0  0  0  0  0
  -24.8529  -27.6933   19.4987 C   0  0  0  0  0  0
  -23.6202  -29.8276   20.1659 C   0  0  0  0  0  0
  -25.4112  -36.3124   24.0345 C   0  0  1  0  0  0
  -20.5891  -28.3660   23.1355 C   0  0  2  0  0  0
  -20.6780  -26.9396   22.5439 C   0  0  0  0  0  0
  -19.5746  -26.6391   21.5257 C   0  0  0  0  0  0
  -18.1923  -26.7926   22.1668 C   0  0  0  0  0  0
  -19.1552  -28.8847   23.2952 C   0  0  0  0  0  0
  -18.9464  -30.1456   23.8940 C   0  0  0  0  0  0
  -17.6475  -30.6602   24.0565 C   0  0  0  0  0  0
  -25.9061  -34.9492   23.5117 C   0  0  0  0  0  0
  -16.5362  -29.9090   23.6378 C   0  0  0  0  0  0
  -16.7285  -28.6505   23.0411 C   0  0  0  0  0  0
  -26.4440  -31.6620   25.0725 C   0  0  0  0  0  0
  -25.3665  -31.3791   26.1450 C   0  0  0  0  0  0
  -27.0259  -30.3047   24.6158 C   0  0  0  0  0  0
  -27.6000  -32.4318   25.7512 C   0  0  0  0  0  0
  -27.5583  -37.1818   24.8467 C   0  0  0  0  0  0
  -21.4165  -29.3015   22.3754 N   0  0  0  0  0  0
  -26.4289  -37.3826   23.9443 N   0  0  0  0  0  0
  -24.6763  -31.0657   22.1049 N   0  0  0  0  0  0
  -23.4169  -28.8218   23.3102 O   0  0  0  0  0  0
  -28.3659  -26.5811   20.1249 O   0  0  0  0  0  0
  -26.5635  -34.8945   22.4677 O   0  0  0  0  0  0
  -23.5376  -32.1402   23.7463 O   0  0  0  0  0  0
  -32.3125  -18.5121   22.2530 C   0  0  0  0  0  0
  -31.7456  -19.5692   21.5211 C   0  0  0  0  0  0
  -30.1661  -18.0090   20.5214 C   0  0  0  0  0  0
  -31.8885  -17.1767   22.0707 C   0  0  0  0  0  0
  -30.6987  -19.3390   20.6073 C   0  0  0  0  0  0
  -30.7405  -16.9078   21.2472 C   0  0  0  0  0  0
  -32.7892  -16.1466   22.6454 C   0  0  0  0  0  0
  -34.5616  -16.1342   20.8046 C   0  0  0  0  0  0
  -29.6657  -21.5417   20.2633 C   0  0  0  0  0  0
  -33.9524  -17.1755   19.8618 C   0  0  0  0  0  0
  -30.4919  -23.3795   14.5309 C   0  0  0  0  0  0
  -30.1188  -21.0545   13.8475 C   0  0  0  0  0  0
  -28.8541  -17.3704   28.1392 C   0  0  0  0  0  0
  -29.4516  -18.9956   26.4102 C   0  0  0  0  0  0
  -29.4106  -22.8438   19.4248 C   0  0  0  0  0  0
  -29.4091  -24.2361   20.1574 C   0  0  0  0  0  0
  -30.3088  -20.7423   17.1664 C   0  0  0  0  0  0
  -31.8239  -17.0727   25.6928 C   0  0  0  0  0  0
  -31.1146  -20.5569   18.4871 C   0  0  0  0  0  0
  -31.4782  -15.8422   24.8310 C   0  0  0  0  0  0
  -31.0781  -21.5451   16.0821 C   0  0  0  0  0  0
  -31.0475  -17.2022   27.0274 C   0  0  0  0  0  0
  -28.2106  -25.1702   19.7972 C   0  0  0  0  0  0
  -30.1642  -15.5774   21.1266 N   0  0  0  0  0  0
  -33.9426  -15.7512   22.0511 N   0  0  0  0  0  0
  -30.3247  -20.4475   19.7425 N   0  0  0  0  0  0
  -32.5358  -15.5683   23.8425 N   0  3  0  0  0  0
  -30.1895  -22.0026   14.9803 N   0  3  0  0  0  0
  -29.6211  -17.6049   26.8928 N   0  3  0  0  0  0
  -35.6359  -15.6008   20.5161 O   0  0  0  0  0  0
  -29.1901  -21.5091   21.4015 O   0  0  0  0  0  0
  -31.4591  -12.3695   19.1437 H   0  0  0  0  0  0
  -30.2705  -11.3194   19.8629 H   0  0  0  0  0  0
  -29.7394  -11.7835   17.4294 H   0  0  0  0  0  0
  -29.6537  -13.4922   17.7753 H   0  0  0  0  0  0
  -27.8559  -11.2930   18.8595 H   0  0  0  0  0  0
  -27.3662  -12.5850   17.7931 H   0  0  0  0  0  0
  -27.6826  -14.2510   19.5199 H   0  0  0  0  0  0
  -28.6733  -12.0641   21.4103 H   0  0  0  0  0  0
  -28.4580  -13.7417   21.8243 H   0  0  0  0  0  0
  -25.2776   -9.5677   22.4759 H   0  0  0  0  0  0
  -23.9984   -7.4650   22.7501 H   0  0  0  0  0  0
  -21.0816   -8.8812   19.8961 H   0  0  0  0  0  0
  -22.3717  -10.9703   19.6151 H   0  0  0  0  0  0
  -21.2018   -7.6148   23.9713 H   0  0  0  0  0  0
  -21.1461   -6.0512   25.9074 H   0  0  0  0  0  0
  -22.0596   -2.7606   23.2833 H   0  0  0  0  0  0
  -22.4043  -11.9948   22.4789 H   0  0  0  0  0  0
  -21.1089  -13.1382   22.2543 H   0  0  0  0  0  0
  -24.6538  -15.8386   20.4976 H   0  0  0  0  0  0
  -26.2815  -15.6347   20.0958 H   0  0  0  0  0  0
  -26.7167  -32.5505   23.1162 H   0  0  0  0  0  0
  -24.9841  -33.9761   25.0289 H   0  0  0  0  0  0
  -22.7037  -31.3119   21.4171 H   0  0  0  0  0  0
  -23.3741  -35.9657   23.3302 H   0  0  0  0  0  0
  -24.3534  -36.8930   22.2048 H   0  0  0  0  0  0
  -23.7215  -37.6552   23.6659 H   0  0  0  0  0  0
  -26.0577  -31.5725   20.6039 H   0  0  0  0  0  0
  -26.8327  -30.8600   21.9905 H   0  0  0  0  0  0
  -28.0886  -29.0105   21.2252 H   0  0  0  0  0  0
  -25.9572  -25.9591   18.9986 H   0  0  0  0  0  0
  -23.9563  -27.3108   19.0296 H   0  0  0  0  0  0
  -23.7398  -30.6090   19.4121 H   0  0  0  0  0  0
  -22.7385  -29.2533   19.8701 H   0  0  0  0  0  0
  -25.1290  -36.1966   25.0841 H   0  0  0  0  0  0
  -20.9964  -28.3154   24.1493 H   0  0  0  0  0  0
  -20.5756  -26.2213   23.3585 H   0  0  0  0  0  0
  -21.6637  -26.7470   22.1209 H   0  0  0  0  0  0
  -19.6883  -25.6327   21.1242 H   0  0  0  0  0  0
  -19.6688  -27.3247   20.6834 H   0  0  0  0  0  0
  -17.4210  -26.6758   21.4042 H   0  0  0  0  0  0
  -18.0300  -26.0049   22.9056 H   0  0  0  0  0  0
  -19.7948  -30.7291   24.2266 H   0  0  0  0  0  0
  -17.5047  -31.6315   24.5130 H   0  0  0  0  0  0
  -15.5365  -30.3007   23.7714 H   0  0  0  0  0  0
  -15.8678  -28.0823   22.7122 H   0  0  0  0  0  0
  -24.5844  -30.7142   25.7782 H   0  0  0  0  0  0
  -24.8882  -32.2971   26.4854 H   0  0  0  0  0  0
  -25.7947  -30.8987   27.0237 H   0  0  0  0  0  0
  -26.2819  -29.6874   24.1122 H   0  0  0  0  0  0
  -27.3870  -29.7257   25.4654 H   0  0  0  0  0  0
  -27.8725  -30.4348   23.9424 H   0  0  0  0  0  0
  -27.2616  -33.3593   26.2135 H   0  0  0  0  0  0
  -28.3806  -32.6873   25.0344 H   0  0  0  0  0  0
  -28.0681  -31.8417   26.5382 H   0  0  0  0  0  0
  -28.2597  -38.0111   24.7533 H   0  0  0  0  0  0
  -28.1046  -36.2641   24.6263 H   0  0  0  0  0  0
  -27.2303  -37.1477   25.8861 H   0  0  0  0  0  0
  -20.9313  -29.8626   21.6899 H   0  0  0  0  0  0
  -26.0166  -38.2907   24.1433 H   0  0  0  0  0  0
  -33.1618  -18.7319   22.8883 H   0  0  0  0  0  0
  -32.1626  -20.5625   21.6089 H   0  0  0  0  0  0
  -29.3442  -17.8234   19.8459 H   0  0  0  0  0  0
  -32.9512  -16.9065   19.5341 H   0  0  0  0  0  0
  -34.5644  -17.2530   18.9638 H   0  0  0  0  0  0
  -33.9508  -18.1666   20.3085 H   0  0  0  0  0  0
  -29.8255  -23.6884   13.7250 H   0  0  0  0  0  0
  -31.5182  -23.4615   14.1725 H   0  0  0  0  0  0
  -30.3579  -24.0891   15.3470 H   0  0  0  0  0  0
  -29.3692  -21.3732   13.1231 H   0  0  0  0  0  0
  -29.8445  -20.0573   14.1871 H   0  0  0  0  0  0
  -31.0746  -20.9865   13.3275 H   0  0  0  0  0  0
  -27.7985  -17.6044   27.9943 H   0  0  0  0  0  0
  -29.2255  -17.9883   28.9567 H   0  0  0  0  0  0
  -28.9072  -16.3283   28.4540 H   0  0  0  0  0  0
  -28.3952  -19.2575   26.3423 H   0  0  0  0  0  0
  -29.8755  -19.1353   25.4178 H   0  0  0  0  0  0
  -29.9319  -19.7074   27.0821 H   0  0  0  0  0  0
  -28.4371  -22.6974   18.9561 H   0  0  0  0  0  0
  -30.1169  -22.9419   18.6045 H   0  0  0  0  0  0
  -30.3339  -24.7530   19.8938 H   0  0  0  0  0  0
  -29.4321  -24.1188   21.2399 H   0  0  0  0  0  0
  -29.3664  -21.2481   17.3522 H   0  0  0  0  0  0
  -30.0233  -19.7686   16.7690 H   0  0  0  0  0  0
  -31.7139  -17.9743   25.0912 H   0  0  0  0  0  0
  -32.8875  -17.0289   25.9342 H   0  0  0  0  0  0
  -31.8321  -21.3711   18.6093 H   0  0  0  0  0  0
  -31.7435  -19.6714   18.3739 H   0  0  0  0  0  0
  -30.4950  -15.9275   24.3654 H   0  0  0  0  0  0
  -31.4354  -14.9601   25.4770 H   0  0  0  0  0  0
  -31.9184  -20.9775   15.6751 H   0  0  0  0  0  0
  -31.5260  -22.4262   16.5469 H   0  0  0  0  0  0
  -31.5519  -17.9354   27.6589 H   0  0  0  0  0  0
  -31.1176  -16.2613   27.5744 H   0  0  0  0  0  0
  -27.3473  -24.7672   20.3265 H   0  0  0  0  0  0
  -27.9947  -25.0785   18.7319 H   0  0  0  0  0  0
  -29.2127  -15.4486   21.4416 H   0  0  0  0  0  0
  -34.4255  -15.0581   22.5942 H   0  0  0  0  0  0
  -33.1975  -14.8821   24.1849 H   0  0  0  0  0  0
  -29.2573  -22.0534   15.3584 H   0  0  0  0  0  0
  -29.1877  -17.0023   26.2109 H   0  0  0  0  0  0
  1 25  1  0  0  0
  1 30  2  0  0  0
  1 94  1  0  0  0
  2  3  1  0  0  0
  2 25  1  0  0  0
  2102  1  0  0  0
  2103  1  0  0  0
  3  4  1  0  0  0
  3104  1  0  0  0
  3105  1  0  0  0
  4  5  1  0  0  0
  4106  1  0  0  0
  4107  1  0  0  0
  5  6  1  0  0  0
  5 26  1  0  0  0
  5108  1  0  0  0
  6 25  1  0  0  0
  6109  1  0  0  0
  6110  1  0  0  0
  7  8  2  0  0  0
  7 26  1  0  0  0
  7 29  1  0  0  0
  8  9  1  0  0  0
  8 22  1  0  0  0
  9 10  1  0  0  0
  9 27  2  0  0  0
 10 11  2  0  0  0
 10 15  1  0  0  0
 11 12  1  0  0  0
 11111  1  0  0  0
 12 13  2  0  0  0
 12112  1  0  0  0
 13 14  1  0  0  0
 13 31  1  0  0  0
 14 15  2  0  0  0
 14113  1  0  0  0
 15114  1  0  0  0
 16 17  2  0  0  0
 16 21  1  0  0  0
 16 31  1  0  0  0
 17 18  1  0  0  0
 17115  1  0  0  0
 18 19  2  0  0  0
 18116  1  0  0  0
 19 20  1  0  0  0
 19 24  1  0  0  0
 20 21  2  0  0  0
 20117  1  0  0  0
 21 23  1  0  0  0
 22 28  1  0  0  0
 22 32  2  0  0  0
 26 27  1  0  0  0
 28118  1  0  0  0
 28119  1  0  0  0
 29120  1  0  0  0
 29121  1  0  0  0
 33 34  1  0  0  0
 33 66  1  0  0  0
 33 70  2  0  0  0
 34 36  1  0  0  0
 34 59  1  0  0  0
 34122  1  0  0  0
 35 44  2  0  0  0
 35 45  1  0  0  0
 35 68  1  0  0  0
 36 56  1  0  0  0
 36123  1  0  0  0
 37 39  1  0  0  0
 37 47  1  0  0  0
 37 66  1  0  0  0
 37124  1  0  0  0
 38 43  2  0  0  0
 38 46  1  0  0  0
 38 47  1  0  0  0
 39 64  1  0  0  0
 39 67  2  0  0  0
 40 52  1  0  0  0
 40 53  2  0  0  0
 40 58  1  0  0  0
 41125  1  0  0  0
 41126  1  0  0  0
 41127  1  0  0  0
 41 48  1  0  0  0
 42 43  1  0  0  0
 42 66  1  0  0  0
 42128  1  0  0  0
 42129  1  0  0  0
 43 44  1  0  0  0
 44130  1  0  0  0
 45 46  2  0  0  0
 45131  1  0  0  0
 46132  1  0  0  0
 47133  1  0  0  0
 47134  1  0  0  0
 48 56  1  0  0  0
 48 65  1  0  0  0
 48135  1  0  0  0
 49 50  1  0  0  0
 49 53  1  0  0  0
 49 64  1  0  0  0
 49136  1  0  0  0
 50 51  1  0  0  0
 50137  1  0  0  0
 50138  1  0  0  0
 51 52  1  0  0  0
 51139  1  0  0  0
 51140  1  0  0  0
 52141  1  0  0  0
 52142  1  0  0  0
 53 54  1  0  0  0
 54 55  2  0  0  0
 54143  1  0  0  0
 55 57  1  0  0  0
 55144  1  0  0  0
 56 69  2  0  0  0
 57 58  2  0  0  0
 57145  1  0  0  0
 58146  1  0  0  0
 59 60  1  0  0  0
 59 61  1  0  0  0
 59 62  1  0  0  0
 60147  1  0  0  0
 60148  1  0  0  0
 60149  1  0  0  0
 61150  1  0  0  0
 61151  1  0  0  0
 61152  1  0  0  0
 62153  1  0  0  0
 62154  1  0  0  0
 62155  1  0  0  0
 63 65  1  0  0  0
 63156  1  0  0  0
 63157  1  0  0  0
 63158  1  0  0  0
 64159  1  0  0  0
 65160  1  0  0  0
 68 93  1  0  0  0
 71 72  2  0  0  0
 71 74  1  0  0  0
 71161  1  0  0  0
 72 75  1  0  0  0
 72162  1  0  0  0
 73 75  2  0  0  0
 73 76  1  0  0  0
 73163  1  0  0  0
 74 76  2  0  0  0
 74 77  1  0  0  0
 75 96  1  0  0  0
 76 94  1  0  0  0
 77 95  1  0  0  0
 77 97  2  0  0  0
 78 80  1  0  0  0
 78 95  1  0  0  0
 78100  2  0  0  0
 79 85  1  0  0  0
 79 96  1  0  0  0
 79101  2  0  0  0
 80164  1  0  0  0
 80165  1  0  0  0
 80166  1  0  0  0
 81167  1  0  0  0
 81168  1  0  0  0
 81169  1  0  0  0
 81 98  1  0  0  0
 82 98  1  0  0  0
 82170  1  0  0  0
 82171  1  0  0  0
 82172  1  0  0  0
 83173  1  0  0  0
 83174  1  0  0  0
 83175  1  0  0  0
 83 99  1  0  0  0
 84 99  1  0  0  0
 84176  1  0  0  0
 84177  1  0  0  0
 84178  1  0  0  0
 85 86  1  0  0  0
 85179  1  0  0  0
 85180  1  0  0  0
 86 93  1  0  0  0
 86181  1  0  0  0
 86182  1  0  0  0
 87 89  1  0  0  0
 87 91  1  0  0  0
 87183  1  0  0  0
 87184  1  0  0  0
 88 90  1  0  0  0
 88 92  1  0  0  0
 88185  1  0  0  0
 88186  1  0  0  0
 89 96  1  0  0  0
 89187  1  0  0  0
 89188  1  0  0  0
 90 97  1  0  0  0
 90189  1  0  0  0
 90190  1  0  0  0
 91 98  1  0  0  0
 91191  1  0  0  0
 91192  1  0  0  0
 92 99  1  0  0  0
 92193  1  0  0  0
 92194  1  0  0  0
 93195  1  0  0  0
 93196  1  0  0  0
 94197  1  0  0  0
 95198  1  0  0  0
 97199  1  0  0  0
 98200  1  0  0  0
 99201  1  0  0  0
M  CHG  3  97   1  98   1  99   1
M  ISO  4   1 100  68 101  93 101  94 100
M  END
> <chiral flag>
0

> <version>
0

> <s_m_source_file>
/data/baiqing/PycharmProjects/Reinvent-master-3.2/result/LINK_invent/BTK/process_docking_weight1_custom_sum_contain_oxygen_bond_distance_aromatic_linkinvent_7_9_3/rearranged_h_0008.sdf

> <i_m_source_file_index>
6

> <r_mmod_Potential_Energy-OPLS-2005>
-195.187347412109

> <r_mmod_Stretch_Energy-OPLS-2005>
73.6401748657227

> <r_mmod_Bend_Energy-OPLS-2005>
180.345596313477

> <r_mmod_Torsional_Energy-OPLS-2005>
366.029754638672

> <r_mmod_Improper_Torsional_Energy-OPLS-2005>
5.48429584503174

> <r_mmod_Van_der_Waal_Energy-OPLS-2005>
159.991088867188

> <r_mmod_Electrostatic_Energy-OPLS-2005>
437.567047119141

> <r_mmod_Solvation_Energy-OPLS-2005>
-1442.37902832031

> <b_mmod_Minimization_Converged-OPLS-2005>
0

> <r_mmod_RMS_Derivative-OPLS-2005>
5.71769618988037

$$$$
6
                    3D
 Structure written by MMmdl.
154162  0  0  1  0            999 V2000
  -30.5206  -14.9223   20.4505 C   0  0  0  0  0  0
  -30.4543  -12.5719   19.4979 C   0  0  0  0  0  0
  -29.5274  -12.5378   18.2578 C   0  0  0  0  0  0
  -28.0588  -12.3221   18.6729 C   0  0  0  0  0  0
  -27.6400  -13.2398   19.8500 C   0  0  2  0  0  0
  -28.6829  -13.2227   20.9897 C   0  0  0  0  0  0
  -25.2483  -13.8172   20.5653 C   0  0  0  0  0  0
  -24.1797  -13.0422   20.9211 C   0  0  0  0  0  0
  -24.6411  -11.6908   20.8767 C   0  0  0  0  0  0
  -23.9085  -10.4288   21.0419 C   0  0  0  0  0  0
  -24.3630   -9.4201   21.9196 C   0  0  0  0  0  0
  -23.6297   -8.2242   22.0763 C   0  0  0  0  0  0
  -22.4281   -8.0289   21.3549 C   0  0  0  0  0  0
  -21.9923   -9.0263   20.4652 C   0  0  0  0  0  0
  -22.7259  -10.2133   20.3065 C   0  0  0  0  0  0
  -21.6847   -6.0743   22.5283 C   0  0  0  0  0  0
  -21.4010   -6.5642   23.8216 C   0  0  0  0  0  0
  -21.3660   -5.6793   24.9176 C   0  0  0  0  0  0
  -21.6039   -4.3055   24.7222 C   0  0  0  0  0  0
  -21.8817   -3.8149   23.4342 C   0  0  0  0  0  0
  -21.9191   -4.6972   22.3401 C   0  0  0  0  0  0
  -22.7819  -13.5209   21.1862 C   0  0  0  0  0  0
  -22.1657   -4.2158   21.0978 F   0  0  0  0  0  0
  -21.5629   -3.4540   25.7729 F   0  0  0  0  0  0
  -29.9687  -13.6430   20.4121 N   0  0  0  0  0  0
  -26.2936  -12.9408   20.3273 N   0  0  0  0  0  0
  -25.9350  -11.6544   20.5771 N   0  0  0  0  0  0
  -22.0455  -12.8212   22.0423 N   0  0  0  0  0  0
  -25.4097  -15.1886   20.3946 N   0  0  0  0  0  0
  -31.6979  -15.0572   20.0974 O   0  0  0  0  0  0
  -21.6636   -6.8887   21.4246 O   0  0  0  0  0  0
  -22.3512  -14.5514   20.6708 O   0  0  0  0  0  0
  -24.6438  -31.8436   23.1885 C   0  0  0  0  0  0
  -25.9208  -32.4695   23.8280 C   0  0  1  0  0  0
  -27.2228  -27.1389   20.1477 C   0  0  0  0  0  0
  -25.5966  -33.8500   24.2207 N   0  0  0  0  0  0
  -23.4481  -30.4643   21.5336 C   0  0  2  0  0  0
  -24.8998  -28.8933   20.1103 C   0  0  0  0  0  0
  -22.7583  -29.4543   22.4855 C   0  0  0  0  0  0
  -18.0308  -28.1389   22.8486 C   0  0  0  0  0  0
  -24.1491  -36.7242   23.2645 C   0  0  0  0  0  0
  -26.0045  -30.7197   21.3871 C   0  0  0  0  0  0
  -26.0776  -29.3311   20.7296 C   0  0  0  0  0  0
  -27.2399  -28.4697   20.7328 C   0  0  0  0  0  0
  -26.0167  -26.8084   19.4863 C   0  0  0  0  0  0
  -24.8822  -27.6452   19.4741 C   0  0  0  0  0  0
  -23.6756  -29.7933   20.1530 C   0  0  0  0  0  0
  -25.4120  -36.3022   24.0325 C   0  0  1  0  0  0
  -20.5927  -28.3710   23.1234 C   0  0  2  0  0  0
  -20.6790  -26.9414   22.5397 C   0  0  0  0  0  0
  -19.5757  -26.6371   21.5211 C   0  0  0  0  0  0
  -18.1941  -26.7929   22.1621 C   0  0  0  0  0  0
  -19.1571  -28.8865   23.2855 C   0  0  0  0  0  0
  -18.9487  -30.1467   23.8873 C   0  0  0  0  0  0
  -17.6482  -30.6586   24.0555 C   0  0  0  0  0  0
  -25.9066  -34.9404   23.5064 C   0  0  0  0  0  0
  -16.5369  -29.9080   23.6340 C   0  0  0  0  0  0
  -16.7293  -28.6497   23.0363 C   0  0  0  0  0  0
  -26.4547  -31.6554   25.0707 C   0  0  0  0  0  0
  -25.3745  -31.3738   26.1411 C   0  0  0  0  0  0
  -27.0409  -30.2952   24.6260 C   0  0  0  0  0  0
  -27.6070  -32.4317   25.7492 C   0  0  0  0  0  0
  -27.5571  -37.1774   24.8471 C   0  0  0  0  0  0
  -21.4271  -29.3049   22.3612 N   0  0  0  0  0  0
  -26.4278  -37.3738   23.9419 N   0  0  0  0  0  0
  -24.7189  -31.0301   22.0922 N   0  0  0  0  0  0
  -23.4230  -28.8079   23.2993 O   0  0  0  0  0  0
  -28.2681  -26.1421   20.2214 O   0  0  0  0  0  0
  -26.5637  -34.8905   22.4632 O   0  0  0  0  0  0
  -23.5550  -32.1308   23.7107 O   0  0  0  0  0  0
  -28.3251  -19.6617   21.3299 C   0  0  0  0  0  0
  -30.3601  -18.4712   19.8859 C   0  0  0  0  0  0
  -28.5934  -18.2410   21.4392 C   0  0  0  0  0  0
  -30.0976  -19.9148   19.7915 C   0  0  0  0  0  0
  -29.0358  -20.5900   20.5040 C   0  0  0  0  0  0
  -29.6050  -17.5439   20.6924 C   0  0  0  0  0  0
  -28.9537  -23.3641   20.3077 C   0  0  0  0  0  0
  -27.7331  -17.4461   22.4100 C   0  0  0  0  0  0
  -30.9641  -20.7332   18.8527 C   0  0  0  0  0  0
  -27.9181  -24.6335   20.0450 C   0  0  0  0  0  0
  -28.4948  -22.0206   20.3403 N   0  0  0  0  0  0
  -29.6745  -16.0103   20.7721 N   0  0  0  0  0  0
  -30.1509  -23.6131   20.4643 O   0  0  0  0  0  0
  -31.4856  -12.7435   19.1861 H   0  0  0  0  0  0
  -30.4555  -11.6063   20.0065 H   0  0  0  0  0  0
  -29.8420  -11.7506   17.5710 H   0  0  0  0  0  0
  -29.6165  -13.4764   17.7083 H   0  0  0  0  0  0
  -27.9514  -11.2772   18.9670 H   0  0  0  0  0  0
  -27.3951  -12.4671   17.8196 H   0  0  0  0  0  0
  -27.6165  -14.2515   19.4436 H   0  0  0  0  0  0
  -28.7622  -12.2274   21.4301 H   0  0  0  0  0  0
  -28.3812  -13.8893   21.7994 H   0  0  0  0  0  0
  -25.2771   -9.5666   22.4779 H   0  0  0  0  0  0
  -23.9999   -7.4623   22.7480 H   0  0  0  0  0  0
  -21.0857   -8.8786   19.8948 H   0  0  0  0  0  0
  -22.3729  -10.9679   19.6175 H   0  0  0  0  0  0
  -21.1999   -7.6151   23.9722 H   0  0  0  0  0  0
  -21.1481   -6.0521   25.9075 H   0  0  0  0  0  0
  -22.0594   -2.7617   23.2835 H   0  0  0  0  0  0
  -22.4061  -11.9875   22.4823 H   0  0  0  0  0  0
  -21.1076  -13.1250   22.2612 H   0  0  0  0  0  0
  -24.6241  -15.8258   20.4703 H   0  0  0  0  0  0
  -26.2314  -15.6218   19.9945 H   0  0  0  0  0  0
  -26.7264  -32.5307   23.0996 H   0  0  0  0  0  0
  -25.0147  -33.9622   25.0377 H   0  0  0  0  0  0
  -22.7511  -31.2900   21.3767 H   0  0  0  0  0  0
  -23.3766  -35.9557   23.3277 H   0  0  0  0  0  0
  -24.3587  -36.8894   22.2066 H   0  0  0  0  0  0
  -23.7223  -37.6425   23.6687 H   0  0  0  0  0  0
  -26.1580  -31.4738   20.6141 H   0  0  0  0  0  0
  -26.8762  -30.7720   22.0278 H   0  0  0  0  0  0
  -28.1348  -28.7981   21.2426 H   0  0  0  0  0  0
  -25.9071  -25.8591   18.9855 H   0  0  0  0  0  0
  -23.9842  -27.3063   18.9760 H   0  0  0  0  0  0
  -23.8138  -30.5669   19.3965 H   0  0  0  0  0  0
  -22.7918  -29.2335   19.8406 H   0  0  0  0  0  0
  -25.1302  -36.1843   25.0816 H   0  0  0  0  0  0
  -21.0023  -28.3281   24.1351 H   0  0  0  0  0  0
  -20.5683  -26.2323   23.3617 H   0  0  0  0  0  0
  -21.6652  -26.7413   22.1187 H   0  0  0  0  0  0
  -19.6920  -25.6281   21.1241 H   0  0  0  0  0  0
  -19.6689  -27.3186   20.6748 H   0  0  0  0  0  0
  -17.4214  -26.6693   21.4018 H   0  0  0  0  0  0
  -18.0326  -26.0081   22.9019 H   0  0  0  0  0  0
  -19.7970  -30.7287   24.2229 H   0  0  0  0  0  0
  -17.5041  -31.6273   24.5148 H   0  0  0  0  0  0
  -15.5373  -30.2969   23.7685 H   0  0  0  0  0  0
  -15.8695  -28.0800   22.7085 H   0  0  0  0  0  0
  -24.5936  -30.7068   25.7741 H   0  0  0  0  0  0
  -24.8936  -32.2929   26.4772 H   0  0  0  0  0  0
  -25.8055  -30.8964   27.0221 H   0  0  0  0  0  0
  -26.3022  -29.6671   24.1273 H   0  0  0  0  0  0
  -27.4060  -29.7235   25.4802 H   0  0  0  0  0  0
  -27.8913  -30.4206   23.9552 H   0  0  0  0  0  0
  -27.2671  -33.3663   26.1962 H   0  0  0  0  0  0
  -28.3950  -32.6794   25.0366 H   0  0  0  0  0  0
  -28.0660  -31.8507   26.5501 H   0  0  0  0  0  0
  -28.2560  -38.0098   24.7526 H   0  0  0  0  0  0
  -28.1092  -36.2620   24.6273 H   0  0  0  0  0  0
  -27.2295  -37.1391   25.8877 H   0  0  0  0  0  0
  -20.9470  -29.8791   21.6823 H   0  0  0  0  0  0
  -26.0139  -38.2797   24.1439 H   0  0  0  0  0  0
  -27.5032  -20.0577   21.9105 H   0  0  0  0  0  0
  -31.1543  -18.0603   19.2778 H   0  0  0  0  0  0
  -27.1626  -18.0994   23.0702 H   0  0  0  0  0  0
  -28.3498  -16.8101   23.0463 H   0  0  0  0  0  0
  -27.0265  -16.8137   21.8759 H   0  0  0  0  0  0
  -31.4957  -20.1012   18.1408 H   0  0  0  0  0  0
  -31.7008  -21.3016   19.4218 H   0  0  0  0  0  0
  -30.3611  -21.4385   18.2809 H   0  0  0  0  0  0
  -27.0328  -24.4290   20.6479 H   0  0  0  0  0  0
  -27.6128  -24.5075   19.0064 H   0  0  0  0  0  0
  -27.4839  -22.0243   20.3034 H   0  0  0  0  0  0
  -28.8160  -15.6322   21.1415 H   0  0  0  0  0  0
  1 25  1  0  0  0
  1 30  2  0  0  0
  1 82  1  0  0  0
  2  3  1  0  0  0
  2 25  1  0  0  0
  2 84  1  0  0  0
  2 85  1  0  0  0
  3  4  1  0  0  0
  3 86  1  0  0  0
  3 87  1  0  0  0
  4  5  1  0  0  0
  4 88  1  0  0  0
  4 89  1  0  0  0
  5  6  1  0  0  0
  5 26  1  0  0  0
  5 90  1  0  0  0
  6 25  1  0  0  0
  6 91  1  0  0  0
  6 92  1  0  0  0
  7  8  2  0  0  0
  7 26  1  0  0  0
  7 29  1  0  0  0
  8  9  1  0  0  0
  8 22  1  0  0  0
  9 10  1  0  0  0
  9 27  2  0  0  0
 10 11  2  0  0  0
 10 15  1  0  0  0
 11 12  1  0  0  0
 11 93  1  0  0  0
 12 13  2  0  0  0
 12 94  1  0  0  0
 13 14  1  0  0  0
 13 31  1  0  0  0
 14 15  2  0  0  0
 14 95  1  0  0  0
 15 96  1  0  0  0
 16 17  2  0  0  0
 16 21  1  0  0  0
 16 31  1  0  0  0
 17 18  1  0  0  0
 17 97  1  0  0  0
 18 19  2  0  0  0
 18 98  1  0  0  0
 19 20  1  0  0  0
 19 24  1  0  0  0
 20 21  2  0  0  0
 20 99  1  0  0  0
 21 23  1  0  0  0
 22 28  1  0  0  0
 22 32  2  0  0  0
 26 27  1  0  0  0
 28100  1  0  0  0
 28101  1  0  0  0
 29102  1  0  0  0
 29103  1  0  0  0
 33 34  1  0  0  0
 33 66  1  0  0  0
 33 70  2  0  0  0
 34 36  1  0  0  0
 34 59  1  0  0  0
 34104  1  0  0  0
 35 44  2  0  0  0
 35 45  1  0  0  0
 35 68  1  0  0  0
 36 56  1  0  0  0
 36105  1  0  0  0
 37 39  1  0  0  0
 37 47  1  0  0  0
 37 66  1  0  0  0
 37106  1  0  0  0
 38 43  2  0  0  0
 38 46  1  0  0  0
 38 47  1  0  0  0
 39 64  1  0  0  0
 39 67  2  0  0  0
 40 52  1  0  0  0
 40 53  2  0  0  0
 40 58  1  0  0  0
 41107  1  0  0  0
 41108  1  0  0  0
 41109  1  0  0  0
 41 48  1  0  0  0
 42 43  1  0  0  0
 42 66  1  0  0  0
 42110  1  0  0  0
 42111  1  0  0  0
 43 44  1  0  0  0
 44112  1  0  0  0
 45 46  2  0  0  0
 45113  1  0  0  0
 46114  1  0  0  0
 47115  1  0  0  0
 47116  1  0  0  0
 48 56  1  0  0  0
 48 65  1  0  0  0
 48117  1  0  0  0
 49 50  1  0  0  0
 49 53  1  0  0  0
 49 64  1  0  0  0
 49118  1  0  0  0
 50 51  1  0  0  0
 50119  1  0  0  0
 50120  1  0  0  0
 51 52  1  0  0  0
 51121  1  0  0  0
 51122  1  0  0  0
 52123  1  0  0  0
 52124  1  0  0  0
 53 54  1  0  0  0
 54 55  2  0  0  0
 54125  1  0  0  0
 55 57  1  0  0  0
 55126  1  0  0  0
 56 69  2  0  0  0
 57 58  2  0  0  0
 57127  1  0  0  0
 58128  1  0  0  0
 59 60  1  0  0  0
 59 61  1  0  0  0
 59 62  1  0  0  0
 60129  1  0  0  0
 60130  1  0  0  0
 60131  1  0  0  0
 61132  1  0  0  0
 61133  1  0  0  0
 61134  1  0  0  0
 62135  1  0  0  0
 62136  1  0  0  0
 62137  1  0  0  0
 63 65  1  0  0  0
 63138  1  0  0  0
 63139  1  0  0  0
 63140  1  0  0  0
 64141  1  0  0  0
 65142  1  0  0  0
 68 80  1  0  0  0
 71 73  2  0  0  0
 71 75  1  0  0  0
 71143  1  0  0  0
 72 74  1  0  0  0
 72 76  2  0  0  0
 72144  1  0  0  0
 73 76  1  0  0  0
 73 78  1  0  0  0
 74 75  2  0  0  0
 74 79  1  0  0  0
 75 81  1  0  0  0
 76 82  1  0  0  0
 77 80  1  0  0  0
 77 81  1  0  0  0
 77 83  2  0  0  0
 78145  1  0  0  0
 78146  1  0  0  0
 78147  1  0  0  0
 79148  1  0  0  0
 79149  1  0  0  0
 79150  1  0  0  0
 80151  1  0  0  0
 80152  1  0  0  0
 81153  1  0  0  0
 82154  1  0  0  0
M  ISO  4   1 100  68 101  80 101  82 100
M  END
> <chiral flag>
0

> <version>
0

> <s_m_source_file>
/data/baiqing/PycharmProjects/Reinvent-master-3.2/result/LINK_invent/BTK/process_docking_weight1_custom_sum_contain_oxygen_bond_distance_aromatic_linkinvent_7_9_3/rearranged_h_0008.sdf

> <i_m_source_file_index>
7

> <r_mmod_Potential_Energy-OPLS-2005>
400.772918701172

> <r_mmod_Stretch_Energy-OPLS-2005>
226.624282836914

> <r_mmod_Bend_Energy-OPLS-2005>
269.122406005859

> <r_mmod_Torsional_Energy-OPLS-2005>
238.813201904297

> <r_mmod_Improper_Torsional_Energy-OPLS-2005>
4.67786645889282

> <r_mmod_Van_der_Waal_Energy-OPLS-2005>
129.205856323242

> <r_mmod_Electrostatic_Energy-OPLS-2005>
-405.990814208984

> <r_mmod_Solvation_Energy-OPLS-2005>
-244.963607788086

> <b_mmod_Minimization_Converged-OPLS-2005>
0

> <r_mmod_RMS_Derivative-OPLS-2005>
1.48286306858063

$$$$
7
                    3D
 Structure written by MMmdl.
149157  0  0  1  0            999 V2000
  -30.0244  -16.3415   20.2942 C   0  0  0  0  0  0
  -30.3515  -13.6260   19.5246 C   0  0  0  0  0  0
  -29.5724  -12.8527   18.3943 C   0  0  0  0  0  0
  -28.2133  -12.3392   18.8777 C   0  0  0  0  0  0
  -27.5763  -13.3863   19.8048 C   0  0  2  0  0  0
  -28.5382  -14.0174   20.8634 C   0  0  0  0  0  0
  -25.2211  -13.8401   20.5903 C   0  0  0  0  0  0
  -24.1673  -13.0450   20.9333 C   0  0  0  0  0  0
  -24.6486  -11.6995   20.8753 C   0  0  0  0  0  0
  -23.9200  -10.4308   21.0365 C   0  0  0  0  0  0
  -24.3706   -9.4218   21.9165 C   0  0  0  0  0  0
  -23.6345   -8.2266   22.0749 C   0  0  0  0  0  0
  -22.4322   -8.0308   21.3542 C   0  0  0  0  0  0
  -21.9983   -9.0284   20.4635 C   0  0  0  0  0  0
  -22.7345  -10.2149   20.3032 C   0  0  0  0  0  0
  -21.6865   -6.0756   22.5276 C   0  0  0  0  0  0
  -21.4020   -6.5656   23.8209 C   0  0  0  0  0  0
  -21.3659   -5.6803   24.9167 C   0  0  0  0  0  0
  -21.6044   -4.3064   24.7211 C   0  0  0  0  0  0
  -21.8822   -3.8163   23.4329 C   0  0  0  0  0  0
  -21.9199   -4.6985   22.3392 C   0  0  0  0  0  0
  -22.7658  -13.5113   21.1932 C   0  0  0  0  0  0
  -22.1665   -4.2173   21.0966 F   0  0  0  0  0  0
  -21.5628   -3.4545   25.7720 F   0  0  0  0  0  0
  -29.5790  -14.8602   20.1509 N   0  0  0  0  0  0
  -26.2774  -12.9897   20.3368 N   0  0  0  0  0  0
  -25.9472  -11.6876   20.5668 N   0  0  0  0  0  0
  -22.0348  -12.8075   22.0488 N   0  0  0  0  0  0
  -25.3691  -15.2157   20.4350 N   0  0  0  0  0  0
  -31.2746  -16.1516   20.2970 O   0  0  0  0  0  0
  -21.6663   -6.8909   21.4241 O   0  0  0  0  0  0
  -22.3311  -14.5399   20.6759 O   0  0  0  0  0  0
  -24.7325  -31.7412   23.1141 C   0  0  0  0  0  0
  -25.9667  -32.4170   23.7868 C   0  0  1  0  0  0
  -27.2445  -26.2069   20.2646 C   0  0  0  0  0  0
  -25.6059  -33.8036   24.1709 N   0  0  0  0  0  0
  -23.5786  -30.3215   21.4822 C   0  0  2  0  0  0
  -25.0367  -28.5539   20.1475 C   0  0  0  0  0  0
  -22.7966  -29.4006   22.4623 C   0  0  0  0  0  0
  -18.0357  -28.1449   22.8427 C   0  0  0  0  0  0
  -24.1501  -36.7006   23.2657 C   0  0  0  0  0  0
  -26.1773  -30.3074   21.4558 C   0  0  0  0  0  0
  -26.2344  -28.8143   20.8228 C   0  0  0  0  0  0
  -27.3007  -27.6882   20.8331 C   0  0  0  0  0  0
  -26.0121  -26.2892   19.5231 C   0  0  0  0  0  0
  -24.9927  -27.3185   19.4725 C   0  0  0  0  0  0
  -23.8577  -29.5693   20.1421 C   0  0  0  0  0  0
  -25.4174  -36.2726   24.0251 C   0  0  1  0  0  0
  -20.6012  -28.3828   23.1053 C   0  0  2  0  0  0
  -20.6788  -26.9438   22.5417 C   0  0  0  0  0  0
  -19.5784  -26.6358   21.5217 C   0  0  0  0  0  0
  -18.1964  -26.7965   22.1609 C   0  0  0  0  0  0
  -19.1636  -28.8971   23.2705 C   0  0  0  0  0  0
  -18.9538  -30.1539   23.8776 C   0  0  0  0  0  0
  -17.6523  -30.6620   24.0533 C   0  0  0  0  0  0
  -25.9187  -34.9125   23.4848 C   0  0  0  0  0  0
  -16.5407  -29.9090   23.6365 C   0  0  0  0  0  0
  -16.7333  -28.6515   23.0379 C   0  0  0  0  0  0
  -26.4699  -31.6396   25.0682 C   0  0  0  0  0  0
  -25.3655  -31.3848   26.1218 C   0  0  0  0  0  0
  -27.0693  -30.2674   24.6933 C   0  0  0  0  0  0
  -27.6078  -32.4347   25.7521 C   0  0  0  0  0  0
  -27.5560  -37.1644   24.8476 C   0  0  0  0  0  0
  -21.4576  -29.2967   22.3324 N   0  0  0  0  0  0
  -26.4265  -37.3534   23.9415 N   0  0  0  0  0  0
  -24.8595  -30.8352   22.0684 N   0  0  0  0  0  0
  -23.4164  -28.7693   23.3203 O   0  0  0  0  0  0
  -28.1718  -24.7903   20.1341 O   0  0  0  0  0  0
  -26.5882  -34.8796   22.4502 O   0  0  0  0  0  0
  -23.6239  -32.0730   23.5768 O   0  0  0  0  0  0
  -28.5621  -21.3834   19.9456 C   0  0  0  0  0  0
  -29.6172  -21.5733   22.2798 C   0  0  0  0  0  0
  -29.1521  -19.8102   20.4715 C   0  0  0  0  0  0
  -29.0935  -22.8315   21.7653 C   0  0  0  0  0  0
  -28.4424  -23.0488   20.4990 C   0  0  0  0  0  0
  -29.6656  -20.2293   21.7306 C   0  0  0  0  0  0
  -28.1154  -24.3988   23.3104 C   0  0  0  0  0  0
  -30.2809  -24.9162   22.1361 C   0  0  0  0  0  0
  -29.2802  -17.8928   20.1673 N   0  0  0  0  0  0
  -29.3089  -23.9339   22.6117 N   0  0  0  0  0  0
  -30.2334  -19.2719   22.5047 F   0  0  0  0  0  0
  -31.2771  -13.9899   19.0775 H   0  0  0  0  0  0
  -30.6903  -12.9347   20.2988 H   0  0  0  0  0  0
  -30.1741  -12.0272   18.0116 H   0  0  0  0  0  0
  -29.4155  -13.5323   17.5557 H   0  0  0  0  0  0
  -28.3704  -11.4142   19.4356 H   0  0  0  0  0  0
  -27.5606  -12.0962   18.0388 H   0  0  0  0  0  0
  -27.3438  -14.2009   19.1165 H   0  0  0  0  0  0
  -28.9546  -13.2681   21.5386 H   0  0  0  0  0  0
  -27.9733  -14.6962   21.5035 H   0  0  0  0  0  0
  -25.2835   -9.5692   22.4767 H   0  0  0  0  0  0
  -24.0031   -7.4664   22.7494 H   0  0  0  0  0  0
  -21.0903   -8.8820   19.8947 H   0  0  0  0  0  0
  -22.3791  -10.9693   19.6152 H   0  0  0  0  0  0
  -21.2012   -7.6166   23.9718 H   0  0  0  0  0  0
  -21.1477   -6.0529   25.9071 H   0  0  0  0  0  0
  -22.0603   -2.7627   23.2820 H   0  0  0  0  0  0
  -22.4007  -11.9756   22.4875 H   0  0  0  0  0  0
  -21.0949  -13.1050   22.2695 H   0  0  0  0  0  0
  -24.5988  -15.8634   20.5606 H   0  0  0  0  0  0
  -26.2193  -15.6652   20.1222 H   0  0  0  0  0  0
  -26.7808  -32.4529   23.0623 H   0  0  0  0  0  0
  -25.0068  -33.8989   24.9779 H   0  0  0  0  0  0
  -22.9335  -31.1706   21.2482 H   0  0  0  0  0  0
  -23.3811  -35.9280   23.3237 H   0  0  0  0  0  0
  -24.3548  -36.8768   22.2083 H   0  0  0  0  0  0
  -23.7207  -37.6127   23.6817 H   0  0  0  0  0  0
  -26.4311  -30.9934   20.6469 H   0  0  0  0  0  0
  -27.0112  -30.3908   22.1390 H   0  0  0  0  0  0
  -28.2093  -27.9275   21.3665 H   0  0  0  0  0  0
  -25.7762  -25.4008   18.9537 H   0  0  0  0  0  0
  -24.1087  -27.0970   18.8907 H   0  0  0  0  0  0
  -24.0718  -30.3037   19.3651 H   0  0  0  0  0  0
  -22.9531  -29.0568   19.8105 H   0  0  0  0  0  0
  -25.1389  -36.1434   25.0735 H   0  0  0  0  0  0
  -21.0069  -28.3496   24.1189 H   0  0  0  0  0  0
  -20.5577  -26.2471   23.3727 H   0  0  0  0  0  0
  -21.6649  -26.7285   22.1283 H   0  0  0  0  0  0
  -19.6926  -25.6240   21.1308 H   0  0  0  0  0  0
  -19.6735  -27.3118   20.6704 H   0  0  0  0  0  0
  -17.4225  -26.6704   21.4015 H   0  0  0  0  0  0
  -18.0350  -26.0138   22.9034 H   0  0  0  0  0  0
  -19.8011  -30.7377   24.2109 H   0  0  0  0  0  0
  -17.5068  -31.6286   24.5166 H   0  0  0  0  0  0
  -15.5399  -30.2950   23.7760 H   0  0  0  0  0  0
  -15.8736  -28.0783   22.7177 H   0  0  0  0  0  0
  -24.5926  -30.7102   25.7521 H   0  0  0  0  0  0
  -24.8768  -32.3098   26.4274 H   0  0  0  0  0  0
  -25.7748  -30.9271   27.0234 H   0  0  0  0  0  0
  -26.3484  -29.6126   24.2029 H   0  0  0  0  0  0
  -27.4006  -29.7326   25.5846 H   0  0  0  0  0  0
  -27.9508  -30.3658   24.0603 H   0  0  0  0  0  0
  -27.2586  -33.3770   26.1748 H   0  0  0  0  0  0
  -28.4067  -32.6692   25.0478 H   0  0  0  0  0  0
  -28.0554  -31.8717   26.5722 H   0  0  0  0  0  0
  -28.2527  -37.9987   24.7537 H   0  0  0  0  0  0
  -28.1107  -36.2507   24.6296 H   0  0  0  0  0  0
  -27.2269  -37.1247   25.8875 H   0  0  0  0  0  0
  -21.0020  -29.8518   21.6220 H   0  0  0  0  0  0
  -26.0064  -38.2559   24.1454 H   0  0  0  0  0  0
  -28.1477  -21.3044   18.9514 H   0  0  0  0  0  0
  -30.0701  -21.6427   23.2574 H   0  0  0  0  0  0
  -27.2963  -24.6088   22.6211 H   0  0  0  0  0  0
  -28.3204  -25.3125   23.8705 H   0  0  0  0  0  0
  -27.7700  -23.6447   24.0200 H   0  0  0  0  0  0
  -30.7005  -24.6459   21.1646 H   0  0  0  0  0  0
  -31.1108  -25.0013   22.8377 H   0  0  0  0  0  0
  -29.8271  -25.9036   22.0349 H   0  0  0  0  0  0
  -28.3800  -17.6320   19.7908 H   0  0  0  0  0  0
  1 25  1  0  0  0
  1 30  2  0  0  0
  1 79  1  0  0  0
  2  3  1  0  0  0
  2 25  1  0  0  0
  2 82  1  0  0  0
  2 83  1  0  0  0
  3  4  1  0  0  0
  3 84  1  0  0  0
  3 85  1  0  0  0
  4  5  1  0  0  0
  4 86  1  0  0  0
  4 87  1  0  0  0
  5  6  1  0  0  0
  5 26  1  0  0  0
  5 88  1  0  0  0
  6 25  1  0  0  0
  6 89  1  0  0  0
  6 90  1  0  0  0
  7  8  2  0  0  0
  7 26  1  0  0  0
  7 29  1  0  0  0
  8  9  1  0  0  0
  8 22  1  0  0  0
  9 10  1  0  0  0
  9 27  2  0  0  0
 10 11  2  0  0  0
 10 15  1  0  0  0
 11 12  1  0  0  0
 11 91  1  0  0  0
 12 13  2  0  0  0
 12 92  1  0  0  0
 13 14  1  0  0  0
 13 31  1  0  0  0
 14 15  2  0  0  0
 14 93  1  0  0  0
 15 94  1  0  0  0
 16 17  2  0  0  0
 16 21  1  0  0  0
 16 31  1  0  0  0
 17 18  1  0  0  0
 17 95  1  0  0  0
 18 19  2  0  0  0
 18 96  1  0  0  0
 19 20  1  0  0  0
 19 24  1  0  0  0
 20 21  2  0  0  0
 20 97  1  0  0  0
 21 23  1  0  0  0
 22 28  1  0  0  0
 22 32  2  0  0  0
 26 27  1  0  0  0
 28 98  1  0  0  0
 28 99  1  0  0  0
 29100  1  0  0  0
 29101  1  0  0  0
 33 34  1  0  0  0
 33 66  1  0  0  0
 33 70  2  0  0  0
 34 36  1  0  0  0
 34 59  1  0  0  0
 34102  1  0  0  0
 35 44  2  0  0  0
 35 45  1  0  0  0
 35 68  1  0  0  0
 36 56  1  0  0  0
 36103  1  0  0  0
 37 39  1  0  0  0
 37 47  1  0  0  0
 37 66  1  0  0  0
 37104  1  0  0  0
 38 43  2  0  0  0
 38 46  1  0  0  0
 38 47  1  0  0  0
 39 64  1  0  0  0
 39 67  2  0  0  0
 40 52  1  0  0  0
 40 53  2  0  0  0
 40 58  1  0  0  0
 41105  1  0  0  0
 41106  1  0  0  0
 41107  1  0  0  0
 41 48  1  0  0  0
 42 43  1  0  0  0
 42 66  1  0  0  0
 42108  1  0  0  0
 42109  1  0  0  0
 43 44  1  0  0  0
 44110  1  0  0  0
 45 46  2  0  0  0
 45111  1  0  0  0
 46112  1  0  0  0
 47113  1  0  0  0
 47114  1  0  0  0
 48 56  1  0  0  0
 48 65  1  0  0  0
 48115  1  0  0  0
 49 50  1  0  0  0
 49 53  1  0  0  0
 49 64  1  0  0  0
 49116  1  0  0  0
 50 51  1  0  0  0
 50117  1  0  0  0
 50118  1  0  0  0
 51 52  1  0  0  0
 51119  1  0  0  0
 51120  1  0  0  0
 52121  1  0  0  0
 52122  1  0  0  0
 53 54  1  0  0  0
 54 55  2  0  0  0
 54123  1  0  0  0
 55 57  1  0  0  0
 55124  1  0  0  0
 56 69  2  0  0  0
 57 58  2  0  0  0
 57125  1  0  0  0
 58126  1  0  0  0
 59 60  1  0  0  0
 59 61  1  0  0  0
 59 62  1  0  0  0
 60127  1  0  0  0
 60128  1  0  0  0
 60129  1  0  0  0
 61130  1  0  0  0
 61131  1  0  0  0
 61132  1  0  0  0
 62133  1  0  0  0
 62134  1  0  0  0
 62135  1  0  0  0
 63 65  1  0  0  0
 63136  1  0  0  0
 63137  1  0  0  0
 63138  1  0  0  0
 64139  1  0  0  0
 65140  1  0  0  0
 68 75  1  0  0  0
 71 73  2  0  0  0
 71 75  1  0  0  0
 71141  1  0  0  0
 72 74  1  0  0  0
 72 76  2  0  0  0
 72142  1  0  0  0
 73 76  1  0  0  0
 73 79  1  0  0  0
 74 75  2  0  0  0
 74 80  1  0  0  0
 76 81  1  0  0  0
 77 80  1  0  0  0
 77143  1  0  0  0
 77144  1  0  0  0
 77145  1  0  0  0
 78 80  1  0  0  0
 78146  1  0  0  0
 78147  1  0  0  0
 78148  1  0  0  0
 79149  1  0  0  0
M  ISO  4   1 100  68 101  75 101  79 100
M  END
> <chiral flag>
0

> <version>
0

> <s_m_source_file>
/data/baiqing/PycharmProjects/Reinvent-master-3.2/result/LINK_invent/BTK/process_docking_weight1_custom_sum_contain_oxygen_bond_distance_aromatic_linkinvent_7_9_3/rearranged_h_0008.sdf

> <i_m_source_file_index>
8

> <r_mmod_Potential_Energy-OPLS-2005>
5265.64453125

> <r_mmod_Stretch_Energy-OPLS-2005>
2170.8466796875

> <r_mmod_Bend_Energy-OPLS-2005>
994.77392578125

> <r_mmod_Torsional_Energy-OPLS-2005>
273.775695800781

> <r_mmod_Improper_Torsional_Energy-OPLS-2005>
14.0507869720459

> <r_mmod_Van_der_Waal_Energy-OPLS-2005>
140.968078613281

> <r_mmod_Electrostatic_Energy-OPLS-2005>
-354.625823974609

> <r_mmod_Solvation_Energy-OPLS-2005>
-237.136444091797

> <b_mmod_Minimization_Converged-OPLS-2005>
0

> <r_mmod_RMS_Derivative-OPLS-2005>
1.74181604385376

$$$$
8
                    3D
 Structure written by MMmdl.
155163  0  0  1  0            999 V2000
  -30.5217  -14.9324   20.4247 C   0  0  0  0  0  0
  -30.4475  -12.5744   19.4978 C   0  0  0  0  0  0
  -29.5249  -12.5454   18.2555 C   0  0  0  0  0  0
  -28.0527  -12.3361   18.6632 C   0  0  0  0  0  0
  -27.6348  -13.2476   19.8466 C   0  0  2  0  0  0
  -28.6787  -13.2372   20.9852 C   0  0  0  0  0  0
  -25.2468  -13.8213   20.5708 C   0  0  0  0  0  0
  -24.1775  -13.0440   20.9232 C   0  0  0  0  0  0
  -24.6382  -11.6925   20.8746 C   0  0  0  0  0  0
  -23.9057  -10.4296   21.0402 C   0  0  0  0  0  0
  -24.3610   -9.4208   21.9176 C   0  0  0  0  0  0
  -23.6293   -8.2232   22.0740 C   0  0  0  0  0  0
  -22.4276   -8.0265   21.3531 C   0  0  0  0  0  0
  -21.9906   -9.0233   20.4627 C   0  0  0  0  0  0
  -22.7231  -10.2122   20.3044 C   0  0  0  0  0  0
  -21.6851   -6.0722   22.5278 C   0  0  0  0  0  0
  -21.4011   -6.5623   23.8215 C   0  0  0  0  0  0
  -21.3678   -5.6776   24.9180 C   0  0  0  0  0  0
  -21.6060   -4.3040   24.7228 C   0  0  0  0  0  0
  -21.8811   -3.8127   23.4349 C   0  0  0  0  0  0
  -21.9185   -4.6946   22.3407 C   0  0  0  0  0  0
  -22.7791  -13.5196   21.1898 C   0  0  0  0  0  0
  -22.1657   -4.2121   21.0990 F   0  0  0  0  0  0
  -21.5644   -3.4535   25.7750 F   0  0  0  0  0  0
  -29.9634  -13.6543   20.4037 N   0  0  0  0  0  0
  -26.2901  -12.9447   20.3262 N   0  0  0  0  0  0
  -25.9324  -11.6583   20.5734 N   0  0  0  0  0  0
  -22.0436  -12.8181   22.0457 N   0  0  0  0  0  0
  -25.4131  -15.1936   20.4120 N   0  0  0  0  0  0
  -31.7052  -15.0464   20.0886 O   0  0  0  0  0  0
  -21.6646   -6.8863   21.4235 O   0  0  0  0  0  0
  -22.3478  -14.5505   20.6758 O   0  0  0  0  0  0
  -24.6442  -31.8453   23.1911 C   0  0  0  0  0  0
  -25.9211  -32.4700   23.8299 C   0  0  1  0  0  0
  -27.2223  -27.1347   20.1626 C   0  0  0  0  0  0
  -25.5971  -33.8509   24.2225 N   0  0  0  0  0  0
  -23.4489  -30.4657   21.5358 C   0  0  2  0  0  0
  -24.9025  -28.8964   20.1117 C   0  0  0  0  0  0
  -22.7571  -29.4552   22.4857 C   0  0  0  0  0  0
  -18.0304  -28.1395   22.8474 C   0  0  0  0  0  0
  -24.1498  -36.7231   23.2644 C   0  0  0  0  0  0
  -26.0057  -30.7196   21.3936 C   0  0  0  0  0  0
  -26.0787  -29.3306   20.7362 C   0  0  0  0  0  0
  -27.2360  -28.4640   20.7514 C   0  0  0  0  0  0
  -26.0255  -26.8176   19.4768 C   0  0  0  0  0  0
  -24.8892  -27.6522   19.4674 C   0  0  0  0  0  0
  -23.6779  -29.7965   20.1551 C   0  0  0  0  0  0
  -25.4133  -36.3036   24.0331 C   0  0  1  0  0  0
  -20.5919  -28.3716   23.1231 C   0  0  2  0  0  0
  -20.6784  -26.9413   22.5414 C   0  0  0  0  0  0
  -19.5763  -26.6373   21.5220 C   0  0  0  0  0  0
  -18.1943  -26.7929   22.1629 C   0  0  0  0  0  0
  -19.1561  -28.8875   23.2848 C   0  0  0  0  0  0
  -18.9476  -30.1471   23.8869 C   0  0  0  0  0  0
  -17.6471  -30.6589   24.0554 C   0  0  0  0  0  0
  -25.9082  -34.9405   23.5084 C   0  0  0  0  0  0
  -16.5361  -29.9083   23.6331 C   0  0  0  0  0  0
  -16.7285  -28.6505   23.0349 C   0  0  0  0  0  0
  -26.4544  -31.6542   25.0717 C   0  0  0  0  0  0
  -25.3736  -31.3706   26.1411 C   0  0  0  0  0  0
  -27.0394  -30.2932   24.6283 C   0  0  0  0  0  0
  -27.6116  -32.4269   25.7473 C   0  0  0  0  0  0
  -27.5581  -37.1781   24.8466 C   0  0  0  0  0  0
  -21.4263  -29.3041   22.3592 N   0  0  0  0  0  0
  -26.4294  -37.3750   23.9410 N   0  0  0  0  0  0
  -24.7190  -31.0310   22.0948 N   0  0  0  0  0  0
  -23.4205  -28.8098   23.3016 O   0  0  0  0  0  0
  -28.2570  -26.1283   20.2763 O   0  0  0  0  0  0
  -26.5652  -34.8894   22.4656 O   0  0  0  0  0  0
  -23.5560  -32.1321   23.7135 O   0  0  0  0  0  0
  -30.4080  -19.8232   19.5600 C   0  0  0  0  0  0
  -30.5611  -18.3864   19.7267 C   0  0  0  0  0  0
  -28.5583  -19.8420   21.0081 C   0  0  0  0  0  0
  -29.3977  -20.6586   20.1750 C   0  0  0  0  0  0
  -29.6957  -17.5765   20.5279 C   0  0  0  0  0  0
  -28.6790  -18.3846   21.1593 C   0  0  0  0  0  0
  -28.6900  -23.2807   20.5559 C   0  0  0  0  0  0
  -29.8629  -22.5410   18.5663 C   0  0  0  0  0  0
  -26.6148  -18.2812   22.3924 C   0  0  0  0  0  0
  -27.9827  -24.6408   19.8906 C   0  0  0  0  0  0
  -29.6904  -16.0492   20.6908 N   0  0  0  0  0  0
  -29.2123  -22.1625   19.8294 N   0  0  0  0  0  0
  -28.6847  -23.2227   21.7902 O   0  0  0  0  0  0
  -27.7925  -17.6468   21.9172 O   0  0  0  0  0  0
  -31.4800  -12.7391   19.1866 H   0  0  0  0  0  0
  -30.4435  -11.6102   20.0082 H   0  0  0  0  0  0
  -29.8407  -11.7611   17.5655 H   0  0  0  0  0  0
  -29.6193  -13.4866   17.7116 H   0  0  0  0  0  0
  -27.9310  -11.2891   18.9443 H   0  0  0  0  0  0
  -27.3937  -12.5007   17.8088 H   0  0  0  0  0  0
  -27.6076  -14.2605   19.4436 H   0  0  0  0  0  0
  -28.7548  -12.2442   21.4316 H   0  0  0  0  0  0
  -28.3785  -13.9113   21.7886 H   0  0  0  0  0  0
  -25.2752   -9.5689   22.4756 H   0  0  0  0  0  0
  -24.0001   -7.4618   22.7460 H   0  0  0  0  0  0
  -21.0837   -8.8735   19.8935 H   0  0  0  0  0  0
  -22.3673  -10.9647   19.6148 H   0  0  0  0  0  0
  -21.1994   -7.6132   23.9712 H   0  0  0  0  0  0
  -21.1533   -6.0515   25.9088 H   0  0  0  0  0  0
  -22.0580   -2.7586   23.2862 H   0  0  0  0  0  0
  -22.4041  -11.9825   22.4821 H   0  0  0  0  0  0
  -21.1036  -13.1178   22.2648 H   0  0  0  0  0  0
  -24.6429  -15.8444   20.5186 H   0  0  0  0  0  0
  -26.2554  -15.6301   20.0603 H   0  0  0  0  0  0
  -26.7273  -32.5319   23.1031 H   0  0  0  0  0  0
  -25.0104  -33.9621   25.0361 H   0  0  0  0  0  0
  -22.7534  -31.2935   21.3823 H   0  0  0  0  0  0
  -23.3780  -35.9541   23.3305 H   0  0  0  0  0  0
  -24.3580  -36.8849   22.2055 H   0  0  0  0  0  0
  -23.7221  -37.6425   23.6660 H   0  0  0  0  0  0
  -26.1645  -31.4755   20.6237 H   0  0  0  0  0  0
  -26.8755  -30.7706   22.0362 H   0  0  0  0  0  0
  -28.1242  -28.7875   21.2776 H   0  0  0  0  0  0
  -25.9180  -25.8755   18.9636 H   0  0  0  0  0  0
  -23.9936  -27.3140   18.9647 H   0  0  0  0  0  0
  -23.8165  -30.5730   19.4026 H   0  0  0  0  0  0
  -22.7933  -29.2406   19.8402 H   0  0  0  0  0  0
  -25.1327  -36.1880   25.0826 H   0  0  0  0  0  0
  -21.0028  -28.3311   24.1349 H   0  0  0  0  0  0
  -20.5677  -26.2326   23.3636 H   0  0  0  0  0  0
  -21.6647  -26.7416   22.1211 H   0  0  0  0  0  0
  -19.6920  -25.6284   21.1254 H   0  0  0  0  0  0
  -19.6704  -27.3179   20.6749 H   0  0  0  0  0  0
  -17.4218  -26.6675   21.4031 H   0  0  0  0  0  0
  -18.0336  -26.0077   22.9030 H   0  0  0  0  0  0
  -19.7953  -30.7297   24.2218 H   0  0  0  0  0  0
  -17.5022  -31.6266   24.5168 H   0  0  0  0  0  0
  -15.5357  -30.2980   23.7668 H   0  0  0  0  0  0
  -15.8682  -28.0817   22.7071 H   0  0  0  0  0  0
  -24.5967  -30.6998   25.7721 H   0  0  0  0  0  0
  -24.8861  -32.2863   26.4767 H   0  0  0  0  0  0
  -25.8039  -30.8934   27.0225 H   0  0  0  0  0  0
  -26.2998  -29.6650   24.1307 H   0  0  0  0  0  0
  -27.4018  -29.7238   25.4852 H   0  0  0  0  0  0
  -27.8911  -30.4150   23.9588 H   0  0  0  0  0  0
  -27.2784  -33.3628   26.1972 H   0  0  0  0  0  0
  -28.3969  -32.6717   25.0304 H   0  0  0  0  0  0
  -28.0730  -31.8412   26.5437 H   0  0  0  0  0  0
  -28.2605  -38.0074   24.7532 H   0  0  0  0  0  0
  -28.1082  -36.2613   24.6298 H   0  0  0  0  0  0
  -27.2286  -37.1417   25.8862 H   0  0  0  0  0  0
  -20.9469  -29.8726   21.6745 H   0  0  0  0  0  0
  -26.0169  -38.2822   24.1421 H   0  0  0  0  0  0
  -31.1177  -20.2876   18.8922 H   0  0  0  0  0  0
  -31.3537  -17.8967   19.1793 H   0  0  0  0  0  0
  -27.7607  -20.3651   21.5132 H   0  0  0  0  0  0
  -30.9447  -22.5658   18.7091 H   0  0  0  0  0  0
  -29.6046  -23.5142   18.1599 H   0  0  0  0  0  0
  -29.6409  -21.8155   17.7838 H   0  0  0  0  0  0
  -25.9537  -17.5286   22.8219 H   0  0  0  0  0  0
  -26.0680  -18.7715   21.5859 H   0  0  0  0  0  0
  -26.8461  -19.0081   23.1713 H   0  0  0  0  0  0
  -26.9513  -24.4618   20.1924 H   0  0  0  0  0  0
  -27.9480  -24.5776   18.8059 H   0  0  0  0  0  0
  -28.8095  -15.7354   21.0688 H   0  0  0  0  0  0
  1 25  1  0  0  0
  1 30  2  0  0  0
  1 81  1  0  0  0
  2  3  1  0  0  0
  2 25  1  0  0  0
  2 85  1  0  0  0
  2 86  1  0  0  0
  3  4  1  0  0  0
  3 87  1  0  0  0
  3 88  1  0  0  0
  4  5  1  0  0  0
  4 89  1  0  0  0
  4 90  1  0  0  0
  5  6  1  0  0  0
  5 26  1  0  0  0
  5 91  1  0  0  0
  6 25  1  0  0  0
  6 92  1  0  0  0
  6 93  1  0  0  0
  7  8  2  0  0  0
  7 26  1  0  0  0
  7 29  1  0  0  0
  8  9  1  0  0  0
  8 22  1  0  0  0
  9 10  1  0  0  0
  9 27  2  0  0  0
 10 11  2  0  0  0
 10 15  1  0  0  0
 11 12  1  0  0  0
 11 94  1  0  0  0
 12 13  2  0  0  0
 12 95  1  0  0  0
 13 14  1  0  0  0
 13 31  1  0  0  0
 14 15  2  0  0  0
 14 96  1  0  0  0
 15 97  1  0  0  0
 16 17  2  0  0  0
 16 21  1  0  0  0
 16 31  1  0  0  0
 17 18  1  0  0  0
 17 98  1  0  0  0
 18 19  2  0  0  0
 18 99  1  0  0  0
 19 20  1  0  0  0
 19 24  1  0  0  0
 20 21  2  0  0  0
 20100  1  0  0  0
 21 23  1  0  0  0
 22 28  1  0  0  0
 22 32  2  0  0  0
 26 27  1  0  0  0
 28101  1  0  0  0
 28102  1  0  0  0
 29103  1  0  0  0
 29104  1  0  0  0
 33 34  1  0  0  0
 33 66  1  0  0  0
 33 70  2  0  0  0
 34 36  1  0  0  0
 34 59  1  0  0  0
 34105  1  0  0  0
 35 44  2  0  0  0
 35 45  1  0  0  0
 35 68  1  0  0  0
 36 56  1  0  0  0
 36106  1  0  0  0
 37 39  1  0  0  0
 37 47  1  0  0  0
 37 66  1  0  0  0
 37107  1  0  0  0
 38 43  2  0  0  0
 38 46  1  0  0  0
 38 47  1  0  0  0
 39 64  1  0  0  0
 39 67  2  0  0  0
 40 52  1  0  0  0
 40 53  2  0  0  0
 40 58  1  0  0  0
 41108  1  0  0  0
 41109  1  0  0  0
 41110  1  0  0  0
 41 48  1  0  0  0
 42 43  1  0  0  0
 42 66  1  0  0  0
 42111  1  0  0  0
 42112  1  0  0  0
 43 44  1  0  0  0
 44113  1  0  0  0
 45 46  2  0  0  0
 45114  1  0  0  0
 46115  1  0  0  0
 47116  1  0  0  0
 47117  1  0  0  0
 48 56  1  0  0  0
 48 65  1  0  0  0
 48118  1  0  0  0
 49 50  1  0  0  0
 49 53  1  0  0  0
 49 64  1  0  0  0
 49119  1  0  0  0
 50 51  1  0  0  0
 50120  1  0  0  0
 50121  1  0  0  0
 51 52  1  0  0  0
 51122  1  0  0  0
 51123  1  0  0  0
 52124  1  0  0  0
 52125  1  0  0  0
 53 54  1  0  0  0
 54 55  2  0  0  0
 54126  1  0  0  0
 55 57  1  0  0  0
 55127  1  0  0  0
 56 69  2  0  0  0
 57 58  2  0  0  0
 57128  1  0  0  0
 58129  1  0  0  0
 59 60  1  0  0  0
 59 61  1  0  0  0
 59 62  1  0  0  0
 60130  1  0  0  0
 60131  1  0  0  0
 60132  1  0  0  0
 61133  1  0  0  0
 61134  1  0  0  0
 61135  1  0  0  0
 62136  1  0  0  0
 62137  1  0  0  0
 62138  1  0  0  0
 63 65  1  0  0  0
 63139  1  0  0  0
 63140  1  0  0  0
 63141  1  0  0  0
 64142  1  0  0  0
 65143  1  0  0  0
 68 80  1  0  0  0
 71 72  2  0  0  0
 71 74  1  0  0  0
 71144  1  0  0  0
 72 75  1  0  0  0
 72145  1  0  0  0
 73 74  2  0  0  0
 73 76  1  0  0  0
 73146  1  0  0  0
 74 82  1  0  0  0
 75 76  2  0  0  0
 75 81  1  0  0  0
 76 84  1  0  0  0
 77 80  1  0  0  0
 77 82  1  0  0  0
 77 83  2  0  0  0
 78 82  1  0  0  0
 78147  1  0  0  0
 78148  1  0  0  0
 78149  1  0  0  0
 79 84  1  0  0  0
 79150  1  0  0  0
 79151  1  0  0  0
 79152  1  0  0  0
 80153  1  0  0  0
 80154  1  0  0  0
 81155  1  0  0  0
M  ISO  4   1 100  68 101  80 101  81 100
M  END
> <chiral flag>
0

> <version>
0

> <s_m_source_file>
/data/baiqing/PycharmProjects/Reinvent-master-3.2/result/LINK_invent/BTK/process_docking_weight1_custom_sum_contain_oxygen_bond_distance_aromatic_linkinvent_7_9_3/rearranged_h_0008.sdf

> <i_m_source_file_index>
9

> <r_mmod_Potential_Energy-OPLS-2005>
540.132202148438

> <r_mmod_Stretch_Energy-OPLS-2005>
246.939544677734

> <r_mmod_Bend_Energy-OPLS-2005>
279.266815185547

> <r_mmod_Torsional_Energy-OPLS-2005>
266.499816894531

> <r_mmod_Improper_Torsional_Energy-OPLS-2005>
4.78109455108643

> <r_mmod_Van_der_Waal_Energy-OPLS-2005>
147.944229125977

> <r_mmod_Electrostatic_Energy-OPLS-2005>
-366.684020996094

> <r_mmod_Solvation_Energy-OPLS-2005>
-230.089721679688

> <b_mmod_Minimization_Converged-OPLS-2005>
0

> <r_mmod_RMS_Derivative-OPLS-2005>
2.11357736587524

$$$$
9
                    3D
 Structure written by MMmdl.
162169  0  0  1  0            999 V2000
  -30.7322  -14.4924   20.5869 C   0  0  0  0  0  0
  -30.4116  -12.3181   19.4499 C   0  0  0  0  0  0
  -29.5011  -12.4947   18.2174 C   0  0  0  0  0  0
  -28.0182  -12.3635   18.6155 C   0  0  0  0  0  0
  -27.6537  -13.2154   19.8598 C   0  0  2  0  0  0
  -28.6855  -13.0353   20.9902 C   0  0  0  0  0  0
  -25.2566  -13.8180   20.5657 C   0  0  0  0  0  0
  -24.1830  -13.0445   20.9161 C   0  0  0  0  0  0
  -24.6396  -11.6914   20.8715 C   0  0  0  0  0  0
  -23.9069  -10.4296   21.0397 C   0  0  0  0  0  0
  -24.3623   -9.4215   21.9178 C   0  0  0  0  0  0
  -23.6299   -8.2250   22.0754 C   0  0  0  0  0  0
  -22.4281   -8.0284   21.3544 C   0  0  0  0  0  0
  -21.9915   -9.0256   20.4645 C   0  0  0  0  0  0
  -22.7241  -10.2135   20.3051 C   0  0  0  0  0  0
  -21.6858   -6.0737   22.5278 C   0  0  0  0  0  0
  -21.4017   -6.5639   23.8211 C   0  0  0  0  0  0
  -21.3659   -5.6792   24.9172 C   0  0  0  0  0  0
  -21.6046   -4.3055   24.7223 C   0  0  0  0  0  0
  -21.8820   -3.8146   23.4345 C   0  0  0  0  0  0
  -21.9195   -4.6964   22.3401 C   0  0  0  0  0  0
  -22.7855  -13.5237   21.1843 C   0  0  0  0  0  0
  -22.1663   -4.2151   21.0979 F   0  0  0  0  0  0
  -21.5630   -3.4539   25.7736 F   0  0  0  0  0  0
  -30.0239  -13.3288   20.4529 N   0  0  0  0  0  0
  -26.2984  -12.9360   20.3265 N   0  0  0  0  0  0
  -25.9318  -11.6513   20.5709 N   0  0  0  0  0  0
  -22.0508  -12.8219   22.0401 N   0  0  0  0  0  0
  -25.4303  -15.1898   20.4101 N   0  0  0  0  0  0
  -31.8453  -14.6175   20.0663 O   0  0  0  0  0  0
  -21.6647   -6.8880   21.4240 O   0  0  0  0  0  0
  -22.3533  -14.5545   20.6704 O   0  0  0  0  0  0
  -24.6163  -31.8658   23.2086 C   0  0  0  0  0  0
  -25.9049  -32.4810   23.8387 C   0  0  1  0  0  0
  -27.2298  -27.4202   20.1053 C   0  0  0  0  0  0
  -25.5900  -33.8609   24.2323 N   0  0  0  0  0  0
  -23.4052  -30.4886   21.5487 C   0  0  2  0  0  0
  -24.8524  -28.9521   20.1135 C   0  0  0  0  0  0
  -22.7417  -29.4649   22.4981 C   0  0  0  0  0  0
  -18.0270  -28.1379   22.8496 C   0  0  0  0  0  0
  -24.1489  -36.7306   23.2641 C   0  0  0  0  0  0
  -25.9342  -30.8296   21.3612 C   0  0  0  0  0  0
  -26.0138  -29.4629   20.7082 C   0  0  0  0  0  0
  -27.2098  -28.7059   20.6966 C   0  0  0  0  0  0
  -26.0553  -26.9256   19.5031 C   0  0  0  0  0  0
  -24.8689  -27.6839   19.5056 C   0  0  0  0  0  0
  -23.6142  -29.8194   20.1638 C   0  0  0  0  0  0
  -25.4111  -36.3104   24.0340 C   0  0  1  0  0  0
  -20.5863  -28.3667   23.1313 C   0  0  2  0  0  0
  -20.6762  -26.9401   22.5416 C   0  0  0  0  0  0
  -19.5740  -26.6384   21.5215 C   0  0  0  0  0  0
  -18.1917  -26.7925   22.1624 C   0  0  0  0  0  0
  -19.1521  -28.8841   23.2901 C   0  0  0  0  0  0
  -18.9449  -30.1448   23.8911 C   0  0  0  0  0  0
  -17.6451  -30.6587   24.0567 C   0  0  0  0  0  0
  -25.9036  -34.9468   23.5130 C   0  0  0  0  0  0
  -16.5343  -29.9088   23.6331 C   0  0  0  0  0  0
  -16.7259  -28.6504   23.0355 C   0  0  0  0  0  0
  -26.4476  -31.6589   25.0717 C   0  0  0  0  0  0
  -25.3747  -31.3676   26.1466 C   0  0  0  0  0  0
  -27.0318  -30.3040   24.6086 C   0  0  0  0  0  0
  -27.6051  -32.4311   25.7479 C   0  0  0  0  0  0
  -27.5582  -37.1806   24.8467 C   0  0  0  0  0  0
  -21.4142  -29.3035   22.3721 N   0  0  0  0  0  0
  -26.4293  -37.3792   23.9415 N   0  0  0  0  0  0
  -24.6703  -31.0754   22.0986 N   0  0  0  0  0  0
  -23.4183  -28.8190   23.3028 O   0  0  0  0  0  0
  -28.3663  -26.6391   20.1213 O   0  0  0  0  0  0
  -26.5597  -34.8920   22.4689 O   0  0  0  0  0  0
  -23.5355  -32.1408   23.7478 O   0  0  0  0  0  0
  -30.0952  -15.6430   21.2672 C   0  0  0  0  0  0
  -30.0178  -15.6253   22.6305 C   0  0  0  0  0  0
  -29.6064  -16.8252   20.4268 C   0  0  0  0  0  0
  -28.3482  -24.1192   20.2104 C   0  0  0  0  0  0
  -30.5352  -14.5425   23.5747 C   0  0  0  0  0  0
  -29.6474  -16.6683   18.8998 C   0  0  0  0  0  0
  -27.5558  -22.9547   22.2363 C   0  0  0  0  0  0
  -28.2782  -25.4738   20.9799 C   0  0  0  0  0  0
  -28.7572  -20.4213   20.9835 C   0  0  0  0  0  0
  -28.8185  -19.1016   20.1619 C   0  0  0  0  0  0
  -28.1131  -21.6135   20.1946 C   0  0  0  0  0  0
  -29.2133  -17.9349   20.9723 N   0  0  0  0  0  0
  -28.0935  -22.9445   20.8693 N   0  0  0  0  0  0
  -28.6504  -24.1418   19.0120 O   0  0  0  0  0  0
  -29.4682  -16.6055   23.3669 O   0  0  0  0  0  0
  -31.4605  -12.3871   19.1566 H   0  0  0  0  0  0
  -30.2933  -11.3171   19.8676 H   0  0  0  0  0  0
  -29.7481  -11.7496   17.4601 H   0  0  0  0  0  0
  -29.6813  -13.4660   17.7559 H   0  0  0  0  0  0
  -27.8241  -11.3095   18.8180 H   0  0  0  0  0  0
  -27.3775  -12.6330   17.7752 H   0  0  0  0  0  0
  -27.6869  -14.2589   19.5474 H   0  0  0  0  0  0
  -28.6604  -12.0138   21.3731 H   0  0  0  0  0  0
  -28.4090  -13.6699   21.8292 H   0  0  0  0  0  0
  -25.2774   -9.5694   22.4745 H   0  0  0  0  0  0
  -24.0013   -7.4646   22.7474 H   0  0  0  0  0  0
  -21.0849   -8.8773   19.8949 H   0  0  0  0  0  0
  -22.3704  -10.9672   19.6155 H   0  0  0  0  0  0
  -21.2011   -7.6147   23.9716 H   0  0  0  0  0  0
  -21.1479   -6.0520   25.9074 H   0  0  0  0  0  0
  -22.0600   -2.7609   23.2846 H   0  0  0  0  0  0
  -22.4126  -11.9868   22.4766 H   0  0  0  0  0  0
  -21.1129  -13.1241   22.2624 H   0  0  0  0  0  0
  -24.6709  -15.8498   20.5357 H   0  0  0  0  0  0
  -26.2942  -15.6317   20.1239 H   0  0  0  0  0  0
  -26.7117  -32.5519   23.1149 H   0  0  0  0  0  0
  -25.0077  -33.9769   25.0486 H   0  0  0  0  0  0
  -22.6946  -31.3059   21.4083 H   0  0  0  0  0  0
  -23.3750  -35.9638   23.3308 H   0  0  0  0  0  0
  -24.3586  -36.8922   22.2054 H   0  0  0  0  0  0
  -23.7236  -37.6510   23.6653 H   0  0  0  0  0  0
  -26.0457  -31.5958   20.5925 H   0  0  0  0  0  0
  -26.8220  -30.8843   21.9796 H   0  0  0  0  0  0
  -28.1069  -29.0938   21.1584 H   0  0  0  0  0  0
  -26.0565  -25.9501   19.0377 H   0  0  0  0  0  0
  -23.9761  -27.2849   19.0445 H   0  0  0  0  0  0
  -23.7199  -30.5932   19.4020 H   0  0  0  0  0  0
  -22.7384  -29.2377   19.8706 H   0  0  0  0  0  0
  -25.1286  -36.1969   25.0833 H   0  0  0  0  0  0
  -20.9953  -28.3231   24.1434 H   0  0  0  0  0  0
  -20.5668  -26.2272   23.3605 H   0  0  0  0  0  0
  -21.6632  -26.7443   22.1206 H   0  0  0  0  0  0
  -19.6900  -25.6297   21.1238 H   0  0  0  0  0  0
  -19.6684  -27.3202   20.6751 H   0  0  0  0  0  0
  -17.4189  -26.6684   21.4021 H   0  0  0  0  0  0
  -18.0313  -26.0060   22.9013 H   0  0  0  0  0  0
  -19.7925  -30.7262   24.2283 H   0  0  0  0  0  0
  -17.5006  -31.6270   24.5163 H   0  0  0  0  0  0
  -15.5345  -30.2996   23.7649 H   0  0  0  0  0  0
  -15.8657  -28.0829   22.7067 H   0  0  0  0  0  0
  -24.5930  -30.7012   25.7794 H   0  0  0  0  0  0
  -24.8926  -32.2822   26.4929 H   0  0  0  0  0  0
  -25.8111  -30.8832   27.0211 H   0  0  0  0  0  0
  -26.2861  -29.6783   24.1167 H   0  0  0  0  0  0
  -27.4131  -29.7288   25.4532 H   0  0  0  0  0  0
  -27.8671  -30.4372   23.9209 H   0  0  0  0  0  0
  -27.2675  -33.3610   26.2065 H   0  0  0  0  0  0
  -28.3854  -32.6871   25.0300 H   0  0  0  0  0  0
  -28.0721  -31.8428   26.5388 H   0  0  0  0  0  0
  -28.2592  -38.0110   24.7529 H   0  0  0  0  0  0
  -28.1087  -36.2643   24.6278 H   0  0  0  0  0  0
  -27.2300  -37.1438   25.8869 H   0  0  0  0  0  0
  -20.9300  -29.8764   21.6951 H   0  0  0  0  0  0
  -26.0181  -38.2869   24.1425 H   0  0  0  0  0  0
  -29.9520  -13.6261   23.4930 H   0  0  0  0  0  0
  -30.4966  -14.8568   24.6193 H   0  0  0  0  0  0
  -31.5757  -14.3025   23.3510 H   0  0  0  0  0  0
  -29.4796  -15.6413   18.5850 H   0  0  0  0  0  0
  -30.6148  -16.9921   18.5157 H   0  0  0  0  0  0
  -28.8667  -17.2426   18.4033 H   0  0  0  0  0  0
  -26.6749  -23.5923   22.3143 H   0  0  0  0  0  0
  -28.3071  -23.3114   22.9425 H   0  0  0  0  0  0
  -27.2230  -21.9773   22.5773 H   0  0  0  0  0  0
  -29.1183  -25.5066   21.6737 H   0  0  0  0  0  0
  -27.3768  -25.5230   21.5913 H   0  0  0  0  0  0
  -29.7622  -20.6960   21.3058 H   0  0  0  0  0  0
  -28.1910  -20.2165   21.8908 H   0  0  0  0  0  0
  -29.5087  -19.2625   19.3303 H   0  0  0  0  0  0
  -27.8350  -18.9195   19.7234 H   0  0  0  0  0  0
  -27.0829  -21.3603   19.9412 H   0  0  0  0  0  0
  -28.6345  -21.6862   19.2387 H   0  0  0  0  0  0
  -29.2029  -17.2889   22.7503 H   0  0  0  0  0  0
  1 25  1  0  0  0
  1 30  2  0  0  0
  1 71  1  0  0  0
  2  3  1  0  0  0
  2 25  1  0  0  0
  2 86  1  0  0  0
  2 87  1  0  0  0
  3  4  1  0  0  0
  3 88  1  0  0  0
  3 89  1  0  0  0
  4  5  1  0  0  0
  4 90  1  0  0  0
  4 91  1  0  0  0
  5  6  1  0  0  0
  5 26  1  0  0  0
  5 92  1  0  0  0
  6 25  1  0  0  0
  6 93  1  0  0  0
  6 94  1  0  0  0
  7  8  2  0  0  0
  7 26  1  0  0  0
  7 29  1  0  0  0
  8  9  1  0  0  0
  8 22  1  0  0  0
  9 10  1  0  0  0
  9 27  2  0  0  0
 10 11  2  0  0  0
 10 15  1  0  0  0
 11 12  1  0  0  0
 11 95  1  0  0  0
 12 13  2  0  0  0
 12 96  1  0  0  0
 13 14  1  0  0  0
 13 31  1  0  0  0
 14 15  2  0  0  0
 14 97  1  0  0  0
 15 98  1  0  0  0
 16 17  2  0  0  0
 16 21  1  0  0  0
 16 31  1  0  0  0
 17 18  1  0  0  0
 17 99  1  0  0  0
 18 19  2  0  0  0
 18100  1  0  0  0
 19 20  1  0  0  0
 19 24  1  0  0  0
 20 21  2  0  0  0
 20101  1  0  0  0
 21 23  1  0  0  0
 22 28  1  0  0  0
 22 32  2  0  0  0
 26 27  1  0  0  0
 28102  1  0  0  0
 28103  1  0  0  0
 29104  1  0  0  0
 29105  1  0  0  0
 33 34  1  0  0  0
 33 66  1  0  0  0
 33 70  2  0  0  0
 34 36  1  0  0  0
 34 59  1  0  0  0
 34106  1  0  0  0
 35 44  2  0  0  0
 35 45  1  0  0  0
 35 68  1  0  0  0
 36 56  1  0  0  0
 36107  1  0  0  0
 37 39  1  0  0  0
 37 47  1  0  0  0
 37 66  1  0  0  0
 37108  1  0  0  0
 38 43  2  0  0  0
 38 46  1  0  0  0
 38 47  1  0  0  0
 39 64  1  0  0  0
 39 67  2  0  0  0
 40 52  1  0  0  0
 40 53  2  0  0  0
 40 58  1  0  0  0
 41109  1  0  0  0
 41110  1  0  0  0
 41111  1  0  0  0
 41 48  1  0  0  0
 42 43  1  0  0  0
 42 66  1  0  0  0
 42112  1  0  0  0
 42113  1  0  0  0
 43 44  1  0  0  0
 44114  1  0  0  0
 45 46  2  0  0  0
 45115  1  0  0  0
 46116  1  0  0  0
 47117  1  0  0  0
 47118  1  0  0  0
 48 56  1  0  0  0
 48 65  1  0  0  0
 48119  1  0  0  0
 49 50  1  0  0  0
 49 53  1  0  0  0
 49 64  1  0  0  0
 49120  1  0  0  0
 50 51  1  0  0  0
 50121  1  0  0  0
 50122  1  0  0  0
 51 52  1  0  0  0
 51123  1  0  0  0
 51124  1  0  0  0
 52125  1  0  0  0
 52126  1  0  0  0
 53 54  1  0  0  0
 54 55  2  0  0  0
 54127  1  0  0  0
 55 57  1  0  0  0
 55128  1  0  0  0
 56 69  2  0  0  0
 57 58  2  0  0  0
 57129  1  0  0  0
 58130  1  0  0  0
 59 60  1  0  0  0
 59 61  1  0  0  0
 59 62  1  0  0  0
 60131  1  0  0  0
 60132  1  0  0  0
 60133  1  0  0  0
 61134  1  0  0  0
 61135  1  0  0  0
 61136  1  0  0  0
 62137  1  0  0  0
 62138  1  0  0  0
 62139  1  0  0  0
 63 65  1  0  0  0
 63140  1  0  0  0
 63141  1  0  0  0
 63142  1  0  0  0
 64143  1  0  0  0
 65144  1  0  0  0
 68 78  1  0  0  0
 71 72  2  0  0  0
 71 73  1  0  0  0
 72 75  1  0  0  0
 72 85  1  0  0  0
 73 76  1  0  0  0
 73 82  2  0  0  0
 74 78  1  0  0  0
 74 83  1  0  0  0
 74 84  2  0  0  0
 75145  1  0  0  0
 75146  1  0  0  0
 75147  1  0  0  0
 76148  1  0  0  0
 76149  1  0  0  0
 76150  1  0  0  0
 77 83  1  0  0  0
 77151  1  0  0  0
 77152  1  0  0  0
 77153  1  0  0  0
 78154  1  0  0  0
 78155  1  0  0  0
 79 80  1  0  0  0
 79 81  1  0  0  0
 79156  1  0  0  0
 79157  1  0  0  0
 80 82  1  0  0  0
 80158  1  0  0  0
 80159  1  0  0  0
 81 83  1  0  0  0
 81160  1  0  0  0
 81161  1  0  0  0
 85162  1  0  0  0
M  ISO  4   1 100  68 101  71 100  78 101
M  END
> <chiral flag>
0

> <version>
0

> <s_m_source_file>
/data/baiqing/PycharmProjects/Reinvent-master-3.2/result/LINK_invent/BTK/process_docking_weight1_custom_sum_contain_oxygen_bond_distance_aromatic_linkinvent_7_9_3/rearranged_h_0008.sdf

> <i_m_source_file_index>
10

> <r_mmod_Potential_Energy-OPLS-2005>
197.762649536133

> <r_mmod_Stretch_Energy-OPLS-2005>
59.681396484375

> <r_mmod_Bend_Energy-OPLS-2005>
110.57292175293

> <r_mmod_Torsional_Energy-OPLS-2005>
265.714050292969

> <r_mmod_Improper_Torsional_Energy-OPLS-2005>
3.12374186515808

> <r_mmod_Van_der_Waal_Energy-OPLS-2005>
163.301254272461

> <r_mmod_Electrostatic_Energy-OPLS-2005>
-206.020263671875

> <r_mmod_Solvation_Energy-OPLS-2005>
-215.057556152344

> <b_mmod_Minimization_Converged-OPLS-2005>
0

> <r_mmod_RMS_Derivative-OPLS-2005>
0.60108470916748

$$$$
10
                    3D
 Structure written by MMmdl.
202209  0  0  1  0            999 V2000
  -30.7597  -14.3582   20.6823 C   0  0  0  0  0  0
  -30.4174  -12.2863   19.3905 C   0  0  0  0  0  0
  -29.4831  -12.5277   18.1903 C   0  0  0  0  0  0
  -28.0074  -12.3821   18.6078 C   0  0  0  0  0  0
  -27.6670  -13.2008   19.8804 C   0  0  2  0  0  0
  -28.7036  -12.9322   20.9929 C   0  0  0  0  0  0
  -25.2608  -13.8152   20.5669 C   0  0  0  0  0  0
  -24.1846  -13.0439   20.9155 C   0  0  0  0  0  0
  -24.6388  -11.6903   20.8717 C   0  0  0  0  0  0
  -23.9054  -10.4292   21.0399 C   0  0  0  0  0  0
  -24.3609   -9.4211   21.9178 C   0  0  0  0  0  0
  -23.6287   -8.2245   22.0751 C   0  0  0  0  0  0
  -22.4268   -8.0281   21.3546 C   0  0  0  0  0  0
  -21.9902   -9.0253   20.4644 C   0  0  0  0  0  0
  -22.7226  -10.2132   20.3051 C   0  0  0  0  0  0
  -21.6853   -6.0736   22.5279 C   0  0  0  0  0  0
  -21.4014   -6.5639   23.8211 C   0  0  0  0  0  0
  -21.3660   -5.6791   24.9175 C   0  0  0  0  0  0
  -21.6043   -4.3056   24.7227 C   0  0  0  0  0  0
  -21.8820   -3.8147   23.4346 C   0  0  0  0  0  0
  -21.9192   -4.6961   22.3403 C   0  0  0  0  0  0
  -22.7869  -13.5242   21.1830 C   0  0  0  0  0  0
  -22.1661   -4.2148   21.0980 F   0  0  0  0  0  0
  -21.5629   -3.4538   25.7739 F   0  0  0  0  0  0
  -30.0473  -13.2258   20.4577 N   0  0  0  0  0  0
  -26.3044  -12.9316   20.3373 N   0  0  0  0  0  0
  -25.9314  -11.6478   20.5749 N   0  0  0  0  0  0
  -22.0513  -12.8239   22.0392 N   0  0  0  0  0  0
  -25.4352  -15.1871   20.4096 N   0  0  0  0  0  0
  -31.7873  -14.6527   20.0632 O   0  0  0  0  0  0
  -21.6638   -6.8876   21.4240 O   0  0  0  0  0  0
  -22.3556  -14.5554   20.6688 O   0  0  0  0  0  0
  -24.6066  -31.8729   23.2122 C   0  0  0  0  0  0
  -25.8988  -32.4851   23.8401 C   0  0  1  0  0  0
  -27.2624  -27.4906   20.0994 C   0  0  0  0  0  0
  -25.5869  -33.8644   24.2350 N   0  0  0  0  0  0
  -23.3925  -30.4923   21.5511 C   0  0  2  0  0  0
  -24.8453  -28.9615   20.1179 C   0  0  0  0  0  0
  -22.7378  -29.4669   22.5030 C   0  0  0  0  0  0
  -18.0277  -28.1372   22.8490 C   0  0  0  0  0  0
  -24.1487  -36.7334   23.2644 C   0  0  0  0  0  0
  -25.9094  -30.8599   21.3503 C   0  0  0  0  0  0
  -25.9950  -29.4917   20.7133 C   0  0  0  0  0  0
  -27.1997  -28.7641   20.7136 C   0  0  0  0  0  0
  -26.0947  -26.9656   19.5076 C   0  0  0  0  0  0
  -24.8863  -27.6911   19.5160 C   0  0  0  0  0  0
  -23.5999  -29.8168   20.1668 C   0  0  0  0  0  0
  -25.4098  -36.3129   24.0350 C   0  0  1  0  0  0
  -20.5863  -28.3637   23.1346 C   0  0  2  0  0  0
  -20.6772  -26.9383   22.5428 C   0  0  0  0  0  0
  -19.5752  -26.6385   21.5219 C   0  0  0  0  0  0
  -18.1928  -26.7921   22.1622 C   0  0  0  0  0  0
  -19.1526  -28.8824   23.2916 C   0  0  0  0  0  0
  -18.9454  -30.1435   23.8912 C   0  0  0  0  0  0
  -17.6454  -30.6576   24.0564 C   0  0  0  0  0  0
  -25.9018  -34.9492   23.5149 C   0  0  0  0  0  0
  -16.5347  -29.9080   23.6321 C   0  0  0  0  0  0
  -16.7270  -28.6505   23.0328 C   0  0  0  0  0  0
  -26.4455  -31.6597   25.0691 C   0  0  0  0  0  0
  -25.3756  -31.3663   26.1464 C   0  0  0  0  0  0
  -27.0274  -30.3069   24.5968 C   0  0  0  0  0  0
  -27.6048  -32.4298   25.7448 C   0  0  0  0  0  0
  -27.5580  -37.1822   24.8472 C   0  0  0  0  0  0
  -21.4124  -29.3004   22.3758 N   0  0  0  0  0  0
  -26.4296  -37.3802   23.9412 N   0  0  0  0  0  0
  -24.6547  -31.0876   22.0991 N   0  0  0  0  0  0
  -23.4179  -28.8242   23.3076 O   0  0  0  0  0  0
  -28.4003  -26.7141   20.0299 O   0  0  0  0  0  0
  -26.5578  -34.8938   22.4705 O   0  0  0  0  0  0
  -23.5274  -32.1455   23.7557 O   0  0  0  0  0  0
  -37.0406  -25.8038   20.9814 C   0  0  0  0  0  0
  -30.5194  -17.5058   20.9488 C   0  0  0  0  0  0
  -29.7217  -26.8851   22.0952 C   0  0  0  0  0  0
  -32.8671  -20.2658   20.1716 C   0  0  0  0  0  0
  -30.2611  -21.8864   19.3662 C   0  0  0  0  0  0
  -31.3656  -19.1448   18.4343 C   0  0  0  0  0  0
  -35.8076  -25.1331   20.3664 C   0  0  0  0  0  0
  -30.8201  -16.4498   22.0176 C   0  0  0  0  0  0
  -29.6288  -27.1926   20.5901 C   0  0  0  0  0  0
  -35.9963  -23.6474   20.0026 C   0  0  0  0  0  0
  -35.1420  -27.3191   24.0170 C   0  0  0  0  0  0
  -36.0894  -28.5043   23.7541 C   0  0  0  0  0  0
  -33.6569  -27.6963   23.9152 C   0  0  0  0  0  0
  -34.6616  -22.9721   19.6496 C   0  0  0  0  0  0
  -37.5423  -28.0758   23.4565 C   0  0  0  0  0  0
  -32.7392  -26.5023   24.2350 C   0  0  0  0  0  0
  -34.8208  -21.4959   19.2500 C   0  0  0  0  0  0
  -37.8756  -27.9475   21.9545 C   0  0  0  0  0  0
  -31.2379  -26.7894   24.0626 C   0  0  0  0  0  0
  -30.3300  -21.0817   21.7709 C   0  0  0  0  0  0
  -30.3185  -20.6392   20.2820 C   0  0  2  0  0  0
  -31.4734  -19.6336   19.9067 C   0  0  2  0  0  0
  -36.9146  -27.1082   21.2459 N   0  0  0  0  0  0
  -30.9129  -27.0892   22.6714 N   0  0  0  0  0  0
  -33.5208  -20.8397   19.1527 N   0  0  0  0  0  0
  -31.4400  -18.4640   20.7940 N   0  0  0  0  0  0
  -30.2837  -15.1408   21.6556 N   0  0  0  0  0  0
  -38.0640  -25.1636   21.2313 O   0  0  0  0  0  0
  -29.4707  -17.4515   20.3035 O   0  0  0  0  0  0
  -28.7502  -26.4573   22.7236 O   0  0  0  0  0  0
  -33.3570  -20.2094   21.3042 O   0  0  0  0  0  0
  -29.1320  -21.7591   22.1119 O   0  0  0  0  0  0
  -31.4600  -12.3911   19.0845 H   0  0  0  0  0  0
  -30.3181  -11.2612   19.7505 H   0  0  0  0  0  0
  -29.7144  -11.8283   17.3855 H   0  0  0  0  0  0
  -29.6536  -13.5271   17.7862 H   0  0  0  0  0  0
  -27.8143  -11.3233   18.7852 H   0  0  0  0  0  0
  -27.3535  -12.6758   17.7858 H   0  0  0  0  0  0
  -27.7285  -14.2563   19.6134 H   0  0  0  0  0  0
  -28.6634  -11.8858   21.2987 H   0  0  0  0  0  0
  -28.4490  -13.4985   21.8886 H   0  0  0  0  0  0
  -25.2757   -9.5690   22.4748 H   0  0  0  0  0  0
  -24.0000   -7.4639   22.7472 H   0  0  0  0  0  0
  -21.0832   -8.8768   19.8954 H   0  0  0  0  0  0
  -22.3683  -10.9669   19.6157 H   0  0  0  0  0  0
  -21.2007   -7.6147   23.9715 H   0  0  0  0  0  0
  -21.1482   -6.0523   25.9078 H   0  0  0  0  0  0
  -22.0598   -2.7608   23.2848 H   0  0  0  0  0  0
  -22.4123  -11.9892   22.4774 H   0  0  0  0  0  0
  -21.1136  -13.1273   22.2608 H   0  0  0  0  0  0
  -24.6752  -15.8487   20.5248 H   0  0  0  0  0  0
  -26.3023  -15.6258   20.1224 H   0  0  0  0  0  0
  -26.7074  -32.5615   23.1196 H   0  0  0  0  0  0
  -25.0009  -33.9814   25.0489 H   0  0  0  0  0  0
  -22.6769  -31.3059   21.4106 H   0  0  0  0  0  0
  -23.3732  -35.9688   23.3317 H   0  0  0  0  0  0
  -24.3602  -36.8926   22.2058 H   0  0  0  0  0  0
  -23.7257  -37.6558   23.6632 H   0  0  0  0  0  0
  -25.9947  -31.6185   20.5704 H   0  0  0  0  0  0
  -26.8073  -30.9362   21.9505 H   0  0  0  0  0  0
  -28.0609  -29.2032   21.1924 H   0  0  0  0  0  0
  -26.1254  -25.9927   19.0366 H   0  0  0  0  0  0
  -24.0034  -27.2695   19.0554 H   0  0  0  0  0  0
  -23.6971  -30.5875   19.4011 H   0  0  0  0  0  0
  -22.7287  -29.2275   19.8769 H   0  0  0  0  0  0
  -25.1270  -36.2003   25.0844 H   0  0  0  0  0  0
  -20.9956  -28.3188   24.1467 H   0  0  0  0  0  0
  -20.5691  -26.2241   23.3602 H   0  0  0  0  0  0
  -21.6643  -26.7446   22.1208 H   0  0  0  0  0  0
  -19.6914  -25.6310   21.1220 H   0  0  0  0  0  0
  -19.6693  -27.3224   20.6770 H   0  0  0  0  0  0
  -17.4208  -26.6692   21.4009 H   0  0  0  0  0  0
  -18.0301  -26.0055   22.9003 H   0  0  0  0  0  0
  -19.7931  -30.7248   24.2285 H   0  0  0  0  0  0
  -17.5013  -31.6256   24.5162 H   0  0  0  0  0  0
  -15.5351  -30.2978   23.7640 H   0  0  0  0  0  0
  -15.8679  -28.0839   22.7000 H   0  0  0  0  0  0
  -24.5934  -30.7002   25.7808 H   0  0  0  0  0  0
  -24.8935  -32.2799   26.4950 H   0  0  0  0  0  0
  -25.8145  -30.8821   27.0193 H   0  0  0  0  0  0
  -26.2774  -29.6838   24.1090 H   0  0  0  0  0  0
  -27.4180  -29.7284   25.4343 H   0  0  0  0  0  0
  -27.8536  -30.4444   23.8993 H   0  0  0  0  0  0
  -27.2686  -33.3583   26.2071 H   0  0  0  0  0  0
  -28.3828  -32.6881   25.0255 H   0  0  0  0  0  0
  -28.0740  -31.8389   26.5325 H   0  0  0  0  0  0
  -28.2611  -38.0106   24.7492 H   0  0  0  0  0  0
  -28.1060  -36.2636   24.6312 H   0  0  0  0  0  0
  -27.2309  -37.1491   25.8883 H   0  0  0  0  0  0
  -20.9289  -29.8704   21.6964 H   0  0  0  0  0  0
  -26.0186  -38.2890   24.1398 H   0  0  0  0  0  0
  -29.4004  -22.5133   19.5978 H   0  0  0  0  0  0
  -30.1600  -21.6177   18.3157 H   0  0  0  0  0  0
  -31.1507  -22.5085   19.4692 H   0  0  0  0  0  0
  -31.5147  -19.9427   17.7077 H   0  0  0  0  0  0
  -30.3851  -18.7197   18.2214 H   0  0  0  0  0  0
  -32.1074  -18.3747   18.2171 H   0  0  0  0  0  0
  -35.5047  -25.6938   19.4814 H   0  0  0  0  0  0
  -34.9943  -25.2279   21.0871 H   0  0  0  0  0  0
  -30.3709  -16.7688   22.9585 H   0  0  0  0  0  0
  -31.8955  -16.3732   22.1891 H   0  0  0  0  0  0
  -29.8093  -28.2485   20.3854 H   0  0  0  0  0  0
  -30.4363  -26.6568   20.0905 H   0  0  0  0  0  0
  -36.4504  -23.1137   20.8395 H   0  0  0  0  0  0
  -36.6939  -23.5617   19.1681 H   0  0  0  0  0  0
  -35.3534  -26.9084   25.0054 H   0  0  0  0  0  0
  -35.3427  -26.5114   23.3148 H   0  0  0  0  0  0
  -36.0813  -29.1444   24.6374 H   0  0  0  0  0  0
  -35.7167  -29.1267   22.9396 H   0  0  0  0  0  0
  -33.4571  -28.0656   22.9088 H   0  0  0  0  0  0
  -33.4338  -28.5215   24.5938 H   0  0  0  0  0  0
  -34.1771  -23.5152   18.8363 H   0  0  0  0  0  0
  -33.9949  -23.0473   20.5105 H   0  0  0  0  0  0
  -37.7758  -27.1450   23.9763 H   0  0  0  0  0  0
  -38.2180  -28.8197   23.8818 H   0  0  0  0  0  0
  -32.9183  -26.1859   25.2637 H   0  0  0  0  0  0
  -33.0134  -25.6507   23.6111 H   0  0  0  0  0  0
  -35.4555  -20.9688   19.9653 H   0  0  0  0  0  0
  -35.3235  -21.4234   18.2847 H   0  0  0  0  0  0
  -38.8938  -27.5765   21.8214 H   0  0  0  0  0  0
  -37.8537  -28.9355   21.4930 H   0  0  0  0  0  0
  -30.9284  -27.6222   24.6963 H   0  0  0  0  0  0
  -30.6760  -25.9159   24.4006 H   0  0  0  0  0  0
  -31.1777  -21.7366   21.9801 H   0  0  0  0  0  0
  -30.4251  -20.2244   22.4380 H   0  0  0  0  0  0
  -29.3809  -20.1055   20.1214 H   0  0  0  0  0  0
  -36.0397  -27.5462   20.9879 H   0  0  0  0  0  0
  -31.6547  -27.4571   22.0919 H   0  0  0  0  0  0
  -33.0701  -20.8235   18.2473 H   0  0  0  0  0  0
  -32.2551  -18.4195   21.3956 H   0  0  0  0  0  0
  -29.4351  -14.8451   22.1128 H   0  0  0  0  0  0
  -29.0850  -22.5524   21.5883 H   0  0  0  0  0  0
  1 25  1  0  0  0
  1 30  2  0  0  0
  1 97  1  0  0  0
  2  3  1  0  0  0
  2 25  1  0  0  0
  2103  1  0  0  0
  2104  1  0  0  0
  3  4  1  0  0  0
  3105  1  0  0  0
  3106  1  0  0  0
  4  5  1  0  0  0
  4107  1  0  0  0
  4108  1  0  0  0
  5  6  1  0  0  0
  5 26  1  0  0  0
  5109  1  0  0  0
  6 25  1  0  0  0
  6110  1  0  0  0
  6111  1  0  0  0
  7  8  2  0  0  0
  7 26  1  0  0  0
  7 29  1  0  0  0
  8  9  1  0  0  0
  8 22  1  0  0  0
  9 10  1  0  0  0
  9 27  2  0  0  0
 10 11  2  0  0  0
 10 15  1  0  0  0
 11 12  1  0  0  0
 11112  1  0  0  0
 12 13  2  0  0  0
 12113  1  0  0  0
 13 14  1  0  0  0
 13 31  1  0  0  0
 14 15  2  0  0  0
 14114  1  0  0  0
 15115  1  0  0  0
 16 17  2  0  0  0
 16 21  1  0  0  0
 16 31  1  0  0  0
 17 18  1  0  0  0
 17116  1  0  0  0
 18 19  2  0  0  0
 18117  1  0  0  0
 19 20  1  0  0  0
 19 24  1  0  0  0
 20 21  2  0  0  0
 20118  1  0  0  0
 21 23  1  0  0  0
 22 28  1  0  0  0
 22 32  2  0  0  0
 26 27  1  0  0  0
 28119  1  0  0  0
 28120  1  0  0  0
 29121  1  0  0  0
 29122  1  0  0  0
 33 34  1  0  0  0
 33 66  1  0  0  0
 33 70  2  0  0  0
 34 36  1  0  0  0
 34 59  1  0  0  0
 34123  1  0  0  0
 35 44  2  0  0  0
 35 45  1  0  0  0
 35 68  1  0  0  0
 36 56  1  0  0  0
 36124  1  0  0  0
 37 39  1  0  0  0
 37 47  1  0  0  0
 37 66  1  0  0  0
 37125  1  0  0  0
 38 43  2  0  0  0
 38 46  1  0  0  0
 38 47  1  0  0  0
 39 64  1  0  0  0
 39 67  2  0  0  0
 40 52  1  0  0  0
 40 53  2  0  0  0
 40 58  1  0  0  0
 41126  1  0  0  0
 41127  1  0  0  0
 41128  1  0  0  0
 41 48  1  0  0  0
 42 43  1  0  0  0
 42 66  1  0  0  0
 42129  1  0  0  0
 42130  1  0  0  0
 43 44  1  0  0  0
 44131  1  0  0  0
 45 46  2  0  0  0
 45132  1  0  0  0
 46133  1  0  0  0
 47134  1  0  0  0
 47135  1  0  0  0
 48 56  1  0  0  0
 48 65  1  0  0  0
 48136  1  0  0  0
 49 50  1  0  0  0
 49 53  1  0  0  0
 49 64  1  0  0  0
 49137  1  0  0  0
 50 51  1  0  0  0
 50138  1  0  0  0
 50139  1  0  0  0
 51 52  1  0  0  0
 51140  1  0  0  0
 51141  1  0  0  0
 52142  1  0  0  0
 52143  1  0  0  0
 53 54  1  0  0  0
 54 55  2  0  0  0
 54144  1  0  0  0
 55 57  1  0  0  0
 55145  1  0  0  0
 56 69  2  0  0  0
 57 58  2  0  0  0
 57146  1  0  0  0
 58147  1  0  0  0
 59 60  1  0  0  0
 59 61  1  0  0  0
 59 62  1  0  0  0
 60148  1  0  0  0
 60149  1  0  0  0
 60150  1  0  0  0
 61151  1  0  0  0
 61152  1  0  0  0
 61153  1  0  0  0
 62154  1  0  0  0
 62155  1  0  0  0
 62156  1  0  0  0
 63 65  1  0  0  0
 63157  1  0  0  0
 63158  1  0  0  0
 63159  1  0  0  0
 64160  1  0  0  0
 65161  1  0  0  0
 68 79  1  0  0  0
 71 77  1  0  0  0
 71 93  1  0  0  0
 71 98  2  0  0  0
 72 78  1  0  0  0
 72 96  1  0  0  0
 72 99  2  0  0  0
 73 79  1  0  0  0
 73 94  1  0  0  0
 73100  2  0  0  0
 74 95  1  0  0  0
 74101  2  0  0  0
 74 92  1  0  0  0
 75162  1  0  0  0
 75163  1  0  0  0
 75164  1  0  0  0
 75 91  1  0  0  0
 76165  1  0  0  0
 76166  1  0  0  0
 76167  1  0  0  0
 76 92  1  0  0  0
 77 80  1  0  0  0
 77168  1  0  0  0
 77169  1  0  0  0
 78 97  1  0  0  0
 78170  1  0  0  0
 78171  1  0  0  0
 79172  1  0  0  0
 79173  1  0  0  0
 80 84  1  0  0  0
 80174  1  0  0  0
 80175  1  0  0  0
 81 82  1  0  0  0
 81 83  1  0  0  0
 81176  1  0  0  0
 81177  1  0  0  0
 82 85  1  0  0  0
 82178  1  0  0  0
 82179  1  0  0  0
 83 86  1  0  0  0
 83180  1  0  0  0
 83181  1  0  0  0
 84 87  1  0  0  0
 84182  1  0  0  0
 84183  1  0  0  0
 85 88  1  0  0  0
 85184  1  0  0  0
 85185  1  0  0  0
 86 89  1  0  0  0
 86186  1  0  0  0
 86187  1  0  0  0
 87 95  1  0  0  0
 87188  1  0  0  0
 87189  1  0  0  0
 88 93  1  0  0  0
 88190  1  0  0  0
 88191  1  0  0  0
 89 94  1  0  0  0
 89192  1  0  0  0
 89193  1  0  0  0
 90 91  1  0  0  0
 90102  1  0  0  0
 90194  1  0  0  0
 90195  1  0  0  0
 91 92  1  0  0  0
 91196  1  0  0  0
 92 96  1  0  0  0
 93197  1  0  0  0
 94198  1  0  0  0
 95199  1  0  0  0
 96200  1  0  0  0
 97201  1  0  0  0
102202  1  0  0  0
M  ISO  4   1 100  68 101  79 101  97 100
M  END
> <chiral flag>
0

> <version>
0

> <s_m_source_file>
/data/baiqing/PycharmProjects/Reinvent-master-3.2/result/LINK_invent/BTK/process_docking_weight1_custom_sum_contain_oxygen_bond_distance_aromatic_linkinvent_7_9_3/rearranged_h_0008.sdf

> <i_m_source_file_index>
11

> <r_mmod_Potential_Energy-OPLS-2005>
-497.414611816406

> <r_mmod_Stretch_Energy-OPLS-2005>
38.5735893249512

> <r_mmod_Bend_Energy-OPLS-2005>
119.396873474121

> <r_mmod_Torsional_Energy-OPLS-2005>
200.221237182617

> <r_mmod_Improper_Torsional_Energy-OPLS-2005>
1.99146246910095

> <r_mmod_Van_der_Waal_Energy-OPLS-2005>
150.659866333008

> <r_mmod_Electrostatic_Energy-OPLS-2005>
-684.351501464844

> <r_mmod_Solvation_Energy-OPLS-2005>
-329.195220947266

> <b_mmod_Minimization_Converged-OPLS-2005>
0

> <r_mmod_RMS_Derivative-OPLS-2005>
1.25172996520996

$$$$
11
                    3D
 Structure written by MMmdl.
163171  0  0  1  0            999 V2000
  -30.6486  -14.4561   20.4840 C   0  0  0  0  0  0
  -30.4558  -12.2583   19.3980 C   0  0  0  0  0  0
  -29.5048  -12.4759   18.1975 C   0  0  0  0  0  0
  -28.0192  -12.3444   18.6027 C   0  0  0  0  0  0
  -27.6695  -13.1725   19.8713 C   0  0  2  0  0  0
  -28.7311  -12.9123   20.9736 C   0  0  0  0  0  0
  -25.2591  -13.8061   20.5616 C   0  0  0  0  0  0
  -24.1800  -13.0373   20.9183 C   0  0  0  0  0  0
  -24.6359  -11.6881   20.8737 C   0  0  0  0  0  0
  -23.9024  -10.4251   21.0342 C   0  0  0  0  0  0
  -24.3585   -9.4215   21.9145 C   0  0  0  0  0  0
  -23.6285   -8.2242   22.0733 C   0  0  0  0  0  0
  -22.4223   -8.0285   21.3582 C   0  0  0  0  0  0
  -21.9899   -9.0234   20.4630 C   0  0  0  0  0  0
  -22.7205  -10.2130   20.3027 C   0  0  0  0  0  0
  -21.6873   -6.0688   22.5258 C   0  0  0  0  0  0
  -21.3990   -6.5579   23.8178 C   0  0  0  0  0  0
  -21.3689   -5.6750   24.9164 C   0  0  0  0  0  0
  -21.6057   -4.3000   24.7231 C   0  0  0  0  0  0
  -21.8841   -3.8113   23.4341 C   0  0  0  0  0  0
  -21.9158   -4.6917   22.3413 C   0  0  0  0  0  0
  -22.7802  -13.5216   21.1782 C   0  0  0  0  0  0
  -22.1591   -4.2087   21.0998 F   0  0  0  0  0  0
  -21.5693   -3.4501   25.7756 F   0  0  0  0  0  0
  -30.0732  -13.2278   20.4263 N   0  0  0  0  0  0
  -26.3071  -12.9192   20.3416 N   0  0  0  0  0  0
  -25.9336  -11.6384   20.5810 N   0  0  0  0  0  0
  -22.0382  -12.8364   22.0371 N   0  0  0  0  0  0
  -25.4280  -15.1848   20.4080 N   0  0  0  0  0  0
  -31.8074  -14.7200   20.1373 O   0  0  0  0  0  0
  -21.6655   -6.8859   21.4226 O   0  0  0  0  0  0
  -22.3528  -14.5520   20.6580 O   0  0  0  0  0  0
  -24.6127  -31.8657   23.2103 C   0  0  0  0  0  0
  -25.9012  -32.4812   23.8414 C   0  0  1  0  0  0
  -27.2512  -27.4654   20.0867 C   0  0  0  0  0  0
  -25.5881  -33.8644   24.2305 N   0  0  0  0  0  0
  -23.4019  -30.4859   21.5491 C   0  0  2  0  0  0
  -24.8485  -28.9412   20.1221 C   0  0  0  0  0  0
  -22.7424  -29.4646   22.5035 C   0  0  0  0  0  0
  -18.0278  -28.1389   22.8501 C   0  0  0  0  0  0
  -24.1464  -36.7346   23.2644 C   0  0  0  0  0  0
  -25.9230  -30.8384   21.3548 C   0  0  0  0  0  0
  -26.0015  -29.4694   20.7122 C   0  0  0  0  0  0
  -27.2000  -28.7365   20.6923 C   0  0  0  0  0  0
  -26.0771  -26.9312   19.5078 C   0  0  0  0  0  0
  -24.8739  -27.6622   19.5351 C   0  0  0  0  0  0
  -23.6103  -29.8043   20.1687 C   0  0  0  0  0  0
  -25.4081  -36.3134   24.0331 C   0  0  1  0  0  0
  -20.5873  -28.3662   23.1312 C   0  0  2  0  0  0
  -20.6755  -26.9402   22.5411 C   0  0  0  0  0  0
  -19.5754  -26.6373   21.5201 C   0  0  0  0  0  0
  -18.1922  -26.7937   22.1603 C   0  0  0  0  0  0
  -19.1530  -28.8830   23.2893 C   0  0  0  0  0  0
  -18.9469  -30.1439   23.8908 C   0  0  0  0  0  0
  -17.6482  -30.6596   24.0557 C   0  0  0  0  0  0
  -25.9021  -34.9481   23.5102 C   0  0  0  0  0  0
  -16.5367  -29.9107   23.6339 C   0  0  0  0  0  0
  -16.7263  -28.6512   23.0356 C   0  0  0  0  0  0
  -26.4473  -31.6649   25.0769 C   0  0  0  0  0  0
  -25.3746  -31.3804   26.1542 C   0  0  0  0  0  0
  -27.0323  -30.3107   24.6139 C   0  0  0  0  0  0
  -27.6015  -32.4429   25.7549 C   0  0  0  0  0  0
  -27.5559  -37.1833   24.8464 C   0  0  0  0  0  0
  -21.4118  -29.3010   22.3712 N   0  0  0  0  0  0
  -26.4268  -37.3796   23.9398 N   0  0  0  0  0  0
  -24.6647  -31.0797   22.0980 N   0  0  0  0  0  0
  -23.4178  -28.8153   23.3038 O   0  0  0  0  0  0
  -28.4764  -26.8471   20.0840 O   0  0  0  0  0  0
  -26.5597  -34.8927   22.4680 O   0  0  0  0  0  0
  -23.5327  -32.1390   23.7528 O   0  0  0  0  0  0
  -28.9725  -19.3213   21.7825 C   0  0  0  0  0  0
  -29.4214  -16.9991   22.3239 C   0  0  0  0  0  0
  -29.0606  -18.2884   22.7338 C   0  0  0  0  0  0
  -29.2388  -19.0742   20.4190 C   0  0  0  0  0  0
  -29.6293  -17.7705   20.0075 C   0  0  0  0  0  0
  -29.7083  -16.7354   20.9753 C   0  0  0  0  0  0
  -29.4517  -22.4886   20.3491 C   0  0  0  0  0  0
  -28.6944  -18.5062   24.1806 C   0  0  0  0  0  0
  -29.9138  -17.4717   18.5403 C   0  0  0  0  0  0
  -28.9616  -20.2135   19.4318 C   0  0  0  0  0  0
  -30.4193  -23.6637   20.2461 C   0  0  0  0  0  0
  -29.8037  -25.0167   20.6294 C   0  0  0  0  0  0
  -28.6384  -25.4802   19.7306 C   0  0  0  0  0  0
  -29.6936  -15.3765   20.6287 N   0  0  0  0  0  0
  -29.7896  -21.3950   19.6507 N   0  0  0  0  0  0
  -28.4240  -22.5681   21.0271 O   0  0  0  0  0  0
  -31.4952  -12.3873   19.0787 H   0  0  0  0  0  0
  -30.3894  -11.2390   19.7907 H   0  0  0  0  0  0
  -29.7642  -11.7727   17.4032 H   0  0  0  0  0  0
  -29.6589  -13.4773   17.7866 H   0  0  0  0  0  0
  -27.8269  -11.2889   18.7798 H   0  0  0  0  0  0
  -27.3800  -12.6209   17.7654 H   0  0  0  0  0  0
  -27.6936  -14.2246   19.5864 H   0  0  0  0  0  0
  -28.7095  -11.8634   21.2794 H   0  0  0  0  0  0
  -28.5162  -13.4953   21.8738 H   0  0  0  0  0  0
  -25.2657   -9.5677   22.4760 H   0  0  0  0  0  0
  -23.9944   -7.4622   22.7484 H   0  0  0  0  0  0
  -21.0821   -8.8740   19.8977 H   0  0  0  0  0  0
  -22.3577  -10.9688   19.6170 H   0  0  0  0  0  0
  -21.1936   -7.6050   23.9735 H   0  0  0  0  0  0
  -21.1532   -6.0398   25.9075 H   0  0  0  0  0  0
  -22.0616   -2.7576   23.2851 H   0  0  0  0  0  0
  -22.3892  -12.0042   22.4860 H   0  0  0  0  0  0
  -21.1011  -13.1566   22.2468 H   0  0  0  0  0  0
  -24.6657  -15.8317   20.5733 H   0  0  0  0  0  0
  -26.2805  -15.6649   20.1556 H   0  0  0  0  0  0
  -26.7094  -32.5523   23.1202 H   0  0  0  0  0  0
  -25.0057  -33.9809   25.0471 H   0  0  0  0  0  0
  -22.6895  -31.3012   21.4030 H   0  0  0  0  0  0
  -23.3697  -35.9722   23.3352 H   0  0  0  0  0  0
  -24.3551  -36.8925   22.2058 H   0  0  0  0  0  0
  -23.7252  -37.6565   23.6647 H   0  0  0  0  0  0
  -26.0246  -31.5940   20.5767 H   0  0  0  0  0  0
  -26.8173  -30.9043   21.9642 H   0  0  0  0  0  0
  -28.0994  -29.1400   21.1336 H   0  0  0  0  0  0
  -26.0694  -25.9613   19.0363 H   0  0  0  0  0  0
  -23.9828  -27.2377   19.0888 H   0  0  0  0  0  0
  -23.7302  -30.5708   19.4048 H   0  0  0  0  0  0
  -22.7312  -29.2304   19.8660 H   0  0  0  0  0  0
  -25.1266  -36.1997   25.0824 H   0  0  0  0  0  0
  -20.9989  -28.3222   24.1420 H   0  0  0  0  0  0
  -20.5642  -26.2284   23.3600 H   0  0  0  0  0  0
  -21.6626  -26.7410   22.1212 H   0  0  0  0  0  0
  -19.6895  -25.6270   21.1245 H   0  0  0  0  0  0
  -19.6687  -27.3165   20.6724 H   0  0  0  0  0  0
  -17.4191  -26.6691   21.3994 H   0  0  0  0  0  0
  -18.0312  -26.0071   22.8994 H   0  0  0  0  0  0
  -19.7938  -30.7239   24.2286 H   0  0  0  0  0  0
  -17.5034  -31.6294   24.5144 H   0  0  0  0  0  0
  -15.5366  -30.3005   23.7650 H   0  0  0  0  0  0
  -15.8654  -28.0818   22.7079 H   0  0  0  0  0  0
  -24.5856  -30.7230   25.7907 H   0  0  0  0  0  0
  -24.9056  -32.3010   26.5040 H   0  0  0  0  0  0
  -25.8111  -30.8940   27.0271 H   0  0  0  0  0  0
  -26.2879  -29.6884   24.1185 H   0  0  0  0  0  0
  -27.4093  -29.7352   25.4596 H   0  0  0  0  0  0
  -27.8700  -30.4460   23.9295 H   0  0  0  0  0  0
  -27.2566  -33.3694   26.2176 H   0  0  0  0  0  0
  -28.3827  -32.7082   25.0405 H   0  0  0  0  0  0
  -28.0710  -31.8572   26.5464 H   0  0  0  0  0  0
  -28.2601  -38.0109   24.7478 H   0  0  0  0  0  0
  -28.1026  -36.2639   24.6321 H   0  0  0  0  0  0
  -27.2296  -37.1529   25.8876 H   0  0  0  0  0  0
  -20.9317  -29.8776   21.6956 H   0  0  0  0  0  0
  -26.0164  -38.2871   24.1412 H   0  0  0  0  0  0
  -28.6578  -20.3124   22.0878 H   0  0  0  0  0  0
  -29.4093  -16.1928   23.0403 H   0  0  0  0  0  0
  -27.6099  -18.4106   24.2877 H   0  0  0  0  0  0
  -28.9995  -19.4859   24.5616 H   0  0  0  0  0  0
  -29.1690  -17.7411   24.8006 H   0  0  0  0  0  0
  -29.0140  -17.6848   17.9649 H   0  0  0  0  0  0
  -30.1837  -16.4390   18.3447 H   0  0  0  0  0  0
  -30.7382  -18.0837   18.1799 H   0  0  0  0  0  0
  -27.9064  -20.4820   19.5257 H   0  0  0  0  0  0
  -29.0649  -19.9094   18.3912 H   0  0  0  0  0  0
  -30.7863  -23.7294   19.2241 H   0  0  0  0  0  0
  -31.2732  -23.4590   20.8927 H   0  0  0  0  0  0
  -30.5919  -25.7679   20.5831 H   0  0  0  0  0  0
  -29.4794  -25.0005   21.6720 H   0  0  0  0  0  0
  -27.7528  -24.8677   19.8937 H   0  0  0  0  0  0
  -28.9126  -25.4199   18.6760 H   0  0  0  0  0  0
  -28.8300  -14.9015   20.8241 H   0  0  0  0  0  0
  -30.6933  -21.4047   19.1945 H   0  0  0  0  0  0
  1 25  1  0  0  0
  1 30  2  0  0  0
  1 84  1  0  0  0
  2  3  1  0  0  0
  2 25  1  0  0  0
  2 87  1  0  0  0
  2 88  1  0  0  0
  3  4  1  0  0  0
  3 89  1  0  0  0
  3 90  1  0  0  0
  4  5  1  0  0  0
  4 91  1  0  0  0
  4 92  1  0  0  0
  5  6  1  0  0  0
  5 26  1  0  0  0
  5 93  1  0  0  0
  6 25  1  0  0  0
  6 94  1  0  0  0
  6 95  1  0  0  0
  7  8  2  0  0  0
  7 26  1  0  0  0
  7 29  1  0  0  0
  8  9  1  0  0  0
  8 22  1  0  0  0
  9 10  1  0  0  0
  9 27  2  0  0  0
 10 11  2  0  0  0
 10 15  1  0  0  0
 11 12  1  0  0  0
 11 96  1  0  0  0
 12 13  2  0  0  0
 12 97  1  0  0  0
 13 14  1  0  0  0
 13 31  1  0  0  0
 14 15  2  0  0  0
 14 98  1  0  0  0
 15 99  1  0  0  0
 16 17  2  0  0  0
 16 21  1  0  0  0
 16 31  1  0  0  0
 17 18  1  0  0  0
 17100  1  0  0  0
 18 19  2  0  0  0
 18101  1  0  0  0
 19 20  1  0  0  0
 19 24  1  0  0  0
 20 21  2  0  0  0
 20102  1  0  0  0
 21 23  1  0  0  0
 22 28  1  0  0  0
 22 32  2  0  0  0
 26 27  1  0  0  0
 28103  1  0  0  0
 28104  1  0  0  0
 29105  1  0  0  0
 29106  1  0  0  0
 33 34  1  0  0  0
 33 66  1  0  0  0
 33 70  2  0  0  0
 34 36  1  0  0  0
 34 59  1  0  0  0
 34107  1  0  0  0
 35 44  2  0  0  0
 35 45  1  0  0  0
 35 68  1  0  0  0
 36 56  1  0  0  0
 36108  1  0  0  0
 37 39  1  0  0  0
 37 47  1  0  0  0
 37 66  1  0  0  0
 37109  1  0  0  0
 38 43  2  0  0  0
 38 46  1  0  0  0
 38 47  1  0  0  0
 39 64  1  0  0  0
 39 67  2  0  0  0
 40 52  1  0  0  0
 40 53  2  0  0  0
 40 58  1  0  0  0
 41110  1  0  0  0
 41111  1  0  0  0
 41112  1  0  0  0
 41 48  1  0  0  0
 42 43  1  0  0  0
 42 66  1  0  0  0
 42113  1  0  0  0
 42114  1  0  0  0
 43 44  1  0  0  0
 44115  1  0  0  0
 45 46  2  0  0  0
 45116  1  0  0  0
 46117  1  0  0  0
 47118  1  0  0  0
 47119  1  0  0  0
 48 56  1  0  0  0
 48 65  1  0  0  0
 48120  1  0  0  0
 49 50  1  0  0  0
 49 53  1  0  0  0
 49 64  1  0  0  0
 49121  1  0  0  0
 50 51  1  0  0  0
 50122  1  0  0  0
 50123  1  0  0  0
 51 52  1  0  0  0
 51124  1  0  0  0
 51125  1  0  0  0
 52126  1  0  0  0
 52127  1  0  0  0
 53 54  1  0  0  0
 54 55  2  0  0  0
 54128  1  0  0  0
 55 57  1  0  0  0
 55129  1  0  0  0
 56 69  2  0  0  0
 57 58  2  0  0  0
 57130  1  0  0  0
 58131  1  0  0  0
 59 60  1  0  0  0
 59 61  1  0  0  0
 59 62  1  0  0  0
 60132  1  0  0  0
 60133  1  0  0  0
 60134  1  0  0  0
 61135  1  0  0  0
 61136  1  0  0  0
 61137  1  0  0  0
 62138  1  0  0  0
 62139  1  0  0  0
 62140  1  0  0  0
 63 65  1  0  0  0
 63141  1  0  0  0
 63142  1  0  0  0
 63143  1  0  0  0
 64144  1  0  0  0
 65145  1  0  0  0
 68 83  1  0  0  0
 71 73  2  0  0  0
 71 74  1  0  0  0
 71146  1  0  0  0
 72 73  1  0  0  0
 72 76  2  0  0  0
 72147  1  0  0  0
 73 78  1  0  0  0
 74 75  2  0  0  0
 74 80  1  0  0  0
 75 76  1  0  0  0
 75 79  1  0  0  0
 76 84  1  0  0  0
 77 81  1  0  0  0
 77 85  1  0  0  0
 77 86  2  0  0  0
 78148  1  0  0  0
 78149  1  0  0  0
 78150  1  0  0  0
 79151  1  0  0  0
 79152  1  0  0  0
 79153  1  0  0  0
 80 85  1  0  0  0
 80154  1  0  0  0
 80155  1  0  0  0
 81 82  1  0  0  0
 81156  1  0  0  0
 81157  1  0  0  0
 82 83  1  0  0  0
 82158  1  0  0  0
 82159  1  0  0  0
 83160  1  0  0  0
 83161  1  0  0  0
 84162  1  0  0  0
 85163  1  0  0  0
M  ISO  4   1 100  68 101  83 101  84 100
M  END
> <chiral flag>
0

> <version>
0

> <s_m_source_file>
/data/baiqing/PycharmProjects/Reinvent-master-3.2/result/LINK_invent/BTK/process_docking_weight1_custom_sum_contain_oxygen_bond_distance_aromatic_linkinvent_7_9_3/rearranged_h_0008.sdf

> <i_m_source_file_index>
12

> <r_mmod_Potential_Energy-OPLS-2005>
-132.389556884766

> <r_mmod_Stretch_Energy-OPLS-2005>
34.5269470214844

> <r_mmod_Bend_Energy-OPLS-2005>
128.663589477539

> <r_mmod_Torsional_Energy-OPLS-2005>
239.810440063477

> <r_mmod_Improper_Torsional_Energy-OPLS-2005>
14.4105052947998

> <r_mmod_Van_der_Waal_Energy-OPLS-2005>
160.262649536133

> <r_mmod_Electrostatic_Energy-OPLS-2005>
-493.543975830078

> <r_mmod_Solvation_Energy-OPLS-2005>
-233.808074951172

> <b_mmod_Minimization_Converged-OPLS-2005>
0

> <r_mmod_RMS_Derivative-OPLS-2005>
10.5310077667236

$$$$
12
                    3D
 Structure written by MMmdl.
151159  0  0  1  0            999 V2000
  -30.6215  -14.6467   20.4927 C   0  0  0  0  0  0
  -30.4407  -12.3957   19.4503 C   0  0  0  0  0  0
  -29.5080  -12.5074   18.2234 C   0  0  0  0  0  0
  -28.0310  -12.3448   18.6369 C   0  0  0  0  0  0
  -27.6531  -13.2179   19.8634 C   0  0  2  0  0  0
  -28.7004  -13.0767   20.9916 C   0  0  0  0  0  0
  -25.2552  -13.8167   20.5692 C   0  0  0  0  0  0
  -24.1817  -13.0425   20.9166 C   0  0  0  0  0  0
  -24.6396  -11.6902   20.8726 C   0  0  0  0  0  0
  -23.9065  -10.4286   21.0398 C   0  0  0  0  0  0
  -24.3615   -9.4205   21.9181 C   0  0  0  0  0  0
  -23.6291   -8.2241   22.0754 C   0  0  0  0  0  0
  -22.4273   -8.0278   21.3545 C   0  0  0  0  0  0
  -21.9906   -9.0250   20.4646 C   0  0  0  0  0  0
  -22.7236  -10.2128   20.3050 C   0  0  0  0  0  0
  -21.6852   -6.0733   22.5280 C   0  0  0  0  0  0
  -21.4013   -6.5637   23.8213 C   0  0  0  0  0  0
  -21.3660   -5.6791   24.9175 C   0  0  0  0  0  0
  -21.6045   -4.3053   24.7225 C   0  0  0  0  0  0
  -21.8819   -3.8144   23.4346 C   0  0  0  0  0  0
  -21.9192   -4.6961   22.3403 C   0  0  0  0  0  0
  -22.7841  -13.5220   21.1842 C   0  0  0  0  0  0
  -22.1662   -4.2147   21.0981 F   0  0  0  0  0  0
  -21.5630   -3.4537   25.7739 F   0  0  0  0  0  0
  -30.0151  -13.4189   20.4251 N   0  0  0  0  0  0
  -26.2995  -12.9359   20.3338 N   0  0  0  0  0  0
  -25.9330  -11.6508   20.5761 N   0  0  0  0  0  0
  -22.0489  -12.8217   22.0407 N   0  0  0  0  0  0
  -25.4214  -15.1896   20.4180 N   0  0  0  0  0  0
  -31.7915  -14.8056   20.1326 O   0  0  0  0  0  0
  -21.6637   -6.8876   21.4242 O   0  0  0  0  0  0
  -22.3520  -14.5528   20.6698 O   0  0  0  0  0  0
  -24.6266  -31.8601   23.2031 C   0  0  0  0  0  0
  -25.9113  -32.4780   23.8358 C   0  0  1  0  0  0
  -27.2236  -27.3176   20.1118 C   0  0  0  0  0  0
  -25.5926  -33.8581   24.2283 N   0  0  0  0  0  0
  -23.4199  -30.4850   21.5463 C   0  0  2  0  0  0
  -24.8656  -28.9422   20.1113 C   0  0  0  0  0  0
  -22.7476  -29.4628   22.4939 C   0  0  0  0  0  0
  -18.0286  -28.1384   22.8487 C   0  0  0  0  0  0
  -24.1489  -36.7296   23.2639 C   0  0  0  0  0  0
  -25.9621  -30.7907   21.3744 C   0  0  0  0  0  0
  -26.0362  -29.4188   20.7147 C   0  0  0  0  0  0
  -27.2183  -28.6189   20.7045 C   0  0  0  0  0  0
  -26.0260  -26.8968   19.4857 C   0  0  0  0  0  0
  -24.8626  -27.6866   19.4884 C   0  0  0  0  0  0
  -23.6342  -29.8222   20.1610 C   0  0  0  0  0  0
  -25.4113  -36.3085   24.0330 C   0  0  1  0  0  0
  -20.5886  -28.3689   23.1283 C   0  0  2  0  0  0
  -20.6775  -26.9414   22.5408 C   0  0  0  0  0  0
  -19.5750  -26.6385   21.5212 C   0  0  0  0  0  0
  -18.1931  -26.7926   22.1626 C   0  0  0  0  0  0
  -19.1538  -28.8853   23.2880 C   0  0  0  0  0  0
  -18.9460  -30.1455   23.8897 C   0  0  0  0  0  0
  -17.6461  -30.6587   24.0563 C   0  0  0  0  0  0
  -25.9051  -34.9454   23.5107 C   0  0  0  0  0  0
  -16.5352  -29.9086   23.6329 C   0  0  0  0  0  0
  -16.7273  -28.6503   23.0352 C   0  0  0  0  0  0
  -26.4494  -31.6587   25.0728 C   0  0  0  0  0  0
  -25.3727  -31.3725   26.1454 C   0  0  0  0  0  0
  -27.0334  -30.3010   24.6182 C   0  0  0  0  0  0
  -27.6054  -32.4320   25.7498 C   0  0  0  0  0  0
  -27.5580  -37.1804   24.8465 C   0  0  0  0  0  0
  -21.4189  -29.3045   22.3680 N   0  0  0  0  0  0
  -26.4293  -37.3779   23.9407 N   0  0  0  0  0  0
  -24.6885  -31.0614   22.0981 N   0  0  0  0  0  0
  -23.4201  -28.8163   23.3014 O   0  0  0  0  0  0
  -28.3403  -26.4633   20.1602 O   0  0  0  0  0  0
  -26.5620  -34.8919   22.4674 O   0  0  0  0  0  0
  -23.5429  -32.1399   23.7358 O   0  0  0  0  0  0
  -31.1180  -17.8849   20.6034 C   0  0  0  0  0  0
  -31.1123  -19.3107   20.5262 C   0  0  0  0  0  0
  -28.7106  -19.3389   20.5192 C   0  0  0  0  0  0
  -29.9083  -17.1463   20.6525 C   0  0  0  0  0  0
  -29.9190  -20.0843   20.4854 C   0  0  0  0  0  0
  -28.7114  -17.9126   20.6067 C   0  0  0  0  0  0
  -29.2528  -23.9564   20.3436 C   0  0  0  0  0  0
  -28.1015  -25.0048   20.0220 C   0  0  0  0  0  0
  -28.8904  -22.3990   20.2827 C   0  0  0  0  0  0
  -29.7931  -15.6941   20.7921 N   0  0  0  0  0  0
  -30.0305  -21.4919   20.4337 O   0  0  0  0  0  0
  -27.5271  -17.2553   20.6481 F   0  0  0  0  0  0
  -31.4812  -12.5238   19.1468 H   0  0  0  0  0  0
  -30.3783  -11.4007   19.8940 H   0  0  0  0  0  0
  -29.7724  -11.7555   17.4787 H   0  0  0  0  0  0
  -29.6485  -13.4764   17.7417 H   0  0  0  0  0  0
  -27.8691  -11.2920   18.8707 H   0  0  0  0  0  0
  -27.3755  -12.5722   17.7955 H   0  0  0  0  0  0
  -27.6666  -14.2522   19.5190 H   0  0  0  0  0  0
  -28.7131  -12.0565   21.3781 H   0  0  0  0  0  0
  -28.4480  -13.7124   21.8419 H   0  0  0  0  0  0
  -25.2760   -9.5683   22.4755 H   0  0  0  0  0  0
  -23.9999   -7.4633   22.7474 H   0  0  0  0  0  0
  -21.0836   -8.8767   19.8954 H   0  0  0  0  0  0
  -22.3693  -10.9665   19.6157 H   0  0  0  0  0  0
  -21.2003   -7.6146   23.9716 H   0  0  0  0  0  0
  -21.1485   -6.0521   25.9079 H   0  0  0  0  0  0
  -22.0598   -2.7606   23.2846 H   0  0  0  0  0  0
  -22.4103  -11.9877   22.4793 H   0  0  0  0  0  0
  -21.1112  -13.1253   22.2622 H   0  0  0  0  0  0
  -24.6550  -15.8367   20.5619 H   0  0  0  0  0  0
  -26.2902  -15.6637   20.1983 H   0  0  0  0  0  0
  -26.7180  -32.5450   23.1107 H   0  0  0  0  0  0
  -25.0065  -33.9725   25.0423 H   0  0  0  0  0  0
  -22.7139  -31.3059   21.4047 H   0  0  0  0  0  0
  -23.3749  -35.9632   23.3306 H   0  0  0  0  0  0
  -24.3580  -36.8912   22.2052 H   0  0  0  0  0  0
  -23.7246  -37.6502   23.6657 H   0  0  0  0  0  0
  -26.0942  -31.5552   20.6075 H   0  0  0  0  0  0
  -26.8423  -30.8379   22.0041 H   0  0  0  0  0  0
  -28.1158  -28.9808   21.1864 H   0  0  0  0  0  0
  -25.9527  -25.9397   18.9927 H   0  0  0  0  0  0
  -23.9657  -27.3159   19.0113 H   0  0  0  0  0  0
  -23.7534  -30.5997   19.4055 H   0  0  0  0  0  0
  -22.7537  -29.2525   19.8581 H   0  0  0  0  0  0
  -25.1293  -36.1940   25.0823 H   0  0  0  0  0  0
  -20.9979  -28.3261   24.1404 H   0  0  0  0  0  0
  -20.5679  -26.2299   23.3607 H   0  0  0  0  0  0
  -21.6643  -26.7445   22.1199 H   0  0  0  0  0  0
  -19.6913  -25.6296   21.1242 H   0  0  0  0  0  0
  -19.6686  -27.3195   20.6741 H   0  0  0  0  0  0
  -17.4200  -26.6671   21.4030 H   0  0  0  0  0  0
  -18.0335  -26.0069   22.9023 H   0  0  0  0  0  0
  -19.7937  -30.7270   24.2269 H   0  0  0  0  0  0
  -17.5016  -31.6267   24.5164 H   0  0  0  0  0  0
  -15.5352  -30.2988   23.7651 H   0  0  0  0  0  0
  -15.8672  -28.0822   22.7068 H   0  0  0  0  0  0
  -24.5898  -30.7080   25.7780 H   0  0  0  0  0  0
  -24.8923  -32.2892   26.4885 H   0  0  0  0  0  0
  -25.8050  -30.8895   27.0226 H   0  0  0  0  0  0
  -26.2907  -29.6762   24.1207 H   0  0  0  0  0  0
  -27.4029  -29.7264   25.4687 H   0  0  0  0  0  0
  -27.8779  -30.4291   23.9407 H   0  0  0  0  0  0
  -27.2666  -33.3618   26.2077 H   0  0  0  0  0  0
  -28.3864  -32.6881   25.0327 H   0  0  0  0  0  0
  -28.0722  -31.8443   26.5414 H   0  0  0  0  0  0
  -28.2599  -38.0100   24.7509 H   0  0  0  0  0  0
  -28.1073  -36.2631   24.6294 H   0  0  0  0  0  0
  -27.2298  -37.1456   25.8868 H   0  0  0  0  0  0
  -20.9367  -29.8773   21.6895 H   0  0  0  0  0  0
  -26.0176  -38.2855   24.1401 H   0  0  0  0  0  0
  -32.0671  -17.3700   20.6429 H   0  0  0  0  0  0
  -32.0626  -19.8258   20.5039 H   0  0  0  0  0  0
  -27.7601  -19.8494   20.4918 H   0  0  0  0  0  0
  -29.6470  -24.1729   21.3364 H   0  0  0  0  0  0
  -30.0761  -24.1424   19.6539 H   0  0  0  0  0  0
  -27.2506  -24.7435   20.6531 H   0  0  0  0  0  0
  -27.7948  -24.8125   18.9934 H   0  0  0  0  0  0
  -28.4094  -22.1808   19.3285 H   0  0  0  0  0  0
  -28.1566  -22.1770   21.0583 H   0  0  0  0  0  0
  -28.8555  -15.3945   21.0126 H   0  0  0  0  0  0
  1 25  1  0  0  0
  1 30  2  0  0  0
  1 80  1  0  0  0
  2  3  1  0  0  0
  2 25  1  0  0  0
  2 83  1  0  0  0
  2 84  1  0  0  0
  3  4  1  0  0  0
  3 85  1  0  0  0
  3 86  1  0  0  0
  4  5  1  0  0  0
  4 87  1  0  0  0
  4 88  1  0  0  0
  5  6  1  0  0  0
  5 26  1  0  0  0
  5 89  1  0  0  0
  6 25  1  0  0  0
  6 90  1  0  0  0
  6 91  1  0  0  0
  7  8  2  0  0  0
  7 26  1  0  0  0
  7 29  1  0  0  0
  8  9  1  0  0  0
  8 22  1  0  0  0
  9 10  1  0  0  0
  9 27  2  0  0  0
 10 11  2  0  0  0
 10 15  1  0  0  0
 11 12  1  0  0  0
 11 92  1  0  0  0
 12 13  2  0  0  0
 12 93  1  0  0  0
 13 14  1  0  0  0
 13 31  1  0  0  0
 14 15  2  0  0  0
 14 94  1  0  0  0
 15 95  1  0  0  0
 16 17  2  0  0  0
 16 21  1  0  0  0
 16 31  1  0  0  0
 17 18  1  0  0  0
 17 96  1  0  0  0
 18 19  2  0  0  0
 18 97  1  0  0  0
 19 20  1  0  0  0
 19 24  1  0  0  0
 20 21  2  0  0  0
 20 98  1  0  0  0
 21 23  1  0  0  0
 22 28  1  0  0  0
 22 32  2  0  0  0
 26 27  1  0  0  0
 28 99  1  0  0  0
 28100  1  0  0  0
 29101  1  0  0  0
 29102  1  0  0  0
 33 34  1  0  0  0
 33 66  1  0  0  0
 33 70  2  0  0  0
 34 36  1  0  0  0
 34 59  1  0  0  0
 34103  1  0  0  0
 35 44  2  0  0  0
 35 45  1  0  0  0
 35 68  1  0  0  0
 36 56  1  0  0  0
 36104  1  0  0  0
 37 39  1  0  0  0
 37 47  1  0  0  0
 37 66  1  0  0  0
 37105  1  0  0  0
 38 43  2  0  0  0
 38 46  1  0  0  0
 38 47  1  0  0  0
 39 64  1  0  0  0
 39 67  2  0  0  0
 40 52  1  0  0  0
 40 53  2  0  0  0
 40 58  1  0  0  0
 41106  1  0  0  0
 41107  1  0  0  0
 41108  1  0  0  0
 41 48  1  0  0  0
 42 43  1  0  0  0
 42 66  1  0  0  0
 42109  1  0  0  0
 42110  1  0  0  0
 43 44  1  0  0  0
 44111  1  0  0  0
 45 46  2  0  0  0
 45112  1  0  0  0
 46113  1  0  0  0
 47114  1  0  0  0
 47115  1  0  0  0
 48 56  1  0  0  0
 48 65  1  0  0  0
 48116  1  0  0  0
 49 50  1  0  0  0
 49 53  1  0  0  0
 49 64  1  0  0  0
 49117  1  0  0  0
 50 51  1  0  0  0
 50118  1  0  0  0
 50119  1  0  0  0
 51 52  1  0  0  0
 51120  1  0  0  0
 51121  1  0  0  0
 52122  1  0  0  0
 52123  1  0  0  0
 53 54  1  0  0  0
 54 55  2  0  0  0
 54124  1  0  0  0
 55 57  1  0  0  0
 55125  1  0  0  0
 56 69  2  0  0  0
 57 58  2  0  0  0
 57126  1  0  0  0
 58127  1  0  0  0
 59 60  1  0  0  0
 59 61  1  0  0  0
 59 62  1  0  0  0
 60128  1  0  0  0
 60129  1  0  0  0
 60130  1  0  0  0
 61131  1  0  0  0
 61132  1  0  0  0
 61133  1  0  0  0
 62134  1  0  0  0
 62135  1  0  0  0
 62136  1  0  0  0
 63 65  1  0  0  0
 63137  1  0  0  0
 63138  1  0  0  0
 63139  1  0  0  0
 64140  1  0  0  0
 65141  1  0  0  0
 68 78  1  0  0  0
 71 72  2  0  0  0
 71 74  1  0  0  0
 71142  1  0  0  0
 72 75  1  0  0  0
 72143  1  0  0  0
 73 75  2  0  0  0
 73 76  1  0  0  0
 73144  1  0  0  0
 74 76  2  0  0  0
 74 80  1  0  0  0
 75 81  1  0  0  0
 76 82  1  0  0  0
 77 78  1  0  0  0
 77 79  1  0  0  0
 77145  1  0  0  0
 77146  1  0  0  0
 78147  1  0  0  0
 78148  1  0  0  0
 79 81  1  0  0  0
 79149  1  0  0  0
 79150  1  0  0  0
 80151  1  0  0  0
M  ISO  4   1 100  68 101  78 101  80 100
M  END
> <chiral flag>
0

> <version>
0

> <s_m_source_file>
/data/baiqing/PycharmProjects/Reinvent-master-3.2/result/LINK_invent/BTK/process_docking_weight1_custom_sum_contain_oxygen_bond_distance_aromatic_linkinvent_7_9_3/rearranged_h_0008.sdf

> <i_m_source_file_index>
13

> <r_mmod_Potential_Energy-OPLS-2005>
8.48562717437744

> <r_mmod_Stretch_Energy-OPLS-2005>
78.0414810180664

> <r_mmod_Bend_Energy-OPLS-2005>
145.352081298828

> <r_mmod_Torsional_Energy-OPLS-2005>
209.226409912109

> <r_mmod_Improper_Torsional_Energy-OPLS-2005>
4.5839262008667

> <r_mmod_Van_der_Waal_Energy-OPLS-2005>
144.377670288086

> <r_mmod_Electrostatic_Energy-OPLS-2005>
-422.268218994141

> <r_mmod_Solvation_Energy-OPLS-2005>
-201.274765014648

> <b_mmod_Minimization_Converged-OPLS-2005>
0

> <r_mmod_RMS_Derivative-OPLS-2005>
0.238112762570381

$$$$
13
                    3D
 Structure written by MMmdl.
148156  0  0  1  0            999 V2000
  -30.5203  -14.9255   20.4250 C   0  0  0  0  0  0
  -30.4519  -12.5707   19.4896 C   0  0  0  0  0  0
  -29.5242  -12.5323   18.2515 C   0  0  0  0  0  0
  -28.0555  -12.3193   18.6682 C   0  0  0  0  0  0
  -27.6360  -13.2389   19.8440 C   0  0  2  0  0  0
  -28.6821  -13.2334   20.9800 C   0  0  0  0  0  0
  -25.2485  -13.8177   20.5726 C   0  0  0  0  0  0
  -24.1794  -13.0414   20.9242 C   0  0  0  0  0  0
  -24.6402  -11.6901   20.8755 C   0  0  0  0  0  0
  -23.9079  -10.4280   21.0407 C   0  0  0  0  0  0
  -24.3625   -9.4196   21.9186 C   0  0  0  0  0  0
  -23.6294   -8.2235   22.0755 C   0  0  0  0  0  0
  -22.4276   -8.0278   21.3544 C   0  0  0  0  0  0
  -21.9915   -9.0253   20.4646 C   0  0  0  0  0  0
  -22.7250  -10.2128   20.3056 C   0  0  0  0  0  0
  -21.6852   -6.0734   22.5279 C   0  0  0  0  0  0
  -21.4013   -6.5639   23.8212 C   0  0  0  0  0  0
  -21.3659   -5.6792   24.9175 C   0  0  0  0  0  0
  -21.6044   -4.3054   24.7225 C   0  0  0  0  0  0
  -21.8819   -3.8146   23.4346 C   0  0  0  0  0  0
  -21.9192   -4.6962   22.3402 C   0  0  0  0  0  0
  -22.7814  -13.5198   21.1889 C   0  0  0  0  0  0
  -22.1661   -4.2148   21.0980 F   0  0  0  0  0  0
  -21.5629   -3.4538   25.7738 F   0  0  0  0  0  0
  -29.9642  -13.6493   20.3915 N   0  0  0  0  0  0
  -26.2914  -12.9404   20.3253 N   0  0  0  0  0  0
  -25.9332  -11.6540   20.5734 N   0  0  0  0  0  0
  -22.0458  -12.8190   22.0442 N   0  0  0  0  0  0
  -25.4098  -15.1900   20.4164 N   0  0  0  0  0  0
  -31.7158  -15.0466   20.1351 O   0  0  0  0  0  0
  -21.6637   -6.8877   21.4241 O   0  0  0  0  0  0
  -22.3496  -14.5500   20.6727 O   0  0  0  0  0  0
  -24.6433  -31.8448   23.1896 C   0  0  0  0  0  0
  -25.9207  -32.4699   23.8282 C   0  0  1  0  0  0
  -27.2202  -27.1423   20.1444 C   0  0  0  0  0  0
  -25.5955  -33.8506   24.2196 N   0  0  0  0  0  0
  -23.4470  -30.4650   21.5350 C   0  0  2  0  0  0
  -24.8977  -28.8962   20.1088 C   0  0  0  0  0  0
  -22.7569  -29.4550   22.4860 C   0  0  0  0  0  0
  -18.0305  -28.1396   22.8477 C   0  0  0  0  0  0
  -24.1492  -36.7257   23.2642 C   0  0  0  0  0  0
  -26.0037  -30.7191   21.3900 C   0  0  0  0  0  0
  -26.0752  -29.3318   20.7299 C   0  0  0  0  0  0
  -27.2363  -28.4702   20.7339 C   0  0  0  0  0  0
  -26.0173  -26.8151   19.4761 C   0  0  0  0  0  0
  -24.8815  -27.6507   19.4669 C   0  0  0  0  0  0
  -23.6736  -29.7968   20.1536 C   0  0  0  0  0  0
  -25.4124  -36.3035   24.0316 C   0  0  1  0  0  0
  -20.5918  -28.3723   23.1234 C   0  0  2  0  0  0
  -20.6790  -26.9426   22.5403 C   0  0  0  0  0  0
  -19.5762  -26.6382   21.5212 C   0  0  0  0  0  0
  -18.1944  -26.7934   22.1624 C   0  0  0  0  0  0
  -19.1562  -28.8877   23.2847 C   0  0  0  0  0  0
  -18.9478  -30.1473   23.8874 C   0  0  0  0  0  0
  -17.6474  -30.6592   24.0559 C   0  0  0  0  0  0
  -25.9074  -34.9410   23.5064 C   0  0  0  0  0  0
  -16.5365  -29.9084   23.6336 C   0  0  0  0  0  0
  -16.7290  -28.6503   23.0357 C   0  0  0  0  0  0
  -26.4527  -31.6567   25.0724 C   0  0  0  0  0  0
  -25.3709  -31.3756   26.1416 C   0  0  0  0  0  0
  -27.0396  -30.2963   24.6310 C   0  0  0  0  0  0
  -27.6054  -32.4336   25.7510 C   0  0  0  0  0  0
  -27.5576  -37.1786   24.8466 C   0  0  0  0  0  0
  -21.4261  -29.3049   22.3607 N   0  0  0  0  0  0
  -26.4288  -37.3747   23.9407 N   0  0  0  0  0  0
  -24.7177  -31.0305   22.0932 N   0  0  0  0  0  0
  -23.4212  -28.8095   23.3008 O   0  0  0  0  0  0
  -28.2624  -26.1450   20.2266 O   0  0  0  0  0  0
  -26.5659  -34.8905   22.4642 O   0  0  0  0  0  0
  -23.5551  -32.1324   23.7114 O   0  0  0  0  0  0
  -30.0949  -20.0183   20.9457 C   0  0  0  0  0  0
  -30.3753  -18.5812   21.0496 C   0  0  0  0  0  0
  -28.2982  -19.5386   19.5027 C   0  0  0  0  0  0
  -29.0164  -20.5830   20.1727 C   0  0  0  0  0  0
  -29.6174  -17.5438   20.3893 C   0  0  0  0  0  0
  -28.5683  -18.1205   19.6011 C   0  0  0  0  0  0
  -28.8917  -23.3587   20.3695 C   0  0  0  0  0  0
  -27.9382  -24.6483   19.9469 C   0  0  0  0  0  0
  -28.5392  -22.0349   20.0053 N   0  0  0  0  0  0
  -29.6550  -16.0272   20.6184 N   0  0  0  0  0  0
  -29.9204  -23.5725   21.0163 O   0  0  0  0  0  0
  -27.5315  -17.0563   18.7197 Cl  0  0  0  0  0  0
  -31.4833  -12.7416   19.1773 H   0  0  0  0  0  0
  -30.4511  -11.6093   20.0058 H   0  0  0  0  0  0
  -29.8379  -11.7428   17.5673 H   0  0  0  0  0  0
  -29.6139  -13.4692   17.6993 H   0  0  0  0  0  0
  -27.9454  -11.2748   18.9623 H   0  0  0  0  0  0
  -27.3928  -12.4667   17.8146 H   0  0  0  0  0  0
  -27.6065  -14.2459   19.4303 H   0  0  0  0  0  0
  -28.7630  -12.2440   21.4325 H   0  0  0  0  0  0
  -28.3850  -13.9115   21.7817 H   0  0  0  0  0  0
  -25.2769   -9.5670   22.4763 H   0  0  0  0  0  0
  -24.0000   -7.4625   22.7476 H   0  0  0  0  0  0
  -21.0846   -8.8776   19.8952 H   0  0  0  0  0  0
  -22.3712  -10.9670   19.6167 H   0  0  0  0  0  0
  -21.2006   -7.6147   23.9715 H   0  0  0  0  0  0
  -21.1482   -6.0522   25.9078 H   0  0  0  0  0  0
  -22.0599   -2.7608   23.2847 H   0  0  0  0  0  0
  -22.4080  -11.9858   22.4837 H   0  0  0  0  0  0
  -21.1073  -13.1211   22.2642 H   0  0  0  0  0  0
  -24.6223  -15.8218   20.5048 H   0  0  0  0  0  0
  -26.2129  -15.6278   19.9821 H   0  0  0  0  0  0
  -26.7273  -32.5307   23.1011 H   0  0  0  0  0  0
  -25.0080  -33.9622   25.0328 H   0  0  0  0  0  0
  -22.7494  -31.2911   21.3817 H   0  0  0  0  0  0
  -23.3759  -35.9584   23.3293 H   0  0  0  0  0  0
  -24.3576  -36.8900   22.2059 H   0  0  0  0  0  0
  -23.7243  -37.6449   23.6686 H   0  0  0  0  0  0
  -26.1609  -31.4747   20.6190 H   0  0  0  0  0  0
  -26.8734  -30.7675   22.0335 H   0  0  0  0  0  0
  -28.1300  -28.7967   21.2470 H   0  0  0  0  0  0
  -25.9114  -25.8689   18.9682 H   0  0  0  0  0  0
  -23.9846  -27.3138   18.9654 H   0  0  0  0  0  0
  -23.8094  -30.5725   19.3991 H   0  0  0  0  0  0
  -22.7888  -29.2386   19.8424 H   0  0  0  0  0  0
  -25.1312  -36.1864   25.0808 H   0  0  0  0  0  0
  -21.0010  -28.3312   24.1355 H   0  0  0  0  0  0
  -20.5684  -26.2337   23.3622 H   0  0  0  0  0  0
  -21.6655  -26.7432   22.1200 H   0  0  0  0  0  0
  -19.6924  -25.6286   21.1257 H   0  0  0  0  0  0
  -19.6698  -27.3178   20.6731 H   0  0  0  0  0  0
  -17.4212  -26.6676   21.4029 H   0  0  0  0  0  0
  -18.0346  -26.0082   22.9028 H   0  0  0  0  0  0
  -19.7953  -30.7296   24.2233 H   0  0  0  0  0  0
  -17.5027  -31.6270   24.5165 H   0  0  0  0  0  0
  -15.5364  -30.2978   23.7674 H   0  0  0  0  0  0
  -15.8690  -28.0813   22.7086 H   0  0  0  0  0  0
  -24.5896  -30.7096   25.7734 H   0  0  0  0  0  0
  -24.8889  -32.2937   26.4784 H   0  0  0  0  0  0
  -25.7990  -30.8966   27.0231 H   0  0  0  0  0  0
  -26.3019  -29.6682   24.1304 H   0  0  0  0  0  0
  -27.3992  -29.7266   25.4890 H   0  0  0  0  0  0
  -27.8934  -30.4197   23.9644 H   0  0  0  0  0  0
  -27.2644  -33.3655   26.2032 H   0  0  0  0  0  0
  -28.3894  -32.6867   25.0361 H   0  0  0  0  0  0
  -28.0690  -31.8500   26.5473 H   0  0  0  0  0  0
  -28.2587  -38.0089   24.7510 H   0  0  0  0  0  0
  -28.1078  -36.2617   24.6297 H   0  0  0  0  0  0
  -27.2292  -37.1438   25.8868 H   0  0  0  0  0  0
  -20.9472  -29.8764   21.6787 H   0  0  0  0  0  0
  -26.0155  -38.2816   24.1407 H   0  0  0  0  0  0
  -30.7202  -20.6957   21.5105 H   0  0  0  0  0  0
  -31.1776  -18.2768   21.7064 H   0  0  0  0  0  0
  -27.4623  -19.8250   18.8816 H   0  0  0  0  0  0
  -26.9760  -24.4362   20.4142 H   0  0  0  0  0  0
  -27.7778  -24.5562   18.8724 H   0  0  0  0  0  0
  -27.6891  -22.0762   19.4590 H   0  0  0  0  0  0
  -28.7228  -15.6678   20.7529 H   0  0  0  0  0  0
  1 25  1  0  0  0
  1 30  2  0  0  0
  1 80  1  0  0  0
  2  3  1  0  0  0
  2 25  1  0  0  0
  2 83  1  0  0  0
  2 84  1  0  0  0
  3  4  1  0  0  0
  3 85  1  0  0  0
  3 86  1  0  0  0
  4  5  1  0  0  0
  4 87  1  0  0  0
  4 88  1  0  0  0
  5  6  1  0  0  0
  5 26  1  0  0  0
  5 89  1  0  0  0
  6 25  1  0  0  0
  6 90  1  0  0  0
  6 91  1  0  0  0
  7  8  2  0  0  0
  7 26  1  0  0  0
  7 29  1  0  0  0
  8  9  1  0  0  0
  8 22  1  0  0  0
  9 10  1  0  0  0
  9 27  2  0  0  0
 10 11  2  0  0  0
 10 15  1  0  0  0
 11 12  1  0  0  0
 11 92  1  0  0  0
 12 13  2  0  0  0
 12 93  1  0  0  0
 13 14  1  0  0  0
 13 31  1  0  0  0
 14 15  2  0  0  0
 14 94  1  0  0  0
 15 95  1  0  0  0
 16 17  2  0  0  0
 16 21  1  0  0  0
 16 31  1  0  0  0
 17 18  1  0  0  0
 17 96  1  0  0  0
 18 19  2  0  0  0
 18 97  1  0  0  0
 19 20  1  0  0  0
 19 24  1  0  0  0
 20 21  2  0  0  0
 20 98  1  0  0  0
 21 23  1  0  0  0
 22 28  1  0  0  0
 22 32  2  0  0  0
 26 27  1  0  0  0
 28 99  1  0  0  0
 28100  1  0  0  0
 29101  1  0  0  0
 29102  1  0  0  0
 33 34  1  0  0  0
 33 66  1  0  0  0
 33 70  2  0  0  0
 34 36  1  0  0  0
 34 59  1  0  0  0
 34103  1  0  0  0
 35 44  2  0  0  0
 35 45  1  0  0  0
 35 68  1  0  0  0
 36 56  1  0  0  0
 36104  1  0  0  0
 37 39  1  0  0  0
 37 47  1  0  0  0
 37 66  1  0  0  0
 37105  1  0  0  0
 38 43  2  0  0  0
 38 46  1  0  0  0
 38 47  1  0  0  0
 39 64  1  0  0  0
 39 67  2  0  0  0
 40 52  1  0  0  0
 40 53  2  0  0  0
 40 58  1  0  0  0
 41106  1  0  0  0
 41107  1  0  0  0
 41108  1  0  0  0
 41 48  1  0  0  0
 42 43  1  0  0  0
 42 66  1  0  0  0
 42109  1  0  0  0
 42110  1  0  0  0
 43 44  1  0  0  0
 44111  1  0  0  0
 45 46  2  0  0  0
 45112  1  0  0  0
 46113  1  0  0  0
 47114  1  0  0  0
 47115  1  0  0  0
 48 56  1  0  0  0
 48 65  1  0  0  0
 48116  1  0  0  0
 49 50  1  0  0  0
 49 53  1  0  0  0
 49 64  1  0  0  0
 49117  1  0  0  0
 50 51  1  0  0  0
 50118  1  0  0  0
 50119  1  0  0  0
 51 52  1  0  0  0
 51120  1  0  0  0
 51121  1  0  0  0
 52122  1  0  0  0
 52123  1  0  0  0
 53 54  1  0  0  0
 54 55  2  0  0  0
 54124  1  0  0  0
 55 57  1  0  0  0
 55125  1  0  0  0
 56 69  2  0  0  0
 57 58  2  0  0  0
 57126  1  0  0  0
 58127  1  0  0  0
 59 60  1  0  0  0
 59 61  1  0  0  0
 59 62  1  0  0  0
 60128  1  0  0  0
 60129  1  0  0  0
 60130  1  0  0  0
 61131  1  0  0  0
 61132  1  0  0  0
 61133  1  0  0  0
 62134  1  0  0  0
 62135  1  0  0  0
 62136  1  0  0  0
 63 65  1  0  0  0
 63137  1  0  0  0
 63138  1  0  0  0
 63139  1  0  0  0
 64140  1  0  0  0
 65141  1  0  0  0
 68 78  1  0  0  0
 71 72  2  0  0  0
 71 74  1  0  0  0
 71142  1  0  0  0
 72 75  1  0  0  0
 72143  1  0  0  0
 73 74  2  0  0  0
 73 76  1  0  0  0
 73144  1  0  0  0
 74 79  1  0  0  0
 75 76  2  0  0  0
 75 80  1  0  0  0
 76 82  1  0  0  0
 77 78  1  0  0  0
 77 79  1  0  0  0
 77 81  2  0  0  0
 78145  1  0  0  0
 78146  1  0  0  0
 79147  1  0  0  0
 80148  1  0  0  0
M  ISO  4   1 100  68 101  78 101  80 100
M  END
> <chiral flag>
0

> <version>
0

> <s_m_source_file>
/data/baiqing/PycharmProjects/Reinvent-master-3.2/result/LINK_invent/BTK/process_docking_weight1_custom_sum_contain_oxygen_bond_distance_aromatic_linkinvent_7_9_3/rearranged_h_0008.sdf

> <i_m_source_file_index>
14

> <r_mmod_Potential_Energy-OPLS-2005>
400.090301513672

> <r_mmod_Stretch_Energy-OPLS-2005>
219.318695068359

> <r_mmod_Bend_Energy-OPLS-2005>
266.553741455078

> <r_mmod_Torsional_Energy-OPLS-2005>
240.335113525391

> <r_mmod_Improper_Torsional_Energy-OPLS-2005>
6.64368438720703

> <r_mmod_Van_der_Waal_Energy-OPLS-2005>
127.499252319336

> <r_mmod_Electrostatic_Energy-OPLS-2005>
-399.175964355469

> <r_mmod_Solvation_Energy-OPLS-2005>
-245.835098266602

> <b_mmod_Minimization_Converged-OPLS-2005>
1

> <r_mmod_RMS_Derivative-OPLS-2005>
0.0446435287594795

$$$$
14
                    3D
 Structure written by MMmdl.
157165  0  0  1  0            999 V2000
  -30.6383  -14.7555   20.5483 C   0  0  0  0  0  0
  -30.4522  -12.4764   19.4869 C   0  0  0  0  0  0
  -29.5163  -12.5279   18.2585 C   0  0  0  0  0  0
  -28.0411  -12.3375   18.6589 C   0  0  0  0  0  0
  -27.6585  -13.2040   19.8844 C   0  0  2  0  0  0
  -28.7136  -13.0383   21.0028 C   0  0  0  0  0  0
  -25.2581  -13.8112   20.5659 C   0  0  0  0  0  0
  -24.1841  -13.0418   20.9155 C   0  0  0  0  0  0
  -24.6415  -11.6886   20.8774 C   0  0  0  0  0  0
  -23.9087  -10.4293   21.0422 C   0  0  0  0  0  0
  -24.3642   -9.4194   21.9185 C   0  0  0  0  0  0
  -23.6299   -8.2246   22.0788 C   0  0  0  0  0  0
  -22.4291   -8.0293   21.3556 C   0  0  0  0  0  0
  -21.9923   -9.0272   20.4659 C   0  0  0  0  0  0
  -22.7257  -10.2138   20.3075 C   0  0  0  0  0  0
  -21.6859   -6.0766   22.5288 C   0  0  0  0  0  0
  -21.4020   -6.5671   23.8218 C   0  0  0  0  0  0
  -21.3624   -5.6811   24.9167 C   0  0  0  0  0  0
  -21.6028   -4.3081   24.7212 C   0  0  0  0  0  0
  -21.8804   -3.8176   23.4328 C   0  0  0  0  0  0
  -21.9198   -4.6997   22.3388 C   0  0  0  0  0  0
  -22.7854  -13.5236   21.1767 C   0  0  0  0  0  0
  -22.1669   -4.2189   21.0965 F   0  0  0  0  0  0
  -21.5592   -3.4559   25.7719 F   0  0  0  0  0  0
  -29.9960  -13.5176   20.4522 N   0  0  0  0  0  0
  -26.3034  -12.9286   20.3455 N   0  0  0  0  0  0
  -25.9355  -11.6446   20.5869 N   0  0  0  0  0  0
  -22.0538  -12.8250   22.0341 N   0  0  0  0  0  0
  -25.4221  -15.1832   20.4013 N   0  0  0  0  0  0
  -31.7935  -14.8071   20.1198 O   0  0  0  0  0  0
  -21.6640   -6.8898   21.4267 O   0  0  0  0  0  0
  -22.3553  -14.5560   20.6633 O   0  0  0  0  0  0
  -24.6338  -31.8573   23.1975 C   0  0  0  0  0  0
  -25.9158  -32.4769   23.8356 C   0  0  1  0  0  0
  -27.2475  -27.2637   20.1366 C   0  0  0  0  0  0
  -25.5918  -33.8557   24.2271 N   0  0  0  0  0  0
  -23.4310  -30.4803   21.5386 C   0  0  2  0  0  0
  -24.8848  -28.9266   20.1126 C   0  0  0  0  0  0
  -22.7523  -29.4649   22.4896 C   0  0  0  0  0  0
  -18.0320  -28.1368   22.8485 C   0  0  0  0  0  0
  -24.1495  -36.7316   23.2648 C   0  0  0  0  0  0
  -25.9805  -30.7756   21.3744 C   0  0  0  0  0  0
  -26.0592  -29.3947   20.7222 C   0  0  0  0  0  0
  -27.2411  -28.5797   20.7174 C   0  0  0  0  0  0
  -26.0404  -26.8648   19.5119 C   0  0  0  0  0  0
  -24.8833  -27.6682   19.4974 C   0  0  0  0  0  0
  -23.6516  -29.8114   20.1576 C   0  0  0  0  0  0
  -25.4111  -36.3080   24.0344 C   0  0  1  0  0  0
  -20.5922  -28.3727   23.1238 C   0  0  2  0  0  0
  -20.6795  -26.9436   22.5375 C   0  0  0  0  0  0
  -19.5757  -26.6409   21.5188 C   0  0  0  0  0  0
  -18.1957  -26.7899   22.1631 C   0  0  0  0  0  0
  -19.1568  -28.8851   23.2879 C   0  0  0  0  0  0
  -18.9469  -30.1449   23.8920 C   0  0  0  0  0  0
  -17.6441  -30.6545   24.0567 C   0  0  0  0  0  0
  -25.9065  -34.9452   23.5129 C   0  0  0  0  0  0
  -16.5354  -29.9033   23.6298 C   0  0  0  0  0  0
  -16.7304  -28.6456   23.0327 C   0  0  0  0  0  0
  -26.4505  -31.6576   25.0735 C   0  0  0  0  0  0
  -25.3730  -31.3724   26.1464 C   0  0  0  0  0  0
  -27.0374  -30.2997   24.6218 C   0  0  0  0  0  0
  -27.6068  -32.4325   25.7482 C   0  0  0  0  0  0
  -27.5585  -37.1825   24.8472 C   0  0  0  0  0  0
  -21.4229  -29.3105   22.3645 N   0  0  0  0  0  0
  -26.4302  -37.3762   23.9414 N   0  0  0  0  0  0
  -24.7008  -31.0580   22.0924 N   0  0  0  0  0  0
  -23.4213  -28.8194   23.3002 O   0  0  0  0  0  0
  -28.3533  -26.3669   20.1908 O   0  0  0  0  0  0
  -26.5676  -34.8917   22.4710 O   0  0  0  0  0  0
  -23.5475  -32.1397   23.7244 O   0  0  0  0  0  0
  -32.1511  -19.1025   20.4546 C   0  0  0  0  0  0
  -31.7581  -17.7486   20.5968 C   0  0  0  0  0  0
  -29.4717  -18.4853   20.4996 C   0  0  0  0  0  0
  -31.2223  -20.1682   20.3502 C   0  0  0  0  0  0
  -30.3961  -17.3678   20.6279 C   0  0  0  0  0  0
  -29.8358  -19.8858   20.3712 C   0  0  0  0  0  0
  -28.3515  -22.1903   20.1088 C   0  0  0  0  0  0
  -31.7531  -21.5763   20.2006 C   0  0  0  0  0  0
  -28.8342  -15.9287   21.8456 C   0  0  0  0  0  0
  -29.0849  -23.6055   20.3017 C   0  0  0  0  0  0
  -28.0750  -24.8852   20.1282 C   0  0  0  0  0  0
  -28.7391  -20.8561   20.2006 N   0  0  0  0  0  0
  -29.9679  -15.9531   20.9077 N   0  0  0  0  0  0
  -27.1610  -22.2931   19.8163 O   0  0  0  0  0  0
  -31.4801  -12.6211   19.1577 H   0  0  0  0  0  0
  -30.4460  -11.4830   19.9437 H   0  0  0  0  0  0
  -29.8105  -11.7788   17.5221 H   0  0  0  0  0  0
  -29.6318  -13.4988   17.7763 H   0  0  0  0  0  0
  -27.8918  -11.2806   18.8887 H   0  0  0  0  0  0
  -27.3891  -12.5661   17.8171 H   0  0  0  0  0  0
  -27.6787  -14.2383   19.5493 H   0  0  0  0  0  0
  -28.7901  -11.9852   21.2800 H   0  0  0  0  0  0
  -28.4120  -13.4956   21.9352 H   0  0  0  0  0  0
  -25.2791   -9.5647   22.4762 H   0  0  0  0  0  0
  -23.9981   -7.4642   22.7529 H   0  0  0  0  0  0
  -21.0842   -8.8767   19.8985 H   0  0  0  0  0  0
  -22.3688  -10.9678   19.6202 H   0  0  0  0  0  0
  -21.2042   -7.6183   23.9718 H   0  0  0  0  0  0
  -21.1453   -6.0554   25.9059 H   0  0  0  0  0  0
  -22.0625   -2.7658   23.2808 H   0  0  0  0  0  0
  -22.4236  -11.9891   22.4624 H   0  0  0  0  0  0
  -21.1204  -13.1335   22.2680 H   0  0  0  0  0  0
  -24.6593  -15.8333   20.5450 H   0  0  0  0  0  0
  -26.2690  -15.6357   20.0878 H   0  0  0  0  0  0
  -26.7242  -32.5425   23.1125 H   0  0  0  0  0  0
  -24.9967  -33.9696   25.0351 H   0  0  0  0  0  0
  -22.7243  -31.2991   21.3915 H   0  0  0  0  0  0
  -23.3740  -35.9674   23.3309 H   0  0  0  0  0  0
  -24.3612  -36.8940   22.2076 H   0  0  0  0  0  0
  -23.7270  -37.6522   23.6671 H   0  0  0  0  0  0
  -26.1160  -31.5336   20.6000 H   0  0  0  0  0  0
  -26.8577  -30.8268   22.0102 H   0  0  0  0  0  0
  -28.1363  -28.9455   21.2007 H   0  0  0  0  0  0
  -25.9448  -25.9019   19.0365 H   0  0  0  0  0  0
  -23.9895  -27.2931   19.0188 H   0  0  0  0  0  0
  -23.7670  -30.5882   19.3987 H   0  0  0  0  0  0
  -22.7710  -29.2402   19.8574 H   0  0  0  0  0  0
  -25.1267  -36.1957   25.0838 H   0  0  0  0  0  0
  -21.0049  -28.3307   24.1344 H   0  0  0  0  0  0
  -20.5723  -26.2351   23.3606 H   0  0  0  0  0  0
  -21.6649  -26.7478   22.1132 H   0  0  0  0  0  0
  -19.6938  -25.6343   21.1180 H   0  0  0  0  0  0
  -19.6634  -27.3249   20.6734 H   0  0  0  0  0  0
  -17.4222  -26.6680   21.4026 H   0  0  0  0  0  0
  -18.0353  -26.0022   22.9027 H   0  0  0  0  0  0
  -19.7958  -30.7256   24.2311 H   0  0  0  0  0  0
  -17.4984  -31.6207   24.5190 H   0  0  0  0  0  0
  -15.5343  -30.2919   23.7541 H   0  0  0  0  0  0
  -15.8733  -28.0742   22.7018 H   0  0  0  0  0  0
  -24.5877  -30.7107   25.7782 H   0  0  0  0  0  0
  -24.8963  -32.2901   26.4919 H   0  0  0  0  0  0
  -25.8038  -30.8866   27.0231 H   0  0  0  0  0  0
  -26.3020  -29.6767   24.1123 H   0  0  0  0  0  0
  -27.3952  -29.7183   25.4726 H   0  0  0  0  0  0
  -27.8892  -30.4282   23.9538 H   0  0  0  0  0  0
  -27.2672  -33.3609   26.2082 H   0  0  0  0  0  0
  -28.3823  -32.6951   25.0271 H   0  0  0  0  0  0
  -28.0814  -31.8476   26.5370 H   0  0  0  0  0  0
  -28.2594  -38.0118   24.7450 H   0  0  0  0  0  0
  -28.1059  -36.2648   24.6315 H   0  0  0  0  0  0
  -27.2329  -37.1499   25.8879 H   0  0  0  0  0  0
  -20.9427  -29.8861   21.6875 H   0  0  0  0  0  0
  -26.0186  -38.2850   24.1325 H   0  0  0  0  0  0
  -33.2077  -19.3186   20.4364 H   0  0  0  0  0  0
  -32.5407  -17.0160   20.7244 H   0  0  0  0  0  0
  -28.4144  -18.2643   20.5129 H   0  0  0  0  0  0
  -32.8432  -21.6114   20.2425 H   0  0  0  0  0  0
  -31.3688  -22.2045   21.0009 H   0  0  0  0  0  0
  -31.4449  -21.9873   19.2413 H   0  0  0  0  0  0
  -28.5846  -16.9025   22.2673 H   0  0  0  0  0  0
  -29.0533  -15.3246   22.7236 H   0  0  0  0  0  0
  -27.9298  -15.5759   21.3604 H   0  0  0  0  0  0
  -29.8926  -23.6718   19.5761 H   0  0  0  0  0  0
  -29.5471  -23.6236   21.2888 H   0  0  0  0  0  0
  -27.2875  -24.7285   20.8675 H   0  0  0  0  0  0
  -27.6255  -24.7158   19.1518 H   0  0  0  0  0  0
  -27.8878  -20.3389   20.0496 H   0  0  0  0  0  0
  1 25  1  0  0  0
  1 30  2  0  0  0
  1 83  1  0  0  0
  2  3  1  0  0  0
  2 25  1  0  0  0
  2 85  1  0  0  0
  2 86  1  0  0  0
  3  4  1  0  0  0
  3 87  1  0  0  0
  3 88  1  0  0  0
  4  5  1  0  0  0
  4 89  1  0  0  0
  4 90  1  0  0  0
  5  6  1  0  0  0
  5 26  1  0  0  0
  5 91  1  0  0  0
  6 25  1  0  0  0
  6 92  1  0  0  0
  6 93  1  0  0  0
  7  8  2  0  0  0
  7 26  1  0  0  0
  7 29  1  0  0  0
  8  9  1  0  0  0
  8 22  1  0  0  0
  9 10  1  0  0  0
  9 27  2  0  0  0
 10 11  2  0  0  0
 10 15  1  0  0  0
 11 12  1  0  0  0
 11 94  1  0  0  0
 12 13  2  0  0  0
 12 95  1  0  0  0
 13 14  1  0  0  0
 13 31  1  0  0  0
 14 15  2  0  0  0
 14 96  1  0  0  0
 15 97  1  0  0  0
 16 17  2  0  0  0
 16 21  1  0  0  0
 16 31  1  0  0  0
 17 18  1  0  0  0
 17 98  1  0  0  0
 18 19  2  0  0  0
 18 99  1  0  0  0
 19 20  1  0  0  0
 19 24  1  0  0  0
 20 21  2  0  0  0
 20100  1  0  0  0
 21 23  1  0  0  0
 22 28  1  0  0  0
 22 32  2  0  0  0
 26 27  1  0  0  0
 28101  1  0  0  0
 28102  1  0  0  0
 29103  1  0  0  0
 29104  1  0  0  0
 33 34  1  0  0  0
 33 66  1  0  0  0
 33 70  2  0  0  0
 34 36  1  0  0  0
 34 59  1  0  0  0
 34105  1  0  0  0
 35 44  2  0  0  0
 35 45  1  0  0  0
 35 68  1  0  0  0
 36 56  1  0  0  0
 36106  1  0  0  0
 37 39  1  0  0  0
 37 47  1  0  0  0
 37 66  1  0  0  0
 37107  1  0  0  0
 38 43  2  0  0  0
 38 46  1  0  0  0
 38 47  1  0  0  0
 39 64  1  0  0  0
 39 67  2  0  0  0
 40 52  1  0  0  0
 40 53  2  0  0  0
 40 58  1  0  0  0
 41108  1  0  0  0
 41109  1  0  0  0
 41110  1  0  0  0
 41 48  1  0  0  0
 42 43  1  0  0  0
 42 66  1  0  0  0
 42111  1  0  0  0
 42112  1  0  0  0
 43 44  1  0  0  0
 44113  1  0  0  0
 45 46  2  0  0  0
 45114  1  0  0  0
 46115  1  0  0  0
 47116  1  0  0  0
 47117  1  0  0  0
 48 56  1  0  0  0
 48 65  1  0  0  0
 48118  1  0  0  0
 49 50  1  0  0  0
 49 53  1  0  0  0
 49 64  1  0  0  0
 49119  1  0  0  0
 50 51  1  0  0  0
 50120  1  0  0  0
 50121  1  0  0  0
 51 52  1  0  0  0
 51122  1  0  0  0
 51123  1  0  0  0
 52124  1  0  0  0
 52125  1  0  0  0
 53 54  1  0  0  0
 54 55  2  0  0  0
 54126  1  0  0  0
 55 57  1  0  0  0
 55127  1  0  0  0
 56 69  2  0  0  0
 57 58  2  0  0  0
 57128  1  0  0  0
 58129  1  0  0  0
 59 60  1  0  0  0
 59 61  1  0  0  0
 59 62  1  0  0  0
 60130  1  0  0  0
 60131  1  0  0  0
 60132  1  0  0  0
 61133  1  0  0  0
 61134  1  0  0  0
 61135  1  0  0  0
 62136  1  0  0  0
 62137  1  0  0  0
 62138  1  0  0  0
 63 65  1  0  0  0
 63139  1  0  0  0
 63140  1  0  0  0
 63141  1  0  0  0
 64142  1  0  0  0
 65143  1  0  0  0
 68 81  1  0  0  0
 71 72  2  0  0  0
 71 74  1  0  0  0
 71144  1  0  0  0
 72 75  1  0  0  0
 72145  1  0  0  0
 73 75  2  0  0  0
 73 76  1  0  0  0
 73146  1  0  0  0
 74 76  2  0  0  0
 74 78  1  0  0  0
 75 83  1  0  0  0
 76 82  1  0  0  0
 77 80  1  0  0  0
 77 82  1  0  0  0
 77 84  2  0  0  0
 78147  1  0  0  0
 78148  1  0  0  0
 78149  1  0  0  0
 79 83  1  0  0  0
 79150  1  0  0  0
 79151  1  0  0  0
 79152  1  0  0  0
 80 81  1  0  0  0
 80153  1  0  0  0
 80154  1  0  0  0
 81155  1  0  0  0
 81156  1  0  0  0
 82157  1  0  0  0
M  ISO  4   1 100  68 101  81 101  83 100
M  END
> <chiral flag>
0

> <version>
0

> <s_m_source_file>
/data/baiqing/PycharmProjects/Reinvent-master-3.2/result/LINK_invent/BTK/process_docking_weight1_custom_sum_contain_oxygen_bond_distance_aromatic_linkinvent_7_9_3/rearranged_h_0008.sdf

> <i_m_source_file_index>
15

> <r_mmod_Potential_Energy-OPLS-2005>
434.548950195312

> <r_mmod_Stretch_Energy-OPLS-2005>
146.448257446289

> <r_mmod_Bend_Energy-OPLS-2005>
309.847351074219

> <r_mmod_Torsional_Energy-OPLS-2005>
282.413116455078

> <r_mmod_Improper_Torsional_Energy-OPLS-2005>
5.35957002639771

> <r_mmod_Van_der_Waal_Energy-OPLS-2005>
171.573928833008

> <r_mmod_Electrostatic_Energy-OPLS-2005>
-354.434661865234

> <r_mmod_Solvation_Energy-OPLS-2005>
-204.146728515625

> <b_mmod_Minimization_Converged-OPLS-2005>
0

> <r_mmod_RMS_Derivative-OPLS-2005>
5.65521860122681

$$$$
15
                    3D
 Structure written by MMmdl.
157165  0  0  1  0            999 V2000
  -30.6273  -14.6355   20.5162 C   0  0  0  0  0  0
  -30.4457  -12.3929   19.4491 C   0  0  0  0  0  0
  -29.5124  -12.5072   18.2234 C   0  0  0  0  0  0
  -28.0323  -12.3573   18.6340 C   0  0  0  0  0  0
  -27.6578  -13.2189   19.8688 C   0  0  2  0  0  0
  -28.7056  -13.0571   20.9935 C   0  0  0  0  0  0
  -25.2537  -13.8147   20.5658 C   0  0  0  0  0  0
  -24.1825  -13.0419   20.9209 C   0  0  0  0  0  0
  -24.6408  -11.6898   20.8762 C   0  0  0  0  0  0
  -23.9073  -10.4283   21.0412 C   0  0  0  0  0  0
  -24.3625   -9.4190   21.9181 C   0  0  0  0  0  0
  -23.6284   -8.2235   22.0752 C   0  0  0  0  0  0
  -22.4263   -8.0282   21.3547 C   0  0  0  0  0  0
  -21.9902   -9.0259   20.4655 C   0  0  0  0  0  0
  -22.7246  -10.2129   20.3060 C   0  0  0  0  0  0
  -21.6850   -6.0722   22.5276 C   0  0  0  0  0  0
  -21.4019   -6.5628   23.8209 C   0  0  0  0  0  0
  -21.3663   -5.6786   24.9175 C   0  0  0  0  0  0
  -21.6039   -4.3046   24.7225 C   0  0  0  0  0  0
  -21.8822   -3.8133   23.4347 C   0  0  0  0  0  0
  -21.9187   -4.6948   22.3398 C   0  0  0  0  0  0
  -22.7842  -13.5207   21.1865 C   0  0  0  0  0  0
  -22.1655   -4.2134   21.0975 F   0  0  0  0  0  0
  -21.5622   -3.4533   25.7738 F   0  0  0  0  0  0
  -30.0215  -13.4090   20.4324 N   0  0  0  0  0  0
  -26.3010  -12.9360   20.3355 N   0  0  0  0  0  0
  -25.9342  -11.6507   20.5793 N   0  0  0  0  0  0
  -22.0479  -12.8223   22.0444 N   0  0  0  0  0  0
  -25.4156  -15.1852   20.3942 N   0  0  0  0  0  0
  -31.7823  -14.8074   20.1137 O   0  0  0  0  0  0
  -21.6634   -6.8871   21.4240 O   0  0  0  0  0  0
  -22.3528  -14.5501   20.6700 O   0  0  0  0  0  0
  -24.6236  -31.8609   23.2066 C   0  0  0  0  0  0
  -25.9087  -32.4784   23.8387 C   0  0  1  0  0  0
  -27.2252  -27.3284   20.1225 C   0  0  0  0  0  0
  -25.5911  -33.8586   24.2302 N   0  0  0  0  0  0
  -23.4181  -30.4851   21.5465 C   0  0  2  0  0  0
  -24.8667  -28.9457   20.1090 C   0  0  0  0  0  0
  -22.7469  -29.4617   22.4936 C   0  0  0  0  0  0
  -18.0291  -28.1390   22.8471 C   0  0  0  0  0  0
  -24.1468  -36.7279   23.2645 C   0  0  0  0  0  0
  -25.9591  -30.7943   21.3786 C   0  0  0  0  0  0
  -26.0343  -29.4242   20.7174 C   0  0  0  0  0  0
  -27.2165  -28.6270   20.7151 C   0  0  0  0  0  0
  -26.0352  -26.9023   19.4866 C   0  0  0  0  0  0
  -24.8696  -27.6904   19.4831 C   0  0  0  0  0  0
  -23.6343  -29.8250   20.1598 C   0  0  0  0  0  0
  -25.4094  -36.3082   24.0337 C   0  0  1  0  0  0
  -20.5887  -28.3678   23.1285 C   0  0  2  0  0  0
  -20.6765  -26.9396   22.5426 C   0  0  0  0  0  0
  -19.5763  -26.6392   21.5199 C   0  0  0  0  0  0
  -18.1933  -26.7944   22.1590 C   0  0  0  0  0  0
  -19.1542  -28.8853   23.2878 C   0  0  0  0  0  0
  -18.9468  -30.1450   23.8913 C   0  0  0  0  0  0
  -17.6467  -30.6579   24.0578 C   0  0  0  0  0  0
  -25.9043  -34.9452   23.5121 C   0  0  0  0  0  0
  -16.5360  -29.9082   23.6332 C   0  0  0  0  0  0
  -16.7277  -28.6502   23.0345 C   0  0  0  0  0  0
  -26.4491  -31.6600   25.0751 C   0  0  0  0  0  0
  -25.3740  -31.3746   26.1496 C   0  0  0  0  0  0
  -27.0335  -30.3022   24.6218 C   0  0  0  0  0  0
  -27.6062  -32.4341   25.7496 C   0  0  0  0  0  0
  -27.5574  -37.1790   24.8452 C   0  0  0  0  0  0
  -21.4184  -29.3013   22.3657 N   0  0  0  0  0  0
  -26.4270  -37.3776   23.9428 N   0  0  0  0  0  0
  -24.6849  -31.0632   22.1007 N   0  0  0  0  0  0
  -23.4193  -28.8157   23.3018 O   0  0  0  0  0  0
  -28.3440  -26.4836   20.1880 O   0  0  0  0  0  0
  -26.5614  -34.8918   22.4692 O   0  0  0  0  0  0
  -23.5401  -32.1411   23.7400 O   0  0  0  0  0  0
  -30.9460  -19.2861   20.2372 C   0  0  0  0  0  0
  -30.9531  -17.8598   20.2816 C   0  0  0  0  0  0
  -28.7879  -19.3308   21.2850 C   0  0  0  0  0  0
  -28.7915  -17.9028   21.3511 C   0  0  0  0  0  0
  -29.8709  -20.0712   20.7448 C   0  0  0  0  0  0
  -29.8804  -17.1219   20.8491 C   0  0  0  0  0  0
  -28.9853  -22.4598   20.4635 C   0  0  0  0  0  0
  -27.5889  -17.2470   22.0157 C   0  0  0  0  0  0
  -31.2437  -22.0760   21.2977 C   0  0  0  0  0  0
  -29.2564  -24.0251   20.5518 C   0  0  0  0  0  0
  -28.1204  -25.0243   20.0714 C   0  0  0  0  0  0
  -29.8218  -15.6596   20.9369 N   0  0  0  0  0  0
  -29.9639  -21.5428   20.8115 N   0  0  0  0  0  0
  -27.8750  -22.0917   20.0662 O   0  0  0  0  0  0
  -31.4852  -12.5242   19.1434 H   0  0  0  0  0  0
  -30.3877  -11.3972   19.8901 H   0  0  0  0  0  0
  -29.7690  -11.7455   17.4850 H   0  0  0  0  0  0
  -29.6656  -13.4707   17.7345 H   0  0  0  0  0  0
  -27.8556  -11.3044   18.8536 H   0  0  0  0  0  0
  -27.3849  -12.6074   17.7938 H   0  0  0  0  0  0
  -27.6794  -14.2576   19.5400 H   0  0  0  0  0  0
  -28.7202  -12.0293   21.3561 H   0  0  0  0  0  0
  -28.4551  -13.6705   21.8597 H   0  0  0  0  0  0
  -25.2768   -9.5652   22.4762 H   0  0  0  0  0  0
  -23.9985   -7.4612   22.7458 H   0  0  0  0  0  0
  -21.0831   -8.8789   19.8956 H   0  0  0  0  0  0
  -22.3706  -10.9675   19.6176 H   0  0  0  0  0  0
  -21.2027   -7.6137   23.9713 H   0  0  0  0  0  0
  -21.1477   -6.0512   25.9076 H   0  0  0  0  0  0
  -22.0597   -2.7593   23.2859 H   0  0  0  0  0  0
  -22.4095  -11.9911   22.4883 H   0  0  0  0  0  0
  -21.1096  -13.1259   22.2626 H   0  0  0  0  0  0
  -24.6356  -15.8264   20.4794 H   0  0  0  0  0  0
  -26.2394  -15.6185   19.9972 H   0  0  0  0  0  0
  -26.7152  -32.5452   23.1130 H   0  0  0  0  0  0
  -25.0034  -33.9751   25.0433 H   0  0  0  0  0  0
  -22.7100  -31.3046   21.4056 H   0  0  0  0  0  0
  -23.3743  -35.9594   23.3293 H   0  0  0  0  0  0
  -24.3556  -36.8914   22.2060 H   0  0  0  0  0  0
  -23.7200  -37.6469   23.6676 H   0  0  0  0  0  0
  -26.0955  -31.5602   20.6147 H   0  0  0  0  0  0
  -26.8366  -30.8393   22.0117 H   0  0  0  0  0  0
  -28.1091  -28.9875   21.2073 H   0  0  0  0  0  0
  -25.9766  -25.9433   18.9935 H   0  0  0  0  0  0
  -23.9756  -27.3198   18.9999 H   0  0  0  0  0  0
  -23.7587  -30.6046   19.4074 H   0  0  0  0  0  0
  -22.7535  -29.2580   19.8514 H   0  0  0  0  0  0
  -25.1262  -36.1933   25.0827 H   0  0  0  0  0  0
  -20.9994  -28.3266   24.1401 H   0  0  0  0  0  0
  -20.5610  -26.2293   23.3624 H   0  0  0  0  0  0
  -21.6648  -26.7392   22.1261 H   0  0  0  0  0  0
  -19.6922  -25.6311   21.1210 H   0  0  0  0  0  0
  -19.6722  -27.3216   20.6739 H   0  0  0  0  0  0
  -17.4211  -26.6709   21.3982 H   0  0  0  0  0  0
  -18.0313  -26.0077   22.8973 H   0  0  0  0  0  0
  -19.7950  -30.7252   24.2298 H   0  0  0  0  0  0
  -17.5026  -31.6251   24.5191 H   0  0  0  0  0  0
  -15.5362  -30.2980   23.7674 H   0  0  0  0  0  0
  -15.8672  -28.0819   22.7070 H   0  0  0  0  0  0
  -24.5908  -30.7091   25.7845 H   0  0  0  0  0  0
  -24.8943  -32.2917   26.4923 H   0  0  0  0  0  0
  -25.8084  -30.8935   27.0268 H   0  0  0  0  0  0
  -26.2914  -29.6771   24.1240 H   0  0  0  0  0  0
  -27.4024  -29.7283   25.4730 H   0  0  0  0  0  0
  -27.8780  -30.4305   23.9445 H   0  0  0  0  0  0
  -27.2671  -33.3618   26.2114 H   0  0  0  0  0  0
  -28.3827  -32.6948   25.0292 H   0  0  0  0  0  0
  -28.0782  -31.8458   26.5374 H   0  0  0  0  0  0
  -28.2584  -38.0098   24.7515 H   0  0  0  0  0  0
  -28.1076  -36.2635   24.6221 H   0  0  0  0  0  0
  -27.2317  -37.1377   25.8863 H   0  0  0  0  0  0
  -20.9373  -29.8698   21.6825 H   0  0  0  0  0  0
  -26.0144  -38.2835   24.1493 H   0  0  0  0  0  0
  -31.8054  -19.7841   19.8106 H   0  0  0  0  0  0
  -31.8124  -17.3424   19.8786 H   0  0  0  0  0  0
  -27.9484  -19.8664   21.7064 H   0  0  0  0  0  0
  -27.5021  -17.5878   23.0472 H   0  0  0  0  0  0
  -27.6264  -16.1592   22.0436 H   0  0  0  0  0  0
  -26.6749  -17.5297   21.4948 H   0  0  0  0  0  0
  -31.9202  -21.2924   21.6398 H   0  0  0  0  0  0
  -31.0927  -22.7273   22.1595 H   0  0  0  0  0  0
  -31.7639  -22.6406   20.5233 H   0  0  0  0  0  0
  -30.1569  -24.2448   19.9781 H   0  0  0  0  0  0
  -29.4897  -24.2613   21.5898 H   0  0  0  0  0  0
  -27.2184  -24.7705   20.6319 H   0  0  0  0  0  0
  -27.9099  -24.8030   19.0244 H   0  0  0  0  0  0
  -28.9433  -15.3141   21.2894 H   0  0  0  0  0  0
  1 25  1  0  0  0
  1 30  2  0  0  0
  1 82  1  0  0  0
  2  3  1  0  0  0
  2 25  1  0  0  0
  2 85  1  0  0  0
  2 86  1  0  0  0
  3  4  1  0  0  0
  3 87  1  0  0  0
  3 88  1  0  0  0
  4  5  1  0  0  0
  4 89  1  0  0  0
  4 90  1  0  0  0
  5  6  1  0  0  0
  5 26  1  0  0  0
  5 91  1  0  0  0
  6 25  1  0  0  0
  6 92  1  0  0  0
  6 93  1  0  0  0
  7  8  2  0  0  0
  7 26  1  0  0  0
  7 29  1  0  0  0
  8  9  1  0  0  0
  8 22  1  0  0  0
  9 10  1  0  0  0
  9 27  2  0  0  0
 10 11  2  0  0  0
 10 15  1  0  0  0
 11 12  1  0  0  0
 11 94  1  0  0  0
 12 13  2  0  0  0
 12 95  1  0  0  0
 13 14  1  0  0  0
 13 31  1  0  0  0
 14 15  2  0  0  0
 14 96  1  0  0  0
 15 97  1  0  0  0
 16 17  2  0  0  0
 16 21  1  0  0  0
 16 31  1  0  0  0
 17 18  1  0  0  0
 17 98  1  0  0  0
 18 19  2  0  0  0
 18 99  1  0  0  0
 19 20  1  0  0  0
 19 24  1  0  0  0
 20 21  2  0  0  0
 20100  1  0  0  0
 21 23  1  0  0  0
 22 28  1  0  0  0
 22 32  2  0  0  0
 26 27  1  0  0  0
 28101  1  0  0  0
 28102  1  0  0  0
 29103  1  0  0  0
 29104  1  0  0  0
 33 34  1  0  0  0
 33 66  1  0  0  0
 33 70  2  0  0  0
 34 36  1  0  0  0
 34 59  1  0  0  0
 34105  1  0  0  0
 35 44  2  0  0  0
 35 45  1  0  0  0
 35 68  1  0  0  0
 36 56  1  0  0  0
 36106  1  0  0  0
 37 39  1  0  0  0
 37 47  1  0  0  0
 37 66  1  0  0  0
 37107  1  0  0  0
 38 43  2  0  0  0
 38 46  1  0  0  0
 38 47  1  0  0  0
 39 64  1  0  0  0
 39 67  2  0  0  0
 40 52  1  0  0  0
 40 53  2  0  0  0
 40 58  1  0  0  0
 41108  1  0  0  0
 41109  1  0  0  0
 41110  1  0  0  0
 41 48  1  0  0  0
 42 43  1  0  0  0
 42 66  1  0  0  0
 42111  1  0  0  0
 42112  1  0  0  0
 43 44  1  0  0  0
 44113  1  0  0  0
 45 46  2  0  0  0
 45114  1  0  0  0
 46115  1  0  0  0
 47116  1  0  0  0
 47117  1  0  0  0
 48 56  1  0  0  0
 48 65  1  0  0  0
 48118  1  0  0  0
 49 50  1  0  0  0
 49 53  1  0  0  0
 49 64  1  0  0  0
 49119  1  0  0  0
 50 51  1  0  0  0
 50120  1  0  0  0
 50121  1  0  0  0
 51 52  1  0  0  0
 51122  1  0  0  0
 51123  1  0  0  0
 52124  1  0  0  0
 52125  1  0  0  0
 53 54  1  0  0  0
 54 55  2  0  0  0
 54126  1  0  0  0
 55 57  1  0  0  0
 55127  1  0  0  0
 56 69  2  0  0  0
 57 58  2  0  0  0
 57128  1  0  0  0
 58129  1  0  0  0
 59 60  1  0  0  0
 59 61  1  0  0  0
 59 62  1  0  0  0
 60130  1  0  0  0
 60131  1  0  0  0
 60132  1  0  0  0
 61133  1  0  0  0
 61134  1  0  0  0
 61135  1  0  0  0
 62136  1  0  0  0
 62137  1  0  0  0
 62138  1  0  0  0
 63 65  1  0  0  0
 63139  1  0  0  0
 63140  1  0  0  0
 63141  1  0  0  0
 64142  1  0  0  0
 65143  1  0  0  0
 68 81  1  0  0  0
 71 72  2  0  0  0
 71 75  1  0  0  0
 71144  1  0  0  0
 72 76  1  0  0  0
 72145  1  0  0  0
 73 74  1  0  0  0
 73 75  2  0  0  0
 73146  1  0  0  0
 74 76  2  0  0  0
 74 78  1  0  0  0
 75 83  1  0  0  0
 76 82  1  0  0  0
 77 80  1  0  0  0
 77 83  1  0  0  0
 77 84  2  0  0  0
 78147  1  0  0  0
 78148  1  0  0  0
 78149  1  0  0  0
 79 83  1  0  0  0
 79150  1  0  0  0
 79151  1  0  0  0
 79152  1  0  0  0
 80 81  1  0  0  0
 80153  1  0  0  0
 80154  1  0  0  0
 81155  1  0  0  0
 81156  1  0  0  0
 82157  1  0  0  0
M  ISO  4   1 100  68 101  81 101  82 100
M  END
> <chiral flag>
0

> <version>
0

> <s_m_source_file>
/data/baiqing/PycharmProjects/Reinvent-master-3.2/result/LINK_invent/BTK/process_docking_weight1_custom_sum_contain_oxygen_bond_distance_aromatic_linkinvent_7_9_3/rearranged_h_0008.sdf

> <i_m_source_file_index>
16

> <r_mmod_Potential_Energy-OPLS-2005>
73.7794799804688

> <r_mmod_Stretch_Energy-OPLS-2005>
83.8426361083984

> <r_mmod_Bend_Energy-OPLS-2005>
137.65217590332

> <r_mmod_Torsional_Energy-OPLS-2005>
255.797714233398

> <r_mmod_Improper_Torsional_Energy-OPLS-2005>
4.22122955322266

> <r_mmod_Van_der_Waal_Energy-OPLS-2005>
156.102554321289

> <r_mmod_Electrostatic_Energy-OPLS-2005>
-394.156921386719

> <r_mmod_Solvation_Energy-OPLS-2005>
-216.093215942383

> <b_mmod_Minimization_Converged-OPLS-2005>
0

> <r_mmod_RMS_Derivative-OPLS-2005>
2.12511038780212

$$$$
16
                    3D
 Structure written by MMmdl.
210218  0  0  1  0            999 V2000
  -30.4185  -14.8443   20.7255 C   0  0  0  0  0  0
  -30.4526  -12.5855   19.5083 C   0  0  0  0  0  0
  -29.5279  -12.5596   18.2635 C   0  0  0  0  0  0
  -28.0540  -12.3314   18.6601 C   0  0  0  0  0  0
  -27.6323  -13.2090   19.8679 C   0  0  2  0  0  0
  -28.6475  -13.0925   21.0150 C   0  0  0  0  0  0
  -25.2426  -13.8049   20.5531 C   0  0  0  0  0  0
  -24.1799  -13.0391   20.9137 C   0  0  0  0  0  0
  -24.6356  -11.6803   20.8775 C   0  0  0  0  0  0
  -23.9044  -10.4233   21.0471 C   0  0  0  0  0  0
  -24.3617   -9.4128   21.9235 C   0  0  0  0  0  0
  -23.6298   -8.2171   22.0762 C   0  0  0  0  0  0
  -22.4282   -8.0233   21.3536 C   0  0  0  0  0  0
  -21.9915   -9.0205   20.4643 C   0  0  0  0  0  0
  -22.7221  -10.2088   20.3093 C   0  0  0  0  0  0
  -21.6824   -6.0731   22.5284 C   0  0  0  0  0  0
  -21.4002   -6.5646   23.8212 C   0  0  0  0  0  0
  -21.3676   -5.6807   24.9185 C   0  0  0  0  0  0
  -21.6040   -4.3065   24.7227 C   0  0  0  0  0  0
  -21.8810   -3.8146   23.4353 C   0  0  0  0  0  0
  -21.9165   -4.6962   22.3406 C   0  0  0  0  0  0
  -22.7832  -13.5170   21.1844 C   0  0  0  0  0  0
  -22.1649   -4.2144   21.0986 F   0  0  0  0  0  0
  -21.5621   -3.4552   25.7749 F   0  0  0  0  0  0
  -29.9147  -13.5811   20.4776 N   0  0  0  0  0  0
  -26.2853  -12.9240   20.3217 N   0  0  0  0  0  0
  -25.9280  -11.6401   20.5785 N   0  0  0  0  0  0
  -22.0479  -12.8217   22.0373 N   0  0  0  0  0  0
  -25.4010  -15.1810   20.3705 N   0  0  0  0  0  0
  -31.6177  -15.0527   20.4629 O   0  0  0  0  0  0
  -21.6603   -6.8876   21.4247 O   0  0  0  0  0  0
  -22.3596  -14.5533   20.6662 O   0  0  0  0  0  0
  -24.8245  -31.8260   23.2730 C   0  0  0  0  0  0
  -26.1265  -32.4580   23.8308 C   0  0  1  0  0  0
  -27.2299  -27.5694   19.9970 C   0  0  0  0  0  0
  -25.7671  -33.8583   24.2197 N   0  0  0  0  0  0
  -23.4137  -30.3035   21.5665 C   0  0  2  0  0  0
  -24.8231  -28.8456   20.1404 C   0  0  0  0  0  0
  -22.7393  -29.1574   22.2763 C   0  0  0  0  0  0
  -17.9760  -28.0807   22.7738 C   0  0  0  0  0  0
  -24.1570  -36.7160   23.2223 C   0  0  0  0  0  0
  -25.9498  -30.5058   21.7172 C   0  0  0  0  0  0
  -25.9103  -29.2527   20.9334 C   0  0  0  0  0  0
  -27.0599  -28.4837   21.0210 C   0  0  0  0  0  0
  -26.1289  -26.9693   19.3604 C   0  0  0  0  0  0
  -24.8898  -27.6312   19.4236 C   0  0  0  0  0  0
  -23.5949  -29.6980   20.1570 C   0  0  0  0  0  0
  -25.4166  -36.2980   23.9952 C   0  0  1  0  0  0
  -20.5218  -28.2817   23.0914 C   0  0  2  0  0  0
  -20.5608  -26.8267   22.6178 C   0  0  0  0  0  0
  -19.5709  -26.5859   21.4889 C   0  0  0  0  0  0
  -18.1693  -26.7387   22.0788 C   0  0  0  0  0  0
  -19.0855  -28.8315   23.2341 C   0  0  0  0  0  0
  -18.8158  -30.0561   23.8890 C   0  0  0  0  0  0
  -17.5232  -30.5774   24.0208 C   0  0  0  0  0  0
  -25.9630  -34.9461   23.4731 C   0  0  0  0  0  0
  -16.4388  -29.8194   23.5619 C   0  0  0  0  0  0
  -16.6627  -28.5654   22.9621 C   0  0  0  0  0  0
  -26.6346  -31.6752   25.1269 C   0  0  0  0  0  0
  -25.6104  -31.4799   26.2850 C   0  0  0  0  0  0
  -27.2069  -30.2711   24.8081 C   0  0  0  0  0  0
  -27.8369  -32.4503   25.7139 C   0  0  0  0  0  0
  -27.5523  -37.2075   24.8146 C   0  0  0  0  0  0
  -21.3881  -29.0992   22.2464 N   0  0  0  0  0  0
  -26.4065  -37.3945   23.9276 N   0  0  0  0  0  0
  -24.6730  -30.9593   22.2027 N   0  0  0  0  0  0
  -23.4407  -28.3008   22.7661 O   0  0  0  0  0  0
  -28.2217  -27.9832   19.1845 O   0  0  0  0  0  0
  -26.5928  -34.9004   22.4203 O   0  0  0  0  0  0
  -23.9430  -32.1873   23.9923 O   0  0  0  0  0  0
  -27.4646  -20.6460   23.3282 C   0  0  0  0  0  0
  -25.7526  -17.9618   23.3815 C   0  0  0  0  0  0
  -25.7877  -31.5196   18.3599 C   0  0  0  0  0  0
  -29.0957  -18.6239   21.8240 C   0  0  0  0  0  0
  -27.8208  -16.8326   22.7314 C   0  0  0  0  0  0
  -27.6963  -19.3103   22.3285 C   0  0  1  0  0  0
  -29.2241  -17.0229   22.0923 C   0  0  1  0  0  0
  -27.2142  -24.6078   25.2457 C   0  0  0  0  0  0
  -24.1605  -19.6205   24.5162 C   0  0  0  0  0  0
  -23.3307  -17.9805   22.7993 C   0  0  0  0  0  0
  -24.4988  -19.9895   22.0505 C   0  0  0  0  0  0
  -27.3313  -22.3705   21.5650 C   0  0  0  0  0  0
  -26.7109  -30.1524   18.0721 C   0  0  0  0  0  0
  -21.5547  -31.6962   23.4513 C   0  0  0  0  0  0
  -22.0897  -30.6018   24.7734 C   0  0  0  0  0  0
  -22.1589  -32.9456   22.3883 C   0  0  0  0  0  0
  -23.3699  -29.5000   25.1459 C   0  0  0  0  0  0
  -22.7206  -32.9747   20.7738 C   0  0  0  0  0  0
  -23.4928  -27.8048   25.3248 C   0  0  0  0  0  0
  -24.2496  -33.1153   20.0801 C   0  0  0  0  0  0
  -26.0108  -22.9246   23.6620 C   0  0  0  0  0  0
  -24.8832  -26.9068   24.9443 C   0  0  0  0  0  0
  -28.0510  -29.4821   18.8084 C   0  0  0  0  0  0
  -26.1670  -24.5396   24.1148 C   0  0  1  0  0  0
  -24.5079  -18.9149   23.1782 C   0  0  0  0  0  0
  -26.9927  -18.0879   22.8104 N   0  0  0  0  0  0
  -25.2461  -32.0092   19.5621 N   0  0  0  0  0  0
  -29.4716  -15.8544   21.0513 N   0  0  0  0  0  0
  -27.0652  -21.9635   22.9505 N   0  0  0  0  0  0
  -24.8781  -25.3833   24.5174 N   0  3  0  0  0  0
  -27.5016  -20.3991   24.5359 O   0  0  0  0  0  0
  -25.5357  -16.9662   24.0859 O   0  0  0  0  0  0
  -25.4294  -32.1144   17.3412 O   0  0  0  0  0  0
  -31.4803  -12.8188   19.2210 H   0  0  0  0  0  0
  -30.4834  -11.6001   19.9744 H   0  0  0  0  0  0
  -29.8578  -11.7903   17.5661 H   0  0  0  0  0  0
  -29.6085  -13.5034   17.7238 H   0  0  0  0  0  0
  -27.9431  -11.2796   18.9229 H   0  0  0  0  0  0
  -27.3939  -12.4983   17.8075 H   0  0  0  0  0  0
  -27.6395  -14.2382   19.5129 H   0  0  0  0  0  0
  -28.7398  -12.0570   21.3436 H   0  0  0  0  0  0
  -28.3379  -13.6560   21.8957 H   0  0  0  0  0  0
  -25.2764   -9.5588   22.4816 H   0  0  0  0  0  0
  -23.9949   -7.4565   22.7517 H   0  0  0  0  0  0
  -21.0821   -8.8750   19.8990 H   0  0  0  0  0  0
  -22.3689  -10.9650   19.6215 H   0  0  0  0  0  0
  -21.2018   -7.6159   23.9718 H   0  0  0  0  0  0
  -21.1526   -6.0553   25.9094 H   0  0  0  0  0  0
  -22.0583   -2.7606   23.2850 H   0  0  0  0  0  0
  -22.4084  -11.9823   22.4688 H   0  0  0  0  0  0
  -21.1151  -13.1315   22.2736 H   0  0  0  0  0  0
  -24.5571  -15.7373   20.3086 H   0  0  0  0  0  0
  -26.1961  -15.6162   19.9272 H   0  0  0  0  0  0
  -26.9331  -32.4878   23.0958 H   0  0  0  0  0  0
  -25.1531  -33.9590   25.0182 H   0  0  0  0  0  0
  -22.5415  -30.8685   21.4623 H   0  0  0  0  0  0
  -23.4148  -35.9176   23.2240 H   0  0  0  0  0  0
  -24.3738  -36.9817   22.1845 H   0  0  0  0  0  0
  -23.6830  -37.5735   23.6937 H   0  0  0  0  0  0
  -26.6230  -31.2402   21.2869 H   0  0  0  0  0  0
  -26.4955  -30.1646   22.5674 H   0  0  0  0  0  0
  -27.9151  -28.8888   21.5441 H   0  0  0  0  0  0
  -26.2627  -26.2347   18.5755 H   0  0  0  0  0  0
  -24.0805  -27.2869   18.7890 H   0  0  0  0  0  0
  -23.5233  -30.4130   19.3457 H   0  0  0  0  0  0
  -22.7490  -29.0684   19.8690 H   0  0  0  0  0  0
  -25.1310  -36.1530   25.0408 H   0  0  0  0  0  0
  -20.9124  -28.2761   24.1019 H   0  0  0  0  0  0
  -20.2476  -26.2001   23.4572 H   0  0  0  0  0  0
  -21.5587  -26.4832   22.3651 H   0  0  0  0  0  0
  -19.6985  -25.5812   21.0784 H   0  0  0  0  0  0
  -19.7378  -27.2869   20.6655 H   0  0  0  0  0  0
  -17.4318  -26.5986   21.2873 H   0  0  0  0  0  0
  -17.9998  -25.9359   22.8013 H   0  0  0  0  0  0
  -19.5644  -30.6420   24.3546 H   0  0  0  0  0  0
  -17.3657  -31.5317   24.5043 H   0  0  0  0  0  0
  -15.4316  -30.1943   23.6759 H   0  0  0  0  0  0
  -15.8184  -27.9729   22.6239 H   0  0  0  0  0  0
  -25.8962  -32.0864   27.1444 H   0  0  0  0  0  0
  -25.6032  -30.4454   26.6436 H   0  0  0  0  0  0
  -24.5929  -31.7934   26.1010 H   0  0  0  0  0  0
  -26.4253  -29.5595   24.5634 H   0  0  0  0  0  0
  -27.6967  -29.8473   25.6879 H   0  0  0  0  0  0
  -27.9832  -30.2664   24.0361 H   0  0  0  0  0  0
  -27.6365  -33.5055   25.9038 H   0  0  0  0  0  0
  -28.7018  -32.4165   25.0440 H   0  0  0  0  0  0
  -28.1930  -32.0360   26.6571 H   0  0  0  0  0  0
  -28.2347  -38.0553   24.7283 H   0  0  0  0  0  0
  -28.1229  -36.3098   24.5816 H   0  0  0  0  0  0
  -27.2353  -37.1537   25.8563 H   0  0  0  0  0  0
  -20.9228  -29.8240   21.7136 H   0  0  0  0  0  0
  -25.9665  -38.2789   24.1700 H   0  0  0  0  0  0
  -29.9421  -19.1334   22.2886 H   0  0  0  0  0  0
  -29.1950  -18.7901   20.7524 H   0  0  0  0  0  0
  -27.9655  -16.3994   23.7222 H   0  0  0  0  0  0
  -27.2346  -16.1081   22.1632 H   0  0  0  0  0  0
  -27.2187  -19.5360   21.3813 H   0  0  0  0  0  0
  -29.9726  -16.8785   22.8733 H   0  0  0  0  0  0
  -28.1577  -24.1725   24.9219 H   0  0  0  0  0  0
  -26.8965  -24.0539   26.1300 H   0  0  0  0  0  0
  -27.4348  -25.6255   25.5623 H   0  0  0  0  0  0
  -23.1938  -20.1266   24.4639 H   0  0  0  0  0  0
  -24.8973  -20.3782   24.7704 H   0  0  0  0  0  0
  -24.1064  -18.9370   25.3641 H   0  0  0  0  0  0
  -23.0767  -17.2674   23.5850 H   0  0  0  0  0  0
  -23.5941  -17.3905   21.9190 H   0  0  0  0  0  0
  -22.4203  -18.5336   22.5618 H   0  0  0  0  0  0
  -25.4365  -20.3863   21.7222 H   0  0  0  0  0  0
  -23.9269  -20.8675   22.3636 H   0  0  0  0  0  0
  -24.0267  -19.6217   21.1411 H   0  0  0  0  0  0
  -26.4188  -22.6713   21.0463 H   0  0  0  0  0  0
  -27.7920  -21.5816   20.9656 H   0  0  0  0  0  0
  -28.0377  -23.2047   21.5488 H   0  0  0  0  0  0
  -27.0708  -30.3009   17.0380 H   0  0  0  0  0  0
  -26.0024  -29.3364   17.9226 H   0  0  0  0  0  0
  -20.9055  -32.3211   24.0664 H   0  0  0  0  0  0
  -20.7881  -31.2524   22.8405 H   0  0  0  0  0  0
  -21.2313  -30.0762   25.1646 H   0  0  0  0  0  0
  -22.2013  -31.3141   25.5930 H   0  0  0  0  0  0
  -22.6830  -33.7340   22.9350 H   0  0  0  0  0  0
  -21.2263  -33.4856   22.2431 H   0  0  0  0  0  0
  -23.6443  -29.8250   26.1464 H   0  0  0  0  0  0
  -24.2319  -29.7617   24.5606 H   0  0  0  0  0  0
  -22.3523  -33.9720   20.5217 H   0  0  0  0  0  0
  -22.0900  -32.3634   20.1189 H   0  0  0  0  0  0
  -22.6579  -27.3205   24.8256 H   0  0  0  0  0  0
  -23.2715  -27.5827   26.3722 H   0  0  0  0  0  0
  -24.8049  -33.7437   20.7756 H   0  0  0  0  0  0
  -24.1005  -33.7701   19.2206 H   0  0  0  0  0  0
  -25.1260  -22.8995   23.0251 H   0  0  0  0  0  0
  -25.6944  -22.3920   24.5551 H   0  0  0  0  0  0
  -25.5318  -26.9436   25.8199 H   0  0  0  0  0  0
  -25.4364  -27.4344   24.1683 H   0  0  0  0  0  0
  -28.3324  -30.0980   19.6651 H   0  0  0  0  0  0
  -28.8975  -29.6665   18.1493 H   0  0  0  0  0  0
  -26.5844  -25.0692   23.2561 H   0  0  0  0  0  0
  -25.6513  -31.5117   20.3435 H   0  0  0  0  0  0
  -28.5760  -15.4901   20.7672 H   0  0  0  0  0  0
  -24.2443  -25.3311   23.7341 H   0  0  0  0  0  0
  -24.4514  -24.8812   25.2776 H   0  0  0  0  0  0
  1 25  1  0  0  0
  1 30  2  0  0  0
  1 98  1  0  0  0
  2  3  1  0  0  0
  2 25  1  0  0  0
  2104  1  0  0  0
  2105  1  0  0  0
  3  4  1  0  0  0
  3106  1  0  0  0
  3107  1  0  0  0
  4  5  1  0  0  0
  4108  1  0  0  0
  4109  1  0  0  0
  5  6  1  0  0  0
  5 26  1  0  0  0
  5110  1  0  0  0
  6 25  1  0  0  0
  6111  1  0  0  0
  6112  1  0  0  0
  7  8  2  0  0  0
  7 26  1  0  0  0
  7 29  1  0  0  0
  8  9  1  0  0  0
  8 22  1  0  0  0
  9 10  1  0  0  0
  9 27  2  0  0  0
 10 11  2  0  0  0
 10 15  1  0  0  0
 11 12  1  0  0  0
 11113  1  0  0  0
 12 13  2  0  0  0
 12114  1  0  0  0
 13 14  1  0  0  0
 13 31  1  0  0  0
 14 15  2  0  0  0
 14115  1  0  0  0
 15116  1  0  0  0
 16 17  2  0  0  0
 16 21  1  0  0  0
 16 31  1  0  0  0
 17 18  1  0  0  0
 17117  1  0  0  0
 18 19  2  0  0  0
 18118  1  0  0  0
 19 20  1  0  0  0
 19 24  1  0  0  0
 20 21  2  0  0  0
 20119  1  0  0  0
 21 23  1  0  0  0
 22 28  1  0  0  0
 22 32  2  0  0  0
 26 27  1  0  0  0
 28120  1  0  0  0
 28121  1  0  0  0
 29122  1  0  0  0
 29123  1  0  0  0
 33 34  1  0  0  0
 33 66  1  0  0  0
 33 70  2  0  0  0
 34 36  1  0  0  0
 34 59  1  0  0  0
 34124  1  0  0  0
 35 44  2  0  0  0
 35 45  1  0  0  0
 35 68  1  0  0  0
 36 56  1  0  0  0
 36125  1  0  0  0
 37 39  1  0  0  0
 37 47  1  0  0  0
 37 66  1  0  0  0
 37126  1  0  0  0
 38 43  2  0  0  0
 38 46  1  0  0  0
 38 47  1  0  0  0
 39 64  1  0  0  0
 39 67  2  0  0  0
 40 52  1  0  0  0
 40 53  2  0  0  0
 40 58  1  0  0  0
 41127  1  0  0  0
 41128  1  0  0  0
 41129  1  0  0  0
 41 48  1  0  0  0
 42 43  1  0  0  0
 42 66  1  0  0  0
 42130  1  0  0  0
 42131  1  0  0  0
 43 44  1  0  0  0
 44132  1  0  0  0
 45 46  2  0  0  0
 45133  1  0  0  0
 46134  1  0  0  0
 47135  1  0  0  0
 47136  1  0  0  0
 48 56  1  0  0  0
 48 65  1  0  0  0
 48137  1  0  0  0
 49 50  1  0  0  0
 49 53  1  0  0  0
 49 64  1  0  0  0
 49138  1  0  0  0
 50 51  1  0  0  0
 50139  1  0  0  0
 50140  1  0  0  0
 51 52  1  0  0  0
 51141  1  0  0  0
 51142  1  0  0  0
 52143  1  0  0  0
 52144  1  0  0  0
 53 54  1  0  0  0
 54 55  2  0  0  0
 54145  1  0  0  0
 55 57  1  0  0  0
 55146  1  0  0  0
 56 69  2  0  0  0
 57 58  2  0  0  0
 57147  1  0  0  0
 58148  1  0  0  0
 59 60  1  0  0  0
 59 61  1  0  0  0
 59 62  1  0  0  0
 60149  1  0  0  0
 60150  1  0  0  0
 60151  1  0  0  0
 61152  1  0  0  0
 61153  1  0  0  0
 61154  1  0  0  0
 62155  1  0  0  0
 62156  1  0  0  0
 62157  1  0  0  0
 63 65  1  0  0  0
 63158  1  0  0  0
 63159  1  0  0  0
 63160  1  0  0  0
 64161  1  0  0  0
 65162  1  0  0  0
 68 93  1  0  0  0
 71 99  1  0  0  0
 71101  2  0  0  0
 71 76  1  0  0  0
 72 95  1  0  0  0
 72 96  1  0  0  0
 72102  2  0  0  0
 73 83  1  0  0  0
 73 97  1  0  0  0
 73103  2  0  0  0
 74 76  1  0  0  0
 74 77  1  0  0  0
 74163  1  0  0  0
 74164  1  0  0  0
 75 77  1  0  0  0
 75 96  1  0  0  0
 75165  1  0  0  0
 75166  1  0  0  0
 76 96  1  0  0  0
 76167  1  0  0  0
 77 98  1  0  0  0
 77168  1  0  0  0
 78169  1  0  0  0
 78170  1  0  0  0
 78171  1  0  0  0
 78 94  1  0  0  0
 79172  1  0  0  0
 79173  1  0  0  0
 79174  1  0  0  0
 79 95  1  0  0  0
 80 95  1  0  0  0
 80175  1  0  0  0
 80176  1  0  0  0
 80177  1  0  0  0
 81 95  1  0  0  0
 81178  1  0  0  0
 81179  1  0  0  0
 81180  1  0  0  0
 82 99  1  0  0  0
 82181  1  0  0  0
 82182  1  0  0  0
 82183  1  0  0  0
 83 93  1  0  0  0
 83184  1  0  0  0
 83185  1  0  0  0
 84 85  1  0  0  0
 84 86  1  0  0  0
 84186  1  0  0  0
 84187  1  0  0  0
 85 87  1  0  0  0
 85188  1  0  0  0
 85189  1  0  0  0
 86 88  1  0  0  0
 86190  1  0  0  0
 86191  1  0  0  0
 87 89  1  0  0  0
 87192  1  0  0  0
 87193  1  0  0  0
 88 90  1  0  0  0
 88194  1  0  0  0
 88195  1  0  0  0
 89 92  1  0  0  0
 89196  1  0  0  0
 89197  1  0  0  0
 90 97  1  0  0  0
 90198  1  0  0  0
 90199  1  0  0  0
 91 94  1  0  0  0
 91 99  1  0  0  0
 91200  1  0  0  0
 91201  1  0  0  0
 92100  1  0  0  0
 92202  1  0  0  0
 92203  1  0  0  0
 93204  1  0  0  0
 93205  1  0  0  0
 94100  1  0  0  0
 94206  1  0  0  0
 97207  1  0  0  0
 98208  1  0  0  0
100209  1  0  0  0
100210  1  0  0  0
M  CHG  1 100   1
M  ISO  4   1 100  68 101  93 101  98 100
M  END
> <chiral flag>
0

> <version>
0

> <s_m_source_file>
/data/baiqing/PycharmProjects/Reinvent-master-3.2/result/LINK_invent/BTK/process_docking_weight1_custom_sum_contain_oxygen_bond_distance_aromatic_linkinvent_7_9_3/rearranged_h_0008.sdf

> <i_m_source_file_index>
17

> <r_mmod_Potential_Energy-OPLS-2005>
2529.22680664062

> <r_mmod_Stretch_Energy-OPLS-2005>
728.937194824219

> <r_mmod_Bend_Energy-OPLS-2005>
1015.98840332031

> <r_mmod_Torsional_Energy-OPLS-2005>
553.119873046875

> <r_mmod_Improper_Torsional_Energy-OPLS-2005>
31.778392791748

> <r_mmod_Van_der_Waal_Energy-OPLS-2005>
515.127136230469

> <r_mmod_Electrostatic_Energy-OPLS-2005>
-404.896209716797

> <r_mmod_Solvation_Energy-OPLS-2005>
-471.709777832031

> <b_mmod_Minimization_Converged-OPLS-2005>
0

> <r_mmod_RMS_Derivative-OPLS-2005>
14.7148656845093

$$$$
17
                    3D
 Structure written by MMmdl.
165173  0  0  1  0            999 V2000
  -30.5227  -15.0470   20.4182 C   0  0  0  0  0  0
  -30.4438  -12.6613   19.5019 C   0  0  0  0  0  0
  -29.5257  -12.5413   18.2620 C   0  0  0  0  0  0
  -28.0647  -12.3044   18.6866 C   0  0  0  0  0  0
  -27.6241  -13.2547   19.8297 C   0  0  2  0  0  0
  -28.6675  -13.3368   20.9647 C   0  0  0  0  0  0
  -25.2449  -13.8217   20.5713 C   0  0  0  0  0  0
  -24.1777  -13.0433   20.9235 C   0  0  0  0  0  0
  -24.6403  -11.6923   20.8753 C   0  0  0  0  0  0
  -23.9087  -10.4291   21.0404 C   0  0  0  0  0  0
  -24.3628   -9.4206   21.9181 C   0  0  0  0  0  0
  -23.6297   -8.2247   22.0757 C   0  0  0  0  0  0
  -22.4282   -8.0282   21.3546 C   0  0  0  0  0  0
  -21.9921   -9.0257   20.4649 C   0  0  0  0  0  0
  -22.7258  -10.2131   20.3056 C   0  0  0  0  0  0
  -21.6853   -6.0736   22.5278 C   0  0  0  0  0  0
  -21.4016   -6.5636   23.8208 C   0  0  0  0  0  0
  -21.3662   -5.6792   24.9170 C   0  0  0  0  0  0
  -21.6041   -4.3053   24.7224 C   0  0  0  0  0  0
  -21.8820   -3.8145   23.4343 C   0  0  0  0  0  0
  -21.9192   -4.6965   22.3400 C   0  0  0  0  0  0
  -22.7797  -13.5207   21.1876 C   0  0  0  0  0  0
  -22.1660   -4.2146   21.0980 F   0  0  0  0  0  0
  -21.5628   -3.4541   25.7736 F   0  0  0  0  0  0
  -29.9271  -13.7790   20.3513 N   0  0  0  0  0  0
  -26.2872  -12.9460   20.3224 N   0  0  0  0  0  0
  -25.9338  -11.6586   20.5734 N   0  0  0  0  0  0
  -22.0447  -12.8198   22.0427 N   0  0  0  0  0  0
  -25.4091  -15.1953   20.4137 N   0  0  0  0  0  0
  -31.7394  -15.0756   20.1983 O   0  0  0  0  0  0
  -21.6643   -6.8882   21.4244 O   0  0  0  0  0  0
  -22.3481  -14.5508   20.6711 O   0  0  0  0  0  0
  -24.6488  -31.8363   23.1834 C   0  0  0  0  0  0
  -25.9229  -32.4660   23.8234 C   0  0  1  0  0  0
  -27.2139  -27.0684   20.1647 C   0  0  0  0  0  0
  -25.5954  -33.8466   24.2149 N   0  0  0  0  0  0
  -23.4564  -30.4544   21.5287 C   0  0  2  0  0  0
  -24.9085  -28.8722   20.1068 C   0  0  0  0  0  0
  -22.7583  -29.4511   22.4824 C   0  0  0  0  0  0
  -18.0307  -28.1389   22.8459 C   0  0  0  0  0  0
  -24.1499  -36.7240   23.2645 C   0  0  0  0  0  0
  -26.0166  -30.6894   21.3927 C   0  0  0  0  0  0
  -26.0877  -29.2948   20.7340 C   0  0  0  0  0  0
  -27.2393  -28.4099   20.7459 C   0  0  0  0  0  0
  -26.0107  -26.7683   19.4879 C   0  0  0  0  0  0
  -24.8878  -27.6244   19.4654 C   0  0  0  0  0  0
  -23.6872  -29.7813   20.1494 C   0  0  0  0  0  0
  -25.4132  -36.3013   24.0319 C   0  0  1  0  0  0
  -20.5919  -28.3725   23.1216 C   0  0  2  0  0  0
  -20.6792  -26.9427   22.5403 C   0  0  0  0  0  0
  -19.5774  -26.6372   21.5209 C   0  0  0  0  0  0
  -18.1945  -26.7927   22.1606 C   0  0  0  0  0  0
  -19.1564  -28.8875   23.2822 C   0  0  0  0  0  0
  -18.9484  -30.1458   23.8866 C   0  0  0  0  0  0
  -17.6489  -30.6588   24.0550 C   0  0  0  0  0  0
  -25.9088  -34.9393   23.5044 C   0  0  0  0  0  0
  -16.5372  -29.9085   23.6344 C   0  0  0  0  0  0
  -16.7290  -28.6500   23.0361 C   0  0  0  0  0  0
  -26.4540  -31.6545   25.0700 C   0  0  0  0  0  0
  -25.3710  -31.3749   26.1387 C   0  0  0  0  0  0
  -27.0420  -30.2938   24.6327 C   0  0  0  0  0  0
  -27.6061  -32.4322   25.7487 C   0  0  0  0  0  0
  -27.5573  -37.1769   24.8464 C   0  0  0  0  0  0
  -21.4266  -29.3042   22.3573 N   0  0  0  0  0  0
  -26.4285  -37.3733   23.9415 N   0  0  0  0  0  0
  -24.7275  -31.0149   22.0905 N   0  0  0  0  0  0
  -23.4194  -28.8058   23.2997 O   0  0  0  0  0  0
  -28.2342  -26.0298   20.2552 O   0  0  0  0  0  0
  -26.5675  -34.8894   22.4632 O   0  0  0  0  0  0
  -23.5593  -32.1291   23.7003 O   0  0  0  0  0  0
  -29.1662  -18.9900   20.3289 C   0  0  0  0  0  0
  -31.3166  -18.1691   21.0838 C   0  0  0  0  0  0
  -30.8178  -20.6053   21.0155 C   0  0  0  0  0  0
  -30.0451  -17.7929   20.5944 C   0  0  0  0  0  0
  -29.5028  -20.4559   20.5111 C   0  0  0  0  0  0
  -31.6913  -19.5232   21.2992 C   0  0  0  0  0  0
  -28.9089  -23.1902   20.4591 C   0  0  0  0  0  0
  -35.2603  -20.0969   20.9695 C   0  0  0  0  0  0
  -32.7874  -19.2352   24.2557 C   0  0  0  0  0  0
  -27.3756  -21.5354   19.5588 C   0  0  0  0  0  0
  -27.9135  -24.4897   20.0270 C   0  0  0  0  0  0
  -34.1282  -19.1270   21.3295 C   0  0  0  0  0  0
  -32.9425  -20.3477   23.2083 C   0  0  0  0  0  0
  -29.7406  -16.2620   20.4776 N   0  0  0  0  0  0
  -28.6612  -21.7664   20.2214 N   0  0  0  0  0  0
  -32.9541  -19.8345   21.8380 N   0  0  0  0  0  0
  -29.9328  -23.5358   21.0549 O   0  0  0  0  0  0
  -31.4714  -12.8373   19.1815 H   0  0  0  0  0  0
  -30.4637  -11.7272   20.0653 H   0  0  0  0  0  0
  -29.8667  -11.7316   17.6155 H   0  0  0  0  0  0
  -29.5893  -13.4551   17.6684 H   0  0  0  0  0  0
  -27.9859  -11.2695   19.0207 H   0  0  0  0  0  0
  -27.3976  -12.4002   17.8298 H   0  0  0  0  0  0
  -27.5699  -14.2433   19.3733 H   0  0  0  0  0  0
  -28.7851  -12.3763   21.4686 H   0  0  0  0  0  0
  -28.3504  -14.0523   21.7254 H   0  0  0  0  0  0
  -25.2774   -9.5678   22.4755 H   0  0  0  0  0  0
  -23.9996   -7.4645   22.7483 H   0  0  0  0  0  0
  -21.0849   -8.8789   19.8955 H   0  0  0  0  0  0
  -22.3724  -10.9672   19.6161 H   0  0  0  0  0  0
  -21.2012   -7.6145   23.9711 H   0  0  0  0  0  0
  -21.1480   -6.0520   25.9070 H   0  0  0  0  0  0
  -22.0597   -2.7608   23.2847 H   0  0  0  0  0  0
  -22.4077  -11.9868   22.4820 H   0  0  0  0  0  0
  -21.1057  -13.1210   22.2622 H   0  0  0  0  0  0
  -24.6355  -15.8422   20.5244 H   0  0  0  0  0  0
  -26.2456  -15.6392   20.0596 H   0  0  0  0  0  0
  -26.7285  -32.5244   23.0940 H   0  0  0  0  0  0
  -25.0093  -33.9580   25.0290 H   0  0  0  0  0  0
  -22.7646  -31.2836   21.3683 H   0  0  0  0  0  0
  -23.3777  -35.9552   23.3290 H   0  0  0  0  0  0
  -24.3587  -36.8902   22.2062 H   0  0  0  0  0  0
  -23.7243  -37.6421   23.6702 H   0  0  0  0  0  0
  -26.1788  -31.4410   20.6191 H   0  0  0  0  0  0
  -26.8855  -30.7416   22.0375 H   0  0  0  0  0  0
  -28.1299  -28.7248   21.2708 H   0  0  0  0  0  0
  -25.8992  -25.8166   18.9899 H   0  0  0  0  0  0
  -23.9903  -27.2966   18.9583 H   0  0  0  0  0  0
  -23.8249  -30.5551   19.3944 H   0  0  0  0  0  0
  -22.8022  -29.2236   19.8368 H   0  0  0  0  0  0
  -25.1319  -36.1840   25.0811 H   0  0  0  0  0  0
  -20.9995  -28.3324   24.1342 H   0  0  0  0  0  0
  -20.5687  -26.2333   23.3615 H   0  0  0  0  0  0
  -21.6656  -26.7429   22.1198 H   0  0  0  0  0  0
  -19.6956  -25.6280   21.1254 H   0  0  0  0  0  0
  -19.6733  -27.3158   20.6720 H   0  0  0  0  0  0
  -17.4219  -26.6662   21.4008 H   0  0  0  0  0  0
  -18.0349  -26.0077   22.9010 H   0  0  0  0  0  0
  -19.7966  -30.7257   24.2232 H   0  0  0  0  0  0
  -17.5053  -31.6277   24.5132 H   0  0  0  0  0  0
  -15.5374  -30.2975   23.7691 H   0  0  0  0  0  0
  -15.8683  -28.0801   22.7112 H   0  0  0  0  0  0
  -24.5917  -30.7074   25.7694 H   0  0  0  0  0  0
  -24.8874  -32.2924   26.4733 H   0  0  0  0  0  0
  -25.7979  -30.8970   27.0217 H   0  0  0  0  0  0
  -26.3054  -29.6632   24.1331 H   0  0  0  0  0  0
  -27.4018  -29.7269   25.4922 H   0  0  0  0  0  0
  -27.8968  -30.4165   23.9676 H   0  0  0  0  0  0
  -27.2670  -33.3674   26.1955 H   0  0  0  0  0  0
  -28.3918  -32.6797   25.0337 H   0  0  0  0  0  0
  -28.0670  -31.8516   26.5491 H   0  0  0  0  0  0
  -28.2561  -38.0086   24.7512 H   0  0  0  0  0  0
  -28.1095  -36.2613   24.6287 H   0  0  0  0  0  0
  -27.2282  -37.1403   25.8860 H   0  0  0  0  0  0
  -20.9479  -29.8757   21.6753 H   0  0  0  0  0  0
  -26.0157  -38.2804   24.1426 H   0  0  0  0  0  0
  -28.1787  -18.7481   19.9665 H   0  0  0  0  0  0
  -32.0223  -17.3949   21.3443 H   0  0  0  0  0  0
  -31.2141  -21.5911   21.1906 H   0  0  0  0  0  0
  -36.1359  -19.5498   20.6173 H   0  0  0  0  0  0
  -35.5744  -20.6974   21.8237 H   0  0  0  0  0  0
  -34.9576  -20.7784   20.1736 H   0  0  0  0  0  0
  -32.7669  -19.6579   25.2606 H   0  0  0  0  0  0
  -33.6120  -18.5237   24.2205 H   0  0  0  0  0  0
  -31.8580  -18.6813   24.1194 H   0  0  0  0  0  0
  -27.1073  -20.4857   19.4872 H   0  0  0  0  0  0
  -27.3982  -21.9257   18.5406 H   0  0  0  0  0  0
  -26.5574  -22.0171   20.0948 H   0  0  0  0  0  0
  -26.9600  -24.3029   20.5213 H   0  0  0  0  0  0
  -27.7228  -24.3738   18.9604 H   0  0  0  0  0  0
  -34.4809  -18.4182   22.0795 H   0  0  0  0  0  0
  -33.8760  -18.5384   20.4462 H   0  0  0  0  0  0
  -33.8654  -20.8978   23.3961 H   0  0  0  0  0  0
  -32.1373  -21.0732   23.3303 H   0  0  0  0  0  0
  -28.7539  -16.0556   20.4528 H   0  0  0  0  0  0
  1 25  1  0  0  0
  1 30  2  0  0  0
  1 84  1  0  0  0
  2  3  1  0  0  0
  2 25  1  0  0  0
  2 88  1  0  0  0
  2 89  1  0  0  0
  3  4  1  0  0  0
  3 90  1  0  0  0
  3 91  1  0  0  0
  4  5  1  0  0  0
  4 92  1  0  0  0
  4 93  1  0  0  0
  5  6  1  0  0  0
  5 26  1  0  0  0
  5 94  1  0  0  0
  6 25  1  0  0  0
  6 95  1  0  0  0
  6 96  1  0  0  0
  7  8  2  0  0  0
  7 26  1  0  0  0
  7 29  1  0  0  0
  8  9  1  0  0  0
  8 22  1  0  0  0
  9 10  1  0  0  0
  9 27  2  0  0  0
 10 11  2  0  0  0
 10 15  1  0  0  0
 11 12  1  0  0  0
 11 97  1  0  0  0
 12 13  2  0  0  0
 12 98  1  0  0  0
 13 14  1  0  0  0
 13 31  1  0  0  0
 14 15  2  0  0  0
 14 99  1  0  0  0
 15100  1  0  0  0
 16 17  2  0  0  0
 16 21  1  0  0  0
 16 31  1  0  0  0
 17 18  1  0  0  0
 17101  1  0  0  0
 18 19  2  0  0  0
 18102  1  0  0  0
 19 20  1  0  0  0
 19 24  1  0  0  0
 20 21  2  0  0  0
 20103  1  0  0  0
 21 23  1  0  0  0
 22 28  1  0  0  0
 22 32  2  0  0  0
 26 27  1  0  0  0
 28104  1  0  0  0
 28105  1  0  0  0
 29106  1  0  0  0
 29107  1  0  0  0
 33 34  1  0  0  0
 33 66  1  0  0  0
 33 70  2  0  0  0
 34 36  1  0  0  0
 34 59  1  0  0  0
 34108  1  0  0  0
 35 44  2  0  0  0
 35 45  1  0  0  0
 35 68  1  0  0  0
 36 56  1  0  0  0
 36109  1  0  0  0
 37 39  1  0  0  0
 37 47  1  0  0  0
 37 66  1  0  0  0
 37110  1  0  0  0
 38 43  2  0  0  0
 38 46  1  0  0  0
 38 47  1  0  0  0
 39 64  1  0  0  0
 39 67  2  0  0  0
 40 52  1  0  0  0
 40 53  2  0  0  0
 40 58  1  0  0  0
 41111  1  0  0  0
 41112  1  0  0  0
 41113  1  0  0  0
 41 48  1  0  0  0
 42 43  1  0  0  0
 42 66  1  0  0  0
 42114  1  0  0  0
 42115  1  0  0  0
 43 44  1  0  0  0
 44116  1  0  0  0
 45 46  2  0  0  0
 45117  1  0  0  0
 46118  1  0  0  0
 47119  1  0  0  0
 47120  1  0  0  0
 48 56  1  0  0  0
 48 65  1  0  0  0
 48121  1  0  0  0
 49 50  1  0  0  0
 49 53  1  0  0  0
 49 64  1  0  0  0
 49122  1  0  0  0
 50 51  1  0  0  0
 50123  1  0  0  0
 50124  1  0  0  0
 51 52  1  0  0  0
 51125  1  0  0  0
 51126  1  0  0  0
 52127  1  0  0  0
 52128  1  0  0  0
 53 54  1  0  0  0
 54 55  2  0  0  0
 54129  1  0  0  0
 55 57  1  0  0  0
 55130  1  0  0  0
 56 69  2  0  0  0
 57 58  2  0  0  0
 57131  1  0  0  0
 58132  1  0  0  0
 59 60  1  0  0  0
 59 61  1  0  0  0
 59 62  1  0  0  0
 60133  1  0  0  0
 60134  1  0  0  0
 60135  1  0  0  0
 61136  1  0  0  0
 61137  1  0  0  0
 61138  1  0  0  0
 62139  1  0  0  0
 62140  1  0  0  0
 62141  1  0  0  0
 63 65  1  0  0  0
 63142  1  0  0  0
 63143  1  0  0  0
 63144  1  0  0  0
 64145  1  0  0  0
 65146  1  0  0  0
 68 81  1  0  0  0
 71 74  2  0  0  0
 71 75  1  0  0  0
 71147  1  0  0  0
 72 74  1  0  0  0
 72 76  2  0  0  0
 72148  1  0  0  0
 73 75  2  0  0  0
 73 76  1  0  0  0
 73149  1  0  0  0
 74 84  1  0  0  0
 75 85  1  0  0  0
 76 86  1  0  0  0
 77 81  1  0  0  0
 77 85  1  0  0  0
 77 87  2  0  0  0
 78 82  1  0  0  0
 78150  1  0  0  0
 78151  1  0  0  0
 78152  1  0  0  0
 79 83  1  0  0  0
 79153  1  0  0  0
 79154  1  0  0  0
 79155  1  0  0  0
 80 85  1  0  0  0
 80156  1  0  0  0
 80157  1  0  0  0
 80158  1  0  0  0
 81159  1  0  0  0
 81160  1  0  0  0
 82 86  1  0  0  0
 82161  1  0  0  0
 82162  1  0  0  0
 83 86  1  0  0  0
 83163  1  0  0  0
 83164  1  0  0  0
 84165  1  0  0  0
M  ISO  4   1 100  68 101  81 101  84 100
M  END
> <chiral flag>
0

> <version>
0

> <s_m_source_file>
/data/baiqing/PycharmProjects/Reinvent-master-3.2/result/LINK_invent/BTK/process_docking_weight1_custom_sum_contain_oxygen_bond_distance_aromatic_linkinvent_7_9_3/rearranged_h_0008.sdf

> <i_m_source_file_index>
18

> <r_mmod_Potential_Energy-OPLS-2005>
765.217102050781

> <r_mmod_Stretch_Energy-OPLS-2005>
357.134704589844

> <r_mmod_Bend_Energy-OPLS-2005>
281.889190673828

> <r_mmod_Torsional_Energy-OPLS-2005>
261.356201171875

> <r_mmod_Improper_Torsional_Energy-OPLS-2005>
7.47799301147461

> <r_mmod_Van_der_Waal_Energy-OPLS-2005>
141.334976196289

> <r_mmod_Electrostatic_Energy-OPLS-2005>
-307.762054443359

> <r_mmod_Solvation_Energy-OPLS-2005>
-243.416625976562

> <b_mmod_Minimization_Converged-OPLS-2005>
0

> <r_mmod_RMS_Derivative-OPLS-2005>
1.75901436805725

$$$$
18
                    3D
 Structure written by MMmdl.
151159  0  0  1  0            999 V2000
  -30.5239  -14.9240   20.4254 C   0  0  0  0  0  0
  -30.4500  -12.5690   19.4926 C   0  0  0  0  0  0
  -29.5239  -12.5344   18.2531 C   0  0  0  0  0  0
  -28.0548  -12.3235   18.6686 C   0  0  0  0  0  0
  -27.6365  -13.2418   19.8461 C   0  0  2  0  0  0
  -28.6820  -13.2341   20.9828 C   0  0  0  0  0  0
  -25.2484  -13.8188   20.5731 C   0  0  0  0  0  0
  -24.1788  -13.0419   20.9219 C   0  0  0  0  0  0
  -24.6401  -11.6906   20.8744 C   0  0  0  0  0  0
  -23.9080  -10.4281   21.0402 C   0  0  0  0  0  0
  -24.3626   -9.4198   21.9183 C   0  0  0  0  0  0
  -23.6296   -8.2237   22.0755 C   0  0  0  0  0  0
  -22.4277   -8.0278   21.3546 C   0  0  0  0  0  0
  -21.9916   -9.0250   20.4645 C   0  0  0  0  0  0
  -22.7250  -10.2126   20.3053 C   0  0  0  0  0  0
  -21.6852   -6.0734   22.5281 C   0  0  0  0  0  0
  -21.4013   -6.5639   23.8214 C   0  0  0  0  0  0
  -21.3660   -5.6793   24.9177 C   0  0  0  0  0  0
  -21.6045   -4.3055   24.7228 C   0  0  0  0  0  0
  -21.8819   -3.8146   23.4349 C   0  0  0  0  0  0
  -21.9192   -4.6962   22.3404 C   0  0  0  0  0  0
  -22.7808  -13.5196   21.1878 C   0  0  0  0  0  0
  -22.1659   -4.2148   21.0982 F   0  0  0  0  0  0
  -21.5632   -3.4539   25.7741 F   0  0  0  0  0  0
  -29.9649  -13.6486   20.3958 N   0  0  0  0  0  0
  -26.2920  -12.9420   20.3275 N   0  0  0  0  0  0
  -25.9336  -11.6552   20.5738 N   0  0  0  0  0  0
  -22.0458  -12.8185   22.0435 N   0  0  0  0  0  0
  -25.4129  -15.1920   20.4212 N   0  0  0  0  0  0
  -31.7160  -15.0405   20.1197 O   0  0  0  0  0  0
  -21.6639   -6.8877   21.4242 O   0  0  0  0  0  0
  -22.3491  -14.5502   20.6726 O   0  0  0  0  0  0
  -24.6433  -31.8445   23.1894 C   0  0  0  0  0  0
  -25.9206  -32.4698   23.8280 C   0  0  1  0  0  0
  -27.2189  -27.1398   20.1449 C   0  0  0  0  0  0
  -25.5956  -33.8505   24.2195 N   0  0  0  0  0  0
  -23.4470  -30.4647   21.5349 C   0  0  2  0  0  0
  -24.8977  -28.8958   20.1084 C   0  0  0  0  0  0
  -22.7568  -29.4548   22.4859 C   0  0  0  0  0  0
  -18.0305  -28.1396   22.8478 C   0  0  0  0  0  0
  -24.1492  -36.7254   23.2642 C   0  0  0  0  0  0
  -26.0039  -30.7178   21.3906 C   0  0  0  0  0  0
  -26.0750  -29.3303   20.7305 C   0  0  0  0  0  0
  -27.2352  -28.4673   20.7356 C   0  0  0  0  0  0
  -26.0175  -26.8151   19.4729 C   0  0  0  0  0  0
  -24.8819  -27.6511   19.4646 C   0  0  0  0  0  0
  -23.6737  -29.7965   20.1535 C   0  0  0  0  0  0
  -25.4125  -36.3034   24.0315 C   0  0  1  0  0  0
  -20.5917  -28.3723   23.1234 C   0  0  2  0  0  0
  -20.6788  -26.9425   22.5404 C   0  0  0  0  0  0
  -19.5761  -26.6382   21.5213 C   0  0  0  0  0  0
  -18.1943  -26.7936   22.1624 C   0  0  0  0  0  0
  -19.1562  -28.8878   23.2848 C   0  0  0  0  0  0
  -18.9478  -30.1474   23.8874 C   0  0  0  0  0  0
  -17.6474  -30.6593   24.0560 C   0  0  0  0  0  0
  -25.9074  -34.9409   23.5062 C   0  0  0  0  0  0
  -16.5365  -29.9085   23.6338 C   0  0  0  0  0  0
  -16.7289  -28.6504   23.0359 C   0  0  0  0  0  0
  -26.4528  -31.6567   25.0722 C   0  0  0  0  0  0
  -25.3709  -31.3758   26.1413 C   0  0  0  0  0  0
  -27.0397  -30.2962   24.6309 C   0  0  0  0  0  0
  -27.6055  -32.4336   25.7508 C   0  0  0  0  0  0
  -27.5577  -37.1785   24.8465 C   0  0  0  0  0  0
  -21.4260  -29.3048   22.3606 N   0  0  0  0  0  0
  -26.4289  -37.3746   23.9407 N   0  0  0  0  0  0
  -24.7177  -31.0299   22.0933 N   0  0  0  0  0  0
  -23.4210  -28.8092   23.3007 O   0  0  0  0  0  0
  -28.2592  -26.1404   20.2313 O   0  0  0  0  0  0
  -26.5657  -34.8904   22.4639 O   0  0  0  0  0  0
  -23.5551  -32.1325   23.7111 O   0  0  0  0  0  0
  -29.9461  -20.0075   21.1177 C   0  0  0  0  0  0
  -30.2205  -18.5730   21.2343 C   0  0  0  0  0  0
  -28.5185  -19.5560   19.3024 C   0  0  0  0  0  0
  -28.7894  -18.1335   19.4050 C   0  0  0  0  0  0
  -29.0512  -20.5847   20.1490 C   0  0  0  0  0  0
  -29.6528  -17.5467   20.3921 C   0  0  0  0  0  0
  -28.8685  -23.3502   20.3991 C   0  0  0  0  0  0
  -28.0804  -17.2196   18.4200 C   0  0  0  0  0  0
  -27.9449  -24.6452   19.9272 C   0  0  0  0  0  0
  -28.5777  -22.0342   19.9577 N   0  0  0  0  0  0
  -29.6718  -16.0339   20.6462 N   0  0  0  0  0  0
  -29.8199  -23.5531   21.1581 O   0  0  0  0  0  0
  -31.4826  -12.7355   19.1813 H   0  0  0  0  0  0
  -30.4452  -11.6071   20.0078 H   0  0  0  0  0  0
  -29.8363  -11.7449   17.5682 H   0  0  0  0  0  0
  -29.6162  -13.4719   17.7024 H   0  0  0  0  0  0
  -27.9429  -11.2786   18.9602 H   0  0  0  0  0  0
  -27.3930  -12.4739   17.8148 H   0  0  0  0  0  0
  -27.6079  -14.2509   19.4353 H   0  0  0  0  0  0
  -28.7611  -12.2442   21.4345 H   0  0  0  0  0  0
  -28.3859  -13.9119   21.7849 H   0  0  0  0  0  0
  -25.2770   -9.5673   22.4759 H   0  0  0  0  0  0
  -24.0001   -7.4628   22.7476 H   0  0  0  0  0  0
  -21.0848   -8.8771   19.8950 H   0  0  0  0  0  0
  -22.3711  -10.9665   19.6161 H   0  0  0  0  0  0
  -21.2004   -7.6147   23.9716 H   0  0  0  0  0  0
  -21.1484   -6.0525   25.9080 H   0  0  0  0  0  0
  -22.0597   -2.7609   23.2852 H   0  0  0  0  0  0
  -22.4078  -11.9847   22.4821 H   0  0  0  0  0  0
  -21.1074  -13.1207   22.2642 H   0  0  0  0  0  0
  -24.6411  -15.8387   20.5438 H   0  0  0  0  0  0
  -26.2586  -15.6432   20.1028 H   0  0  0  0  0  0
  -26.7271  -32.5304   23.1007 H   0  0  0  0  0  0
  -25.0089  -33.9625   25.0332 H   0  0  0  0  0  0
  -22.7495  -31.2907   21.3814 H   0  0  0  0  0  0
  -23.3760  -35.9579   23.3294 H   0  0  0  0  0  0
  -24.3576  -36.8897   22.2059 H   0  0  0  0  0  0
  -23.7241  -37.6445   23.6685 H   0  0  0  0  0  0
  -26.1615  -31.4731   20.6195 H   0  0  0  0  0  0
  -26.8734  -30.7659   22.0342 H   0  0  0  0  0  0
  -28.1284  -28.7923   21.2506 H   0  0  0  0  0  0
  -25.9128  -25.8705   18.9617 H   0  0  0  0  0  0
  -23.9855  -27.3155   18.9614 H   0  0  0  0  0  0
  -23.8094  -30.5722   19.3991 H   0  0  0  0  0  0
  -22.7888  -29.2384   19.8422 H   0  0  0  0  0  0
  -25.1313  -36.1863   25.0807 H   0  0  0  0  0  0
  -21.0011  -28.3315   24.1354 H   0  0  0  0  0  0
  -20.5682  -26.2336   23.3624 H   0  0  0  0  0  0
  -21.6653  -26.7429   22.1202 H   0  0  0  0  0  0
  -19.6921  -25.6287   21.1257 H   0  0  0  0  0  0
  -19.6698  -27.3180   20.6732 H   0  0  0  0  0  0
  -17.4211  -26.6682   21.4028 H   0  0  0  0  0  0
  -18.0340  -26.0083   22.9025 H   0  0  0  0  0  0
  -19.7953  -30.7298   24.2232 H   0  0  0  0  0  0
  -17.5025  -31.6270   24.5166 H   0  0  0  0  0  0
  -15.5364  -30.2978   23.7675 H   0  0  0  0  0  0
  -15.8690  -28.0813   22.7088 H   0  0  0  0  0  0
  -24.5902  -30.7089   25.7735 H   0  0  0  0  0  0
  -24.8882  -32.2939   26.4769 H   0  0  0  0  0  0
  -25.7991  -30.8982   27.0235 H   0  0  0  0  0  0
  -26.3020  -29.6682   24.1303 H   0  0  0  0  0  0
  -27.3992  -29.7265   25.4888 H   0  0  0  0  0  0
  -27.8934  -30.4197   23.9643 H   0  0  0  0  0  0
  -27.2647  -33.3659   26.2023 H   0  0  0  0  0  0
  -28.3899  -32.6862   25.0360 H   0  0  0  0  0  0
  -28.0686  -31.8503   26.5476 H   0  0  0  0  0  0
  -28.2586  -38.0089   24.7512 H   0  0  0  0  0  0
  -28.1082  -36.2617   24.6295 H   0  0  0  0  0  0
  -27.2291  -37.1434   25.8868 H   0  0  0  0  0  0
  -20.9470  -29.8766   21.6789 H   0  0  0  0  0  0
  -26.0155  -38.2813   24.1413 H   0  0  0  0  0  0
  -30.4144  -20.6699   21.8321 H   0  0  0  0  0  0
  -30.8590  -18.2571   22.0472 H   0  0  0  0  0  0
  -27.8285  -19.8678   18.5307 H   0  0  0  0  0  0
  -27.8383  -17.7482   17.4975 H   0  0  0  0  0  0
  -27.1501  -16.8492   18.8476 H   0  0  0  0  0  0
  -28.7019  -16.3660   18.1479 H   0  0  0  0  0  0
  -26.9625  -24.4317   20.3489 H   0  0  0  0  0  0
  -27.8333  -24.5591   18.8460 H   0  0  0  0  0  0
  -27.8063  -22.0811   19.3056 H   0  0  0  0  0  0
  -28.7508  -15.6868   20.8644 H   0  0  0  0  0  0
  1 25  1  0  0  0
  1 30  2  0  0  0
  1 81  1  0  0  0
  2  3  1  0  0  0
  2 25  1  0  0  0
  2 83  1  0  0  0
  2 84  1  0  0  0
  3  4  1  0  0  0
  3 85  1  0  0  0
  3 86  1  0  0  0
  4  5  1  0  0  0
  4 87  1  0  0  0
  4 88  1  0  0  0
  5  6  1  0  0  0
  5 26  1  0  0  0
  5 89  1  0  0  0
  6 25  1  0  0  0
  6 90  1  0  0  0
  6 91  1  0  0  0
  7  8  2  0  0  0
  7 26  1  0  0  0
  7 29  1  0  0  0
  8  9  1  0  0  0
  8 22  1  0  0  0
  9 10  1  0  0  0
  9 27  2  0  0  0
 10 11  2  0  0  0
 10 15  1  0  0  0
 11 12  1  0  0  0
 11 92  1  0  0  0
 12 13  2  0  0  0
 12 93  1  0  0  0
 13 14  1  0  0  0
 13 31  1  0  0  0
 14 15  2  0  0  0
 14 94  1  0  0  0
 15 95  1  0  0  0
 16 17  2  0  0  0
 16 21  1  0  0  0
 16 31  1  0  0  0
 17 18  1  0  0  0
 17 96  1  0  0  0
 18 19  2  0  0  0
 18 97  1  0  0  0
 19 20  1  0  0  0
 19 24  1  0  0  0
 20 21  2  0  0  0
 20 98  1  0  0  0
 21 23  1  0  0  0
 22 28  1  0  0  0
 22 32  2  0  0  0
 26 27  1  0  0  0
 28 99  1  0  0  0
 28100  1  0  0  0
 29101  1  0  0  0
 29102  1  0  0  0
 33 34  1  0  0  0
 33 66  1  0  0  0
 33 70  2  0  0  0
 34 36  1  0  0  0
 34 59  1  0  0  0
 34103  1  0  0  0
 35 44  2  0  0  0
 35 45  1  0  0  0
 35 68  1  0  0  0
 36 56  1  0  0  0
 36104  1  0  0  0
 37 39  1  0  0  0
 37 47  1  0  0  0
 37 66  1  0  0  0
 37105  1  0  0  0
 38 43  2  0  0  0
 38 46  1  0  0  0
 38 47  1  0  0  0
 39 64  1  0  0  0
 39 67  2  0  0  0
 40 52  1  0  0  0
 40 53  2  0  0  0
 40 58  1  0  0  0
 41106  1  0  0  0
 41107  1  0  0  0
 41108  1  0  0  0
 41 48  1  0  0  0
 42 43  1  0  0  0
 42 66  1  0  0  0
 42109  1  0  0  0
 42110  1  0  0  0
 43 44  1  0  0  0
 44111  1  0  0  0
 45 46  2  0  0  0
 45112  1  0  0  0
 46113  1  0  0  0
 47114  1  0  0  0
 47115  1  0  0  0
 48 56  1  0  0  0
 48 65  1  0  0  0
 48116  1  0  0  0
 49 50  1  0  0  0
 49 53  1  0  0  0
 49 64  1  0  0  0
 49117  1  0  0  0
 50 51  1  0  0  0
 50118  1  0  0  0
 50119  1  0  0  0
 51 52  1  0  0  0
 51120  1  0  0  0
 51121  1  0  0  0
 52122  1  0  0  0
 52123  1  0  0  0
 53 54  1  0  0  0
 54 55  2  0  0  0
 54124  1  0  0  0
 55 57  1  0  0  0
 55125  1  0  0  0
 56 69  2  0  0  0
 57 58  2  0  0  0
 57126  1  0  0  0
 58127  1  0  0  0
 59 60  1  0  0  0
 59 61  1  0  0  0
 59 62  1  0  0  0
 60128  1  0  0  0
 60129  1  0  0  0
 60130  1  0  0  0
 61131  1  0  0  0
 61132  1  0  0  0
 61133  1  0  0  0
 62134  1  0  0  0
 62135  1  0  0  0
 62136  1  0  0  0
 63 65  1  0  0  0
 63137  1  0  0  0
 63138  1  0  0  0
 63139  1  0  0  0
 64140  1  0  0  0
 65141  1  0  0  0
 68 79  1  0  0  0
 71 72  2  0  0  0
 71 75  1  0  0  0
 71142  1  0  0  0
 72 76  1  0  0  0
 72143  1  0  0  0
 73 74  1  0  0  0
 73 75  2  0  0  0
 73144  1  0  0  0
 74 76  2  0  0  0
 74 78  1  0  0  0
 75 80  1  0  0  0
 76 81  1  0  0  0
 77 79  1  0  0  0
 77 80  1  0  0  0
 77 82  2  0  0  0
 78145  1  0  0  0
 78146  1  0  0  0
 78147  1  0  0  0
 79148  1  0  0  0
 79149  1  0  0  0
 80150  1  0  0  0
 81151  1  0  0  0
M  ISO  4   1 100  68 101  79 101  81 100
M  END
> <chiral flag>
0

> <version>
0

> <s_m_source_file>
/data/baiqing/PycharmProjects/Reinvent-master-3.2/result/LINK_invent/BTK/process_docking_weight1_custom_sum_contain_oxygen_bond_distance_aromatic_linkinvent_7_9_3/rearranged_h_0008.sdf

> <i_m_source_file_index>
19

> <r_mmod_Potential_Energy-OPLS-2005>
408.473846435547

> <r_mmod_Stretch_Energy-OPLS-2005>
221.40803527832

> <r_mmod_Bend_Energy-OPLS-2005>
260.003326416016

> <r_mmod_Torsional_Energy-OPLS-2005>
248.484390258789

> <r_mmod_Improper_Torsional_Energy-OPLS-2005>
6.22255659103394

> <r_mmod_Van_der_Waal_Energy-OPLS-2005>
127.763702392578

> <r_mmod_Electrostatic_Energy-OPLS-2005>
-387.741668701172

> <r_mmod_Solvation_Energy-OPLS-2005>
-252.530776977539

> <b_mmod_Minimization_Converged-OPLS-2005>
0

> <r_mmod_RMS_Derivative-OPLS-2005>
0.222149834036827

$$$$
19
                    3D
 Structure written by MMmdl.
155163  0  0  1  0            999 V2000
  -30.5178  -14.9236   20.4393 C   0  0  0  0  0  0
  -30.4462  -12.5703   19.5026 C   0  0  0  0  0  0
  -29.5229  -12.5383   18.2608 C   0  0  0  0  0  0
  -28.0567  -12.3192   18.6768 C   0  0  0  0  0  0
  -27.6369  -13.2399   19.8517 C   0  0  2  0  0  0
  -28.6772  -13.2323   20.9935 C   0  0  0  0  0  0
  -25.2464  -13.8177   20.5645 C   0  0  0  0  0  0
  -24.1782  -13.0427   20.9209 C   0  0  0  0  0  0
  -24.6393  -11.6910   20.8769 C   0  0  0  0  0  0
  -23.9069  -10.4283   21.0422 C   0  0  0  0  0  0
  -24.3617   -9.4192   21.9191 C   0  0  0  0  0  0
  -23.6288   -8.2229   22.0764 C   0  0  0  0  0  0
  -22.4266   -8.0276   21.3550 C   0  0  0  0  0  0
  -21.9907   -9.0247   20.4646 C   0  0  0  0  0  0
  -22.7242  -10.2123   20.3064 C   0  0  0  0  0  0
  -21.6850   -6.0729   22.5269 C   0  0  0  0  0  0
  -21.4014   -6.5640   23.8200 C   0  0  0  0  0  0
  -21.3657   -5.6792   24.9165 C   0  0  0  0  0  0
  -21.6050   -4.3055   24.7218 C   0  0  0  0  0  0
  -21.8822   -3.8143   23.4337 C   0  0  0  0  0  0
  -21.9189   -4.6960   22.3391 C   0  0  0  0  0  0
  -22.7798  -13.5213   21.1859 C   0  0  0  0  0  0
  -22.1658   -4.2150   21.0968 F   0  0  0  0  0  0
  -21.5629   -3.4543   25.7728 F   0  0  0  0  0  0
  -29.9616  -13.6474   20.4116 N   0  0  0  0  0  0
  -26.2912  -12.9409   20.3285 N   0  0  0  0  0  0
  -25.9335  -11.6550   20.5783 N   0  0  0  0  0  0
  -22.0450  -12.8212   22.0428 N   0  0  0  0  0  0
  -25.4106  -15.1878   20.3912 N   0  0  0  0  0  0
  -31.6985  -15.0442   20.0931 O   0  0  0  0  0  0
  -21.6632   -6.8873   21.4233 O   0  0  0  0  0  0
  -22.3486  -14.5516   20.6697 O   0  0  0  0  0  0
  -24.6403  -31.8443   23.1920 C   0  0  0  0  0  0
  -25.9193  -32.4687   23.8281 C   0  0  1  0  0  0
  -27.2164  -27.1560   20.1366 C   0  0  0  0  0  0
  -25.5957  -33.8497   24.2190 N   0  0  0  0  0  0
  -23.4438  -30.4690   21.5341 C   0  0  2  0  0  0
  -24.8916  -28.9010   20.1074 C   0  0  0  0  0  0
  -22.7575  -29.4554   22.4836 C   0  0  0  0  0  0
  -18.0302  -28.1413   22.8440 C   0  0  0  0  0  0
  -24.1492  -36.7247   23.2653 C   0  0  0  0  0  0
  -26.0000  -30.7225   21.3927 C   0  0  0  0  0  0
  -26.0670  -29.3384   20.7277 C   0  0  0  0  0  0
  -27.2250  -28.4789   20.7325 C   0  0  0  0  0  0
  -26.0134  -26.8177   19.4750 C   0  0  0  0  0  0
  -24.8749  -27.6510   19.4717 C   0  0  0  0  0  0
  -23.6724  -29.8061   20.1499 C   0  0  0  0  0  0
  -25.4119  -36.3026   24.0330 C   0  0  1  0  0  0
  -20.5915  -28.3724   23.1224 C   0  0  2  0  0  0
  -20.6790  -26.9423   22.5410 C   0  0  0  0  0  0
  -19.5769  -26.6379   21.5213 C   0  0  0  0  0  0
  -18.1939  -26.7939   22.1607 C   0  0  0  0  0  0
  -19.1560  -28.8882   23.2813 C   0  0  0  0  0  0
  -18.9492  -30.1467   23.8845 C   0  0  0  0  0  0
  -17.6497  -30.6592   24.0560 C   0  0  0  0  0  0
  -25.9082  -34.9408   23.5070 C   0  0  0  0  0  0
  -16.5378  -29.9093   23.6351 C   0  0  0  0  0  0
  -16.7290  -28.6532   23.0324 C   0  0  0  0  0  0
  -26.4531  -31.6557   25.0713 C   0  0  0  0  0  0
  -25.3724  -31.3765   26.1416 C   0  0  0  0  0  0
  -27.0428  -30.2959   24.6310 C   0  0  0  0  0  0
  -27.6033  -32.4352   25.7492 C   0  0  0  0  0  0
  -27.5569  -37.1767   24.8465 C   0  0  0  0  0  0
  -21.4269  -29.3051   22.3603 N   0  0  0  0  0  0
  -26.4263  -37.3751   23.9430 N   0  0  0  0  0  0
  -24.7137  -31.0319   22.0946 N   0  0  0  0  0  0
  -23.4230  -28.8109   23.2986 O   0  0  0  0  0  0
  -28.2908  -26.2033   20.2447 O   0  0  0  0  0  0
  -26.5659  -34.8908   22.4643 O   0  0  0  0  0  0
  -23.5527  -32.1308   23.7153 O   0  0  0  0  0  0
  -30.4436  -19.7545   19.5210 C   0  0  0  0  0  0
  -30.5641  -18.3224   19.7240 C   0  0  0  0  0  0
  -28.6089  -19.8645   20.9748 C   0  0  0  0  0  0
  -28.7008  -18.4177   21.1661 C   0  0  0  0  0  0
  -29.4714  -20.6404   20.1326 C   0  0  0  0  0  0
  -29.6906  -17.5571   20.5509 C   0  0  0  0  0  0
  -27.6606  -17.7758   22.0672 C   0  0  0  0  0  0
  -30.5770  -22.5737   19.1108 C   0  0  0  0  0  0
  -28.6709  -23.3157   20.5458 C   0  0  0  0  0  0
  -28.2904  -24.7415   19.7220 C   0  0  0  0  0  0
  -29.6858  -16.0345   20.7316 N   0  0  0  0  0  0
  -29.4079  -22.1176   19.8675 N   0  0  0  0  0  0
  -31.4805  -12.7346   19.1958 H   0  0  0  0  0  0
  -30.4378  -11.6076   20.0161 H   0  0  0  0  0  0
  -29.8395  -11.7534   17.5729 H   0  0  0  0  0  0
  -29.6095  -13.4792   17.7157 H   0  0  0  0  0  0
  -27.9517  -11.2750   18.9748 H   0  0  0  0  0  0
  -27.3920  -12.4605   17.8244 H   0  0  0  0  0  0
  -27.6126  -14.2495   19.4414 H   0  0  0  0  0  0
  -28.7563  -12.2432   21.4464 H   0  0  0  0  0  0
  -28.3755  -13.9093   21.7946 H   0  0  0  0  0  0
  -25.2766   -9.5669   22.4767 H   0  0  0  0  0  0
  -23.9995   -7.4626   22.7495 H   0  0  0  0  0  0
  -21.0840   -8.8767   19.8954 H   0  0  0  0  0  0
  -22.3702  -10.9667   19.6176 H   0  0  0  0  0  0
  -21.2009   -7.6147   23.9706 H   0  0  0  0  0  0
  -21.1481   -6.0520   25.9067 H   0  0  0  0  0  0
  -22.0604   -2.7609   23.2829 H   0  0  0  0  0  0
  -22.4073  -11.9870   22.4802 H   0  0  0  0  0  0
  -21.1078  -13.1249   22.2669 H   0  0  0  0  0  0
  -24.6222  -15.8248   20.4356 H   0  0  0  0  0  0
  -26.2340  -15.6078   19.9802 H   0  0  0  0  0  0
  -26.7252  -32.5301   23.0995 H   0  0  0  0  0  0
  -25.0085  -33.9620   25.0320 H   0  0  0  0  0  0
  -22.7433  -31.2936   21.3837 H   0  0  0  0  0  0
  -23.3767  -35.9562   23.3284 H   0  0  0  0  0  0
  -24.3577  -36.8904   22.2075 H   0  0  0  0  0  0
  -23.7244  -37.6435   23.6702 H   0  0  0  0  0  0
  -26.1634  -31.4816   20.6265 H   0  0  0  0  0  0
  -26.8677  -30.7624   22.0395 H   0  0  0  0  0  0
  -28.1154  -28.8063   21.2514 H   0  0  0  0  0  0
  -25.8907  -25.8716   18.9768 H   0  0  0  0  0  0
  -23.9752  -27.3089   18.9790 H   0  0  0  0  0  0
  -23.8239  -30.5877   19.4041 H   0  0  0  0  0  0
  -22.7864  -29.2582   19.8260 H   0  0  0  0  0  0
  -25.1301  -36.1842   25.0821 H   0  0  0  0  0  0
  -20.9969  -28.3318   24.1360 H   0  0  0  0  0  0
  -20.5707  -26.2331   23.3633 H   0  0  0  0  0  0
  -21.6653  -26.7444   22.1195 H   0  0  0  0  0  0
  -19.6945  -25.6293   21.1245 H   0  0  0  0  0  0
  -19.6725  -27.3182   20.6742 H   0  0  0  0  0  0
  -17.4225  -26.6672   21.4004 H   0  0  0  0  0  0
  -18.0314  -26.0097   22.9025 H   0  0  0  0  0  0
  -19.7980  -30.7273   24.2187 H   0  0  0  0  0  0
  -17.5073  -31.6267   24.5176 H   0  0  0  0  0  0
  -15.5381  -30.2987   23.7716 H   0  0  0  0  0  0
  -15.8684  -28.0862   22.7033 H   0  0  0  0  0  0
  -24.5889  -30.7129   25.7752 H   0  0  0  0  0  0
  -24.8940  -32.2966   26.4778 H   0  0  0  0  0  0
  -25.8000  -30.8980   27.0236 H   0  0  0  0  0  0
  -26.3074  -29.6642   24.1322 H   0  0  0  0  0  0
  -27.4075  -29.7298   25.4895 H   0  0  0  0  0  0
  -27.8953  -30.4214   23.9627 H   0  0  0  0  0  0
  -27.2593  -33.3679   26.1976 H   0  0  0  0  0  0
  -28.3871  -32.6873   25.0341 H   0  0  0  0  0  0
  -28.0663  -31.8557   26.5492 H   0  0  0  0  0  0
  -28.2551  -38.0094   24.7520 H   0  0  0  0  0  0
  -28.1099  -36.2622   24.6257 H   0  0  0  0  0  0
  -27.2291  -37.1362   25.8869 H   0  0  0  0  0  0
  -20.9475  -29.8791   21.6807 H   0  0  0  0  0  0
  -26.0132  -38.2813   24.1461 H   0  0  0  0  0  0
  -31.1627  -20.1565   18.8234 H   0  0  0  0  0  0
  -31.3466  -17.8018   19.1896 H   0  0  0  0  0  0
  -27.8199  -20.3971   21.4854 H   0  0  0  0  0  0
  -27.0646  -18.5207   22.5951 H   0  0  0  0  0  0
  -28.1293  -17.1385   22.8169 H   0  0  0  0  0  0
  -26.9779  -17.1669   21.4768 H   0  0  0  0  0  0
  -30.4938  -22.2806   18.0631 H   0  0  0  0  0  0
  -31.5006  -22.1627   19.5202 H   0  0  0  0  0  0
  -30.7144  -23.6534   19.1389 H   0  0  0  0  0  0
  -27.7443  -22.9328   20.9766 H   0  0  0  0  0  0
  -29.2765  -23.5955   21.4075 H   0  0  0  0  0  0
  -27.3535  -24.5183   19.2249 H   0  0  0  0  0  0
  -28.9742  -24.8155   18.8801 H   0  0  0  0  0  0
  -28.8145  -15.7047   21.1165 H   0  0  0  0  0  0
  1 25  1  0  0  0
  1 30  2  0  0  0
  1 81  1  0  0  0
  2  3  1  0  0  0
  2 25  1  0  0  0
  2 83  1  0  0  0
  2 84  1  0  0  0
  3  4  1  0  0  0
  3 85  1  0  0  0
  3 86  1  0  0  0
  4  5  1  0  0  0
  4 87  1  0  0  0
  4 88  1  0  0  0
  5  6  1  0  0  0
  5 26  1  0  0  0
  5 89  1  0  0  0
  6 25  1  0  0  0
  6 90  1  0  0  0
  6 91  1  0  0  0
  7  8  2  0  0  0
  7 26  1  0  0  0
  7 29  1  0  0  0
  8  9  1  0  0  0
  8 22  1  0  0  0
  9 10  1  0  0  0
  9 27  2  0  0  0
 10 11  2  0  0  0
 10 15  1  0  0  0
 11 12  1  0  0  0
 11 92  1  0  0  0
 12 13  2  0  0  0
 12 93  1  0  0  0
 13 14  1  0  0  0
 13 31  1  0  0  0
 14 15  2  0  0  0
 14 94  1  0  0  0
 15 95  1  0  0  0
 16 17  2  0  0  0
 16 21  1  0  0  0
 16 31  1  0  0  0
 17 18  1  0  0  0
 17 96  1  0  0  0
 18 19  2  0  0  0
 18 97  1  0  0  0
 19 20  1  0  0  0
 19 24  1  0  0  0
 20 21  2  0  0  0
 20 98  1  0  0  0
 21 23  1  0  0  0
 22 28  1  0  0  0
 22 32  2  0  0  0
 26 27  1  0  0  0
 28 99  1  0  0  0
 28100  1  0  0  0
 29101  1  0  0  0
 29102  1  0  0  0
 33 34  1  0  0  0
 33 66  1  0  0  0
 33 70  2  0  0  0
 34 36  1  0  0  0
 34 59  1  0  0  0
 34103  1  0  0  0
 35 44  2  0  0  0
 35 45  1  0  0  0
 35 68  1  0  0  0
 36 56  1  0  0  0
 36104  1  0  0  0
 37 39  1  0  0  0
 37 47  1  0  0  0
 37 66  1  0  0  0
 37105  1  0  0  0
 38 43  2  0  0  0
 38 46  1  0  0  0
 38 47  1  0  0  0
 39 64  1  0  0  0
 39 67  2  0  0  0
 40 52  1  0  0  0
 40 53  2  0  0  0
 40 58  1  0  0  0
 41106  1  0  0  0
 41107  1  0  0  0
 41108  1  0  0  0
 41 48  1  0  0  0
 42 43  1  0  0  0
 42 66  1  0  0  0
 42109  1  0  0  0
 42110  1  0  0  0
 43 44  1  0  0  0
 44111  1  0  0  0
 45 46  2  0  0  0
 45112  1  0  0  0
 46113  1  0  0  0
 47114  1  0  0  0
 47115  1  0  0  0
 48 56  1  0  0  0
 48 65  1  0  0  0
 48116  1  0  0  0
 49 50  1  0  0  0
 49 53  1  0  0  0
 49 64  1  0  0  0
 49117  1  0  0  0
 50 51  1  0  0  0
 50118  1  0  0  0
 50119  1  0  0  0
 51 52  1  0  0  0
 51120  1  0  0  0
 51121  1  0  0  0
 52122  1  0  0  0
 52123  1  0  0  0
 53 54  1  0  0  0
 54 55  2  0  0  0
 54124  1  0  0  0
 55 57  1  0  0  0
 55125  1  0  0  0
 56 69  2  0  0  0
 57 58  2  0  0  0
 57126  1  0  0  0
 58127  1  0  0  0
 59 60  1  0  0  0
 59 61  1  0  0  0
 59 62  1  0  0  0
 60128  1  0  0  0
 60129  1  0  0  0
 60130  1  0  0  0
 61131  1  0  0  0
 61132  1  0  0  0
 61133  1  0  0  0
 62134  1  0  0  0
 62135  1  0  0  0
 62136  1  0  0  0
 63 65  1  0  0  0
 63137  1  0  0  0
 63138  1  0  0  0
 63139  1  0  0  0
 64140  1  0  0  0
 65141  1  0  0  0
 68 80  1  0  0  0
 71 72  2  0  0  0
 71 75  1  0  0  0
 71142  1  0  0  0
 72 76  1  0  0  0
 72143  1  0  0  0
 73 74  1  0  0  0
 73 75  2  0  0  0
 73144  1  0  0  0
 74 76  2  0  0  0
 74 77  1  0  0  0
 75 82  1  0  0  0
 76 81  1  0  0  0
 77145  1  0  0  0
 77146  1  0  0  0
 77147  1  0  0  0
 78 82  1  0  0  0
 78148  1  0  0  0
 78149  1  0  0  0
 78150  1  0  0  0
 79 80  1  0  0  0
 79 82  1  0  0  0
 79151  1  0  0  0
 79152  1  0  0  0
 80153  1  0  0  0
 80154  1  0  0  0
 81155  1  0  0  0
M  ISO  4   1 100  68 101  80 101  81 100
M  END
> <chiral flag>
0

> <version>
0

> <s_m_source_file>
/data/baiqing/PycharmProjects/Reinvent-master-3.2/result/LINK_invent/BTK/process_docking_weight1_custom_sum_contain_oxygen_bond_distance_aromatic_linkinvent_7_9_3/rearranged_h_0008.sdf

> <i_m_source_file_index>
20

> <r_mmod_Potential_Energy-OPLS-2005>
426.892639160156

> <r_mmod_Stretch_Energy-OPLS-2005>
225.450973510742

> <r_mmod_Bend_Energy-OPLS-2005>
279.132843017578

> <r_mmod_Torsional_Energy-OPLS-2005>
205.304214477539

> <r_mmod_Improper_Torsional_Energy-OPLS-2005>
5.19139671325684

> <r_mmod_Van_der_Waal_Energy-OPLS-2005>
147.050689697266

> <r_mmod_Electrostatic_Energy-OPLS-2005>
-381.062316894531

> <r_mmod_Solvation_Energy-OPLS-2005>
-229.050720214844

> <b_mmod_Minimization_Converged-OPLS-2005>
0

> <r_mmod_RMS_Derivative-OPLS-2005>
2.51273417472839

$$$$
20
                    3D
 Structure written by MMmdl.
161169  0  0  1  0            999 V2000
  -30.3777  -15.3791   20.3572 C   0  0  0  0  0  0
  -30.4423  -12.9013   19.4991 C   0  0  0  0  0  0
  -29.5360  -12.5802   18.2823 C   0  0  0  0  0  0
  -28.0943  -12.2797   18.7302 C   0  0  0  0  0  0
  -27.6040  -13.2750   19.8097 C   0  0  2  0  0  0
  -28.6402  -13.5025   20.9282 C   0  0  0  0  0  0
  -25.2371  -13.8235   20.5751 C   0  0  0  0  0  0
  -24.1725  -13.0425   20.9253 C   0  0  0  0  0  0
  -24.6382  -11.6926   20.8759 C   0  0  0  0  0  0
  -23.9084  -10.4289   21.0413 C   0  0  0  0  0  0
  -24.3636   -9.4201   21.9182 C   0  0  0  0  0  0
  -23.6299   -8.2241   22.0761 C   0  0  0  0  0  0
  -22.4277   -8.0282   21.3555 C   0  0  0  0  0  0
  -21.9916   -9.0261   20.4656 C   0  0  0  0  0  0
  -22.7256  -10.2134   20.3060 C   0  0  0  0  0  0
  -21.6850   -6.0738   22.5284 C   0  0  0  0  0  0
  -21.4016   -6.5641   23.8219 C   0  0  0  0  0  0
  -21.3657   -5.6793   24.9176 C   0  0  0  0  0  0
  -21.6045   -4.3056   24.7221 C   0  0  0  0  0  0
  -21.8818   -3.8153   23.4342 C   0  0  0  0  0  0
  -21.9188   -4.6970   22.3402 C   0  0  0  0  0  0
  -22.7747  -13.5184   21.1898 C   0  0  0  0  0  0
  -22.1658   -4.2158   21.0978 F   0  0  0  0  0  0
  -21.5626   -3.4538   25.7733 F   0  0  0  0  0  0
  -29.8380  -14.0548   20.2689 N   0  0  0  0  0  0
  -26.2794  -12.9506   20.3208 N   0  0  0  0  0  0
  -25.9318  -11.6614   20.5708 N   0  0  0  0  0  0
  -22.0410  -12.8181   22.0462 N   0  0  0  0  0  0
  -25.3990  -15.1971   20.4207 N   0  0  0  0  0  0
  -31.6175  -15.3653   20.2895 O   0  0  0  0  0  0
  -21.6635   -6.8887   21.4251 O   0  0  0  0  0  0
  -22.3431  -14.5485   20.6727 O   0  0  0  0  0  0
  -24.6704  -31.8161   23.1649 C   0  0  0  0  0  0
  -25.9350  -32.4553   23.8143 C   0  0  1  0  0  0
  -27.2187  -26.8535   20.2037 C   0  0  0  0  0  0
  -25.5989  -33.8365   24.2053 N   0  0  0  0  0  0
  -23.4892  -30.4243   21.5158 C   0  0  2  0  0  0
  -24.9412  -28.7907   20.1227 C   0  0  0  0  0  0
  -22.7708  -29.4403   22.4764 C   0  0  0  0  0  0
  -18.0327  -28.1417   22.8462 C   0  0  0  0  0  0
  -24.1489  -36.7176   23.2653 C   0  0  0  0  0  0
  -26.0622  -30.5993   21.4047 C   0  0  0  0  0  0
  -26.1284  -29.1787   20.7553 C   0  0  0  0  0  0
  -27.2630  -28.2362   20.7605 C   0  0  0  0  0  0
  -25.9964  -26.6284   19.5319 C   0  0  0  0  0  0
  -24.9038  -27.5370   19.4895 C   0  0  0  0  0  0
  -23.7347  -29.7320   20.1463 C   0  0  0  0  0  0
  -25.4134  -36.2945   24.0303 C   0  0  1  0  0  0
  -20.5959  -28.3765   23.1177 C   0  0  2  0  0  0
  -20.6798  -26.9434   22.5412 C   0  0  0  0  0  0
  -19.5772  -26.6380   21.5220 C   0  0  0  0  0  0
  -18.1955  -26.7950   22.1620 C   0  0  0  0  0  0
  -19.1592  -28.8912   23.2805 C   0  0  0  0  0  0
  -18.9498  -30.1496   23.8851 C   0  0  0  0  0  0
  -17.6491  -30.6602   24.0553 C   0  0  0  0  0  0
  -25.9105  -34.9329   23.5001 C   0  0  0  0  0  0
  -16.5381  -29.9086   23.6347 C   0  0  0  0  0  0
  -16.7307  -28.6505   23.0364 C   0  0  0  0  0  0
  -26.4573  -31.6523   25.0699 C   0  0  0  0  0  0
  -25.3689  -31.3785   26.1351 C   0  0  0  0  0  0
  -27.0487  -30.2889   24.6483 C   0  0  0  0  0  0
  -27.6064  -32.4338   25.7495 C   0  0  0  0  0  0
  -27.5567  -37.1744   24.8468 C   0  0  0  0  0  0
  -21.4373  -29.3037   22.3516 N   0  0  0  0  0  0
  -26.4273  -37.3692   23.9413 N   0  0  0  0  0  0
  -24.7628  -30.9759   22.0820 N   0  0  0  0  0  0
  -23.4220  -28.7982   23.3043 O   0  0  0  0  0  0
  -28.2404  -25.7421   20.1827 O   0  0  0  0  0  0
  -26.5715  -34.8878   22.4603 O   0  0  0  0  0  0
  -23.5756  -32.1149   23.6701 O   0  0  0  0  0  0
  -30.5489  -18.6151   21.6665 C   0  0  0  0  0  0
  -29.0559  -19.4553   20.0534 C   0  0  0  0  0  0
  -30.6396  -19.8672   22.2065 C   0  0  0  0  0  0
  -29.7096  -18.2313   20.5526 C   0  0  0  0  0  0
  -29.9420  -21.0824   21.6581 C   0  0  0  0  0  0
  -29.8333  -22.8429   18.9371 C   0  0  0  0  0  0
  -27.4695  -22.0850   18.9442 C   0  0  0  0  0  0
  -30.9967  -20.6905   24.5628 C   0  0  0  0  0  0
  -32.7637  -19.4025   23.4582 C   0  0  0  0  0  0
  -28.1493  -24.0990   20.5614 C   0  0  0  0  0  0
  -28.6559  -22.4581   19.8543 C   0  0  0  0  0  0
  -29.1588  -20.9599   20.5406 N   0  0  0  0  0  0
  -29.5813  -16.6586   20.2646 N   0  0  0  0  0  0
  -31.4595  -20.0505   23.3306 N   0  0  0  0  0  0
  -30.1020  -22.1929   22.1745 O   0  0  0  0  0  0
  -31.4418  -13.1534   19.1417 H   0  0  0  0  0  0
  -30.5687  -12.0247   20.1361 H   0  0  0  0  0  0
  -29.9377  -11.7365   17.7188 H   0  0  0  0  0  0
  -29.5343  -13.4309   17.5997 H   0  0  0  0  0  0
  -28.0842  -11.2688   19.1398 H   0  0  0  0  0  0
  -27.4177  -12.2706   17.8747 H   0  0  0  0  0  0
  -27.4981  -14.2233   19.2815 H   0  0  0  0  0  0
  -28.8528  -12.5836   21.4770 H   0  0  0  0  0  0
  -28.2607  -14.2235   21.6552 H   0  0  0  0  0  0
  -25.2791   -9.5658   22.4742 H   0  0  0  0  0  0
  -24.0006   -7.4625   22.7477 H   0  0  0  0  0  0
  -21.0848   -8.8786   19.8960 H   0  0  0  0  0  0
  -22.3728  -10.9669   19.6161 H   0  0  0  0  0  0
  -21.2020   -7.6148   23.9722 H   0  0  0  0  0  0
  -21.1476   -6.0520   25.9077 H   0  0  0  0  0  0
  -22.0596   -2.7612   23.2836 H   0  0  0  0  0  0
  -22.4042  -11.9864   22.4881 H   0  0  0  0  0  0
  -21.1028  -13.1201   22.2677 H   0  0  0  0  0  0
  -24.6271  -15.8447   20.5370 H   0  0  0  0  0  0
  -26.2471  -15.6480   20.1060 H   0  0  0  0  0  0
  -26.7425  -32.5066   23.0857 H   0  0  0  0  0  0
  -25.0092  -33.9425   25.0174 H   0  0  0  0  0  0
  -22.8061  -31.2575   21.3378 H   0  0  0  0  0  0
  -23.3777  -35.9479   23.3278 H   0  0  0  0  0  0
  -24.3573  -36.8856   22.2076 H   0  0  0  0  0  0
  -23.7212  -37.6340   23.6729 H   0  0  0  0  0  0
  -26.2506  -31.3339   20.6204 H   0  0  0  0  0  0
  -26.9197  -30.6609   22.0630 H   0  0  0  0  0  0
  -28.1707  -28.5427   21.2604 H   0  0  0  0  0  0
  -25.8647  -25.6749   19.0402 H   0  0  0  0  0  0
  -24.0025  -27.2343   18.9744 H   0  0  0  0  0  0
  -23.9040  -30.4958   19.3862 H   0  0  0  0  0  0
  -22.8416  -29.1949   19.8228 H   0  0  0  0  0  0
  -25.1334  -36.1740   25.0793 H   0  0  0  0  0  0
  -21.0040  -28.3380   24.1303 H   0  0  0  0  0  0
  -20.5677  -26.2378   23.3660 H   0  0  0  0  0  0
  -21.6661  -26.7395   22.1224 H   0  0  0  0  0  0
  -19.6925  -25.6280   21.1277 H   0  0  0  0  0  0
  -19.6720  -27.3166   20.6732 H   0  0  0  0  0  0
  -17.4229  -26.6702   21.4019 H   0  0  0  0  0  0
  -18.0331  -26.0109   22.9028 H   0  0  0  0  0  0
  -19.7970  -30.7321   24.2214 H   0  0  0  0  0  0
  -17.5036  -31.6277   24.5161 H   0  0  0  0  0  0
  -15.5378  -30.2965   23.7701 H   0  0  0  0  0  0
  -15.8707  -28.0802   22.7113 H   0  0  0  0  0  0
  -24.5895  -30.7108   25.7659 H   0  0  0  0  0  0
  -24.8852  -32.2984   26.4646 H   0  0  0  0  0  0
  -25.7919  -30.9043   27.0219 H   0  0  0  0  0  0
  -26.3176  -29.6542   24.1469 H   0  0  0  0  0  0
  -27.3974  -29.7283   25.5166 H   0  0  0  0  0  0
  -27.9128  -30.4062   23.9944 H   0  0  0  0  0  0
  -27.2649  -33.3693   26.1936 H   0  0  0  0  0  0
  -28.3944  -32.6812   25.0368 H   0  0  0  0  0  0
  -28.0661  -31.8558   26.5522 H   0  0  0  0  0  0
  -28.2569  -38.0055   24.7525 H   0  0  0  0  0  0
  -28.1080  -36.2586   24.6285 H   0  0  0  0  0  0
  -27.2289  -37.1375   25.8871 H   0  0  0  0  0  0
  -20.9650  -29.8709   21.6613 H   0  0  0  0  0  0
  -26.0119  -38.2744   24.1444 H   0  0  0  0  0  0
  -31.1035  -17.8180   22.1397 H   0  0  0  0  0  0
  -28.3525  -19.3727   19.2387 H   0  0  0  0  0  0
  -29.5713  -23.6739   18.2810 H   0  0  0  0  0  0
  -30.1461  -22.0118   18.3036 H   0  0  0  0  0  0
  -30.6977  -23.1545   19.5239 H   0  0  0  0  0  0
  -27.1112  -22.9485   18.3816 H   0  0  0  0  0  0
  -26.6317  -21.7074   19.5307 H   0  0  0  0  0  0
  -27.7353  -21.3204   18.2141 H   0  0  0  0  0  0
  -29.9071  -20.7344   24.6120 H   0  0  0  0  0  0
  -31.3801  -21.7094   24.6353 H   0  0  0  0  0  0
  -31.3333  -20.1446   25.4460 H   0  0  0  0  0  0
  -32.6697  -18.4460   23.9749 H   0  0  0  0  0  0
  -33.4619  -20.0237   24.0212 H   0  0  0  0  0  0
  -33.2117  -19.2177   22.4804 H   0  0  0  0  0  0
  -28.6291  -24.1152   21.5378 H   0  0  0  0  0  0
  -27.0991  -23.9667   20.8229 H   0  0  0  0  0  0
  -28.6332  -16.4246   20.0103 H   0  0  0  0  0  0
  1 25  1  0  0  0
  1 30  2  0  0  0
  1 83  1  0  0  0
  2  3  1  0  0  0
  2 25  1  0  0  0
  2 86  1  0  0  0
  2 87  1  0  0  0
  3  4  1  0  0  0
  3 88  1  0  0  0
  3 89  1  0  0  0
  4  5  1  0  0  0
  4 90  1  0  0  0
  4 91  1  0  0  0
  5  6  1  0  0  0
  5 26  1  0  0  0
  5 92  1  0  0  0
  6 25  1  0  0  0
  6 93  1  0  0  0
  6 94  1  0  0  0
  7  8  2  0  0  0
  7 26  1  0  0  0
  7 29  1  0  0  0
  8  9  1  0  0  0
  8 22  1  0  0  0
  9 10  1  0  0  0
  9 27  2  0  0  0
 10 11  2  0  0  0
 10 15  1  0  0  0
 11 12  1  0  0  0
 11 95  1  0  0  0
 12 13  2  0  0  0
 12 96  1  0  0  0
 13 14  1  0  0  0
 13 31  1  0  0  0
 14 15  2  0  0  0
 14 97  1  0  0  0
 15 98  1  0  0  0
 16 17  2  0  0  0
 16 21  1  0  0  0
 16 31  1  0  0  0
 17 18  1  0  0  0
 17 99  1  0  0  0
 18 19  2  0  0  0
 18100  1  0  0  0
 19 20  1  0  0  0
 19 24  1  0  0  0
 20 21  2  0  0  0
 20101  1  0  0  0
 21 23  1  0  0  0
 22 28  1  0  0  0
 22 32  2  0  0  0
 26 27  1  0  0  0
 28102  1  0  0  0
 28103  1  0  0  0
 29104  1  0  0  0
 29105  1  0  0  0
 33 34  1  0  0  0
 33 66  1  0  0  0
 33 70  2  0  0  0
 34 36  1  0  0  0
 34 59  1  0  0  0
 34106  1  0  0  0
 35 44  2  0  0  0
 35 45  1  0  0  0
 35 68  1  0  0  0
 36 56  1  0  0  0
 36107  1  0  0  0
 37 39  1  0  0  0
 37 47  1  0  0  0
 37 66  1  0  0  0
 37108  1  0  0  0
 38 43  2  0  0  0
 38 46  1  0  0  0
 38 47  1  0  0  0
 39 64  1  0  0  0
 39 67  2  0  0  0
 40 52  1  0  0  0
 40 53  2  0  0  0
 40 58  1  0  0  0
 41109  1  0  0  0
 41110  1  0  0  0
 41111  1  0  0  0
 41 48  1  0  0  0
 42 43  1  0  0  0
 42 66  1  0  0  0
 42112  1  0  0  0
 42113  1  0  0  0
 43 44  1  0  0  0
 44114  1  0  0  0
 45 46  2  0  0  0
 45115  1  0  0  0
 46116  1  0  0  0
 47117  1  0  0  0
 47118  1  0  0  0
 48 56  1  0  0  0
 48 65  1  0  0  0
 48119  1  0  0  0
 49 50  1  0  0  0
 49 53  1  0  0  0
 49 64  1  0  0  0
 49120  1  0  0  0
 50 51  1  0  0  0
 50121  1  0  0  0
 50122  1  0  0  0
 51 52  1  0  0  0
 51123  1  0  0  0
 51124  1  0  0  0
 52125  1  0  0  0
 52126  1  0  0  0
 53 54  1  0  0  0
 54 55  2  0  0  0
 54127  1  0  0  0
 55 57  1  0  0  0
 55128  1  0  0  0
 56 69  2  0  0  0
 57 58  2  0  0  0
 57129  1  0  0  0
 58130  1  0  0  0
 59 60  1  0  0  0
 59 61  1  0  0  0
 59 62  1  0  0  0
 60131  1  0  0  0
 60132  1  0  0  0
 60133  1  0  0  0
 61134  1  0  0  0
 61135  1  0  0  0
 61136  1  0  0  0
 62137  1  0  0  0
 62138  1  0  0  0
 62139  1  0  0  0
 63 65  1  0  0  0
 63140  1  0  0  0
 63141  1  0  0  0
 63142  1  0  0  0
 64143  1  0  0  0
 65144  1  0  0  0
 68 80  1  0  0  0
 71 73  2  0  0  0
 71 74  1  0  0  0
 71145  1  0  0  0
 72 74  2  0  0  0
 72 82  1  0  0  0
 72146  1  0  0  0
 73 75  1  0  0  0
 73 84  1  0  0  0
 74 83  1  0  0  0
 75 82  1  0  0  0
 75 85  2  0  0  0
 76147  1  0  0  0
 76148  1  0  0  0
 76149  1  0  0  0
 76 81  1  0  0  0
 77 81  1  0  0  0
 77150  1  0  0  0
 77151  1  0  0  0
 77152  1  0  0  0
 78 84  1  0  0  0
 78153  1  0  0  0
 78154  1  0  0  0
 78155  1  0  0  0
 79 84  1  0  0  0
 79156  1  0  0  0
 79157  1  0  0  0
 79158  1  0  0  0
 80 81  1  0  0  0
 80159  1  0  0  0
 80160  1  0  0  0
 81 82  1  0  0  0
 83161  1  0  0  0
M  ISO  4   1 100  68 101  80 101  83 100
M  END
> <chiral flag>
0

> <version>
0

> <s_m_source_file>
/data/baiqing/PycharmProjects/Reinvent-master-3.2/result/LINK_invent/BTK/process_docking_weight1_custom_sum_contain_oxygen_bond_distance_aromatic_linkinvent_7_9_3/rearranged_h_0008.sdf

> <i_m_source_file_index>
21

> <r_mmod_Potential_Energy-OPLS-2005>
1703.64013671875

> <r_mmod_Stretch_Energy-OPLS-2005>
727.958801269531

> <r_mmod_Bend_Energy-OPLS-2005>
489.219665527344

> <r_mmod_Torsional_Energy-OPLS-2005>
270.892211914062

> <r_mmod_Improper_Torsional_Energy-OPLS-2005>
6.70547914505005

> <r_mmod_Van_der_Waal_Energy-OPLS-2005>
133.097274780273

> <r_mmod_Electrostatic_Energy-OPLS-2005>
-266.053558349609

> <r_mmod_Solvation_Energy-OPLS-2005>
-238.324569702148

> <b_mmod_Minimization_Converged-OPLS-2005>
0

> <r_mmod_RMS_Derivative-OPLS-2005>
1.41922760009766

$$$$
21
                    3D
 Structure written by MMmdl.
148156  0  0  1  0            999 V2000
  -30.4224  -15.3545   20.4541 C   0  0  0  0  0  0
  -30.4395  -12.8833   19.5532 C   0  0  0  0  0  0
  -29.5429  -12.6070   18.3174 C   0  0  0  0  0  0
  -28.0955  -12.3038   18.7480 C   0  0  0  0  0  0
  -27.6078  -13.2851   19.8441 C   0  0  2  0  0  0
  -28.6420  -13.4828   20.9707 C   0  0  0  0  0  0
  -25.2312  -13.8249   20.5825 C   0  0  0  0  0  0
  -24.1673  -13.0438   20.9312 C   0  0  0  0  0  0
  -24.6320  -11.6942   20.8784 C   0  0  0  0  0  0
  -23.9023  -10.4276   21.0389 C   0  0  0  0  0  0
  -24.3584   -9.4166   21.9150 C   0  0  0  0  0  0
  -23.6283   -8.2196   22.0691 C   0  0  0  0  0  0
  -22.4245   -8.0247   21.3521 C   0  0  0  0  0  0
  -21.9866   -9.0224   20.4657 C   0  0  0  0  0  0
  -22.7173  -10.2119   20.3081 C   0  0  0  0  0  0
  -21.6858   -6.0707   22.5287 C   0  0  0  0  0  0
  -21.3994   -6.5616   23.8222 C   0  0  0  0  0  0
  -21.3664   -5.6767   24.9185 C   0  0  0  0  0  0
  -21.6037   -4.3036   24.7233 C   0  0  0  0  0  0
  -21.8831   -3.8135   23.4353 C   0  0  0  0  0  0
  -21.9155   -4.6943   22.3410 C   0  0  0  0  0  0
  -22.7661  -13.5138   21.1916 C   0  0  0  0  0  0
  -22.1632   -4.2123   21.0989 F   0  0  0  0  0  0
  -21.5633   -3.4513   25.7749 F   0  0  0  0  0  0
  -29.8447  -14.0435   20.3315 N   0  0  0  0  0  0
  -26.2781  -12.9578   20.3403 N   0  0  0  0  0  0
  -25.9293  -11.6654   20.5821 N   0  0  0  0  0  0
  -22.0343  -12.8128   22.0508 N   0  0  0  0  0  0
  -25.3868  -15.2018   20.4281 N   0  0  0  0  0  0
  -31.6531  -15.2988   20.3069 O   0  0  0  0  0  0
  -21.6638   -6.8848   21.4253 O   0  0  0  0  0  0
  -22.3334  -14.5434   20.6758 O   0  0  0  0  0  0
  -24.6708  -31.8131   23.1683 C   0  0  0  0  0  0
  -25.9387  -32.4552   23.8126 C   0  0  1  0  0  0
  -27.2386  -26.8765   20.2314 C   0  0  0  0  0  0
  -25.6022  -33.8352   24.2054 N   0  0  0  0  0  0
  -23.4905  -30.4232   21.5057 C   0  0  2  0  0  0
  -24.9521  -28.7901   20.1209 C   0  0  0  0  0  0
  -22.7702  -29.4432   22.4731 C   0  0  0  0  0  0
  -18.0329  -28.1437   22.8499 C   0  0  0  0  0  0
  -24.1458  -36.7123   23.2629 C   0  0  0  0  0  0
  -26.0570  -30.6146   21.4002 C   0  0  0  0  0  0
  -26.1314  -29.1905   20.7640 C   0  0  0  0  0  0
  -27.2663  -28.2532   20.7979 C   0  0  0  0  0  0
  -26.0352  -26.6385   19.5338 C   0  0  0  0  0  0
  -24.9342  -27.5388   19.4793 C   0  0  0  0  0  0
  -23.7436  -29.7264   20.1377 C   0  0  0  0  0  0
  -25.4118  -36.2906   24.0299 C   0  0  1  0  0  0
  -20.5967  -28.3783   23.1155 C   0  0  2  0  0  0
  -20.6803  -26.9463   22.5383 C   0  0  0  0  0  0
  -19.5754  -26.6397   21.5207 C   0  0  0  0  0  0
  -18.1942  -26.7963   22.1628 C   0  0  0  0  0  0
  -19.1607  -28.8936   23.2801 C   0  0  0  0  0  0
  -18.9508  -30.1520   23.8850 C   0  0  0  0  0  0
  -17.6511  -30.6618   24.0574 C   0  0  0  0  0  0
  -25.9114  -34.9323   23.4999 C   0  0  0  0  0  0
  -16.5394  -29.9130   23.6337 C   0  0  0  0  0  0
  -16.7317  -28.6542   23.0357 C   0  0  0  0  0  0
  -26.4665  -31.6466   25.0636 C   0  0  0  0  0  0
  -25.3792  -31.3720   26.1273 C   0  0  0  0  0  0
  -27.0568  -30.2835   24.6381 C   0  0  0  0  0  0
  -27.6147  -32.4250   25.7459 C   0  0  0  0  0  0
  -27.5548  -37.1706   24.8489 C   0  0  0  0  0  0
  -21.4369  -29.3061   22.3475 N   0  0  0  0  0  0
  -26.4248  -37.3676   23.9471 N   0  0  0  0  0  0
  -24.7595  -30.9813   22.0782 N   0  0  0  0  0  0
  -23.4223  -28.7996   23.2984 O   0  0  0  0  0  0
  -28.2342  -25.7513   20.3543 O   0  0  0  0  0  0
  -26.5647  -34.8868   22.4542 O   0  0  0  0  0  0
  -23.5743  -32.1103   23.6735 O   0  0  0  0  0  0
  -30.8651  -17.7680   22.2503 C   0  0  0  0  0  0
  -31.4305  -18.5993   23.2143 C   0  0  0  0  0  0
  -30.3968  -20.4824   22.1535 C   0  0  0  0  0  0
  -30.0279  -18.1624   21.1602 C   0  0  0  0  0  0
  -29.7098  -19.7610   21.1257 C   0  0  0  0  0  0
  -31.2055  -19.9576   23.1609 C   0  0  0  0  0  0
  -28.0523  -24.0954   20.1256 C   0  0  0  0  0  0
  -28.8917  -22.5536   20.6745 C   0  0  0  0  0  0
  -29.7175  -16.6986   20.4993 N   0  0  0  0  0  0
  -28.9205  -20.8762   20.3923 O   0  0  0  0  0  0
  -31.9390  -20.9847   24.3425 Cl  0  0  0  0  0  0
  -31.4523  -13.1060   19.2152 H   0  0  0  0  0  0
  -30.5404  -11.9869   20.1754 H   0  0  0  0  0  0
  -29.9430  -11.7899   17.7143 H   0  0  0  0  0  0
  -29.5495  -13.4956   17.6838 H   0  0  0  0  0  0
  -28.0661  -11.2847   19.1351 H   0  0  0  0  0  0
  -27.4228  -12.3238   17.8880 H   0  0  0  0  0  0
  -27.5177  -14.2449   19.3383 H   0  0  0  0  0  0
  -28.8474  -12.5471   21.4929 H   0  0  0  0  0  0
  -28.2762  -14.1756   21.7289 H   0  0  0  0  0  0
  -25.2747   -9.5634   22.4711 H   0  0  0  0  0  0
  -24.0028   -7.4544   22.7354 H   0  0  0  0  0  0
  -21.0770   -8.8714   19.8985 H   0  0  0  0  0  0
  -22.3565  -10.9652   19.6217 H   0  0  0  0  0  0
  -21.2005   -7.6126   23.9725 H   0  0  0  0  0  0
  -21.1476   -6.0493   25.9083 H   0  0  0  0  0  0
  -22.0605   -2.7596   23.2871 H   0  0  0  0  0  0
  -22.3980  -11.9788   22.4884 H   0  0  0  0  0  0
  -21.0959  -13.1069   22.2757 H   0  0  0  0  0  0
  -24.6109  -15.8453   20.5515 H   0  0  0  0  0  0
  -26.2190  -15.6514   20.0741 H   0  0  0  0  0  0
  -26.7478  -32.5132   23.0836 H   0  0  0  0  0  0
  -25.0373  -33.9412   25.0348 H   0  0  0  0  0  0
  -22.8063  -31.2548   21.3249 H   0  0  0  0  0  0
  -23.3750  -35.9416   23.3282 H   0  0  0  0  0  0
  -24.3542  -36.8757   22.2048 H   0  0  0  0  0  0
  -23.7203  -37.6305   23.6686 H   0  0  0  0  0  0
  -26.2267  -31.3387   20.6026 H   0  0  0  0  0  0
  -26.9229  -30.6958   22.0480 H   0  0  0  0  0  0
  -28.1498  -28.5519   21.3498 H   0  0  0  0  0  0
  -25.9151  -25.6743   19.0616 H   0  0  0  0  0  0
  -24.0399  -27.2204   18.9615 H   0  0  0  0  0  0
  -23.9218  -30.4883   19.3759 H   0  0  0  0  0  0
  -22.8559  -29.1857   19.8075 H   0  0  0  0  0  0
  -25.1323  -36.1639   25.0790 H   0  0  0  0  0  0
  -21.0080  -28.3406   24.1261 H   0  0  0  0  0  0
  -20.5635  -26.2437   23.3649 H   0  0  0  0  0  0
  -21.6676  -26.7385   22.1225 H   0  0  0  0  0  0
  -19.6890  -25.6286   21.1275 H   0  0  0  0  0  0
  -19.6686  -27.3189   20.6719 H   0  0  0  0  0  0
  -17.4220  -26.6726   21.4025 H   0  0  0  0  0  0
  -18.0326  -26.0118   22.9027 H   0  0  0  0  0  0
  -19.7969  -30.7352   24.2186 H   0  0  0  0  0  0
  -17.5046  -31.6278   24.5182 H   0  0  0  0  0  0
  -15.5382  -30.3007   23.7679 H   0  0  0  0  0  0
  -15.8705  -28.0836   22.7078 H   0  0  0  0  0  0
  -24.6056  -30.6970   25.7615 H   0  0  0  0  0  0
  -24.8869  -32.2888   26.4487 H   0  0  0  0  0  0
  -25.8011  -30.9063   27.0175 H   0  0  0  0  0  0
  -26.3233  -29.6473   24.1423 H   0  0  0  0  0  0
  -27.4145  -29.7259   25.5039 H   0  0  0  0  0  0
  -27.9148  -30.4028   23.9782 H   0  0  0  0  0  0
  -27.2778  -33.3616   26.1894 H   0  0  0  0  0  0
  -28.4066  -32.6652   25.0373 H   0  0  0  0  0  0
  -28.0706  -31.8448   26.5484 H   0  0  0  0  0  0
  -28.2542  -38.0012   24.7569 H   0  0  0  0  0  0
  -28.1031  -36.2549   24.6255 H   0  0  0  0  0  0
  -27.2264  -37.1308   25.8877 H   0  0  0  0  0  0
  -20.9618  -29.8740   21.6615 H   0  0  0  0  0  0
  -26.0032  -38.2691   24.1524 H   0  0  0  0  0  0
  -31.1250  -16.7448   22.4480 H   0  0  0  0  0  0
  -32.0452  -18.1835   23.9969 H   0  0  0  0  0  0
  -30.3499  -21.5484   22.2463 H   0  0  0  0  0  0
  -27.0103  -23.9261   20.3939 H   0  0  0  0  0  0
  -28.0591  -24.0228   19.0391 H   0  0  0  0  0  0
  -28.6698  -22.6000   21.7387 H   0  0  0  0  0  0
  -29.9431  -22.8172   20.5699 H   0  0  0  0  0  0
  -28.7622  -16.6351   20.1795 H   0  0  0  0  0  0
  1 25  1  0  0  0
  1 30  2  0  0  0
  1 79  1  0  0  0
  2  3  1  0  0  0
  2 25  1  0  0  0
  2 82  1  0  0  0
  2 83  1  0  0  0
  3  4  1  0  0  0
  3 84  1  0  0  0
  3 85  1  0  0  0
  4  5  1  0  0  0
  4 86  1  0  0  0
  4 87  1  0  0  0
  5  6  1  0  0  0
  5 26  1  0  0  0
  5 88  1  0  0  0
  6 25  1  0  0  0
  6 89  1  0  0  0
  6 90  1  0  0  0
  7  8  2  0  0  0
  7 26  1  0  0  0
  7 29  1  0  0  0
  8  9  1  0  0  0
  8 22  1  0  0  0
  9 10  1  0  0  0
  9 27  2  0  0  0
 10 11  2  0  0  0
 10 15  1  0  0  0
 11 12  1  0  0  0
 11 91  1  0  0  0
 12 13  2  0  0  0
 12 92  1  0  0  0
 13 14  1  0  0  0
 13 31  1  0  0  0
 14 15  2  0  0  0
 14 93  1  0  0  0
 15 94  1  0  0  0
 16 17  2  0  0  0
 16 21  1  0  0  0
 16 31  1  0  0  0
 17 18  1  0  0  0
 17 95  1  0  0  0
 18 19  2  0  0  0
 18 96  1  0  0  0
 19 20  1  0  0  0
 19 24  1  0  0  0
 20 21  2  0  0  0
 20 97  1  0  0  0
 21 23  1  0  0  0
 22 28  1  0  0  0
 22 32  2  0  0  0
 26 27  1  0  0  0
 28 98  1  0  0  0
 28 99  1  0  0  0
 29100  1  0  0  0
 29101  1  0  0  0
 33 34  1  0  0  0
 33 66  1  0  0  0
 33 70  2  0  0  0
 34 36  1  0  0  0
 34 59  1  0  0  0
 34102  1  0  0  0
 35 44  2  0  0  0
 35 45  1  0  0  0
 35 68  1  0  0  0
 36 56  1  0  0  0
 36103  1  0  0  0
 37 39  1  0  0  0
 37 47  1  0  0  0
 37 66  1  0  0  0
 37104  1  0  0  0
 38 43  2  0  0  0
 38 46  1  0  0  0
 38 47  1  0  0  0
 39 64  1  0  0  0
 39 67  2  0  0  0
 40 52  1  0  0  0
 40 53  2  0  0  0
 40 58  1  0  0  0
 41105  1  0  0  0
 41106  1  0  0  0
 41107  1  0  0  0
 41 48  1  0  0  0
 42 43  1  0  0  0
 42 66  1  0  0  0
 42108  1  0  0  0
 42109  1  0  0  0
 43 44  1  0  0  0
 44110  1  0  0  0
 45 46  2  0  0  0
 45111  1  0  0  0
 46112  1  0  0  0
 47113  1  0  0  0
 47114  1  0  0  0
 48 56  1  0  0  0
 48 65  1  0  0  0
 48115  1  0  0  0
 49 50  1  0  0  0
 49 53  1  0  0  0
 49 64  1  0  0  0
 49116  1  0  0  0
 50 51  1  0  0  0
 50117  1  0  0  0
 50118  1  0  0  0
 51 52  1  0  0  0
 51119  1  0  0  0
 51120  1  0  0  0
 52121  1  0  0  0
 52122  1  0  0  0
 53 54  1  0  0  0
 54 55  2  0  0  0
 54123  1  0  0  0
 55 57  1  0  0  0
 55124  1  0  0  0
 56 69  2  0  0  0
 57 58  2  0  0  0
 57125  1  0  0  0
 58126  1  0  0  0
 59 60  1  0  0  0
 59 61  1  0  0  0
 59 62  1  0  0  0
 60127  1  0  0  0
 60128  1  0  0  0
 60129  1  0  0  0
 61130  1  0  0  0
 61131  1  0  0  0
 61132  1  0  0  0
 62133  1  0  0  0
 62134  1  0  0  0
 62135  1  0  0  0
 63 65  1  0  0  0
 63136  1  0  0  0
 63137  1  0  0  0
 63138  1  0  0  0
 64139  1  0  0  0
 65140  1  0  0  0
 68 77  1  0  0  0
 71 72  2  0  0  0
 71 74  1  0  0  0
 71141  1  0  0  0
 72 76  1  0  0  0
 72142  1  0  0  0
 73 75  1  0  0  0
 73 76  2  0  0  0
 73143  1  0  0  0
 74 75  2  0  0  0
 74 79  1  0  0  0
 75 80  1  0  0  0
 76 81  1  0  0  0
 77 78  1  0  0  0
 77144  1  0  0  0
 77145  1  0  0  0
 78 80  1  0  0  0
 78146  1  0  0  0
 78147  1  0  0  0
 79148  1  0  0  0
M  ISO  4   1 100  68 101  77 101  79 100
M  END
> <chiral flag>
0

> <version>
0

> <s_m_source_file>
/data/baiqing/PycharmProjects/Reinvent-master-3.2/result/LINK_invent/BTK/process_docking_weight1_custom_sum_contain_oxygen_bond_distance_aromatic_linkinvent_7_9_3/rearranged_h_0008.sdf

> <i_m_source_file_index>
22

> <r_mmod_Potential_Energy-OPLS-2005>
1710.6552734375

> <r_mmod_Stretch_Energy-OPLS-2005>
776.575561523438

> <r_mmod_Bend_Energy-OPLS-2005>
603.948547363281

> <r_mmod_Torsional_Energy-OPLS-2005>
228.148620605469

> <r_mmod_Improper_Torsional_Energy-OPLS-2005>
6.14480876922607

> <r_mmod_Van_der_Waal_Energy-OPLS-2005>
149.666946411133

> <r_mmod_Electrostatic_Energy-OPLS-2005>
-385.152618408203

> <r_mmod_Solvation_Energy-OPLS-2005>
-221.483474731445

> <b_mmod_Minimization_Converged-OPLS-2005>
0

> <r_mmod_RMS_Derivative-OPLS-2005>
7.89388465881348

$$$$
22
                    3D
 Structure written by MMmdl.
159166  0  0  1  0            999 V2000
  -30.6883  -14.5151   20.4862 C   0  0  0  0  0  0
  -30.4144  -12.3118   19.4420 C   0  0  0  0  0  0
  -29.4952  -12.4768   18.2151 C   0  0  0  0  0  0
  -28.0162  -12.3378   18.6261 C   0  0  0  0  0  0
  -27.6489  -13.2076   19.8588 C   0  0  2  0  0  0
  -28.6919  -13.0656   20.9904 C   0  0  0  0  0  0
  -25.2551  -13.8165   20.5670 C   0  0  0  0  0  0
  -24.1811  -13.0437   20.9182 C   0  0  0  0  0  0
  -24.6366  -11.6907   20.8748 C   0  0  0  0  0  0
  -23.9028  -10.4302   21.0425 C   0  0  0  0  0  0
  -24.3600   -9.4218   21.9192 C   0  0  0  0  0  0
  -23.6293   -8.2244   22.0753 C   0  0  0  0  0  0
  -22.4276   -8.0279   21.3536 C   0  0  0  0  0  0
  -21.9900   -9.0252   20.4640 C   0  0  0  0  0  0
  -22.7210  -10.2144   20.3062 C   0  0  0  0  0  0
  -21.6850   -6.0740   22.5277 C   0  0  0  0  0  0
  -21.4012   -6.5644   23.8212 C   0  0  0  0  0  0
  -21.3661   -5.6789   24.9169 C   0  0  0  0  0  0
  -21.6047   -4.3054   24.7221 C   0  0  0  0  0  0
  -21.8819   -3.8148   23.4343 C   0  0  0  0  0  0
  -21.9194   -4.6968   22.3398 C   0  0  0  0  0  0
  -22.7842  -13.5245   21.1843 C   0  0  0  0  0  0
  -22.1663   -4.2153   21.0977 F   0  0  0  0  0  0
  -21.5634   -3.4538   25.7737 F   0  0  0  0  0  0
  -30.0123  -13.3397   20.4129 N   0  0  0  0  0  0
  -26.2953  -12.9320   20.3301 N   0  0  0  0  0  0
  -25.9281  -11.6484   20.5751 N   0  0  0  0  0  0
  -22.0484  -12.8248   22.0412 N   0  0  0  0  0  0
  -25.4304  -15.1881   20.4085 N   0  0  0  0  0  0
  -31.8832  -14.6086   20.2104 O   0  0  0  0  0  0
  -21.6639   -6.8879   21.4238 O   0  0  0  0  0  0
  -22.3546  -14.5558   20.6697 O   0  0  0  0  0  0
  -24.6148  -31.8683   23.2092 C   0  0  0  0  0  0
  -25.9049  -32.4821   23.8378 C   0  0  1  0  0  0
  -27.2235  -27.4215   20.1068 C   0  0  0  0  0  0
  -25.5897  -33.8620   24.2309 N   0  0  0  0  0  0
  -23.4012  -30.4923   21.5504 C   0  0  2  0  0  0
  -24.8458  -28.9512   20.1190 C   0  0  0  0  0  0
  -22.7396  -29.4680   22.5001 C   0  0  0  0  0  0
  -18.0283  -28.1366   22.8504 C   0  0  0  0  0  0
  -24.1486  -36.7314   23.2635 C   0  0  0  0  0  0
  -25.9300  -30.8313   21.3614 C   0  0  0  0  0  0
  -26.0068  -29.4622   20.7133 C   0  0  0  0  0  0
  -27.2022  -28.7056   20.7014 C   0  0  0  0  0  0
  -26.0496  -26.9251   19.5068 C   0  0  0  0  0  0
  -24.8622  -27.6823   19.5122 C   0  0  0  0  0  0
  -23.6085  -29.8209   20.1661 C   0  0  0  0  0  0
  -25.4107  -36.3105   24.0331 C   0  0  1  0  0  0
  -20.5865  -28.3661   23.1319 C   0  0  2  0  0  0
  -20.6781  -26.9400   22.5413 C   0  0  0  0  0  0
  -19.5761  -26.6382   21.5211 C   0  0  0  0  0  0
  -18.1942  -26.7913   22.1633 C   0  0  0  0  0  0
  -19.1533  -28.8826   23.2909 C   0  0  0  0  0  0
  -18.9454  -30.1430   23.8921 C   0  0  0  0  0  0
  -17.6456  -30.6570   24.0564 C   0  0  0  0  0  0
  -25.9038  -34.9476   23.5118 C   0  0  0  0  0  0
  -16.5352  -29.9074   23.6322 C   0  0  0  0  0  0
  -16.7275  -28.6484   23.0356 C   0  0  0  0  0  0
  -26.4473  -31.6606   25.0711 C   0  0  0  0  0  0
  -25.3734  -31.3721   26.1456 C   0  0  0  0  0  0
  -27.0295  -30.3045   24.6082 C   0  0  0  0  0  0
  -27.6043  -32.4322   25.7483 C   0  0  0  0  0  0
  -27.5579  -37.1811   24.8464 C   0  0  0  0  0  0
  -21.4123  -29.3047   22.3732 N   0  0  0  0  0  0
  -26.4292  -37.3792   23.9407 N   0  0  0  0  0  0
  -24.6674  -31.0779   22.0991 N   0  0  0  0  0  0
  -23.4162  -28.8221   23.3048 O   0  0  0  0  0  0
  -28.3800  -26.6756   20.0674 O   0  0  0  0  0  0
  -26.5600  -34.8930   22.4681 O   0  0  0  0  0  0
  -23.5346  -32.1445   23.7493 O   0  0  0  0  0  0
  -28.9438  -20.4908   21.2442 C   0  0  0  0  0  0
  -25.7918  -21.2280   20.3311 C   0  0  0  0  0  0
  -28.4285  -19.0226   21.3170 C   0  0  0  0  0  0
  -29.3597  -17.9758   20.6352 C   0  0  0  0  0  0
  -28.0478  -24.1553   20.2441 C   0  0  0  0  0  0
  -29.1981  -16.4920   21.0971 C   0  0  0  0  0  0
  -28.6090  -22.9114   21.0132 C   0  0  0  0  0  0
  -28.4248  -25.5106   20.9141 C   0  0  0  0  0  0
  -27.1653  -21.2571   19.6410 C   0  0  0  0  0  0
  -29.9474  -15.6022   20.1999 N   0  0  0  0  0  0
  -28.2620  -21.5031   20.6117 N   0  0  0  0  0  0
  -29.9808  -20.7211   21.8749 O   0  0  0  0  0  0
  -27.3554  -20.1096   18.9872 F   0  0  0  0  0  0
  -27.1431  -22.1852   18.6880 F   0  0  0  0  0  0
  -31.4615  -12.3990   19.1440 H   0  0  0  0  0  0
  -30.3062  -11.3195   19.8826 H   0  0  0  0  0  0
  -29.7454  -11.7365   17.4541 H   0  0  0  0  0  0
  -29.6580  -13.4534   17.7565 H   0  0  0  0  0  0
  -27.8325  -11.2863   18.8470 H   0  0  0  0  0  0
  -27.3688  -12.5884   17.7852 H   0  0  0  0  0  0
  -27.6676  -14.2404   19.5135 H   0  0  0  0  0  0
  -28.6674  -12.0630   21.4211 H   0  0  0  0  0  0
  -28.4700  -13.7562   21.8051 H   0  0  0  0  0  0
  -25.2757   -9.5708   22.4748 H   0  0  0  0  0  0
  -24.0012   -7.4640   22.7474 H   0  0  0  0  0  0
  -21.0830   -8.8772   19.8948 H   0  0  0  0  0  0
  -22.3670  -10.9686   19.6170 H   0  0  0  0  0  0
  -21.2001   -7.6147   23.9719 H   0  0  0  0  0  0
  -21.1478   -6.0516   25.9072 H   0  0  0  0  0  0
  -22.0599   -2.7611   23.2839 H   0  0  0  0  0  0
  -22.4100  -11.9908   22.4794 H   0  0  0  0  0  0
  -21.1110  -13.1299   22.2609 H   0  0  0  0  0  0
  -24.6718  -15.8516   20.5182 H   0  0  0  0  0  0
  -26.2866  -15.6145   20.0790 H   0  0  0  0  0  0
  -26.7121  -32.5538   23.1146 H   0  0  0  0  0  0
  -25.0052  -33.9777   25.0453 H   0  0  0  0  0  0
  -22.6919  -31.3104   21.4110 H   0  0  0  0  0  0
  -23.3740  -35.9657   23.3313 H   0  0  0  0  0  0
  -24.3575  -36.8917   22.2045 H   0  0  0  0  0  0
  -23.7250  -37.6527   23.6646 H   0  0  0  0  0  0
  -26.0393  -31.5952   20.5897 H   0  0  0  0  0  0
  -26.8193  -30.8878   21.9777 H   0  0  0  0  0  0
  -28.1021  -29.0978   21.1542 H   0  0  0  0  0  0
  -26.0549  -25.9569   19.0262 H   0  0  0  0  0  0
  -23.9696  -27.2855   19.0484 H   0  0  0  0  0  0
  -23.7166  -30.5938   19.4044 H   0  0  0  0  0  0
  -22.7312  -29.2411   19.8723 H   0  0  0  0  0  0
  -25.1290  -36.1966   25.0824 H   0  0  0  0  0  0
  -20.9971  -28.3216   24.1435 H   0  0  0  0  0  0
  -20.5691  -26.2264   23.3594 H   0  0  0  0  0  0
  -21.6649  -26.7450   22.1194 H   0  0  0  0  0  0
  -19.6920  -25.6301   21.1223 H   0  0  0  0  0  0
  -19.6682  -27.3203   20.6748 H   0  0  0  0  0  0
  -17.4200  -26.6644   21.4047 H   0  0  0  0  0  0
  -18.0363  -26.0048   22.9024 H   0  0  0  0  0  0
  -19.7928  -30.7249   24.2288 H   0  0  0  0  0  0
  -17.5011  -31.6259   24.5162 H   0  0  0  0  0  0
  -15.5352  -30.2972   23.7635 H   0  0  0  0  0  0
  -15.8679  -28.0802   22.7063 H   0  0  0  0  0  0
  -24.5894  -30.7085   25.7793 H   0  0  0  0  0  0
  -24.8945  -32.2887   26.4911 H   0  0  0  0  0  0
  -25.8081  -30.8879   27.0208 H   0  0  0  0  0  0
  -26.2836  -29.6821   24.1120 H   0  0  0  0  0  0
  -27.4047  -29.7270   25.4541 H   0  0  0  0  0  0
  -27.8683  -30.4361   23.9239 H   0  0  0  0  0  0
  -27.2649  -33.3603   26.2097 H   0  0  0  0  0  0
  -28.3840  -32.6912   25.0308 H   0  0  0  0  0  0
  -28.0724  -31.8421   26.5373 H   0  0  0  0  0  0
  -28.2607  -38.0098   24.7499 H   0  0  0  0  0  0
  -28.1062  -36.2630   24.6304 H   0  0  0  0  0  0
  -27.2294  -37.1476   25.8866 H   0  0  0  0  0  0
  -20.9282  -29.8759   21.6954 H   0  0  0  0  0  0
  -26.0181  -38.2873   24.1402 H   0  0  0  0  0  0
  -25.7263  -20.4507   21.0912 H   0  0  0  0  0  0
  -24.9984  -21.0465   19.6064 H   0  0  0  0  0  0
  -25.5761  -22.1773   20.8207 H   0  0  0  0  0  0
  -28.3741  -18.7873   22.3808 H   0  0  0  0  0  0
  -27.4048  -18.9092   20.9679 H   0  0  0  0  0  0
  -29.1849  -18.0376   19.5600 H   0  0  0  0  0  0
  -30.4017  -18.2669   20.7783 H   0  0  0  0  0  0
  -26.9623  -24.1025   20.1609 H   0  0  0  0  0  0
  -28.4502  -24.1559   19.2309 H   0  0  0  0  0  0
  -28.1480  -16.2026   21.0698 H   0  0  0  0  0  0
  -29.5372  -16.3706   22.1278 H   0  0  0  0  0  0
  -28.3105  -23.0121   22.0580 H   0  0  0  0  0  0
  -29.6944  -23.0191   21.0067 H   0  0  0  0  0  0
  -29.4543  -25.4465   21.2685 H   0  0  0  0  0  0
  -27.8212  -25.6649   21.8107 H   0  0  0  0  0  0
  -30.4447  -16.1536   19.5173 H   0  0  0  0  0  0
  1 25  1  0  0  0
  1 30  2  0  0  0
  1 80  1  0  0  0
  2  3  1  0  0  0
  2 25  1  0  0  0
  2 85  1  0  0  0
  2 86  1  0  0  0
  3  4  1  0  0  0
  3 87  1  0  0  0
  3 88  1  0  0  0
  4  5  1  0  0  0
  4 89  1  0  0  0
  4 90  1  0  0  0
  5  6  1  0  0  0
  5 26  1  0  0  0
  5 91  1  0  0  0
  6 25  1  0  0  0
  6 92  1  0  0  0
  6 93  1  0  0  0
  7  8  2  0  0  0
  7 26  1  0  0  0
  7 29  1  0  0  0
  8  9  1  0  0  0
  8 22  1  0  0  0
  9 10  1  0  0  0
  9 27  2  0  0  0
 10 11  2  0  0  0
 10 15  1  0  0  0
 11 12  1  0  0  0
 11 94  1  0  0  0
 12 13  2  0  0  0
 12 95  1  0  0  0
 13 14  1  0  0  0
 13 31  1  0  0  0
 14 15  2  0  0  0
 14 96  1  0  0  0
 15 97  1  0  0  0
 16 17  2  0  0  0
 16 21  1  0  0  0
 16 31  1  0  0  0
 17 18  1  0  0  0
 17 98  1  0  0  0
 18 19  2  0  0  0
 18 99  1  0  0  0
 19 20  1  0  0  0
 19 24  1  0  0  0
 20 21  2  0  0  0
 20100  1  0  0  0
 21 23  1  0  0  0
 22 28  1  0  0  0
 22 32  2  0  0  0
 26 27  1  0  0  0
 28101  1  0  0  0
 28102  1  0  0  0
 29103  1  0  0  0
 29104  1  0  0  0
 33 34  1  0  0  0
 33 66  1  0  0  0
 33 70  2  0  0  0
 34 36  1  0  0  0
 34 59  1  0  0  0
 34105  1  0  0  0
 35 44  2  0  0  0
 35 45  1  0  0  0
 35 68  1  0  0  0
 36 56  1  0  0  0
 36106  1  0  0  0
 37 39  1  0  0  0
 37 47  1  0  0  0
 37 66  1  0  0  0
 37107  1  0  0  0
 38 43  2  0  0  0
 38 46  1  0  0  0
 38 47  1  0  0  0
 39 64  1  0  0  0
 39 67  2  0  0  0
 40 52  1  0  0  0
 40 53  2  0  0  0
 40 58  1  0  0  0
 41108  1  0  0  0
 41109  1  0  0  0
 41110  1  0  0  0
 41 48  1  0  0  0
 42 43  1  0  0  0
 42 66  1  0  0  0
 42111  1  0  0  0
 42112  1  0  0  0
 43 44  1  0  0  0
 44113  1  0  0  0
 45 46  2  0  0  0
 45114  1  0  0  0
 46115  1  0  0  0
 47116  1  0  0  0
 47117  1  0  0  0
 48 56  1  0  0  0
 48 65  1  0  0  0
 48118  1  0  0  0
 49 50  1  0  0  0
 49 53  1  0  0  0
 49 64  1  0  0  0
 49119  1  0  0  0
 50 51  1  0  0  0
 50120  1  0  0  0
 50121  1  0  0  0
 51 52  1  0  0  0
 51122  1  0  0  0
 51123  1  0  0  0
 52124  1  0  0  0
 52125  1  0  0  0
 53 54  1  0  0  0
 54 55  2  0  0  0
 54126  1  0  0  0
 55 57  1  0  0  0
 55127  1  0  0  0
 56 69  2  0  0  0
 57 58  2  0  0  0
 57128  1  0  0  0
 58129  1  0  0  0
 59 60  1  0  0  0
 59 61  1  0  0  0
 59 62  1  0  0  0
 60130  1  0  0  0
 60131  1  0  0  0
 60132  1  0  0  0
 61133  1  0  0  0
 61134  1  0  0  0
 61135  1  0  0  0
 62136  1  0  0  0
 62137  1  0  0  0
 62138  1  0  0  0
 63 65  1  0  0  0
 63139  1  0  0  0
 63140  1  0  0  0
 63141  1  0  0  0
 64142  1  0  0  0
 65143  1  0  0  0
 68 78  1  0  0  0
 71 73  1  0  0  0
 71 81  1  0  0  0
 71 82  2  0  0  0
 72144  1  0  0  0
 72145  1  0  0  0
 72146  1  0  0  0
 72 79  1  0  0  0
 73 74  1  0  0  0
 73147  1  0  0  0
 73148  1  0  0  0
 74 76  1  0  0  0
 74149  1  0  0  0
 74150  1  0  0  0
 75 77  1  0  0  0
 75 78  1  0  0  0
 75151  1  0  0  0
 75152  1  0  0  0
 76 80  1  0  0  0
 76153  1  0  0  0
 76154  1  0  0  0
 77 81  1  0  0  0
 77155  1  0  0  0
 77156  1  0  0  0
 78157  1  0  0  0
 78158  1  0  0  0
 79 81  1  0  0  0
 79 83  1  0  0  0
 79 84  1  0  0  0
 80159  1  0  0  0
M  ISO  4   1 100  68 101  78 101  80 100
M  END
> <chiral flag>
0

> <version>
0

> <s_m_source_file>
/data/baiqing/PycharmProjects/Reinvent-master-3.2/result/LINK_invent/BTK/process_docking_weight1_custom_sum_contain_oxygen_bond_distance_aromatic_linkinvent_7_9_3/rearranged_h_0008.sdf

> <i_m_source_file_index>
23

> <r_mmod_Potential_Energy-OPLS-2005>
74.6188201904297

> <r_mmod_Stretch_Energy-OPLS-2005>
46.7268524169922

> <r_mmod_Bend_Energy-OPLS-2005>
134.357376098633

> <r_mmod_Torsional_Energy-OPLS-2005>
327.933441162109

> <r_mmod_Improper_Torsional_Energy-OPLS-2005>
28.4148063659668

> <r_mmod_Van_der_Waal_Energy-OPLS-2005>
137.058441162109

> <r_mmod_Electrostatic_Energy-OPLS-2005>
-401.426605224609

> <r_mmod_Solvation_Energy-OPLS-2005>
-221.453109741211

> <b_mmod_Minimization_Converged-OPLS-2005>
0

> <r_mmod_RMS_Derivative-OPLS-2005>
1.57186543941498

$$$$
23
                    3D
 Structure written by MMmdl.
153161  0  0  1  0            999 V2000
  -30.6158  -14.6487   20.4806 C   0  0  0  0  0  0
  -30.4435  -12.3939   19.4478 C   0  0  0  0  0  0
  -29.5094  -12.5023   18.2216 C   0  0  0  0  0  0
  -28.0319  -12.3411   18.6357 C   0  0  0  0  0  0
  -27.6528  -13.2151   19.8609 C   0  0  2  0  0  0
  -28.7020  -13.0775   20.9873 C   0  0  0  0  0  0
  -25.2563  -13.8174   20.5701 C   0  0  0  0  0  0
  -24.1826  -13.0427   20.9164 C   0  0  0  0  0  0
  -24.6400  -11.6903   20.8722 C   0  0  0  0  0  0
  -23.9066  -10.4288   21.0394 C   0  0  0  0  0  0
  -24.3617   -9.4210   21.9179 C   0  0  0  0  0  0
  -23.6291   -8.2248   22.0756 C   0  0  0  0  0  0
  -22.4271   -8.0284   21.3543 C   0  0  0  0  0  0
  -21.9902   -9.0257   20.4646 C   0  0  0  0  0  0
  -22.7237  -10.2132   20.3049 C   0  0  0  0  0  0
  -21.6853   -6.0737   22.5277 C   0  0  0  0  0  0
  -21.4017   -6.5642   23.8212 C   0  0  0  0  0  0
  -21.3657   -5.6792   24.9174 C   0  0  0  0  0  0
  -21.6041   -4.3054   24.7224 C   0  0  0  0  0  0
  -21.8820   -3.8145   23.4346 C   0  0  0  0  0  0
  -21.9193   -4.6964   22.3402 C   0  0  0  0  0  0
  -22.7848  -13.5223   21.1835 C   0  0  0  0  0  0
  -22.1661   -4.2150   21.0978 F   0  0  0  0  0  0
  -21.5624   -3.4538   25.7737 F   0  0  0  0  0  0
  -30.0146  -13.4193   20.4164 N   0  0  0  0  0  0
  -26.2997  -12.9355   20.3325 N   0  0  0  0  0  0
  -25.9332  -11.6506   20.5753 N   0  0  0  0  0  0
  -22.0487  -12.8226   22.0400 N   0  0  0  0  0  0
  -25.4195  -15.1922   20.4239 N   0  0  0  0  0  0
  -31.7969  -14.8088   20.1587 O   0  0  0  0  0  0
  -21.6639   -6.8881   21.4242 O   0  0  0  0  0  0
  -22.3532  -14.5533   20.6694 O   0  0  0  0  0  0
  -24.6266  -31.8600   23.2035 C   0  0  0  0  0  0
  -25.9114  -32.4778   23.8361 C   0  0  1  0  0  0
  -27.2232  -27.3185   20.1092 C   0  0  0  0  0  0
  -25.5928  -33.8579   24.2287 N   0  0  0  0  0  0
  -23.4199  -30.4846   21.5468 C   0  0  2  0  0  0
  -24.8656  -28.9430   20.1099 C   0  0  0  0  0  0
  -22.7479  -29.4620   22.4938 C   0  0  0  0  0  0
  -18.0289  -28.1380   22.8484 C   0  0  0  0  0  0
  -24.1490  -36.7294   23.2640 C   0  0  0  0  0  0
  -25.9625  -30.7894   21.3764 C   0  0  0  0  0  0
  -26.0356  -29.4183   20.7151 C   0  0  0  0  0  0
  -27.2172  -28.6178   20.7062 C   0  0  0  0  0  0
  -26.0276  -26.9007   19.4778 C   0  0  0  0  0  0
  -24.8635  -27.6895   19.4826 C   0  0  0  0  0  0
  -23.6339  -29.8230   20.1610 C   0  0  0  0  0  0
  -25.4113  -36.3083   24.0332 C   0  0  1  0  0  0
  -20.5889  -28.3685   23.1281 C   0  0  2  0  0  0
  -20.6778  -26.9409   22.5406 C   0  0  0  0  0  0
  -19.5751  -26.6380   21.5210 C   0  0  0  0  0  0
  -18.1933  -26.7924   22.1624 C   0  0  0  0  0  0
  -19.1541  -28.8851   23.2877 C   0  0  0  0  0  0
  -18.9463  -30.1453   23.8895 C   0  0  0  0  0  0
  -17.6462  -30.6581   24.0564 C   0  0  0  0  0  0
  -25.9048  -34.9451   23.5108 C   0  0  0  0  0  0
  -16.5355  -29.9078   23.6329 C   0  0  0  0  0  0
  -16.7276  -28.6495   23.0351 C   0  0  0  0  0  0
  -26.4496  -31.6586   25.0731 C   0  0  0  0  0  0
  -25.3730  -31.3728   26.1460 C   0  0  0  0  0  0
  -27.0339  -30.3009   24.6189 C   0  0  0  0  0  0
  -27.6058  -32.4322   25.7495 C   0  0  0  0  0  0
  -27.5576  -37.1806   24.8466 C   0  0  0  0  0  0
  -21.4192  -29.3037   22.3677 N   0  0  0  0  0  0
  -26.4294  -37.3773   23.9401 N   0  0  0  0  0  0
  -24.6884  -31.0611   22.0989 N   0  0  0  0  0  0
  -23.4202  -28.8157   23.3016 O   0  0  0  0  0  0
  -28.3388  -26.4632   20.1608 O   0  0  0  0  0  0
  -26.5613  -34.8916   22.4672 O   0  0  0  0  0  0
  -23.5429  -32.1402   23.7361 O   0  0  0  0  0  0
  -31.0173  -17.8956   21.0170 C   0  0  0  0  0  0
  -31.0035  -19.3227   20.9961 C   0  0  0  0  0  0
  -28.7782  -19.3258   20.0851 C   0  0  0  0  0  0
  -29.9002  -17.1454   20.5758 C   0  0  0  0  0  0
  -28.7903  -17.8942   20.0936 C   0  0  0  0  0  0
  -29.8889  -20.0833   20.5466 C   0  0  0  0  0  0
  -29.2274  -23.9532   20.3712 C   0  0  0  0  0  0
  -28.1103  -25.0096   19.9667 C   0  0  0  0  0  0
  -28.8941  -22.3972   20.2027 C   0  0  0  0  0  0
  -27.6922  -17.1932   19.5918 N   0  0  0  0  0  0
  -29.7640  -15.6967   20.6926 N   0  0  0  0  0  0
  -29.9784  -21.4927   20.5909 O   0  0  0  0  0  0
  -31.4841  -12.5251   19.1447 H   0  0  0  0  0  0
  -30.3828  -11.4009   19.8962 H   0  0  0  0  0  0
  -29.7732  -11.7483   17.4793 H   0  0  0  0  0  0
  -29.6509  -13.4701   17.7374 H   0  0  0  0  0  0
  -27.8700  -11.2884   18.8711 H   0  0  0  0  0  0
  -27.3773  -12.5674   17.7932 H   0  0  0  0  0  0
  -27.6629  -14.2467   19.5124 H   0  0  0  0  0  0
  -28.7166  -12.0587   21.3772 H   0  0  0  0  0  0
  -28.4537  -13.7184   21.8349 H   0  0  0  0  0  0
  -25.2766   -9.5685   22.4749 H   0  0  0  0  0  0
  -23.9997   -7.4641   22.7478 H   0  0  0  0  0  0
  -21.0830   -8.8782   19.8955 H   0  0  0  0  0  0
  -22.3702  -10.9670   19.6154 H   0  0  0  0  0  0
  -21.2016   -7.6151   23.9718 H   0  0  0  0  0  0
  -21.1473   -6.0520   25.9073 H   0  0  0  0  0  0
  -22.0600   -2.7609   23.2848 H   0  0  0  0  0  0
  -22.4105  -11.9895   22.4800 H   0  0  0  0  0  0
  -21.1106  -13.1260   22.2598 H   0  0  0  0  0  0
  -24.6441  -15.8304   20.5618 H   0  0  0  0  0  0
  -26.2794  -15.6854   20.1906 H   0  0  0  0  0  0
  -26.7182  -32.5444   23.1110 H   0  0  0  0  0  0
  -25.0079  -33.9724   25.0434 H   0  0  0  0  0  0
  -22.7133  -31.3052   21.4060 H   0  0  0  0  0  0
  -23.3743  -35.9636   23.3320 H   0  0  0  0  0  0
  -24.3579  -36.8894   22.2050 H   0  0  0  0  0  0
  -23.7256  -37.6509   23.6647 H   0  0  0  0  0  0
  -26.0980  -31.5545   20.6110 H   0  0  0  0  0  0
  -26.8417  -30.8340   22.0077 H   0  0  0  0  0  0
  -28.1140  -28.9771   21.1915 H   0  0  0  0  0  0
  -25.9581  -25.9463   18.9786 H   0  0  0  0  0  0
  -23.9678  -27.3204   19.0019 H   0  0  0  0  0  0
  -23.7529  -30.6018   19.4069 H   0  0  0  0  0  0
  -22.7535  -29.2536   19.8575 H   0  0  0  0  0  0
  -25.1295  -36.1942   25.0826 H   0  0  0  0  0  0
  -20.9980  -28.3261   24.1404 H   0  0  0  0  0  0
  -20.5683  -26.2296   23.3605 H   0  0  0  0  0  0
  -21.6648  -26.7439   22.1198 H   0  0  0  0  0  0
  -19.6913  -25.6292   21.1238 H   0  0  0  0  0  0
  -19.6684  -27.3192   20.6742 H   0  0  0  0  0  0
  -17.4201  -26.6671   21.4029 H   0  0  0  0  0  0
  -18.0333  -26.0064   22.9019 H   0  0  0  0  0  0
  -19.7940  -30.7270   24.2263 H   0  0  0  0  0  0
  -17.5016  -31.6263   24.5163 H   0  0  0  0  0  0
  -15.5355  -30.2980   23.7648 H   0  0  0  0  0  0
  -15.8677  -28.0811   22.7068 H   0  0  0  0  0  0
  -24.5892  -30.7092   25.7788 H   0  0  0  0  0  0
  -24.8938  -32.2899   26.4898 H   0  0  0  0  0  0
  -25.8052  -30.8890   27.0227 H   0  0  0  0  0  0
  -26.2914  -29.6756   24.1214 H   0  0  0  0  0  0
  -27.4038  -29.7267   25.4694 H   0  0  0  0  0  0
  -27.8785  -30.4295   23.9416 H   0  0  0  0  0  0
  -27.2670  -33.3619   26.2079 H   0  0  0  0  0  0
  -28.3859  -32.6887   25.0315 H   0  0  0  0  0  0
  -28.0737  -31.8446   26.5404 H   0  0  0  0  0  0
  -28.2610  -38.0086   24.7490 H   0  0  0  0  0  0
  -28.1057  -36.2619   24.6322 H   0  0  0  0  0  0
  -27.2293  -37.1493   25.8870 H   0  0  0  0  0  0
  -20.9370  -29.8769   21.6893 H   0  0  0  0  0  0
  -26.0179  -38.2855   24.1380 H   0  0  0  0  0  0
  -31.8863  -17.3849   21.4064 H   0  0  0  0  0  0
  -31.8766  -19.8483   21.3556 H   0  0  0  0  0  0
  -27.9070  -19.8448   19.7135 H   0  0  0  0  0  0
  -29.4968  -24.1291   21.4125 H   0  0  0  0  0  0
  -30.1256  -24.1737   19.7949 H   0  0  0  0  0  0
  -27.2123  -24.7299   20.5197 H   0  0  0  0  0  0
  -27.8861  -24.8494   18.9113 H   0  0  0  0  0  0
  -28.6311  -22.1971   19.1632 H   0  0  0  0  0  0
  -28.0126  -22.1557   20.7980 H   0  0  0  0  0  0
  -27.0097  -17.7712   19.1126 H   0  0  0  0  0  0
  -27.9589  -16.4219   18.9912 H   0  0  0  0  0  0
  -28.8031  -15.4089   20.7959 H   0  0  0  0  0  0
  1 25  1  0  0  0
  1 30  2  0  0  0
  1 81  1  0  0  0
  2  3  1  0  0  0
  2 25  1  0  0  0
  2 83  1  0  0  0
  2 84  1  0  0  0
  3  4  1  0  0  0
  3 85  1  0  0  0
  3 86  1  0  0  0
  4  5  1  0  0  0
  4 87  1  0  0  0
  4 88  1  0  0  0
  5  6  1  0  0  0
  5 26  1  0  0  0
  5 89  1  0  0  0
  6 25  1  0  0  0
  6 90  1  0  0  0
  6 91  1  0  0  0
  7  8  2  0  0  0
  7 26  1  0  0  0
  7 29  1  0  0  0
  8  9  1  0  0  0
  8 22  1  0  0  0
  9 10  1  0  0  0
  9 27  2  0  0  0
 10 11  2  0  0  0
 10 15  1  0  0  0
 11 12  1  0  0  0
 11 92  1  0  0  0
 12 13  2  0  0  0
 12 93  1  0  0  0
 13 14  1  0  0  0
 13 31  1  0  0  0
 14 15  2  0  0  0
 14 94  1  0  0  0
 15 95  1  0  0  0
 16 17  2  0  0  0
 16 21  1  0  0  0
 16 31  1  0  0  0
 17 18  1  0  0  0
 17 96  1  0  0  0
 18 19  2  0  0  0
 18 97  1  0  0  0
 19 20  1  0  0  0
 19 24  1  0  0  0
 20 21  2  0  0  0
 20 98  1  0  0  0
 21 23  1  0  0  0
 22 28  1  0  0  0
 22 32  2  0  0  0
 26 27  1  0  0  0
 28 99  1  0  0  0
 28100  1  0  0  0
 29101  1  0  0  0
 29102  1  0  0  0
 33 34  1  0  0  0
 33 66  1  0  0  0
 33 70  2  0  0  0
 34 36  1  0  0  0
 34 59  1  0  0  0
 34103  1  0  0  0
 35 44  2  0  0  0
 35 45  1  0  0  0
 35 68  1  0  0  0
 36 56  1  0  0  0
 36104  1  0  0  0
 37 39  1  0  0  0
 37 47  1  0  0  0
 37 66  1  0  0  0
 37105  1  0  0  0
 38 43  2  0  0  0
 38 46  1  0  0  0
 38 47  1  0  0  0
 39 64  1  0  0  0
 39 67  2  0  0  0
 40 52  1  0  0  0
 40 53  2  0  0  0
 40 58  1  0  0  0
 41106  1  0  0  0
 41107  1  0  0  0
 41108  1  0  0  0
 41 48  1  0  0  0
 42 43  1  0  0  0
 42 66  1  0  0  0
 42109  1  0  0  0
 42110  1  0  0  0
 43 44  1  0  0  0
 44111  1  0  0  0
 45 46  2  0  0  0
 45112  1  0  0  0
 46113  1  0  0  0
 47114  1  0  0  0
 47115  1  0  0  0
 48 56  1  0  0  0
 48 65  1  0  0  0
 48116  1  0  0  0
 49 50  1  0  0  0
 49 53  1  0  0  0
 49 64  1  0  0  0
 49117  1  0  0  0
 50 51  1  0  0  0
 50118  1  0  0  0
 50119  1  0  0  0
 51 52  1  0  0  0
 51120  1  0  0  0
 51121  1  0  0  0
 52122  1  0  0  0
 52123  1  0  0  0
 53 54  1  0  0  0
 54 55  2  0  0  0
 54124  1  0  0  0
 55 57  1  0  0  0
 55125  1  0  0  0
 56 69  2  0  0  0
 57 58  2  0  0  0
 57126  1  0  0  0
 58127  1  0  0  0
 59 60  1  0  0  0
 59 61  1  0  0  0
 59 62  1  0  0  0
 60128  1  0  0  0
 60129  1  0  0  0
 60130  1  0  0  0
 61131  1  0  0  0
 61132  1  0  0  0
 61133  1  0  0  0
 62134  1  0  0  0
 62135  1  0  0  0
 62136  1  0  0  0
 63 65  1  0  0  0
 63137  1  0  0  0
 63138  1  0  0  0
 63139  1  0  0  0
 64140  1  0  0  0
 65141  1  0  0  0
 68 78  1  0  0  0
 71 72  2  0  0  0
 71 74  1  0  0  0
 71142  1  0  0  0
 72 76  1  0  0  0
 72143  1  0  0  0
 73 75  1  0  0  0
 73 76  2  0  0  0
 73144  1  0  0  0
 74 75  2  0  0  0
 74 81  1  0  0  0
 75 80  1  0  0  0
 76 82  1  0  0  0
 77 78  1  0  0  0
 77 79  1  0  0  0
 77145  1  0  0  0
 77146  1  0  0  0
 78147  1  0  0  0
 78148  1  0  0  0
 79 82  1  0  0  0
 79149  1  0  0  0
 79150  1  0  0  0
 80151  1  0  0  0
 80152  1  0  0  0
 81153  1  0  0  0
M  ISO  4   1 100  68 101  78 101  81 100
M  END
> <chiral flag>
0

> <version>
0

> <s_m_source_file>
/data/baiqing/PycharmProjects/Reinvent-master-3.2/result/LINK_invent/BTK/process_docking_weight1_custom_sum_contain_oxygen_bond_distance_aromatic_linkinvent_7_9_3/rearranged_h_0008.sdf

> <i_m_source_file_index>
24

> <r_mmod_Potential_Energy-OPLS-2005>
-45.419075012207

> <r_mmod_Stretch_Energy-OPLS-2005>
77.1667785644531

> <r_mmod_Bend_Energy-OPLS-2005>
143.598175048828

> <r_mmod_Torsional_Energy-OPLS-2005>
225.850723266602

> <r_mmod_Improper_Torsional_Energy-OPLS-2005>
11.3645906448364

> <r_mmod_Van_der_Waal_Energy-OPLS-2005>
146.308181762695

> <r_mmod_Electrostatic_Energy-OPLS-2005>
-488.858123779297

> <r_mmod_Solvation_Energy-OPLS-2005>
-212.818878173828

> <b_mmod_Minimization_Converged-OPLS-2005>
0

> <r_mmod_RMS_Derivative-OPLS-2005>
0.688582718372345

$$$$
24
                    3D
 Structure written by MMmdl.
155163  0  0  1  0            999 V2000
  -30.5178  -14.9236   20.4393 C   0  0  0  0  0  0
  -30.4462  -12.5703   19.5026 C   0  0  0  0  0  0
  -29.5229  -12.5383   18.2608 C   0  0  0  0  0  0
  -28.0567  -12.3192   18.6768 C   0  0  0  0  0  0
  -27.6369  -13.2399   19.8517 C   0  0  2  0  0  0
  -28.6772  -13.2323   20.9935 C   0  0  0  0  0  0
  -25.2464  -13.8177   20.5645 C   0  0  0  0  0  0
  -24.1782  -13.0427   20.9209 C   0  0  0  0  0  0
  -24.6393  -11.6910   20.8769 C   0  0  0  0  0  0
  -23.9069  -10.4283   21.0422 C   0  0  0  0  0  0
  -24.3617   -9.4192   21.9191 C   0  0  0  0  0  0
  -23.6288   -8.2229   22.0764 C   0  0  0  0  0  0
  -22.4266   -8.0276   21.3550 C   0  0  0  0  0  0
  -21.9907   -9.0247   20.4646 C   0  0  0  0  0  0
  -22.7242  -10.2123   20.3064 C   0  0  0  0  0  0
  -21.6850   -6.0729   22.5269 C   0  0  0  0  0  0
  -21.4014   -6.5640   23.8200 C   0  0  0  0  0  0
  -21.3657   -5.6792   24.9165 C   0  0  0  0  0  0
  -21.6050   -4.3055   24.7218 C   0  0  0  0  0  0
  -21.8822   -3.8143   23.4337 C   0  0  0  0  0  0
  -21.9189   -4.6960   22.3391 C   0  0  0  0  0  0
  -22.7798  -13.5213   21.1859 C   0  0  0  0  0  0
  -22.1658   -4.2150   21.0968 F   0  0  0  0  0  0
  -21.5629   -3.4543   25.7728 F   0  0  0  0  0  0
  -29.9616  -13.6474   20.4116 N   0  0  0  0  0  0
  -26.2912  -12.9409   20.3285 N   0  0  0  0  0  0
  -25.9335  -11.6550   20.5783 N   0  0  0  0  0  0
  -22.0450  -12.8212   22.0428 N   0  0  0  0  0  0
  -25.4106  -15.1878   20.3912 N   0  0  0  0  0  0
  -31.6985  -15.0442   20.0931 O   0  0  0  0  0  0
  -21.6632   -6.8873   21.4233 O   0  0  0  0  0  0
  -22.3486  -14.5516   20.6697 O   0  0  0  0  0  0
  -24.6403  -31.8443   23.1920 C   0  0  0  0  0  0
  -25.9193  -32.4687   23.8281 C   0  0  1  0  0  0
  -27.2164  -27.1560   20.1366 C   0  0  0  0  0  0
  -25.5957  -33.8497   24.2190 N   0  0  0  0  0  0
  -23.4438  -30.4690   21.5341 C   0  0  2  0  0  0
  -24.8916  -28.9010   20.1074 C   0  0  0  0  0  0
  -22.7575  -29.4554   22.4836 C   0  0  0  0  0  0
  -18.0302  -28.1413   22.8440 C   0  0  0  0  0  0
  -24.1492  -36.7247   23.2653 C   0  0  0  0  0  0
  -26.0000  -30.7225   21.3927 C   0  0  0  0  0  0
  -26.0670  -29.3384   20.7277 C   0  0  0  0  0  0
  -27.2250  -28.4789   20.7325 C   0  0  0  0  0  0
  -26.0134  -26.8177   19.4750 C   0  0  0  0  0  0
  -24.8749  -27.6510   19.4717 C   0  0  0  0  0  0
  -23.6724  -29.8061   20.1499 C   0  0  0  0  0  0
  -25.4119  -36.3026   24.0330 C   0  0  1  0  0  0
  -20.5915  -28.3724   23.1224 C   0  0  2  0  0  0
  -20.6790  -26.9423   22.5410 C   0  0  0  0  0  0
  -19.5769  -26.6379   21.5213 C   0  0  0  0  0  0
  -18.1939  -26.7939   22.1607 C   0  0  0  0  0  0
  -19.1560  -28.8882   23.2813 C   0  0  0  0  0  0
  -18.9492  -30.1467   23.8845 C   0  0  0  0  0  0
  -17.6497  -30.6592   24.0560 C   0  0  0  0  0  0
  -25.9082  -34.9408   23.5070 C   0  0  0  0  0  0
  -16.5378  -29.9093   23.6351 C   0  0  0  0  0  0
  -16.7290  -28.6532   23.0324 C   0  0  0  0  0  0
  -26.4531  -31.6557   25.0713 C   0  0  0  0  0  0
  -25.3724  -31.3765   26.1416 C   0  0  0  0  0  0
  -27.0428  -30.2959   24.6310 C   0  0  0  0  0  0
  -27.6033  -32.4352   25.7492 C   0  0  0  0  0  0
  -27.5569  -37.1767   24.8465 C   0  0  0  0  0  0
  -21.4269  -29.3051   22.3603 N   0  0  0  0  0  0
  -26.4263  -37.3751   23.9430 N   0  0  0  0  0  0
  -24.7137  -31.0319   22.0946 N   0  0  0  0  0  0
  -23.4230  -28.8109   23.2986 O   0  0  0  0  0  0
  -28.2908  -26.2033   20.2447 O   0  0  0  0  0  0
  -26.5659  -34.8908   22.4643 O   0  0  0  0  0  0
  -23.5527  -32.1308   23.7153 O   0  0  0  0  0  0
  -30.4436  -19.7545   19.5210 C   0  0  0  0  0  0
  -30.5641  -18.3224   19.7240 C   0  0  0  0  0  0
  -28.6089  -19.8645   20.9748 C   0  0  0  0  0  0
  -28.7008  -18.4177   21.1661 C   0  0  0  0  0  0
  -29.4714  -20.6404   20.1326 C   0  0  0  0  0  0
  -29.6906  -17.5571   20.5509 C   0  0  0  0  0  0
  -27.6606  -17.7758   22.0672 C   0  0  0  0  0  0
  -30.5770  -22.5737   19.1108 C   0  0  0  0  0  0
  -28.6709  -23.3157   20.5458 C   0  0  0  0  0  0
  -28.2904  -24.7415   19.7220 C   0  0  0  0  0  0
  -29.6858  -16.0345   20.7316 N   0  0  0  0  0  0
  -29.4079  -22.1176   19.8675 N   0  0  0  0  0  0
  -31.4805  -12.7346   19.1958 H   0  0  0  0  0  0
  -30.4378  -11.6076   20.0161 H   0  0  0  0  0  0
  -29.8395  -11.7534   17.5729 H   0  0  0  0  0  0
  -29.6095  -13.4792   17.7157 H   0  0  0  0  0  0
  -27.9517  -11.2750   18.9748 H   0  0  0  0  0  0
  -27.3920  -12.4605   17.8244 H   0  0  0  0  0  0
  -27.6126  -14.2495   19.4414 H   0  0  0  0  0  0
  -28.7563  -12.2432   21.4464 H   0  0  0  0  0  0
  -28.3755  -13.9093   21.7946 H   0  0  0  0  0  0
  -25.2766   -9.5669   22.4767 H   0  0  0  0  0  0
  -23.9995   -7.4626   22.7495 H   0  0  0  0  0  0
  -21.0840   -8.8767   19.8954 H   0  0  0  0  0  0
  -22.3702  -10.9667   19.6176 H   0  0  0  0  0  0
  -21.2009   -7.6147   23.9706 H   0  0  0  0  0  0
  -21.1481   -6.0520   25.9067 H   0  0  0  0  0  0
  -22.0604   -2.7609   23.2829 H   0  0  0  0  0  0
  -22.4073  -11.9870   22.4802 H   0  0  0  0  0  0
  -21.1078  -13.1249   22.2669 H   0  0  0  0  0  0
  -24.6222  -15.8248   20.4356 H   0  0  0  0  0  0
  -26.2340  -15.6078   19.9802 H   0  0  0  0  0  0
  -26.7252  -32.5301   23.0995 H   0  0  0  0  0  0
  -25.0085  -33.9620   25.0320 H   0  0  0  0  0  0
  -22.7433  -31.2936   21.3837 H   0  0  0  0  0  0
  -23.3767  -35.9562   23.3284 H   0  0  0  0  0  0
  -24.3577  -36.8904   22.2075 H   0  0  0  0  0  0
  -23.7244  -37.6435   23.6702 H   0  0  0  0  0  0
  -26.1634  -31.4816   20.6265 H   0  0  0  0  0  0
  -26.8677  -30.7624   22.0395 H   0  0  0  0  0  0
  -28.1154  -28.8063   21.2514 H   0  0  0  0  0  0
  -25.8907  -25.8716   18.9768 H   0  0  0  0  0  0
  -23.9752  -27.3089   18.9790 H   0  0  0  0  0  0
  -23.8239  -30.5877   19.4041 H   0  0  0  0  0  0
  -22.7864  -29.2582   19.8260 H   0  0  0  0  0  0
  -25.1301  -36.1842   25.0821 H   0  0  0  0  0  0
  -20.9969  -28.3318   24.1360 H   0  0  0  0  0  0
  -20.5707  -26.2331   23.3633 H   0  0  0  0  0  0
  -21.6653  -26.7444   22.1195 H   0  0  0  0  0  0
  -19.6945  -25.6293   21.1245 H   0  0  0  0  0  0
  -19.6725  -27.3182   20.6742 H   0  0  0  0  0  0
  -17.4225  -26.6672   21.4004 H   0  0  0  0  0  0
  -18.0314  -26.0097   22.9025 H   0  0  0  0  0  0
  -19.7980  -30.7273   24.2187 H   0  0  0  0  0  0
  -17.5073  -31.6267   24.5176 H   0  0  0  0  0  0
  -15.5381  -30.2987   23.7716 H   0  0  0  0  0  0
  -15.8684  -28.0862   22.7033 H   0  0  0  0  0  0
  -24.5889  -30.7129   25.7752 H   0  0  0  0  0  0
  -24.8940  -32.2966   26.4778 H   0  0  0  0  0  0
  -25.8000  -30.8980   27.0236 H   0  0  0  0  0  0
  -26.3074  -29.6642   24.1322 H   0  0  0  0  0  0
  -27.4075  -29.7298   25.4895 H   0  0  0  0  0  0
  -27.8953  -30.4214   23.9627 H   0  0  0  0  0  0
  -27.2593  -33.3679   26.1976 H   0  0  0  0  0  0
  -28.3871  -32.6873   25.0341 H   0  0  0  0  0  0
  -28.0663  -31.8557   26.5492 H   0  0  0  0  0  0
  -28.2551  -38.0094   24.7520 H   0  0  0  0  0  0
  -28.1099  -36.2622   24.6257 H   0  0  0  0  0  0
  -27.2291  -37.1362   25.8869 H   0  0  0  0  0  0
  -20.9475  -29.8791   21.6807 H   0  0  0  0  0  0
  -26.0132  -38.2813   24.1461 H   0  0  0  0  0  0
  -31.1627  -20.1565   18.8234 H   0  0  0  0  0  0
  -31.3466  -17.8018   19.1896 H   0  0  0  0  0  0
  -27.8199  -20.3971   21.4854 H   0  0  0  0  0  0
  -27.0646  -18.5207   22.5951 H   0  0  0  0  0  0
  -28.1293  -17.1385   22.8169 H   0  0  0  0  0  0
  -26.9779  -17.1669   21.4768 H   0  0  0  0  0  0
  -30.4938  -22.2806   18.0631 H   0  0  0  0  0  0
  -31.5006  -22.1627   19.5202 H   0  0  0  0  0  0
  -30.7144  -23.6534   19.1389 H   0  0  0  0  0  0
  -27.7443  -22.9328   20.9766 H   0  0  0  0  0  0
  -29.2765  -23.5955   21.4075 H   0  0  0  0  0  0
  -27.3535  -24.5183   19.2249 H   0  0  0  0  0  0
  -28.9742  -24.8155   18.8801 H   0  0  0  0  0  0
  -28.8145  -15.7047   21.1165 H   0  0  0  0  0  0
  1 25  1  0  0  0
  1 30  2  0  0  0
  1 81  1  0  0  0
  2  3  1  0  0  0
  2 25  1  0  0  0
  2 83  1  0  0  0
  2 84  1  0  0  0
  3  4  1  0  0  0
  3 85  1  0  0  0
  3 86  1  0  0  0
  4  5  1  0  0  0
  4 87  1  0  0  0
  4 88  1  0  0  0
  5  6  1  0  0  0
  5 26  1  0  0  0
  5 89  1  0  0  0
  6 25  1  0  0  0
  6 90  1  0  0  0
  6 91  1  0  0  0
  7  8  2  0  0  0
  7 26  1  0  0  0
  7 29  1  0  0  0
  8  9  1  0  0  0
  8 22  1  0  0  0
  9 10  1  0  0  0
  9 27  2  0  0  0
 10 11  2  0  0  0
 10 15  1  0  0  0
 11 12  1  0  0  0
 11 92  1  0  0  0
 12 13  2  0  0  0
 12 93  1  0  0  0
 13 14  1  0  0  0
 13 31  1  0  0  0
 14 15  2  0  0  0
 14 94  1  0  0  0
 15 95  1  0  0  0
 16 17  2  0  0  0
 16 21  1  0  0  0
 16 31  1  0  0  0
 17 18  1  0  0  0
 17 96  1  0  0  0
 18 19  2  0  0  0
 18 97  1  0  0  0
 19 20  1  0  0  0
 19 24  1  0  0  0
 20 21  2  0  0  0
 20 98  1  0  0  0
 21 23  1  0  0  0
 22 28  1  0  0  0
 22 32  2  0  0  0
 26 27  1  0  0  0
 28 99  1  0  0  0
 28100  1  0  0  0
 29101  1  0  0  0
 29102  1  0  0  0
 33 34  1  0  0  0
 33 66  1  0  0  0
 33 70  2  0  0  0
 34 36  1  0  0  0
 34 59  1  0  0  0
 34103  1  0  0  0
 35 44  2  0  0  0
 35 45  1  0  0  0
 35 68  1  0  0  0
 36 56  1  0  0  0
 36104  1  0  0  0
 37 39  1  0  0  0
 37 47  1  0  0  0
 37 66  1  0  0  0
 37105  1  0  0  0
 38 43  2  0  0  0
 38 46  1  0  0  0
 38 47  1  0  0  0
 39 64  1  0  0  0
 39 67  2  0  0  0
 40 52  1  0  0  0
 40 53  2  0  0  0
 40 58  1  0  0  0
 41106  1  0  0  0
 41107  1  0  0  0
 41108  1  0  0  0
 41 48  1  0  0  0
 42 43  1  0  0  0
 42 66  1  0  0  0
 42109  1  0  0  0
 42110  1  0  0  0
 43 44  1  0  0  0
 44111  1  0  0  0
 45 46  2  0  0  0
 45112  1  0  0  0
 46113  1  0  0  0
 47114  1  0  0  0
 47115  1  0  0  0
 48 56  1  0  0  0
 48 65  1  0  0  0
 48116  1  0  0  0
 49 50  1  0  0  0
 49 53  1  0  0  0
 49 64  1  0  0  0
 49117  1  0  0  0
 50 51  1  0  0  0
 50118  1  0  0  0
 50119  1  0  0  0
 51 52  1  0  0  0
 51120  1  0  0  0
 51121  1  0  0  0
 52122  1  0  0  0
 52123  1  0  0  0
 53 54  1  0  0  0
 54 55  2  0  0  0
 54124  1  0  0  0
 55 57  1  0  0  0
 55125  1  0  0  0
 56 69  2  0  0  0
 57 58  2  0  0  0
 57126  1  0  0  0
 58127  1  0  0  0
 59 60  1  0  0  0
 59 61  1  0  0  0
 59 62  1  0  0  0
 60128  1  0  0  0
 60129  1  0  0  0
 60130  1  0  0  0
 61131  1  0  0  0
 61132  1  0  0  0
 61133  1  0  0  0
 62134  1  0  0  0
 62135  1  0  0  0
 62136  1  0  0  0
 63 65  1  0  0  0
 63137  1  0  0  0
 63138  1  0  0  0
 63139  1  0  0  0
 64140  1  0  0  0
 65141  1  0  0  0
 68 80  1  0  0  0
 71 72  2  0  0  0
 71 75  1  0  0  0
 71142  1  0  0  0
 72 76  1  0  0  0
 72143  1  0  0  0
 73 74  1  0  0  0
 73 75  2  0  0  0
 73144  1  0  0  0
 74 76  2  0  0  0
 74 77  1  0  0  0
 75 82  1  0  0  0
 76 81  1  0  0  0
 77145  1  0  0  0
 77146  1  0  0  0
 77147  1  0  0  0
 78 82  1  0  0  0
 78148  1  0  0  0
 78149  1  0  0  0
 78150  1  0  0  0
 79 80  1  0  0  0
 79 82  1  0  0  0
 79151  1  0  0  0
 79152  1  0  0  0
 80153  1  0  0  0
 80154  1  0  0  0
 81155  1  0  0  0
M  ISO  4   1 100  68 101  80 101  81 100
M  END
> <chiral flag>
0

> <version>
0

> <s_m_source_file>
/data/baiqing/PycharmProjects/Reinvent-master-3.2/result/LINK_invent/BTK/process_docking_weight1_custom_sum_contain_oxygen_bond_distance_aromatic_linkinvent_7_9_3/rearranged_h_0008.sdf

> <i_m_source_file_index>
25

> <r_mmod_Potential_Energy-OPLS-2005>
426.892639160156

> <r_mmod_Stretch_Energy-OPLS-2005>
225.450973510742

> <r_mmod_Bend_Energy-OPLS-2005>
279.132843017578

> <r_mmod_Torsional_Energy-OPLS-2005>
205.304214477539

> <r_mmod_Improper_Torsional_Energy-OPLS-2005>
5.19139671325684

> <r_mmod_Van_der_Waal_Energy-OPLS-2005>
147.050689697266

> <r_mmod_Electrostatic_Energy-OPLS-2005>
-381.062316894531

> <r_mmod_Solvation_Energy-OPLS-2005>
-229.050720214844

> <b_mmod_Minimization_Converged-OPLS-2005>
0

> <r_mmod_RMS_Derivative-OPLS-2005>
2.51273417472839

$$$$
25
                    3D
 Structure written by MMmdl.
151159  0  0  1  0            999 V2000
  -30.5341  -15.0189   20.4046 C   0  0  0  0  0  0
  -30.4390  -12.6362   19.5019 C   0  0  0  0  0  0
  -29.5226  -12.5319   18.2609 C   0  0  0  0  0  0
  -28.0590  -12.3096   18.6839 C   0  0  0  0  0  0
  -27.6250  -13.2558   19.8338 C   0  0  2  0  0  0
  -28.6688  -13.3252   20.9684 C   0  0  0  0  0  0
  -25.2448  -13.8230   20.5735 C   0  0  0  0  0  0
  -24.1775  -13.0443   20.9248 C   0  0  0  0  0  0
  -24.6404  -11.6932   20.8773 C   0  0  0  0  0  0
  -23.9094  -10.4297   21.0422 C   0  0  0  0  0  0
  -24.3636   -9.4207   21.9196 C   0  0  0  0  0  0
  -23.6304   -8.2245   22.0760 C   0  0  0  0  0  0
  -22.4286   -8.0289   21.3547 C   0  0  0  0  0  0
  -21.9930   -9.0268   20.4650 C   0  0  0  0  0  0
  -22.7267  -10.2143   20.3066 C   0  0  0  0  0  0
  -21.6852   -6.0746   22.5280 C   0  0  0  0  0  0
  -21.4013   -6.5646   23.8215 C   0  0  0  0  0  0
  -21.3658   -5.6796   24.9176 C   0  0  0  0  0  0
  -21.6042   -4.3060   24.7224 C   0  0  0  0  0  0
  -21.8818   -3.8154   23.4345 C   0  0  0  0  0  0
  -21.9193   -4.6972   22.3402 C   0  0  0  0  0  0
  -22.7793  -13.5208   21.1891 C   0  0  0  0  0  0
  -22.1661   -4.2159   21.0978 F   0  0  0  0  0  0
  -21.5627   -3.4542   25.7735 F   0  0  0  0  0  0
  -29.9319  -13.7549   20.3551 N   0  0  0  0  0  0
  -26.2875  -12.9474   20.3255 N   0  0  0  0  0  0
  -25.9338  -11.6598   20.5756 N   0  0  0  0  0  0
  -22.0441  -12.8197   22.0445 N   0  0  0  0  0  0
  -25.4090  -15.1963   20.4156 N   0  0  0  0  0  0
  -31.7477  -15.0329   20.1683 O   0  0  0  0  0  0
  -21.6641   -6.8891   21.4244 O   0  0  0  0  0  0
  -22.3477  -14.5510   20.6731 O   0  0  0  0  0  0
  -24.6480  -31.8390   23.1837 C   0  0  0  0  0  0
  -25.9229  -32.4664   23.8248 C   0  0  1  0  0  0
  -27.2173  -27.0851   20.1620 C   0  0  0  0  0  0
  -25.5952  -33.8471   24.2156 N   0  0  0  0  0  0
  -23.4541  -30.4569   21.5301 C   0  0  2  0  0  0
  -24.9047  -28.8735   20.1110 C   0  0  0  0  0  0
  -22.7589  -29.4527   22.4841 C   0  0  0  0  0  0
  -18.0308  -28.1402   22.8478 C   0  0  0  0  0  0
  -24.1487  -36.7244   23.2647 C   0  0  0  0  0  0
  -26.0137  -30.6973   21.3896 C   0  0  0  0  0  0
  -26.0843  -29.3034   20.7317 C   0  0  0  0  0  0
  -27.2408  -28.4273   20.7357 C   0  0  0  0  0  0
  -26.0090  -26.7672   19.5038 C   0  0  0  0  0  0
  -24.8830  -27.6207   19.4801 C   0  0  0  0  0  0
  -23.6836  -29.7823   20.1515 C   0  0  0  0  0  0
  -25.4121  -36.3012   24.0313 C   0  0  1  0  0  0
  -20.5924  -28.3735   23.1225 C   0  0  2  0  0  0
  -20.6794  -26.9432   22.5407 C   0  0  0  0  0  0
  -19.5764  -26.6383   21.5220 C   0  0  0  0  0  0
  -18.1943  -26.7940   22.1627 C   0  0  0  0  0  0
  -19.1566  -28.8886   23.2841 C   0  0  0  0  0  0
  -18.9483  -30.1483   23.8867 C   0  0  0  0  0  0
  -17.6480  -30.6599   24.0561 C   0  0  0  0  0  0
  -25.9079  -34.9392   23.5048 C   0  0  0  0  0  0
  -16.5371  -29.9092   23.6340 C   0  0  0  0  0  0
  -16.7293  -28.6510   23.0360 C   0  0  0  0  0  0
  -26.4530  -31.6557   25.0717 C   0  0  0  0  0  0
  -25.3696  -31.3761   26.1401 C   0  0  0  0  0  0
  -27.0406  -30.2940   24.6346 C   0  0  0  0  0  0
  -27.6047  -32.4346   25.7501 C   0  0  0  0  0  0
  -27.5570  -37.1776   24.8465 C   0  0  0  0  0  0
  -21.4277  -29.3049   22.3587 N   0  0  0  0  0  0
  -26.4278  -37.3732   23.9411 N   0  0  0  0  0  0
  -24.7256  -31.0201   22.0894 N   0  0  0  0  0  0
  -23.4209  -28.8081   23.3015 O   0  0  0  0  0  0
  -28.2588  -26.0718   20.2333 O   0  0  0  0  0  0
  -26.5678  -34.8902   22.4637 O   0  0  0  0  0  0
  -23.5588  -32.1292   23.7027 O   0  0  0  0  0  0
  -31.9047  -19.4431   20.7191 C   0  0  0  0  0  0
  -31.4647  -18.1066   20.6679 C   0  0  0  0  0  0
  -29.2364  -18.9859   20.3726 C   0  0  0  0  0  0
  -31.0591  -20.5761   20.6024 C   0  0  0  0  0  0
  -30.1123  -17.7627   20.4922 C   0  0  0  0  0  0
  -29.6459  -20.4408   20.4135 C   0  0  0  0  0  0
  -31.7819  -21.9113   20.6887 C   0  0  0  0  0  0
  -27.9807  -24.5166   20.1194 C   0  0  0  0  0  0
  -29.0332  -23.1803   20.3544 C   0  0  0  0  0  0
  -29.7675  -16.2404   20.4844 N   0  0  0  0  0  0
  -28.7439  -21.6242   20.2731 O   0  0  0  0  0  0
  -31.4694  -12.7992   19.1819 H   0  0  0  0  0  0
  -30.4476  -11.6985   20.0596 H   0  0  0  0  0  0
  -29.8530  -11.7191   17.6123 H   0  0  0  0  0  0
  -29.5996  -13.4469   17.6712 H   0  0  0  0  0  0
  -27.9687  -11.2731   19.0107 H   0  0  0  0  0  0
  -27.3929  -12.4184   17.8274 H   0  0  0  0  0  0
  -27.5748  -14.2486   19.3862 H   0  0  0  0  0  0
  -28.7772  -12.3618   21.4684 H   0  0  0  0  0  0
  -28.3593  -14.0395   21.7331 H   0  0  0  0  0  0
  -25.2777   -9.5679   22.4779 H   0  0  0  0  0  0
  -24.0008   -7.4637   22.7483 H   0  0  0  0  0  0
  -21.0858   -8.8798   19.8957 H   0  0  0  0  0  0
  -22.3730  -10.9690   19.6181 H   0  0  0  0  0  0
  -21.2005   -7.6154   23.9721 H   0  0  0  0  0  0
  -21.1478   -6.0526   25.9078 H   0  0  0  0  0  0
  -22.0596   -2.7617   23.2841 H   0  0  0  0  0  0
  -22.4057  -11.9858   22.4835 H   0  0  0  0  0  0
  -21.1056  -13.1218   22.2641 H   0  0  0  0  0  0
  -24.6365  -15.8440   20.5283 H   0  0  0  0  0  0
  -26.2450  -15.6393   20.0583 H   0  0  0  0  0  0
  -26.7298  -32.5250   23.0977 H   0  0  0  0  0  0
  -25.0043  -33.9570   25.0264 H   0  0  0  0  0  0
  -22.7588  -31.2839   21.3713 H   0  0  0  0  0  0
  -23.3754  -35.9570   23.3293 H   0  0  0  0  0  0
  -24.3566  -36.8897   22.2063 H   0  0  0  0  0  0
  -23.7246  -37.6434   23.6704 H   0  0  0  0  0  0
  -26.1738  -31.4488   20.6155 H   0  0  0  0  0  0
  -26.8825  -30.7497   22.0343 H   0  0  0  0  0  0
  -28.1382  -28.7527   21.2426 H   0  0  0  0  0  0
  -25.8996  -25.8084   19.0206 H   0  0  0  0  0  0
  -23.9827  -27.2850   18.9836 H   0  0  0  0  0  0
  -23.8240  -30.5551   19.3952 H   0  0  0  0  0  0
  -22.7971  -29.2272   19.8401 H   0  0  0  0  0  0
  -25.1309  -36.1827   25.0805 H   0  0  0  0  0  0
  -21.0013  -28.3338   24.1349 H   0  0  0  0  0  0
  -20.5692  -26.2349   23.3631 H   0  0  0  0  0  0
  -21.6658  -26.7436   22.1198 H   0  0  0  0  0  0
  -19.6925  -25.6286   21.1267 H   0  0  0  0  0  0
  -19.6699  -27.3178   20.6736 H   0  0  0  0  0  0
  -17.4211  -26.6689   21.4030 H   0  0  0  0  0  0
  -18.0337  -26.0085   22.9025 H   0  0  0  0  0  0
  -19.7960  -30.7306   24.2221 H   0  0  0  0  0  0
  -17.5034  -31.6277   24.5172 H   0  0  0  0  0  0
  -15.5368  -30.2984   23.7686 H   0  0  0  0  0  0
  -15.8692  -28.0822   22.7094 H   0  0  0  0  0  0
  -24.5883  -30.7101   25.7720 H   0  0  0  0  0  0
  -24.8877  -32.2945   26.4761 H   0  0  0  0  0  0
  -25.7962  -30.8974   27.0224 H   0  0  0  0  0  0
  -26.3044  -29.6641   24.1338 H   0  0  0  0  0  0
  -27.3977  -29.7264   25.4951 H   0  0  0  0  0  0
  -27.8964  -30.4156   23.9700 H   0  0  0  0  0  0
  -27.2634  -33.3679   26.1992 H   0  0  0  0  0  0
  -28.3895  -32.6862   25.0354 H   0  0  0  0  0  0
  -28.0672  -31.8532   26.5486 H   0  0  0  0  0  0
  -28.2576  -38.0081   24.7510 H   0  0  0  0  0  0
  -28.1078  -36.2612   24.6294 H   0  0  0  0  0  0
  -27.2287  -37.1419   25.8867 H   0  0  0  0  0  0
  -20.9502  -29.8741   21.6737 H   0  0  0  0  0  0
  -26.0138  -38.2794   24.1423 H   0  0  0  0  0  0
  -32.9664  -19.5914   20.8595 H   0  0  0  0  0  0
  -32.2167  -17.3409   20.7830 H   0  0  0  0  0  0
  -28.1805  -18.8023   20.2382 H   0  0  0  0  0  0
  -32.8434  -21.7783   20.8985 H   0  0  0  0  0  0
  -31.4027  -22.5242   21.5028 H   0  0  0  0  0  0
  -31.7342  -22.4467   19.7422 H   0  0  0  0  0  0
  -27.1326  -24.3382   20.7814 H   0  0  0  0  0  0
  -27.5845  -24.3745   19.1149 H   0  0  0  0  0  0
  -29.4436  -23.3400   21.3492 H   0  0  0  0  0  0
  -29.8341  -23.3692   19.6453 H   0  0  0  0  0  0
  -28.7783  -16.0523   20.5429 H   0  0  0  0  0  0
  1 25  1  0  0  0
  1 30  2  0  0  0
  1 80  1  0  0  0
  2  3  1  0  0  0
  2 25  1  0  0  0
  2 82  1  0  0  0
  2 83  1  0  0  0
  3  4  1  0  0  0
  3 84  1  0  0  0
  3 85  1  0  0  0
  4  5  1  0  0  0
  4 86  1  0  0  0
  4 87  1  0  0  0
  5  6  1  0  0  0
  5 26  1  0  0  0
  5 88  1  0  0  0
  6 25  1  0  0  0
  6 89  1  0  0  0
  6 90  1  0  0  0
  7  8  2  0  0  0
  7 26  1  0  0  0
  7 29  1  0  0  0
  8  9  1  0  0  0
  8 22  1  0  0  0
  9 10  1  0  0  0
  9 27  2  0  0  0
 10 11  2  0  0  0
 10 15  1  0  0  0
 11 12  1  0  0  0
 11 91  1  0  0  0
 12 13  2  0  0  0
 12 92  1  0  0  0
 13 14  1  0  0  0
 13 31  1  0  0  0
 14 15  2  0  0  0
 14 93  1  0  0  0
 15 94  1  0  0  0
 16 17  2  0  0  0
 16 21  1  0  0  0
 16 31  1  0  0  0
 17 18  1  0  0  0
 17 95  1  0  0  0
 18 19  2  0  0  0
 18 96  1  0  0  0
 19 20  1  0  0  0
 19 24  1  0  0  0
 20 21  2  0  0  0
 20 97  1  0  0  0
 21 23  1  0  0  0
 22 28  1  0  0  0
 22 32  2  0  0  0
 26 27  1  0  0  0
 28 98  1  0  0  0
 28 99  1  0  0  0
 29100  1  0  0  0
 29101  1  0  0  0
 33 34  1  0  0  0
 33 66  1  0  0  0
 33 70  2  0  0  0
 34 36  1  0  0  0
 34 59  1  0  0  0
 34102  1  0  0  0
 35 44  2  0  0  0
 35 45  1  0  0  0
 35 68  1  0  0  0
 36 56  1  0  0  0
 36103  1  0  0  0
 37 39  1  0  0  0
 37 47  1  0  0  0
 37 66  1  0  0  0
 37104  1  0  0  0
 38 43  2  0  0  0
 38 46  1  0  0  0
 38 47  1  0  0  0
 39 64  1  0  0  0
 39 67  2  0  0  0
 40 52  1  0  0  0
 40 53  2  0  0  0
 40 58  1  0  0  0
 41105  1  0  0  0
 41106  1  0  0  0
 41107  1  0  0  0
 41 48  1  0  0  0
 42 43  1  0  0  0
 42 66  1  0  0  0
 42108  1  0  0  0
 42109  1  0  0  0
 43 44  1  0  0  0
 44110  1  0  0  0
 45 46  2  0  0  0
 45111  1  0  0  0
 46112  1  0  0  0
 47113  1  0  0  0
 47114  1  0  0  0
 48 56  1  0  0  0
 48 65  1  0  0  0
 48115  1  0  0  0
 49 50  1  0  0  0
 49 53  1  0  0  0
 49 64  1  0  0  0
 49116  1  0  0  0
 50 51  1  0  0  0
 50117  1  0  0  0
 50118  1  0  0  0
 51 52  1  0  0  0
 51119  1  0  0  0
 51120  1  0  0  0
 52121  1  0  0  0
 52122  1  0  0  0
 53 54  1  0  0  0
 54 55  2  0  0  0
 54123  1  0  0  0
 55 57  1  0  0  0
 55124  1  0  0  0
 56 69  2  0  0  0
 57 58  2  0  0  0
 57125  1  0  0  0
 58126  1  0  0  0
 59 60  1  0  0  0
 59 61  1  0  0  0
 59 62  1  0  0  0
 60127  1  0  0  0
 60128  1  0  0  0
 60129  1  0  0  0
 61130  1  0  0  0
 61131  1  0  0  0
 61132  1  0  0  0
 62133  1  0  0  0
 62134  1  0  0  0
 62135  1  0  0  0
 63 65  1  0  0  0
 63136  1  0  0  0
 63137  1  0  0  0
 63138  1  0  0  0
 64139  1  0  0  0
 65140  1  0  0  0
 68 78  1  0  0  0
 71 72  2  0  0  0
 71 74  1  0  0  0
 71141  1  0  0  0
 72 75  1  0  0  0
 72142  1  0  0  0
 73 75  2  0  0  0
 73 76  1  0  0  0
 73143  1  0  0  0
 74 76  2  0  0  0
 74 77  1  0  0  0
 75 80  1  0  0  0
 76 81  1  0  0  0
 77144  1  0  0  0
 77145  1  0  0  0
 77146  1  0  0  0
 78 79  1  0  0  0
 78147  1  0  0  0
 78148  1  0  0  0
 79 81  1  0  0  0
 79149  1  0  0  0
 79150  1  0  0  0
 80151  1  0  0  0
M  ISO  4   1 100  68 101  78 101  80 100
M  END
> <chiral flag>
0

> <version>
0

> <s_m_source_file>
/data/baiqing/PycharmProjects/Reinvent-master-3.2/result/LINK_invent/BTK/process_docking_weight1_custom_sum_contain_oxygen_bond_distance_aromatic_linkinvent_7_9_3/rearranged_h_0008.sdf

> <i_m_source_file_index>
26

> <r_mmod_Potential_Energy-OPLS-2005>
662.726196289062

> <r_mmod_Stretch_Energy-OPLS-2005>
337.147094726562

> <r_mmod_Bend_Energy-OPLS-2005>
300.611724853516

> <r_mmod_Torsional_Energy-OPLS-2005>
210.337829589844

> <r_mmod_Improper_Torsional_Energy-OPLS-2005>
5.00403594970703

> <r_mmod_Van_der_Waal_Energy-OPLS-2005>
144.401229858398

> <r_mmod_Electrostatic_Energy-OPLS-2005>
-362.667816162109

> <r_mmod_Solvation_Energy-OPLS-2005>
-214.052856445312

> <b_mmod_Minimization_Converged-OPLS-2005>
0

> <r_mmod_RMS_Derivative-OPLS-2005>
0.631585478782654

$$$$
26
                    3D
 Structure written by MMmdl.
151159  0  0  1  0            999 V2000
  -30.5316  -14.9226   20.4451 C   0  0  0  0  0  0
  -30.4488  -12.5707   19.5113 C   0  0  0  0  0  0
  -29.5314  -12.5460   18.2656 C   0  0  0  0  0  0
  -28.0619  -12.3265   18.6731 C   0  0  0  0  0  0
  -27.6380  -13.2432   19.8499 C   0  0  2  0  0  0
  -28.6755  -13.2444   20.9939 C   0  0  0  0  0  0
  -25.2496  -13.8216   20.5722 C   0  0  0  0  0  0
  -24.1797  -13.0445   20.9224 C   0  0  0  0  0  0
  -24.6404  -11.6930   20.8732 C   0  0  0  0  0  0
  -23.9087  -10.4305   21.0403 C   0  0  0  0  0  0
  -24.3622   -9.4213   21.9182 C   0  0  0  0  0  0
  -23.6288   -8.2258   22.0759 C   0  0  0  0  0  0
  -22.4259   -8.0304   21.3560 C   0  0  0  0  0  0
  -21.9909   -9.0280   20.4652 C   0  0  0  0  0  0
  -22.7261  -10.2148   20.3053 C   0  0  0  0  0  0
  -21.6855   -6.0740   22.5280 C   0  0  0  0  0  0
  -21.4031   -6.5638   23.8220 C   0  0  0  0  0  0
  -21.3666   -5.6781   24.9173 C   0  0  0  0  0  0
  -21.6033   -4.3044   24.7217 C   0  0  0  0  0  0
  -21.8816   -3.8149   23.4337 C   0  0  0  0  0  0
  -21.9190   -4.6968   22.3394 C   0  0  0  0  0  0
  -22.7810  -13.5221   21.1875 C   0  0  0  0  0  0
  -22.1656   -4.2160   21.0972 F   0  0  0  0  0  0
  -21.5617   -3.4528   25.7729 F   0  0  0  0  0  0
  -29.9662  -13.6507   20.4171 N   0  0  0  0  0  0
  -26.2918  -12.9433   20.3253 N   0  0  0  0  0  0
  -25.9331  -11.6564   20.5708 N   0  0  0  0  0  0
  -22.0437  -12.8219   22.0418 N   0  0  0  0  0  0
  -25.4179  -15.1947   20.4198 N   0  0  0  0  0  0
  -31.7130  -15.0364   20.0986 O   0  0  0  0  0  0
  -21.6633   -6.8894   21.4243 O   0  0  0  0  0  0
  -22.3517  -14.5538   20.6720 O   0  0  0  0  0  0
  -24.6429  -31.8450   23.1899 C   0  0  0  0  0  0
  -25.9206  -32.4698   23.8296 C   0  0  1  0  0  0
  -27.2206  -27.1483   20.1523 C   0  0  0  0  0  0
  -25.5959  -33.8503   24.2225 N   0  0  0  0  0  0
  -23.4469  -30.4651   21.5335 C   0  0  2  0  0  0
  -24.8979  -28.8955   20.1073 C   0  0  0  0  0  0
  -22.7579  -29.4553   22.4853 C   0  0  0  0  0  0
  -18.0315  -28.1388   22.8476 C   0  0  0  0  0  0
  -24.1489  -36.7263   23.2643 C   0  0  0  0  0  0
  -26.0018  -30.7227   21.3869 C   0  0  0  0  0  0
  -26.0729  -29.3349   20.7303 C   0  0  0  0  0  0
  -27.2341  -28.4764   20.7382 C   0  0  0  0  0  0
  -26.0216  -26.8108   19.4842 C   0  0  0  0  0  0
  -24.8854  -27.6473   19.4675 C   0  0  0  0  0  0
  -23.6743  -29.7972   20.1510 C   0  0  0  0  0  0
  -25.4113  -36.3041   24.0329 C   0  0  1  0  0  0
  -20.5929  -28.3721   23.1224 C   0  0  2  0  0  0
  -20.6793  -26.9420   22.5397 C   0  0  0  0  0  0
  -19.5762  -26.6377   21.5207 C   0  0  0  0  0  0
  -18.1947  -26.7927   22.1621 C   0  0  0  0  0  0
  -19.1571  -28.8872   23.2846 C   0  0  0  0  0  0
  -18.9485  -30.1462   23.8880 C   0  0  0  0  0  0
  -17.6480  -30.6580   24.0557 C   0  0  0  0  0  0
  -25.9065  -34.9410   23.5088 C   0  0  0  0  0  0
  -16.5375  -29.9073   23.6319 C   0  0  0  0  0  0
  -16.7299  -28.6489   23.0348 C   0  0  0  0  0  0
  -26.4528  -31.6547   25.0722 C   0  0  0  0  0  0
  -25.3724  -31.3730   26.1433 C   0  0  0  0  0  0
  -27.0380  -30.2944   24.6278 C   0  0  0  0  0  0
  -27.6078  -32.4290   25.7491 C   0  0  0  0  0  0
  -27.5580  -37.1786   24.8465 C   0  0  0  0  0  0
  -21.4273  -29.3050   22.3605 N   0  0  0  0  0  0
  -26.4286  -37.3748   23.9417 N   0  0  0  0  0  0
  -24.7168  -31.0325   22.0922 N   0  0  0  0  0  0
  -23.4228  -28.8095   23.2999 O   0  0  0  0  0  0
  -28.2741  -26.1683   20.2418 O   0  0  0  0  0  0
  -26.5641  -34.8905   22.4659 O   0  0  0  0  0  0
  -23.5548  -32.1327   23.7117 O   0  0  0  0  0  0
  -28.9843  -19.5628   19.1008 C   0  0  0  0  0  0
  -29.5922  -19.9774   21.3313 C   0  0  0  0  0  0
  -29.2506  -18.1390   19.2440 C   0  0  0  0  0  0
  -29.7065  -17.5455   20.4734 C   0  0  0  0  0  0
  -29.1110  -20.5684   20.1152 C   0  0  0  0  0  0
  -29.8589  -18.5489   21.5004 C   0  0  0  0  0  0
  -28.0089  -24.6529   20.0096 C   0  0  0  0  0  0
  -28.9075  -23.3001   20.4706 C   0  0  0  0  0  0
  -28.9402  -17.2344   18.0530 C   0  0  0  0  0  0
  -29.7202  -16.0366   20.7579 N   0  0  0  0  0  0
  -28.6783  -21.9357   19.8068 O   0  0  0  0  0  0
  -30.2356  -18.1278   22.7325 F   0  0  0  0  0  0
  -28.6732  -17.9246   16.9439 F   0  0  0  0  0  0
  -29.9690  -16.4313   17.7858 F   0  0  0  0  0  0
  -27.8752  -16.4858   18.3397 F   0  0  0  0  0  0
  -31.4863  -12.7261   19.2100 H   0  0  0  0  0  0
  -30.4306  -11.6083   20.0246 H   0  0  0  0  0  0
  -29.8514  -11.7670   17.5725 H   0  0  0  0  0  0
  -29.6238  -13.4905   17.7270 H   0  0  0  0  0  0
  -27.9525  -11.2804   18.9625 H   0  0  0  0  0  0
  -27.4058  -12.4797   17.8156 H   0  0  0  0  0  0
  -27.6101  -14.2506   19.4374 H   0  0  0  0  0  0
  -28.7463  -12.2618   21.4626 H   0  0  0  0  0  0
  -28.3696  -13.9348   21.7816 H   0  0  0  0  0  0
  -25.2771   -9.5668   22.4754 H   0  0  0  0  0  0
  -23.9993   -7.4628   22.7458 H   0  0  0  0  0  0
  -21.0856   -8.8795   19.8941 H   0  0  0  0  0  0
  -22.3734  -10.9675   19.6144 H   0  0  0  0  0  0
  -21.2048   -7.6148   23.9728 H   0  0  0  0  0  0
  -21.1485   -6.0512   25.9079 H   0  0  0  0  0  0
  -22.0589   -2.7612   23.2827 H   0  0  0  0  0  0
  -22.4050  -11.9894   22.4823 H   0  0  0  0  0  0
  -21.1061  -13.1255   22.2637 H   0  0  0  0  0  0
  -24.6500  -15.8457   20.5451 H   0  0  0  0  0  0
  -26.2464  -15.6338   20.0393 H   0  0  0  0  0  0
  -26.7280  -32.5317   23.1035 H   0  0  0  0  0  0
  -25.0104  -33.9613   25.0373 H   0  0  0  0  0  0
  -22.7489  -31.2911   21.3797 H   0  0  0  0  0  0
  -23.3758  -35.9588   23.3279 H   0  0  0  0  0  0
  -24.3592  -36.8912   22.2068 H   0  0  0  0  0  0
  -23.7233  -37.6451   23.6683 H   0  0  0  0  0  0
  -26.1564  -31.4759   20.6133 H   0  0  0  0  0  0
  -26.8728  -30.7743   22.0280 H   0  0  0  0  0  0
  -28.1258  -28.8047   21.2533 H   0  0  0  0  0  0
  -25.9286  -25.8568   18.9869 H   0  0  0  0  0  0
  -23.9912  -27.3082   18.9624 H   0  0  0  0  0  0
  -23.8150  -30.5738   19.3980 H   0  0  0  0  0  0
  -22.7887  -29.2422   19.8363 H   0  0  0  0  0  0
  -25.1290  -36.1884   25.0820 H   0  0  0  0  0  0
  -21.0023  -28.3310   24.1343 H   0  0  0  0  0  0
  -20.5670  -26.2340   23.3621 H   0  0  0  0  0  0
  -21.6660  -26.7411   22.1206 H   0  0  0  0  0  0
  -19.6919  -25.6282   21.1247 H   0  0  0  0  0  0
  -19.6684  -27.3175   20.6724 H   0  0  0  0  0  0
  -17.4213  -26.6676   21.4027 H   0  0  0  0  0  0
  -18.0344  -26.0070   22.9015 H   0  0  0  0  0  0
  -19.7962  -30.7280   24.2248 H   0  0  0  0  0  0
  -17.5030  -31.6252   24.5168 H   0  0  0  0  0  0
  -15.5368  -30.2966   23.7640 H   0  0  0  0  0  0
  -15.8705  -28.0790   22.7074 H   0  0  0  0  0  0
  -24.5907  -30.7062   25.7776 H   0  0  0  0  0  0
  -24.8904  -32.2901   26.4824 H   0  0  0  0  0  0
  -25.8026  -30.8942   27.0239 H   0  0  0  0  0  0
  -26.2983  -29.6663   24.1299 H   0  0  0  0  0  0
  -27.4024  -29.7240   25.4835 H   0  0  0  0  0  0
  -27.8883  -30.4189   23.9569 H   0  0  0  0  0  0
  -27.2706  -33.3624   26.2009 H   0  0  0  0  0  0
  -28.3913  -32.6783   25.0322 H   0  0  0  0  0  0
  -28.0711  -31.8441   26.5448 H   0  0  0  0  0  0
  -28.2584  -38.0095   24.7517 H   0  0  0  0  0  0
  -28.1086  -36.2625   24.6269 H   0  0  0  0  0  0
  -27.2308  -37.1417   25.8870 H   0  0  0  0  0  0
  -20.9490  -29.8787   21.6803 H   0  0  0  0  0  0
  -26.0158  -38.2823   24.1399 H   0  0  0  0  0  0
  -28.6135  -19.9063   18.1475 H   0  0  0  0  0  0
  -29.7154  -20.6157   22.1937 H   0  0  0  0  0  0
  -27.0121  -24.4598   20.4069 H   0  0  0  0  0  0
  -27.8999  -24.5673   18.9284 H   0  0  0  0  0  0
  -28.8153  -23.1725   21.5495 H   0  0  0  0  0  0
  -29.9573  -23.5353   20.2935 H   0  0  0  0  0  0
  -28.8519  -15.7294   21.1675 H   0  0  0  0  0  0
  1 25  1  0  0  0
  1 30  2  0  0  0
  1 80  1  0  0  0
  2  3  1  0  0  0
  2 25  1  0  0  0
  2 86  1  0  0  0
  2 87  1  0  0  0
  3  4  1  0  0  0
  3 88  1  0  0  0
  3 89  1  0  0  0
  4  5  1  0  0  0
  4 90  1  0  0  0
  4 91  1  0  0  0
  5  6  1  0  0  0
  5 26  1  0  0  0
  5 92  1  0  0  0
  6 25  1  0  0  0
  6 93  1  0  0  0
  6 94  1  0  0  0
  7  8  2  0  0  0
  7 26  1  0  0  0
  7 29  1  0  0  0
  8  9  1  0  0  0
  8 22  1  0  0  0
  9 10  1  0  0  0
  9 27  2  0  0  0
 10 11  2  0  0  0
 10 15  1  0  0  0
 11 12  1  0  0  0
 11 95  1  0  0  0
 12 13  2  0  0  0
 12 96  1  0  0  0
 13 14  1  0  0  0
 13 31  1  0  0  0
 14 15  2  0  0  0
 14 97  1  0  0  0
 15 98  1  0  0  0
 16 17  2  0  0  0
 16 21  1  0  0  0
 16 31  1  0  0  0
 17 18  1  0  0  0
 17 99  1  0  0  0
 18 19  2  0  0  0
 18100  1  0  0  0
 19 20  1  0  0  0
 19 24  1  0  0  0
 20 21  2  0  0  0
 20101  1  0  0  0
 21 23  1  0  0  0
 22 28  1  0  0  0
 22 32  2  0  0  0
 26 27  1  0  0  0
 28102  1  0  0  0
 28103  1  0  0  0
 29104  1  0  0  0
 29105  1  0  0  0
 33 34  1  0  0  0
 33 66  1  0  0  0
 33 70  2  0  0  0
 34 36  1  0  0  0
 34 59  1  0  0  0
 34106  1  0  0  0
 35 44  2  0  0  0
 35 45  1  0  0  0
 35 68  1  0  0  0
 36 56  1  0  0  0
 36107  1  0  0  0
 37 39  1  0  0  0
 37 47  1  0  0  0
 37 66  1  0  0  0
 37108  1  0  0  0
 38 43  2  0  0  0
 38 46  1  0  0  0
 38 47  1  0  0  0
 39 64  1  0  0  0
 39 67  2  0  0  0
 40 52  1  0  0  0
 40 53  2  0  0  0
 40 58  1  0  0  0
 41109  1  0  0  0
 41110  1  0  0  0
 41111  1  0  0  0
 41 48  1  0  0  0
 42 43  1  0  0  0
 42 66  1  0  0  0
 42112  1  0  0  0
 42113  1  0  0  0
 43 44  1  0  0  0
 44114  1  0  0  0
 45 46  2  0  0  0
 45115  1  0  0  0
 46116  1  0  0  0
 47117  1  0  0  0
 47118  1  0  0  0
 48 56  1  0  0  0
 48 65  1  0  0  0
 48119  1  0  0  0
 49 50  1  0  0  0
 49 53  1  0  0  0
 49 64  1  0  0  0
 49120  1  0  0  0
 50 51  1  0  0  0
 50121  1  0  0  0
 50122  1  0  0  0
 51 52  1  0  0  0
 51123  1  0  0  0
 51124  1  0  0  0
 52125  1  0  0  0
 52126  1  0  0  0
 53 54  1  0  0  0
 54 55  2  0  0  0
 54127  1  0  0  0
 55 57  1  0  0  0
 55128  1  0  0  0
 56 69  2  0  0  0
 57 58  2  0  0  0
 57129  1  0  0  0
 58130  1  0  0  0
 59 60  1  0  0  0
 59 61  1  0  0  0
 59 62  1  0  0  0
 60131  1  0  0  0
 60132  1  0  0  0
 60133  1  0  0  0
 61134  1  0  0  0
 61135  1  0  0  0
 61136  1  0  0  0
 62137  1  0  0  0
 62138  1  0  0  0
 62139  1  0  0  0
 63 65  1  0  0  0
 63140  1  0  0  0
 63141  1  0  0  0
 63142  1  0  0  0
 64143  1  0  0  0
 65144  1  0  0  0
 68 77  1  0  0  0
 71 73  2  0  0  0
 71 75  1  0  0  0
 71145  1  0  0  0
 72 75  2  0  0  0
 72 76  1  0  0  0
 72146  1  0  0  0
 73 74  1  0  0  0
 73 79  1  0  0  0
 74 76  2  0  0  0
 74 80  1  0  0  0
 75 81  1  0  0  0
 76 82  1  0  0  0
 77 78  1  0  0  0
 77147  1  0  0  0
 77148  1  0  0  0
 78 81  1  0  0  0
 78149  1  0  0  0
 78150  1  0  0  0
 79 83  1  0  0  0
 79 84  1  0  0  0
 79 85  1  0  0  0
 80151  1  0  0  0
M  ISO  4   1 100  68 101  77 101  80 100
M  END
> <chiral flag>
0

> <version>
0

> <s_m_source_file>
/data/baiqing/PycharmProjects/Reinvent-master-3.2/result/LINK_invent/BTK/process_docking_weight1_custom_sum_contain_oxygen_bond_distance_aromatic_linkinvent_7_9_3/rearranged_h_0008.sdf

> <i_m_source_file_index>
27

> <r_mmod_Potential_Energy-OPLS-2005>
437.962554931641

> <r_mmod_Stretch_Energy-OPLS-2005>
222.014495849609

> <r_mmod_Bend_Energy-OPLS-2005>
272.81982421875

> <r_mmod_Torsional_Energy-OPLS-2005>
246.781539916992

> <r_mmod_Improper_Torsional_Energy-OPLS-2005>
5.69535255432129

> <r_mmod_Van_der_Waal_Energy-OPLS-2005>
130.462997436523

> <r_mmod_Electrostatic_Energy-OPLS-2005>
-407.860626220703

> <r_mmod_Solvation_Energy-OPLS-2005>
-211.484741210938

> <b_mmod_Minimization_Converged-OPLS-2005>
0

> <r_mmod_RMS_Derivative-OPLS-2005>
1.92392456531525

$$$$
27
                    3D
 Structure written by MMmdl.
197205  0  0  1  0            999 V2000
  -30.7161  -14.4936   20.5526 C   0  0  0  0  0  0
  -30.4216  -12.3212   19.4120 C   0  0  0  0  0  0
  -29.4790  -12.4250   18.1960 C   0  0  0  0  0  0
  -28.0125  -12.2457   18.6334 C   0  0  0  0  0  0
  -27.6436  -13.1347   19.8416 C   0  0  2  0  0  0
  -28.6978  -13.0313   20.9732 C   0  0  0  0  0  0
  -25.2656  -13.7908   20.5830 C   0  0  0  0  0  0
  -24.1813  -13.0279   20.9214 C   0  0  0  0  0  0
  -24.6327  -11.6753   20.8815 C   0  0  0  0  0  0
  -23.8996  -10.4208   21.0495 C   0  0  0  0  0  0
  -24.3572   -9.4130   21.9268 C   0  0  0  0  0  0
  -23.6249   -8.2190   22.0810 C   0  0  0  0  0  0
  -22.4254   -8.0257   21.3581 C   0  0  0  0  0  0
  -21.9894   -9.0243   20.4687 C   0  0  0  0  0  0
  -22.7203  -10.2118   20.3113 C   0  0  0  0  0  0
  -21.6837   -6.0704   22.5301 C   0  0  0  0  0  0
  -21.3999   -6.5618   23.8229 C   0  0  0  0  0  0
  -21.3626   -5.6786   24.9195 C   0  0  0  0  0  0
  -21.6018   -4.3053   24.7256 C   0  0  0  0  0  0
  -21.8825   -3.8127   23.4391 C   0  0  0  0  0  0
  -21.9196   -4.6932   22.3435 C   0  0  0  0  0  0
  -22.7883  -13.5160   21.1865 C   0  0  0  0  0  0
  -22.1692   -4.2120   21.1011 F   0  0  0  0  0  0
  -21.5610   -3.4539   25.7774 F   0  0  0  0  0  0
  -30.0130  -13.3385   20.3951 N   0  0  0  0  0  0
  -26.2936  -12.8937   20.3277 N   0  0  0  0  0  0
  -25.9198  -11.6189   20.5803 N   0  0  0  0  0  0
  -22.0426  -12.8202   22.0379 N   0  0  0  0  0  0
  -25.4486  -15.1623   20.4665 N   0  0  0  0  0  0
  -31.8887  -14.6103   20.1914 O   0  0  0  0  0  0
  -21.6617   -6.8865   21.4274 O   0  0  0  0  0  0
  -22.3671  -14.5530   20.6776 O   0  0  0  0  0  0
  -24.6144  -31.8718   23.2147 C   0  0  0  0  0  0
  -25.9068  -32.4841   23.8413 C   0  0  1  0  0  0
  -27.2471  -27.4794   20.0654 C   0  0  0  0  0  0
  -25.5955  -33.8637   24.2377 N   0  0  0  0  0  0
  -23.4008  -30.4963   21.5550 C   0  0  2  0  0  0
  -24.8452  -28.9696   20.1105 C   0  0  0  0  0  0
  -22.7431  -29.4654   22.5006 C   0  0  0  0  0  0
  -18.0301  -28.1310   22.8508 C   0  0  0  0  0  0
  -24.1473  -36.7302   23.2619 C   0  0  0  0  0  0
  -25.9219  -30.8498   21.3592 C   0  0  0  0  0  0
  -26.0030  -29.4857   20.7062 C   0  0  0  0  0  0
  -27.2050  -28.7478   20.6801 C   0  0  0  0  0  0
  -26.0714  -26.9718   19.4571 C   0  0  0  0  0  0
  -24.8740  -27.7092   19.4874 C   0  0  0  0  0  0
  -23.6046  -29.8285   20.1677 C   0  0  0  0  0  0
  -25.4075  -36.3089   24.0328 C   0  0  1  0  0  0
  -20.5904  -28.3647   23.1329 C   0  0  2  0  0  0
  -20.6770  -26.9393   22.5462 C   0  0  0  0  0  0
  -19.5786  -26.6348   21.5251 C   0  0  0  0  0  0
  -18.1961  -26.7834   22.1669 C   0  0  0  0  0  0
  -19.1560  -28.8771   23.2919 C   0  0  0  0  0  0
  -18.9499  -30.1391   23.8880 C   0  0  0  0  0  0
  -17.6505  -30.6534   24.0495 C   0  0  0  0  0  0
  -25.9040  -34.9483   23.5129 C   0  0  0  0  0  0
  -16.5391  -29.9049   23.6259 C   0  0  0  0  0  0
  -16.7289  -28.6446   23.0317 C   0  0  0  0  0  0
  -26.4498  -31.6610   25.0717 C   0  0  0  0  0  0
  -25.3771  -31.3727   26.1470 C   0  0  0  0  0  0
  -27.0347  -30.3076   24.6078 C   0  0  0  0  0  0
  -27.6087  -32.4311   25.7466 C   0  0  0  0  0  0
  -27.5575  -37.1794   24.8458 C   0  0  0  0  0  0
  -21.4152  -29.3020   22.3726 N   0  0  0  0  0  0
  -26.4258  -37.3780   23.9437 N   0  0  0  0  0  0
  -24.6645  -31.0832   22.1045 N   0  0  0  0  0  0
  -23.4191  -28.8179   23.3034 O   0  0  0  0  0  0
  -28.4520  -26.8106   20.0784 O   0  0  0  0  0  0
  -26.5544  -34.8927   22.4653 O   0  0  0  0  0  0
  -23.5370  -32.1457   23.7593 O   0  0  0  0  0  0
  -25.9291  -18.1299   18.0087 C   0  0  0  0  0  0
  -28.0540  -24.6948   21.2201 C   0  0  0  0  0  0
  -29.1064  -16.3328   18.7941 C   0  0  0  0  0  0
  -28.5337  -17.6175   20.7817 C   0  0  0  0  0  0
  -27.7840  -16.6123   18.0776 C   0  0  0  0  0  0
  -27.2121  -18.1045   20.1061 C   0  0  0  0  0  0
  -28.9181  -16.2144   20.3160 C   0  0  0  0  0  0
  -22.8036  -16.0722   16.5812 C   0  0  0  0  0  0
  -25.1803  -15.9466   15.9529 C   0  0  0  0  0  0
  -23.8761  -18.0381   15.4734 C   0  0  0  0  0  0
  -22.5147  -17.5853   19.4552 C   0  0  0  0  0  0
  -28.4894  -25.3915   19.9265 C   0  0  0  0  0  0
  -23.7213  -22.3261   21.0014 C   0  0  0  0  0  0
  -25.2484  -22.1463   20.9022 C   0  0  0  0  0  0
  -22.9264  -22.0398   19.7088 C   0  0  0  0  0  0
  -25.9818  -22.4624   22.2209 C   0  0  0  0  0  0
  -22.5509  -20.5619   19.4629 C   0  0  0  0  0  0
  -26.0902  -23.9607   22.5678 C   0  0  0  0  0  0
  -23.7403  -19.6806   19.0292 C   0  0  0  0  0  0
  -24.5001  -17.4819   17.9388 C   0  0  2  0  0  0
  -24.1045  -16.9118   16.5102 C   0  0  0  0  0  0
  -26.8809  -17.5440   18.7695 N   0  0  0  0  0  0
  -26.7443  -24.6974   21.4957 N   0  0  0  0  0  0
  -30.0643  -15.5885   21.0010 N   0  0  0  0  0  0
  -23.3779  -18.3310   18.4963 N   0  3  1  0  0  0
  -26.1946  -19.1454   17.3591 O   0  0  0  0  0  0
  -28.8870  -24.1446   21.9440 O   0  0  0  0  0  0
  -31.4567  -12.4408   19.0865 H   0  0  0  0  0  0
  -30.3654  -11.3262   19.8571 H   0  0  0  0  0  0
  -29.7342  -11.6615   17.4596 H   0  0  0  0  0  0
  -29.6105  -13.3764   17.6867 H   0  0  0  0  0  0
  -27.8762  -11.1950   18.8931 H   0  0  0  0  0  0
  -27.3411  -12.4409   17.7951 H   0  0  0  0  0  0
  -27.6299  -14.1122   19.3961 H   0  0  0  0  0  0
  -28.7143  -12.0208   21.3839 H   0  0  0  0  0  0
  -28.4554  -13.6862   21.8126 H   0  0  0  0  0  0
  -25.2727   -9.5564   22.4823 H   0  0  0  0  0  0
  -23.9925   -7.4563   22.7521 H   0  0  0  0  0  0
  -21.0834   -8.8770   19.8990 H   0  0  0  0  0  0
  -22.3705  -10.9682   19.6231 H   0  0  0  0  0  0
  -21.2014   -7.6132   23.9719 H   0  0  0  0  0  0
  -21.1422   -6.0535   25.9090 H   0  0  0  0  0  0
  -22.0626   -2.7583   23.2925 H   0  0  0  0  0  0
  -22.3915  -11.9791   22.4745 H   0  0  0  0  0  0
  -21.1125  -13.1443   22.2595 H   0  0  0  0  0  0
  -24.7831  -15.7442   20.9599 H   0  0  0  0  0  0
  -26.3817  -15.5480   20.4672 H   0  0  0  0  0  0
  -26.7124  -32.5548   23.1167 H   0  0  0  0  0  0
  -25.0219  -33.9781   25.0612 H   0  0  0  0  0  0
  -22.6903  -31.3143   21.4185 H   0  0  0  0  0  0
  -23.3740  -35.9638   23.3279 H   0  0  0  0  0  0
  -24.3592  -36.8915   22.2041 H   0  0  0  0  0  0
  -23.7225  -37.6493   23.6651 H   0  0  0  0  0  0
  -26.0162  -31.6173   20.5885 H   0  0  0  0  0  0
  -26.8156  -30.9121   21.9688 H   0  0  0  0  0  0
  -28.1034  -29.1496   21.1309 H   0  0  0  0  0  0
  -26.0621  -26.0306   18.9320 H   0  0  0  0  0  0
  -23.9875  -27.3133   19.0109 H   0  0  0  0  0  0
  -23.7043  -30.6024   19.4050 H   0  0  0  0  0  0
  -22.7313  -29.2427   19.8772 H   0  0  0  0  0  0
  -25.1257  -36.1932   25.0813 H   0  0  0  0  0  0
  -21.0069  -28.3210   24.1420 H   0  0  0  0  0  0
  -20.5626  -26.2340   23.3696 H   0  0  0  0  0  0
  -21.6645  -26.7391   22.1300 H   0  0  0  0  0  0
  -19.6963  -25.6262   21.1335 H   0  0  0  0  0  0
  -19.6762  -27.3072   20.6707 H   0  0  0  0  0  0
  -17.4245  -26.6551   21.4071 H   0  0  0  0  0  0
  -18.0373  -25.9997   22.9090 H   0  0  0  0  0  0
  -19.7970  -30.7201   24.2253 H   0  0  0  0  0  0
  -17.5079  -31.6195   24.5111 H   0  0  0  0  0  0
  -15.5397  -30.2923   23.7613 H   0  0  0  0  0  0
  -15.8698  -28.0773   22.7000 H   0  0  0  0  0  0
  -24.5917  -30.7116   25.7805 H   0  0  0  0  0  0
  -24.8997  -32.2900   26.4934 H   0  0  0  0  0  0
  -25.8106  -30.8869   27.0225 H   0  0  0  0  0  0
  -26.2906  -29.6796   24.1162 H   0  0  0  0  0  0
  -27.4180  -29.7333   25.4523 H   0  0  0  0  0  0
  -27.8693  -30.4427   23.9188 H   0  0  0  0  0  0
  -27.2736  -33.3593   26.2110 H   0  0  0  0  0  0
  -28.3855  -32.6911   25.0264 H   0  0  0  0  0  0
  -28.0802  -31.8395   26.5325 H   0  0  0  0  0  0
  -28.2571  -38.0118   24.7530 H   0  0  0  0  0  0
  -28.1099  -36.2659   24.6230 H   0  0  0  0  0  0
  -27.2334  -37.1338   25.8869 H   0  0  0  0  0  0
  -20.9285  -29.8793   21.7009 H   0  0  0  0  0  0
  -26.0155  -38.2856   24.1457 H   0  0  0  0  0  0
  -29.8186  -17.1285   18.5716 H   0  0  0  0  0  0
  -29.5375  -15.4390   18.3518 H   0  0  0  0  0  0
  -28.4153  -17.6350   21.8675 H   0  0  0  0  0  0
  -29.3400  -18.3186   20.5620 H   0  0  0  0  0  0
  -27.2479  -15.6767   17.9362 H   0  0  0  0  0  0
  -28.0155  -16.9763   17.0758 H   0  0  0  0  0  0
  -27.2273  -19.1953   20.0520 H   0  0  0  0  0  0
  -26.3783  -17.8536   20.7634 H   0  0  0  0  0  0
  -28.0550  -15.6324   20.6015 H   0  0  0  0  0  0
  -22.5893  -15.5778   15.6335 H   0  0  0  0  0  0
  -21.9240  -16.6745   16.8070 H   0  0  0  0  0  0
  -22.8739  -15.2829   17.3313 H   0  0  0  0  0  0
  -24.8598  -15.4880   15.0158 H   0  0  0  0  0  0
  -25.3818  -15.1280   16.6442 H   0  0  0  0  0  0
  -26.1215  -16.4505   15.7361 H   0  0  0  0  0  0
  -23.5782  -17.6260   14.5078 H   0  0  0  0  0  0
  -24.7767  -18.6268   15.2938 H   0  0  0  0  0  0
  -23.0873  -18.7269   15.7784 H   0  0  0  0  0  0
  -21.5554  -18.0820   19.6000 H   0  0  0  0  0  0
  -22.9934  -17.4839   20.4283 H   0  0  0  0  0  0
  -22.2721  -16.5864   19.1038 H   0  0  0  0  0  0
  -27.9231  -25.0266   19.0711 H   0  0  0  0  0  0
  -29.5261  -25.1161   19.7276 H   0  0  0  0  0  0
  -23.5361  -23.3638   21.2814 H   0  0  0  0  0  0
  -23.3257  -21.7286   21.8224 H   0  0  0  0  0  0
  -25.6389  -22.7529   20.0849 H   0  0  0  0  0  0
  -25.5058  -21.1258   20.6422 H   0  0  0  0  0  0
  -23.4410  -22.4603   18.8432 H   0  0  0  0  0  0
  -21.9874  -22.5920   19.7805 H   0  0  0  0  0  0
  -26.9896  -22.0527   22.1478 H   0  0  0  0  0  0
  -25.5107  -21.9288   23.0490 H   0  0  0  0  0  0
  -21.7870  -20.5401   18.6855 H   0  0  0  0  0  0
  -22.0832  -20.1609   20.3633 H   0  0  0  0  0  0
  -26.6392  -24.0923   23.5027 H   0  0  0  0  0  0
  -25.1035  -24.3917   22.7346 H   0  0  0  0  0  0
  -24.4021  -19.5323   19.8809 H   0  0  0  0  0  0
  -24.2740  -20.2536   18.2733 H   0  0  0  0  0  0
  -24.5705  -16.6074   18.5800 H   0  0  0  0  0  0
  -26.1517  -25.2402   20.8822 H   0  0  0  0  0  0
  -30.7032  -16.2749   21.3708 H   0  0  0  0  0  0
  -22.8059  -18.5090   17.6848 H   0  0  0  0  0  0
  1 25  1  0  0  0
  1 30  2  0  0  0
  1 94  1  0  0  0
  2  3  1  0  0  0
  2 25  1  0  0  0
  2 98  1  0  0  0
  2 99  1  0  0  0
  3  4  1  0  0  0
  3100  1  0  0  0
  3101  1  0  0  0
  4  5  1  0  0  0
  4102  1  0  0  0
  4103  1  0  0  0
  5  6  1  0  0  0
  5 26  1  0  0  0
  5104  1  0  0  0
  6 25  1  0  0  0
  6105  1  0  0  0
  6106  1  0  0  0
  7  8  2  0  0  0
  7 26  1  0  0  0
  7 29  1  0  0  0
  8  9  1  0  0  0
  8 22  1  0  0  0
  9 10  1  0  0  0
  9 27  2  0  0  0
 10 11  2  0  0  0
 10 15  1  0  0  0
 11 12  1  0  0  0
 11107  1  0  0  0
 12 13  2  0  0  0
 12108  1  0  0  0
 13 14  1  0  0  0
 13 31  1  0  0  0
 14 15  2  0  0  0
 14109  1  0  0  0
 15110  1  0  0  0
 16 17  2  0  0  0
 16 21  1  0  0  0
 16 31  1  0  0  0
 17 18  1  0  0  0
 17111  1  0  0  0
 18 19  2  0  0  0
 18112  1  0  0  0
 19 20  1  0  0  0
 19 24  1  0  0  0
 20 21  2  0  0  0
 20113  1  0  0  0
 21 23  1  0  0  0
 22 28  1  0  0  0
 22 32  2  0  0  0
 26 27  1  0  0  0
 28114  1  0  0  0
 28115  1  0  0  0
 29116  1  0  0  0
 29117  1  0  0  0
 33 34  1  0  0  0
 33 66  1  0  0  0
 33 70  2  0  0  0
 34 36  1  0  0  0
 34 59  1  0  0  0
 34118  1  0  0  0
 35 44  2  0  0  0
 35 45  1  0  0  0
 35 68  1  0  0  0
 36 56  1  0  0  0
 36119  1  0  0  0
 37 39  1  0  0  0
 37 47  1  0  0  0
 37 66  1  0  0  0
 37120  1  0  0  0
 38 43  2  0  0  0
 38 46  1  0  0  0
 38 47  1  0  0  0
 39 64  1  0  0  0
 39 67  2  0  0  0
 40 52  1  0  0  0
 40 53  2  0  0  0
 40 58  1  0  0  0
 41121  1  0  0  0
 41122  1  0  0  0
 41123  1  0  0  0
 41 48  1  0  0  0
 42 43  1  0  0  0
 42 66  1  0  0  0
 42124  1  0  0  0
 42125  1  0  0  0
 43 44  1  0  0  0
 44126  1  0  0  0
 45 46  2  0  0  0
 45127  1  0  0  0
 46128  1  0  0  0
 47129  1  0  0  0
 47130  1  0  0  0
 48 56  1  0  0  0
 48 65  1  0  0  0
 48131  1  0  0  0
 49 50  1  0  0  0
 49 53  1  0  0  0
 49 64  1  0  0  0
 49132  1  0  0  0
 50 51  1  0  0  0
 50133  1  0  0  0
 50134  1  0  0  0
 51 52  1  0  0  0
 51135  1  0  0  0
 51136  1  0  0  0
 52137  1  0  0  0
 52138  1  0  0  0
 53 54  1  0  0  0
 54 55  2  0  0  0
 54139  1  0  0  0
 55 57  1  0  0  0
 55140  1  0  0  0
 56 69  2  0  0  0
 57 58  2  0  0  0
 57141  1  0  0  0
 58142  1  0  0  0
 59 60  1  0  0  0
 59 61  1  0  0  0
 59 62  1  0  0  0
 60143  1  0  0  0
 60144  1  0  0  0
 60145  1  0  0  0
 61146  1  0  0  0
 61147  1  0  0  0
 61148  1  0  0  0
 62149  1  0  0  0
 62150  1  0  0  0
 62151  1  0  0  0
 63 65  1  0  0  0
 63152  1  0  0  0
 63153  1  0  0  0
 63154  1  0  0  0
 64155  1  0  0  0
 65156  1  0  0  0
 68 82  1  0  0  0
 71 92  1  0  0  0
 71 96  2  0  0  0
 71 90  1  0  0  0
 72 82  1  0  0  0
 72 93  1  0  0  0
 72 97  2  0  0  0
 73 75  1  0  0  0
 73 77  1  0  0  0
 73157  1  0  0  0
 73158  1  0  0  0
 74 76  1  0  0  0
 74 77  1  0  0  0
 74159  1  0  0  0
 74160  1  0  0  0
 75 92  1  0  0  0
 75161  1  0  0  0
 75162  1  0  0  0
 76 92  1  0  0  0
 76163  1  0  0  0
 76164  1  0  0  0
 77 94  1  0  0  0
 77165  1  0  0  0
 78166  1  0  0  0
 78167  1  0  0  0
 78168  1  0  0  0
 78 91  1  0  0  0
 79 91  1  0  0  0
 79169  1  0  0  0
 79170  1  0  0  0
 79171  1  0  0  0
 80 91  1  0  0  0
 80172  1  0  0  0
 80173  1  0  0  0
 80174  1  0  0  0
 81175  1  0  0  0
 81176  1  0  0  0
 81177  1  0  0  0
 81 95  1  0  0  0
 82178  1  0  0  0
 82179  1  0  0  0
 83 84  1  0  0  0
 83 85  1  0  0  0
 83180  1  0  0  0
 83181  1  0  0  0
 84 86  1  0  0  0
 84182  1  0  0  0
 84183  1  0  0  0
 85 87  1  0  0  0
 85184  1  0  0  0
 85185  1  0  0  0
 86 88  1  0  0  0
 86186  1  0  0  0
 86187  1  0  0  0
 87 89  1  0  0  0
 87188  1  0  0  0
 87189  1  0  0  0
 88 93  1  0  0  0
 88190  1  0  0  0
 88191  1  0  0  0
 89 95  1  0  0  0
 89192  1  0  0  0
 89193  1  0  0  0
 90 91  1  0  0  0
 90 95  1  0  0  0
 90194  1  0  0  0
 93195  1  0  0  0
 94196  1  0  0  0
 95197  1  0  0  0
M  CHG  1  95   1
M  ISO  4   1 100  68 101  82 101  94 100
M  END
> <chiral flag>
0

> <version>
0

> <s_m_source_file>
/data/baiqing/PycharmProjects/Reinvent-master-3.2/result/LINK_invent/BTK/process_docking_weight1_custom_sum_contain_oxygen_bond_distance_aromatic_linkinvent_7_9_3/rearranged_h_0008.sdf

> <i_m_source_file_index>
28

> <r_mmod_Potential_Energy-OPLS-2005>
132.512451171875

> <r_mmod_Stretch_Energy-OPLS-2005>
48.5964736938477

> <r_mmod_Bend_Energy-OPLS-2005>
159.461303710938

> <r_mmod_Torsional_Energy-OPLS-2005>
448.749938964844

> <r_mmod_Improper_Torsional_Energy-OPLS-2005>
9.97272682189941

> <r_mmod_Van_der_Waal_Energy-OPLS-2005>
147.429962158203

> <r_mmod_Electrostatic_Energy-OPLS-2005>
-273.539306640625

> <r_mmod_Solvation_Energy-OPLS-2005>
-431.549224853516

> <b_mmod_Minimization_Converged-OPLS-2005>
0

> <r_mmod_RMS_Derivative-OPLS-2005>
4.28672218322754

$$$$
28
                    3D
 Structure written by MMmdl.
157165  0  0  1  0            999 V2000
  -30.5983  -14.7492   20.4711 C   0  0  0  0  0  0
  -30.4450  -12.4683   19.4427 C   0  0  0  0  0  0
  -29.5056  -12.4908   18.2166 C   0  0  0  0  0  0
  -28.0330  -12.3198   18.6421 C   0  0  0  0  0  0
  -27.6399  -13.2232   19.8410 C   0  0  2  0  0  0
  -28.6936  -13.1629   20.9665 C   0  0  0  0  0  0
  -25.2523  -13.8166   20.5688 C   0  0  0  0  0  0
  -24.1816  -13.0428   20.9236 C   0  0  0  0  0  0
  -24.6393  -11.6898   20.8771 C   0  0  0  0  0  0
  -23.9052  -10.4286   21.0426 C   0  0  0  0  0  0
  -24.3600   -9.4206   21.9205 C   0  0  0  0  0  0
  -23.6286   -8.2237   22.0762 C   0  0  0  0  0  0
  -22.4269   -8.0285   21.3550 C   0  0  0  0  0  0
  -21.9899   -9.0252   20.4650 C   0  0  0  0  0  0
  -22.7221  -10.2138   20.3068 C   0  0  0  0  0  0
  -21.6848   -6.0742   22.5292 C   0  0  0  0  0  0
  -21.4009   -6.5638   23.8230 C   0  0  0  0  0  0
  -21.3660   -5.6795   24.9188 C   0  0  0  0  0  0
  -21.6045   -4.3056   24.7233 C   0  0  0  0  0  0
  -21.8825   -3.8140   23.4357 C   0  0  0  0  0  0
  -21.9191   -4.6964   22.3411 C   0  0  0  0  0  0
  -22.7841  -13.5243   21.1885 C   0  0  0  0  0  0
  -22.1657   -4.2152   21.0989 F   0  0  0  0  0  0
  -21.5620   -3.4538   25.7740 F   0  0  0  0  0  0
  -29.9840  -13.5242   20.3672 N   0  0  0  0  0  0
  -26.2938  -12.9356   20.3260 N   0  0  0  0  0  0
  -25.9324  -11.6515   20.5744 N   0  0  0  0  0  0
  -22.0443  -12.8273   22.0436 N   0  0  0  0  0  0
  -25.4192  -15.1901   20.4089 N   0  0  0  0  0  0
  -31.8128  -14.8601   20.2852 O   0  0  0  0  0  0
  -21.6635   -6.8889   21.4257 O   0  0  0  0  0  0
  -22.3539  -14.5540   20.6711 O   0  0  0  0  0  0
  -24.6290  -31.8565   23.1985 C   0  0  0  0  0  0
  -25.9113  -32.4752   23.8343 C   0  0  1  0  0  0
  -27.2350  -27.2829   20.1502 C   0  0  0  0  0  0
  -25.5911  -33.8564   24.2272 N   0  0  0  0  0  0
  -23.4259  -30.4761   21.5408 C   0  0  2  0  0  0
  -24.8781  -28.9163   20.1201 C   0  0  0  0  0  0
  -22.7479  -29.4611   22.4923 C   0  0  0  0  0  0
  -18.0296  -28.1393   22.8492 C   0  0  0  0  0  0
  -24.1489  -36.7282   23.2646 C   0  0  0  0  0  0
  -25.9687  -30.7775   21.3751 C   0  0  0  0  0  0
  -26.0458  -29.3983   20.7250 C   0  0  0  0  0  0
  -27.2275  -28.5936   20.7269 C   0  0  0  0  0  0
  -26.0469  -26.8541   19.5222 C   0  0  0  0  0  0
  -24.8826  -27.6505   19.5083 C   0  0  0  0  0  0
  -23.6456  -29.7996   20.1605 C   0  0  0  0  0  0
  -25.4108  -36.3078   24.0344 C   0  0  1  0  0  0
  -20.5887  -28.3707   23.1279 C   0  0  2  0  0  0
  -20.6780  -26.9417   22.5428 C   0  0  0  0  0  0
  -19.5756  -26.6396   21.5215 C   0  0  0  0  0  0
  -18.1931  -26.7942   22.1624 C   0  0  0  0  0  0
  -19.1551  -28.8866   23.2878 C   0  0  0  0  0  0
  -18.9473  -30.1468   23.8897 C   0  0  0  0  0  0
  -17.6470  -30.6599   24.0571 C   0  0  0  0  0  0
  -25.9054  -34.9442   23.5114 C   0  0  0  0  0  0
  -16.5360  -29.9099   23.6340 C   0  0  0  0  0  0
  -16.7281  -28.6512   23.0359 C   0  0  0  0  0  0
  -26.4503  -31.6560   25.0710 C   0  0  0  0  0  0
  -25.3736  -31.3667   26.1436 C   0  0  0  0  0  0
  -27.0371  -30.3000   24.6170 C   0  0  0  0  0  0
  -27.6082  -32.4287   25.7460 C   0  0  0  0  0  0
  -27.5577  -37.1786   24.8470 C   0  0  0  0  0  0
  -21.4190  -29.3055   22.3665 N   0  0  0  0  0  0
  -26.4297  -37.3774   23.9412 N   0  0  0  0  0  0
  -24.6927  -31.0548   22.0942 N   0  0  0  0  0  0
  -23.4190  -28.8156   23.3009 O   0  0  0  0  0  0
  -28.3502  -26.4253   20.1542 O   0  0  0  0  0  0
  -26.5629  -34.8915   22.4683 O   0  0  0  0  0  0
  -23.5439  -32.1369   23.7289 O   0  0  0  0  0  0
  -29.6892  -17.2466   22.4066 C   0  0  0  0  0  0
  -29.2577  -19.6651   22.3566 C   0  0  0  0  0  0
  -29.6148  -18.4633   20.2978 C   0  0  0  0  0  0
  -29.4250  -18.4609   23.0761 C   0  0  0  0  0  0
  -29.7761  -17.1965   21.0038 C   0  0  0  0  0  0
  -29.3679  -19.7591   20.9423 C   0  0  0  0  0  0
  -29.0501  -22.3824   20.8232 C   0  0  0  0  0  0
  -29.1217  -21.1000   18.7781 C   0  0  0  0  0  0
  -28.8102  -23.7364   19.9857 C   0  0  0  0  0  0
  -28.2191  -25.0468   20.7274 C   0  0  0  0  0  0
  -29.2594  -18.4839   24.5899 C   0  0  0  0  0  0
  -29.7673  -15.8557   20.3775 N   0  0  0  0  0  0
  -29.1782  -21.0980   20.2463 N   0  0  0  0  0  0
  -29.1676  -22.5643   22.0357 O   0  0  0  0  0  0
  -29.6863  -17.3517   25.1522 F   0  0  0  0  0  0
  -29.9566  -19.4924   25.1127 F   0  0  0  0  0  0
  -27.9730  -18.6495   24.8995 F   0  0  0  0  0  0
  -31.4762  -12.6304   19.1256 H   0  0  0  0  0  0
  -30.4256  -11.4931   19.9303 H   0  0  0  0  0  0
  -29.7809  -11.6971   17.5213 H   0  0  0  0  0  0
  -29.6233  -13.4258   17.6691 H   0  0  0  0  0  0
  -27.8919  -11.2724   18.9115 H   0  0  0  0  0  0
  -27.3730  -12.5093   17.7941 H   0  0  0  0  0  0
  -27.6276  -14.2403   19.4498 H   0  0  0  0  0  0
  -28.7372  -12.1669   21.4071 H   0  0  0  0  0  0
  -28.4347  -13.8506   21.7726 H   0  0  0  0  0  0
  -25.2738   -9.5680   22.4794 H   0  0  0  0  0  0
  -24.0001   -7.4613   22.7478 H   0  0  0  0  0  0
  -21.0837   -8.8762   19.8952 H   0  0  0  0  0  0
  -22.3677  -10.9683   19.6172 H   0  0  0  0  0  0
  -21.2006   -7.6141   23.9736 H   0  0  0  0  0  0
  -21.1473   -6.0518   25.9098 H   0  0  0  0  0  0
  -22.0602   -2.7608   23.2856 H   0  0  0  0  0  0
  -22.3998  -11.9952   22.4894 H   0  0  0  0  0  0
  -21.1047  -13.1321   22.2563 H   0  0  0  0  0  0
  -24.6471  -15.8385   20.5160 H   0  0  0  0  0  0
  -26.2632  -15.6339   20.0718 H   0  0  0  0  0  0
  -26.7168  -32.5417   23.1083 H   0  0  0  0  0  0
  -25.0060  -33.9715   25.0422 H   0  0  0  0  0  0
  -22.7221  -31.2965   21.3868 H   0  0  0  0  0  0
  -23.3767  -35.9597   23.3308 H   0  0  0  0  0  0
  -24.3594  -36.8911   22.2065 H   0  0  0  0  0  0
  -23.7223  -37.6475   23.6668 H   0  0  0  0  0  0
  -26.1005  -31.5333   20.6003 H   0  0  0  0  0  0
  -26.8480  -30.8346   22.0046 H   0  0  0  0  0  0
  -28.1240  -28.9578   21.2116 H   0  0  0  0  0  0
  -26.0170  -25.8817   19.0502 H   0  0  0  0  0  0
  -23.9853  -27.2748   19.0352 H   0  0  0  0  0  0
  -23.7687  -30.5697   19.3985 H   0  0  0  0  0  0
  -22.7656  -29.2301   19.8570 H   0  0  0  0  0  0
  -25.1286  -36.1945   25.0841 H   0  0  0  0  0  0
  -20.9985  -28.3288   24.1396 H   0  0  0  0  0  0
  -20.5658  -26.2305   23.3639 H   0  0  0  0  0  0
  -21.6645  -26.7438   22.1215 H   0  0  0  0  0  0
  -19.6928  -25.6315   21.1228 H   0  0  0  0  0  0
  -19.6697  -27.3216   20.6753 H   0  0  0  0  0  0
  -17.4199  -26.6694   21.4032 H   0  0  0  0  0  0
  -18.0332  -26.0086   22.9022 H   0  0  0  0  0  0
  -19.7952  -30.7276   24.2262 H   0  0  0  0  0  0
  -17.5043  -31.6278   24.5169 H   0  0  0  0  0  0
  -15.5372  -30.3002   23.7684 H   0  0  0  0  0  0
  -15.8684  -28.0840   22.7085 H   0  0  0  0  0  0
  -24.5941  -30.6993   25.7743 H   0  0  0  0  0  0
  -24.8888  -32.2814   26.4865 H   0  0  0  0  0  0
  -25.8085  -30.8839   27.0199 H   0  0  0  0  0  0
  -26.2966  -29.6706   24.1239 H   0  0  0  0  0  0
  -27.4136  -29.7304   25.4668 H   0  0  0  0  0  0
  -27.8786  -30.4314   23.9371 H   0  0  0  0  0  0
  -27.2746  -33.3614   26.2024 H   0  0  0  0  0  0
  -28.3897  -32.6804   25.0271 H   0  0  0  0  0  0
  -28.0752  -31.8408   26.5375 H   0  0  0  0  0  0
  -28.2591  -38.0087   24.7530 H   0  0  0  0  0  0
  -28.1085  -36.2624   24.6290 H   0  0  0  0  0  0
  -27.2303  -37.1425   25.8876 H   0  0  0  0  0  0
  -20.9382  -29.8782   21.6868 H   0  0  0  0  0  0
  -26.0184  -38.2851   24.1410 H   0  0  0  0  0  0
  -29.7503  -16.3355   22.9845 H   0  0  0  0  0  0
  -29.0096  -20.5111   22.9703 H   0  0  0  0  0  0
  -29.6708  -18.3915   19.2260 H   0  0  0  0  0  0
  -28.1208  -21.3625   18.4313 H   0  0  0  0  0  0
  -29.3689  -20.1575   18.3057 H   0  0  0  0  0  0
  -29.8259  -21.8227   18.3603 H   0  0  0  0  0  0
  -28.1739  -23.5297   19.1271 H   0  0  0  0  0  0
  -29.7845  -24.0054   19.5782 H   0  0  0  0  0  0
  -28.7025  -25.1145   21.7036 H   0  0  0  0  0  0
  -27.1748  -24.8464   20.9633 H   0  0  0  0  0  0
  -28.8553  -15.5947   20.0387 H   0  0  0  0  0  0
  1 25  1  0  0  0
  1 30  2  0  0  0
  1 82  1  0  0  0
  2  3  1  0  0  0
  2 25  1  0  0  0
  2 88  1  0  0  0
  2 89  1  0  0  0
  3  4  1  0  0  0
  3 90  1  0  0  0
  3 91  1  0  0  0
  4  5  1  0  0  0
  4 92  1  0  0  0
  4 93  1  0  0  0
  5  6  1  0  0  0
  5 26  1  0  0  0
  5 94  1  0  0  0
  6 25  1  0  0  0
  6 95  1  0  0  0
  6 96  1  0  0  0
  7  8  2  0  0  0
  7 26  1  0  0  0
  7 29  1  0  0  0
  8  9  1  0  0  0
  8 22  1  0  0  0
  9 10  1  0  0  0
  9 27  2  0  0  0
 10 11  2  0  0  0
 10 15  1  0  0  0
 11 12  1  0  0  0
 11 97  1  0  0  0
 12 13  2  0  0  0
 12 98  1  0  0  0
 13 14  1  0  0  0
 13 31  1  0  0  0
 14 15  2  0  0  0
 14 99  1  0  0  0
 15100  1  0  0  0
 16 17  2  0  0  0
 16 21  1  0  0  0
 16 31  1  0  0  0
 17 18  1  0  0  0
 17101  1  0  0  0
 18 19  2  0  0  0
 18102  1  0  0  0
 19 20  1  0  0  0
 19 24  1  0  0  0
 20 21  2  0  0  0
 20103  1  0  0  0
 21 23  1  0  0  0
 22 28  1  0  0  0
 22 32  2  0  0  0
 26 27  1  0  0  0
 28104  1  0  0  0
 28105  1  0  0  0
 29106  1  0  0  0
 29107  1  0  0  0
 33 34  1  0  0  0
 33 66  1  0  0  0
 33 70  2  0  0  0
 34 36  1  0  0  0
 34 59  1  0  0  0
 34108  1  0  0  0
 35 44  2  0  0  0
 35 45  1  0  0  0
 35 68  1  0  0  0
 36 56  1  0  0  0
 36109  1  0  0  0
 37 39  1  0  0  0
 37 47  1  0  0  0
 37 66  1  0  0  0
 37110  1  0  0  0
 38 43  2  0  0  0
 38 46  1  0  0  0
 38 47  1  0  0  0
 39 64  1  0  0  0
 39 67  2  0  0  0
 40 52  1  0  0  0
 40 53  2  0  0  0
 40 58  1  0  0  0
 41111  1  0  0  0
 41112  1  0  0  0
 41113  1  0  0  0
 41 48  1  0  0  0
 42 43  1  0  0  0
 42 66  1  0  0  0
 42114  1  0  0  0
 42115  1  0  0  0
 43 44  1  0  0  0
 44116  1  0  0  0
 45 46  2  0  0  0
 45117  1  0  0  0
 46118  1  0  0  0
 47119  1  0  0  0
 47120  1  0  0  0
 48 56  1  0  0  0
 48 65  1  0  0  0
 48121  1  0  0  0
 49 50  1  0  0  0
 49 53  1  0  0  0
 49 64  1  0  0  0
 49122  1  0  0  0
 50 51  1  0  0  0
 50123  1  0  0  0
 50124  1  0  0  0
 51 52  1  0  0  0
 51125  1  0  0  0
 51126  1  0  0  0
 52127  1  0  0  0
 52128  1  0  0  0
 53 54  1  0  0  0
 54 55  2  0  0  0
 54129  1  0  0  0
 55 57  1  0  0  0
 55130  1  0  0  0
 56 69  2  0  0  0
 57 58  2  0  0  0
 57131  1  0  0  0
 58132  1  0  0  0
 59 60  1  0  0  0
 59 61  1  0  0  0
 59 62  1  0  0  0
 60133  1  0  0  0
 60134  1  0  0  0
 60135  1  0  0  0
 61136  1  0  0  0
 61137  1  0  0  0
 61138  1  0  0  0
 62139  1  0  0  0
 62140  1  0  0  0
 62141  1  0  0  0
 63 65  1  0  0  0
 63142  1  0  0  0
 63143  1  0  0  0
 63144  1  0  0  0
 64145  1  0  0  0
 65146  1  0  0  0
 68 80  1  0  0  0
 71 74  2  0  0  0
 71 75  1  0  0  0
 71147  1  0  0  0
 72 74  1  0  0  0
 72 76  2  0  0  0
 72148  1  0  0  0
 73 75  2  0  0  0
 73 76  1  0  0  0
 73149  1  0  0  0
 74 81  1  0  0  0
 75 82  1  0  0  0
 76 83  1  0  0  0
 77 79  1  0  0  0
 77 83  1  0  0  0
 77 84  2  0  0  0
 78 83  1  0  0  0
 78150  1  0  0  0
 78151  1  0  0  0
 78152  1  0  0  0
 79 80  1  0  0  0
 79153  1  0  0  0
 79154  1  0  0  0
 80155  1  0  0  0
 80156  1  0  0  0
 81 85  1  0  0  0
 81 86  1  0  0  0
 81 87  1  0  0  0
 82157  1  0  0  0
M  ISO  4   1 100  68 101  80 101  82 100
M  END
> <chiral flag>
0

> <version>
0

> <s_m_source_file>
/data/baiqing/PycharmProjects/Reinvent-master-3.2/result/LINK_invent/BTK/process_docking_weight1_custom_sum_contain_oxygen_bond_distance_aromatic_linkinvent_7_9_3/rearranged_h_0008.sdf

> <i_m_source_file_index>
29

> <r_mmod_Potential_Energy-OPLS-2005>
283.681457519531

> <r_mmod_Stretch_Energy-OPLS-2005>
135.092956542969

> <r_mmod_Bend_Energy-OPLS-2005>
169.309783935547

> <r_mmod_Torsional_Energy-OPLS-2005>
300.199310302734

> <r_mmod_Improper_Torsional_Energy-OPLS-2005>
14.0519485473633

> <r_mmod_Van_der_Waal_Energy-OPLS-2005>
155.861724853516

> <r_mmod_Electrostatic_Energy-OPLS-2005>
-352.623962402344

> <r_mmod_Solvation_Energy-OPLS-2005>
-222.441497802734

> <b_mmod_Minimization_Converged-OPLS-2005>
0

> <r_mmod_RMS_Derivative-OPLS-2005>
3.30083012580872

$$$$
29
                    3D
 Structure written by MMmdl.
163171  0  0  1  0            999 V2000
  -30.5927  -14.8888   20.4496 C   0  0  0  0  0  0
  -30.4390  -12.5612   19.5039 C   0  0  0  0  0  0
  -29.5254  -12.5164   18.2616 C   0  0  0  0  0  0
  -28.0579  -12.3082   18.6801 C   0  0  0  0  0  0
  -27.6296  -13.2472   19.8378 C   0  0  2  0  0  0
  -28.6663  -13.2769   20.9775 C   0  0  0  0  0  0
  -25.2442  -13.8227   20.5718 C   0  0  0  0  0  0
  -24.1743  -13.0454   20.9211 C   0  0  0  0  0  0
  -24.6349  -11.6926   20.8752 C   0  0  0  0  0  0
  -23.9036  -10.4304   21.0415 C   0  0  0  0  0  0
  -24.3588   -9.4213   21.9183 C   0  0  0  0  0  0
  -23.6264   -8.2249   22.0759 C   0  0  0  0  0  0
  -22.4248   -8.0282   21.3553 C   0  0  0  0  0  0
  -21.9887   -9.0259   20.4649 C   0  0  0  0  0  0
  -22.7218  -10.2141   20.3057 C   0  0  0  0  0  0
  -21.6849   -6.0726   22.5267 C   0  0  0  0  0  0
  -21.4017   -6.5624   23.8204 C   0  0  0  0  0  0
  -21.3674   -5.6779   24.9166 C   0  0  0  0  0  0
  -21.6042   -4.3044   24.7222 C   0  0  0  0  0  0
  -21.8820   -3.8134   23.4348 C   0  0  0  0  0  0
  -21.9178   -4.6949   22.3395 C   0  0  0  0  0  0
  -22.7765  -13.5243   21.1863 C   0  0  0  0  0  0
  -22.1640   -4.2125   21.0980 F   0  0  0  0  0  0
  -21.5635   -3.4528   25.7742 F   0  0  0  0  0  0
  -29.9506  -13.6588   20.3803 N   0  0  0  0  0  0
  -26.2859  -12.9452   20.3235 N   0  0  0  0  0  0
  -25.9275  -11.6575   20.5704 N   0  0  0  0  0  0
  -22.0382  -12.8263   22.0417 N   0  0  0  0  0  0
  -25.4200  -15.1958   20.4236 N   0  0  0  0  0  0
  -31.8042  -14.9171   20.2144 O   0  0  0  0  0  0
  -21.6629   -6.8868   21.4235 O   0  0  0  0  0  0
  -22.3462  -14.5544   20.6692 O   0  0  0  0  0  0
  -24.6364  -31.8524   23.2007 C   0  0  0  0  0  0
  -25.9193  -32.4745   23.8339 C   0  0  1  0  0  0
  -27.2105  -27.2152   20.1178 C   0  0  0  0  0  0
  -25.5986  -33.8554   24.2278 N   0  0  0  0  0  0
  -23.4321  -30.4801   21.5461 C   0  0  2  0  0  0
  -24.8759  -28.9246   20.1101 C   0  0  0  0  0  0
  -22.7506  -29.4607   22.4913 C   0  0  0  0  0  0
  -18.0292  -28.1362   22.8497 C   0  0  0  0  0  0
  -24.1468  -36.7268   23.2645 C   0  0  0  0  0  0
  -25.9830  -30.7554   21.3812 C   0  0  0  0  0  0
  -26.0534  -29.3731   20.7181 C   0  0  0  0  0  0
  -27.2264  -28.5377   20.7016 C   0  0  0  0  0  0
  -26.0050  -26.8573   19.4733 C   0  0  0  0  0  0
  -24.8593  -27.6757   19.4720 C   0  0  0  0  0  0
  -23.6517  -29.8227   20.1588 C   0  0  0  0  0  0
  -25.4095  -36.3066   24.0339 C   0  0  1  0  0  0
  -20.5897  -28.3690   23.1244 C   0  0  2  0  0  0
  -20.6768  -26.9406   22.5390 C   0  0  0  0  0  0
  -19.5745  -26.6374   21.5192 C   0  0  0  0  0  0
  -18.1936  -26.7909   22.1620 C   0  0  0  0  0  0
  -19.1556  -28.8840   23.2869 C   0  0  0  0  0  0
  -18.9469  -30.1435   23.8894 C   0  0  0  0  0  0
  -17.6472  -30.6577   24.0560 C   0  0  0  0  0  0
  -25.9050  -34.9434   23.5098 C   0  0  0  0  0  0
  -16.5359  -29.9078   23.6322 C   0  0  0  0  0  0
  -16.7277  -28.6482   23.0371 C   0  0  0  0  0  0
  -26.4548  -31.6574   25.0737 C   0  0  0  0  0  0
  -25.3786  -31.3723   26.1479 C   0  0  0  0  0  0
  -27.0401  -30.2987   24.6229 C   0  0  0  0  0  0
  -27.6070  -32.4331   25.7533 C   0  0  0  0  0  0
  -27.5557  -37.1792   24.8470 C   0  0  0  0  0  0
  -21.4219  -29.3052   22.3644 N   0  0  0  0  0  0
  -26.4262  -37.3770   23.9437 N   0  0  0  0  0  0
  -24.7044  -31.0453   22.0995 N   0  0  0  0  0  0
  -23.4199  -28.8118   23.2998 O   0  0  0  0  0  0
  -28.2905  -26.2783   20.1425 O   0  0  0  0  0  0
  -26.5603  -34.8910   22.4651 O   0  0  0  0  0  0
  -23.5514  -32.1368   23.7288 O   0  0  0  0  0  0
  -29.6809  -21.0077   19.8085 C   0  0  0  0  0  0
  -29.3508  -18.6126   21.4409 C   0  0  0  0  0  0
  -29.7350  -18.3639   19.0112 C   0  0  0  0  0  0
  -30.0445  -17.1587   21.6052 C   0  0  0  0  0  0
  -29.3883  -16.8151   19.2923 C   0  0  0  0  0  0
  -29.8377  -19.4069   20.1880 C   0  0  0  0  0  0
  -27.1299  -22.0204   23.7466 C   0  0  0  0  0  0
  -28.3076  -22.0709   22.7676 C   0  0  0  0  0  0
  -27.8534  -21.7966   21.3229 C   0  0  0  0  0  0
  -29.1415  -23.5814   20.0420 C   0  0  0  0  0  0
  -28.0106  -24.7720   20.2217 C   0  0  0  0  0  0
  -29.8669  -16.1107   20.5281 N   0  0  0  0  0  0
  -28.9232  -22.0585   20.3661 N   0  0  0  0  0  0
  -30.4246  -21.3282   18.8772 O   0  0  0  0  0  0
  -31.4731  -12.7168   19.1920 H   0  0  0  0  0  0
  -30.4291  -11.6133   20.0415 H   0  0  0  0  0  0
  -29.8456  -11.7195   17.5876 H   0  0  0  0  0  0
  -29.6194  -13.4506   17.7051 H   0  0  0  0  0  0
  -27.9520  -11.2710   18.9978 H   0  0  0  0  0  0
  -27.3974  -12.4360   17.8227 H   0  0  0  0  0  0
  -27.5954  -14.2476   19.4063 H   0  0  0  0  0  0
  -28.7299  -12.3096   21.4757 H   0  0  0  0  0  0
  -28.3734  -14.0020   21.7376 H   0  0  0  0  0  0
  -25.2734   -9.5693   22.4752 H   0  0  0  0  0  0
  -23.9960   -7.4648   22.7485 H   0  0  0  0  0  0
  -21.0803   -8.8786   19.8953 H   0  0  0  0  0  0
  -22.3674  -10.9671   19.6163 H   0  0  0  0  0  0
  -21.2028   -7.6128   23.9713 H   0  0  0  0  0  0
  -21.1485   -6.0503   25.9073 H   0  0  0  0  0  0
  -22.0587   -2.7588   23.2851 H   0  0  0  0  0  0
  -22.3956  -11.9955   22.4888 H   0  0  0  0  0  0
  -21.1002  -13.1357   22.2579 H   0  0  0  0  0  0
  -24.6750  -15.8679   20.5728 H   0  0  0  0  0  0
  -26.2983  -15.6308   20.1698 H   0  0  0  0  0  0
  -26.7254  -32.5369   23.1067 H   0  0  0  0  0  0
  -25.0187  -33.9675   25.0471 H   0  0  0  0  0  0
  -22.7320  -31.3063   21.4070 H   0  0  0  0  0  0
  -23.3736  -35.9586   23.3292 H   0  0  0  0  0  0
  -24.3558  -36.8911   22.2058 H   0  0  0  0  0  0
  -23.7193  -37.6460   23.6666 H   0  0  0  0  0  0
  -26.1199  -31.5170   20.6120 H   0  0  0  0  0  0
  -26.8595  -30.8053   22.0136 H   0  0  0  0  0  0
  -28.1318  -28.8921   21.1753 H   0  0  0  0  0  0
  -25.9079  -25.9231   18.9473 H   0  0  0  0  0  0
  -23.9683  -27.3343   18.9663 H   0  0  0  0  0  0
  -23.7835  -30.6088   19.4141 H   0  0  0  0  0  0
  -22.7635  -29.2727   19.8436 H   0  0  0  0  0  0
  -25.1257  -36.1907   25.0827 H   0  0  0  0  0  0
  -20.9995  -28.3271   24.1362 H   0  0  0  0  0  0
  -20.5606  -26.2326   23.3609 H   0  0  0  0  0  0
  -21.6644  -26.7395   22.1223 H   0  0  0  0  0  0
  -19.6908  -25.6274   21.1252 H   0  0  0  0  0  0
  -19.6669  -27.3152   20.6690 H   0  0  0  0  0  0
  -17.4193  -26.6654   21.4038 H   0  0  0  0  0  0
  -18.0350  -26.0029   22.8989 H   0  0  0  0  0  0
  -19.7947  -30.7250   24.2275 H   0  0  0  0  0  0
  -17.5025  -31.6260   24.5151 H   0  0  0  0  0  0
  -15.5359  -30.2984   23.7624 H   0  0  0  0  0  0
  -15.8681  -28.0787   22.7106 H   0  0  0  0  0  0
  -24.5954  -30.7068   25.7840 H   0  0  0  0  0  0
  -24.8996  -32.2886   26.4919 H   0  0  0  0  0  0
  -25.8142  -30.8922   27.0249 H   0  0  0  0  0  0
  -26.2990  -29.6738   24.1231 H   0  0  0  0  0  0
  -27.4056  -29.7244   25.4749 H   0  0  0  0  0  0
  -27.8875  -30.4265   23.9495 H   0  0  0  0  0  0
  -27.2659  -33.3641   26.2065 H   0  0  0  0  0  0
  -28.3917  -32.6885   25.0406 H   0  0  0  0  0  0
  -28.0690  -31.8497   26.5508 H   0  0  0  0  0  0
  -28.2575  -38.0087   24.7511 H   0  0  0  0  0  0
  -28.1055  -36.2621   24.6285 H   0  0  0  0  0  0
  -27.2294  -37.1427   25.8880 H   0  0  0  0  0  0
  -20.9379  -29.8855   21.6927 H   0  0  0  0  0  0
  -26.0139  -38.2836   24.1475 H   0  0  0  0  0  0
  -29.5540  -19.2079   22.3335 H   0  0  0  0  0  0
  -28.2682  -18.4938   21.3942 H   0  0  0  0  0  0
  -28.9981  -18.7388   18.2977 H   0  0  0  0  0  0
  -30.6794  -18.4079   18.4697 H   0  0  0  0  0  0
  -29.6963  -16.7266   22.5443 H   0  0  0  0  0  0
  -31.1156  -17.3121   21.7428 H   0  0  0  0  0  0
  -28.3029  -16.7231   19.3120 H   0  0  0  0  0  0
  -29.6948  -16.2418   18.4166 H   0  0  0  0  0  0
  -30.9073  -19.4366   20.4051 H   0  0  0  0  0  0
  -27.4571  -22.2026   24.7716 H   0  0  0  0  0  0
  -26.6275  -21.0535   23.7166 H   0  0  0  0  0  0
  -26.3957  -22.7888   23.4986 H   0  0  0  0  0  0
  -29.0745  -21.3550   23.0673 H   0  0  0  0  0  0
  -28.7732  -23.0547   22.8363 H   0  0  0  0  0  0
  -26.9947  -22.4174   21.0698 H   0  0  0  0  0  0
  -27.4922  -20.7712   21.2287 H   0  0  0  0  0  0
  -30.0013  -23.8804   20.6397 H   0  0  0  0  0  0
  -29.4868  -23.6494   19.0083 H   0  0  0  0  0  0
  -27.5151  -24.6329   21.1824 H   0  0  0  0  0  0
  -27.2704  -24.5231   19.4687 H   0  0  0  0  0  0
  1 25  1  0  0  0
  1 30  2  0  0  0
  1 82  1  0  0  0
  2  3  1  0  0  0
  2 25  1  0  0  0
  2 85  1  0  0  0
  2 86  1  0  0  0
  3  4  1  0  0  0
  3 87  1  0  0  0
  3 88  1  0  0  0
  4  5  1  0  0  0
  4 89  1  0  0  0
  4 90  1  0  0  0
  5  6  1  0  0  0
  5 26  1  0  0  0
  5 91  1  0  0  0
  6 25  1  0  0  0
  6 92  1  0  0  0
  6 93  1  0  0  0
  7  8  2  0  0  0
  7 26  1  0  0  0
  7 29  1  0  0  0
  8  9  1  0  0  0
  8 22  1  0  0  0
  9 10  1  0  0  0
  9 27  2  0  0  0
 10 11  2  0  0  0
 10 15  1  0  0  0
 11 12  1  0  0  0
 11 94  1  0  0  0
 12 13  2  0  0  0
 12 95  1  0  0  0
 13 14  1  0  0  0
 13 31  1  0  0  0
 14 15  2  0  0  0
 14 96  1  0  0  0
 15 97  1  0  0  0
 16 17  2  0  0  0
 16 21  1  0  0  0
 16 31  1  0  0  0
 17 18  1  0  0  0
 17 98  1  0  0  0
 18 19  2  0  0  0
 18 99  1  0  0  0
 19 20  1  0  0  0
 19 24  1  0  0  0
 20 21  2  0  0  0
 20100  1  0  0  0
 21 23  1  0  0  0
 22 28  1  0  0  0
 22 32  2  0  0  0
 26 27  1  0  0  0
 28101  1  0  0  0
 28102  1  0  0  0
 29103  1  0  0  0
 29104  1  0  0  0
 33 34  1  0  0  0
 33 66  1  0  0  0
 33 70  2  0  0  0
 34 36  1  0  0  0
 34 59  1  0  0  0
 34105  1  0  0  0
 35 44  2  0  0  0
 35 45  1  0  0  0
 35 68  1  0  0  0
 36 56  1  0  0  0
 36106  1  0  0  0
 37 39  1  0  0  0
 37 47  1  0  0  0
 37 66  1  0  0  0
 37107  1  0  0  0
 38 43  2  0  0  0
 38 46  1  0  0  0
 38 47  1  0  0  0
 39 64  1  0  0  0
 39 67  2  0  0  0
 40 52  1  0  0  0
 40 53  2  0  0  0
 40 58  1  0  0  0
 41108  1  0  0  0
 41109  1  0  0  0
 41110  1  0  0  0
 41 48  1  0  0  0
 42 43  1  0  0  0
 42 66  1  0  0  0
 42111  1  0  0  0
 42112  1  0  0  0
 43 44  1  0  0  0
 44113  1  0  0  0
 45 46  2  0  0  0
 45114  1  0  0  0
 46115  1  0  0  0
 47116  1  0  0  0
 47117  1  0  0  0
 48 56  1  0  0  0
 48 65  1  0  0  0
 48118  1  0  0  0
 49 50  1  0  0  0
 49 53  1  0  0  0
 49 64  1  0  0  0
 49119  1  0  0  0
 50 51  1  0  0  0
 50120  1  0  0  0
 50121  1  0  0  0
 51 52  1  0  0  0
 51122  1  0  0  0
 51123  1  0  0  0
 52124  1  0  0  0
 52125  1  0  0  0
 53 54  1  0  0  0
 54 55  2  0  0  0
 54126  1  0  0  0
 55 57  1  0  0  0
 55127  1  0  0  0
 56 69  2  0  0  0
 57 58  2  0  0  0
 57128  1  0  0  0
 58129  1  0  0  0
 59 60  1  0  0  0
 59 61  1  0  0  0
 59 62  1  0  0  0
 60130  1  0  0  0
 60131  1  0  0  0
 60132  1  0  0  0
 61133  1  0  0  0
 61134  1  0  0  0
 61135  1  0  0  0
 62136  1  0  0  0
 62137  1  0  0  0
 62138  1  0  0  0
 63 65  1  0  0  0
 63139  1  0  0  0
 63140  1  0  0  0
 63141  1  0  0  0
 64142  1  0  0  0
 65143  1  0  0  0
 68 81  1  0  0  0
 71 83  1  0  0  0
 71 84  2  0  0  0
 71 76  1  0  0  0
 72 74  1  0  0  0
 72 76  1  0  0  0
 72144  1  0  0  0
 72145  1  0  0  0
 73 75  1  0  0  0
 73 76  1  0  0  0
 73146  1  0  0  0
 73147  1  0  0  0
 74 82  1  0  0  0
 74148  1  0  0  0
 74149  1  0  0  0
 75 82  1  0  0  0
 75150  1  0  0  0
 75151  1  0  0  0
 76152  1  0  0  0
 77 78  1  0  0  0
 77153  1  0  0  0
 77154  1  0  0  0
 77155  1  0  0  0
 78 79  1  0  0  0
 78156  1  0  0  0
 78157  1  0  0  0
 79 83  1  0  0  0
 79158  1  0  0  0
 79159  1  0  0  0
 80 81  1  0  0  0
 80 83  1  0  0  0
 80160  1  0  0  0
 80161  1  0  0  0
 81162  1  0  0  0
 81163  1  0  0  0
M  ISO  4   1 100  68 101  81 101  82 100
M  END
> <chiral flag>
0

> <version>
0

> <s_m_source_file>
/data/baiqing/PycharmProjects/Reinvent-master-3.2/result/LINK_invent/BTK/process_docking_weight1_custom_sum_contain_oxygen_bond_distance_aromatic_linkinvent_7_9_3/rearranged_h_0008.sdf

> <i_m_source_file_index>
30

> <r_mmod_Potential_Energy-OPLS-2005>
668.175476074219

> <r_mmod_Stretch_Energy-OPLS-2005>
192.100677490234

> <r_mmod_Bend_Energy-OPLS-2005>
287.071197509766

> <r_mmod_Torsional_Energy-OPLS-2005>
402.6279296875

> <r_mmod_Improper_Torsional_Energy-OPLS-2005>
7.73453235626221

> <r_mmod_Van_der_Waal_Energy-OPLS-2005>
120.822578430176

> <r_mmod_Electrostatic_Energy-OPLS-2005>
-268.344635009766

> <r_mmod_Solvation_Energy-OPLS-2005>
-216.593521118164

> <b_mmod_Minimization_Converged-OPLS-2005>
0

> <r_mmod_RMS_Derivative-OPLS-2005>
4.14506101608276

$$$$
30
                    3D
 Structure written by MMmdl.
186193  0  0  1  0            999 V2000
  -30.7381  -14.3869   20.6383 C   0  0  0  0  0  0
  -30.4212  -12.2733   19.4266 C   0  0  0  0  0  0
  -29.4922  -12.4819   18.2155 C   0  0  0  0  0  0
  -28.0105  -12.3565   18.6247 C   0  0  0  0  0  0
  -27.6639  -13.1777   19.8952 C   0  0  2  0  0  0
  -28.7073  -12.9381   21.0150 C   0  0  0  0  0  0
  -25.2620  -13.8126   20.5745 C   0  0  0  0  0  0
  -24.1808  -13.0444   20.9213 C   0  0  0  0  0  0
  -24.6324  -11.6894   20.8817 C   0  0  0  0  0  0
  -23.9009  -10.4292   21.0447 C   0  0  0  0  0  0
  -24.3594   -9.4244   21.9222 C   0  0  0  0  0  0
  -23.6294   -8.2256   22.0775 C   0  0  0  0  0  0
  -22.4297   -8.0284   21.3566 C   0  0  0  0  0  0
  -21.9885   -9.0248   20.4667 C   0  0  0  0  0  0
  -22.7187  -10.2136   20.3102 C   0  0  0  0  0  0
  -21.6844   -6.0757   22.5280 C   0  0  0  0  0  0
  -21.4023   -6.5650   23.8236 C   0  0  0  0  0  0
  -21.3659   -5.6789   24.9169 C   0  0  0  0  0  0
  -21.6044   -4.3062   24.7201 C   0  0  0  0  0  0
  -21.8822   -3.8176   23.4319 C   0  0  0  0  0  0
  -21.9180   -4.6992   22.3383 C   0  0  0  0  0  0
  -22.7834  -13.5289   21.1850 C   0  0  0  0  0  0
  -22.1627   -4.2197   21.0949 F   0  0  0  0  0  0
  -21.5645   -3.4533   25.7708 F   0  0  0  0  0  0
  -30.0444  -13.2363   20.4716 N   0  0  0  0  0  0
  -26.3015  -12.9213   20.3527 N   0  0  0  0  0  0
  -25.9265  -11.6408   20.5913 N   0  0  0  0  0  0
  -22.0432  -12.8315   22.0397 N   0  0  0  0  0  0
  -25.4312  -15.1865   20.4155 N   0  0  0  0  0  0
  -31.8335  -14.5997   20.1113 O   0  0  0  0  0  0
  -21.6664   -6.8891   21.4248 O   0  0  0  0  0  0
  -22.3538  -14.5589   20.6664 O   0  0  0  0  0  0
  -24.6102  -31.8711   23.2132 C   0  0  0  0  0  0
  -25.9003  -32.4849   23.8437 C   0  0  1  0  0  0
  -27.2623  -27.4887   20.0723 C   0  0  0  0  0  0
  -25.5863  -33.8656   24.2355 N   0  0  0  0  0  0
  -23.3980  -30.4896   21.5525 C   0  0  2  0  0  0
  -24.8511  -28.9630   20.1137 C   0  0  0  0  0  0
  -22.7390  -29.4653   22.5025 C   0  0  0  0  0  0
  -18.0279  -28.1377   22.8502 C   0  0  0  0  0  0
  -24.1489  -36.7317   23.2640 C   0  0  0  0  0  0
  -25.9208  -30.8488   21.3637 C   0  0  0  0  0  0
  -26.0022  -29.4858   20.7129 C   0  0  0  0  0  0
  -27.2047  -28.7483   20.7015 C   0  0  0  0  0  0
  -26.0896  -26.9636   19.4809 C   0  0  0  0  0  0
  -24.8862  -27.6951   19.5028 C   0  0  0  0  0  0
  -23.6058  -29.8206   20.1662 C   0  0  0  0  0  0
  -25.4112  -36.3141   24.0354 C   0  0  1  0  0  0
  -20.5864  -28.3656   23.1330 C   0  0  2  0  0  0
  -20.6766  -26.9391   22.5420 C   0  0  0  0  0  0
  -19.5749  -26.6391   21.5213 C   0  0  0  0  0  0
  -18.1922  -26.7931   22.1603 C   0  0  0  0  0  0
  -19.1531  -28.8824   23.2914 C   0  0  0  0  0  0
  -18.9448  -30.1441   23.8924 C   0  0  0  0  0  0
  -17.6445  -30.6580   24.0572 C   0  0  0  0  0  0
  -25.9027  -34.9503   23.5169 C   0  0  0  0  0  0
  -16.5346  -29.9080   23.6325 C   0  0  0  0  0  0
  -16.7275  -28.6503   23.0342 C   0  0  0  0  0  0
  -26.4451  -31.6606   25.0738 C   0  0  0  0  0  0
  -25.3747  -31.3682   26.1510 C   0  0  0  0  0  0
  -27.0260  -30.3068   24.6056 C   0  0  0  0  0  0
  -27.6043  -32.4324   25.7463 C   0  0  0  0  0  0
  -27.5602  -37.1809   24.8466 C   0  0  0  0  0  0
  -21.4119  -29.3024   22.3752 N   0  0  0  0  0  0
  -26.4308  -37.3803   23.9424 N   0  0  0  0  0  0
  -24.6607  -31.0833   22.1027 N   0  0  0  0  0  0
  -23.4164  -28.8216   23.3077 O   0  0  0  0  0  0
  -28.4609  -26.8141   20.0747 O   0  0  0  0  0  0
  -26.5591  -34.8935   22.4728 O   0  0  0  0  0  0
  -23.5299  -32.1456   23.7518 O   0  0  0  0  0  0
  -30.2567  -25.6015   19.0273 C   0  0  0  0  0  0
  -32.3163  -21.7520   17.8095 C   0  0  0  0  0  0
  -32.7868  -24.8618   17.4462 C   0  0  0  0  0  0
  -30.6359  -19.1282   18.1489 C   0  0  0  0  0  0
  -34.6412  -21.7077   16.9149 C   0  0  0  0  0  0
  -29.0026  -20.4253   16.7805 C   0  0  0  0  0  0
  -28.8934  -16.5405   18.8934 C   0  0  0  0  0  0
  -35.1685  -26.5461   18.4520 C   0  0  0  0  0  0
  -33.5017  -27.9209   17.1866 C   0  0  0  0  0  0
  -33.5898  -27.9972   19.7025 C   0  0  0  0  0  0
  -28.8447  -26.1743   18.8634 C   0  0  0  0  0  0
  -30.3129  -16.7930   21.0291 C   0  0  0  0  0  0
  -33.3363  -22.5214   16.9590 C   0  0  2  0  0  0
  -32.6953  -25.8942   18.5969 C   0  0  1  0  0  0
  -30.1517  -20.5452   17.8004 C   0  0  2  0  0  0
  -30.1656  -17.1395   19.5197 C   0  0  2  0  0  0
  -33.7162  -27.0803   18.4658 C   0  0  0  0  0  0
  -31.3069  -26.3778   18.7042 N   0  0  0  0  0  0
  -33.5491  -23.7816   17.6570 N   0  0  0  0  0  0
  -31.2240  -21.3147   17.1812 N   0  0  0  0  0  0
  -30.1537  -18.5747   19.2695 N   0  0  0  0  0  0
  -30.0712  -15.3671   21.2623 N   0  0  0  0  0  0
  -30.3980  -24.4489   19.4452 O   0  0  0  0  0  0
  -32.5109  -21.5801   19.0160 O   0  0  0  0  0  0
  -32.1220  -25.0078   16.4153 O   0  0  0  0  0  0
  -31.3798  -18.5249   17.3701 O   0  0  0  0  0  0
  -31.4640  -12.3804   19.1201 H   0  0  0  0  0  0
  -30.3328  -11.2601   19.8170 H   0  0  0  0  0  0
  -29.7296  -11.7580   17.4341 H   0  0  0  0  0  0
  -29.6756  -13.4639   17.7809 H   0  0  0  0  0  0
  -27.8085  -11.2996   18.7999 H   0  0  0  0  0  0
  -27.3674  -12.6471   17.7901 H   0  0  0  0  0  0
  -27.6997  -14.2241   19.6180 H   0  0  0  0  0  0
  -28.6914  -11.8953   21.3302 H   0  0  0  0  0  0
  -28.4655  -13.5104   21.9125 H   0  0  0  0  0  0
  -25.2716   -9.5741   22.4801 H   0  0  0  0  0  0
  -24.0040   -7.4664   22.7472 H   0  0  0  0  0  0
  -21.0841   -8.8742   19.8950 H   0  0  0  0  0  0
  -22.3655  -10.9689   19.6244 H   0  0  0  0  0  0
  -21.2026   -7.6156   23.9764 H   0  0  0  0  0  0
  -21.1494   -6.0507   25.9086 H   0  0  0  0  0  0
  -22.0592   -2.7638   23.2801 H   0  0  0  0  0  0
  -22.4008  -11.9931   22.4708 H   0  0  0  0  0  0
  -21.1076  -13.1381   22.2695 H   0  0  0  0  0  0
  -24.6525  -15.8220   20.5444 H   0  0  0  0  0  0
  -26.2676  -15.6445   20.0762 H   0  0  0  0  0  0
  -26.7071  -32.5570   23.1205 H   0  0  0  0  0  0
  -25.0043  -33.9837   25.0526 H   0  0  0  0  0  0
  -22.6870  -31.3064   21.4126 H   0  0  0  0  0  0
  -23.3768  -35.9626   23.3299 H   0  0  0  0  0  0
  -24.3587  -36.8930   22.2052 H   0  0  0  0  0  0
  -23.7223  -37.6514   23.6657 H   0  0  0  0  0  0
  -26.0292  -31.6173   20.5973 H   0  0  0  0  0  0
  -26.8086  -30.9013   21.9815 H   0  0  0  0  0  0
  -28.1000  -29.1576   21.1497 H   0  0  0  0  0  0
  -26.0914  -25.9937   19.0094 H   0  0  0  0  0  0
  -23.9987  -27.2836   19.0426 H   0  0  0  0  0  0
  -23.7025  -30.5984   19.4072 H   0  0  0  0  0  0
  -22.7325  -29.2346   19.8759 H   0  0  0  0  0  0
  -25.1289  -36.2020   25.0846 H   0  0  0  0  0  0
  -20.9951  -28.3219   24.1451 H   0  0  0  0  0  0
  -20.5662  -26.2267   23.3609 H   0  0  0  0  0  0
  -21.6645  -26.7413   22.1230 H   0  0  0  0  0  0
  -19.6900  -25.6302   21.1251 H   0  0  0  0  0  0
  -19.6715  -27.3212   20.6761 H   0  0  0  0  0  0
  -17.4203  -26.6731   21.3981 H   0  0  0  0  0  0
  -18.0263  -26.0044   22.8961 H   0  0  0  0  0  0
  -19.7914  -30.7266   24.2291 H   0  0  0  0  0  0
  -17.4987  -31.6270   24.5167 H   0  0  0  0  0  0
  -15.5342  -30.2978   23.7629 H   0  0  0  0  0  0
  -15.8677  -28.0830   22.7021 H   0  0  0  0  0  0
  -24.5942  -30.6986   25.7867 H   0  0  0  0  0  0
  -24.8902  -32.2812   26.4984 H   0  0  0  0  0  0
  -25.8134  -30.8864   27.0254 H   0  0  0  0  0  0
  -26.2764  -29.6840   24.1154 H   0  0  0  0  0  0
  -27.4106  -29.7288   25.4460 H   0  0  0  0  0  0
  -27.8568  -30.4414   23.9130 H   0  0  0  0  0  0
  -27.2695  -33.3626   26.2077 H   0  0  0  0  0  0
  -28.3816  -32.6894   25.0251 H   0  0  0  0  0  0
  -28.0762  -31.8439   26.5345 H   0  0  0  0  0  0
  -28.2617  -38.0103   24.7530 H   0  0  0  0  0  0
  -28.1109  -36.2651   24.6281 H   0  0  0  0  0  0
  -27.2329  -37.1435   25.8865 H   0  0  0  0  0  0
  -20.9284  -29.8756   21.6979 H   0  0  0  0  0  0
  -26.0220  -38.2885   24.1421 H   0  0  0  0  0  0
  -34.4807  -20.7686   16.3827 H   0  0  0  0  0  0
  -35.0167  -21.4623   17.9083 H   0  0  0  0  0  0
  -35.4257  -22.2434   16.3810 H   0  0  0  0  0  0
  -28.2780  -19.6648   17.0738 H   0  0  0  0  0  0
  -29.3768  -20.1437   15.7947 H   0  0  0  0  0  0
  -28.4600  -21.3649   16.6760 H   0  0  0  0  0  0
  -29.0761  -15.5094   18.6124 H   0  0  0  0  0  0
  -28.5869  -17.0519   17.9797 H   0  0  0  0  0  0
  -28.0554  -16.5693   19.5921 H   0  0  0  0  0  0
  -35.8953  -27.3575   18.4901 H   0  0  0  0  0  0
  -35.3890  -25.9734   17.5516 H   0  0  0  0  0  0
  -35.3653  -25.8963   19.3056 H   0  0  0  0  0  0
  -34.2226  -28.7379   17.1267 H   0  0  0  0  0  0
  -32.5062  -28.3622   17.1468 H   0  0  0  0  0  0
  -33.6321  -27.3244   16.2830 H   0  0  0  0  0  0
  -34.3352  -28.7925   19.6869 H   0  0  0  0  0  0
  -33.7373  -27.4362   20.6262 H   0  0  0  0  0  0
  -32.6120  -28.4747   19.7643 H   0  0  0  0  0  0
  -28.1717  -25.3504   18.6269 H   0  0  0  0  0  0
  -28.8211  -26.8796   18.0314 H   0  0  0  0  0  0
  -29.5959  -17.3582   21.6283 H   0  0  0  0  0  0
  -31.3013  -17.0653   21.4085 H   0  0  0  0  0  0
  -32.9749  -22.6809   15.9410 H   0  0  0  0  0  0
  -32.9149  -25.3681   19.5282 H   0  0  0  0  0  0
  -29.7970  -21.0555   18.6979 H   0  0  0  0  0  0
  -31.0182  -16.7095   18.9916 H   0  0  0  0  0  0
  -31.1226  -27.3202   18.3924 H   0  0  0  0  0  0
  -34.0345  -23.7225   18.5419 H   0  0  0  0  0  0
  -31.1568  -21.4849   16.1884 H   0  0  0  0  0  0
  -29.5884  -19.1528   19.8778 H   0  0  0  0  0  0
  -29.2063  -15.1122   21.7189 H   0  0  0  0  0  0
  1 25  1  0  0  0
  1 30  2  0  0  0
  1 92  1  0  0  0
  2  3  1  0  0  0
  2 25  1  0  0  0
  2 97  1  0  0  0
  2 98  1  0  0  0
  3  4  1  0  0  0
  3 99  1  0  0  0
  3100  1  0  0  0
  4  5  1  0  0  0
  4101  1  0  0  0
  4102  1  0  0  0
  5  6  1  0  0  0
  5 26  1  0  0  0
  5103  1  0  0  0
  6 25  1  0  0  0
  6104  1  0  0  0
  6105  1  0  0  0
  7  8  2  0  0  0
  7 26  1  0  0  0
  7 29  1  0  0  0
  8  9  1  0  0  0
  8 22  1  0  0  0
  9 10  1  0  0  0
  9 27  2  0  0  0
 10 11  2  0  0  0
 10 15  1  0  0  0
 11 12  1  0  0  0
 11106  1  0  0  0
 12 13  2  0  0  0
 12107  1  0  0  0
 13 14  1  0  0  0
 13 31  1  0  0  0
 14 15  2  0  0  0
 14108  1  0  0  0
 15109  1  0  0  0
 16 17  2  0  0  0
 16 21  1  0  0  0
 16 31  1  0  0  0
 17 18  1  0  0  0
 17110  1  0  0  0
 18 19  2  0  0  0
 18111  1  0  0  0
 19 20  1  0  0  0
 19 24  1  0  0  0
 20 21  2  0  0  0
 20112  1  0  0  0
 21 23  1  0  0  0
 22 28  1  0  0  0
 22 32  2  0  0  0
 26 27  1  0  0  0
 28113  1  0  0  0
 28114  1  0  0  0
 29115  1  0  0  0
 29116  1  0  0  0
 33 34  1  0  0  0
 33 66  1  0  0  0
 33 70  2  0  0  0
 34 36  1  0  0  0
 34 59  1  0  0  0
 34117  1  0  0  0
 35 44  2  0  0  0
 35 45  1  0  0  0
 35 68  1  0  0  0
 36 56  1  0  0  0
 36118  1  0  0  0
 37 39  1  0  0  0
 37 47  1  0  0  0
 37 66  1  0  0  0
 37119  1  0  0  0
 38 43  2  0  0  0
 38 46  1  0  0  0
 38 47  1  0  0  0
 39 64  1  0  0  0
 39 67  2  0  0  0
 40 52  1  0  0  0
 40 53  2  0  0  0
 40 58  1  0  0  0
 41120  1  0  0  0
 41121  1  0  0  0
 41122  1  0  0  0
 41 48  1  0  0  0
 42 43  1  0  0  0
 42 66  1  0  0  0
 42123  1  0  0  0
 42124  1  0  0  0
 43 44  1  0  0  0
 44125  1  0  0  0
 45 46  2  0  0  0
 45126  1  0  0  0
 46127  1  0  0  0
 47128  1  0  0  0
 47129  1  0  0  0
 48 56  1  0  0  0
 48 65  1  0  0  0
 48130  1  0  0  0
 49 50  1  0  0  0
 49 53  1  0  0  0
 49 64  1  0  0  0
 49131  1  0  0  0
 50 51  1  0  0  0
 50132  1  0  0  0
 50133  1  0  0  0
 51 52  1  0  0  0
 51134  1  0  0  0
 51135  1  0  0  0
 52136  1  0  0  0
 52137  1  0  0  0
 53 54  1  0  0  0
 54 55  2  0  0  0
 54138  1  0  0  0
 55 57  1  0  0  0
 55139  1  0  0  0
 56 69  2  0  0  0
 57 58  2  0  0  0
 57140  1  0  0  0
 58141  1  0  0  0
 59 60  1  0  0  0
 59 61  1  0  0  0
 59 62  1  0  0  0
 60142  1  0  0  0
 60143  1  0  0  0
 60144  1  0  0  0
 61145  1  0  0  0
 61146  1  0  0  0
 61147  1  0  0  0
 62148  1  0  0  0
 62149  1  0  0  0
 62150  1  0  0  0
 63 65  1  0  0  0
 63151  1  0  0  0
 63152  1  0  0  0
 63153  1  0  0  0
 64154  1  0  0  0
 65155  1  0  0  0
 68 81  1  0  0  0
 71 81  1  0  0  0
 71 88  1  0  0  0
 71 93  2  0  0  0
 72 83  1  0  0  0
 72 90  1  0  0  0
 72 94  2  0  0  0
 73 84  1  0  0  0
 73 89  1  0  0  0
 73 95  2  0  0  0
 74 85  1  0  0  0
 74 91  1  0  0  0
 74 96  2  0  0  0
 75156  1  0  0  0
 75157  1  0  0  0
 75158  1  0  0  0
 75 83  1  0  0  0
 76159  1  0  0  0
 76160  1  0  0  0
 76161  1  0  0  0
 76 85  1  0  0  0
 77162  1  0  0  0
 77163  1  0  0  0
 77164  1  0  0  0
 77 86  1  0  0  0
 78165  1  0  0  0
 78166  1  0  0  0
 78167  1  0  0  0
 78 87  1  0  0  0
 79 87  1  0  0  0
 79168  1  0  0  0
 79169  1  0  0  0
 79170  1  0  0  0
 80 87  1  0  0  0
 80171  1  0  0  0
 80172  1  0  0  0
 80173  1  0  0  0
 81174  1  0  0  0
 81175  1  0  0  0
 82 86  1  0  0  0
 82 92  1  0  0  0
 82176  1  0  0  0
 82177  1  0  0  0
 83 89  1  0  0  0
 83178  1  0  0  0
 84 87  1  0  0  0
 84 88  1  0  0  0
 84179  1  0  0  0
 85 90  1  0  0  0
 85180  1  0  0  0
 86 91  1  0  0  0
 86181  1  0  0  0
 88182  1  0  0  0
 89183  1  0  0  0
 90184  1  0  0  0
 91185  1  0  0  0
 92186  1  0  0  0
M  ISO  4   1 100  68 101  81 101  92 100
M  END
> <chiral flag>
0

> <version>
0

> <s_m_source_file>
/data/baiqing/PycharmProjects/Reinvent-master-3.2/result/LINK_invent/BTK/process_docking_weight1_custom_sum_contain_oxygen_bond_distance_aromatic_linkinvent_7_9_3/rearranged_h_0008.sdf

> <i_m_source_file_index>
31

> <r_mmod_Potential_Energy-OPLS-2005>
-507.135131835938

> <r_mmod_Stretch_Energy-OPLS-2005>
35.9896430969238

> <r_mmod_Bend_Energy-OPLS-2005>
102.121803283691

> <r_mmod_Torsional_Energy-OPLS-2005>
236.432418823242

> <r_mmod_Improper_Torsional_Energy-OPLS-2005>
7.44618129730225

> <r_mmod_Van_der_Waal_Energy-OPLS-2005>
161.596389770508

> <r_mmod_Electrostatic_Energy-OPLS-2005>
-764.256591796875

> <r_mmod_Solvation_Energy-OPLS-2005>
-295.90625

> <b_mmod_Minimization_Converged-OPLS-2005>
0

> <r_mmod_RMS_Derivative-OPLS-2005>
5.23906660079956

$$$$
31
                    3D
 Structure written by MMmdl.
154162  0  0  1  0            999 V2000
  -30.4870  -14.9373   20.4457 C   0  0  0  0  0  0
  -30.4527  -12.5878   19.5032 C   0  0  0  0  0  0
  -29.5265  -12.5371   18.2653 C   0  0  0  0  0  0
  -28.0538  -12.3226   18.6689 C   0  0  0  0  0  0
  -27.6272  -13.2412   19.8418 C   0  0  2  0  0  0
  -28.6640  -13.2193   20.9819 C   0  0  0  0  0  0
  -25.2411  -13.8200   20.5677 C   0  0  0  0  0  0
  -24.1712  -13.0433   20.9239 C   0  0  0  0  0  0
  -24.6334  -11.6933   20.8766 C   0  0  0  0  0  0
  -23.9019  -10.4290   21.0391 C   0  0  0  0  0  0
  -24.3588   -9.4209   21.9159 C   0  0  0  0  0  0
  -23.6281   -8.2233   22.0713 C   0  0  0  0  0  0
  -22.4258   -8.0250   21.3522 C   0  0  0  0  0  0
  -21.9890   -9.0222   20.4622 C   0  0  0  0  0  0
  -22.7198  -10.2114   20.3035 C   0  0  0  0  0  0
  -21.6845   -6.0713   22.5275 C   0  0  0  0  0  0
  -21.4017   -6.5621   23.8202 C   0  0  0  0  0  0
  -21.3664   -5.6771   24.9173 C   0  0  0  0  0  0
  -21.6049   -4.3035   24.7220 C   0  0  0  0  0  0
  -21.8820   -3.8125   23.4343 C   0  0  0  0  0  0
  -21.9196   -4.6949   22.3395 C   0  0  0  0  0  0
  -22.7749  -13.5203   21.1926 C   0  0  0  0  0  0
  -22.1657   -4.2131   21.0978 F   0  0  0  0  0  0
  -21.5642   -3.4517   25.7734 F   0  0  0  0  0  0
  -29.9469  -13.6533   20.4096 N   0  0  0  0  0  0
  -26.2828  -12.9424   20.3214 N   0  0  0  0  0  0
  -25.9254  -11.6567   20.5704 N   0  0  0  0  0  0
  -22.0396  -12.8190   22.0497 N   0  0  0  0  0  0
  -25.4129  -15.1917   20.4109 N   0  0  0  0  0  0
  -31.6717  -15.0765   20.1212 O   0  0  0  0  0  0
  -21.6644   -6.8849   21.4222 O   0  0  0  0  0  0
  -22.3430  -14.5500   20.6770 O   0  0  0  0  0  0
  -24.6455  -31.8454   23.1863 C   0  0  0  0  0  0
  -25.9213  -32.4712   23.8271 C   0  0  1  0  0  0
  -27.2279  -27.1438   20.1526 C   0  0  0  0  0  0
  -25.5960  -33.8519   24.2183 N   0  0  0  0  0  0
  -23.4502  -30.4567   21.5391 C   0  0  2  0  0  0
  -24.8973  -28.8773   20.1214 C   0  0  0  0  0  0
  -22.7589  -29.4515   22.4934 C   0  0  0  0  0  0
  -18.0281  -28.1393   22.8461 C   0  0  0  0  0  0
  -24.1493  -36.7264   23.2634 C   0  0  0  0  0  0
  -26.0048  -30.7187   21.3817 C   0  0  0  0  0  0
  -26.0783  -29.3283   20.7255 C   0  0  0  0  0  0
  -27.2505  -28.4838   20.7087 C   0  0  0  0  0  0
  -26.0240  -26.7895   19.5095 C   0  0  0  0  0  0
  -24.8829  -27.6217   19.4931 C   0  0  0  0  0  0
  -23.6749  -29.7795   20.1621 C   0  0  0  0  0  0
  -25.4130  -36.3032   24.0298 C   0  0  1  0  0  0
  -20.5899  -28.3704   23.1262 C   0  0  2  0  0  0
  -20.6772  -26.9422   22.5406 C   0  0  0  0  0  0
  -19.5751  -26.6377   21.5212 C   0  0  0  0  0  0
  -18.1928  -26.7934   22.1619 C   0  0  0  0  0  0
  -19.1536  -28.8865   23.2844 C   0  0  0  0  0  0
  -18.9459  -30.1466   23.8866 C   0  0  0  0  0  0
  -17.6457  -30.6593   24.0544 C   0  0  0  0  0  0
  -25.9083  -34.9414   23.5046 C   0  0  0  0  0  0
  -16.5349  -29.9081   23.6334 C   0  0  0  0  0  0
  -16.7265  -28.6493   23.0360 C   0  0  0  0  0  0
  -26.4525  -31.6568   25.0712 C   0  0  0  0  0  0
  -25.3709  -31.3756   26.1404 C   0  0  0  0  0  0
  -27.0380  -30.2961   24.6277 C   0  0  0  0  0  0
  -27.6053  -32.4342   25.7508 C   0  0  0  0  0  0
  -27.5579  -37.1781   24.8456 C   0  0  0  0  0  0
  -21.4280  -29.3035   22.3664 N   0  0  0  0  0  0
  -26.4288  -37.3748   23.9401 N   0  0  0  0  0  0
  -24.7206  -31.0292   22.0904 N   0  0  0  0  0  0
  -23.4215  -28.8080   23.3104 O   0  0  0  0  0  0
  -28.2890  -26.1723   20.1476 O   0  0  0  0  0  0
  -26.5677  -34.8910   22.4631 O   0  0  0  0  0  0
  -23.5577  -32.1314   23.7095 O   0  0  0  0  0  0
  -28.7640  -18.2816   21.5760 C   0  0  0  0  0  0
  -28.5781  -19.7144   21.5749 C   0  0  0  0  0  0
  -30.1556  -18.4708   19.6912 C   0  0  0  0  0  0
  -29.9605  -19.9332   19.6615 C   0  0  0  0  0  0
  -29.5851  -17.5608   20.6537 C   0  0  0  0  0  0
  -29.1550  -20.6483   20.6437 C   0  0  0  0  0  0
  -28.5856  -23.3128   20.1489 C   0  0  0  0  0  0
  -29.3359  -22.5004   22.3103 C   0  0  0  0  0  0
  -28.1242  -24.7793   20.8155 C   0  0  0  0  0  0
  -30.6551  -20.7097   18.5381 C   0  0  0  0  0  0
  -29.6139  -16.0258   20.7041 N   0  0  0  0  0  0
  -29.0106  -22.1714   20.9144 N   0  0  0  0  0  0
  -28.4765  -23.2240   18.9236 O   0  0  0  0  0  0
  -31.6018  -19.9867   17.9384 F   0  0  0  0  0  0
  -29.7623  -21.0397   17.6053 F   0  0  0  0  0  0
  -31.2388  -21.8160   18.9992 F   0  0  0  0  0  0
  -31.4729  -12.7961   19.1771 H   0  0  0  0  0  0
  -30.4873  -11.6283   20.0217 H   0  0  0  0  0  0
  -29.8542  -11.7540   17.5808 H   0  0  0  0  0  0
  -29.6098  -13.4759   17.7166 H   0  0  0  0  0  0
  -27.9393  -11.2811   18.9675 H   0  0  0  0  0  0
  -27.3984  -12.4661   17.8086 H   0  0  0  0  0  0
  -27.6019  -14.2528   19.4350 H   0  0  0  0  0  0
  -28.7401  -12.2183   21.4106 H   0  0  0  0  0  0
  -28.3483  -13.8783   21.7924 H   0  0  0  0  0  0
  -25.2713   -9.5726   22.4735 H   0  0  0  0  0  0
  -24.0009   -7.4623   22.7421 H   0  0  0  0  0  0
  -21.0813   -8.8718   19.8930 H   0  0  0  0  0  0
  -22.3602  -10.9652   19.6143 H   0  0  0  0  0  0
  -21.1995   -7.6116   23.9720 H   0  0  0  0  0  0
  -21.1494   -6.0486   25.9079 H   0  0  0  0  0  0
  -22.0599   -2.7581   23.2846 H   0  0  0  0  0  0
  -22.4004  -11.9860   22.4903 H   0  0  0  0  0  0
  -21.1006  -13.1201   22.2682 H   0  0  0  0  0  0
  -24.6493  -15.8517   20.5147 H   0  0  0  0  0  0
  -26.2475  -15.6177   20.0279 H   0  0  0  0  0  0
  -26.7297  -32.5307   23.1024 H   0  0  0  0  0  0
  -25.0049  -33.9647   25.0285 H   0  0  0  0  0  0
  -22.7528  -31.2822   21.3830 H   0  0  0  0  0  0
  -23.3760  -35.9592   23.3291 H   0  0  0  0  0  0
  -24.3561  -36.8914   22.2047 H   0  0  0  0  0  0
  -23.7251  -37.6454   23.6694 H   0  0  0  0  0  0
  -26.1619  -31.4665   20.6039 H   0  0  0  0  0  0
  -26.8773  -30.7722   22.0211 H   0  0  0  0  0  0
  -28.1677  -28.8369   21.1614 H   0  0  0  0  0  0
  -25.9592  -25.8289   19.0209 H   0  0  0  0  0  0
  -23.9863  -27.2725   19.0010 H   0  0  0  0  0  0
  -23.8163  -30.5520   19.4055 H   0  0  0  0  0  0
  -22.7887  -29.2236   19.8539 H   0  0  0  0  0  0
  -25.1323  -36.1855   25.0790 H   0  0  0  0  0  0
  -20.9953  -28.3260   24.1400 H   0  0  0  0  0  0
  -20.5657  -26.2326   23.3609 H   0  0  0  0  0  0
  -21.6644  -26.7443   22.1213 H   0  0  0  0  0  0
  -19.6932  -25.6274   21.1270 H   0  0  0  0  0  0
  -19.6707  -27.3163   20.6720 H   0  0  0  0  0  0
  -17.4212  -26.6655   21.4016 H   0  0  0  0  0  0
  -18.0333  -26.0086   22.9021 H   0  0  0  0  0  0
  -19.7935  -30.7276   24.2248 H   0  0  0  0  0  0
  -17.5011  -31.6274   24.5151 H   0  0  0  0  0  0
  -15.5347  -30.2980   23.7676 H   0  0  0  0  0  0
  -15.8656  -28.0801   22.7129 H   0  0  0  0  0  0
  -24.5874  -30.7136   25.7705 H   0  0  0  0  0  0
  -24.8917  -32.2937   26.4810 H   0  0  0  0  0  0
  -25.7958  -30.8918   27.0204 H   0  0  0  0  0  0
  -26.2975  -29.6704   24.1281 H   0  0  0  0  0  0
  -27.3991  -29.7241   25.4834 H   0  0  0  0  0  0
  -27.8894  -30.4202   23.9582 H   0  0  0  0  0  0
  -27.2628  -33.3648   26.2060 H   0  0  0  0  0  0
  -28.3872  -32.6909   25.0344 H   0  0  0  0  0  0
  -28.0730  -31.8501   26.5448 H   0  0  0  0  0  0
  -28.2577  -38.0097   24.7525 H   0  0  0  0  0  0
  -28.1096  -36.2625   24.6265 H   0  0  0  0  0  0
  -27.2297  -37.1405   25.8858 H   0  0  0  0  0  0
  -20.9515  -29.8721   21.6798 H   0  0  0  0  0  0
  -26.0153  -38.2810   24.1431 H   0  0  0  0  0  0
  -28.2479  -17.7174   22.3433 H   0  0  0  0  0  0
  -27.9584  -20.1126   22.3656 H   0  0  0  0  0  0
  -30.7524  -18.0278   18.9074 H   0  0  0  0  0  0
  -28.4437  -22.7575   22.8824 H   0  0  0  0  0  0
  -30.0445  -23.3296   22.3585 H   0  0  0  0  0  0
  -29.8093  -21.6672   22.8297 H   0  0  0  0  0  0
  -28.6266  -24.8984   21.7710 H   0  0  0  0  0  0
  -27.0759  -24.6592   21.0865 H   0  0  0  0  0  0
  -28.7332  -15.6548   21.0298 H   0  0  0  0  0  0
  1 25  1  0  0  0
  1 30  2  0  0  0
  1 81  1  0  0  0
  2  3  1  0  0  0
  2 25  1  0  0  0
  2 87  1  0  0  0
  2 88  1  0  0  0
  3  4  1  0  0  0
  3 89  1  0  0  0
  3 90  1  0  0  0
  4  5  1  0  0  0
  4 91  1  0  0  0
  4 92  1  0  0  0
  5  6  1  0  0  0
  5 26  1  0  0  0
  5 93  1  0  0  0
  6 25  1  0  0  0
  6 94  1  0  0  0
  6 95  1  0  0  0
  7  8  2  0  0  0
  7 26  1  0  0  0
  7 29  1  0  0  0
  8  9  1  0  0  0
  8 22  1  0  0  0
  9 10  1  0  0  0
  9 27  2  0  0  0
 10 11  2  0  0  0
 10 15  1  0  0  0
 11 12  1  0  0  0
 11 96  1  0  0  0
 12 13  2  0  0  0
 12 97  1  0  0  0
 13 14  1  0  0  0
 13 31  1  0  0  0
 14 15  2  0  0  0
 14 98  1  0  0  0
 15 99  1  0  0  0
 16 17  2  0  0  0
 16 21  1  0  0  0
 16 31  1  0  0  0
 17 18  1  0  0  0
 17100  1  0  0  0
 18 19  2  0  0  0
 18101  1  0  0  0
 19 20  1  0  0  0
 19 24  1  0  0  0
 20 21  2  0  0  0
 20102  1  0  0  0
 21 23  1  0  0  0
 22 28  1  0  0  0
 22 32  2  0  0  0
 26 27  1  0  0  0
 28103  1  0  0  0
 28104  1  0  0  0
 29105  1  0  0  0
 29106  1  0  0  0
 33 34  1  0  0  0
 33 66  1  0  0  0
 33 70  2  0  0  0
 34 36  1  0  0  0
 34 59  1  0  0  0
 34107  1  0  0  0
 35 44  2  0  0  0
 35 45  1  0  0  0
 35 68  1  0  0  0
 36 56  1  0  0  0
 36108  1  0  0  0
 37 39  1  0  0  0
 37 47  1  0  0  0
 37 66  1  0  0  0
 37109  1  0  0  0
 38 43  2  0  0  0
 38 46  1  0  0  0
 38 47  1  0  0  0
 39 64  1  0  0  0
 39 67  2  0  0  0
 40 52  1  0  0  0
 40 53  2  0  0  0
 40 58  1  0  0  0
 41110  1  0  0  0
 41111  1  0  0  0
 41112  1  0  0  0
 41 48  1  0  0  0
 42 43  1  0  0  0
 42 66  1  0  0  0
 42113  1  0  0  0
 42114  1  0  0  0
 43 44  1  0  0  0
 44115  1  0  0  0
 45 46  2  0  0  0
 45116  1  0  0  0
 46117  1  0  0  0
 47118  1  0  0  0
 47119  1  0  0  0
 48 56  1  0  0  0
 48 65  1  0  0  0
 48120  1  0  0  0
 49 50  1  0  0  0
 49 53  1  0  0  0
 49 64  1  0  0  0
 49121  1  0  0  0
 50 51  1  0  0  0
 50122  1  0  0  0
 50123  1  0  0  0
 51 52  1  0  0  0
 51124  1  0  0  0
 51125  1  0  0  0
 52126  1  0  0  0
 52127  1  0  0  0
 53 54  1  0  0  0
 54 55  2  0  0  0
 54128  1  0  0  0
 55 57  1  0  0  0
 55129  1  0  0  0
 56 69  2  0  0  0
 57 58  2  0  0  0
 57130  1  0  0  0
 58131  1  0  0  0
 59 60  1  0  0  0
 59 61  1  0  0  0
 59 62  1  0  0  0
 60132  1  0  0  0
 60133  1  0  0  0
 60134  1  0  0  0
 61135  1  0  0  0
 61136  1  0  0  0
 61137  1  0  0  0
 62138  1  0  0  0
 62139  1  0  0  0
 62140  1  0  0  0
 63 65  1  0  0  0
 63141  1  0  0  0
 63142  1  0  0  0
 63143  1  0  0  0
 64144  1  0  0  0
 65145  1  0  0  0
 68 79  1  0  0  0
 71 72  2  0  0  0
 71 75  1  0  0  0
 71146  1  0  0  0
 72 76  1  0  0  0
 72147  1  0  0  0
 73 74  1  0  0  0
 73 75  2  0  0  0
 73148  1  0  0  0
 74 76  2  0  0  0
 74 80  1  0  0  0
 75 81  1  0  0  0
 76 82  1  0  0  0
 77 79  1  0  0  0
 77 82  1  0  0  0
 77 83  2  0  0  0
 78 82  1  0  0  0
 78149  1  0  0  0
 78150  1  0  0  0
 78151  1  0  0  0
 79152  1  0  0  0
 79153  1  0  0  0
 80 84  1  0  0  0
 80 85  1  0  0  0
 80 86  1  0  0  0
 81154  1  0  0  0
M  ISO  4   1 100  68 101  79 101  81 100
M  END
> <chiral flag>
0

> <version>
0

> <s_m_source_file>
/data/baiqing/PycharmProjects/Reinvent-master-3.2/result/LINK_invent/BTK/process_docking_weight1_custom_sum_contain_oxygen_bond_distance_aromatic_linkinvent_7_9_3/rearranged_h_0008.sdf

> <i_m_source_file_index>
32

> <r_mmod_Potential_Energy-OPLS-2005>
608.799926757812

> <r_mmod_Stretch_Energy-OPLS-2005>
245.8271484375

> <r_mmod_Bend_Energy-OPLS-2005>
272.938903808594

> <r_mmod_Torsional_Energy-OPLS-2005>
300.629760742188

> <r_mmod_Improper_Torsional_Energy-OPLS-2005>
5.56133985519409

> <r_mmod_Van_der_Waal_Energy-OPLS-2005>
136.907119750977

> <r_mmod_Electrostatic_Energy-OPLS-2005>
-306.77001953125

> <r_mmod_Solvation_Energy-OPLS-2005>
-231.817932128906

> <b_mmod_Minimization_Converged-OPLS-2005>
0

> <r_mmod_RMS_Derivative-OPLS-2005>
4.94855356216431

$$$$
32
                    3D
 Structure written by MMmdl.
162170  0  0  1  0            999 V2000
  -30.6638  -14.4901   20.5538 C   0  0  0  0  0  0
  -30.4368  -12.3119   19.4178 C   0  0  0  0  0  0
  -29.5031  -12.5131   18.2039 C   0  0  0  0  0  0
  -28.0225  -12.3713   18.6143 C   0  0  0  0  0  0
  -27.6684  -13.2034   19.8763 C   0  0  2  0  0  0
  -28.7103  -12.9620   20.9923 C   0  0  0  0  0  0
  -25.2626  -13.8163   20.5675 C   0  0  0  0  0  0
  -24.1881  -13.0438   20.9196 C   0  0  0  0  0  0
  -24.6435  -11.6916   20.8751 C   0  0  0  0  0  0
  -23.9091  -10.4300   21.0408 C   0  0  0  0  0  0
  -24.3638   -9.4198   21.9173 C   0  0  0  0  0  0
  -23.6313   -8.2239   22.0743 C   0  0  0  0  0  0
  -22.4284   -8.0291   21.3554 C   0  0  0  0  0  0
  -21.9927   -9.0260   20.4651 C   0  0  0  0  0  0
  -22.7263  -10.2134   20.3054 C   0  0  0  0  0  0
  -21.6851   -6.0756   22.5293 C   0  0  0  0  0  0
  -21.4008   -6.5652   23.8225 C   0  0  0  0  0  0
  -21.3655   -5.6796   24.9187 C   0  0  0  0  0  0
  -21.6032   -4.3059   24.7226 C   0  0  0  0  0  0
  -21.8814   -3.8162   23.4343 C   0  0  0  0  0  0
  -21.9190   -4.6988   22.3410 C   0  0  0  0  0  0
  -22.7893  -13.5228   21.1837 C   0  0  0  0  0  0
  -22.1649   -4.2186   21.0982 F   0  0  0  0  0  0
  -21.5640   -3.4532   25.7724 F   0  0  0  0  0  0
  -30.0418  -13.2842   20.4498 N   0  0  0  0  0  0
  -26.3076  -12.9328   20.3364 N   0  0  0  0  0  0
  -25.9353  -11.6502   20.5759 N   0  0  0  0  0  0
  -22.0504  -12.8263   22.0407 N   0  0  0  0  0  0
  -25.4356  -15.1881   20.4080 N   0  0  0  0  0  0
  -31.7787  -14.7140   20.0711 O   0  0  0  0  0  0
  -21.6633   -6.8895   21.4259 O   0  0  0  0  0  0
  -22.3587  -14.5522   20.6655 O   0  0  0  0  0  0
  -24.6153  -31.8658   23.2098 C   0  0  0  0  0  0
  -25.9048  -32.4815   23.8398 C   0  0  1  0  0  0
  -27.2351  -27.4390   20.0940 C   0  0  0  0  0  0
  -25.5910  -33.8603   24.2342 N   0  0  0  0  0  0
  -23.4029  -30.4881   21.5510 C   0  0  2  0  0  0
  -24.8501  -28.9567   20.1093 C   0  0  0  0  0  0
  -22.7399  -29.4636   22.4995 C   0  0  0  0  0  0
  -18.0263  -28.1374   22.8486 C   0  0  0  0  0  0
  -24.1455  -36.7325   23.2635 C   0  0  0  0  0  0
  -25.9296  -30.8363   21.3587 C   0  0  0  0  0  0
  -26.0090  -29.4724   20.7029 C   0  0  0  0  0  0
  -27.2077  -28.7243   20.6848 C   0  0  0  0  0  0
  -26.0648  -26.9368   19.4918 C   0  0  0  0  0  0
  -24.8740  -27.6892   19.4975 C   0  0  0  0  0  0
  -23.6084  -29.8181   20.1660 C   0  0  0  0  0  0
  -25.4069  -36.3100   24.0337 C   0  0  1  0  0  0
  -20.5855  -28.3642   23.1311 C   0  0  2  0  0  0
  -20.6741  -26.9380   22.5407 C   0  0  0  0  0  0
  -19.5725  -26.6370   21.5195 C   0  0  0  0  0  0
  -18.1904  -26.7918   22.1615 C   0  0  0  0  0  0
  -19.1515  -28.8825   23.2895 C   0  0  0  0  0  0
  -18.9455  -30.1433   23.8900 C   0  0  0  0  0  0
  -17.6461  -30.6574   24.0565 C   0  0  0  0  0  0
  -25.9002  -34.9459   23.5122 C   0  0  0  0  0  0
  -16.5347  -29.9075   23.6333 C   0  0  0  0  0  0
  -16.7255  -28.6499   23.0345 C   0  0  0  0  0  0
  -26.4485  -31.6597   25.0737 C   0  0  0  0  0  0
  -25.3757  -31.3715   26.1500 C   0  0  0  0  0  0
  -27.0334  -30.3042   24.6122 C   0  0  0  0  0  0
  -27.6038  -32.4333   25.7505 C   0  0  0  0  0  0
  -27.5561  -37.1794   24.8438 C   0  0  0  0  0  0
  -21.4131  -29.3006   22.3725 N   0  0  0  0  0  0
  -26.4263  -37.3775   23.9410 N   0  0  0  0  0  0
  -24.6681  -31.0745   22.1003 N   0  0  0  0  0  0
  -23.4178  -28.8191   23.3048 O   0  0  0  0  0  0
  -28.3789  -26.6686   20.1101 O   0  0  0  0  0  0
  -26.5536  -34.8910   22.4665 O   0  0  0  0  0  0
  -23.5350  -32.1442   23.7473 O   0  0  0  0  0  0
  -29.8057  -17.8202   21.7944 C   0  0  0  0  0  0
  -29.5751  -19.1800   21.4787 C   0  0  0  0  0  0
  -29.8403  -16.8315   20.7836 C   0  0  0  0  0  0
  -29.3369  -19.5873   20.1393 C   0  0  0  0  0  0
  -29.6306  -17.2362   19.4407 C   0  0  0  0  0  0
  -29.3796  -18.5951   19.1315 C   0  0  0  0  0  0
  -28.2822  -25.2734   23.5766 C   0  0  0  0  0  0
  -29.9780  -26.8686   22.5058 C   0  0  0  0  0  0
  -28.6622  -23.3122   20.0933 C   0  0  0  0  0  0
  -29.2713  -24.5769   20.7564 C   0  0  0  0  0  0
  -29.2832  -21.9872   20.6234 C   0  0  0  0  0  0
  -28.5684  -26.2445   22.4202 C   0  0  0  0  0  0
  -29.9404  -15.4525   21.1575 N   0  0  0  0  0  0
  -28.2837  -25.6110   21.1187 N   0  0  0  0  0  0
  -29.0209  -20.8837   19.7469 O   0  0  0  0  0  0
  -29.6045  -16.3188   18.4411 F   0  0  0  0  0  0
  -29.1570  -18.9486   17.8412 F   0  0  0  0  0  0
  -31.4771  -12.4321   19.1129 H   0  0  0  0  0  0
  -30.3535  -11.2945   19.8042 H   0  0  0  0  0  0
  -29.7484  -11.7959   17.4194 H   0  0  0  0  0  0
  -29.6689  -13.5031   17.7743 H   0  0  0  0  0  0
  -27.8321  -11.3134   18.7997 H   0  0  0  0  0  0
  -27.3726  -12.6539   17.7837 H   0  0  0  0  0  0
  -27.7172  -14.2552   19.5935 H   0  0  0  0  0  0
  -28.6931  -11.9152   21.2971 H   0  0  0  0  0  0
  -28.4670  -13.5277   21.8926 H   0  0  0  0  0  0
  -25.2768   -9.5681   22.4764 H   0  0  0  0  0  0
  -24.0032   -7.4616   22.7449 H   0  0  0  0  0  0
  -21.0855   -8.8763   19.8959 H   0  0  0  0  0  0
  -22.3701  -10.9669   19.6177 H   0  0  0  0  0  0
  -21.1984   -7.6152   23.9753 H   0  0  0  0  0  0
  -21.1488   -6.0513   25.9093 H   0  0  0  0  0  0
  -22.0603   -2.7634   23.2819 H   0  0  0  0  0  0
  -22.4075  -11.9920   22.4846 H   0  0  0  0  0  0
  -21.1115  -13.1319   22.2543 H   0  0  0  0  0  0
  -24.6751  -15.8445   20.5364 H   0  0  0  0  0  0
  -26.2927  -15.6290   20.0988 H   0  0  0  0  0  0
  -26.7121  -32.5534   23.1170 H   0  0  0  0  0  0
  -25.0178  -33.9760   25.0574 H   0  0  0  0  0  0
  -22.6920  -31.3055   21.4132 H   0  0  0  0  0  0
  -23.3690  -35.9673   23.3275 H   0  0  0  0  0  0
  -24.3553  -36.8963   22.2060 H   0  0  0  0  0  0
  -23.7221  -37.6530   23.6656 H   0  0  0  0  0  0
  -26.0354  -31.6015   20.5887 H   0  0  0  0  0  0
  -26.8196  -30.8895   21.9748 H   0  0  0  0  0  0
  -28.1046  -29.1170   21.1404 H   0  0  0  0  0  0
  -26.0793  -25.9601   19.0298 H   0  0  0  0  0  0
  -23.9848  -27.2863   19.0335 H   0  0  0  0  0  0
  -23.7059  -30.5908   19.4030 H   0  0  0  0  0  0
  -22.7347  -29.2289   19.8800 H   0  0  0  0  0  0
  -25.1244  -36.1962   25.0836 H   0  0  0  0  0  0
  -20.9940  -28.3185   24.1434 H   0  0  0  0  0  0
  -20.5587  -26.2246   23.3587 H   0  0  0  0  0  0
  -21.6619  -26.7371   22.1241 H   0  0  0  0  0  0
  -19.6861  -25.6272   21.1233 H   0  0  0  0  0  0
  -19.6693  -27.3165   20.6713 H   0  0  0  0  0  0
  -17.4180  -26.6668   21.4017 H   0  0  0  0  0  0
  -18.0318  -26.0054   22.9005 H   0  0  0  0  0  0
  -19.7933  -30.7242   24.2265 H   0  0  0  0  0  0
  -17.5020  -31.6257   24.5166 H   0  0  0  0  0  0
  -15.5349  -30.2987   23.7641 H   0  0  0  0  0  0
  -15.8660  -28.0816   22.7054 H   0  0  0  0  0  0
  -24.5876  -30.7145   25.7834 H   0  0  0  0  0  0
  -24.9018  -32.2889   26.4990 H   0  0  0  0  0  0
  -25.8123  -30.8838   27.0228 H   0  0  0  0  0  0
  -26.2893  -29.6738   24.1252 H   0  0  0  0  0  0
  -27.4202  -29.7362   25.4592 H   0  0  0  0  0  0
  -27.8689  -30.4388   23.9235 H   0  0  0  0  0  0
  -27.2611  -33.3500   26.2298 H   0  0  0  0  0  0
  -28.3740  -32.7100   25.0299 H   0  0  0  0  0  0
  -28.0873  -31.8353   26.5250 H   0  0  0  0  0  0
  -28.2552  -38.0108   24.7487 H   0  0  0  0  0  0
  -28.1078  -36.2633   24.6232 H   0  0  0  0  0  0
  -27.2286  -37.1426   25.8840 H   0  0  0  0  0  0
  -20.9272  -29.8771   21.7004 H   0  0  0  0  0  0
  -26.0148  -38.2858   24.1385 H   0  0  0  0  0  0
  -29.9338  -17.5336   22.8303 H   0  0  0  0  0  0
  -29.5524  -19.8843   22.2980 H   0  0  0  0  0  0
  -28.2891  -25.8042   24.5291 H   0  0  0  0  0  0
  -29.0193  -24.4751   23.6513 H   0  0  0  0  0  0
  -27.2978  -24.8143   23.4713 H   0  0  0  0  0  0
  -30.0887  -27.4357   23.4295 H   0  0  0  0  0  0
  -30.1701  -27.5614   21.6854 H   0  0  0  0  0  0
  -30.7675  -26.1182   22.4982 H   0  0  0  0  0  0
  -28.7976  -23.3857   19.0154 H   0  0  0  0  0  0
  -27.5832  -23.2792   20.2531 H   0  0  0  0  0  0
  -30.0536  -25.0041   20.1270 H   0  0  0  0  0  0
  -29.7854  -24.2377   21.6537 H   0  0  0  0  0  0
  -28.8746  -21.8099   21.6199 H   0  0  0  0  0  0
  -30.3650  -22.0925   20.7244 H   0  0  0  0  0  0
  -27.8477  -27.0497   22.5577 H   0  0  0  0  0  0
  -29.1641  -15.1038   21.6988 H   0  0  0  0  0  0
  1 25  1  0  0  0
  1 30  2  0  0  0
  1 83  1  0  0  0
  2  3  1  0  0  0
  2 25  1  0  0  0
  2 88  1  0  0  0
  2 89  1  0  0  0
  3  4  1  0  0  0
  3 90  1  0  0  0
  3 91  1  0  0  0
  4  5  1  0  0  0
  4 92  1  0  0  0
  4 93  1  0  0  0
  5  6  1  0  0  0
  5 26  1  0  0  0
  5 94  1  0  0  0
  6 25  1  0  0  0
  6 95  1  0  0  0
  6 96  1  0  0  0
  7  8  2  0  0  0
  7 26  1  0  0  0
  7 29  1  0  0  0
  8  9  1  0  0  0
  8 22  1  0  0  0
  9 10  1  0  0  0
  9 27  2  0  0  0
 10 11  2  0  0  0
 10 15  1  0  0  0
 11 12  1  0  0  0
 11 97  1  0  0  0
 12 13  2  0  0  0
 12 98  1  0  0  0
 13 14  1  0  0  0
 13 31  1  0  0  0
 14 15  2  0  0  0
 14 99  1  0  0  0
 15100  1  0  0  0
 16 17  2  0  0  0
 16 21  1  0  0  0
 16 31  1  0  0  0
 17 18  1  0  0  0
 17101  1  0  0  0
 18 19  2  0  0  0
 18102  1  0  0  0
 19 20  1  0  0  0
 19 24  1  0  0  0
 20 21  2  0  0  0
 20103  1  0  0  0
 21 23  1  0  0  0
 22 28  1  0  0  0
 22 32  2  0  0  0
 26 27  1  0  0  0
 28104  1  0  0  0
 28105  1  0  0  0
 29106  1  0  0  0
 29107  1  0  0  0
 33 34  1  0  0  0
 33 66  1  0  0  0
 33 70  2  0  0  0
 34 36  1  0  0  0
 34 59  1  0  0  0
 34108  1  0  0  0
 35 44  2  0  0  0
 35 45  1  0  0  0
 35 68  1  0  0  0
 36 56  1  0  0  0
 36109  1  0  0  0
 37 39  1  0  0  0
 37 47  1  0  0  0
 37 66  1  0  0  0
 37110  1  0  0  0
 38 43  2  0  0  0
 38 46  1  0  0  0
 38 47  1  0  0  0
 39 64  1  0  0  0
 39 67  2  0  0  0
 40 52  1  0  0  0
 40 53  2  0  0  0
 40 58  1  0  0  0
 41111  1  0  0  0
 41112  1  0  0  0
 41113  1  0  0  0
 41 48  1  0  0  0
 42 43  1  0  0  0
 42 66  1  0  0  0
 42114  1  0  0  0
 42115  1  0  0  0
 43 44  1  0  0  0
 44116  1  0  0  0
 45 46  2  0  0  0
 45117  1  0  0  0
 46118  1  0  0  0
 47119  1  0  0  0
 47120  1  0  0  0
 48 56  1  0  0  0
 48 65  1  0  0  0
 48121  1  0  0  0
 49 50  1  0  0  0
 49 53  1  0  0  0
 49 64  1  0  0  0
 49122  1  0  0  0
 50 51  1  0  0  0
 50123  1  0  0  0
 50124  1  0  0  0
 51 52  1  0  0  0
 51125  1  0  0  0
 51126  1  0  0  0
 52127  1  0  0  0
 52128  1  0  0  0
 53 54  1  0  0  0
 54 55  2  0  0  0
 54129  1  0  0  0
 55 57  1  0  0  0
 55130  1  0  0  0
 56 69  2  0  0  0
 57 58  2  0  0  0
 57131  1  0  0  0
 58132  1  0  0  0
 59 60  1  0  0  0
 59 61  1  0  0  0
 59 62  1  0  0  0
 60133  1  0  0  0
 60134  1  0  0  0
 60135  1  0  0  0
 61136  1  0  0  0
 61137  1  0  0  0
 61138  1  0  0  0
 62139  1  0  0  0
 62140  1  0  0  0
 62141  1  0  0  0
 63 65  1  0  0  0
 63142  1  0  0  0
 63143  1  0  0  0
 63144  1  0  0  0
 64145  1  0  0  0
 65146  1  0  0  0
 68 84  1  0  0  0
 71 72  2  0  0  0
 71 73  1  0  0  0
 71147  1  0  0  0
 72 74  1  0  0  0
 72148  1  0  0  0
 73 75  2  0  0  0
 73 83  1  0  0  0
 74 76  2  0  0  0
 74 85  1  0  0  0
 75 76  1  0  0  0
 75 86  1  0  0  0
 76 87  1  0  0  0
 77149  1  0  0  0
 77150  1  0  0  0
 77151  1  0  0  0
 77 82  1  0  0  0
 78 82  1  0  0  0
 78152  1  0  0  0
 78153  1  0  0  0
 78154  1  0  0  0
 79 80  1  0  0  0
 79 81  1  0  0  0
 79155  1  0  0  0
 79156  1  0  0  0
 80 84  1  0  0  0
 80157  1  0  0  0
 80158  1  0  0  0
 81 85  1  0  0  0
 81159  1  0  0  0
 81160  1  0  0  0
 82 84  1  0  0  0
 82161  1  0  0  0
 83162  1  0  0  0
M  ISO  4   1 100  68 101  83 100  84 101
M  END
> <chiral flag>
0

> <version>
0

> <s_m_source_file>
/data/baiqing/PycharmProjects/Reinvent-master-3.2/result/LINK_invent/BTK/process_docking_weight1_custom_sum_contain_oxygen_bond_distance_aromatic_linkinvent_7_9_3/rearranged_h_0008.sdf

> <i_m_source_file_index>
33

> <r_mmod_Potential_Energy-OPLS-2005>
-26.0131702423096

> <r_mmod_Stretch_Energy-OPLS-2005>
42.1940116882324

> <r_mmod_Bend_Energy-OPLS-2005>
108.200752258301

> <r_mmod_Torsional_Energy-OPLS-2005>
260.223480224609

> <r_mmod_Improper_Torsional_Energy-OPLS-2005>
4.48452281951904

> <r_mmod_Van_der_Waal_Energy-OPLS-2005>
151.531234741211

> <r_mmod_Electrostatic_Energy-OPLS-2005>
-395.722229003906

> <r_mmod_Solvation_Energy-OPLS-2005>
-210.802398681641

> <b_mmod_Minimization_Converged-OPLS-2005>
0

> <r_mmod_RMS_Derivative-OPLS-2005>
3.41744327545166

$$$$
33
                    3D
 Structure written by MMmdl.
168176  0  0  1  0            999 V2000
  -30.6144  -14.6413   20.5294 C   0  0  0  0  0  0
  -30.4464  -12.4053   19.4476 C   0  0  0  0  0  0
  -29.5137  -12.5263   18.2209 C   0  0  0  0  0  0
  -28.0341  -12.3664   18.6266 C   0  0  0  0  0  0
  -27.6599  -13.2177   19.8695 C   0  0  2  0  0  0
  -28.7028  -13.0465   20.9962 C   0  0  0  0  0  0
  -25.2585  -13.8163   20.5659 C   0  0  0  0  0  0
  -24.1841  -13.0424   20.9147 C   0  0  0  0  0  0
  -24.6413  -11.6898   20.8717 C   0  0  0  0  0  0
  -23.9072  -10.4286   21.0380 C   0  0  0  0  0  0
  -24.3630   -9.4205   21.9161 C   0  0  0  0  0  0
  -23.6299   -8.2246   22.0748 C   0  0  0  0  0  0
  -22.4284   -8.0282   21.3540 C   0  0  0  0  0  0
  -21.9912   -9.0248   20.4641 C   0  0  0  0  0  0
  -22.7242  -10.2121   20.3034 C   0  0  0  0  0  0
  -21.6853   -6.0726   22.5268 C   0  0  0  0  0  0
  -21.4020   -6.5631   23.8203 C   0  0  0  0  0  0
  -21.3663   -5.6781   24.9163 C   0  0  0  0  0  0
  -21.6043   -4.3043   24.7203 C   0  0  0  0  0  0
  -21.8829   -3.8136   23.4328 C   0  0  0  0  0  0
  -21.9196   -4.6955   22.3387 C   0  0  0  0  0  0
  -22.7879  -13.5229   21.1799 C   0  0  0  0  0  0
  -22.1664   -4.2143   21.0962 F   0  0  0  0  0  0
  -21.5627   -3.4529   25.7719 F   0  0  0  0  0  0
  -30.0187  -13.4080   20.4445 N   0  0  0  0  0  0
  -26.3021  -12.9348   20.3321 N   0  0  0  0  0  0
  -25.9345  -11.6498   20.5736 N   0  0  0  0  0  0
  -22.0506  -12.8248   22.0371 N   0  0  0  0  0  0
  -25.4290  -15.1882   20.4092 N   0  0  0  0  0  0
  -31.7501  -14.8370   20.0849 O   0  0  0  0  0  0
  -21.6647   -6.8879   21.4236 O   0  0  0  0  0  0
  -22.3568  -14.5526   20.6629 O   0  0  0  0  0  0
  -24.6230  -31.8585   23.2016 C   0  0  0  0  0  0
  -25.9076  -32.4788   23.8332 C   0  0  1  0  0  0
  -27.2308  -27.3203   20.1157 C   0  0  0  0  0  0
  -25.5892  -33.8589   24.2240 N   0  0  0  0  0  0
  -23.4183  -30.4780   21.5465 C   0  0  2  0  0  0
  -24.8678  -28.9347   20.1147 C   0  0  0  0  0  0
  -22.7461  -29.4596   22.4980 C   0  0  0  0  0  0
  -18.0264  -28.1369   22.8490 C   0  0  0  0  0  0
  -24.1502  -36.7306   23.2638 C   0  0  0  0  0  0
  -25.9582  -30.7922   21.3701 C   0  0  0  0  0  0
  -26.0368  -29.4177   20.7163 C   0  0  0  0  0  0
  -27.2208  -28.6219   20.7061 C   0  0  0  0  0  0
  -26.0351  -26.8919   19.4921 C   0  0  0  0  0  0
  -24.8691  -27.6780   19.4949 C   0  0  0  0  0  0
  -23.6327  -29.8089   20.1634 C   0  0  0  0  0  0
  -25.4132  -36.3080   24.0306 C   0  0  1  0  0  0
  -20.5860  -28.3662   23.1322 C   0  0  2  0  0  0
  -20.6759  -26.9394   22.5428 C   0  0  0  0  0  0
  -19.5745  -26.6373   21.5218 C   0  0  0  0  0  0
  -18.1922  -26.7908   22.1631 C   0  0  0  0  0  0
  -19.1517  -28.8835   23.2893 C   0  0  0  0  0  0
  -18.9436  -30.1438   23.8898 C   0  0  0  0  0  0
  -17.6439  -30.6572   24.0557 C   0  0  0  0  0  0
  -25.9054  -34.9454   23.5078 C   0  0  0  0  0  0
  -16.5328  -29.9072   23.6327 C   0  0  0  0  0  0
  -16.7251  -28.6491   23.0348 C   0  0  0  0  0  0
  -26.4461  -31.6597   25.0706 C   0  0  0  0  0  0
  -25.3683  -31.3754   26.1428 C   0  0  0  0  0  0
  -27.0279  -30.3005   24.6158 C   0  0  0  0  0  0
  -27.6010  -32.4328   25.7495 C   0  0  0  0  0  0
  -27.5589  -37.1815   24.8454 C   0  0  0  0  0  0
  -21.4172  -29.3018   22.3736 N   0  0  0  0  0  0
  -26.4309  -37.3778   23.9384 N   0  0  0  0  0  0
  -24.6854  -31.0589   22.0970 N   0  0  0  0  0  0
  -23.4202  -28.8118   23.3029 O   0  0  0  0  0  0
  -28.3530  -26.4740   20.1700 O   0  0  0  0  0  0
  -26.5655  -34.8913   22.4664 O   0  0  0  0  0  0
  -23.5397  -32.1380   23.7349 O   0  0  0  0  0  0
  -30.0690  -17.8356   19.7451 C   0  0  0  0  0  0
  -30.0050  -19.2650   19.7144 C   0  0  0  0  0  0
  -29.6700  -17.8907   22.1120 C   0  0  0  0  0  0
  -29.9147  -17.1072   20.9541 C   0  0  0  0  0  0
  -29.7881  -20.0507   20.8811 C   0  0  0  0  0  0
  -29.6039  -19.3166   22.0991 C   0  0  0  0  0  0
  -27.2077  -23.4251   24.8449 C   0  0  0  0  0  0
  -29.2805  -24.6419   24.3739 C   0  0  0  0  0  0
  -29.2550  -23.9754   20.4164 C   0  0  0  0  0  0
  -28.9625  -22.4160   20.1944 C   0  0  0  0  0  0
  -29.2349  -22.1969   24.0679 C   0  0  0  0  0  0
  -28.1455  -25.0205   19.9605 C   0  0  0  0  0  0
  -28.5019  -20.9757   23.4736 C   0  0  0  0  0  0
  -29.8377  -15.6480   21.0390 N   0  0  0  0  0  0
  -29.9207  -21.4806   20.8607 N   0  0  0  0  0  0
  -28.4484  -23.4616   24.0348 N   0  3  0  0  0  0
  -29.4309  -19.9023   23.3379 O   0  0  0  0  0  0
  -31.4845  -12.5462   19.1445 H   0  0  0  0  0  0
  -30.3947  -11.4024   19.8748 H   0  0  0  0  0  0
  -29.7806  -11.7782   17.4732 H   0  0  0  0  0  0
  -29.6589  -13.4980   17.7452 H   0  0  0  0  0  0
  -27.8629  -11.3103   18.8344 H   0  0  0  0  0  0
  -27.3863  -12.6194   17.7862 H   0  0  0  0  0  0
  -27.6846  -14.2603   19.5530 H   0  0  0  0  0  0
  -28.7187  -12.0126   21.3443 H   0  0  0  0  0  0
  -28.4416  -13.6483   21.8670 H   0  0  0  0  0  0
  -25.2775   -9.5686   22.4740 H   0  0  0  0  0  0
  -23.9996   -7.4645   22.7482 H   0  0  0  0  0  0
  -21.0831   -8.8763   19.8965 H   0  0  0  0  0  0
  -22.3689  -10.9655   19.6146 H   0  0  0  0  0  0
  -21.2033   -7.6139   23.9706 H   0  0  0  0  0  0
  -21.1474   -6.0504   25.9062 H   0  0  0  0  0  0
  -22.0615   -2.7599   23.2818 H   0  0  0  0  0  0
  -22.4111  -11.9931   22.4815 H   0  0  0  0  0  0
  -21.1111  -13.1281   22.2527 H   0  0  0  0  0  0
  -24.6634  -15.8432   20.5224 H   0  0  0  0  0  0
  -26.2827  -15.6288   20.0906 H   0  0  0  0  0  0
  -26.7143  -32.5465   23.1080 H   0  0  0  0  0  0
  -24.9948  -33.9730   25.0319 H   0  0  0  0  0  0
  -22.7093  -31.2951   21.4013 H   0  0  0  0  0  0
  -23.3761  -35.9648   23.3303 H   0  0  0  0  0  0
  -24.3569  -36.8941   22.2053 H   0  0  0  0  0  0
  -23.7276  -37.6507   23.6681 H   0  0  0  0  0  0
  -26.0749  -31.5517   20.5957 H   0  0  0  0  0  0
  -26.8425  -30.8513   21.9924 H   0  0  0  0  0  0
  -28.1200  -28.9902   21.1803 H   0  0  0  0  0  0
  -25.9665  -25.9310   19.0055 H   0  0  0  0  0  0
  -23.9715  -27.3021   19.0228 H   0  0  0  0  0  0
  -23.7433  -30.5802   19.4000 H   0  0  0  0  0  0
  -22.7564  -29.2270   19.8712 H   0  0  0  0  0  0
  -25.1329  -36.1921   25.0804 H   0  0  0  0  0  0
  -20.9932  -28.3217   24.1450 H   0  0  0  0  0  0
  -20.5652  -26.2263   23.3611 H   0  0  0  0  0  0
  -21.6629  -26.7423   22.1222 H   0  0  0  0  0  0
  -19.6902  -25.6282   21.1250 H   0  0  0  0  0  0
  -19.6688  -27.3181   20.6748 H   0  0  0  0  0  0
  -17.4192  -26.6644   21.4037 H   0  0  0  0  0  0
  -18.0329  -26.0045   22.9027 H   0  0  0  0  0  0
  -19.7906  -30.7259   24.2282 H   0  0  0  0  0  0
  -17.4980  -31.6255   24.5151 H   0  0  0  0  0  0
  -15.5327  -30.2973   23.7635 H   0  0  0  0  0  0
  -15.8653  -28.0804   22.7071 H   0  0  0  0  0  0
  -24.5844  -30.7119   25.7756 H   0  0  0  0  0  0
  -24.8892  -32.2936   26.4840 H   0  0  0  0  0  0
  -25.7996  -30.8938   27.0207 H   0  0  0  0  0  0
  -26.2835  -29.6790   24.1171 H   0  0  0  0  0  0
  -27.3937  -29.7240   25.4662 H   0  0  0  0  0  0
  -27.8719  -30.4251   23.9371 H   0  0  0  0  0  0
  -27.2589  -33.3621   26.2053 H   0  0  0  0  0  0
  -28.3845  -32.6894   25.0357 H   0  0  0  0  0  0
  -28.0625  -31.8457   26.5437 H   0  0  0  0  0  0
  -28.2603  -38.0115   24.7506 H   0  0  0  0  0  0
  -28.1091  -36.2653   24.6290 H   0  0  0  0  0  0
  -27.2286  -37.1449   25.8847 H   0  0  0  0  0  0
  -20.9356  -29.8775   21.6974 H   0  0  0  0  0  0
  -26.0192  -38.2848   24.1407 H   0  0  0  0  0  0
  -30.2203  -17.3012   18.8176 H   0  0  0  0  0  0
  -30.1577  -19.7637   18.7692 H   0  0  0  0  0  0
  -29.5239  -17.3861   23.0569 H   0  0  0  0  0  0
  -26.6787  -24.3753   24.7757 H   0  0  0  0  0  0
  -27.4258  -23.2354   25.8953 H   0  0  0  0  0  0
  -26.5209  -22.6574   24.4929 H   0  0  0  0  0  0
  -30.1691  -24.6993   23.7440 H   0  0  0  0  0  0
  -29.6094  -24.6056   25.4138 H   0  0  0  0  0  0
  -28.7220  -25.5673   24.2292 H   0  0  0  0  0  0
  -30.1873  -24.2310   19.9106 H   0  0  0  0  0  0
  -29.4494  -24.1459   21.4723 H   0  0  0  0  0  0
  -28.9558  -22.2011   19.1241 H   0  0  0  0  0  0
  -27.9547  -22.1882   20.5424 H   0  0  0  0  0  0
  -30.1492  -22.3495   23.4928 H   0  0  0  0  0  0
  -29.5531  -21.9770   25.0878 H   0  0  0  0  0  0
  -27.2342  -24.7304   20.4855 H   0  0  0  0  0  0
  -27.9552  -24.8602   18.8987 H   0  0  0  0  0  0
  -27.9844  -21.2152   22.5493 H   0  0  0  0  0  0
  -27.7192  -20.6441   24.1559 H   0  0  0  0  0  0
  -29.0152  -15.3030   21.5097 H   0  0  0  0  0  0
  -30.8834  -21.7480   20.6698 H   0  0  0  0  0  0
  -28.1566  -23.5957   23.0782 H   0  0  0  0  0  0
  1 25  1  0  0  0
  1 30  2  0  0  0
  1 84  1  0  0  0
  2  3  1  0  0  0
  2 25  1  0  0  0
  2 88  1  0  0  0
  2 89  1  0  0  0
  3  4  1  0  0  0
  3 90  1  0  0  0
  3 91  1  0  0  0
  4  5  1  0  0  0
  4 92  1  0  0  0
  4 93  1  0  0  0
  5  6  1  0  0  0
  5 26  1  0  0  0
  5 94  1  0  0  0
  6 25  1  0  0  0
  6 95  1  0  0  0
  6 96  1  0  0  0
  7  8  2  0  0  0
  7 26  1  0  0  0
  7 29  1  0  0  0
  8  9  1  0  0  0
  8 22  1  0  0  0
  9 10  1  0  0  0
  9 27  2  0  0  0
 10 11  2  0  0  0
 10 15  1  0  0  0
 11 12  1  0  0  0
 11 97  1  0  0  0
 12 13  2  0  0  0
 12 98  1  0  0  0
 13 14  1  0  0  0
 13 31  1  0  0  0
 14 15  2  0  0  0
 14 99  1  0  0  0
 15100  1  0  0  0
 16 17  2  0  0  0
 16 21  1  0  0  0
 16 31  1  0  0  0
 17 18  1  0  0  0
 17101  1  0  0  0
 18 19  2  0  0  0
 18102  1  0  0  0
 19 20  1  0  0  0
 19 24  1  0  0  0
 20 21  2  0  0  0
 20103  1  0  0  0
 21 23  1  0  0  0
 22 28  1  0  0  0
 22 32  2  0  0  0
 26 27  1  0  0  0
 28104  1  0  0  0
 28105  1  0  0  0
 29106  1  0  0  0
 29107  1  0  0  0
 33 34  1  0  0  0
 33 66  1  0  0  0
 33 70  2  0  0  0
 34 36  1  0  0  0
 34 59  1  0  0  0
 34108  1  0  0  0
 35 44  2  0  0  0
 35 45  1  0  0  0
 35 68  1  0  0  0
 36 56  1  0  0  0
 36109  1  0  0  0
 37 39  1  0  0  0
 37 47  1  0  0  0
 37 66  1  0  0  0
 37110  1  0  0  0
 38 43  2  0  0  0
 38 46  1  0  0  0
 38 47  1  0  0  0
 39 64  1  0  0  0
 39 67  2  0  0  0
 40 52  1  0  0  0
 40 53  2  0  0  0
 40 58  1  0  0  0
 41111  1  0  0  0
 41112  1  0  0  0
 41113  1  0  0  0
 41 48  1  0  0  0
 42 43  1  0  0  0
 42 66  1  0  0  0
 42114  1  0  0  0
 42115  1  0  0  0
 43 44  1  0  0  0
 44116  1  0  0  0
 45 46  2  0  0  0
 45117  1  0  0  0
 46118  1  0  0  0
 47119  1  0  0  0
 47120  1  0  0  0
 48 56  1  0  0  0
 48 65  1  0  0  0
 48121  1  0  0  0
 49 50  1  0  0  0
 49 53  1  0  0  0
 49 64  1  0  0  0
 49122  1  0  0  0
 50 51  1  0  0  0
 50123  1  0  0  0
 50124  1  0  0  0
 51 52  1  0  0  0
 51125  1  0  0  0
 51126  1  0  0  0
 52127  1  0  0  0
 52128  1  0  0  0
 53 54  1  0  0  0
 54 55  2  0  0  0
 54129  1  0  0  0
 55 57  1  0  0  0
 55130  1  0  0  0
 56 69  2  0  0  0
 57 58  2  0  0  0
 57131  1  0  0  0
 58132  1  0  0  0
 59 60  1  0  0  0
 59 61  1  0  0  0
 59 62  1  0  0  0
 60133  1  0  0  0
 60134  1  0  0  0
 60135  1  0  0  0
 61136  1  0  0  0
 61137  1  0  0  0
 61138  1  0  0  0
 62139  1  0  0  0
 62140  1  0  0  0
 62141  1  0  0  0
 63 65  1  0  0  0
 63142  1  0  0  0
 63143  1  0  0  0
 63144  1  0  0  0
 64145  1  0  0  0
 65146  1  0  0  0
 68 82  1  0  0  0
 71 72  2  0  0  0
 71 74  1  0  0  0
 71147  1  0  0  0
 72 75  1  0  0  0
 72148  1  0  0  0
 73 74  2  0  0  0
 73 76  1  0  0  0
 73149  1  0  0  0
 74 84  1  0  0  0
 75 76  2  0  0  0
 75 85  1  0  0  0
 76 87  1  0  0  0
 77150  1  0  0  0
 77151  1  0  0  0
 77152  1  0  0  0
 77 86  1  0  0  0
 78 86  1  0  0  0
 78153  1  0  0  0
 78154  1  0  0  0
 78155  1  0  0  0
 79 80  1  0  0  0
 79 82  1  0  0  0
 79156  1  0  0  0
 79157  1  0  0  0
 80 85  1  0  0  0
 80158  1  0  0  0
 80159  1  0  0  0
 81 83  1  0  0  0
 81 86  1  0  0  0
 81160  1  0  0  0
 81161  1  0  0  0
 82162  1  0  0  0
 82163  1  0  0  0
 83 87  1  0  0  0
 83164  1  0  0  0
 83165  1  0  0  0
 84166  1  0  0  0
 85167  1  0  0  0
 86168  1  0  0  0
M  CHG  1  86   1
M  ISO  4   1 100  68 101  82 101  84 100
M  END
> <chiral flag>
0

> <version>
0

> <s_m_source_file>
/data/baiqing/PycharmProjects/Reinvent-master-3.2/result/LINK_invent/BTK/process_docking_weight1_custom_sum_contain_oxygen_bond_distance_aromatic_linkinvent_7_9_3/rearranged_h_0008.sdf

> <i_m_source_file_index>
34

> <r_mmod_Potential_Energy-OPLS-2005>
-14.1751613616943

> <r_mmod_Stretch_Energy-OPLS-2005>
81.3560104370117

> <r_mmod_Bend_Energy-OPLS-2005>
152.138977050781

> <r_mmod_Torsional_Energy-OPLS-2005>
272.600128173828

> <r_mmod_Improper_Torsional_Energy-OPLS-2005>
8.16393756866455

> <r_mmod_Van_der_Waal_Energy-OPLS-2005>
141.016586303711

> <r_mmod_Electrostatic_Energy-OPLS-2005>
-289.133392333984

> <r_mmod_Solvation_Energy-OPLS-2005>
-427.878540039062

> <b_mmod_Minimization_Converged-OPLS-2005>
0

> <r_mmod_RMS_Derivative-OPLS-2005>
2.72892212867737

$$$$
34
                    3D
 Structure written by MMmdl.
154162  0  0  1  0            999 V2000
  -30.5214  -14.9116   20.4378 C   0  0  0  0  0  0
  -30.4544  -12.5629   19.4923 C   0  0  0  0  0  0
  -29.5253  -12.5336   18.2542 C   0  0  0  0  0  0
  -28.0558  -12.3232   18.6698 C   0  0  0  0  0  0
  -27.6390  -13.2392   19.8492 C   0  0  2  0  0  0
  -28.6845  -13.2173   20.9861 C   0  0  0  0  0  0
  -25.2461  -13.8169   20.5614 C   0  0  0  0  0  0
  -24.1792  -13.0421   20.9224 C   0  0  0  0  0  0
  -24.6408  -11.6909   20.8781 C   0  0  0  0  0  0
  -23.9085  -10.4287   21.0428 C   0  0  0  0  0  0
  -24.3629   -9.4194   21.9199 C   0  0  0  0  0  0
  -23.6294   -8.2234   22.0758 C   0  0  0  0  0  0
  -22.4275   -8.0284   21.3550 C   0  0  0  0  0  0
  -21.9921   -9.0263   20.4653 C   0  0  0  0  0  0
  -22.7261  -10.2137   20.3071 C   0  0  0  0  0  0
  -21.6850   -6.0735   22.5285 C   0  0  0  0  0  0
  -21.4014   -6.5638   23.8220 C   0  0  0  0  0  0
  -21.3660   -5.6790   24.9181 C   0  0  0  0  0  0
  -21.6044   -4.3053   24.7232 C   0  0  0  0  0  0
  -21.8816   -3.8146   23.4352 C   0  0  0  0  0  0
  -21.9190   -4.6962   22.3408 C   0  0  0  0  0  0
  -22.7816  -13.5210   21.1877 C   0  0  0  0  0  0
  -22.1657   -4.2148   21.0985 F   0  0  0  0  0  0
  -21.5628   -3.4539   25.7742 F   0  0  0  0  0  0
  -29.9695  -13.6343   20.4042 N   0  0  0  0  0  0
  -26.2924  -12.9408   20.3266 N   0  0  0  0  0  0
  -25.9347  -11.6550   20.5783 N   0  0  0  0  0  0
  -22.0459  -12.8211   22.0440 N   0  0  0  0  0  0
  -25.4023  -15.1867   20.3812 N   0  0  0  0  0  0
  -31.7087  -15.0350   20.1177 O   0  0  0  0  0  0
  -21.6638   -6.8881   21.4245 O   0  0  0  0  0  0
  -22.3505  -14.5515   20.6711 O   0  0  0  0  0  0
  -24.6426  -31.8458   23.1899 C   0  0  0  0  0  0
  -25.9204  -32.4703   23.8283 C   0  0  1  0  0  0
  -27.2180  -27.1525   20.1451 C   0  0  0  0  0  0
  -25.5954  -33.8508   24.2203 N   0  0  0  0  0  0
  -23.4452  -30.4671   21.5348 C   0  0  2  0  0  0
  -24.8942  -28.8985   20.1105 C   0  0  0  0  0  0
  -22.7565  -29.4557   22.4852 C   0  0  0  0  0  0
  -18.0306  -28.1393   22.8472 C   0  0  0  0  0  0
  -24.1491  -36.7262   23.2642 C   0  0  0  0  0  0
  -26.0010  -30.7252   21.3866 C   0  0  0  0  0  0
  -26.0723  -29.3382   20.7273 C   0  0  0  0  0  0
  -27.2358  -28.4822   20.7265 C   0  0  0  0  0  0
  -26.0104  -26.8120   19.4934 C   0  0  0  0  0  0
  -24.8755  -27.6480   19.4784 C   0  0  0  0  0  0
  -23.6711  -29.7997   20.1529 C   0  0  0  0  0  0
  -25.4120  -36.3033   24.0317 C   0  0  1  0  0  0
  -20.5919  -28.3720   23.1230 C   0  0  2  0  0  0
  -20.6785  -26.9422   22.5398 C   0  0  0  0  0  0
  -19.5758  -26.6379   21.5205 C   0  0  0  0  0  0
  -18.1943  -26.7931   22.1621 C   0  0  0  0  0  0
  -19.1562  -28.8873   23.2847 C   0  0  0  0  0  0
  -18.9480  -30.1470   23.8875 C   0  0  0  0  0  0
  -17.6475  -30.6587   24.0560 C   0  0  0  0  0  0
  -25.9069  -34.9409   23.5066 C   0  0  0  0  0  0
  -16.5368  -29.9082   23.6333 C   0  0  0  0  0  0
  -16.7290  -28.6502   23.0350 C   0  0  0  0  0  0
  -26.4526  -31.6565   25.0720 C   0  0  0  0  0  0
  -25.3720  -31.3751   26.1423 C   0  0  0  0  0  0
  -27.0395  -30.2962   24.6300 C   0  0  0  0  0  0
  -27.6052  -32.4334   25.7510 C   0  0  0  0  0  0
  -27.5574  -37.1787   24.8465 C   0  0  0  0  0  0
  -21.4259  -29.3054   22.3605 N   0  0  0  0  0  0
  -26.4281  -37.3746   23.9409 N   0  0  0  0  0  0
  -24.7160  -31.0331   22.0924 N   0  0  0  0  0  0
  -23.4214  -28.8100   23.2993 O   0  0  0  0  0  0
  -28.2757  -26.1750   20.2068 O   0  0  0  0  0  0
  -26.5654  -34.8903   22.4644 O   0  0  0  0  0  0
  -23.5547  -32.1324   23.7127 O   0  0  0  0  0  0
  -28.1193  -19.5690   21.2017 C   0  0  0  0  0  0
  -30.0554  -19.9649   19.9379 C   0  0  0  0  0  0
  -28.4125  -18.1560   21.2649 C   0  0  0  0  0  0
  -30.3664  -18.5266   19.9696 C   0  0  0  0  0  0
  -29.5456  -17.5318   20.6345 C   0  0  0  0  0  0
  -28.8951  -20.5659   20.5411 C   0  0  0  0  0  0
  -27.4318  -17.3231   22.0794 C   0  0  0  0  0  0
  -31.6116  -18.0713   19.2361 C   0  0  0  0  0  0
  -27.9652  -24.6537   20.1308 C   0  0  0  0  0  0
  -28.9729  -23.3129   20.2760 C   0  0  0  0  0  0
  -29.6535  -15.9987   20.6975 N   0  0  0  0  0  0
  -28.3661  -21.9309   20.5295 O   0  0  0  0  0  0
  -31.4858  -12.7351   19.1798 H   0  0  0  0  0  0
  -30.4543  -11.5982   20.0018 H   0  0  0  0  0  0
  -29.8349  -11.7462   17.5658 H   0  0  0  0  0  0
  -29.6198  -13.4724   17.7063 H   0  0  0  0  0  0
  -27.9432  -11.2783   18.9605 H   0  0  0  0  0  0
  -27.3941  -12.4758   17.8163 H   0  0  0  0  0  0
  -27.6167  -14.2509   19.4445 H   0  0  0  0  0  0
  -28.7621  -12.2213   21.4241 H   0  0  0  0  0  0
  -28.3893  -13.8824   21.7986 H   0  0  0  0  0  0
  -25.2769   -9.5660   22.4781 H   0  0  0  0  0  0
  -23.9996   -7.4619   22.7470 H   0  0  0  0  0  0
  -21.0854   -8.8799   19.8956 H   0  0  0  0  0  0
  -22.3729  -10.9685   19.6186 H   0  0  0  0  0  0
  -21.2009   -7.6146   23.9728 H   0  0  0  0  0  0
  -21.1482   -6.0516   25.9085 H   0  0  0  0  0  0
  -22.0591   -2.7608   23.2856 H   0  0  0  0  0  0
  -22.4076  -11.9881   22.4841 H   0  0  0  0  0  0
  -21.1082  -13.1253   22.2651 H   0  0  0  0  0  0
  -24.6033  -15.8090   20.4313 H   0  0  0  0  0  0
  -26.2012  -15.6097   19.9282 H   0  0  0  0  0  0
  -26.7274  -32.5314   23.1018 H   0  0  0  0  0  0
  -25.0079  -33.9623   25.0333 H   0  0  0  0  0  0
  -22.7470  -31.2927   21.3821 H   0  0  0  0  0  0
  -23.3750  -35.9597   23.3291 H   0  0  0  0  0  0
  -24.3579  -36.8907   22.2060 H   0  0  0  0  0  0
  -23.7250  -37.6456   23.6687 H   0  0  0  0  0  0
  -26.1561  -31.4812   20.6154 H   0  0  0  0  0  0
  -26.8719  -30.7735   22.0287 H   0  0  0  0  0  0
  -28.1337  -28.8152   21.2278 H   0  0  0  0  0  0
  -25.9002  -25.8616   18.9967 H   0  0  0  0  0  0
  -23.9770  -27.3069   18.9825 H   0  0  0  0  0  0
  -23.8089  -30.5760   19.3991 H   0  0  0  0  0  0
  -22.7859  -29.2432   19.8400 H   0  0  0  0  0  0
  -25.1305  -36.1862   25.0808 H   0  0  0  0  0  0
  -21.0014  -28.3309   24.1351 H   0  0  0  0  0  0
  -20.5663  -26.2337   23.3619 H   0  0  0  0  0  0
  -21.6652  -26.7413   22.1207 H   0  0  0  0  0  0
  -19.6914  -25.6285   21.1250 H   0  0  0  0  0  0
  -19.6690  -27.3175   20.6724 H   0  0  0  0  0  0
  -17.4206  -26.6671   21.4033 H   0  0  0  0  0  0
  -18.0347  -26.0082   22.9027 H   0  0  0  0  0  0
  -19.7957  -30.7292   24.2233 H   0  0  0  0  0  0
  -17.5029  -31.6263   24.5169 H   0  0  0  0  0  0
  -15.5367  -30.2974   23.7667 H   0  0  0  0  0  0
  -15.8694  -28.0813   22.7070 H   0  0  0  0  0  0
  -24.5889  -30.7111   25.7746 H   0  0  0  0  0  0
  -24.8924  -32.2935   26.4817 H   0  0  0  0  0  0
  -25.8009  -30.8940   27.0222 H   0  0  0  0  0  0
  -26.3016  -29.6681   24.1298 H   0  0  0  0  0  0
  -27.4000  -29.7262   25.4874 H   0  0  0  0  0  0
  -27.8925  -30.4198   23.9624 H   0  0  0  0  0  0
  -27.2632  -33.3641   26.2049 H   0  0  0  0  0  0
  -28.3885  -32.6888   25.0360 H   0  0  0  0  0  0
  -28.0701  -31.8492   26.5463 H   0  0  0  0  0  0
  -28.2580  -38.0093   24.7504 H   0  0  0  0  0  0
  -28.1078  -36.2620   24.6292 H   0  0  0  0  0  0
  -27.2294  -37.1437   25.8868 H   0  0  0  0  0  0
  -20.9460  -29.8792   21.6812 H   0  0  0  0  0  0
  -26.0148  -38.2812   24.1410 H   0  0  0  0  0  0
  -27.2225  -19.9117   21.6988 H   0  0  0  0  0  0
  -30.7203  -20.6211   19.3945 H   0  0  0  0  0  0
  -26.4105  -17.6666   21.9138 H   0  0  0  0  0  0
  -27.6505  -17.4304   23.1420 H   0  0  0  0  0  0
  -27.4464  -16.2618   21.8444 H   0  0  0  0  0  0
  -32.0686  -18.8849   18.6729 H   0  0  0  0  0  0
  -31.3712  -17.2746   18.5321 H   0  0  0  0  0  0
  -32.3509  -17.6972   19.9448 H   0  0  0  0  0  0
  -27.1858  -24.5043   20.8786 H   0  0  0  0  0  0
  -27.4744  -24.4917   19.1729 H   0  0  0  0  0  0
  -29.6541  -23.4987   21.1062 H   0  0  0  0  0  0
  -29.6043  -23.2509   19.3898 H   0  0  0  0  0  0
  -28.7790  -15.6047   21.0051 H   0  0  0  0  0  0
  1 25  1  0  0  0
  1 30  2  0  0  0
  1 81  1  0  0  0
  2  3  1  0  0  0
  2 25  1  0  0  0
  2 83  1  0  0  0
  2 84  1  0  0  0
  3  4  1  0  0  0
  3 85  1  0  0  0
  3 86  1  0  0  0
  4  5  1  0  0  0
  4 87  1  0  0  0
  4 88  1  0  0  0
  5  6  1  0  0  0
  5 26  1  0  0  0
  5 89  1  0  0  0
  6 25  1  0  0  0
  6 90  1  0  0  0
  6 91  1  0  0  0
  7  8  2  0  0  0
  7 26  1  0  0  0
  7 29  1  0  0  0
  8  9  1  0  0  0
  8 22  1  0  0  0
  9 10  1  0  0  0
  9 27  2  0  0  0
 10 11  2  0  0  0
 10 15  1  0  0  0
 11 12  1  0  0  0
 11 92  1  0  0  0
 12 13  2  0  0  0
 12 93  1  0  0  0
 13 14  1  0  0  0
 13 31  1  0  0  0
 14 15  2  0  0  0
 14 94  1  0  0  0
 15 95  1  0  0  0
 16 17  2  0  0  0
 16 21  1  0  0  0
 16 31  1  0  0  0
 17 18  1  0  0  0
 17 96  1  0  0  0
 18 19  2  0  0  0
 18 97  1  0  0  0
 19 20  1  0  0  0
 19 24  1  0  0  0
 20 21  2  0  0  0
 20 98  1  0  0  0
 21 23  1  0  0  0
 22 28  1  0  0  0
 22 32  2  0  0  0
 26 27  1  0  0  0
 28 99  1  0  0  0
 28100  1  0  0  0
 29101  1  0  0  0
 29102  1  0  0  0
 33 34  1  0  0  0
 33 66  1  0  0  0
 33 70  2  0  0  0
 34 36  1  0  0  0
 34 59  1  0  0  0
 34103  1  0  0  0
 35 44  2  0  0  0
 35 45  1  0  0  0
 35 68  1  0  0  0
 36 56  1  0  0  0
 36104  1  0  0  0
 37 39  1  0  0  0
 37 47  1  0  0  0
 37 66  1  0  0  0
 37105  1  0  0  0
 38 43  2  0  0  0
 38 46  1  0  0  0
 38 47  1  0  0  0
 39 64  1  0  0  0
 39 67  2  0  0  0
 40 52  1  0  0  0
 40 53  2  0  0  0
 40 58  1  0  0  0
 41106  1  0  0  0
 41107  1  0  0  0
 41108  1  0  0  0
 41 48  1  0  0  0
 42 43  1  0  0  0
 42 66  1  0  0  0
 42109  1  0  0  0
 42110  1  0  0  0
 43 44  1  0  0  0
 44111  1  0  0  0
 45 46  2  0  0  0
 45112  1  0  0  0
 46113  1  0  0  0
 47114  1  0  0  0
 47115  1  0  0  0
 48 56  1  0  0  0
 48 65  1  0  0  0
 48116  1  0  0  0
 49 50  1  0  0  0
 49 53  1  0  0  0
 49 64  1  0  0  0
 49117  1  0  0  0
 50 51  1  0  0  0
 50118  1  0  0  0
 50119  1  0  0  0
 51 52  1  0  0  0
 51120  1  0  0  0
 51121  1  0  0  0
 52122  1  0  0  0
 52123  1  0  0  0
 53 54  1  0  0  0
 54 55  2  0  0  0
 54124  1  0  0  0
 55 57  1  0  0  0
 55125  1  0  0  0
 56 69  2  0  0  0
 57 58  2  0  0  0
 57126  1  0  0  0
 58127  1  0  0  0
 59 60  1  0  0  0
 59 61  1  0  0  0
 59 62  1  0  0  0
 60128  1  0  0  0
 60129  1  0  0  0
 60130  1  0  0  0
 61131  1  0  0  0
 61132  1  0  0  0
 61133  1  0  0  0
 62134  1  0  0  0
 62135  1  0  0  0
 62136  1  0  0  0
 63 65  1  0  0  0
 63137  1  0  0  0
 63138  1  0  0  0
 63139  1  0  0  0
 64140  1  0  0  0
 65141  1  0  0  0
 68 79  1  0  0  0
 71 73  2  0  0  0
 71 76  1  0  0  0
 71142  1  0  0  0
 72 74  1  0  0  0
 72 76  2  0  0  0
 72143  1  0  0  0
 73 75  1  0  0  0
 73 77  1  0  0  0
 74 75  2  0  0  0
 74 78  1  0  0  0
 75 81  1  0  0  0
 76 82  1  0  0  0
 77144  1  0  0  0
 77145  1  0  0  0
 77146  1  0  0  0
 78147  1  0  0  0
 78148  1  0  0  0
 78149  1  0  0  0
 79 80  1  0  0  0
 79150  1  0  0  0
 79151  1  0  0  0
 80 82  1  0  0  0
 80152  1  0  0  0
 80153  1  0  0  0
 81154  1  0  0  0
M  ISO  4   1 100  68 101  79 101  81 100
M  END
> <chiral flag>
0

> <version>
0

> <s_m_source_file>
/data/baiqing/PycharmProjects/Reinvent-master-3.2/result/LINK_invent/BTK/process_docking_weight1_custom_sum_contain_oxygen_bond_distance_aromatic_linkinvent_7_9_3/rearranged_h_0008.sdf

> <i_m_source_file_index>
35

> <r_mmod_Potential_Energy-OPLS-2005>
440.882080078125

> <r_mmod_Stretch_Energy-OPLS-2005>
219.512252807617

> <r_mmod_Bend_Energy-OPLS-2005>
306.338348388672

> <r_mmod_Torsional_Energy-OPLS-2005>
217.69140625

> <r_mmod_Improper_Torsional_Energy-OPLS-2005>
4.4046368598938

> <r_mmod_Van_der_Waal_Energy-OPLS-2005>
133.55078125

> <r_mmod_Electrostatic_Energy-OPLS-2005>
-406.874145507812

> <r_mmod_Solvation_Energy-OPLS-2005>
-205.703887939453

> <b_mmod_Minimization_Converged-OPLS-2005>
0

> <r_mmod_RMS_Derivative-OPLS-2005>
0.886530339717865

$$$$
35
                    3D
 Structure written by MMmdl.
169177  0  0  1  0            999 V2000
  -30.7183  -14.4024   20.6419 C   0  0  0  0  0  0
  -30.4235  -12.2928   19.3934 C   0  0  0  0  0  0
  -29.4857  -12.5269   18.1895 C   0  0  0  0  0  0
  -28.0070  -12.3946   18.6011 C   0  0  0  0  0  0
  -27.6673  -13.2042   19.8781 C   0  0  2  0  0  0
  -28.7059  -12.9265   20.9892 C   0  0  0  0  0  0
  -25.2576  -13.8132   20.5590 C   0  0  0  0  0  0
  -24.1829  -13.0408   20.9118 C   0  0  0  0  0  0
  -24.6396  -11.6878   20.8699 C   0  0  0  0  0  0
  -23.9039  -10.4270   21.0377 C   0  0  0  0  0  0
  -24.3592   -9.4188   21.9157 C   0  0  0  0  0  0
  -23.6284   -8.2219   22.0741 C   0  0  0  0  0  0
  -22.4256   -8.0262   21.3543 C   0  0  0  0  0  0
  -21.9888   -9.0217   20.4648 C   0  0  0  0  0  0
  -22.7206  -10.2113   20.3041 C   0  0  0  0  0  0
  -21.6842   -6.0736   22.5289 C   0  0  0  0  0  0
  -21.4011   -6.5645   23.8225 C   0  0  0  0  0  0
  -21.3656   -5.6801   24.9192 C   0  0  0  0  0  0
  -21.6051   -4.3064   24.7220 C   0  0  0  0  0  0
  -21.8814   -3.8148   23.4344 C   0  0  0  0  0  0
  -21.9181   -4.6970   22.3406 C   0  0  0  0  0  0
  -22.7868  -13.5225   21.1787 C   0  0  0  0  0  0
  -22.1638   -4.2179   21.0978 F   0  0  0  0  0  0
  -21.5622   -3.4551   25.7734 F   0  0  0  0  0  0
  -30.0526  -13.2305   20.4647 N   0  0  0  0  0  0
  -26.3033  -12.9314   20.3322 N   0  0  0  0  0  0
  -25.9321  -11.6463   20.5735 N   0  0  0  0  0  0
  -22.0503  -12.8250   22.0394 N   0  0  0  0  0  0
  -25.4275  -15.1845   20.3944 N   0  0  0  0  0  0
  -31.7501  -14.6989   20.0288 O   0  0  0  0  0  0
  -21.6601   -6.8882   21.4254 O   0  0  0  0  0  0
  -22.3526  -14.5506   20.6662 O   0  0  0  0  0  0
  -24.6114  -31.8774   23.2112 C   0  0  0  0  0  0
  -25.9001  -32.4877   23.8459 C   0  0  1  0  0  0
  -27.2634  -27.4973   20.0911 C   0  0  0  0  0  0
  -25.5903  -33.8693   24.2422 N   0  0  0  0  0  0
  -23.4010  -30.4997   21.5510 C   0  0  2  0  0  0
  -24.8540  -28.9835   20.1102 C   0  0  0  0  0  0
  -22.7443  -29.4684   22.4983 C   0  0  0  0  0  0
  -18.0285  -28.1375   22.8525 C   0  0  0  0  0  0
  -24.1488  -36.7291   23.2627 C   0  0  0  0  0  0
  -25.9253  -30.8688   21.3549 C   0  0  0  0  0  0
  -26.0085  -29.5034   20.7074 C   0  0  0  0  0  0
  -27.2137  -28.7685   20.6977 C   0  0  0  0  0  0
  -26.0932  -27.0062   19.4540 C   0  0  0  0  0  0
  -24.8898  -27.7305   19.4769 C   0  0  0  0  0  0
  -23.6082  -29.8366   20.1627 C   0  0  0  0  0  0
  -25.4096  -36.3145   24.0343 C   0  0  1  0  0  0
  -20.5893  -28.3667   23.1318 C   0  0  2  0  0  0
  -20.6789  -26.9389   22.5441 C   0  0  0  0  0  0
  -19.5723  -26.6374   21.5283 C   0  0  0  0  0  0
  -18.1900  -26.7932   22.1677 C   0  0  0  0  0  0
  -19.1544  -28.8832   23.2935 C   0  0  0  0  0  0
  -18.9464  -30.1464   23.8901 C   0  0  0  0  0  0
  -17.6448  -30.6566   24.0588 C   0  0  0  0  0  0
  -25.9034  -34.9506   23.5167 C   0  0  0  0  0  0
  -16.5344  -29.9071   23.6305 C   0  0  0  0  0  0
  -16.7282  -28.6501   23.0322 C   0  0  0  0  0  0
  -26.4469  -31.6562   25.0706 C   0  0  0  0  0  0
  -25.3756  -31.3593   26.1451 C   0  0  0  0  0  0
  -27.0258  -30.3033   24.5940 C   0  0  0  0  0  0
  -27.6085  -32.4223   25.7452 C   0  0  0  0  0  0
  -27.5561  -37.1797   24.8474 C   0  0  0  0  0  0
  -21.4171  -29.3049   22.3725 N   0  0  0  0  0  0
  -26.4281  -37.3816   23.9419 N   0  0  0  0  0  0
  -24.6641  -31.0955   22.0971 N   0  0  0  0  0  0
  -23.4229  -28.8194   23.2990 O   0  0  0  0  0  0
  -28.4407  -26.7712   20.1526 O   0  0  0  0  0  0
  -26.5597  -34.8921   22.4726 O   0  0  0  0  0  0
  -23.5310  -32.1483   23.7528 O   0  0  0  0  0  0
  -30.2067  -17.3947   20.3945 C   0  0  0  0  0  0
  -28.8251  -18.5335   22.5504 C   0  0  0  0  0  0
  -29.7786  -18.7382   20.3126 C   0  0  0  0  0  0
  -29.2161  -17.1791   22.6091 C   0  0  0  0  0  0
  -29.9085  -16.5942   21.5242 C   0  0  0  0  0  0
  -29.0790  -19.3273   21.4037 C   0  0  0  0  0  0
  -29.2580  -21.7788   21.2109 C   0  0  0  0  0  0
  -30.0358  -19.4799   19.0093 C   0  0  0  0  0  0
  -28.8555  -16.3488   23.8335 C   0  0  0  0  0  0
  -24.8356  -20.3520   20.1816 C   0  0  0  0  0  0
  -28.5171  -23.0912   20.9075 C   0  0  0  0  0  0
  -26.3039  -20.7780   20.0889 C   0  0  0  0  0  0
  -29.2589  -24.4448   20.7934 C   0  0  0  0  0  0
  -27.0255  -20.6760   21.4489 C   0  0  0  0  0  0
  -28.2737  -25.3623   20.0452 C   0  0  0  0  0  0
  -30.1918  -15.1970   21.5876 N   0  0  0  0  0  0
  -28.5022  -20.6403   21.3297 N   0  0  0  0  0  0
  -30.4881  -21.7969   21.3101 O   0  0  0  0  0  0
  -31.4692  -12.3934   19.0932 H   0  0  0  0  0  0
  -30.3280  -11.2681   19.7538 H   0  0  0  0  0  0
  -29.7113  -11.8201   17.3903 H   0  0  0  0  0  0
  -29.6697  -13.5165   17.7666 H   0  0  0  0  0  0
  -27.8011  -11.3384   18.7670 H   0  0  0  0  0  0
  -27.3561  -12.7012   17.7807 H   0  0  0  0  0  0
  -27.7259  -14.2600   19.6081 H   0  0  0  0  0  0
  -28.6679  -11.8762   21.2828 H   0  0  0  0  0  0
  -28.4473  -13.4804   21.8910 H   0  0  0  0  0  0
  -25.2723   -9.5697   22.4744 H   0  0  0  0  0  0
  -23.9998   -7.4624   22.7475 H   0  0  0  0  0  0
  -21.0802   -8.8723   19.8993 H   0  0  0  0  0  0
  -22.3609  -10.9642   19.6177 H   0  0  0  0  0  0
  -21.2007   -7.6156   23.9742 H   0  0  0  0  0  0
  -21.1486   -6.0529   25.9109 H   0  0  0  0  0  0
  -22.0600   -2.7617   23.2827 H   0  0  0  0  0  0
  -22.4072  -11.9922   22.4801 H   0  0  0  0  0  0
  -21.1155  -13.1392   22.2532 H   0  0  0  0  0  0
  -24.6579  -15.8392   20.4837 H   0  0  0  0  0  0
  -26.2922  -15.6288   20.1107 H   0  0  0  0  0  0
  -26.7102  -32.5638   23.1294 H   0  0  0  0  0  0
  -25.0176  -33.9974   25.0640 H   0  0  0  0  0  0
  -22.6856  -31.3132   21.4106 H   0  0  0  0  0  0
  -23.3774  -35.9605   23.3334 H   0  0  0  0  0  0
  -24.3560  -36.8846   22.2023 H   0  0  0  0  0  0
  -23.7212  -37.6483   23.6630 H   0  0  0  0  0  0
  -26.0325  -31.6361   20.5846 H   0  0  0  0  0  0
  -26.8168  -30.9323   21.9662 H   0  0  0  0  0  0
  -28.1016  -29.1756   21.1670 H   0  0  0  0  0  0
  -26.0963  -26.0618   18.9281 H   0  0  0  0  0  0
  -24.0105  -27.3332   18.9895 H   0  0  0  0  0  0
  -23.7044  -30.6166   19.4065 H   0  0  0  0  0  0
  -22.7372  -29.2497   19.8630 H   0  0  0  0  0  0
  -25.1263  -36.2055   25.0840 H   0  0  0  0  0  0
  -21.0077  -28.3300   24.1409 H   0  0  0  0  0  0
  -20.5766  -26.2305   23.3674 H   0  0  0  0  0  0
  -21.6641  -26.7468   22.1176 H   0  0  0  0  0  0
  -19.6891  -25.6314   21.1239 H   0  0  0  0  0  0
  -19.6603  -27.3272   20.6881 H   0  0  0  0  0  0
  -17.4206  -26.6755   21.4034 H   0  0  0  0  0  0
  -18.0190  -26.0059   22.9027 H   0  0  0  0  0  0
  -19.7946  -30.7321   24.2223 H   0  0  0  0  0  0
  -17.4989  -31.6229   24.5246 H   0  0  0  0  0  0
  -15.5350  -30.2975   23.7579 H   0  0  0  0  0  0
  -15.8710  -28.0848   22.6948 H   0  0  0  0  0  0
  -24.6038  -30.6818   25.7776 H   0  0  0  0  0  0
  -24.8781  -32.2684   26.4839 H   0  0  0  0  0  0
  -25.8105  -30.8816   27.0249 H   0  0  0  0  0  0
  -26.2730  -29.6827   24.1055 H   0  0  0  0  0  0
  -27.4169  -29.7193   25.4296 H   0  0  0  0  0  0
  -27.8522  -30.4359   23.8942 H   0  0  0  0  0  0
  -27.2788  -33.3582   26.1969 H   0  0  0  0  0  0
  -28.3892  -32.6678   25.0239 H   0  0  0  0  0  0
  -28.0758  -31.8346   26.5374 H   0  0  0  0  0  0
  -28.2622  -38.0072   24.7516 H   0  0  0  0  0  0
  -28.1009  -36.2589   24.6305 H   0  0  0  0  0  0
  -27.2258  -37.1422   25.8877 H   0  0  0  0  0  0
  -20.9311  -29.8777   21.6957 H   0  0  0  0  0  0
  -26.0188  -38.2898   24.1418 H   0  0  0  0  0  0
  -30.7269  -16.9741   19.5480 H   0  0  0  0  0  0
  -28.2827  -18.9570   23.3874 H   0  0  0  0  0  0
  -30.0864  -18.7894   18.1680 H   0  0  0  0  0  0
  -30.9932  -19.9948   19.0584 H   0  0  0  0  0  0
  -29.2520  -20.2057   18.7845 H   0  0  0  0  0  0
  -29.7371  -15.8344   24.2160 H   0  0  0  0  0  0
  -28.1072  -15.5969   23.5795 H   0  0  0  0  0  0
  -28.4532  -16.9617   24.6404 H   0  0  0  0  0  0
  -24.3415  -20.4528   19.2154 H   0  0  0  0  0  0
  -24.2953  -20.9679   20.9031 H   0  0  0  0  0  0
  -24.7433  -19.3084   20.4887 H   0  0  0  0  0  0
  -28.0665  -22.9222   19.9323 H   0  0  0  0  0  0
  -27.7214  -23.2243   21.6379 H   0  0  0  0  0  0
  -26.3284  -21.7956   19.7055 H   0  0  0  0  0  0
  -26.8101  -20.1489   19.3557 H   0  0  0  0  0  0
  -30.2071  -24.3736   20.2589 H   0  0  0  0  0  0
  -29.4774  -24.8417   21.7851 H   0  0  0  0  0  0
  -26.6761  -19.7559   21.9150 H   0  0  0  0  0  0
  -26.6957  -21.4522   22.1415 H   0  0  0  0  0  0
  -28.2438  -25.0935   18.9892 H   0  0  0  0  0  0
  -27.3012  -25.1195   20.4803 H   0  0  0  0  0  0
  -29.6133  -14.6939   22.2441 H   0  0  0  0  0  0
  1 25  1  0  0  0
  1 30  2  0  0  0
  1 86  1  0  0  0
  2  3  1  0  0  0
  2 25  1  0  0  0
  2 89  1  0  0  0
  2 90  1  0  0  0
  3  4  1  0  0  0
  3 91  1  0  0  0
  3 92  1  0  0  0
  4  5  1  0  0  0
  4 93  1  0  0  0
  4 94  1  0  0  0
  5  6  1  0  0  0
  5 26  1  0  0  0
  5 95  1  0  0  0
  6 25  1  0  0  0
  6 96  1  0  0  0
  6 97  1  0  0  0
  7  8  2  0  0  0
  7 26  1  0  0  0
  7 29  1  0  0  0
  8  9  1  0  0  0
  8 22  1  0  0  0
  9 10  1  0  0  0
  9 27  2  0  0  0
 10 11  2  0  0  0
 10 15  1  0  0  0
 11 12  1  0  0  0
 11 98  1  0  0  0
 12 13  2  0  0  0
 12 99  1  0  0  0
 13 14  1  0  0  0
 13 31  1  0  0  0
 14 15  2  0  0  0
 14100  1  0  0  0
 15101  1  0  0  0
 16 17  2  0  0  0
 16 21  1  0  0  0
 16 31  1  0  0  0
 17 18  1  0  0  0
 17102  1  0  0  0
 18 19  2  0  0  0
 18103  1  0  0  0
 19 20  1  0  0  0
 19 24  1  0  0  0
 20 21  2  0  0  0
 20104  1  0  0  0
 21 23  1  0  0  0
 22 28  1  0  0  0
 22 32  2  0  0  0
 26 27  1  0  0  0
 28105  1  0  0  0
 28106  1  0  0  0
 29107  1  0  0  0
 29108  1  0  0  0
 33 34  1  0  0  0
 33 66  1  0  0  0
 33 70  2  0  0  0
 34 36  1  0  0  0
 34 59  1  0  0  0
 34109  1  0  0  0
 35 44  2  0  0  0
 35 45  1  0  0  0
 35 68  1  0  0  0
 36 56  1  0  0  0
 36110  1  0  0  0
 37 39  1  0  0  0
 37 47  1  0  0  0
 37 66  1  0  0  0
 37111  1  0  0  0
 38 43  2  0  0  0
 38 46  1  0  0  0
 38 47  1  0  0  0
 39 64  1  0  0  0
 39 67  2  0  0  0
 40 52  1  0  0  0
 40 53  2  0  0  0
 40 58  1  0  0  0
 41112  1  0  0  0
 41113  1  0  0  0
 41114  1  0  0  0
 41 48  1  0  0  0
 42 43  1  0  0  0
 42 66  1  0  0  0
 42115  1  0  0  0
 42116  1  0  0  0
 43 44  1  0  0  0
 44117  1  0  0  0
 45 46  2  0  0  0
 45118  1  0  0  0
 46119  1  0  0  0
 47120  1  0  0  0
 47121  1  0  0  0
 48 56  1  0  0  0
 48 65  1  0  0  0
 48122  1  0  0  0
 49 50  1  0  0  0
 49 53  1  0  0  0
 49 64  1  0  0  0
 49123  1  0  0  0
 50 51  1  0  0  0
 50124  1  0  0  0
 50125  1  0  0  0
 51 52  1  0  0  0
 51126  1  0  0  0
 51127  1  0  0  0
 52128  1  0  0  0
 52129  1  0  0  0
 53 54  1  0  0  0
 54 55  2  0  0  0
 54130  1  0  0  0
 55 57  1  0  0  0
 55131  1  0  0  0
 56 69  2  0  0  0
 57 58  2  0  0  0
 57132  1  0  0  0
 58133  1  0  0  0
 59 60  1  0  0  0
 59 61  1  0  0  0
 59 62  1  0  0  0
 60134  1  0  0  0
 60135  1  0  0  0
 60136  1  0  0  0
 61137  1  0  0  0
 61138  1  0  0  0
 61139  1  0  0  0
 62140  1  0  0  0
 62141  1  0  0  0
 62142  1  0  0  0
 63 65  1  0  0  0
 63143  1  0  0  0
 63144  1  0  0  0
 63145  1  0  0  0
 64146  1  0  0  0
 65147  1  0  0  0
 68 85  1  0  0  0
 71 73  2  0  0  0
 71 75  1  0  0  0
 71148  1  0  0  0
 72 74  1  0  0  0
 72 76  2  0  0  0
 72149  1  0  0  0
 73 76  1  0  0  0
 73 78  1  0  0  0
 74 75  2  0  0  0
 74 79  1  0  0  0
 75 86  1  0  0  0
 76 87  1  0  0  0
 77 81  1  0  0  0
 77 87  1  0  0  0
 77 88  2  0  0  0
 78150  1  0  0  0
 78151  1  0  0  0
 78152  1  0  0  0
 79153  1  0  0  0
 79154  1  0  0  0
 79155  1  0  0  0
 80 82  1  0  0  0
 80156  1  0  0  0
 80157  1  0  0  0
 80158  1  0  0  0
 81 83  1  0  0  0
 81159  1  0  0  0
 81160  1  0  0  0
 82 84  1  0  0  0
 82161  1  0  0  0
 82162  1  0  0  0
 83 85  1  0  0  0
 83163  1  0  0  0
 83164  1  0  0  0
 84 87  1  0  0  0
 84165  1  0  0  0
 84166  1  0  0  0
 85167  1  0  0  0
 85168  1  0  0  0
 86169  1  0  0  0
M  ISO  4   1 100  68 101  85 101  86 100
M  END
> <chiral flag>
0

> <version>
0

> <s_m_source_file>
/data/baiqing/PycharmProjects/Reinvent-master-3.2/result/LINK_invent/BTK/process_docking_weight1_custom_sum_contain_oxygen_bond_distance_aromatic_linkinvent_7_9_3/rearranged_h_0008.sdf

> <i_m_source_file_index>
36

> <r_mmod_Potential_Energy-OPLS-2005>
58.2085571289062

> <r_mmod_Stretch_Energy-OPLS-2005>
41.8516044616699

> <r_mmod_Bend_Energy-OPLS-2005>
123.238235473633

> <r_mmod_Torsional_Energy-OPLS-2005>
286.229705810547

> <r_mmod_Improper_Torsional_Energy-OPLS-2005>
4.74754810333252

> <r_mmod_Van_der_Waal_Energy-OPLS-2005>
183.035064697266

> <r_mmod_Electrostatic_Energy-OPLS-2005>
-373.743682861328

> <r_mmod_Solvation_Energy-OPLS-2005>
-216.935775756836

> <b_mmod_Minimization_Converged-OPLS-2005>
0

> <r_mmod_RMS_Derivative-OPLS-2005>
5.61835241317749

$$$$
36
                    3D
 Structure written by MMmdl.
155163  0  0  1  0            999 V2000
  -30.6055  -14.6607   20.4708 C   0  0  0  0  0  0
  -30.4391  -12.4012   19.4474 C   0  0  0  0  0  0
  -29.5056  -12.5081   18.2195 C   0  0  0  0  0  0
  -28.0293  -12.3412   18.6343 C   0  0  0  0  0  0
  -27.6498  -13.2155   19.8589 C   0  0  2  0  0  0
  -28.6980  -13.0846   20.9878 C   0  0  0  0  0  0
  -25.2549  -13.8167   20.5685 C   0  0  0  0  0  0
  -24.1822  -13.0438   20.9212 C   0  0  0  0  0  0
  -24.6401  -11.6909   20.8768 C   0  0  0  0  0  0
  -23.9072  -10.4294   21.0437 C   0  0  0  0  0  0
  -24.3629   -9.4203   21.9206 C   0  0  0  0  0  0
  -23.6303   -8.2240   22.0770 C   0  0  0  0  0  0
  -22.4279   -8.0291   21.3564 C   0  0  0  0  0  0
  -21.9923   -9.0266   20.4662 C   0  0  0  0  0  0
  -22.7253  -10.2143   20.3078 C   0  0  0  0  0  0
  -21.6849   -6.0743   22.5284 C   0  0  0  0  0  0
  -21.4011   -6.5648   23.8220 C   0  0  0  0  0  0
  -21.3658   -5.6803   24.9181 C   0  0  0  0  0  0
  -21.6044   -4.3066   24.7230 C   0  0  0  0  0  0
  -21.8817   -3.8154   23.4350 C   0  0  0  0  0  0
  -21.9193   -4.6971   22.3404 C   0  0  0  0  0  0
  -22.7845  -13.5238   21.1863 C   0  0  0  0  0  0
  -22.1662   -4.2158   21.0981 F   0  0  0  0  0  0
  -21.5629   -3.4553   25.7745 F   0  0  0  0  0  0
  -30.0093  -13.4280   20.4161 N   0  0  0  0  0  0
  -26.2973  -12.9346   20.3313 N   0  0  0  0  0  0
  -25.9328  -11.6504   20.5774 N   0  0  0  0  0  0
  -22.0480  -12.8234   22.0411 N   0  0  0  0  0  0
  -25.4226  -15.1888   20.4055 N   0  0  0  0  0  0
  -31.7863  -14.8153   20.1449 O   0  0  0  0  0  0
  -21.6638   -6.8891   21.4250 O   0  0  0  0  0  0
  -22.3535  -14.5544   20.6706 O   0  0  0  0  0  0
  -24.6266  -31.8598   23.2024 C   0  0  0  0  0  0
  -25.9114  -32.4774   23.8352 C   0  0  1  0  0  0
  -27.2251  -27.3192   20.1107 C   0  0  0  0  0  0
  -25.5928  -33.8576   24.2275 N   0  0  0  0  0  0
  -23.4197  -30.4825   21.5460 C   0  0  2  0  0  0
  -24.8648  -28.9374   20.1125 C   0  0  0  0  0  0
  -22.7480  -29.4618   22.4952 C   0  0  0  0  0  0
  -18.0288  -28.1374   22.8497 C   0  0  0  0  0  0
  -24.1488  -36.7300   23.2640 C   0  0  0  0  0  0
  -25.9609  -30.7897   21.3735 C   0  0  0  0  0  0
  -26.0351  -29.4181   20.7135 C   0  0  0  0  0  0
  -27.2183  -28.6214   20.7006 C   0  0  0  0  0  0
  -26.0285  -26.8894   19.4912 C   0  0  0  0  0  0
  -24.8631  -27.6782   19.4940 C   0  0  0  0  0  0
  -23.6334  -29.8177   20.1617 C   0  0  0  0  0  0
  -25.4112  -36.3079   24.0327 C   0  0  1  0  0  0
  -20.5892  -28.3677   23.1290 C   0  0  2  0  0  0
  -20.6776  -26.9401   22.5411 C   0  0  0  0  0  0
  -19.5745  -26.6373   21.5219 C   0  0  0  0  0  0
  -18.1924  -26.7917   22.1629 C   0  0  0  0  0  0
  -19.1543  -28.8843   23.2888 C   0  0  0  0  0  0
  -18.9462  -30.1452   23.8892 C   0  0  0  0  0  0
  -17.6461  -30.6579   24.0560 C   0  0  0  0  0  0
  -25.9050  -34.9449   23.5096 C   0  0  0  0  0  0
  -16.5356  -29.9075   23.6328 C   0  0  0  0  0  0
  -16.7276  -28.6492   23.0350 C   0  0  0  0  0  0
  -26.4491  -31.6591   25.0728 C   0  0  0  0  0  0
  -25.3722  -31.3742   26.1455 C   0  0  0  0  0  0
  -27.0339  -30.3013   24.6190 C   0  0  0  0  0  0
  -27.6034  -32.4347   25.7502 C   0  0  0  0  0  0
  -27.5580  -37.1802   24.8462 C   0  0  0  0  0  0
  -21.4196  -29.3039   22.3697 N   0  0  0  0  0  0
  -26.4289  -37.3776   23.9409 N   0  0  0  0  0  0
  -24.6879  -31.0609   22.0973 N   0  0  0  0  0  0
  -23.4207  -28.8161   23.3031 O   0  0  0  0  0  0
  -28.3507  -26.4797   20.1521 O   0  0  0  0  0  0
  -26.5621  -34.8919   22.4664 O   0  0  0  0  0  0
  -23.5428  -32.1402   23.7352 O   0  0  0  0  0  0
  -31.1465  -19.2973   20.6361 C   0  0  0  0  0  0
  -31.0997  -17.8766   20.7156 C   0  0  0  0  0  0
  -28.7387  -17.9781   20.2835 C   0  0  0  0  0  0
  -30.0072  -20.1159   20.3704 C   0  0  0  0  0  0
  -29.8867  -17.1704   20.5448 C   0  0  0  0  0  0
  -28.7786  -19.4167   20.1747 C   0  0  0  0  0  0
  -30.2013  -21.6534   20.2483 C   0  0  0  0  0  0
  -26.4573  -19.5215   19.5152 C   0  0  0  0  0  0
  -29.3742  -24.0657   20.3549 C   0  0  0  0  0  0
  -28.1537  -25.0169   20.0057 C   0  0  0  0  0  0
  -29.7504  -15.7144   20.6810 N   0  0  0  0  0  0
  -29.1807  -22.5644   20.2984 N   0  0  0  0  0  0
  -31.3579  -22.0726   20.1517 O   0  0  0  0  0  0
  -27.6624  -20.1778   19.8852 O   0  0  0  0  0  0
  -31.4795  -12.5340   19.1436 H   0  0  0  0  0  0
  -30.3796  -11.4080   19.8948 H   0  0  0  0  0  0
  -29.7707  -11.7564   17.4749 H   0  0  0  0  0  0
  -29.6426  -13.4770   17.7363 H   0  0  0  0  0  0
  -27.8687  -11.2874   18.8657 H   0  0  0  0  0  0
  -27.3745  -12.5697   17.7926 H   0  0  0  0  0  0
  -27.6592  -14.2466   19.5076 H   0  0  0  0  0  0
  -28.7147  -12.0683   21.3835 H   0  0  0  0  0  0
  -28.4476  -13.7278   21.8331 H   0  0  0  0  0  0
  -25.2787   -9.5670   22.4767 H   0  0  0  0  0  0
  -24.0012   -7.4627   22.7487 H   0  0  0  0  0  0
  -21.0856   -8.8794   19.8964 H   0  0  0  0  0  0
  -22.3733  -10.9685   19.6182 H   0  0  0  0  0  0
  -21.1997   -7.6156   23.9729 H   0  0  0  0  0  0
  -21.1482   -6.0532   25.9086 H   0  0  0  0  0  0
  -22.0592   -2.7616   23.2853 H   0  0  0  0  0  0
  -22.4105  -11.9895   22.4790 H   0  0  0  0  0  0
  -21.1103  -13.1273   22.2627 H   0  0  0  0  0  0
  -24.6444  -15.8326   20.4966 H   0  0  0  0  0  0
  -26.2486  -15.6210   20.0162 H   0  0  0  0  0  0
  -26.7179  -32.5441   23.1100 H   0  0  0  0  0  0
  -25.0064  -33.9721   25.0409 H   0  0  0  0  0  0
  -22.7132  -31.3032   21.4030 H   0  0  0  0  0  0
  -23.3746  -35.9637   23.3295 H   0  0  0  0  0  0
  -24.3584  -36.8934   22.2058 H   0  0  0  0  0  0
  -23.7249  -37.6500   23.6675 H   0  0  0  0  0  0
  -26.0924  -31.5547   20.6071 H   0  0  0  0  0  0
  -26.8408  -30.8374   22.0026 H   0  0  0  0  0  0
  -28.1177  -28.9864   21.1759 H   0  0  0  0  0  0
  -25.9631  -25.9280   19.0049 H   0  0  0  0  0  0
  -23.9651  -27.3047   19.0211 H   0  0  0  0  0  0
  -23.7537  -30.5936   19.4045 H   0  0  0  0  0  0
  -22.7527  -29.2487   19.8590 H   0  0  0  0  0  0
  -25.1287  -36.1927   25.0821 H   0  0  0  0  0  0
  -20.9980  -28.3240   24.1414 H   0  0  0  0  0  0
  -20.5682  -26.2283   23.3612 H   0  0  0  0  0  0
  -21.6639  -26.7423   22.1198 H   0  0  0  0  0  0
  -19.6902  -25.6283   21.1252 H   0  0  0  0  0  0
  -19.6674  -27.3183   20.6753 H   0  0  0  0  0  0
  -17.4195  -26.6685   21.4029 H   0  0  0  0  0  0
  -18.0308  -26.0049   22.9012 H   0  0  0  0  0  0
  -19.7936  -30.7281   24.2245 H   0  0  0  0  0  0
  -17.5010  -31.6258   24.5161 H   0  0  0  0  0  0
  -15.5353  -30.2972   23.7649 H   0  0  0  0  0  0
  -15.8679  -28.0815   22.7051 H   0  0  0  0  0  0
  -24.5870  -30.7121   25.7791 H   0  0  0  0  0  0
  -24.8942  -32.2917   26.4896 H   0  0  0  0  0  0
  -25.8035  -30.8900   27.0223 H   0  0  0  0  0  0
  -26.2918  -29.6769   24.1200 H   0  0  0  0  0  0
  -27.4022  -29.7265   25.4700 H   0  0  0  0  0  0
  -27.8792  -30.4301   23.9425 H   0  0  0  0  0  0
  -27.2613  -33.3641   26.2072 H   0  0  0  0  0  0
  -28.3838  -32.6933   25.0333 H   0  0  0  0  0  0
  -28.0710  -31.8493   26.5427 H   0  0  0  0  0  0
  -28.2576  -38.0117   24.7513 H   0  0  0  0  0  0
  -28.1094  -36.2644   24.6270 H   0  0  0  0  0  0
  -27.2307  -37.1431   25.8869 H   0  0  0  0  0  0
  -20.9383  -29.8777   21.6915 H   0  0  0  0  0  0
  -26.0166  -38.2849   24.1411 H   0  0  0  0  0  0
  -32.1076  -19.7703   20.7816 H   0  0  0  0  0  0
  -32.0129  -17.3385   20.9294 H   0  0  0  0  0  0
  -27.7990  -17.4612   20.1607 H   0  0  0  0  0  0
  -25.7148  -20.2707   19.2371 H   0  0  0  0  0  0
  -26.0461  -18.9409   20.3421 H   0  0  0  0  0  0
  -26.6008  -18.8732   18.6505 H   0  0  0  0  0  0
  -29.7150  -24.3035   21.3628 H   0  0  0  0  0  0
  -30.1995  -24.3382   19.6951 H   0  0  0  0  0  0
  -27.3095  -24.7189   20.6293 H   0  0  0  0  0  0
  -27.8684  -24.8108   18.9734 H   0  0  0  0  0  0
  -28.8070  -15.3991   20.8445 H   0  0  0  0  0  0
  -28.2410  -22.1944   20.3637 H   0  0  0  0  0  0
  1 25  1  0  0  0
  1 30  2  0  0  0
  1 81  1  0  0  0
  2  3  1  0  0  0
  2 25  1  0  0  0
  2 85  1  0  0  0
  2 86  1  0  0  0
  3  4  1  0  0  0
  3 87  1  0  0  0
  3 88  1  0  0  0
  4  5  1  0  0  0
  4 89  1  0  0  0
  4 90  1  0  0  0
  5  6  1  0  0  0
  5 26  1  0  0  0
  5 91  1  0  0  0
  6 25  1  0  0  0
  6 92  1  0  0  0
  6 93  1  0  0  0
  7  8  2  0  0  0
  7 26  1  0  0  0
  7 29  1  0  0  0
  8  9  1  0  0  0
  8 22  1  0  0  0
  9 10  1  0  0  0
  9 27  2  0  0  0
 10 11  2  0  0  0
 10 15  1  0  0  0
 11 12  1  0  0  0
 11 94  1  0  0  0
 12 13  2  0  0  0
 12 95  1  0  0  0
 13 14  1  0  0  0
 13 31  1  0  0  0
 14 15  2  0  0  0
 14 96  1  0  0  0
 15 97  1  0  0  0
 16 17  2  0  0  0
 16 21  1  0  0  0
 16 31  1  0  0  0
 17 18  1  0  0  0
 17 98  1  0  0  0
 18 19  2  0  0  0
 18 99  1  0  0  0
 19 20  1  0  0  0
 19 24  1  0  0  0
 20 21  2  0  0  0
 20100  1  0  0  0
 21 23  1  0  0  0
 22 28  1  0  0  0
 22 32  2  0  0  0
 26 27  1  0  0  0
 28101  1  0  0  0
 28102  1  0  0  0
 29103  1  0  0  0
 29104  1  0  0  0
 33 34  1  0  0  0
 33 66  1  0  0  0
 33 70  2  0  0  0
 34 36  1  0  0  0
 34 59  1  0  0  0
 34105  1  0  0  0
 35 44  2  0  0  0
 35 45  1  0  0  0
 35 68  1  0  0  0
 36 56  1  0  0  0
 36106  1  0  0  0
 37 39  1  0  0  0
 37 47  1  0  0  0
 37 66  1  0  0  0
 37107  1  0  0  0
 38 43  2  0  0  0
 38 46  1  0  0  0
 38 47  1  0  0  0
 39 64  1  0  0  0
 39 67  2  0  0  0
 40 52  1  0  0  0
 40 53  2  0  0  0
 40 58  1  0  0  0
 41108  1  0  0  0
 41109  1  0  0  0
 41110  1  0  0  0
 41 48  1  0  0  0
 42 43  1  0  0  0
 42 66  1  0  0  0
 42111  1  0  0  0
 42112  1  0  0  0
 43 44  1  0  0  0
 44113  1  0  0  0
 45 46  2  0  0  0
 45114  1  0  0  0
 46115  1  0  0  0
 47116  1  0  0  0
 47117  1  0  0  0
 48 56  1  0  0  0
 48 65  1  0  0  0
 48118  1  0  0  0
 49 50  1  0  0  0
 49 53  1  0  0  0
 49 64  1  0  0  0
 49119  1  0  0  0
 50 51  1  0  0  0
 50120  1  0  0  0
 50121  1  0  0  0
 51 52  1  0  0  0
 51122  1  0  0  0
 51123  1  0  0  0
 52124  1  0  0  0
 52125  1  0  0  0
 53 54  1  0  0  0
 54 55  2  0  0  0
 54126  1  0  0  0
 55 57  1  0  0  0
 55127  1  0  0  0
 56 69  2  0  0  0
 57 58  2  0  0  0
 57128  1  0  0  0
 58129  1  0  0  0
 59 60  1  0  0  0
 59 61  1  0  0  0
 59 62  1  0  0  0
 60130  1  0  0  0
 60131  1  0  0  0
 60132  1  0  0  0
 61133  1  0  0  0
 61134  1  0  0  0
 61135  1  0  0  0
 62136  1  0  0  0
 62137  1  0  0  0
 62138  1  0  0  0
 63 65  1  0  0  0
 63139  1  0  0  0
 63140  1  0  0  0
 63141  1  0  0  0
 64142  1  0  0  0
 65143  1  0  0  0
 68 80  1  0  0  0
 71 72  2  0  0  0
 71 74  1  0  0  0
 71144  1  0  0  0
 72 75  1  0  0  0
 72145  1  0  0  0
 73 75  2  0  0  0
 73 76  1  0  0  0
 73146  1  0  0  0
 74 76  2  0  0  0
 74 77  1  0  0  0
 75 81  1  0  0  0
 76 84  1  0  0  0
 77 82  1  0  0  0
 77 83  2  0  0  0
 78 84  1  0  0  0
 78147  1  0  0  0
 78148  1  0  0  0
 78149  1  0  0  0
 79 80  1  0  0  0
 79 82  1  0  0  0
 79150  1  0  0  0
 79151  1  0  0  0
 80152  1  0  0  0
 80153  1  0  0  0
 81154  1  0  0  0
 82155  1  0  0  0
M  ISO  4   1 100  68 101  80 101  81 100
M  END
> <chiral flag>
0

> <version>
0

> <s_m_source_file>
/data/baiqing/PycharmProjects/Reinvent-master-3.2/result/LINK_invent/BTK/process_docking_weight1_custom_sum_contain_oxygen_bond_distance_aromatic_linkinvent_7_9_3/rearranged_h_0008.sdf

> <i_m_source_file_index>
37

> <r_mmod_Potential_Energy-OPLS-2005>
34.9746284484863

> <r_mmod_Stretch_Energy-OPLS-2005>
83.4925689697266

> <r_mmod_Bend_Energy-OPLS-2005>
147.045822143555

> <r_mmod_Torsional_Energy-OPLS-2005>
222.061065673828

> <r_mmod_Improper_Torsional_Energy-OPLS-2005>
6.20901298522949

> <r_mmod_Van_der_Waal_Energy-OPLS-2005>
154.506271362305

> <r_mmod_Electrostatic_Energy-OPLS-2005>
-394.462158203125

> <r_mmod_Solvation_Energy-OPLS-2005>
-236.480117797852

> <b_mmod_Minimization_Converged-OPLS-2005>
0

> <r_mmod_RMS_Derivative-OPLS-2005>
1.30476486682892

$$$$
37
                    3D
 Structure written by MMmdl.
154162  0  0  1  0            999 V2000
  -30.6476  -14.7129   20.4612 C   0  0  0  0  0  0
  -30.4208  -12.4329   19.4803 C   0  0  0  0  0  0
  -29.5077  -12.5001   18.2382 C   0  0  0  0  0  0
  -28.0335  -12.3280   18.6504 C   0  0  0  0  0  0
  -27.6401  -13.2330   19.8499 C   0  0  2  0  0  0
  -28.6817  -13.1772   20.9884 C   0  0  0  0  0  0
  -25.2506  -13.8212   20.5674 C   0  0  0  0  0  0
  -24.1792  -13.0456   20.9174 C   0  0  0  0  0  0
  -24.6384  -11.6926   20.8744 C   0  0  0  0  0  0
  -23.9066  -10.4303   21.0413 C   0  0  0  0  0  0
  -24.3619   -9.4222   21.9192 C   0  0  0  0  0  0
  -23.6287   -8.2268   22.0769 C   0  0  0  0  0  0
  -22.4277   -8.0311   21.3553 C   0  0  0  0  0  0
  -21.9914   -9.0275   20.4654 C   0  0  0  0  0  0
  -22.7248  -10.2148   20.3056 C   0  0  0  0  0  0
  -21.6862   -6.0754   22.5285 C   0  0  0  0  0  0
  -21.4016   -6.5648   23.8217 C   0  0  0  0  0  0
  -21.3644   -5.6801   24.9175 C   0  0  0  0  0  0
  -21.6045   -4.3066   24.7230 C   0  0  0  0  0  0
  -21.8817   -3.8151   23.4345 C   0  0  0  0  0  0
  -21.9196   -4.6978   22.3403 C   0  0  0  0  0  0
  -22.7821  -13.5248   21.1846 C   0  0  0  0  0  0
  -22.1662   -4.2163   21.0988 F   0  0  0  0  0  0
  -21.5622   -3.4550   25.7729 F   0  0  0  0  0  0
  -29.9884  -13.5056   20.4068 N   0  0  0  0  0  0
  -26.2922  -12.9410   20.3283 N   0  0  0  0  0  0
  -25.9322  -11.6547   20.5763 N   0  0  0  0  0  0
  -22.0465  -12.8239   22.0395 N   0  0  0  0  0  0
  -25.4187  -15.1933   20.4090 N   0  0  0  0  0  0
  -31.8384  -14.7460   20.1493 O   0  0  0  0  0  0
  -21.6651   -6.8901   21.4245 O   0  0  0  0  0  0
  -22.3527  -14.5572   20.6720 O   0  0  0  0  0  0
  -24.6279  -31.8501   23.1982 C   0  0  0  0  0  0
  -25.9101  -32.4737   23.8318 C   0  0  1  0  0  0
  -27.2297  -27.2707   20.1287 C   0  0  0  0  0  0
  -25.5901  -33.8540   24.2231 N   0  0  0  0  0  0
  -23.4289  -30.4717   21.5342 C   0  0  2  0  0  0
  -24.8808  -28.9194   20.1077 C   0  0  0  0  0  0
  -22.7487  -29.4571   22.4872 C   0  0  0  0  0  0
  -18.0285  -28.1411   22.8432 C   0  0  0  0  0  0
  -24.1484  -36.7225   23.2653 C   0  0  0  0  0  0
  -25.9732  -30.7673   21.3805 C   0  0  0  0  0  0
  -26.0476  -29.3921   20.7175 C   0  0  0  0  0  0
  -27.2225  -28.5775   20.7214 C   0  0  0  0  0  0
  -26.0411  -26.8663   19.4826 C   0  0  0  0  0  0
  -24.8786  -27.6631   19.4827 C   0  0  0  0  0  0
  -23.6496  -29.8005   20.1517 C   0  0  0  0  0  0
  -25.4104  -36.3023   24.0332 C   0  0  1  0  0  0
  -20.5896  -28.3669   23.1239 C   0  0  2  0  0  0
  -20.6778  -26.9376   22.5379 C   0  0  0  0  0  0
  -19.5756  -26.6361   21.5188 C   0  0  0  0  0  0
  -18.1943  -26.7953   22.1590 C   0  0  0  0  0  0
  -19.1550  -28.8862   23.2845 C   0  0  0  0  0  0
  -18.9490  -30.1477   23.8843 C   0  0  0  0  0  0
  -17.6488  -30.6603   24.0556 C   0  0  0  0  0  0
  -25.9037  -34.9410   23.5086 C   0  0  0  0  0  0
  -16.5367  -29.9089   23.6372 C   0  0  0  0  0  0
  -16.7266  -28.6532   23.0330 C   0  0  0  0  0  0
  -26.4482  -31.6608   25.0730 C   0  0  0  0  0  0
  -25.3704  -31.3762   26.1444 C   0  0  0  0  0  0
  -27.0400  -30.3052   24.6252 C   0  0  0  0  0  0
  -27.6038  -32.4364   25.7467 C   0  0  0  0  0  0
  -27.5575  -37.1729   24.8451 C   0  0  0  0  0  0
  -21.4206  -29.3037   22.3630 N   0  0  0  0  0  0
  -26.4252  -37.3740   23.9454 N   0  0  0  0  0  0
  -24.6964  -31.0476   22.0957 N   0  0  0  0  0  0
  -23.4211  -28.8117   23.2967 O   0  0  0  0  0  0
  -28.3315  -26.3886   20.2269 O   0  0  0  0  0  0
  -26.5611  -34.8905   22.4659 O   0  0  0  0  0  0
  -23.5434  -32.1287   23.7273 O   0  0  0  0  0  0
  -30.9492  -20.0936   20.0190 C   0  0  0  0  0  0
  -31.5389  -17.7084   20.0161 C   0  0  0  0  0  0
  -31.8822  -19.0594   19.7957 C   0  0  0  0  0  0
  -29.6555  -19.8168   20.5051 C   0  0  0  0  0  0
  -30.2569  -17.3156   20.4764 C   0  0  0  0  0  0
  -29.3282  -18.4079   20.7286 C   0  0  0  0  0  0
  -28.7239  -23.6832   20.6821 C   0  0  0  0  0  0
  -33.2892  -19.3870   19.3289 C   0  0  0  0  0  0
  -28.7264  -21.0549   20.8841 C   0  0  0  0  0  0
  -28.2346  -24.9462   19.8047 C   0  0  0  0  0  0
  -29.9155  -15.8741   20.6758 N   0  0  0  0  0  0
  -28.7585  -22.4010   20.1549 N   0  0  0  0  0  0
  -29.0305  -23.8569   21.8672 O   0  0  0  0  0  0
  -27.7675  -17.9920   21.3475 Cl  0  0  0  0  0  0
  -31.4666  -12.5254   19.1827 H   0  0  0  0  0  0
  -30.3391  -11.4591   19.9663 H   0  0  0  0  0  0
  -29.7877  -11.7261   17.5225 H   0  0  0  0  0  0
  -29.6396  -13.4575   17.7311 H   0  0  0  0  0  0
  -27.8859  -11.2781   18.9074 H   0  0  0  0  0  0
  -27.3778  -12.5239   17.8005 H   0  0  0  0  0  0
  -27.6346  -14.2539   19.4654 H   0  0  0  0  0  0
  -28.7060  -12.1895   21.4521 H   0  0  0  0  0  0
  -28.4195  -13.8793   21.7804 H   0  0  0  0  0  0
  -25.2776   -9.5725   22.4750 H   0  0  0  0  0  0
  -24.0011   -7.4681   22.7495 H   0  0  0  0  0  0
  -21.0859   -8.8792   19.8952 H   0  0  0  0  0  0
  -22.3722  -10.9685   19.6155 H   0  0  0  0  0  0
  -21.2002   -7.6151   23.9727 H   0  0  0  0  0  0
  -21.1456   -6.0524   25.9080 H   0  0  0  0  0  0
  -22.0602   -2.7613   23.2844 H   0  0  0  0  0  0
  -22.4078  -11.9879   22.4738 H   0  0  0  0  0  0
  -21.1093  -13.1273   22.2619 H   0  0  0  0  0  0
  -24.6471  -15.8414   20.5227 H   0  0  0  0  0  0
  -26.2721  -15.6453   20.1069 H   0  0  0  0  0  0
  -26.7138  -32.5358   23.1026 H   0  0  0  0  0  0
  -25.0089  -33.9654   25.0412 H   0  0  0  0  0  0
  -22.7276  -31.2949   21.3762 H   0  0  0  0  0  0
  -23.3785  -35.9523   23.3254 H   0  0  0  0  0  0
  -24.3583  -36.8899   22.2079 H   0  0  0  0  0  0
  -23.7182  -37.6386   23.6713 H   0  0  0  0  0  0
  -26.1218  -31.5339   20.6202 H   0  0  0  0  0  0
  -26.8467  -30.8006   22.0204 H   0  0  0  0  0  0
  -28.1132  -28.9270   21.2213 H   0  0  0  0  0  0
  -25.9813  -25.9045   18.9958 H   0  0  0  0  0  0
  -23.9813  -27.2875   19.0128 H   0  0  0  0  0  0
  -23.7783  -30.5689   19.3891 H   0  0  0  0  0  0
  -22.7735  -29.2238   19.8483 H   0  0  0  0  0  0
  -25.1286  -36.1830   25.0816 H   0  0  0  0  0  0
  -20.9962  -28.3229   24.1363 H   0  0  0  0  0  0
  -20.5662  -26.2266   23.3578 H   0  0  0  0  0  0
  -21.6642  -26.7385   22.1176 H   0  0  0  0  0  0
  -19.6935  -25.6269   21.1226 H   0  0  0  0  0  0
  -19.6764  -27.3165   20.6738 H   0  0  0  0  0  0
  -17.4204  -26.6661   21.4002 H   0  0  0  0  0  0
  -18.0340  -26.0116   22.9007 H   0  0  0  0  0  0
  -19.7989  -30.7305   24.2151 H   0  0  0  0  0  0
  -17.5067  -31.6285   24.5157 H   0  0  0  0  0  0
  -15.5380  -30.2988   23.7791 H   0  0  0  0  0  0
  -15.8649  -28.0884   22.7035 H   0  0  0  0  0  0
  -24.5841  -30.7163   25.7728 H   0  0  0  0  0  0
  -24.8950  -32.2953   26.4884 H   0  0  0  0  0  0
  -25.7975  -30.8870   27.0214 H   0  0  0  0  0  0
  -26.3041  -29.6721   24.1276 H   0  0  0  0  0  0
  -27.4133  -29.7353   25.4781 H   0  0  0  0  0  0
  -27.8866  -30.4381   23.9516 H   0  0  0  0  0  0
  -27.2673  -33.3693   26.2002 H   0  0  0  0  0  0
  -28.3855  -32.6874   25.0282 H   0  0  0  0  0  0
  -28.0724  -31.8533   26.5398 H   0  0  0  0  0  0
  -28.2481  -38.0139   24.7620 H   0  0  0  0  0  0
  -28.1177  -36.2652   24.6106 H   0  0  0  0  0  0
  -27.2304  -37.1157   25.8856 H   0  0  0  0  0  0
  -20.9386  -29.8738   21.6815 H   0  0  0  0  0  0
  -26.0101  -38.2780   24.1603 H   0  0  0  0  0  0
  -31.2422  -21.1201   19.8552 H   0  0  0  0  0  0
  -32.3159  -16.9887   19.8150 H   0  0  0  0  0  0
  -33.5407  -20.4329   19.5116 H   0  0  0  0  0  0
  -33.3998  -19.1842   18.2628 H   0  0  0  0  0  0
  -34.0220  -18.7767   19.8602 H   0  0  0  0  0  0
  -28.9169  -21.2565   21.9381 H   0  0  0  0  0  0
  -27.6879  -20.7237   20.8505 H   0  0  0  0  0  0
  -27.4498  -24.8834   20.5602 H   0  0  0  0  0  0
  -29.3178  -25.0775   19.7944 H   0  0  0  0  0  0
  -28.9557  -15.7105   20.9384 H   0  0  0  0  0  0
  -28.5536  -22.3450   19.1661 H   0  0  0  0  0  0
  1 25  1  0  0  0
  1 30  2  0  0  0
  1 81  1  0  0  0
  2  3  1  0  0  0
  2 25  1  0  0  0
  2 85  1  0  0  0
  2 86  1  0  0  0
  3  4  1  0  0  0
  3 87  1  0  0  0
  3 88  1  0  0  0
  4  5  1  0  0  0
  4 89  1  0  0  0
  4 90  1  0  0  0
  5  6  1  0  0  0
  5 26  1  0  0  0
  5 91  1  0  0  0
  6 25  1  0  0  0
  6 92  1  0  0  0
  6 93  1  0  0  0
  7  8  2  0  0  0
  7 26  1  0  0  0
  7 29  1  0  0  0
  8  9  1  0  0  0
  8 22  1  0  0  0
  9 10  1  0  0  0
  9 27  2  0  0  0
 10 11  2  0  0  0
 10 15  1  0  0  0
 11 12  1  0  0  0
 11 94  1  0  0  0
 12 13  2  0  0  0
 12 95  1  0  0  0
 13 14  1  0  0  0
 13 31  1  0  0  0
 14 15  2  0  0  0
 14 96  1  0  0  0
 15 97  1  0  0  0
 16 17  2  0  0  0
 16 21  1  0  0  0
 16 31  1  0  0  0
 17 18  1  0  0  0
 17 98  1  0  0  0
 18 19  2  0  0  0
 18 99  1  0  0  0
 19 20  1  0  0  0
 19 24  1  0  0  0
 20 21  2  0  0  0
 20100  1  0  0  0
 21 23  1  0  0  0
 22 28  1  0  0  0
 22 32  2  0  0  0
 26 27  1  0  0  0
 28101  1  0  0  0
 28102  1  0  0  0
 29103  1  0  0  0
 29104  1  0  0  0
 33 34  1  0  0  0
 33 66  1  0  0  0
 33 70  2  0  0  0
 34 36  1  0  0  0
 34 59  1  0  0  0
 34105  1  0  0  0
 35 44  2  0  0  0
 35 45  1  0  0  0
 35 68  1  0  0  0
 36 56  1  0  0  0
 36106  1  0  0  0
 37 39  1  0  0  0
 37 47  1  0  0  0
 37 66  1  0  0  0
 37107  1  0  0  0
 38 43  2  0  0  0
 38 46  1  0  0  0
 38 47  1  0  0  0
 39 64  1  0  0  0
 39 67  2  0  0  0
 40 52  1  0  0  0
 40 53  2  0  0  0
 40 58  1  0  0  0
 41108  1  0  0  0
 41109  1  0  0  0
 41110  1  0  0  0
 41 48  1  0  0  0
 42 43  1  0  0  0
 42 66  1  0  0  0
 42111  1  0  0  0
 42112  1  0  0  0
 43 44  1  0  0  0
 44113  1  0  0  0
 45 46  2  0  0  0
 45114  1  0  0  0
 46115  1  0  0  0
 47116  1  0  0  0
 47117  1  0  0  0
 48 56  1  0  0  0
 48 65  1  0  0  0
 48118  1  0  0  0
 49 50  1  0  0  0
 49 53  1  0  0  0
 49 64  1  0  0  0
 49119  1  0  0  0
 50 51  1  0  0  0
 50120  1  0  0  0
 50121  1  0  0  0
 51 52  1  0  0  0
 51122  1  0  0  0
 51123  1  0  0  0
 52124  1  0  0  0
 52125  1  0  0  0
 53 54  1  0  0  0
 54 55  2  0  0  0
 54126  1  0  0  0
 55 57  1  0  0  0
 55127  1  0  0  0
 56 69  2  0  0  0
 57 58  2  0  0  0
 57128  1  0  0  0
 58129  1  0  0  0
 59 60  1  0  0  0
 59 61  1  0  0  0
 59 62  1  0  0  0
 60130  1  0  0  0
 60131  1  0  0  0
 60132  1  0  0  0
 61133  1  0  0  0
 61134  1  0  0  0
 61135  1  0  0  0
 62136  1  0  0  0
 62137  1  0  0  0
 62138  1  0  0  0
 63 65  1  0  0  0
 63139  1  0  0  0
 63140  1  0  0  0
 63141  1  0  0  0
 64142  1  0  0  0
 65143  1  0  0  0
 68 80  1  0  0  0
 71 73  2  0  0  0
 71 74  1  0  0  0
 71144  1  0  0  0
 72 73  1  0  0  0
 72 75  2  0  0  0
 72145  1  0  0  0
 73 78  1  0  0  0
 74 76  2  0  0  0
 74 79  1  0  0  0
 75 76  1  0  0  0
 75 81  1  0  0  0
 76 84  1  0  0  0
 77 80  1  0  0  0
 77 82  1  0  0  0
 77 83  2  0  0  0
 78146  1  0  0  0
 78147  1  0  0  0
 78148  1  0  0  0
 79 82  1  0  0  0
 79149  1  0  0  0
 79150  1  0  0  0
 80151  1  0  0  0
 80152  1  0  0  0
 81153  1  0  0  0
 82154  1  0  0  0
M  ISO  4   1 100  68 101  80 101  81 100
M  END
> <chiral flag>
0

> <version>
0

> <s_m_source_file>
/data/baiqing/PycharmProjects/Reinvent-master-3.2/result/LINK_invent/BTK/process_docking_weight1_custom_sum_contain_oxygen_bond_distance_aromatic_linkinvent_7_9_3/rearranged_h_0008.sdf

> <i_m_source_file_index>
38

> <r_mmod_Potential_Energy-OPLS-2005>
269.389251708984

> <r_mmod_Stretch_Energy-OPLS-2005>
123.952949523926

> <r_mmod_Bend_Energy-OPLS-2005>
366.957061767578

> <r_mmod_Torsional_Energy-OPLS-2005>
209.532150268555

> <r_mmod_Improper_Torsional_Energy-OPLS-2005>
5.37855768203735

> <r_mmod_Van_der_Waal_Energy-OPLS-2005>
149.191925048828

> <r_mmod_Electrostatic_Energy-OPLS-2005>
-429.201843261719

> <r_mmod_Solvation_Energy-OPLS-2005>
-234.897262573242

> <b_mmod_Minimization_Converged-OPLS-2005>
0

> <r_mmod_RMS_Derivative-OPLS-2005>
4.02419424057007

$$$$
38
                    3D
 Structure written by MMmdl.
151159  0  0  1  0            999 V2000
  -30.5160  -15.0517   20.4055 C   0  0  0  0  0  0
  -30.4391  -12.6619   19.4997 C   0  0  0  0  0  0
  -29.5200  -12.5259   18.2630 C   0  0  0  0  0  0
  -28.0641  -12.2829   18.6967 C   0  0  0  0  0  0
  -27.6196  -13.2500   19.8238 C   0  0  2  0  0  0
  -28.6601  -13.3463   20.9599 C   0  0  0  0  0  0
  -25.2433  -13.8209   20.5684 C   0  0  0  0  0  0
  -24.1767  -13.0443   20.9245 C   0  0  0  0  0  0
  -24.6380  -11.6923   20.8772 C   0  0  0  0  0  0
  -23.9075  -10.4292   21.0424 C   0  0  0  0  0  0
  -24.3618   -9.4204   21.9202 C   0  0  0  0  0  0
  -23.6289   -8.2238   22.0764 C   0  0  0  0  0  0
  -22.4278   -8.0272   21.3539 C   0  0  0  0  0  0
  -21.9921   -9.0252   20.4638 C   0  0  0  0  0  0
  -22.7257  -10.2135   20.3056 C   0  0  0  0  0  0
  -21.6849   -6.0740   22.5279 C   0  0  0  0  0  0
  -21.4011   -6.5640   23.8216 C   0  0  0  0  0  0
  -21.3655   -5.6792   24.9172 C   0  0  0  0  0  0
  -21.6046   -4.3056   24.7226 C   0  0  0  0  0  0
  -21.8815   -3.8149   23.4345 C   0  0  0  0  0  0
  -21.9192   -4.6967   22.3399 C   0  0  0  0  0  0
  -22.7786  -13.5206   21.1901 C   0  0  0  0  0  0
  -22.1661   -4.2149   21.0980 F   0  0  0  0  0  0
  -21.5628   -3.4538   25.7740 F   0  0  0  0  0  0
  -29.9210  -13.7828   20.3456 N   0  0  0  0  0  0
  -26.2839  -12.9429   20.3201 N   0  0  0  0  0  0
  -25.9304  -11.6566   20.5739 N   0  0  0  0  0  0
  -22.0423  -12.8186   22.0429 N   0  0  0  0  0  0
  -25.4082  -15.1932   20.4046 N   0  0  0  0  0  0
  -31.7331  -15.0721   20.1842 O   0  0  0  0  0  0
  -21.6637   -6.8880   21.4238 O   0  0  0  0  0  0
  -22.3480  -14.5513   20.6741 O   0  0  0  0  0  0
  -24.6490  -31.8384   23.1792 C   0  0  0  0  0  0
  -25.9238  -32.4678   23.8207 C   0  0  1  0  0  0
  -27.2203  -27.0669   20.1704 C   0  0  0  0  0  0
  -25.5958  -33.8474   24.2142 N   0  0  0  0  0  0
  -23.4575  -30.4531   21.5263 C   0  0  2  0  0  0
  -24.9093  -28.8673   20.1101 C   0  0  0  0  0  0
  -22.7601  -29.4503   22.4804 C   0  0  0  0  0  0
  -18.0309  -28.1399   22.8469 C   0  0  0  0  0  0
  -24.1486  -36.7255   23.2645 C   0  0  0  0  0  0
  -26.0146  -30.6950   21.3804 C   0  0  0  0  0  0
  -26.0892  -29.2934   20.7339 C   0  0  0  0  0  0
  -27.2446  -28.4123   20.7448 C   0  0  0  0  0  0
  -26.0140  -26.7631   19.4990 C   0  0  0  0  0  0
  -24.8889  -27.6182   19.4743 C   0  0  0  0  0  0
  -23.6903  -29.7802   20.1474 C   0  0  0  0  0  0
  -25.4111  -36.3027   24.0315 C   0  0  1  0  0  0
  -20.5927  -28.3736   23.1205 C   0  0  2  0  0  0
  -20.6790  -26.9429   22.5385 C   0  0  0  0  0  0
  -19.5763  -26.6404   21.5195 C   0  0  0  0  0  0
  -18.1947  -26.7944   22.1608 C   0  0  0  0  0  0
  -19.1564  -28.8880   23.2838 C   0  0  0  0  0  0
  -18.9487  -30.1465   23.8883 C   0  0  0  0  0  0
  -17.6490  -30.6603   24.0559 C   0  0  0  0  0  0
  -25.9075  -34.9406   23.5050 C   0  0  0  0  0  0
  -16.5381  -29.9098   23.6330 C   0  0  0  0  0  0
  -16.7294  -28.6513   23.0352 C   0  0  0  0  0  0
  -26.4547  -31.6539   25.0651 C   0  0  0  0  0  0
  -25.3715  -31.3698   26.1329 C   0  0  0  0  0  0
  -27.0420  -30.2953   24.6192 C   0  0  0  0  0  0
  -27.6074  -32.4285   25.7452 C   0  0  0  0  0  0
  -27.5561  -37.1784   24.8469 C   0  0  0  0  0  0
  -21.4282  -29.3076   22.3580 N   0  0  0  0  0  0
  -26.4273  -37.3741   23.9419 N   0  0  0  0  0  0
  -24.7280  -31.0182   22.0852 N   0  0  0  0  0  0
  -23.4221  -28.8033   23.2960 O   0  0  0  0  0  0
  -28.2484  -26.0319   20.2504 O   0  0  0  0  0  0
  -26.5676  -34.8925   22.4646 O   0  0  0  0  0  0
  -23.5595  -32.1264   23.6998 O   0  0  0  0  0  0
  -30.9685  -20.6061   20.7687 C   0  0  0  0  0  0
  -31.3999  -18.1592   20.8222 C   0  0  0  0  0  0
  -29.1859  -19.0226   20.3662 C   0  0  0  0  0  0
  -31.8393  -19.4997   20.9489 C   0  0  0  0  0  0
  -29.5906  -20.4761   20.4692 C   0  0  0  0  0  0
  -30.0671  -17.8047   20.5291 C   0  0  0  0  0  0
  -29.0079  -23.2185   20.3913 C   0  0  0  0  0  0
  -27.9136  -24.4792   20.1427 C   0  0  0  0  0  0
  -33.3083  -19.7311   21.2837 C   0  0  0  0  0  0
  -28.7467  -21.7924   20.3012 N   0  0  0  0  0  0
  -29.7419  -16.2736   20.4706 N   0  0  0  0  0  0
  -30.1449  -23.5914   20.6868 O   0  0  0  0  0  0
  -33.5661  -21.0014   21.6009 F   0  0  0  0  0  0
  -33.6679  -18.9689   22.3180 F   0  0  0  0  0  0
  -34.0602  -19.3981   20.2342 F   0  0  0  0  0  0
  -31.4640  -12.8395   19.1713 H   0  0  0  0  0  0
  -30.4666  -11.7322   20.0696 H   0  0  0  0  0  0
  -29.8621  -11.7106   17.6247 H   0  0  0  0  0  0
  -29.5758  -13.4326   17.6595 H   0  0  0  0  0  0
  -28.0018  -11.2549   19.0569 H   0  0  0  0  0  0
  -27.3907  -12.3459   17.8414 H   0  0  0  0  0  0
  -27.5620  -14.2315   19.3519 H   0  0  0  0  0  0
  -28.7759  -12.3911   21.4737 H   0  0  0  0  0  0
  -28.3371  -14.0702   21.7098 H   0  0  0  0  0  0
  -25.2754   -9.5687   22.4795 H   0  0  0  0  0  0
  -23.9991   -7.4633   22.7490 H   0  0  0  0  0  0
  -21.0859   -8.8772   19.8936 H   0  0  0  0  0  0
  -22.3716  -10.9673   19.6160 H   0  0  0  0  0  0
  -21.1995   -7.6147   23.9715 H   0  0  0  0  0  0
  -21.1480   -6.0525   25.9082 H   0  0  0  0  0  0
  -22.0595   -2.7609   23.2847 H   0  0  0  0  0  0
  -22.4035  -11.9837   22.4797 H   0  0  0  0  0  0
  -21.1029  -13.1201   22.2610 H   0  0  0  0  0  0
  -24.6284  -15.8361   20.4864 H   0  0  0  0  0  0
  -26.2341  -15.6244   20.0121 H   0  0  0  0  0  0
  -26.7299  -32.5280   23.0916 H   0  0  0  0  0  0
  -25.0046  -33.9552   25.0255 H   0  0  0  0  0  0
  -22.7635  -31.2798   21.3662 H   0  0  0  0  0  0
  -23.3764  -35.9574   23.3288 H   0  0  0  0  0  0
  -24.3563  -36.8921   22.2069 H   0  0  0  0  0  0
  -23.7217  -37.6425   23.6712 H   0  0  0  0  0  0
  -26.1574  -31.4385   20.5956 H   0  0  0  0  0  0
  -26.8902  -30.7695   22.0136 H   0  0  0  0  0  0
  -28.1399  -28.7343   21.2605 H   0  0  0  0  0  0
  -25.9025  -25.8113   19.0044 H   0  0  0  0  0  0
  -23.9922  -27.2873   18.9694 H   0  0  0  0  0  0
  -23.8348  -30.5536   19.3922 H   0  0  0  0  0  0
  -22.8040  -29.2277   19.8336 H   0  0  0  0  0  0
  -25.1293  -36.1850   25.0804 H   0  0  0  0  0  0
  -21.0018  -28.3354   24.1340 H   0  0  0  0  0  0
  -20.5685  -26.2348   23.3600 H   0  0  0  0  0  0
  -21.6650  -26.7428   22.1172 H   0  0  0  0  0  0
  -19.6926  -25.6309   21.1219 H   0  0  0  0  0  0
  -19.6711  -27.3216   20.6719 H   0  0  0  0  0  0
  -17.4203  -26.6686   21.4029 H   0  0  0  0  0  0
  -18.0351  -26.0077   22.8999 H   0  0  0  0  0  0
  -19.7963  -30.7255   24.2280 H   0  0  0  0  0  0
  -17.5055  -31.6281   24.5165 H   0  0  0  0  0  0
  -15.5375  -30.3014   23.7658 H   0  0  0  0  0  0
  -15.8688  -28.0837   22.7091 H   0  0  0  0  0  0
  -24.5960  -30.6976   25.7623 H   0  0  0  0  0  0
  -24.8807  -32.2851   26.4641 H   0  0  0  0  0  0
  -25.7986  -30.8943   27.0171 H   0  0  0  0  0  0
  -26.3022  -29.6650   24.1233 H   0  0  0  0  0  0
  -27.4122  -29.7253   25.4720 H   0  0  0  0  0  0
  -27.8892  -30.4220   23.9444 H   0  0  0  0  0  0
  -27.2734  -33.3697   26.1824 H   0  0  0  0  0  0
  -28.4006  -32.6633   25.0344 H   0  0  0  0  0  0
  -28.0593  -31.8498   26.5515 H   0  0  0  0  0  0
  -28.2546  -38.0110   24.7527 H   0  0  0  0  0  0
  -28.1089  -36.2630   24.6290 H   0  0  0  0  0  0
  -27.2280  -37.1413   25.8871 H   0  0  0  0  0  0
  -20.9492  -29.8828   21.6789 H   0  0  0  0  0  0
  -26.0145  -38.2812   24.1444 H   0  0  0  0  0  0
  -31.4020  -21.5866   20.8784 H   0  0  0  0  0  0
  -32.1396  -17.3902   20.9813 H   0  0  0  0  0  0
  -28.1462  -18.8319   20.1457 H   0  0  0  0  0  0
  -27.0948  -24.2947   20.8392 H   0  0  0  0  0  0
  -27.4986  -24.3072   19.1503 H   0  0  0  0  0  0
  -27.7770  -21.6182   20.0726 H   0  0  0  0  0  0
  -28.7528  -16.0744   20.4858 H   0  0  0  0  0  0
  1 25  1  0  0  0
  1 30  2  0  0  0
  1 81  1  0  0  0
  2  3  1  0  0  0
  2 25  1  0  0  0
  2 86  1  0  0  0
  2 87  1  0  0  0
  3  4  1  0  0  0
  3 88  1  0  0  0
  3 89  1  0  0  0
  4  5  1  0  0  0
  4 90  1  0  0  0
  4 91  1  0  0  0
  5  6  1  0  0  0
  5 26  1  0  0  0
  5 92  1  0  0  0
  6 25  1  0  0  0
  6 93  1  0  0  0
  6 94  1  0  0  0
  7  8  2  0  0  0
  7 26  1  0  0  0
  7 29  1  0  0  0
  8  9  1  0  0  0
  8 22  1  0  0  0
  9 10  1  0  0  0
  9 27  2  0  0  0
 10 11  2  0  0  0
 10 15  1  0  0  0
 11 12  1  0  0  0
 11 95  1  0  0  0
 12 13  2  0  0  0
 12 96  1  0  0  0
 13 14  1  0  0  0
 13 31  1  0  0  0
 14 15  2  0  0  0
 14 97  1  0  0  0
 15 98  1  0  0  0
 16 17  2  0  0  0
 16 21  1  0  0  0
 16 31  1  0  0  0
 17 18  1  0  0  0
 17 99  1  0  0  0
 18 19  2  0  0  0
 18100  1  0  0  0
 19 20  1  0  0  0
 19 24  1  0  0  0
 20 21  2  0  0  0
 20101  1  0  0  0
 21 23  1  0  0  0
 22 28  1  0  0  0
 22 32  2  0  0  0
 26 27  1  0  0  0
 28102  1  0  0  0
 28103  1  0  0  0
 29104  1  0  0  0
 29105  1  0  0  0
 33 34  1  0  0  0
 33 66  1  0  0  0
 33 70  2  0  0  0
 34 36  1  0  0  0
 34 59  1  0  0  0
 34106  1  0  0  0
 35 44  2  0  0  0
 35 45  1  0  0  0
 35 68  1  0  0  0
 36 56  1  0  0  0
 36107  1  0  0  0
 37 39  1  0  0  0
 37 47  1  0  0  0
 37 66  1  0  0  0
 37108  1  0  0  0
 38 43  2  0  0  0
 38 46  1  0  0  0
 38 47  1  0  0  0
 39 64  1  0  0  0
 39 67  2  0  0  0
 40 52  1  0  0  0
 40 53  2  0  0  0
 40 58  1  0  0  0
 41109  1  0  0  0
 41110  1  0  0  0
 41111  1  0  0  0
 41 48  1  0  0  0
 42 43  1  0  0  0
 42 66  1  0  0  0
 42112  1  0  0  0
 42113  1  0  0  0
 43 44  1  0  0  0
 44114  1  0  0  0
 45 46  2  0  0  0
 45115  1  0  0  0
 46116  1  0  0  0
 47117  1  0  0  0
 47118  1  0  0  0
 48 56  1  0  0  0
 48 65  1  0  0  0
 48119  1  0  0  0
 49 50  1  0  0  0
 49 53  1  0  0  0
 49 64  1  0  0  0
 49120  1  0  0  0
 50 51  1  0  0  0
 50121  1  0  0  0
 50122  1  0  0  0
 51 52  1  0  0  0
 51123  1  0  0  0
 51124  1  0  0  0
 52125  1  0  0  0
 52126  1  0  0  0
 53 54  1  0  0  0
 54 55  2  0  0  0
 54127  1  0  0  0
 55 57  1  0  0  0
 55128  1  0  0  0
 56 69  2  0  0  0
 57 58  2  0  0  0
 57129  1  0  0  0
 58130  1  0  0  0
 59 60  1  0  0  0
 59 61  1  0  0  0
 59 62  1  0  0  0
 60131  1  0  0  0
 60132  1  0  0  0
 60133  1  0  0  0
 61134  1  0  0  0
 61135  1  0  0  0
 61136  1  0  0  0
 62137  1  0  0  0
 62138  1  0  0  0
 62139  1  0  0  0
 63 65  1  0  0  0
 63140  1  0  0  0
 63141  1  0  0  0
 63142  1  0  0  0
 64143  1  0  0  0
 65144  1  0  0  0
 68 78  1  0  0  0
 71 74  2  0  0  0
 71 75  1  0  0  0
 71145  1  0  0  0
 72 74  1  0  0  0
 72 76  2  0  0  0
 72146  1  0  0  0
 73 75  2  0  0  0
 73 76  1  0  0  0
 73147  1  0  0  0
 74 79  1  0  0  0
 75 80  1  0  0  0
 76 81  1  0  0  0
 77 78  1  0  0  0
 77 80  1  0  0  0
 77 82  2  0  0  0
 78148  1  0  0  0
 78149  1  0  0  0
 79 83  1  0  0  0
 79 84  1  0  0  0
 79 85  1  0  0  0
 80150  1  0  0  0
 81151  1  0  0  0
M  ISO  4   1 100  68 101  78 101  81 100
M  END
> <chiral flag>
0

> <version>
0

> <s_m_source_file>
/data/baiqing/PycharmProjects/Reinvent-master-3.2/result/LINK_invent/BTK/process_docking_weight1_custom_sum_contain_oxygen_bond_distance_aromatic_linkinvent_7_9_3/rearranged_h_0008.sdf

> <i_m_source_file_index>
39

> <r_mmod_Potential_Energy-OPLS-2005>
650.012390136719

> <r_mmod_Stretch_Energy-OPLS-2005>
345.354370117188

> <r_mmod_Bend_Energy-OPLS-2005>
271.144104003906

> <r_mmod_Torsional_Energy-OPLS-2005>
220.201370239258

> <r_mmod_Improper_Torsional_Energy-OPLS-2005>
5.48326110839844

> <r_mmod_Van_der_Waal_Energy-OPLS-2005>
136.876434326172

> <r_mmod_Electrostatic_Energy-OPLS-2005>
-349.512634277344

> <r_mmod_Solvation_Energy-OPLS-2005>
-248.878784179688

> <b_mmod_Minimization_Converged-OPLS-2005>
0

> <r_mmod_RMS_Derivative-OPLS-2005>
2.54411911964417

$$$$
39
                    3D
 Structure written by MMmdl.
156164  0  0  1  0            999 V2000
  -30.5179  -14.9059   20.4294 C   0  0  0  0  0  0
  -30.4473  -12.5566   19.4959 C   0  0  0  0  0  0
  -29.5217  -12.5225   18.2561 C   0  0  0  0  0  0
  -28.0522  -12.3149   18.6716 C   0  0  0  0  0  0
  -27.6349  -13.2382   19.8457 C   0  0  2  0  0  0
  -28.6763  -13.2205   20.9848 C   0  0  0  0  0  0
  -25.2480  -13.8204   20.5715 C   0  0  0  0  0  0
  -24.1780  -13.0439   20.9214 C   0  0  0  0  0  0
  -24.6382  -11.6920   20.8750 C   0  0  0  0  0  0
  -23.9068  -10.4295   21.0409 C   0  0  0  0  0  0
  -24.3618   -9.4206   21.9184 C   0  0  0  0  0  0
  -23.6289   -8.2241   22.0752 C   0  0  0  0  0  0
  -22.4270   -8.0281   21.3542 C   0  0  0  0  0  0
  -21.9911   -9.0255   20.4644 C   0  0  0  0  0  0
  -22.7242  -10.2133   20.3053 C   0  0  0  0  0  0
  -21.6850   -6.0734   22.5276 C   0  0  0  0  0  0
  -21.4014   -6.5637   23.8211 C   0  0  0  0  0  0
  -21.3659   -5.6790   24.9175 C   0  0  0  0  0  0
  -21.6042   -4.3051   24.7226 C   0  0  0  0  0  0
  -21.8820   -3.8144   23.4344 C   0  0  0  0  0  0
  -21.9190   -4.6964   22.3402 C   0  0  0  0  0  0
  -22.7800  -13.5217   21.1880 C   0  0  0  0  0  0
  -22.1660   -4.2149   21.0978 F   0  0  0  0  0  0
  -21.5627   -3.4535   25.7740 F   0  0  0  0  0  0
  -29.9612  -13.6317   20.4030 N   0  0  0  0  0  0
  -26.2899  -12.9416   20.3261 N   0  0  0  0  0  0
  -25.9311  -11.6555   20.5743 N   0  0  0  0  0  0
  -22.0449  -12.8202   22.0435 N   0  0  0  0  0  0
  -25.4163  -15.1937   20.4179 N   0  0  0  0  0  0
  -31.7064  -15.0188   20.1119 O   0  0  0  0  0  0
  -21.6629   -6.8879   21.4239 O   0  0  0  0  0  0
  -22.3485  -14.5521   20.6730 O   0  0  0  0  0  0
  -24.6436  -31.8434   23.1874 C   0  0  0  0  0  0
  -25.9212  -32.4685   23.8259 C   0  0  1  0  0  0
  -27.2150  -27.1399   20.1369 C   0  0  0  0  0  0
  -25.5962  -33.8489   24.2181 N   0  0  0  0  0  0
  -23.4460  -30.4634   21.5330 C   0  0  2  0  0  0
  -24.8924  -28.8910   20.1060 C   0  0  0  0  0  0
  -22.7566  -29.4538   22.4848 C   0  0  0  0  0  0
  -18.0306  -28.1391   22.8461 C   0  0  0  0  0  0
  -24.1488  -36.7255   23.2641 C   0  0  0  0  0  0
  -26.0005  -30.7172   21.3840 C   0  0  0  0  0  0
  -26.0691  -29.3293   20.7245 C   0  0  0  0  0  0
  -27.2271  -28.4676   20.7248 C   0  0  0  0  0  0
  -26.0102  -26.8013   19.4794 C   0  0  0  0  0  0
  -24.8758  -27.6405   19.4705 C   0  0  0  0  0  0
  -23.6710  -29.7943   20.1510 C   0  0  0  0  0  0
  -25.4116  -36.3022   24.0318 C   0  0  1  0  0  0
  -20.5917  -28.3712   23.1231 C   0  0  2  0  0  0
  -20.6785  -26.9414   22.5401 C   0  0  0  0  0  0
  -19.5761  -26.6374   21.5200 C   0  0  0  0  0  0
  -18.1940  -26.7925   22.1608 C   0  0  0  0  0  0
  -19.1564  -28.8868   23.2835 C   0  0  0  0  0  0
  -18.9485  -30.1457   23.8871 C   0  0  0  0  0  0
  -17.6485  -30.6586   24.0556 C   0  0  0  0  0  0
  -25.9070  -34.9400   23.5054 C   0  0  0  0  0  0
  -16.5373  -29.9084   23.6332 C   0  0  0  0  0  0
  -16.7293  -28.6503   23.0354 C   0  0  0  0  0  0
  -26.4537  -31.6559   25.0704 C   0  0  0  0  0  0
  -25.3736  -31.3753   26.1412 C   0  0  0  0  0  0
  -27.0402  -30.2960   24.6270 C   0  0  0  0  0  0
  -27.6060  -32.4334   25.7499 C   0  0  0  0  0  0
  -27.5574  -37.1767   24.8461 C   0  0  0  0  0  0
  -21.4262  -29.3036   22.3601 N   0  0  0  0  0  0
  -26.4272  -37.3745   23.9425 N   0  0  0  0  0  0
  -24.7170  -31.0296   22.0901 N   0  0  0  0  0  0
  -23.4214  -28.8078   23.2986 O   0  0  0  0  0  0
  -28.2878  -26.1845   20.2472 O   0  0  0  0  0  0
  -26.5659  -34.8903   22.4632 O   0  0  0  0  0  0
  -23.5561  -32.1312   23.7102 O   0  0  0  0  0  0
  -28.5444  -19.8004   20.9456 C   0  0  0  0  0  0
  -30.4526  -19.7493   19.5799 C   0  0  0  0  0  0
  -29.4482  -20.6074   20.1744 C   0  0  0  0  0  0
  -29.6776  -17.5281   20.5119 C   0  0  0  0  0  0
  -28.6404  -18.3414   21.1019 C   0  0  0  0  0  0
  -30.5758  -18.3133   19.7295 C   0  0  0  0  0  0
  -30.7052  -22.5802   19.4563 C   0  0  0  0  0  0
  -26.5571  -18.2654   22.3208 C   0  0  0  0  0  0
  -28.5975  -23.2805   20.5694 C   0  0  0  0  0  0
  -28.3031  -24.7184   19.7264 C   0  0  0  0  0  0
  -29.6738  -16.0085   20.6889 N   0  0  0  0  0  0
  -29.4150  -22.0972   19.9599 N   0  0  0  0  0  0
  -27.7240  -17.6132   21.8366 O   0  0  0  0  0  0
  -31.5760  -17.6912   19.0612 F   0  0  0  0  0  0
  -31.4789  -12.7241   19.1831 H   0  0  0  0  0  0
  -30.4449  -11.5940   20.0103 H   0  0  0  0  0  0
  -29.8341  -11.7314   17.5728 H   0  0  0  0  0  0
  -29.6145  -13.4582   17.7028 H   0  0  0  0  0  0
  -27.9407  -11.2715   18.9700 H   0  0  0  0  0  0
  -27.3899  -12.4596   17.8170 H   0  0  0  0  0  0
  -27.6116  -14.2484   19.4356 H   0  0  0  0  0  0
  -28.7503  -12.2266   21.4289 H   0  0  0  0  0  0
  -28.3792  -13.8935   21.7903 H   0  0  0  0  0  0
  -25.2762   -9.5675   22.4761 H   0  0  0  0  0  0
  -23.9996   -7.4628   22.7465 H   0  0  0  0  0  0
  -21.0844   -8.8773   19.8948 H   0  0  0  0  0  0
  -22.3701  -10.9671   19.6161 H   0  0  0  0  0  0
  -21.2008   -7.6145   23.9717 H   0  0  0  0  0  0
  -21.1482   -6.0518   25.9078 H   0  0  0  0  0  0
  -22.0601   -2.7605   23.2844 H   0  0  0  0  0  0
  -22.4064  -11.9862   22.4819 H   0  0  0  0  0  0
  -21.1065  -13.1223   22.2648 H   0  0  0  0  0  0
  -24.6472  -15.8436   20.5351 H   0  0  0  0  0  0
  -26.2696  -15.6425   20.1112 H   0  0  0  0  0  0
  -26.7268  -32.5291   23.0983 H   0  0  0  0  0  0
  -25.0095  -33.9597   25.0320 H   0  0  0  0  0  0
  -22.7481  -31.2893   21.3789 H   0  0  0  0  0  0
  -23.3755  -35.9579   23.3279 H   0  0  0  0  0  0
  -24.3579  -36.8921   22.2059 H   0  0  0  0  0  0
  -23.7228  -37.6439   23.6700 H   0  0  0  0  0  0
  -26.1527  -31.4704   20.6102 H   0  0  0  0  0  0
  -26.8728  -30.7693   22.0240 H   0  0  0  0  0  0
  -28.1247  -28.7940   21.2314 H   0  0  0  0  0  0
  -25.8868  -25.8501   18.9903 H   0  0  0  0  0  0
  -23.9753  -27.2978   18.9785 H   0  0  0  0  0  0
  -23.8119  -30.5703   19.3969 H   0  0  0  0  0  0
  -22.7849  -29.2398   19.8371 H   0  0  0  0  0  0
  -25.1291  -36.1848   25.0807 H   0  0  0  0  0  0
  -20.9999  -28.3308   24.1358 H   0  0  0  0  0  0
  -20.5667  -26.2329   23.3623 H   0  0  0  0  0  0
  -21.6651  -26.7416   22.1205 H   0  0  0  0  0  0
  -19.6926  -25.6282   21.1240 H   0  0  0  0  0  0
  -19.6706  -27.3170   20.6717 H   0  0  0  0  0  0
  -17.4208  -26.6677   21.4012 H   0  0  0  0  0  0
  -18.0342  -26.0074   22.9010 H   0  0  0  0  0  0
  -19.7967  -30.7259   24.2251 H   0  0  0  0  0  0
  -17.5050  -31.6270   24.5151 H   0  0  0  0  0  0
  -15.5375  -30.2978   23.7672 H   0  0  0  0  0  0
  -15.8694  -28.0809   22.7093 H   0  0  0  0  0  0
  -24.5921  -30.7089   25.7752 H   0  0  0  0  0  0
  -24.8920  -32.2936   26.4777 H   0  0  0  0  0  0
  -25.8028  -30.8980   27.0230 H   0  0  0  0  0  0
  -26.3013  -29.6678   24.1283 H   0  0  0  0  0  0
  -27.4041  -29.7261   25.4831 H   0  0  0  0  0  0
  -27.8909  -30.4209   23.9567 H   0  0  0  0  0  0
  -27.2644  -33.3659   26.2007 H   0  0  0  0  0  0
  -28.3907  -32.6859   25.0356 H   0  0  0  0  0  0
  -28.0689  -31.8513   26.5479 H   0  0  0  0  0  0
  -28.2543  -38.0105   24.7537 H   0  0  0  0  0  0
  -28.1111  -36.2633   24.6239 H   0  0  0  0  0  0
  -27.2307  -37.1358   25.8865 H   0  0  0  0  0  0
  -20.9481  -29.8788   21.6809 H   0  0  0  0  0  0
  -26.0140  -38.2803   24.1474 H   0  0  0  0  0  0
  -27.7417  -20.3341   21.4293 H   0  0  0  0  0  0
  -31.2038  -20.1816   18.9385 H   0  0  0  0  0  0
  -30.8460  -22.3114   18.4084 H   0  0  0  0  0  0
  -31.5328  -22.1669   20.0355 H   0  0  0  0  0  0
  -30.8115  -23.6622   19.5260 H   0  0  0  0  0  0
  -25.9138  -17.5287   22.8029 H   0  0  0  0  0  0
  -25.9838  -18.7179   21.5102 H   0  0  0  0  0  0
  -26.7982  -19.0255   23.0646 H   0  0  0  0  0  0
  -27.6399  -22.8891   20.9157 H   0  0  0  0  0  0
  -29.1227  -23.5592   21.4836 H   0  0  0  0  0  0
  -27.4151  -24.5226   19.1338 H   0  0  0  0  0  0
  -29.0698  -24.7765   18.9555 H   0  0  0  0  0  0
  -28.7914  -15.6927   21.0605 H   0  0  0  0  0  0
  1 25  1  0  0  0
  1 30  2  0  0  0
  1 81  1  0  0  0
  2  3  1  0  0  0
  2 25  1  0  0  0
  2 85  1  0  0  0
  2 86  1  0  0  0
  3  4  1  0  0  0
  3 87  1  0  0  0
  3 88  1  0  0  0
  4  5  1  0  0  0
  4 89  1  0  0  0
  4 90  1  0  0  0
  5  6  1  0  0  0
  5 26  1  0  0  0
  5 91  1  0  0  0
  6 25  1  0  0  0
  6 92  1  0  0  0
  6 93  1  0  0  0
  7  8  2  0  0  0
  7 26  1  0  0  0
  7 29  1  0  0  0
  8  9  1  0  0  0
  8 22  1  0  0  0
  9 10  1  0  0  0
  9 27  2  0  0  0
 10 11  2  0  0  0
 10 15  1  0  0  0
 11 12  1  0  0  0
 11 94  1  0  0  0
 12 13  2  0  0  0
 12 95  1  0  0  0
 13 14  1  0  0  0
 13 31  1  0  0  0
 14 15  2  0  0  0
 14 96  1  0  0  0
 15 97  1  0  0  0
 16 17  2  0  0  0
 16 21  1  0  0  0
 16 31  1  0  0  0
 17 18  1  0  0  0
 17 98  1  0  0  0
 18 19  2  0  0  0
 18 99  1  0  0  0
 19 20  1  0  0  0
 19 24  1  0  0  0
 20 21  2  0  0  0
 20100  1  0  0  0
 21 23  1  0  0  0
 22 28  1  0  0  0
 22 32  2  0  0  0
 26 27  1  0  0  0
 28101  1  0  0  0
 28102  1  0  0  0
 29103  1  0  0  0
 29104  1  0  0  0
 33 34  1  0  0  0
 33 66  1  0  0  0
 33 70  2  0  0  0
 34 36  1  0  0  0
 34 59  1  0  0  0
 34105  1  0  0  0
 35 44  2  0  0  0
 35 45  1  0  0  0
 35 68  1  0  0  0
 36 56  1  0  0  0
 36106  1  0  0  0
 37 39  1  0  0  0
 37 47  1  0  0  0
 37 66  1  0  0  0
 37107  1  0  0  0
 38 43  2  0  0  0
 38 46  1  0  0  0
 38 47  1  0  0  0
 39 64  1  0  0  0
 39 67  2  0  0  0
 40 52  1  0  0  0
 40 53  2  0  0  0
 40 58  1  0  0  0
 41108  1  0  0  0
 41109  1  0  0  0
 41110  1  0  0  0
 41 48  1  0  0  0
 42 43  1  0  0  0
 42 66  1  0  0  0
 42111  1  0  0  0
 42112  1  0  0  0
 43 44  1  0  0  0
 44113  1  0  0  0
 45 46  2  0  0  0
 45114  1  0  0  0
 46115  1  0  0  0
 47116  1  0  0  0
 47117  1  0  0  0
 48 56  1  0  0  0
 48 65  1  0  0  0
 48118  1  0  0  0
 49 50  1  0  0  0
 49 53  1  0  0  0
 49 64  1  0  0  0
 49119  1  0  0  0
 50 51  1  0  0  0
 50120  1  0  0  0
 50121  1  0  0  0
 51 52  1  0  0  0
 51122  1  0  0  0
 51123  1  0  0  0
 52124  1  0  0  0
 52125  1  0  0  0
 53 54  1  0  0  0
 54 55  2  0  0  0
 54126  1  0  0  0
 55 57  1  0  0  0
 55127  1  0  0  0
 56 69  2  0  0  0
 57 58  2  0  0  0
 57128  1  0  0  0
 58129  1  0  0  0
 59 60  1  0  0  0
 59 61  1  0  0  0
 59 62  1  0  0  0
 60130  1  0  0  0
 60131  1  0  0  0
 60132  1  0  0  0
 61133  1  0  0  0
 61134  1  0  0  0
 61135  1  0  0  0
 62136  1  0  0  0
 62137  1  0  0  0
 62138  1  0  0  0
 63 65  1  0  0  0
 63139  1  0  0  0
 63140  1  0  0  0
 63141  1  0  0  0
 64142  1  0  0  0
 65143  1  0  0  0
 68 80  1  0  0  0
 71 73  2  0  0  0
 71 75  1  0  0  0
 71144  1  0  0  0
 72 73  1  0  0  0
 72 76  2  0  0  0
 72145  1  0  0  0
 73 82  1  0  0  0
 74 75  2  0  0  0
 74 76  1  0  0  0
 74 81  1  0  0  0
 75 83  1  0  0  0
 76 84  1  0  0  0
 77 82  1  0  0  0
 77146  1  0  0  0
 77147  1  0  0  0
 77148  1  0  0  0
 78 83  1  0  0  0
 78149  1  0  0  0
 78150  1  0  0  0
 78151  1  0  0  0
 79 80  1  0  0  0
 79 82  1  0  0  0
 79152  1  0  0  0
 79153  1  0  0  0
 80154  1  0  0  0
 80155  1  0  0  0
 81156  1  0  0  0
M  ISO  4   1 100  68 101  80 101  81 100
M  END
> <chiral flag>
0

> <version>
0

> <s_m_source_file>
/data/baiqing/PycharmProjects/Reinvent-master-3.2/result/LINK_invent/BTK/process_docking_weight1_custom_sum_contain_oxygen_bond_distance_aromatic_linkinvent_7_9_3/rearranged_h_0008.sdf

> <i_m_source_file_index>
40

> <r_mmod_Potential_Energy-OPLS-2005>
419.729797363281

> <r_mmod_Stretch_Energy-OPLS-2005>
228.409332275391

> <r_mmod_Bend_Energy-OPLS-2005>
292.549774169922

> <r_mmod_Torsional_Energy-OPLS-2005>
205.989364624023

> <r_mmod_Improper_Torsional_Energy-OPLS-2005>
4.79656839370728

> <r_mmod_Van_der_Waal_Energy-OPLS-2005>
148.090087890625

> <r_mmod_Electrostatic_Energy-OPLS-2005>
-401.407287597656

> <r_mmod_Solvation_Energy-OPLS-2005>
-232.774841308594

> <b_mmod_Minimization_Converged-OPLS-2005>
0

> <r_mmod_RMS_Derivative-OPLS-2005>
1.41535878181458

$$$$
40
                    3D
 Structure written by MMmdl.
151159  0  0  1  0            999 V2000
  -30.6214  -14.6226   20.5089 C   0  0  0  0  0  0
  -30.4420  -12.3823   19.4487 C   0  0  0  0  0  0
  -29.5095  -12.5064   18.2226 C   0  0  0  0  0  0
  -28.0321  -12.3446   18.6340 C   0  0  0  0  0  0
  -27.6569  -13.2118   19.8658 C   0  0  2  0  0  0
  -28.7008  -13.0489   20.9942 C   0  0  0  0  0  0
  -25.2581  -13.8161   20.5680 C   0  0  0  0  0  0
  -24.1841  -13.0435   20.9190 C   0  0  0  0  0  0
  -24.6396  -11.6904   20.8738 C   0  0  0  0  0  0
  -23.9061  -10.4290   21.0411 C   0  0  0  0  0  0
  -24.3611   -9.4208   21.9189 C   0  0  0  0  0  0
  -23.6291   -8.2242   22.0753 C   0  0  0  0  0  0
  -22.4274   -8.0276   21.3542 C   0  0  0  0  0  0
  -21.9904   -9.0253   20.4648 C   0  0  0  0  0  0
  -22.7231  -10.2137   20.3062 C   0  0  0  0  0  0
  -21.6850   -6.0737   22.5283 C   0  0  0  0  0  0
  -21.4010   -6.5640   23.8217 C   0  0  0  0  0  0
  -21.3660   -5.6790   24.9177 C   0  0  0  0  0  0
  -21.6042   -4.3053   24.7226 C   0  0  0  0  0  0
  -21.8819   -3.8147   23.4348 C   0  0  0  0  0  0
  -21.9191   -4.6965   22.3406 C   0  0  0  0  0  0
  -22.7863  -13.5236   21.1852 C   0  0  0  0  0  0
  -22.1662   -4.2154   21.0983 F   0  0  0  0  0  0
  -21.5630   -3.4533   25.7735 F   0  0  0  0  0  0
  -30.0197  -13.3940   20.4372 N   0  0  0  0  0  0
  -26.3003  -12.9333   20.3313 N   0  0  0  0  0  0
  -25.9321  -11.6492   20.5748 N   0  0  0  0  0  0
  -22.0495  -12.8239   22.0406 N   0  0  0  0  0  0
  -25.4296  -15.1883   20.4094 N   0  0  0  0  0  0
  -31.7757  -14.7995   20.1067 O   0  0  0  0  0  0
  -21.6634   -6.8878   21.4243 O   0  0  0  0  0  0
  -22.3557  -14.5544   20.6697 O   0  0  0  0  0  0
  -24.6259  -31.8614   23.2046 C   0  0  0  0  0  0
  -25.9110  -32.4785   23.8371 C   0  0  1  0  0  0
  -27.2181  -27.3261   20.1082 C   0  0  0  0  0  0
  -25.5928  -33.8584   24.2301 N   0  0  0  0  0  0
  -23.4184  -30.4887   21.5475 C   0  0  2  0  0  0
  -24.8623  -28.9485   20.1103 C   0  0  0  0  0  0
  -22.7471  -29.4639   22.4935 C   0  0  0  0  0  0
  -18.0289  -28.1387   22.8492 C   0  0  0  0  0  0
  -24.1488  -36.7292   23.2637 C   0  0  0  0  0  0
  -25.9609  -30.7947   21.3747 C   0  0  0  0  0  0
  -26.0332  -29.4240   20.7143 C   0  0  0  0  0  0
  -27.2147  -28.6248   20.7036 C   0  0  0  0  0  0
  -26.0214  -26.9067   19.4787 C   0  0  0  0  0  0
  -24.8583  -27.6951   19.4837 C   0  0  0  0  0  0
  -23.6316  -29.8294   20.1609 C   0  0  0  0  0  0
  -25.4108  -36.3086   24.0338 C   0  0  1  0  0  0
  -20.5892  -28.3687   23.1286 C   0  0  2  0  0  0
  -20.6777  -26.9413   22.5409 C   0  0  0  0  0  0
  -19.5751  -26.6392   21.5214 C   0  0  0  0  0  0
  -18.1934  -26.7931   22.1633 C   0  0  0  0  0  0
  -19.1543  -28.8853   23.2888 C   0  0  0  0  0  0
  -18.9461  -30.1456   23.8905 C   0  0  0  0  0  0
  -17.6461  -30.6590   24.0566 C   0  0  0  0  0  0
  -25.9049  -34.9454   23.5121 C   0  0  0  0  0  0
  -16.5352  -29.9090   23.6330 C   0  0  0  0  0  0
  -16.7277  -28.6507   23.0355 C   0  0  0  0  0  0
  -26.4493  -31.6584   25.0732 C   0  0  0  0  0  0
  -25.3729  -31.3727   26.1464 C   0  0  0  0  0  0
  -27.0317  -30.3005   24.6168 C   0  0  0  0  0  0
  -27.6077  -32.4292   25.7486 C   0  0  0  0  0  0
  -27.5581  -37.1800   24.8467 C   0  0  0  0  0  0
  -21.4188  -29.3045   22.3680 N   0  0  0  0  0  0
  -26.4287  -37.3780   23.9417 N   0  0  0  0  0  0
  -24.6874  -31.0639   22.0992 N   0  0  0  0  0  0
  -23.4200  -28.8170   23.3002 O   0  0  0  0  0  0
  -28.3327  -26.4734   20.1570 O   0  0  0  0  0  0
  -26.5611  -34.8914   22.4683 O   0  0  0  0  0  0
  -23.5424  -32.1407   23.7376 O   0  0  0  0  0  0
  -28.7305  -17.8634   21.1601 C   0  0  0  0  0  0
  -28.6707  -19.2816   21.0333 C   0  0  0  0  0  0
  -30.9332  -17.8455   20.1907 C   0  0  0  0  0  0
  -29.8562  -17.1013   20.7439 C   0  0  0  0  0  0
  -29.7473  -20.0241   20.4828 C   0  0  0  0  0  0
  -30.8789  -19.2677   20.0719 C   0  0  0  0  0  0
  -28.8178  -22.4385   20.3875 C   0  0  0  0  0  0
  -29.2167  -23.9686   20.3736 C   0  0  0  0  0  0
  -28.0824  -25.0201   20.0146 C   0  0  0  0  0  0
  -29.7973  -21.4832   20.3770 N   0  0  0  0  0  0
  -29.8094  -15.6481   20.9110 N   0  0  0  0  0  0
  -27.6224  -22.1364   20.3994 O   0  0  0  0  0  0
  -31.9442  -19.9247   19.5515 F   0  0  0  0  0  0
  -31.4830  -12.5107   19.1468 H   0  0  0  0  0  0
  -30.3783  -11.3830   19.8816 H   0  0  0  0  0  0
  -29.7728  -11.7590   17.4731 H   0  0  0  0  0  0
  -29.6531  -13.4780   17.7468 H   0  0  0  0  0  0
  -27.8677  -11.2910   18.8634 H   0  0  0  0  0  0
  -27.3772  -12.5773   17.7936 H   0  0  0  0  0  0
  -27.6808  -14.2498   19.5327 H   0  0  0  0  0  0
  -28.7081  -12.0211   21.3601 H   0  0  0  0  0  0
  -28.4451  -13.6650   21.8574 H   0  0  0  0  0  0
  -25.2760   -9.5683   22.4758 H   0  0  0  0  0  0
  -24.0005   -7.4629   22.7466 H   0  0  0  0  0  0
  -21.0837   -8.8770   19.8954 H   0  0  0  0  0  0
  -22.3691  -10.9673   19.6166 H   0  0  0  0  0  0
  -21.1999   -7.6148   23.9721 H   0  0  0  0  0  0
  -21.1483   -6.0519   25.9081 H   0  0  0  0  0  0
  -22.0598   -2.7608   23.2841 H   0  0  0  0  0  0
  -22.4096  -11.9900   22.4808 H   0  0  0  0  0  0
  -21.1114  -13.1279   22.2607 H   0  0  0  0  0  0
  -24.6570  -15.8375   20.5101 H   0  0  0  0  0  0
  -26.2688  -15.6244   20.0492 H   0  0  0  0  0  0
  -26.7178  -32.5455   23.1121 H   0  0  0  0  0  0
  -25.0073  -33.9729   25.0444 H   0  0  0  0  0  0
  -22.7131  -31.3108   21.4090 H   0  0  0  0  0  0
  -23.3755  -35.9618   23.3290 H   0  0  0  0  0  0
  -24.3591  -36.8915   22.2055 H   0  0  0  0  0  0
  -23.7228  -37.6490   23.6656 H   0  0  0  0  0  0
  -26.0939  -31.5601   20.6086 H   0  0  0  0  0  0
  -26.8411  -30.8407   22.0040 H   0  0  0  0  0  0
  -28.1130  -28.9845   21.1860 H   0  0  0  0  0  0
  -25.9476  -25.9523   18.9804 H   0  0  0  0  0  0
  -23.9615  -27.3276   19.0038 H   0  0  0  0  0  0
  -23.7526  -30.6094   19.4083 H   0  0  0  0  0  0
  -22.7496  -29.2630   19.8559 H   0  0  0  0  0  0
  -25.1284  -36.1945   25.0829 H   0  0  0  0  0  0
  -20.9998  -28.3259   24.1401 H   0  0  0  0  0  0
  -20.5694  -26.2293   23.3604 H   0  0  0  0  0  0
  -21.6646  -26.7453   22.1192 H   0  0  0  0  0  0
  -19.6909  -25.6305   21.1243 H   0  0  0  0  0  0
  -19.6685  -27.3206   20.6747 H   0  0  0  0  0  0
  -17.4201  -26.6678   21.4038 H   0  0  0  0  0  0
  -18.0338  -26.0075   22.9034 H   0  0  0  0  0  0
  -19.7933  -30.7273   24.2278 H   0  0  0  0  0  0
  -17.5014  -31.6272   24.5165 H   0  0  0  0  0  0
  -15.5353  -30.2996   23.7647 H   0  0  0  0  0  0
  -15.8678  -28.0831   22.7064 H   0  0  0  0  0  0
  -24.5874  -30.7117   25.7787 H   0  0  0  0  0  0
  -24.8954  -32.2897   26.4924 H   0  0  0  0  0  0
  -25.8047  -30.8864   27.0219 H   0  0  0  0  0  0
  -26.2878  -29.6763   24.1203 H   0  0  0  0  0  0
  -27.4032  -29.7254   25.4660 H   0  0  0  0  0  0
  -27.8748  -30.4295   23.9377 H   0  0  0  0  0  0
  -27.2734  -33.3615   26.2051 H   0  0  0  0  0  0
  -28.3891  -32.6807   25.0301 H   0  0  0  0  0  0
  -28.0733  -31.8406   26.5400 H   0  0  0  0  0  0
  -28.2601  -38.0099   24.7519 H   0  0  0  0  0  0
  -28.1078  -36.2630   24.6285 H   0  0  0  0  0  0
  -27.2303  -37.1436   25.8872 H   0  0  0  0  0  0
  -20.9358  -29.8774   21.6900 H   0  0  0  0  0  0
  -26.0174  -38.2857   24.1415 H   0  0  0  0  0  0
  -27.8801  -17.3577   21.5963 H   0  0  0  0  0  0
  -27.7872  -19.7931   21.3870 H   0  0  0  0  0  0
  -31.8249  -17.3413   19.8505 H   0  0  0  0  0  0
  -30.0537  -24.1015   19.6883 H   0  0  0  0  0  0
  -29.5987  -24.2018   21.3670 H   0  0  0  0  0  0
  -27.2117  -24.7730   20.6250 H   0  0  0  0  0  0
  -27.7983  -24.8275   18.9793 H   0  0  0  0  0  0
  -30.7331  -21.8453   20.2498 H   0  0  0  0  0  0
  -28.9345  -15.3048   21.2770 H   0  0  0  0  0  0
  1 25  1  0  0  0
  1 30  2  0  0  0
  1 81  1  0  0  0
  2  3  1  0  0  0
  2 25  1  0  0  0
  2 84  1  0  0  0
  2 85  1  0  0  0
  3  4  1  0  0  0
  3 86  1  0  0  0
  3 87  1  0  0  0
  4  5  1  0  0  0
  4 88  1  0  0  0
  4 89  1  0  0  0
  5  6  1  0  0  0
  5 26  1  0  0  0
  5 90  1  0  0  0
  6 25  1  0  0  0
  6 91  1  0  0  0
  6 92  1  0  0  0
  7  8  2  0  0  0
  7 26  1  0  0  0
  7 29  1  0  0  0
  8  9  1  0  0  0
  8 22  1  0  0  0
  9 10  1  0  0  0
  9 27  2  0  0  0
 10 11  2  0  0  0
 10 15  1  0  0  0
 11 12  1  0  0  0
 11 93  1  0  0  0
 12 13  2  0  0  0
 12 94  1  0  0  0
 13 14  1  0  0  0
 13 31  1  0  0  0
 14 15  2  0  0  0
 14 95  1  0  0  0
 15 96  1  0  0  0
 16 17  2  0  0  0
 16 21  1  0  0  0
 16 31  1  0  0  0
 17 18  1  0  0  0
 17 97  1  0  0  0
 18 19  2  0  0  0
 18 98  1  0  0  0
 19 20  1  0  0  0
 19 24  1  0  0  0
 20 21  2  0  0  0
 20 99  1  0  0  0
 21 23  1  0  0  0
 22 28  1  0  0  0
 22 32  2  0  0  0
 26 27  1  0  0  0
 28100  1  0  0  0
 28101  1  0  0  0
 29102  1  0  0  0
 29103  1  0  0  0
 33 34  1  0  0  0
 33 66  1  0  0  0
 33 70  2  0  0  0
 34 36  1  0  0  0
 34 59  1  0  0  0
 34104  1  0  0  0
 35 44  2  0  0  0
 35 45  1  0  0  0
 35 68  1  0  0  0
 36 56  1  0  0  0
 36105  1  0  0  0
 37 39  1  0  0  0
 37 47  1  0  0  0
 37 66  1  0  0  0
 37106  1  0  0  0
 38 43  2  0  0  0
 38 46  1  0  0  0
 38 47  1  0  0  0
 39 64  1  0  0  0
 39 67  2  0  0  0
 40 52  1  0  0  0
 40 53  2  0  0  0
 40 58  1  0  0  0
 41107  1  0  0  0
 41108  1  0  0  0
 41109  1  0  0  0
 41 48  1  0  0  0
 42 43  1  0  0  0
 42 66  1  0  0  0
 42110  1  0  0  0
 42111  1  0  0  0
 43 44  1  0  0  0
 44112  1  0  0  0
 45 46  2  0  0  0
 45113  1  0  0  0
 46114  1  0  0  0
 47115  1  0  0  0
 47116  1  0  0  0
 48 56  1  0  0  0
 48 65  1  0  0  0
 48117  1  0  0  0
 49 50  1  0  0  0
 49 53  1  0  0  0
 49 64  1  0  0  0
 49118  1  0  0  0
 50 51  1  0  0  0
 50119  1  0  0  0
 50120  1  0  0  0
 51 52  1  0  0  0
 51121  1  0  0  0
 51122  1  0  0  0
 52123  1  0  0  0
 52124  1  0  0  0
 53 54  1  0  0  0
 54 55  2  0  0  0
 54125  1  0  0  0
 55 57  1  0  0  0
 55126  1  0  0  0
 56 69  2  0  0  0
 57 58  2  0  0  0
 57127  1  0  0  0
 58128  1  0  0  0
 59 60  1  0  0  0
 59 61  1  0  0  0
 59 62  1  0  0  0
 60129  1  0  0  0
 60130  1  0  0  0
 60131  1  0  0  0
 61132  1  0  0  0
 61133  1  0  0  0
 61134  1  0  0  0
 62135  1  0  0  0
 62136  1  0  0  0
 62137  1  0  0  0
 63 65  1  0  0  0
 63138  1  0  0  0
 63139  1  0  0  0
 63140  1  0  0  0
 64141  1  0  0  0
 65142  1  0  0  0
 68 79  1  0  0  0
 71 72  2  0  0  0
 71 74  1  0  0  0
 71143  1  0  0  0
 72 75  1  0  0  0
 72144  1  0  0  0
 73 74  2  0  0  0
 73 76  1  0  0  0
 73145  1  0  0  0
 74 81  1  0  0  0
 75 76  2  0  0  0
 75 80  1  0  0  0
 76 83  1  0  0  0
 77 78  1  0  0  0
 77 80  1  0  0  0
 77 82  2  0  0  0
 78 79  1  0  0  0
 78146  1  0  0  0
 78147  1  0  0  0
 79148  1  0  0  0
 79149  1  0  0  0
 80150  1  0  0  0
 81151  1  0  0  0
M  ISO  4   1 100  68 101  79 101  81 100
M  END
> <chiral flag>
0

> <version>
0

> <s_m_source_file>
/data/baiqing/PycharmProjects/Reinvent-master-3.2/result/LINK_invent/BTK/process_docking_weight1_custom_sum_contain_oxygen_bond_distance_aromatic_linkinvent_7_9_3/rearranged_h_0008.sdf

> <i_m_source_file_index>
41

> <r_mmod_Potential_Energy-OPLS-2005>
-27.2396717071533

> <r_mmod_Stretch_Energy-OPLS-2005>
74.1498413085938

> <r_mmod_Bend_Energy-OPLS-2005>
137.099090576172

> <r_mmod_Torsional_Energy-OPLS-2005>
218.325881958008

> <r_mmod_Improper_Torsional_Energy-OPLS-2005>
3.98355317115784

> <r_mmod_Van_der_Waal_Energy-OPLS-2005>
149.183334350586

> <r_mmod_Electrostatic_Energy-OPLS-2005>
-431.605224609375

> <r_mmod_Solvation_Energy-OPLS-2005>
-223.176300048828

> <b_mmod_Minimization_Converged-OPLS-2005>
0

> <r_mmod_RMS_Derivative-OPLS-2005>
0.949476361274719

$$$$
41
                    3D
 Structure written by MMmdl.
161169  0  0  1  0            999 V2000
  -30.5907  -14.6766   20.4950 C   0  0  0  0  0  0
  -30.4493  -12.4135   19.4535 C   0  0  0  0  0  0
  -29.5122  -12.5056   18.2269 C   0  0  0  0  0  0
  -28.0356  -12.3338   18.6407 C   0  0  0  0  0  0
  -27.6545  -13.2130   19.8607 C   0  0  2  0  0  0
  -28.6986  -13.0697   20.9916 C   0  0  0  0  0  0
  -25.2563  -13.8153   20.5659 C   0  0  0  0  0  0
  -24.1835  -13.0433   20.9205 C   0  0  0  0  0  0
  -24.6391  -11.6898   20.8749 C   0  0  0  0  0  0
  -23.9053  -10.4288   21.0412 C   0  0  0  0  0  0
  -24.3610   -9.4208   21.9189 C   0  0  0  0  0  0
  -23.6297   -8.2236   22.0753 C   0  0  0  0  0  0
  -22.4282   -8.0273   21.3539 C   0  0  0  0  0  0
  -21.9908   -9.0245   20.4648 C   0  0  0  0  0  0
  -22.7227  -10.2126   20.3063 C   0  0  0  0  0  0
  -21.6849   -6.0735   22.5284 C   0  0  0  0  0  0
  -21.4011   -6.5636   23.8213 C   0  0  0  0  0  0
  -21.3662   -5.6792   24.9179 C   0  0  0  0  0  0
  -21.6040   -4.3054   24.7223 C   0  0  0  0  0  0
  -21.8823   -3.8142   23.4342 C   0  0  0  0  0  0
  -21.9192   -4.6963   22.3404 C   0  0  0  0  0  0
  -22.7854  -13.5233   21.1862 C   0  0  0  0  0  0
  -22.1665   -4.2148   21.0980 F   0  0  0  0  0  0
  -21.5626   -3.4535   25.7731 F   0  0  0  0  0  0
  -30.0147  -13.4309   20.4329 N   0  0  0  0  0  0
  -26.2988  -12.9330   20.3290 N   0  0  0  0  0  0
  -25.9318  -11.6488   20.5748 N   0  0  0  0  0  0
  -22.0502  -12.8225   22.0416 N   0  0  0  0  0  0
  -25.4249  -15.1865   20.3981 N   0  0  0  0  0  0
  -31.7441  -14.8710   20.0968 O   0  0  0  0  0  0
  -21.6640   -6.8873   21.4244 O   0  0  0  0  0  0
  -22.3547  -14.5544   20.6709 O   0  0  0  0  0  0
  -24.6264  -31.8601   23.1985 C   0  0  0  0  0  0
  -25.9109  -32.4783   23.8320 C   0  0  1  0  0  0
  -27.2296  -27.3088   20.1177 C   0  0  0  0  0  0
  -25.5939  -33.8576   24.2270 N   0  0  0  0  0  0
  -23.4220  -30.4849   21.5383 C   0  0  2  0  0  0
  -24.8699  -28.9336   20.1079 C   0  0  0  0  0  0
  -22.7475  -29.4657   22.4882 C   0  0  0  0  0  0
  -18.0317  -28.1409   22.8492 C   0  0  0  0  0  0
  -24.1493  -36.7273   23.2636 C   0  0  0  0  0  0
  -25.9634  -30.7855   21.3721 C   0  0  0  0  0  0
  -26.0369  -29.4114   20.7172 C   0  0  0  0  0  0
  -27.2172  -28.6095   20.7132 C   0  0  0  0  0  0
  -26.0410  -26.8916   19.4736 C   0  0  0  0  0  0
  -24.8748  -27.6799   19.4774 C   0  0  0  0  0  0
  -23.6386  -29.8158   20.1556 C   0  0  0  0  0  0
  -25.4116  -36.3079   24.0337 C   0  0  1  0  0  0
  -20.5913  -28.3718   23.1269 C   0  0  2  0  0  0
  -20.6809  -26.9442   22.5411 C   0  0  0  0  0  0
  -19.5778  -26.6416   21.5217 C   0  0  0  0  0  0
  -18.1957  -26.7961   22.1623 C   0  0  0  0  0  0
  -19.1565  -28.8876   23.2892 C   0  0  0  0  0  0
  -18.9492  -30.1476   23.8912 C   0  0  0  0  0  0
  -17.6489  -30.6610   24.0583 C   0  0  0  0  0  0
  -25.9052  -34.9451   23.5104 C   0  0  0  0  0  0
  -16.5379  -29.9115   23.6341 C   0  0  0  0  0  0
  -16.7308  -28.6534   23.0363 C   0  0  0  0  0  0
  -26.4484  -31.6591   25.0689 C   0  0  0  0  0  0
  -25.3724  -31.3766   26.1430 C   0  0  0  0  0  0
  -27.0338  -30.3026   24.6136 C   0  0  0  0  0  0
  -27.6062  -32.4311   25.7449 C   0  0  0  0  0  0
  -27.5598  -37.1778   24.8455 C   0  0  0  0  0  0
  -21.4187  -29.3072   22.3637 N   0  0  0  0  0  0
  -26.4281  -37.3789   23.9437 N   0  0  0  0  0  0
  -24.6891  -31.0613   22.0928 N   0  0  0  0  0  0
  -23.4189  -28.8221   23.2987 O   0  0  0  0  0  0
  -28.3535  -26.4649   20.1851 O   0  0  0  0  0  0
  -26.5607  -34.8924   22.4657 O   0  0  0  0  0  0
  -23.5427  -32.1391   23.7312 O   0  0  0  0  0  0
  -30.6602  -18.0684   20.3584 C   0  0  0  0  0  0
  -30.4013  -19.4838   20.2807 C   0  0  0  0  0  0
  -28.3634  -17.7022   20.9326 C   0  0  0  0  0  0
  -28.0862  -19.0938   20.8108 C   0  0  0  0  0  0
  -29.6410  -17.1351   20.7104 C   0  0  0  0  0  0
  -29.1088  -20.0464   20.5289 C   0  0  0  0  0  0
  -26.6577  -19.5306   20.9949 C   0  0  0  0  0  0
  -24.5994  -20.4363   20.0147 C   0  0  0  0  0  0
  -26.5630  -20.0448   18.5554 C   0  0  0  0  0  0
  -29.2770  -24.0168   20.5499 C   0  0  0  0  0  0
  -28.2268  -25.0129   19.8817 C   0  0  0  0  0  0
  -29.5403  -22.5225   20.0128 C   0  0  0  0  0  0
  -29.7458  -15.6797   20.8981 N   0  0  0  0  0  0
  -25.9998  -20.0165   19.9116 N   0  0  0  0  0  0
  -26.1249  -19.3940   22.0999 O   0  0  0  0  0  0
  -28.7564  -21.4234   20.5742 O   0  0  0  0  0  0
  -31.4864  -12.5596   19.1438 H   0  0  0  0  0  0
  -30.4070  -11.4188   19.8982 H   0  0  0  0  0  0
  -29.7821  -11.7489   17.4887 H   0  0  0  0  0  0
  -29.6457  -13.4692   17.7342 H   0  0  0  0  0  0
  -27.8815  -11.2820   18.8847 H   0  0  0  0  0  0
  -27.3790  -12.5492   17.7974 H   0  0  0  0  0  0
  -27.6715  -14.2464   19.5132 H   0  0  0  0  0  0
  -28.7176  -12.0458   21.3680 H   0  0  0  0  0  0
  -28.4296  -13.6928   21.8469 H   0  0  0  0  0  0
  -25.2763   -9.5677   22.4754 H   0  0  0  0  0  0
  -24.0006   -7.4622   22.7464 H   0  0  0  0  0  0
  -21.0843   -8.8769   19.8947 H   0  0  0  0  0  0
  -22.3702  -10.9664   19.6162 H   0  0  0  0  0  0
  -21.2013   -7.6150   23.9715 H   0  0  0  0  0  0
  -21.1479   -6.0523   25.9079 H   0  0  0  0  0  0
  -22.0597   -2.7605   23.2842 H   0  0  0  0  0  0
  -22.4116  -11.9880   22.4802 H   0  0  0  0  0  0
  -21.1120  -13.1243   22.2635 H   0  0  0  0  0  0
  -24.6378  -15.8221   20.4648 H   0  0  0  0  0  0
  -26.2346  -15.5993   19.9553 H   0  0  0  0  0  0
  -26.7171  -32.5450   23.1058 H   0  0  0  0  0  0
  -25.0145  -33.9715   25.0457 H   0  0  0  0  0  0
  -22.7187  -31.3082   21.3939 H   0  0  0  0  0  0
  -23.3783  -35.9571   23.3248 H   0  0  0  0  0  0
  -24.3619  -36.8942   22.2066 H   0  0  0  0  0  0
  -23.7194  -37.6443   23.6673 H   0  0  0  0  0  0
  -26.1023  -31.5458   20.6021 H   0  0  0  0  0  0
  -26.8412  -30.8344   22.0036 H   0  0  0  0  0  0
  -28.1102  -28.9717   21.2036 H   0  0  0  0  0  0
  -25.9859  -25.9401   18.9656 H   0  0  0  0  0  0
  -23.9822  -27.3138   18.9882 H   0  0  0  0  0  0
  -23.7594  -30.5889   19.3958 H   0  0  0  0  0  0
  -22.7574  -29.2459   19.8548 H   0  0  0  0  0  0
  -25.1293  -36.1915   25.0828 H   0  0  0  0  0  0
  -21.0055  -28.3313   24.1368 H   0  0  0  0  0  0
  -20.5748  -26.2328   23.3613 H   0  0  0  0  0  0
  -21.6679  -26.7504   22.1191 H   0  0  0  0  0  0
  -19.6944  -25.6334   21.1260 H   0  0  0  0  0  0
  -19.6724  -27.3207   20.6732 H   0  0  0  0  0  0
  -17.4251  -26.6748   21.3998 H   0  0  0  0  0  0
  -18.0340  -26.0094   22.9007 H   0  0  0  0  0  0
  -19.7962  -30.7300   24.2270 H   0  0  0  0  0  0
  -17.5055  -31.6284   24.5195 H   0  0  0  0  0  0
  -15.5388  -30.3034   23.7644 H   0  0  0  0  0  0
  -15.8714  -28.0866   22.7050 H   0  0  0  0  0  0
  -24.5878  -30.7124   25.7790 H   0  0  0  0  0  0
  -24.8918  -32.2950   26.4814 H   0  0  0  0  0  0
  -25.8047  -30.8990   27.0232 H   0  0  0  0  0  0
  -26.2907  -29.6764   24.1183 H   0  0  0  0  0  0
  -27.4105  -29.7295   25.4617 H   0  0  0  0  0  0
  -27.8743  -30.4359   23.9320 H   0  0  0  0  0  0
  -27.2704  -33.3635   26.1996 H   0  0  0  0  0  0
  -28.3869  -32.6832   25.0261 H   0  0  0  0  0  0
  -28.0711  -31.8441   26.5379 H   0  0  0  0  0  0
  -28.2568  -38.0131   24.7616 H   0  0  0  0  0  0
  -28.1155  -36.2677   24.6131 H   0  0  0  0  0  0
  -27.2353  -37.1247   25.8866 H   0  0  0  0  0  0
  -20.9345  -29.8767   21.6835 H   0  0  0  0  0  0
  -26.0161  -38.2855   24.1490 H   0  0  0  0  0  0
  -31.6646  -17.7135   20.1702 H   0  0  0  0  0  0
  -31.2301  -20.1365   20.0457 H   0  0  0  0  0  0
  -27.5409  -17.0502   21.1927 H   0  0  0  0  0  0
  -24.4097  -20.9840   20.9394 H   0  0  0  0  0  0
  -23.9480  -19.5613   20.0010 H   0  0  0  0  0  0
  -24.3019  -21.0884   19.1932 H   0  0  0  0  0  0
  -27.0455  -19.0984   18.3046 H   0  0  0  0  0  0
  -27.3020  -20.8404   18.4588 H   0  0  0  0  0  0
  -25.8024  -20.2159   17.7931 H   0  0  0  0  0  0
  -29.0880  -23.9728   21.6217 H   0  0  0  0  0  0
  -30.2361  -24.5286   20.4658 H   0  0  0  0  0  0
  -27.2413  -24.6503   20.1749 H   0  0  0  0  0  0
  -28.2839  -24.9058   18.7985 H   0  0  0  0  0  0
  -30.5882  -22.2984   20.2117 H   0  0  0  0  0  0
  -29.4385  -22.5060   18.9280 H   0  0  0  0  0  0
  -28.8939  -15.2740   21.2555 H   0  0  0  0  0  0
  1 25  1  0  0  0
  1 30  2  0  0  0
  1 83  1  0  0  0
  2  3  1  0  0  0
  2 25  1  0  0  0
  2 87  1  0  0  0
  2 88  1  0  0  0
  3  4  1  0  0  0
  3 89  1  0  0  0
  3 90  1  0  0  0
  4  5  1  0  0  0
  4 91  1  0  0  0
  4 92  1  0  0  0
  5  6  1  0  0  0
  5 26  1  0  0  0
  5 93  1  0  0  0
  6 25  1  0  0  0
  6 94  1  0  0  0
  6 95  1  0  0  0
  7  8  2  0  0  0
  7 26  1  0  0  0
  7 29  1  0  0  0
  8  9  1  0  0  0
  8 22  1  0  0  0
  9 10  1  0  0  0
  9 27  2  0  0  0
 10 11  2  0  0  0
 10 15  1  0  0  0
 11 12  1  0  0  0
 11 96  1  0  0  0
 12 13  2  0  0  0
 12 97  1  0  0  0
 13 14  1  0  0  0
 13 31  1  0  0  0
 14 15  2  0  0  0
 14 98  1  0  0  0
 15 99  1  0  0  0
 16 17  2  0  0  0
 16 21  1  0  0  0
 16 31  1  0  0  0
 17 18  1  0  0  0
 17100  1  0  0  0
 18 19  2  0  0  0
 18101  1  0  0  0
 19 20  1  0  0  0
 19 24  1  0  0  0
 20 21  2  0  0  0
 20102  1  0  0  0
 21 23  1  0  0  0
 22 28  1  0  0  0
 22 32  2  0  0  0
 26 27  1  0  0  0
 28103  1  0  0  0
 28104  1  0  0  0
 29105  1  0  0  0
 29106  1  0  0  0
 33 34  1  0  0  0
 33 66  1  0  0  0
 33 70  2  0  0  0
 34 36  1  0  0  0
 34 59  1  0  0  0
 34107  1  0  0  0
 35 44  2  0  0  0
 35 45  1  0  0  0
 35 68  1  0  0  0
 36 56  1  0  0  0
 36108  1  0  0  0
 37 39  1  0  0  0
 37 47  1  0  0  0
 37 66  1  0  0  0
 37109  1  0  0  0
 38 43  2  0  0  0
 38 46  1  0  0  0
 38 47  1  0  0  0
 39 64  1  0  0  0
 39 67  2  0  0  0
 40 52  1  0  0  0
 40 53  2  0  0  0
 40 58  1  0  0  0
 41110  1  0  0  0
 41111  1  0  0  0
 41112  1  0  0  0
 41 48  1  0  0  0
 42 43  1  0  0  0
 42 66  1  0  0  0
 42113  1  0  0  0
 42114  1  0  0  0
 43 44  1  0  0  0
 44115  1  0  0  0
 45 46  2  0  0  0
 45116  1  0  0  0
 46117  1  0  0  0
 47118  1  0  0  0
 47119  1  0  0  0
 48 56  1  0  0  0
 48 65  1  0  0  0
 48120  1  0  0  0
 49 50  1  0  0  0
 49 53  1  0  0  0
 49 64  1  0  0  0
 49121  1  0  0  0
 50 51  1  0  0  0
 50122  1  0  0  0
 50123  1  0  0  0
 51 52  1  0  0  0
 51124  1  0  0  0
 51125  1  0  0  0
 52126  1  0  0  0
 52127  1  0  0  0
 53 54  1  0  0  0
 54 55  2  0  0  0
 54128  1  0  0  0
 55 57  1  0  0  0
 55129  1  0  0  0
 56 69  2  0  0  0
 57 58  2  0  0  0
 57130  1  0  0  0
 58131  1  0  0  0
 59 60  1  0  0  0
 59 61  1  0  0  0
 59 62  1  0  0  0
 60132  1  0  0  0
 60133  1  0  0  0
 60134  1  0  0  0
 61135  1  0  0  0
 61136  1  0  0  0
 61137  1  0  0  0
 62138  1  0  0  0
 62139  1  0  0  0
 62140  1  0  0  0
 63 65  1  0  0  0
 63141  1  0  0  0
 63142  1  0  0  0
 63143  1  0  0  0
 64144  1  0  0  0
 65145  1  0  0  0
 68 81  1  0  0  0
 71 72  2  0  0  0
 71 75  1  0  0  0
 71146  1  0  0  0
 72 76  1  0  0  0
 72147  1  0  0  0
 73 74  1  0  0  0
 73 75  2  0  0  0
 73148  1  0  0  0
 74 76  2  0  0  0
 74 77  1  0  0  0
 75 83  1  0  0  0
 76 86  1  0  0  0
 77 84  1  0  0  0
 77 85  2  0  0  0
 78 84  1  0  0  0
 78149  1  0  0  0
 78150  1  0  0  0
 78151  1  0  0  0
 79 84  1  0  0  0
 79152  1  0  0  0
 79153  1  0  0  0
 79154  1  0  0  0
 80 81  1  0  0  0
 80 82  1  0  0  0
 80155  1  0  0  0
 80156  1  0  0  0
 81157  1  0  0  0
 81158  1  0  0  0
 82 86  1  0  0  0
 82159  1  0  0  0
 82160  1  0  0  0
 83161  1  0  0  0
M  ISO  4   1 100  68 101  81 101  83 100
M  END
> <chiral flag>
0

> <version>
0

> <s_m_source_file>
/data/baiqing/PycharmProjects/Reinvent-master-3.2/result/LINK_invent/BTK/process_docking_weight1_custom_sum_contain_oxygen_bond_distance_aromatic_linkinvent_7_9_3/rearranged_h_0008.sdf

> <i_m_source_file_index>
42

> <r_mmod_Potential_Energy-OPLS-2005>
148.260116577148

> <r_mmod_Stretch_Energy-OPLS-2005>
90.87646484375

> <r_mmod_Bend_Energy-OPLS-2005>
183.293243408203

> <r_mmod_Torsional_Energy-OPLS-2005>
259.864074707031

> <r_mmod_Improper_Torsional_Energy-OPLS-2005>
4.83461284637451

> <r_mmod_Van_der_Waal_Energy-OPLS-2005>
145.426483154297

> <r_mmod_Electrostatic_Energy-OPLS-2005>
-368.235321044922

> <r_mmod_Solvation_Energy-OPLS-2005>
-225.894317626953

> <b_mmod_Minimization_Converged-OPLS-2005>
0

> <r_mmod_RMS_Derivative-OPLS-2005>
2.05776381492615

$$$$
42
                    3D
 Structure written by MMmdl.
151159  0  0  1  0            999 V2000
  -30.5821  -14.9261   20.5135 C   0  0  0  0  0  0
  -30.4331  -12.5858   19.5123 C   0  0  0  0  0  0
  -29.5192  -12.5257   18.2643 C   0  0  0  0  0  0
  -28.0503  -12.3146   18.6689 C   0  0  0  0  0  0
  -27.6292  -13.2424   19.8343 C   0  0  2  0  0  0
  -28.6572  -13.2534   20.9789 C   0  0  0  0  0  0
  -25.2485  -13.8212   20.5688 C   0  0  0  0  0  0
  -24.1779  -13.0443   20.9173 C   0  0  0  0  0  0
  -24.6363  -11.6919   20.8711 C   0  0  0  0  0  0
  -23.9049  -10.4293   21.0401 C   0  0  0  0  0  0
  -24.3604   -9.4215   21.9169 C   0  0  0  0  0  0
  -23.6287   -8.2251   22.0753 C   0  0  0  0  0  0
  -22.4275   -8.0275   21.3539 C   0  0  0  0  0  0
  -21.9905   -9.0254   20.4648 C   0  0  0  0  0  0
  -22.7232  -10.2134   20.3062 C   0  0  0  0  0  0
  -21.6861   -6.0706   22.5260 C   0  0  0  0  0  0
  -21.4014   -6.5622   23.8183 C   0  0  0  0  0  0
  -21.3661   -5.6797   24.9150 C   0  0  0  0  0  0
  -21.6042   -4.3058   24.7219 C   0  0  0  0  0  0
  -21.8823   -3.8138   23.4355 C   0  0  0  0  0  0
  -21.9198   -4.6934   22.3396 C   0  0  0  0  0  0
  -22.7827  -13.5243   21.1867 C   0  0  0  0  0  0
  -22.1676   -4.2125   21.0971 F   0  0  0  0  0  0
  -21.5626   -3.4546   25.7737 F   0  0  0  0  0  0
  -29.9543  -13.6758   20.4200 N   0  0  0  0  0  0
  -26.2873  -12.9404   20.3187 N   0  0  0  0  0  0
  -25.9286  -11.6539   20.5684 N   0  0  0  0  0  0
  -22.0497  -12.8215   22.0436 N   0  0  0  0  0  0
  -25.4242  -15.1921   20.4170 N   0  0  0  0  0  0
  -31.7225  -15.0145   20.0415 O   0  0  0  0  0  0
  -21.6653   -6.8866   21.4230 O   0  0  0  0  0  0
  -22.3498  -14.5555   20.6738 O   0  0  0  0  0  0
  -24.6447  -31.8437   23.1857 C   0  0  0  0  0  0
  -25.9212  -32.4686   23.8223 C   0  0  1  0  0  0
  -27.2128  -27.1216   20.1580 C   0  0  0  0  0  0
  -25.5961  -33.8494   24.2143 N   0  0  0  0  0  0
  -23.4455  -30.4660   21.5321 C   0  0  2  0  0  0
  -24.8966  -28.8943   20.1065 C   0  0  0  0  0  0
  -22.7563  -29.4556   22.4844 C   0  0  0  0  0  0
  -18.0293  -28.1404   22.8470 C   0  0  0  0  0  0
  -24.1470  -36.7226   23.2647 C   0  0  0  0  0  0
  -26.0067  -30.7081   21.3941 C   0  0  0  0  0  0
  -26.0737  -29.3220   20.7318 C   0  0  0  0  0  0
  -27.2315  -28.4527   20.7441 C   0  0  0  0  0  0
  -26.0130  -26.8061   19.4783 C   0  0  0  0  0  0
  -24.8822  -27.6520   19.4598 C   0  0  0  0  0  0
  -23.6731  -29.8013   20.1499 C   0  0  0  0  0  0
  -25.4112  -36.3017   24.0312 C   0  0  1  0  0  0
  -20.5917  -28.3723   23.1242 C   0  0  2  0  0  0
  -20.6791  -26.9432   22.5403 C   0  0  0  0  0  0
  -19.5752  -26.6376   21.5217 C   0  0  0  0  0  0
  -18.1920  -26.7945   22.1606 C   0  0  0  0  0  0
  -19.1554  -28.8881   23.2839 C   0  0  0  0  0  0
  -18.9497  -30.1494   23.8866 C   0  0  0  0  0  0
  -17.6496  -30.6629   24.0566 C   0  0  0  0  0  0
  -25.9085  -34.9404   23.5036 C   0  0  0  0  0  0
  -16.5390  -29.9116   23.6368 C   0  0  0  0  0  0
  -16.7283  -28.6532   23.0388 C   0  0  0  0  0  0
  -26.4543  -31.6589   25.0690 C   0  0  0  0  0  0
  -25.3676  -31.3823   26.1354 C   0  0  0  0  0  0
  -27.0472  -30.2986   24.6322 C   0  0  0  0  0  0
  -27.6061  -32.4410   25.7438 C   0  0  0  0  0  0
  -27.5588  -37.1739   24.8456 C   0  0  0  0  0  0
  -21.4249  -29.3060   22.3614 N   0  0  0  0  0  0
  -26.4257  -37.3758   23.9474 N   0  0  0  0  0  0
  -24.7186  -31.0276   22.0902 N   0  0  0  0  0  0
  -23.4207  -28.8069   23.2973 O   0  0  0  0  0  0
  -28.2485  -26.1162   20.2570 O   0  0  0  0  0  0
  -26.5681  -34.8925   22.4627 O   0  0  0  0  0  0
  -23.5566  -32.1359   23.7066 O   0  0  0  0  0  0
  -30.0108  -20.0672   21.3174 C   0  0  0  0  0  0
  -29.0082  -18.0572   19.6743 C   0  0  0  0  0  0
  -29.1236  -20.5578   20.3003 C   0  0  0  0  0  0
  -29.8338  -17.5508   20.7314 C   0  0  0  0  0  0
  -30.3456  -18.6606   21.5184 C   0  0  0  0  0  0
  -28.6758  -19.4621   19.4732 C   0  0  0  0  0  0
  -28.8482  -23.3213   20.5020 C   0  0  0  0  0  0
  -29.9705  -15.8843   22.5989 C   0  0  0  0  0  0
  -27.9361  -24.6107   19.9762 C   0  0  0  0  0  0
  -28.6157  -21.9930   20.0547 N   0  0  0  0  0  0
  -29.9712  -16.0581   21.1355 N   0  0  0  0  0  0
  -29.7397  -23.5391   21.3270 O   0  0  0  0  0  0
  -31.1937  -18.3924   22.5386 F   0  0  0  0  0  0
  -27.6328  -19.8393   18.1468 Cl  0  0  0  0  0  0
  -31.4680  -12.7300   19.2022 H   0  0  0  0  0  0
  -30.4195  -11.6284   20.0359 H   0  0  0  0  0  0
  -29.8384  -11.7215   17.5991 H   0  0  0  0  0  0
  -29.6146  -13.4491   17.6910 H   0  0  0  0  0  0
  -27.9385  -11.2719   18.9689 H   0  0  0  0  0  0
  -27.3918  -12.4548   17.8112 H   0  0  0  0  0  0
  -27.6027  -14.2500   19.4160 H   0  0  0  0  0  0
  -28.7334  -12.2741   21.4547 H   0  0  0  0  0  0
  -28.2880  -13.9326   21.7422 H   0  0  0  0  0  0
  -25.2744   -9.5709   22.4729 H   0  0  0  0  0  0
  -24.0002   -7.4668   22.7487 H   0  0  0  0  0  0
  -21.0827   -8.8775   19.8961 H   0  0  0  0  0  0
  -22.3683  -10.9668   19.6175 H   0  0  0  0  0  0
  -21.2016   -7.6126   23.9675 H   0  0  0  0  0  0
  -21.1471   -6.0520   25.9048 H   0  0  0  0  0  0
  -22.0599   -2.7594   23.2856 H   0  0  0  0  0  0
  -22.4133  -11.9866   22.4782 H   0  0  0  0  0  0
  -21.1152  -13.1277   22.2707 H   0  0  0  0  0  0
  -24.6769  -15.8617   20.5634 H   0  0  0  0  0  0
  -26.2853  -15.6248   20.1093 H   0  0  0  0  0  0
  -26.7271  -32.5263   23.0941 H   0  0  0  0  0  0
  -25.0112  -33.9592   25.0286 H   0  0  0  0  0  0
  -22.7441  -31.2916   21.3804 H   0  0  0  0  0  0
  -23.3793  -35.9490   23.3208 H   0  0  0  0  0  0
  -24.3574  -36.8954   22.2081 H   0  0  0  0  0  0
  -23.7148  -37.6346   23.6777 H   0  0  0  0  0  0
  -26.1781  -31.4652   20.6287 H   0  0  0  0  0  0
  -26.8715  -30.7421   22.0453 H   0  0  0  0  0  0
  -28.1215  -28.7738   21.2667 H   0  0  0  0  0  0
  -25.9108  -25.8583   18.9744 H   0  0  0  0  0  0
  -23.9877  -27.3222   18.9470 H   0  0  0  0  0  0
  -23.8114  -30.5802   19.3986 H   0  0  0  0  0  0
  -22.7838  -29.2518   19.8331 H   0  0  0  0  0  0
  -25.1277  -36.1793   25.0804 H   0  0  0  0  0  0
  -21.0012  -28.3337   24.1362 H   0  0  0  0  0  0
  -20.5703  -26.2334   23.3609 H   0  0  0  0  0  0
  -21.6659  -26.7439   22.1197 H   0  0  0  0  0  0
  -19.6922  -25.6267   21.1282 H   0  0  0  0  0  0
  -19.6718  -27.3162   20.6720 H   0  0  0  0  0  0
  -17.4198  -26.6702   21.4002 H   0  0  0  0  0  0
  -18.0315  -26.0077   22.8999 H   0  0  0  0  0  0
  -19.7989  -30.7290   24.2214 H   0  0  0  0  0  0
  -17.5074  -31.6300   24.5157 H   0  0  0  0  0  0
  -15.5401  -30.3017   23.7736 H   0  0  0  0  0  0
  -15.8660  -28.0846   22.7166 H   0  0  0  0  0  0
  -24.5786  -30.7297   25.7600 H   0  0  0  0  0  0
  -24.8991  -32.3057   26.4779 H   0  0  0  0  0  0
  -25.7881  -30.8905   27.0129 H   0  0  0  0  0  0
  -26.3165  -29.6627   24.1338 H   0  0  0  0  0  0
  -27.4115  -29.7355   25.4919 H   0  0  0  0  0  0
  -27.8999  -30.4241   23.9656 H   0  0  0  0  0  0
  -27.2686  -33.3794   26.1857 H   0  0  0  0  0  0
  -28.3928  -32.6862   25.0285 H   0  0  0  0  0  0
  -28.0653  -31.8635   26.5465 H   0  0  0  0  0  0
  -28.2512  -38.0115   24.7686 H   0  0  0  0  0  0
  -28.1193  -36.2701   24.6084 H   0  0  0  0  0  0
  -27.2338  -37.1095   25.8839 H   0  0  0  0  0  0
  -20.9460  -29.8806   21.6822 H   0  0  0  0  0  0
  -26.0097  -38.2783   24.1629 H   0  0  0  0  0  0
  -30.4409  -20.7783   22.0048 H   0  0  0  0  0  0
  -28.5518  -17.3382   19.0104 H   0  0  0  0  0  0
  -30.9732  -16.0399   23.0003 H   0  0  0  0  0  0
  -29.6696  -14.8976   22.9406 H   0  0  0  0  0  0
  -29.2972  -16.5909   23.0867 H   0  0  0  0  0  0
  -26.9391  -24.4096   20.3686 H   0  0  0  0  0  0
  -27.8594  -24.5089   18.8942 H   0  0  0  0  0  0
  -27.8797  -21.9900   19.3582 H   0  0  0  0  0  0
  1 25  1  0  0  0
  1 30  2  0  0  0
  1 81  1  0  0  0
  2  3  1  0  0  0
  2 25  1  0  0  0
  2 85  1  0  0  0
  2 86  1  0  0  0
  3  4  1  0  0  0
  3 87  1  0  0  0
  3 88  1  0  0  0
  4  5  1  0  0  0
  4 89  1  0  0  0
  4 90  1  0  0  0
  5  6  1  0  0  0
  5 26  1  0  0  0
  5 91  1  0  0  0
  6 25  1  0  0  0
  6 92  1  0  0  0
  6 93  1  0  0  0
  7  8  2  0  0  0
  7 26  1  0  0  0
  7 29  1  0  0  0
  8  9  1  0  0  0
  8 22  1  0  0  0
  9 10  1  0  0  0
  9 27  2  0  0  0
 10 11  2  0  0  0
 10 15  1  0  0  0
 11 12  1  0  0  0
 11 94  1  0  0  0
 12 13  2  0  0  0
 12 95  1  0  0  0
 13 14  1  0  0  0
 13 31  1  0  0  0
 14 15  2  0  0  0
 14 96  1  0  0  0
 15 97  1  0  0  0
 16 17  2  0  0  0
 16 21  1  0  0  0
 16 31  1  0  0  0
 17 18  1  0  0  0
 17 98  1  0  0  0
 18 19  2  0  0  0
 18 99  1  0  0  0
 19 20  1  0  0  0
 19 24  1  0  0  0
 20 21  2  0  0  0
 20100  1  0  0  0
 21 23  1  0  0  0
 22 28  1  0  0  0
 22 32  2  0  0  0
 26 27  1  0  0  0
 28101  1  0  0  0
 28102  1  0  0  0
 29103  1  0  0  0
 29104  1  0  0  0
 33 34  1  0  0  0
 33 66  1  0  0  0
 33 70  2  0  0  0
 34 36  1  0  0  0
 34 59  1  0  0  0
 34105  1  0  0  0
 35 44  2  0  0  0
 35 45  1  0  0  0
 35 68  1  0  0  0
 36 56  1  0  0  0
 36106  1  0  0  0
 37 39  1  0  0  0
 37 47  1  0  0  0
 37 66  1  0  0  0
 37107  1  0  0  0
 38 43  2  0  0  0
 38 46  1  0  0  0
 38 47  1  0  0  0
 39 64  1  0  0  0
 39 67  2  0  0  0
 40 52  1  0  0  0
 40 53  2  0  0  0
 40 58  1  0  0  0
 41108  1  0  0  0
 41109  1  0  0  0
 41110  1  0  0  0
 41 48  1  0  0  0
 42 43  1  0  0  0
 42 66  1  0  0  0
 42111  1  0  0  0
 42112  1  0  0  0
 43 44  1  0  0  0
 44113  1  0  0  0
 45 46  2  0  0  0
 45114  1  0  0  0
 46115  1  0  0  0
 47116  1  0  0  0
 47117  1  0  0  0
 48 56  1  0  0  0
 48 65  1  0  0  0
 48118  1  0  0  0
 49 50  1  0  0  0
 49 53  1  0  0  0
 49 64  1  0  0  0
 49119  1  0  0  0
 50 51  1  0  0  0
 50120  1  0  0  0
 50121  1  0  0  0
 51 52  1  0  0  0
 51122  1  0  0  0
 51123  1  0  0  0
 52124  1  0  0  0
 52125  1  0  0  0
 53 54  1  0  0  0
 54 55  2  0  0  0
 54126  1  0  0  0
 55 57  1  0  0  0
 55127  1  0  0  0
 56 69  2  0  0  0
 57 58  2  0  0  0
 57128  1  0  0  0
 58129  1  0  0  0
 59 60  1  0  0  0
 59 61  1  0  0  0
 59 62  1  0  0  0
 60130  1  0  0  0
 60131  1  0  0  0
 60132  1  0  0  0
 61133  1  0  0  0
 61134  1  0  0  0
 61135  1  0  0  0
 62136  1  0  0  0
 62137  1  0  0  0
 62138  1  0  0  0
 63 65  1  0  0  0
 63139  1  0  0  0
 63140  1  0  0  0
 63141  1  0  0  0
 64142  1  0  0  0
 65143  1  0  0  0
 68 79  1  0  0  0
 71 73  2  0  0  0
 71 75  1  0  0  0
 71144  1  0  0  0
 72 74  1  0  0  0
 72 76  2  0  0  0
 72145  1  0  0  0
 73 76  1  0  0  0
 73 80  1  0  0  0
 74 75  2  0  0  0
 74 81  1  0  0  0
 75 83  1  0  0  0
 76 84  1  0  0  0
 77 79  1  0  0  0
 77 80  1  0  0  0
 77 82  2  0  0  0
 78 81  1  0  0  0
 78146  1  0  0  0
 78147  1  0  0  0
 78148  1  0  0  0
 79149  1  0  0  0
 79150  1  0  0  0
 80151  1  0  0  0
M  ISO  4   1 100  68 101  79 101  81 100
M  END
> <chiral flag>
0

> <version>
0

> <s_m_source_file>
/data/baiqing/PycharmProjects/Reinvent-master-3.2/result/LINK_invent/BTK/process_docking_weight1_custom_sum_contain_oxygen_bond_distance_aromatic_linkinvent_7_9_3/rearranged_h_0008.sdf

> <i_m_source_file_index>
43

> <r_mmod_Potential_Energy-OPLS-2005>
582.881591796875

> <r_mmod_Stretch_Energy-OPLS-2005>
248.606292724609

> <r_mmod_Bend_Energy-OPLS-2005>
270.875152587891

> <r_mmod_Torsional_Energy-OPLS-2005>
300.758361816406

> <r_mmod_Improper_Torsional_Energy-OPLS-2005>
4.74620342254639

> <r_mmod_Van_der_Waal_Energy-OPLS-2005>
140.64860534668

> <r_mmod_Electrostatic_Energy-OPLS-2005>
-342.538970947266

> <r_mmod_Solvation_Energy-OPLS-2005>
-231.112762451172

> <b_mmod_Minimization_Converged-OPLS-2005>
0

> <r_mmod_RMS_Derivative-OPLS-2005>
4.57561492919922

$$$$
43
                    3D
 Structure written by MMmdl.
151159  0  0  1  0            999 V2000
  -30.5309  -15.0327   20.4116 C   0  0  0  0  0  0
  -30.4427  -12.6454   19.5148 C   0  0  0  0  0  0
  -29.5305  -12.5381   18.2706 C   0  0  0  0  0  0
  -28.0684  -12.3005   18.6925 C   0  0  0  0  0  0
  -27.6260  -13.2544   19.8323 C   0  0  2  0  0  0
  -28.6645  -13.3351   20.9717 C   0  0  0  0  0  0
  -25.2450  -13.8226   20.5713 C   0  0  0  0  0  0
  -24.1771  -13.0445   20.9238 C   0  0  0  0  0  0
  -24.6394  -11.6931   20.8753 C   0  0  0  0  0  0
  -23.9079  -10.4300   21.0409 C   0  0  0  0  0  0
  -24.3630   -9.4207   21.9185 C   0  0  0  0  0  0
  -23.6300   -8.2242   22.0756 C   0  0  0  0  0  0
  -22.4282   -8.0282   21.3543 C   0  0  0  0  0  0
  -21.9917   -9.0262   20.4650 C   0  0  0  0  0  0
  -22.7251  -10.2141   20.3058 C   0  0  0  0  0  0
  -21.6850   -6.0738   22.5276 C   0  0  0  0  0  0
  -21.4018   -6.5641   23.8211 C   0  0  0  0  0  0
  -21.3658   -5.6788   24.9169 C   0  0  0  0  0  0
  -21.6039   -4.3050   24.7219 C   0  0  0  0  0  0
  -21.8816   -3.8147   23.4339 C   0  0  0  0  0  0
  -21.9191   -4.6967   22.3395 C   0  0  0  0  0  0
  -22.7781  -13.5217   21.1879 C   0  0  0  0  0  0
  -22.1655   -4.2150   21.0973 F   0  0  0  0  0  0
  -21.5630   -3.4533   25.7732 F   0  0  0  0  0  0
  -29.9325  -13.7651   20.3658 N   0  0  0  0  0  0
  -26.2875  -12.9469   20.3223 N   0  0  0  0  0  0
  -25.9331  -11.6595   20.5732 N   0  0  0  0  0  0
  -22.0416  -12.8223   22.0433 N   0  0  0  0  0  0
  -25.4114  -15.1953   20.4138 N   0  0  0  0  0  0
  -31.7426  -15.0528   20.1638 O   0  0  0  0  0  0
  -21.6637   -6.8887   21.4241 O   0  0  0  0  0  0
  -22.3461  -14.5514   20.6708 O   0  0  0  0  0  0
  -24.6491  -31.8381   23.1816 C   0  0  0  0  0  0
  -25.9229  -32.4666   23.8233 C   0  0  1  0  0  0
  -27.2222  -27.0786   20.1632 C   0  0  0  0  0  0
  -25.5943  -33.8474   24.2140 N   0  0  0  0  0  0
  -23.4564  -30.4540   21.5301 C   0  0  2  0  0  0
  -24.9072  -28.8686   20.1122 C   0  0  0  0  0  0
  -22.7603  -29.4509   22.4853 C   0  0  0  0  0  0
  -18.0308  -28.1401   22.8468 C   0  0  0  0  0  0
  -24.1500  -36.7262   23.2644 C   0  0  0  0  0  0
  -26.0160  -30.6946   21.3881 C   0  0  0  0  0  0
  -26.0877  -29.2994   20.7314 C   0  0  0  0  0  0
  -27.2444  -28.4229   20.7343 C   0  0  0  0  0  0
  -26.0117  -26.7608   19.5082 C   0  0  0  0  0  0
  -24.8859  -27.6143   19.4839 C   0  0  0  0  0  0
  -23.6864  -29.7780   20.1520 C   0  0  0  0  0  0
  -25.4131  -36.3024   24.0309 C   0  0  1  0  0  0
  -20.5922  -28.3731   23.1226 C   0  0  2  0  0  0
  -20.6797  -26.9429   22.5410 C   0  0  0  0  0  0
  -19.5772  -26.6382   21.5218 C   0  0  0  0  0  0
  -18.1948  -26.7939   22.1617 C   0  0  0  0  0  0
  -19.1563  -28.8885   23.2837 C   0  0  0  0  0  0
  -18.9478  -30.1480   23.8866 C   0  0  0  0  0  0
  -17.6473  -30.6594   24.0558 C   0  0  0  0  0  0
  -25.9078  -34.9394   23.5042 C   0  0  0  0  0  0
  -16.5364  -29.9090   23.6331 C   0  0  0  0  0  0
  -16.7293  -28.6509   23.0352 C   0  0  0  0  0  0
  -26.4510  -31.6563   25.0710 C   0  0  0  0  0  0
  -25.3666  -31.3789   26.1392 C   0  0  0  0  0  0
  -27.0374  -30.2947   24.6339 C   0  0  0  0  0  0
  -27.6029  -32.4340   25.7498 C   0  0  0  0  0  0
  -27.5580  -37.1788   24.8454 C   0  0  0  0  0  0
  -21.4283  -29.3048   22.3604 N   0  0  0  0  0  0
  -26.4292  -37.3740   23.9396 N   0  0  0  0  0  0
  -24.7278  -31.0182   22.0882 N   0  0  0  0  0  0
  -23.4212  -28.8066   23.3040 O   0  0  0  0  0  0
  -28.2649  -26.0636   20.2313 O   0  0  0  0  0  0
  -26.5683  -34.8903   22.4636 O   0  0  0  0  0  0
  -23.5594  -32.1277   23.7000 O   0  0  0  0  0  0
  -31.4239  -18.1849   20.5371 C   0  0  0  0  0  0
  -30.9014  -20.6204   20.4521 C   0  0  0  0  0  0
  -29.1395  -18.9603   20.4001 C   0  0  0  0  0  0
  -31.8250  -19.5458   20.5286 C   0  0  0  0  0  0
  -30.0705  -17.7793   20.4744 C   0  0  0  0  0  0
  -29.5068  -20.4207   20.3806 C   0  0  0  0  0  0
  -33.3070  -19.8689   20.5982 C   0  0  0  0  0  0
  -27.9846  -24.5067   20.1208 C   0  0  0  0  0  0
  -29.0143  -23.1398   20.3271 C   0  0  0  0  0  0
  -29.7594  -16.2487   20.5152 N   0  0  0  0  0  0
  -28.6232  -21.6104   20.2904 O   0  0  0  0  0  0
  -31.4753  -12.8085   19.2017 H   0  0  0  0  0  0
  -30.4505  -11.7092   20.0752 H   0  0  0  0  0  0
  -29.8727  -11.7324   17.6196 H   0  0  0  0  0  0
  -29.5991  -13.4566   17.6862 H   0  0  0  0  0  0
  -27.9923  -11.2672   19.0339 H   0  0  0  0  0  0
  -27.4015  -12.3890   17.8338 H   0  0  0  0  0  0
  -27.5755  -14.2429   19.3743 H   0  0  0  0  0  0
  -28.7708  -12.3775   21.4830 H   0  0  0  0  0  0
  -28.3471  -14.0555   21.7269 H   0  0  0  0  0  0
  -25.2772   -9.5686   22.4763 H   0  0  0  0  0  0
  -23.9998   -7.4639   22.7481 H   0  0  0  0  0  0
  -21.0841   -8.8796   19.8963 H   0  0  0  0  0  0
  -22.3711  -10.9684   19.6169 H   0  0  0  0  0  0
  -21.2020   -7.6152   23.9714 H   0  0  0  0  0  0
  -21.1479   -6.0518   25.9073 H   0  0  0  0  0  0
  -22.0601   -2.7613   23.2829 H   0  0  0  0  0  0
  -22.4032  -11.9913   22.4867 H   0  0  0  0  0  0
  -21.1028  -13.1257   22.2615 H   0  0  0  0  0  0
  -24.6431  -15.8470   20.5348 H   0  0  0  0  0  0
  -26.2458  -15.6341   20.0478 H   0  0  0  0  0  0
  -26.7307  -32.5252   23.0970 H   0  0  0  0  0  0
  -25.0034  -33.9564   25.0250 H   0  0  0  0  0  0
  -22.7613  -31.2812   21.3712 H   0  0  0  0  0  0
  -23.3758  -35.9597   23.3286 H   0  0  0  0  0  0
  -24.3592  -36.8920   22.2062 H   0  0  0  0  0  0
  -23.7259  -37.6454   23.6701 H   0  0  0  0  0  0
  -26.1760  -31.4440   20.6116 H   0  0  0  0  0  0
  -26.8841  -30.7488   22.0336 H   0  0  0  0  0  0
  -28.1426  -28.7503   21.2387 H   0  0  0  0  0  0
  -25.9006  -25.8009   19.0283 H   0  0  0  0  0  0
  -23.9855  -27.2752   18.9900 H   0  0  0  0  0  0
  -23.8271  -30.5494   19.3942 H   0  0  0  0  0  0
  -22.7995  -29.2230   19.8416 H   0  0  0  0  0  0
  -25.1327  -36.1848   25.0803 H   0  0  0  0  0  0
  -20.9995  -28.3331   24.1355 H   0  0  0  0  0  0
  -20.5698  -26.2340   23.3636 H   0  0  0  0  0  0
  -21.6666  -26.7443   22.1206 H   0  0  0  0  0  0
  -19.6936  -25.6283   21.1273 H   0  0  0  0  0  0
  -19.6714  -27.3171   20.6731 H   0  0  0  0  0  0
  -17.4221  -26.6672   21.4020 H   0  0  0  0  0  0
  -18.0345  -26.0095   22.9027 H   0  0  0  0  0  0
  -19.7955  -30.7306   24.2220 H   0  0  0  0  0  0
  -17.5027  -31.6268   24.5175 H   0  0  0  0  0  0
  -15.5361  -30.2984   23.7681 H   0  0  0  0  0  0
  -15.8692  -28.0827   22.7082 H   0  0  0  0  0  0
  -24.5836  -30.7152   25.7706 H   0  0  0  0  0  0
  -24.8861  -32.2986   26.4741 H   0  0  0  0  0  0
  -25.7916  -30.8999   27.0222 H   0  0  0  0  0  0
  -26.2999  -29.6665   24.1332 H   0  0  0  0  0  0
  -27.3937  -29.7269   25.4943 H   0  0  0  0  0  0
  -27.8931  -30.4160   23.9694 H   0  0  0  0  0  0
  -27.2609  -33.3654   26.2025 H   0  0  0  0  0  0
  -28.3863  -32.6883   25.0346 H   0  0  0  0  0  0
  -28.0676  -31.8504   26.5455 H   0  0  0  0  0  0
  -28.2589  -38.0093   24.7506 H   0  0  0  0  0  0
  -28.1087  -36.2622   24.6280 H   0  0  0  0  0  0
  -27.2298  -37.1438   25.8857 H   0  0  0  0  0  0
  -20.9514  -29.8740   21.6752 H   0  0  0  0  0  0
  -26.0157  -38.2812   24.1388 H   0  0  0  0  0  0
  -32.1993  -17.4360   20.6036 H   0  0  0  0  0  0
  -31.2907  -21.6284   20.4441 H   0  0  0  0  0  0
  -28.0839  -18.7378   20.3525 H   0  0  0  0  0  0
  -33.8753  -19.0460   21.0346 H   0  0  0  0  0  0
  -33.4862  -20.7527   21.2108 H   0  0  0  0  0  0
  -33.7008  -20.0610   19.5997 H   0  0  0  0  0  0
  -27.1510  -24.3383   20.8026 H   0  0  0  0  0  0
  -27.5637  -24.3697   19.1252 H   0  0  0  0  0  0
  -29.5087  -23.2797   21.2887 H   0  0  0  0  0  0
  -29.8084  -23.2522   19.5894 H   0  0  0  0  0  0
  -28.7773  -16.0461   20.6279 H   0  0  0  0  0  0
  1 25  1  0  0  0
  1 30  2  0  0  0
  1 80  1  0  0  0
  2  3  1  0  0  0
  2 25  1  0  0  0
  2 82  1  0  0  0
  2 83  1  0  0  0
  3  4  1  0  0  0
  3 84  1  0  0  0
  3 85  1  0  0  0
  4  5  1  0  0  0
  4 86  1  0  0  0
  4 87  1  0  0  0
  5  6  1  0  0  0
  5 26  1  0  0  0
  5 88  1  0  0  0
  6 25  1  0  0  0
  6 89  1  0  0  0
  6 90  1  0  0  0
  7  8  2  0  0  0
  7 26  1  0  0  0
  7 29  1  0  0  0
  8  9  1  0  0  0
  8 22  1  0  0  0
  9 10  1  0  0  0
  9 27  2  0  0  0
 10 11  2  0  0  0
 10 15  1  0  0  0
 11 12  1  0  0  0
 11 91  1  0  0  0
 12 13  2  0  0  0
 12 92  1  0  0  0
 13 14  1  0  0  0
 13 31  1  0  0  0
 14 15  2  0  0  0
 14 93  1  0  0  0
 15 94  1  0  0  0
 16 17  2  0  0  0
 16 21  1  0  0  0
 16 31  1  0  0  0
 17 18  1  0  0  0
 17 95  1  0  0  0
 18 19  2  0  0  0
 18 96  1  0  0  0
 19 20  1  0  0  0
 19 24  1  0  0  0
 20 21  2  0  0  0
 20 97  1  0  0  0
 21 23  1  0  0  0
 22 28  1  0  0  0
 22 32  2  0  0  0
 26 27  1  0  0  0
 28 98  1  0  0  0
 28 99  1  0  0  0
 29100  1  0  0  0
 29101  1  0  0  0
 33 34  1  0  0  0
 33 66  1  0  0  0
 33 70  2  0  0  0
 34 36  1  0  0  0
 34 59  1  0  0  0
 34102  1  0  0  0
 35 44  2  0  0  0
 35 45  1  0  0  0
 35 68  1  0  0  0
 36 56  1  0  0  0
 36103  1  0  0  0
 37 39  1  0  0  0
 37 47  1  0  0  0
 37 66  1  0  0  0
 37104  1  0  0  0
 38 43  2  0  0  0
 38 46  1  0  0  0
 38 47  1  0  0  0
 39 64  1  0  0  0
 39 67  2  0  0  0
 40 52  1  0  0  0
 40 53  2  0  0  0
 40 58  1  0  0  0
 41105  1  0  0  0
 41106  1  0  0  0
 41107  1  0  0  0
 41 48  1  0  0  0
 42 43  1  0  0  0
 42 66  1  0  0  0
 42108  1  0  0  0
 42109  1  0  0  0
 43 44  1  0  0  0
 44110  1  0  0  0
 45 46  2  0  0  0
 45111  1  0  0  0
 46112  1  0  0  0
 47113  1  0  0  0
 47114  1  0  0  0
 48 56  1  0  0  0
 48 65  1  0  0  0
 48115  1  0  0  0
 49 50  1  0  0  0
 49 53  1  0  0  0
 49 64  1  0  0  0
 49116  1  0  0  0
 50 51  1  0  0  0
 50117  1  0  0  0
 50118  1  0  0  0
 51 52  1  0  0  0
 51119  1  0  0  0
 51120  1  0  0  0
 52121  1  0  0  0
 52122  1  0  0  0
 53 54  1  0  0  0
 54 55  2  0  0  0
 54123  1  0  0  0
 55 57  1  0  0  0
 55124  1  0  0  0
 56 69  2  0  0  0
 57 58  2  0  0  0
 57125  1  0  0  0
 58126  1  0  0  0
 59 60  1  0  0  0
 59 61  1  0  0  0
 59 62  1  0  0  0
 60127  1  0  0  0
 60128  1  0  0  0
 60129  1  0  0  0
 61130  1  0  0  0
 61131  1  0  0  0
 61132  1  0  0  0
 62133  1  0  0  0
 62134  1  0  0  0
 62135  1  0  0  0
 63 65  1  0  0  0
 63136  1  0  0  0
 63137  1  0  0  0
 63138  1  0  0  0
 64139  1  0  0  0
 65140  1  0  0  0
 68 78  1  0  0  0
 71 74  2  0  0  0
 71 75  1  0  0  0
 71141  1  0  0  0
 72 74  1  0  0  0
 72 76  2  0  0  0
 72142  1  0  0  0
 73 75  2  0  0  0
 73 76  1  0  0  0
 73143  1  0  0  0
 74 77  1  0  0  0
 75 80  1  0  0  0
 76 81  1  0  0  0
 77144  1  0  0  0
 77145  1  0  0  0
 77146  1  0  0  0
 78 79  1  0  0  0
 78147  1  0  0  0
 78148  1  0  0  0
 79 81  1  0  0  0
 79149  1  0  0  0
 79150  1  0  0  0
 80151  1  0  0  0
M  ISO  4   1 100  68 101  78 101  80 100
M  END
> <chiral flag>
0

> <version>
0

> <s_m_source_file>
/data/baiqing/PycharmProjects/Reinvent-master-3.2/result/LINK_invent/BTK/process_docking_weight1_custom_sum_contain_oxygen_bond_distance_aromatic_linkinvent_7_9_3/rearranged_h_0008.sdf

> <i_m_source_file_index>
44

> <r_mmod_Potential_Energy-OPLS-2005>
654.051330566406

> <r_mmod_Stretch_Energy-OPLS-2005>
330.652557373047

> <r_mmod_Bend_Energy-OPLS-2005>
283.027740478516

> <r_mmod_Torsional_Energy-OPLS-2005>
209.337692260742

> <r_mmod_Improper_Torsional_Energy-OPLS-2005>
4.59224319458008

> <r_mmod_Van_der_Waal_Energy-OPLS-2005>
132.448348999023

> <r_mmod_Electrostatic_Energy-OPLS-2005>
-343.72021484375

> <r_mmod_Solvation_Energy-OPLS-2005>
-213.389251708984

> <b_mmod_Minimization_Converged-OPLS-2005>
0

> <r_mmod_RMS_Derivative-OPLS-2005>
1.55685591697693

$$$$
44
                    3D
 Structure written by MMmdl.
153161  0  0  1  0            999 V2000
  -30.6064  -14.6504   20.5090 C   0  0  0  0  0  0
  -30.4484  -12.4003   19.4490 C   0  0  0  0  0  0
  -29.5104  -12.5130   18.2253 C   0  0  0  0  0  0
  -28.0326  -12.3502   18.6372 C   0  0  0  0  0  0
  -27.6552  -13.2152   19.8690 C   0  0  2  0  0  0
  -28.7039  -13.0524   20.9935 C   0  0  0  0  0  0
  -25.2491  -13.8105   20.5596 C   0  0  0  0  0  0
  -24.1779  -13.0372   20.9111 C   0  0  0  0  0  0
  -24.6386  -11.6866   20.8717 C   0  0  0  0  0  0
  -23.9062  -10.4258   21.0398 C   0  0  0  0  0  0
  -24.3611   -9.4182   21.9184 C   0  0  0  0  0  0
  -23.6280   -8.2228   22.0760 C   0  0  0  0  0  0
  -22.4263   -8.0270   21.3546 C   0  0  0  0  0  0
  -21.9893   -9.0242   20.4648 C   0  0  0  0  0  0
  -22.7232  -10.2113   20.3049 C   0  0  0  0  0  0
  -21.6850   -6.0723   22.5275 C   0  0  0  0  0  0
  -21.4016   -6.5630   23.8209 C   0  0  0  0  0  0
  -21.3657   -5.6784   24.9172 C   0  0  0  0  0  0
  -21.6046   -4.3048   24.7229 C   0  0  0  0  0  0
  -21.8820   -3.8136   23.4351 C   0  0  0  0  0  0
  -21.9193   -4.6950   22.3403 C   0  0  0  0  0  0
  -22.7811  -13.5189   21.1801 C   0  0  0  0  0  0
  -22.1660   -4.2130   21.0981 F   0  0  0  0  0  0
  -21.5625   -3.4535   25.7746 F   0  0  0  0  0  0
  -30.0209  -13.4110   20.4359 N   0  0  0  0  0  0
  -26.2995  -12.9332   20.3360 N   0  0  0  0  0  0
  -25.9337  -11.6480   20.5794 N   0  0  0  0  0  0
  -22.0467  -12.8216   22.0395 N   0  0  0  0  0  0
  -25.4025  -15.1812   20.3984 N   0  0  0  0  0  0
  -31.7551  -14.8512   20.1049 O   0  0  0  0  0  0
  -21.6630   -6.8866   21.4237 O   0  0  0  0  0  0
  -22.3493  -14.5504   20.6664 O   0  0  0  0  0  0
  -24.6233  -31.8594   23.1998 C   0  0  0  0  0  0
  -25.9088  -32.4778   23.8333 C   0  0  1  0  0  0
  -27.2435  -27.3378   20.1281 C   0  0  0  0  0  0
  -25.5908  -33.8579   24.2270 N   0  0  0  0  0  0
  -23.4176  -30.4771   21.5417 C   0  0  2  0  0  0
  -24.8684  -28.9207   20.1205 C   0  0  0  0  0  0
  -22.7463  -29.4612   22.4950 C   0  0  0  0  0  0
  -18.0282  -28.1386   22.8486 C   0  0  0  0  0  0
  -24.1486  -36.7297   23.2639 C   0  0  0  0  0  0
  -25.9534  -30.7970   21.3644 C   0  0  0  0  0  0
  -26.0327  -29.4205   20.7171 C   0  0  0  0  0  0
  -27.2241  -28.6419   20.7051 C   0  0  0  0  0  0
  -26.0565  -26.8684   19.5292 C   0  0  0  0  0  0
  -24.8800  -27.6485   19.5200 C   0  0  0  0  0  0
  -23.6336  -29.7989   20.1615 C   0  0  0  0  0  0
  -25.4110  -36.3086   24.0330 C   0  0  1  0  0  0
  -20.5877  -28.3683   23.1296 C   0  0  2  0  0  0
  -20.6769  -26.9408   22.5417 C   0  0  0  0  0  0
  -19.5748  -26.6385   21.5213 C   0  0  0  0  0  0
  -18.1924  -26.7930   22.1619 C   0  0  0  0  0  0
  -19.1533  -28.8853   23.2886 C   0  0  0  0  0  0
  -18.9460  -30.1455   23.8900 C   0  0  0  0  0  0
  -17.6460  -30.6588   24.0566 C   0  0  0  0  0  0
  -25.9044  -34.9455   23.5104 C   0  0  0  0  0  0
  -16.5351  -29.9086   23.6328 C   0  0  0  0  0  0
  -16.7271  -28.6506   23.0346 C   0  0  0  0  0  0
  -26.4489  -31.6588   25.0698 C   0  0  0  0  0  0
  -25.3739  -31.3730   26.1442 C   0  0  0  0  0  0
  -27.0327  -30.3018   24.6130 C   0  0  0  0  0  0
  -27.6048  -32.4328   25.7469 C   0  0  0  0  0  0
  -27.5580  -37.1799   24.8463 C   0  0  0  0  0  0
  -21.4179  -29.3035   22.3699 N   0  0  0  0  0  0
  -26.4291  -37.3778   23.9410 N   0  0  0  0  0  0
  -24.6833  -31.0615   22.0933 N   0  0  0  0  0  0
  -23.4193  -28.8168   23.3040 O   0  0  0  0  0  0
  -28.4032  -26.5614   20.0934 O   0  0  0  0  0  0
  -26.5618  -34.8927   22.4673 O   0  0  0  0  0  0
  -23.5402  -32.1381   23.7340 O   0  0  0  0  0  0
  -28.1760  -19.0568   20.9442 C   0  0  0  0  0  0
  -30.7373  -18.0317   20.4923 C   0  0  0  0  0  0
  -29.1987  -20.0061   20.6979 C   0  0  0  0  0  0
  -29.6967  -17.1014   20.7764 C   0  0  0  0  0  0
  -28.4190  -17.6614   20.9948 C   0  0  0  0  0  0
  -30.4995  -19.4520   20.4676 C   0  0  0  0  0  0
  -28.8217  -21.5373   20.8472 C   0  0  0  0  0  0
  -29.3106  -22.6483   19.8347 C   0  0  0  0  0  0
  -28.4508  -23.9780   19.5770 C   0  0  0  0  0  0
  -28.4036  -25.1792   20.6082 C   0  0  0  0  0  0
  -29.7717  -15.6465   20.9303 N   0  0  0  0  0  0
  -27.3953  -16.8288   21.2876 F   0  0  0  0  0  0
  -31.8478  -20.4961   20.1975 Cl  0  0  0  0  0  0
  -31.4869  -12.5391   19.1429 H   0  0  0  0  0  0
  -30.3966  -11.4014   19.8849 H   0  0  0  0  0  0
  -29.7729  -11.7609   17.4802 H   0  0  0  0  0  0
  -29.6506  -13.4823   17.7438 H   0  0  0  0  0  0
  -27.8689  -11.2959   18.8652 H   0  0  0  0  0  0
  -27.3789  -12.5843   17.7963 H   0  0  0  0  0  0
  -27.6730  -14.2534   19.5370 H   0  0  0  0  0  0
  -28.7184  -12.0220   21.3512 H   0  0  0  0  0  0
  -28.4449  -13.6588   21.8626 H   0  0  0  0  0  0
  -25.2759   -9.5660   22.4755 H   0  0  0  0  0  0
  -23.9978   -7.4625   22.7495 H   0  0  0  0  0  0
  -21.0813   -8.8778   19.8967 H   0  0  0  0  0  0
  -22.3701  -10.9654   19.6157 H   0  0  0  0  0  0
  -21.2009   -7.6139   23.9710 H   0  0  0  0  0  0
  -21.1475   -6.0514   25.9074 H   0  0  0  0  0  0
  -22.0601   -2.7596   23.2863 H   0  0  0  0  0  0
  -22.4092  -11.9888   22.4793 H   0  0  0  0  0  0
  -21.1105  -13.1275   22.2632 H   0  0  0  0  0  0
  -24.6344  -15.8200   20.5675 H   0  0  0  0  0  0
  -26.2932  -15.6594   20.3169 H   0  0  0  0  0  0
  -26.7161  -32.5466   23.1090 H   0  0  0  0  0  0
  -25.0062  -33.9722   25.0420 H   0  0  0  0  0  0
  -22.7102  -31.2952   21.3916 H   0  0  0  0  0  0
  -23.3747  -35.9630   23.3304 H   0  0  0  0  0  0
  -24.3575  -36.8917   22.2054 H   0  0  0  0  0  0
  -23.7244  -37.6500   23.6662 H   0  0  0  0  0  0
  -26.0734  -31.5559   20.5899 H   0  0  0  0  0  0
  -26.8373  -30.8562   21.9878 H   0  0  0  0  0  0
  -28.1259  -29.0291   21.1590 H   0  0  0  0  0  0
  -26.0428  -25.8943   19.0613 H   0  0  0  0  0  0
  -23.9859  -27.2575   19.0542 H   0  0  0  0  0  0
  -23.7524  -30.5677   19.3974 H   0  0  0  0  0  0
  -22.7553  -29.2233   19.8636 H   0  0  0  0  0  0
  -25.1286  -36.1936   25.0821 H   0  0  0  0  0  0
  -20.9962  -28.3259   24.1421 H   0  0  0  0  0  0
  -20.5659  -26.2294   23.3614 H   0  0  0  0  0  0
  -21.6642  -26.7431   22.1220 H   0  0  0  0  0  0
  -19.6907  -25.6297   21.1239 H   0  0  0  0  0  0
  -19.6688  -27.3201   20.6750 H   0  0  0  0  0  0
  -17.4195  -26.6684   21.4021 H   0  0  0  0  0  0
  -18.0318  -26.0069   22.9009 H   0  0  0  0  0  0
  -19.7937  -30.7270   24.2267 H   0  0  0  0  0  0
  -17.5014  -31.6263   24.5173 H   0  0  0  0  0  0
  -15.5352  -30.2987   23.7650 H   0  0  0  0  0  0
  -15.8672  -28.0824   22.7054 H   0  0  0  0  0  0
  -24.5896  -30.7093   25.7785 H   0  0  0  0  0  0
  -24.8953  -32.2902   26.4884 H   0  0  0  0  0  0
  -25.8077  -30.8899   27.0206 H   0  0  0  0  0  0
  -26.2886  -29.6767   24.1179 H   0  0  0  0  0  0
  -27.4068  -29.7274   25.4615 H   0  0  0  0  0  0
  -27.8733  -30.4314   23.9309 H   0  0  0  0  0  0
  -27.2648  -33.3618   26.2060 H   0  0  0  0  0  0
  -28.3849  -32.6911   25.0297 H   0  0  0  0  0  0
  -28.0727  -31.8451   26.5377 H   0  0  0  0  0  0
  -28.2599  -38.0094   24.7505 H   0  0  0  0  0  0
  -28.1073  -36.2626   24.6287 H   0  0  0  0  0  0
  -27.2301  -37.1451   25.8868 H   0  0  0  0  0  0
  -20.9362  -29.8753   21.6901 H   0  0  0  0  0  0
  -26.0172  -38.2852   24.1413 H   0  0  0  0  0  0
  -27.1723  -19.3986   21.1483 H   0  0  0  0  0  0
  -31.7406  -17.6677   20.3277 H   0  0  0  0  0  0
  -29.1202  -21.8410   21.8511 H   0  0  0  0  0  0
  -27.7330  -21.5896   20.8576 H   0  0  0  0  0  0
  -29.3727  -22.1544   18.8644 H   0  0  0  0  0  0
  -30.3385  -22.9247   20.0694 H   0  0  0  0  0  0
  -27.4284  -23.7003   19.3204 H   0  0  0  0  0  0
  -28.8513  -24.4038   18.6564 H   0  0  0  0  0  0
  -29.2974  -25.1073   21.2285 H   0  0  0  0  0  0
  -27.5709  -25.0363   21.2988 H   0  0  0  0  0  0
  -28.8967  -15.2658   21.2594 H   0  0  0  0  0  0
  1 25  1  0  0  0
  1 30  2  0  0  0
  1 81  1  0  0  0
  2  3  1  0  0  0
  2 25  1  0  0  0
  2 84  1  0  0  0
  2 85  1  0  0  0
  3  4  1  0  0  0
  3 86  1  0  0  0
  3 87  1  0  0  0
  4  5  1  0  0  0
  4 88  1  0  0  0
  4 89  1  0  0  0
  5  6  1  0  0  0
  5 26  1  0  0  0
  5 90  1  0  0  0
  6 25  1  0  0  0
  6 91  1  0  0  0
  6 92  1  0  0  0
  7  8  2  0  0  0
  7 26  1  0  0  0
  7 29  1  0  0  0
  8  9  1  0  0  0
  8 22  1  0  0  0
  9 10  1  0  0  0
  9 27  2  0  0  0
 10 11  2  0  0  0
 10 15  1  0  0  0
 11 12  1  0  0  0
 11 93  1  0  0  0
 12 13  2  0  0  0
 12 94  1  0  0  0
 13 14  1  0  0  0
 13 31  1  0  0  0
 14 15  2  0  0  0
 14 95  1  0  0  0
 15 96  1  0  0  0
 16 17  2  0  0  0
 16 21  1  0  0  0
 16 31  1  0  0  0
 17 18  1  0  0  0
 17 97  1  0  0  0
 18 19  2  0  0  0
 18 98  1  0  0  0
 19 20  1  0  0  0
 19 24  1  0  0  0
 20 21  2  0  0  0
 20 99  1  0  0  0
 21 23  1  0  0  0
 22 28  1  0  0  0
 22 32  2  0  0  0
 26 27  1  0  0  0
 28100  1  0  0  0
 28101  1  0  0  0
 29102  1  0  0  0
 29103  1  0  0  0
 33 34  1  0  0  0
 33 66  1  0  0  0
 33 70  2  0  0  0
 34 36  1  0  0  0
 34 59  1  0  0  0
 34104  1  0  0  0
 35 44  2  0  0  0
 35 45  1  0  0  0
 35 68  1  0  0  0
 36 56  1  0  0  0
 36105  1  0  0  0
 37 39  1  0  0  0
 37 47  1  0  0  0
 37 66  1  0  0  0
 37106  1  0  0  0
 38 43  2  0  0  0
 38 46  1  0  0  0
 38 47  1  0  0  0
 39 64  1  0  0  0
 39 67  2  0  0  0
 40 52  1  0  0  0
 40 53  2  0  0  0
 40 58  1  0  0  0
 41107  1  0  0  0
 41108  1  0  0  0
 41109  1  0  0  0
 41 48  1  0  0  0
 42 43  1  0  0  0
 42 66  1  0  0  0
 42110  1  0  0  0
 42111  1  0  0  0
 43 44  1  0  0  0
 44112  1  0  0  0
 45 46  2  0  0  0
 45113  1  0  0  0
 46114  1  0  0  0
 47115  1  0  0  0
 47116  1  0  0  0
 48 56  1  0  0  0
 48 65  1  0  0  0
 48117  1  0  0  0
 49 50  1  0  0  0
 49 53  1  0  0  0
 49 64  1  0  0  0
 49118  1  0  0  0
 50 51  1  0  0  0
 50119  1  0  0  0
 50120  1  0  0  0
 51 52  1  0  0  0
 51121  1  0  0  0
 51122  1  0  0  0
 52123  1  0  0  0
 52124  1  0  0  0
 53 54  1  0  0  0
 54 55  2  0  0  0
 54125  1  0  0  0
 55 57  1  0  0  0
 55126  1  0  0  0
 56 69  2  0  0  0
 57 58  2  0  0  0
 57127  1  0  0  0
 58128  1  0  0  0
 59 60  1  0  0  0
 59 61  1  0  0  0
 59 62  1  0  0  0
 60129  1  0  0  0
 60130  1  0  0  0
 60131  1  0  0  0
 61132  1  0  0  0
 61133  1  0  0  0
 61134  1  0  0  0
 62135  1  0  0  0
 62136  1  0  0  0
 62137  1  0  0  0
 63 65  1  0  0  0
 63138  1  0  0  0
 63139  1  0  0  0
 63140  1  0  0  0
 64141  1  0  0  0
 65142  1  0  0  0
 68 80  1  0  0  0
 71 73  2  0  0  0
 71 75  1  0  0  0
 71143  1  0  0  0
 72 74  1  0  0  0
 72 76  2  0  0  0
 72144  1  0  0  0
 73 76  1  0  0  0
 73 77  1  0  0  0
 74 75  2  0  0  0
 74 81  1  0  0  0
 75 82  1  0  0  0
 76 83  1  0  0  0
 77 78  1  0  0  0
 77145  1  0  0  0
 77146  1  0  0  0
 78 79  1  0  0  0
 78147  1  0  0  0
 78148  1  0  0  0
 79 80  1  0  0  0
 79149  1  0  0  0
 79150  1  0  0  0
 80151  1  0  0  0
 80152  1  0  0  0
 81153  1  0  0  0
M  ISO  4   1 100  68 101  80 101  81 100
M  END
> <chiral flag>
0

> <version>
0

> <s_m_source_file>
/data/baiqing/PycharmProjects/Reinvent-master-3.2/result/LINK_invent/BTK/process_docking_weight1_custom_sum_contain_oxygen_bond_distance_aromatic_linkinvent_7_9_3/rearranged_h_0008.sdf

> <i_m_source_file_index>
45

> <r_mmod_Potential_Energy-OPLS-2005>
76.1775970458984

> <r_mmod_Stretch_Energy-OPLS-2005>
77.3053817749023

> <r_mmod_Bend_Energy-OPLS-2005>
171.824493408203

> <r_mmod_Torsional_Energy-OPLS-2005>
241.068267822266

> <r_mmod_Improper_Torsional_Energy-OPLS-2005>
4.92690324783325

> <r_mmod_Van_der_Waal_Energy-OPLS-2005>
134.472564697266

> <r_mmod_Electrostatic_Energy-OPLS-2005>
-401.703125

> <r_mmod_Solvation_Energy-OPLS-2005>
-194.892547607422

> <b_mmod_Minimization_Converged-OPLS-2005>
0

> <r_mmod_RMS_Derivative-OPLS-2005>
1.01915323734283

$$$$
45
                    3D
 Structure written by MMmdl.
163171  0  0  1  0            999 V2000
  -30.5290  -14.9002   20.4433 C   0  0  0  0  0  0
  -30.4513  -12.5557   19.4968 C   0  0  0  0  0  0
  -29.5279  -12.5383   18.2556 C   0  0  0  0  0  0
  -28.0574  -12.3315   18.6674 C   0  0  0  0  0  0
  -27.6413  -13.2431   19.8507 C   0  0  2  0  0  0
  -28.6843  -13.2137   20.9890 C   0  0  0  0  0  0
  -25.2525  -13.8214   20.5729 C   0  0  0  0  0  0
  -24.1827  -13.0446   20.9228 C   0  0  0  0  0  0
  -24.6428  -11.6923   20.8759 C   0  0  0  0  0  0
  -23.9103  -10.4291   21.0419 C   0  0  0  0  0  0
  -24.3642   -9.4194   21.9188 C   0  0  0  0  0  0
  -23.6303   -8.2239   22.0751 C   0  0  0  0  0  0
  -22.4291   -8.0279   21.3536 C   0  0  0  0  0  0
  -21.9935   -9.0266   20.4649 C   0  0  0  0  0  0
  -22.7277  -10.2136   20.3063 C   0  0  0  0  0  0
  -21.6853   -6.0743   22.5274 C   0  0  0  0  0  0
  -21.4016   -6.5646   23.8211 C   0  0  0  0  0  0
  -21.3667   -5.6795   24.9175 C   0  0  0  0  0  0
  -21.6044   -4.3059   24.7218 C   0  0  0  0  0  0
  -21.8819   -3.8151   23.4340 C   0  0  0  0  0  0
  -21.9187   -4.6969   22.3399 C   0  0  0  0  0  0
  -22.7841  -13.5208   21.1882 C   0  0  0  0  0  0
  -22.1660   -4.2158   21.0979 F   0  0  0  0  0  0
  -21.5622   -3.4544   25.7733 F   0  0  0  0  0  0
  -29.9696  -13.6270   20.4098 N   0  0  0  0  0  0
  -26.2946  -12.9442   20.3278 N   0  0  0  0  0  0
  -25.9363  -11.6574   20.5737 N   0  0  0  0  0  0
  -22.0513  -12.8189   22.0437 N   0  0  0  0  0  0
  -25.4220  -15.1951   20.4185 N   0  0  0  0  0  0
  -31.7118  -15.0243   20.1064 O   0  0  0  0  0  0
  -21.6641   -6.8885   21.4238 O   0  0  0  0  0  0
  -22.3523  -14.5520   20.6739 O   0  0  0  0  0  0
  -24.6414  -31.8441   23.1884 C   0  0  0  0  0  0
  -25.9192  -32.4703   23.8275 C   0  0  1  0  0  0
  -27.2320  -27.1614   20.1522 C   0  0  0  0  0  0
  -25.5950  -33.8506   24.2200 N   0  0  0  0  0  0
  -23.4454  -30.4621   21.5334 C   0  0  2  0  0  0
  -24.8993  -28.8914   20.1090 C   0  0  0  0  0  0
  -22.7555  -29.4565   22.4885 C   0  0  0  0  0  0
  -18.0314  -28.1357   22.8422 C   0  0  0  0  0  0
  -24.1490  -36.7250   23.2643 C   0  0  0  0  0  0
  -25.9992  -30.7263   21.3840 C   0  0  0  0  0  0
  -26.0736  -29.3382   20.7288 C   0  0  0  0  0  0
  -27.2389  -28.4881   20.7372 C   0  0  0  0  0  0
  -26.0384  -26.8195   19.4753 C   0  0  0  0  0  0
  -24.8943  -27.6447   19.4653 C   0  0  0  0  0  0
  -23.6704  -29.7859   20.1540 C   0  0  0  0  0  0
  -25.4117  -36.3033   24.0318 C   0  0  1  0  0  0
  -20.5917  -28.3724   23.1219 C   0  0  2  0  0  0
  -20.6839  -26.9435   22.5381 C   0  0  0  0  0  0
  -19.5831  -26.6318   21.5192 C   0  0  0  0  0  0
  -18.1977  -26.7916   22.1526 C   0  0  0  0  0  0
  -19.1556  -28.8851   23.2815 C   0  0  0  0  0  0
  -18.9449  -30.1445   23.8842 C   0  0  0  0  0  0
  -17.6436  -30.6547   24.0511 C   0  0  0  0  0  0
  -25.9074  -34.9410   23.5064 C   0  0  0  0  0  0
  -16.5342  -29.9019   23.6285 C   0  0  0  0  0  0
  -16.7291  -28.6440   23.0305 C   0  0  0  0  0  0
  -26.4525  -31.6553   25.0710 C   0  0  0  0  0  0
  -25.3721  -31.3735   26.1418 C   0  0  0  0  0  0
  -27.0389  -30.2951   24.6265 C   0  0  0  0  0  0
  -27.6055  -32.4318   25.7502 C   0  0  0  0  0  0
  -27.5569  -37.1781   24.8467 C   0  0  0  0  0  0
  -21.4251  -29.3069   22.3612 N   0  0  0  0  0  0
  -26.4278  -37.3737   23.9408 N   0  0  0  0  0  0
  -24.7152  -31.0315   22.0903 N   0  0  0  0  0  0
  -23.4193  -28.8121   23.3052 O   0  0  0  0  0  0
  -28.2927  -26.1924   20.2529 O   0  0  0  0  0  0
  -26.5660  -34.8905   22.4647 O   0  0  0  0  0  0
  -23.5535  -32.1317   23.7107 O   0  0  0  0  0  0
  -30.0312  -18.5194   21.4630 C   0  0  0  0  0  0
  -28.7968  -19.5069   19.2185 C   0  0  0  0  0  0
  -29.6958  -17.5095   20.4906 C   0  0  0  0  0  0
  -29.0553  -20.5185   20.2109 C   0  0  0  0  0  0
  -29.0722  -18.0807   19.3380 C   0  0  0  0  0  0
  -29.7331  -19.9501   21.3462 C   0  0  0  0  0  0
  -28.3886  -21.2150   24.0194 C   0  0  0  0  0  0
  -27.0825  -21.8239   19.7121 C   0  0  0  0  0  0
  -28.2875  -17.6579   17.1014 C   0  0  0  0  0  0
  -28.8991  -23.3277   20.5385 C   0  0  0  0  0  0
  -29.6937  -20.4912   23.6802 C   0  0  0  0  0  0
  -28.0558  -24.6851   19.9885 C   0  0  0  0  0  0
  -29.6998  -16.0030   20.7382 N   0  0  0  0  0  0
  -28.5056  -21.9014   20.0478 N   0  0  0  0  0  0
  -28.6976  -17.1674   18.3729 O   0  0  0  0  0  0
  -30.0838  -20.8262   22.3493 O   0  0  0  0  0  0
  -31.4852  -12.7189   19.1903 H   0  0  0  0  0  0
  -30.4404  -11.5880   20.0011 H   0  0  0  0  0  0
  -29.8405  -11.7573   17.5612 H   0  0  0  0  0  0
  -29.6230  -13.4836   17.7185 H   0  0  0  0  0  0
  -27.9405  -11.2856   18.9535 H   0  0  0  0  0  0
  -27.3971  -12.4903   17.8133 H   0  0  0  0  0  0
  -27.6211  -14.2581   19.4510 H   0  0  0  0  0  0
  -28.7609  -12.2162   21.4239 H   0  0  0  0  0  0
  -28.3930  -13.8765   21.8046 H   0  0  0  0  0  0
  -25.2794   -9.5663   22.4753 H   0  0  0  0  0  0
  -24.0012   -7.4635   22.7480 H   0  0  0  0  0  0
  -21.0855   -8.8797   19.8966 H   0  0  0  0  0  0
  -22.3744  -10.9673   19.6165 H   0  0  0  0  0  0
  -21.2019   -7.6157   23.9716 H   0  0  0  0  0  0
  -21.1492   -6.0532   25.9076 H   0  0  0  0  0  0
  -22.0595   -2.7614   23.2836 H   0  0  0  0  0  0
  -22.4132  -11.9813   22.4770 H   0  0  0  0  0  0
  -21.1134  -13.1203   22.2687 H   0  0  0  0  0  0
  -24.6574  -15.8476   20.5514 H   0  0  0  0  0  0
  -26.2591  -15.6349   20.0601 H   0  0  0  0  0  0
  -26.7269  -32.5312   23.1016 H   0  0  0  0  0  0
  -25.0094  -33.9625   25.0348 H   0  0  0  0  0  0
  -22.7484  -31.2879   21.3768 H   0  0  0  0  0  0
  -23.3755  -35.9583   23.3305 H   0  0  0  0  0  0
  -24.3579  -36.8875   22.2058 H   0  0  0  0  0  0
  -23.7243  -37.6446   23.6679 H   0  0  0  0  0  0
  -26.1494  -31.4791   20.6093 H   0  0  0  0  0  0
  -26.8716  -30.7796   22.0242 H   0  0  0  0  0  0
  -28.1320  -28.8226   21.2469 H   0  0  0  0  0  0
  -25.9570  -25.8731   18.9618 H   0  0  0  0  0  0
  -24.0043  -27.2979   18.9584 H   0  0  0  0  0  0
  -23.7992  -30.5575   19.3948 H   0  0  0  0  0  0
  -22.7870  -29.2198   19.8496 H   0  0  0  0  0  0
  -25.1303  -36.1863   25.0810 H   0  0  0  0  0  0
  -20.9991  -28.3339   24.1345 H   0  0  0  0  0  0
  -20.5786  -26.2333   23.3598 H   0  0  0  0  0  0
  -21.6712  -26.7499   22.1163 H   0  0  0  0  0  0
  -19.7000  -25.6186   21.1337 H   0  0  0  0  0  0
  -19.6811  -27.3009   20.6635 H   0  0  0  0  0  0
  -17.4313  -26.6699   21.3853 H   0  0  0  0  0  0
  -18.0308  -26.0031   22.8887 H   0  0  0  0  0  0
  -19.7916  -30.7301   24.2163 H   0  0  0  0  0  0
  -17.4970  -31.6233   24.5080 H   0  0  0  0  0  0
  -15.5329  -30.2893   23.7582 H   0  0  0  0  0  0
  -15.8709  -28.0730   22.6993 H   0  0  0  0  0  0
  -24.5908  -30.7070   25.7754 H   0  0  0  0  0  0
  -24.8908  -32.2918   26.4793 H   0  0  0  0  0  0
  -25.8023  -30.8955   27.0229 H   0  0  0  0  0  0
  -26.3000  -29.6683   24.1260 H   0  0  0  0  0  0
  -27.4011  -29.7238   25.4820 H   0  0  0  0  0  0
  -27.8907  -30.4204   23.9576 H   0  0  0  0  0  0
  -27.2640  -33.3627   26.2043 H   0  0  0  0  0  0
  -28.3895  -32.6852   25.0357 H   0  0  0  0  0  0
  -28.0700  -31.8468   26.5452 H   0  0  0  0  0  0
  -28.2585  -38.0081   24.7502 H   0  0  0  0  0  0
  -28.1069  -36.2601   24.6310 H   0  0  0  0  0  0
  -27.2295  -37.1455   25.8878 H   0  0  0  0  0  0
  -20.9492  -29.8758   21.6754 H   0  0  0  0  0  0
  -26.0150  -38.2811   24.1404 H   0  0  0  0  0  0
  -30.5105  -18.1704   22.3644 H   0  0  0  0  0  0
  -28.2991  -19.8603   18.3301 H   0  0  0  0  0  0
  -28.0801  -20.9899   25.0410 H   0  0  0  0  0  0
  -27.5811  -20.9124   23.3519 H   0  0  0  0  0  0
  -28.5062  -22.2948   23.9375 H   0  0  0  0  0  0
  -26.6721  -20.8142   19.7447 H   0  0  0  0  0  0
  -26.9105  -22.2254   18.7126 H   0  0  0  0  0  0
  -26.4871  -22.4015   20.4187 H   0  0  0  0  0  0
  -28.0945  -16.8195   16.4320 H   0  0  0  0  0  0
  -29.0665  -18.2701   16.6452 H   0  0  0  0  0  0
  -27.3640  -18.2336   17.1649 H   0  0  0  0  0  0
  -28.8311  -23.3180   21.6277 H   0  0  0  0  0  0
  -29.9583  -23.4695   20.3210 H   0  0  0  0  0  0
  -29.5712  -19.4233   23.8513 H   0  0  0  0  0  0
  -30.4802  -20.8215   24.3586 H   0  0  0  0  0  0
  -27.0328  -24.5131   20.3164 H   0  0  0  0  0  0
  -28.0329  -24.6026   18.9015 H   0  0  0  0  0  0
  -28.7874  -15.6699   21.0056 H   0  0  0  0  0  0
  1 25  1  0  0  0
  1 30  2  0  0  0
  1 83  1  0  0  0
  2  3  1  0  0  0
  2 25  1  0  0  0
  2 87  1  0  0  0
  2 88  1  0  0  0
  3  4  1  0  0  0
  3 89  1  0  0  0
  3 90  1  0  0  0
  4  5  1  0  0  0
  4 91  1  0  0  0
  4 92  1  0  0  0
  5  6  1  0  0  0
  5 26  1  0  0  0
  5 93  1  0  0  0
  6 25  1  0  0  0
  6 94  1  0  0  0
  6 95  1  0  0  0
  7  8  2  0  0  0
  7 26  1  0  0  0
  7 29  1  0  0  0
  8  9  1  0  0  0
  8 22  1  0  0  0
  9 10  1  0  0  0
  9 27  2  0  0  0
 10 11  2  0  0  0
 10 15  1  0  0  0
 11 12  1  0  0  0
 11 96  1  0  0  0
 12 13  2  0  0  0
 12 97  1  0  0  0
 13 14  1  0  0  0
 13 31  1  0  0  0
 14 15  2  0  0  0
 14 98  1  0  0  0
 15 99  1  0  0  0
 16 17  2  0  0  0
 16 21  1  0  0  0
 16 31  1  0  0  0
 17 18  1  0  0  0
 17100  1  0  0  0
 18 19  2  0  0  0
 18101  1  0  0  0
 19 20  1  0  0  0
 19 24  1  0  0  0
 20 21  2  0  0  0
 20102  1  0  0  0
 21 23  1  0  0  0
 22 28  1  0  0  0
 22 32  2  0  0  0
 26 27  1  0  0  0
 28103  1  0  0  0
 28104  1  0  0  0
 29105  1  0  0  0
 29106  1  0  0  0
 33 34  1  0  0  0
 33 66  1  0  0  0
 33 70  2  0  0  0
 34 36  1  0  0  0
 34 59  1  0  0  0
 34107  1  0  0  0
 35 44  2  0  0  0
 35 45  1  0  0  0
 35 68  1  0  0  0
 36 56  1  0  0  0
 36108  1  0  0  0
 37 39  1  0  0  0
 37 47  1  0  0  0
 37 66  1  0  0  0
 37109  1  0  0  0
 38 43  2  0  0  0
 38 46  1  0  0  0
 38 47  1  0  0  0
 39 64  1  0  0  0
 39 67  2  0  0  0
 40 52  1  0  0  0
 40 53  2  0  0  0
 40 58  1  0  0  0
 41110  1  0  0  0
 41111  1  0  0  0
 41112  1  0  0  0
 41 48  1  0  0  0
 42 43  1  0  0  0
 42 66  1  0  0  0
 42113  1  0  0  0
 42114  1  0  0  0
 43 44  1  0  0  0
 44115  1  0  0  0
 45 46  2  0  0  0
 45116  1  0  0  0
 46117  1  0  0  0
 47118  1  0  0  0
 47119  1  0  0  0
 48 56  1  0  0  0
 48 65  1  0  0  0
 48120  1  0  0  0
 49 50  1  0  0  0
 49 53  1  0  0  0
 49 64  1  0  0  0
 49121  1  0  0  0
 50 51  1  0  0  0
 50122  1  0  0  0
 50123  1  0  0  0
 51 52  1  0  0  0
 51124  1  0  0  0
 51125  1  0  0  0
 52126  1  0  0  0
 52127  1  0  0  0
 53 54  1  0  0  0
 54 55  2  0  0  0
 54128  1  0  0  0
 55 57  1  0  0  0
 55129  1  0  0  0
 56 69  2  0  0  0
 57 58  2  0  0  0
 57130  1  0  0  0
 58131  1  0  0  0
 59 60  1  0  0  0
 59 61  1  0  0  0
 59 62  1  0  0  0
 60132  1  0  0  0
 60133  1  0  0  0
 60134  1  0  0  0
 61135  1  0  0  0
 61136  1  0  0  0
 61137  1  0  0  0
 62138  1  0  0  0
 62139  1  0  0  0
 62140  1  0  0  0
 63 65  1  0  0  0
 63141  1  0  0  0
 63142  1  0  0  0
 63143  1  0  0  0
 64144  1  0  0  0
 65145  1  0  0  0
 68 82  1  0  0  0
 71 73  2  0  0  0
 71 76  1  0  0  0
 71146  1  0  0  0
 72 74  1  0  0  0
 72 75  2  0  0  0
 72147  1  0  0  0
 73 75  1  0  0  0
 73 83  1  0  0  0
 74 76  2  0  0  0
 74 84  1  0  0  0
 75 85  1  0  0  0
 76 86  1  0  0  0
 77 81  1  0  0  0
 77148  1  0  0  0
 77149  1  0  0  0
 77150  1  0  0  0
 78 84  1  0  0  0
 78151  1  0  0  0
 78152  1  0  0  0
 78153  1  0  0  0
 79 85  1  0  0  0
 79154  1  0  0  0
 79155  1  0  0  0
 79156  1  0  0  0
 80 82  1  0  0  0
 80 84  1  0  0  0
 80157  1  0  0  0
 80158  1  0  0  0
 81 86  1  0  0  0
 81159  1  0  0  0
 81160  1  0  0  0
 82161  1  0  0  0
 82162  1  0  0  0
 83163  1  0  0  0
M  ISO  4   1 100  68 101  82 101  83 100
M  END
> <chiral flag>
0

> <version>
0

> <s_m_source_file>
/data/baiqing/PycharmProjects/Reinvent-master-3.2/result/LINK_invent/BTK/process_docking_weight1_custom_sum_contain_oxygen_bond_distance_aromatic_linkinvent_7_9_3/rearranged_h_0008.sdf

> <i_m_source_file_index>
46

> <r_mmod_Potential_Energy-OPLS-2005>
466.1015625

> <r_mmod_Stretch_Energy-OPLS-2005>
217.363967895508

> <r_mmod_Bend_Energy-OPLS-2005>
270.706726074219

> <r_mmod_Torsional_Energy-OPLS-2005>
276.172882080078

> <r_mmod_Improper_Torsional_Energy-OPLS-2005>
7.50896596908569

> <r_mmod_Van_der_Waal_Energy-OPLS-2005>
144.126556396484

> <r_mmod_Electrostatic_Energy-OPLS-2005>
-379.937774658203

> <r_mmod_Solvation_Energy-OPLS-2005>
-236.013137817383

> <b_mmod_Minimization_Converged-OPLS-2005>
0

> <r_mmod_RMS_Derivative-OPLS-2005>
2.46016645431519

$$$$
46
                    3D
 Structure written by MMmdl.
157165  0  0  1  0            999 V2000
  -30.7017  -14.4807   20.4876 C   0  0  0  0  0  0
  -30.4110  -12.2892   19.4386 C   0  0  0  0  0  0
  -29.4941  -12.4859   18.2136 C   0  0  0  0  0  0
  -28.0145  -12.3553   18.6230 C   0  0  0  0  0  0
  -27.6558  -13.2111   19.8683 C   0  0  2  0  0  0
  -28.6982  -13.0350   20.9967 C   0  0  0  0  0  0
  -25.2564  -13.8172   20.5673 C   0  0  0  0  0  0
  -24.1824  -13.0440   20.9178 C   0  0  0  0  0  0
  -24.6386  -11.6910   20.8740 C   0  0  0  0  0  0
  -23.9058  -10.4291   21.0411 C   0  0  0  0  0  0
  -24.3613   -9.4211   21.9190 C   0  0  0  0  0  0
  -23.6291   -8.2245   22.0759 C   0  0  0  0  0  0
  -22.4276   -8.0281   21.3547 C   0  0  0  0  0  0
  -21.9913   -9.0252   20.4646 C   0  0  0  0  0  0
  -22.7234  -10.2135   20.3058 C   0  0  0  0  0  0
  -21.6853   -6.0738   22.5281 C   0  0  0  0  0  0
  -21.4015   -6.5644   23.8214 C   0  0  0  0  0  0
  -21.3659   -5.6798   24.9176 C   0  0  0  0  0  0
  -21.6042   -4.3059   24.7229 C   0  0  0  0  0  0
  -21.8822   -3.8151   23.4350 C   0  0  0  0  0  0
  -21.9195   -4.6966   22.3405 C   0  0  0  0  0  0
  -22.7849  -13.5235   21.1851 C   0  0  0  0  0  0
  -22.1661   -4.2151   21.0979 F   0  0  0  0  0  0
  -21.5630   -3.4543   25.7742 F   0  0  0  0  0  0
  -30.0283  -13.3028   20.4333 N   0  0  0  0  0  0
  -26.2996  -12.9348   20.3340 N   0  0  0  0  0  0
  -25.9314  -11.6509   20.5770 N   0  0  0  0  0  0
  -22.0492  -12.8216   22.0399 N   0  0  0  0  0  0
  -25.4277  -15.1886   20.4067 N   0  0  0  0  0  0
  -31.8905  -14.5775   20.1760 O   0  0  0  0  0  0
  -21.6641   -6.8880   21.4242 O   0  0  0  0  0  0
  -22.3538  -14.5549   20.6714 O   0  0  0  0  0  0
  -24.6139  -31.8674   23.2106 C   0  0  0  0  0  0
  -25.9037  -32.4818   23.8399 C   0  0  1  0  0  0
  -27.2326  -27.4389   20.1049 C   0  0  0  0  0  0
  -25.5899  -33.8614   24.2327 N   0  0  0  0  0  0
  -23.4017  -30.4904   21.5506 C   0  0  2  0  0  0
  -24.8491  -28.9558   20.1154 C   0  0  0  0  0  0
  -22.7403  -29.4656   22.4995 C   0  0  0  0  0  0
  -18.0269  -28.1381   22.8501 C   0  0  0  0  0  0
  -24.1485  -36.7310   23.2642 C   0  0  0  0  0  0
  -25.9295  -30.8367   21.3617 C   0  0  0  0  0  0
  -26.0088  -29.4718   20.7082 C   0  0  0  0  0  0
  -27.2071  -28.7222   20.6946 C   0  0  0  0  0  0
  -26.0593  -26.9333   19.5070 C   0  0  0  0  0  0
  -24.8690  -27.6861   19.5105 C   0  0  0  0  0  0
  -23.6095  -29.8212   20.1658 C   0  0  0  0  0  0
  -25.4107  -36.3103   24.0337 C   0  0  1  0  0  0
  -20.5856  -28.3667   23.1323 C   0  0  2  0  0  0
  -20.6756  -26.9406   22.5420 C   0  0  0  0  0  0
  -19.5738  -26.6389   21.5214 C   0  0  0  0  0  0
  -18.1914  -26.7935   22.1617 C   0  0  0  0  0  0
  -19.1517  -28.8840   23.2909 C   0  0  0  0  0  0
  -18.9445  -30.1445   23.8919 C   0  0  0  0  0  0
  -17.6447  -30.6588   24.0572 C   0  0  0  0  0  0
  -25.9034  -34.9468   23.5127 C   0  0  0  0  0  0
  -16.5338  -29.9088   23.6335 C   0  0  0  0  0  0
  -16.7259  -28.6502   23.0364 C   0  0  0  0  0  0
  -26.4480  -31.6595   25.0720 C   0  0  0  0  0  0
  -25.3757  -31.3671   26.1466 C   0  0  0  0  0  0
  -27.0335  -30.3047   24.6096 C   0  0  0  0  0  0
  -27.6047  -32.4322   25.7491 C   0  0  0  0  0  0
  -27.5582  -37.1804   24.8462 C   0  0  0  0  0  0
  -21.4131  -29.3028   22.3729 N   0  0  0  0  0  0
  -26.4294  -37.3788   23.9412 N   0  0  0  0  0  0
  -24.6666  -31.0788   22.0997 N   0  0  0  0  0  0
  -23.4177  -28.8203   23.3038 O   0  0  0  0  0  0
  -28.3873  -26.6895   20.1097 O   0  0  0  0  0  0
  -26.5595  -34.8918   22.4686 O   0  0  0  0  0  0
  -23.5334  -32.1417   23.7512 O   0  0  0  0  0  0
  -30.5828  -19.3384   18.6981 C   0  0  0  0  0  0
  -30.8745  -16.9299   18.7758 C   0  0  0  0  0  0
  -31.0998  -18.1590   18.1321 C   0  0  0  0  0  0
  -29.8102  -19.3006   19.8839 C   0  0  0  0  0  0
  -30.1621  -16.8522   19.9989 C   0  0  0  0  0  0
  -29.6171  -18.0503   20.5369 C   0  0  0  0  0  0
  -28.9377  -21.6476   19.8297 C   0  0  0  0  0  0
  -28.5602  -22.8656   20.6924 C   0  0  0  0  0  0
  -28.6132  -24.2222   19.9311 C   0  0  0  0  0  0
  -28.3011  -25.4432   20.8221 C   0  0  0  0  0  0
  -31.9112  -18.1941   16.8445 C   0  0  0  0  0  0
  -29.2749  -20.5006   20.4617 N   0  0  0  0  0  0
  -29.9454  -15.5872   20.6542 N   0  0  0  0  0  0
  -28.8880  -21.7479   18.6011 O   0  0  0  0  0  0
  -28.9040  -18.0014   21.6885 F   0  0  0  0  0  0
  -31.7963  -19.3643   16.2161 F   0  0  0  0  0  0
  -33.1973  -17.9892   17.1262 F   0  0  0  0  0  0
  -31.4991  -17.2337   16.0162 F   0  0  0  0  0  0
  -31.4592  -12.3630   19.1412 H   0  0  0  0  0  0
  -30.2879  -11.2886   19.8563 H   0  0  0  0  0  0
  -29.7319  -11.7537   17.4413 H   0  0  0  0  0  0
  -29.6687  -13.4675   17.7696 H   0  0  0  0  0  0
  -27.8232  -11.3013   18.8294 H   0  0  0  0  0  0
  -27.3679  -12.6214   17.7859 H   0  0  0  0  0  0
  -27.6860  -14.2511   19.5452 H   0  0  0  0  0  0
  -28.6647  -12.0204   21.3959 H   0  0  0  0  0  0
  -28.4792  -13.6963   21.8367 H   0  0  0  0  0  0
  -25.2758   -9.5690   22.4765 H   0  0  0  0  0  0
  -24.0005   -7.4640   22.7480 H   0  0  0  0  0  0
  -21.0854   -8.8767   19.8943 H   0  0  0  0  0  0
  -22.3694  -10.9678   19.6172 H   0  0  0  0  0  0
  -21.2005   -7.6153   23.9717 H   0  0  0  0  0  0
  -21.1478   -6.0527   25.9076 H   0  0  0  0  0  0
  -22.0601   -2.7610   23.2852 H   0  0  0  0  0  0
  -22.4116  -11.9866   22.4760 H   0  0  0  0  0  0
  -21.1113  -13.1240   22.2617 H   0  0  0  0  0  0
  -24.6617  -15.8439   20.5162 H   0  0  0  0  0  0
  -26.2792  -15.6286   20.0821 H   0  0  0  0  0  0
  -26.7111  -32.5542   23.1171 H   0  0  0  0  0  0
  -25.0077  -33.9787   25.0489 H   0  0  0  0  0  0
  -22.6896  -31.3067   21.4114 H   0  0  0  0  0  0
  -23.3751  -35.9640   23.3302 H   0  0  0  0  0  0
  -24.3575  -36.8934   22.2056 H   0  0  0  0  0  0
  -23.7232  -37.6509   23.6663 H   0  0  0  0  0  0
  -26.0416  -31.6056   20.5960 H   0  0  0  0  0  0
  -26.8170  -30.8887   21.9809 H   0  0  0  0  0  0
  -28.1044  -29.1158   21.1514 H   0  0  0  0  0  0
  -26.0662  -25.9571   19.0434 H   0  0  0  0  0  0
  -23.9767  -27.2838   19.0507 H   0  0  0  0  0  0
  -23.7148  -30.5953   19.4047 H   0  0  0  0  0  0
  -22.7341  -29.2385   19.8727 H   0  0  0  0  0  0
  -25.1283  -36.1973   25.0831 H   0  0  0  0  0  0
  -20.9950  -28.3233   24.1441 H   0  0  0  0  0  0
  -20.5666  -26.2268   23.3603 H   0  0  0  0  0  0
  -21.6628  -26.7449   22.1215 H   0  0  0  0  0  0
  -19.6902  -25.6304   21.1231 H   0  0  0  0  0  0
  -19.6681  -27.3206   20.6755 H   0  0  0  0  0  0
  -17.4189  -26.6710   21.4008 H   0  0  0  0  0  0
  -18.0294  -26.0057   22.8990 H   0  0  0  0  0  0
  -19.7914  -30.7261   24.2297 H   0  0  0  0  0  0
  -17.4999  -31.6271   24.5173 H   0  0  0  0  0  0
  -15.5342  -30.3003   23.7643 H   0  0  0  0  0  0
  -15.8657  -28.0827   22.7084 H   0  0  0  0  0  0
  -24.5960  -30.6986   25.7794 H   0  0  0  0  0  0
  -24.8920  -32.2810   26.4917 H   0  0  0  0  0  0
  -25.8127  -30.8844   27.0217 H   0  0  0  0  0  0
  -26.2879  -29.6776   24.1192 H   0  0  0  0  0  0
  -27.4162  -29.7307   25.4548 H   0  0  0  0  0  0
  -27.8683  -30.4379   23.9212 H   0  0  0  0  0  0
  -27.2658  -33.3607   26.2098 H   0  0  0  0  0  0
  -28.3849  -32.6904   25.0318 H   0  0  0  0  0  0
  -28.0734  -31.8436   26.5392 H   0  0  0  0  0  0
  -28.2587  -38.0114   24.7535 H   0  0  0  0  0  0
  -28.1090  -36.2645   24.6258 H   0  0  0  0  0  0
  -27.2299  -37.1431   25.8865 H   0  0  0  0  0  0
  -20.9288  -29.8733   21.6941 H   0  0  0  0  0  0
  -26.0181  -38.2861   24.1431 H   0  0  0  0  0  0
  -30.7930  -20.2732   18.2024 H   0  0  0  0  0  0
  -31.2763  -16.0478   18.3003 H   0  0  0  0  0  0
  -29.2327  -22.9044   21.5502 H   0  0  0  0  0  0
  -27.5573  -22.7029   21.0879 H   0  0  0  0  0  0
  -27.9070  -24.2019   19.1000 H   0  0  0  0  0  0
  -29.6013  -24.3508   19.4870 H   0  0  0  0  0  0
  -29.0252  -25.4847   21.6371 H   0  0  0  0  0  0
  -27.3287  -25.3099   21.3005 H   0  0  0  0  0  0
  -29.1151  -20.4699   21.4601 H   0  0  0  0  0  0
  -29.0525  -15.4686   21.1088 H   0  0  0  0  0  0
  1 25  1  0  0  0
  1 30  2  0  0  0
  1 83  1  0  0  0
  2  3  1  0  0  0
  2 25  1  0  0  0
  2 89  1  0  0  0
  2 90  1  0  0  0
  3  4  1  0  0  0
  3 91  1  0  0  0
  3 92  1  0  0  0
  4  5  1  0  0  0
  4 93  1  0  0  0
  4 94  1  0  0  0
  5  6  1  0  0  0
  5 26  1  0  0  0
  5 95  1  0  0  0
  6 25  1  0  0  0
  6 96  1  0  0  0
  6 97  1  0  0  0
  7  8  2  0  0  0
  7 26  1  0  0  0
  7 29  1  0  0  0
  8  9  1  0  0  0
  8 22  1  0  0  0
  9 10  1  0  0  0
  9 27  2  0  0  0
 10 11  2  0  0  0
 10 15  1  0  0  0
 11 12  1  0  0  0
 11 98  1  0  0  0
 12 13  2  0  0  0
 12 99  1  0  0  0
 13 14  1  0  0  0
 13 31  1  0  0  0
 14 15  2  0  0  0
 14100  1  0  0  0
 15101  1  0  0  0
 16 17  2  0  0  0
 16 21  1  0  0  0
 16 31  1  0  0  0
 17 18  1  0  0  0
 17102  1  0  0  0
 18 19  2  0  0  0
 18103  1  0  0  0
 19 20  1  0  0  0
 19 24  1  0  0  0
 20 21  2  0  0  0
 20104  1  0  0  0
 21 23  1  0  0  0
 22 28  1  0  0  0
 22 32  2  0  0  0
 26 27  1  0  0  0
 28105  1  0  0  0
 28106  1  0  0  0
 29107  1  0  0  0
 29108  1  0  0  0
 33 34  1  0  0  0
 33 66  1  0  0  0
 33 70  2  0  0  0
 34 36  1  0  0  0
 34 59  1  0  0  0
 34109  1  0  0  0
 35 44  2  0  0  0
 35 45  1  0  0  0
 35 68  1  0  0  0
 36 56  1  0  0  0
 36110  1  0  0  0
 37 39  1  0  0  0
 37 47  1  0  0  0
 37 66  1  0  0  0
 37111  1  0  0  0
 38 43  2  0  0  0
 38 46  1  0  0  0
 38 47  1  0  0  0
 39 64  1  0  0  0
 39 67  2  0  0  0
 40 52  1  0  0  0
 40 53  2  0  0  0
 40 58  1  0  0  0
 41112  1  0  0  0
 41113  1  0  0  0
 41114  1  0  0  0
 41 48  1  0  0  0
 42 43  1  0  0  0
 42 66  1  0  0  0
 42115  1  0  0  0
 42116  1  0  0  0
 43 44  1  0  0  0
 44117  1  0  0  0
 45 46  2  0  0  0
 45118  1  0  0  0
 46119  1  0  0  0
 47120  1  0  0  0
 47121  1  0  0  0
 48 56  1  0  0  0
 48 65  1  0  0  0
 48122  1  0  0  0
 49 50  1  0  0  0
 49 53  1  0  0  0
 49 64  1  0  0  0
 49123  1  0  0  0
 50 51  1  0  0  0
 50124  1  0  0  0
 50125  1  0  0  0
 51 52  1  0  0  0
 51126  1  0  0  0
 51127  1  0  0  0
 52128  1  0  0  0
 52129  1  0  0  0
 53 54  1  0  0  0
 54 55  2  0  0  0
 54130  1  0  0  0
 55 57  1  0  0  0
 55131  1  0  0  0
 56 69  2  0  0  0
 57 58  2  0  0  0
 57132  1  0  0  0
 58133  1  0  0  0
 59 60  1  0  0  0
 59 61  1  0  0  0
 59 62  1  0  0  0
 60134  1  0  0  0
 60135  1  0  0  0
 60136  1  0  0  0
 61137  1  0  0  0
 61138  1  0  0  0
 61139  1  0  0  0
 62140  1  0  0  0
 62141  1  0  0  0
 62142  1  0  0  0
 63 65  1  0  0  0
 63143  1  0  0  0
 63144  1  0  0  0
 63145  1  0  0  0
 64146  1  0  0  0
 65147  1  0  0  0
 68 80  1  0  0  0
 71 73  2  0  0  0
 71 74  1  0  0  0
 71148  1  0  0  0
 72 73  1  0  0  0
 72 75  2  0  0  0
 72149  1  0  0  0
 73 81  1  0  0  0
 74 76  2  0  0  0
 74 82  1  0  0  0
 75 76  1  0  0  0
 75 83  1  0  0  0
 76 85  1  0  0  0
 77 78  1  0  0  0
 77 82  1  0  0  0
 77 84  2  0  0  0
 78 79  1  0  0  0
 78150  1  0  0  0
 78151  1  0  0  0
 79 80  1  0  0  0
 79152  1  0  0  0
 79153  1  0  0  0
 80154  1  0  0  0
 80155  1  0  0  0
 81 86  1  0  0  0
 81 87  1  0  0  0
 81 88  1  0  0  0
 82156  1  0  0  0
 83157  1  0  0  0
M  ISO  4   1 100  68 101  80 101  83 100
M  END
> <chiral flag>
0

> <version>
0

> <s_m_source_file>
/data/baiqing/PycharmProjects/Reinvent-master-3.2/result/LINK_invent/BTK/process_docking_weight1_custom_sum_contain_oxygen_bond_distance_aromatic_linkinvent_7_9_3/rearranged_h_0008.sdf

> <i_m_source_file_index>
47

> <r_mmod_Potential_Energy-OPLS-2005>
-110.831665039062

> <r_mmod_Stretch_Energy-OPLS-2005>
39.3928489685059

> <r_mmod_Bend_Energy-OPLS-2005>
90.6954345703125

> <r_mmod_Torsional_Energy-OPLS-2005>
264.453216552734

> <r_mmod_Improper_Torsional_Energy-OPLS-2005>
6.56224632263184

> <r_mmod_Van_der_Waal_Energy-OPLS-2005>
162.809341430664

> <r_mmod_Electrostatic_Energy-OPLS-2005>
-472.854797363281

> <r_mmod_Solvation_Energy-OPLS-2005>
-220.717071533203

> <b_mmod_Minimization_Converged-OPLS-2005>
0

> <r_mmod_RMS_Derivative-OPLS-2005>
1.0013120174408

$$$$
47
                    3D
 Structure written by MMmdl.
157165  0  0  1  0            999 V2000
  -30.5736  -14.6720   20.4570 C   0  0  0  0  0  0
  -30.4453  -12.4008   19.4659 C   0  0  0  0  0  0
  -29.5187  -12.4911   18.2309 C   0  0  0  0  0  0
  -28.0362  -12.3421   18.6328 C   0  0  0  0  0  0
  -27.6514  -13.2135   19.8581 C   0  0  2  0  0  0
  -28.6933  -13.0751   20.9935 C   0  0  0  0  0  0
  -25.2575  -13.8180   20.5667 C   0  0  0  0  0  0
  -24.1847  -13.0442   20.9173 C   0  0  0  0  0  0
  -24.6402  -11.6914   20.8706 C   0  0  0  0  0  0
  -23.9065  -10.4301   21.0418 C   0  0  0  0  0  0
  -24.3612   -9.4208   21.9179 C   0  0  0  0  0  0
  -23.6285   -8.2253   22.0757 C   0  0  0  0  0  0
  -22.4259   -8.0301   21.3567 C   0  0  0  0  0  0
  -21.9894   -9.0271   20.4665 C   0  0  0  0  0  0
  -22.7247  -10.2142   20.3058 C   0  0  0  0  0  0
  -21.6862   -6.0738   22.5276 C   0  0  0  0  0  0
  -21.4041   -6.5630   23.8215 C   0  0  0  0  0  0
  -21.3653   -5.6763   24.9172 C   0  0  0  0  0  0
  -21.6023   -4.3028   24.7216 C   0  0  0  0  0  0
  -21.8823   -3.8147   23.4335 C   0  0  0  0  0  0
  -21.9205   -4.6968   22.3392 C   0  0  0  0  0  0
  -22.7860  -13.5246   21.1819 C   0  0  0  0  0  0
  -22.1657   -4.2167   21.0978 F   0  0  0  0  0  0
  -21.5612   -3.4510   25.7727 F   0  0  0  0  0  0
  -30.0056  -13.4264   20.4296 N   0  0  0  0  0  0
  -26.2985  -12.9335   20.3295 N   0  0  0  0  0  0
  -25.9328  -11.6489   20.5732 N   0  0  0  0  0  0
  -22.0485  -12.8287   22.0399 N   0  0  0  0  0  0
  -25.4289  -15.1902   20.4107 N   0  0  0  0  0  0
  -31.7404  -14.8520   20.0878 O   0  0  0  0  0  0
  -21.6638   -6.8893   21.4246 O   0  0  0  0  0  0
  -22.3551  -14.5576   20.6695 O   0  0  0  0  0  0
  -24.6240  -31.8617   23.2057 C   0  0  0  0  0  0
  -25.9105  -32.4798   23.8369 C   0  0  1  0  0  0
  -27.2040  -27.3259   20.1136 C   0  0  0  0  0  0
  -25.5932  -33.8585   24.2302 N   0  0  0  0  0  0
  -23.4154  -30.4855   21.5492 C   0  0  2  0  0  0
  -24.8573  -28.9423   20.1105 C   0  0  0  0  0  0
  -22.7461  -29.4628   22.4962 C   0  0  0  0  0  0
  -18.0275  -28.1409   22.8474 C   0  0  0  0  0  0
  -24.1485  -36.7280   23.2628 C   0  0  0  0  0  0
  -25.9552  -30.7968   21.3704 C   0  0  0  0  0  0
  -26.0282  -29.4234   20.7131 C   0  0  0  0  0  0
  -27.2091  -28.6252   20.7042 C   0  0  0  0  0  0
  -26.0159  -26.8913   19.4913 C   0  0  0  0  0  0
  -24.8519  -27.6825   19.4907 C   0  0  0  0  0  0
  -23.6268  -29.8248   20.1623 C   0  0  0  0  0  0
  -25.4112  -36.3086   24.0327 C   0  0  1  0  0  0
  -20.5887  -28.3703   23.1297 C   0  0  2  0  0  0
  -20.6789  -26.9428   22.5428 C   0  0  0  0  0  0
  -19.5756  -26.6391   21.5225 C   0  0  0  0  0  0
  -18.1924  -26.7955   22.1606 C   0  0  0  0  0  0
  -19.1536  -28.8872   23.2886 C   0  0  0  0  0  0
  -18.9450  -30.1471   23.8908 C   0  0  0  0  0  0
  -17.6449  -30.6603   24.0561 C   0  0  0  0  0  0
  -25.9055  -34.9450   23.5108 C   0  0  0  0  0  0
  -16.5339  -29.9096   23.6345 C   0  0  0  0  0  0
  -16.7262  -28.6525   23.0354 C   0  0  0  0  0  0
  -26.4487  -31.6594   25.0729 C   0  0  0  0  0  0
  -25.3717  -31.3734   26.1456 C   0  0  0  0  0  0
  -27.0294  -30.3015   24.6141 C   0  0  0  0  0  0
  -27.6068  -32.4307   25.7474 C   0  0  0  0  0  0
  -27.5587  -37.1784   24.8449 C   0  0  0  0  0  0
  -21.4188  -29.3045   22.3696 N   0  0  0  0  0  0
  -26.4294  -37.3776   23.9407 N   0  0  0  0  0  0
  -24.6845  -31.0624   22.1003 N   0  0  0  0  0  0
  -23.4206  -28.8176   23.3044 O   0  0  0  0  0  0
  -28.3135  -26.4791   20.1178 O   0  0  0  0  0  0
  -26.5611  -34.8920   22.4678 O   0  0  0  0  0  0
  -23.5409  -32.1408   23.7391 O   0  0  0  0  0  0
  -29.2184  -18.9887   18.8360 C   0  0  0  0  0  0
  -29.5756  -19.5096   21.1522 C   0  0  0  0  0  0
  -29.3906  -17.5975   19.1086 C   0  0  0  0  0  0
  -29.7738  -18.1218   21.4346 C   0  0  0  0  0  0
  -29.2806  -19.9822   19.8475 C   0  0  0  0  0  0
  -29.7156  -17.1268   20.4154 C   0  0  0  0  0  0
  -28.5498  -22.4267   20.2156 C   0  0  0  0  0  0
  -29.1010  -16.6253   17.9807 C   0  0  0  0  0  0
  -29.9888  -17.7051   22.8763 C   0  0  0  0  0  0
  -28.5409  -23.8853   19.6022 C   0  0  0  0  0  0
  -28.1072  -25.0796   20.5568 C   0  0  0  0  0  0
  -29.0826  -21.3883   19.4951 N   0  0  0  0  0  0
  -29.7196  -15.7035   20.7620 N   0  0  0  0  0  0
  -28.0483  -22.2418   21.3245 O   0  0  0  0  0  0
  -31.4888  -12.5314   19.1755 H   0  0  0  0  0  0
  -30.3828  -11.4155   19.9283 H   0  0  0  0  0  0
  -29.7900  -11.7222   17.5071 H   0  0  0  0  0  0
  -29.6730  -13.4447   17.7263 H   0  0  0  0  0  0
  -27.8624  -11.2894   18.8606 H   0  0  0  0  0  0
  -27.3951  -12.5848   17.7827 H   0  0  0  0  0  0
  -27.6658  -14.2482   19.5137 H   0  0  0  0  0  0
  -28.7134  -12.0544   21.3792 H   0  0  0  0  0  0
  -28.4360  -13.7084   21.8433 H   0  0  0  0  0  0
  -25.2756   -9.5687   22.4742 H   0  0  0  0  0  0
  -24.0013   -7.4633   22.7453 H   0  0  0  0  0  0
  -21.0832   -8.8811   19.8950 H   0  0  0  0  0  0
  -22.3726  -10.9677   19.6162 H   0  0  0  0  0  0
  -21.2051   -7.6123   23.9729 H   0  0  0  0  0  0
  -21.1445   -6.0488   25.9074 H   0  0  0  0  0  0
  -22.0607   -2.7608   23.2831 H   0  0  0  0  0  0
  -22.4053  -11.9938   22.4817 H   0  0  0  0  0  0
  -21.1102  -13.1368   22.2563 H   0  0  0  0  0  0
  -24.6641  -15.8451   20.5280 H   0  0  0  0  0  0
  -26.2811  -15.6348   20.1011 H   0  0  0  0  0  0
  -26.7167  -32.5464   23.1112 H   0  0  0  0  0  0
  -25.0140  -33.9746   25.0485 H   0  0  0  0  0  0
  -22.7083  -31.3062   21.4118 H   0  0  0  0  0  0
  -23.3772  -35.9584   23.3271 H   0  0  0  0  0  0
  -24.3585  -36.8921   22.2045 H   0  0  0  0  0  0
  -23.7214  -37.6465   23.6665 H   0  0  0  0  0  0
  -26.0800  -31.5623   20.6013 H   0  0  0  0  0  0
  -26.8394  -30.8492   21.9961 H   0  0  0  0  0  0
  -28.1117  -28.9888   21.1760 H   0  0  0  0  0  0
  -25.9817  -25.9261   19.0075 H   0  0  0  0  0  0
  -23.9537  -27.3119   19.0160 H   0  0  0  0  0  0
  -23.7431  -30.6021   19.4055 H   0  0  0  0  0  0
  -22.7459  -29.2529   19.8669 H   0  0  0  0  0  0
  -25.1287  -36.1938   25.0820 H   0  0  0  0  0  0
  -20.9953  -28.3284   24.1421 H   0  0  0  0  0  0
  -20.5729  -26.2289   23.3618 H   0  0  0  0  0  0
  -21.6655  -26.7501   22.1190 H   0  0  0  0  0  0
  -19.6920  -25.6300   21.1255 H   0  0  0  0  0  0
  -19.6711  -27.3210   20.6762 H   0  0  0  0  0  0
  -17.4215  -26.6732   21.3988 H   0  0  0  0  0  0
  -18.0279  -26.0115   22.9002 H   0  0  0  0  0  0
  -19.7924  -30.7292   24.2294 H   0  0  0  0  0  0
  -17.5001  -31.6295   24.5135 H   0  0  0  0  0  0
  -15.5346  -30.2990   23.7680 H   0  0  0  0  0  0
  -15.8656  -28.0837   22.7074 H   0  0  0  0  0  0
  -24.5899  -30.7070   25.7800 H   0  0  0  0  0  0
  -24.8905  -32.2899   26.4867 H   0  0  0  0  0  0
  -25.8046  -30.8932   27.0239 H   0  0  0  0  0  0
  -26.2843  -29.6798   24.1166 H   0  0  0  0  0  0
  -27.3999  -29.7237   25.4620 H   0  0  0  0  0  0
  -27.8716  -30.4305   23.9340 H   0  0  0  0  0  0
  -27.2715  -33.3608   26.2059 H   0  0  0  0  0  0
  -28.3855  -32.6850   25.0280 H   0  0  0  0  0  0
  -28.0749  -31.8426   26.5367 H   0  0  0  0  0  0
  -28.2580  -38.0107   24.7559 H   0  0  0  0  0  0
  -28.1111  -36.2648   24.6189 H   0  0  0  0  0  0
  -27.2317  -37.1346   25.8854 H   0  0  0  0  0  0
  -20.9367  -29.8733   21.6880 H   0  0  0  0  0  0
  -26.0172  -38.2841   24.1464 H   0  0  0  0  0  0
  -28.9691  -19.2908   17.8282 H   0  0  0  0  0  0
  -29.6316  -20.2266   21.9578 H   0  0  0  0  0  0
  -29.1992  -17.1093   17.0090 H   0  0  0  0  0  0
  -28.0782  -16.2609   18.0769 H   0  0  0  0  0  0
  -29.7740  -15.7708   17.9846 H   0  0  0  0  0  0
  -30.2234  -18.5607   23.5097 H   0  0  0  0  0  0
  -30.8078  -16.9918   22.9620 H   0  0  0  0  0  0
  -29.0820  -17.2357   23.2588 H   0  0  0  0  0  0
  -27.8992  -23.8882   18.7207 H   0  0  0  0  0  0
  -29.5451  -24.0894   19.2344 H   0  0  0  0  0  0
  -28.6786  -24.9794   21.4793 H   0  0  0  0  0  0
  -27.0724  -24.9123   20.8647 H   0  0  0  0  0  0
  -29.3183  -21.6287   18.5400 H   0  0  0  0  0  0
  -28.8482  -15.3778   21.1465 H   0  0  0  0  0  0
  1 25  1  0  0  0
  1 30  2  0  0  0
  1 83  1  0  0  0
  2  3  1  0  0  0
  2 25  1  0  0  0
  2 85  1  0  0  0
  2 86  1  0  0  0
  3  4  1  0  0  0
  3 87  1  0  0  0
  3 88  1  0  0  0
  4  5  1  0  0  0
  4 89  1  0  0  0
  4 90  1  0  0  0
  5  6  1  0  0  0
  5 26  1  0  0  0
  5 91  1  0  0  0
  6 25  1  0  0  0
  6 92  1  0  0  0
  6 93  1  0  0  0
  7  8  2  0  0  0
  7 26  1  0  0  0
  7 29  1  0  0  0
  8  9  1  0  0  0
  8 22  1  0  0  0
  9 10  1  0  0  0
  9 27  2  0  0  0
 10 11  2  0  0  0
 10 15  1  0  0  0
 11 12  1  0  0  0
 11 94  1  0  0  0
 12 13  2  0  0  0
 12 95  1  0  0  0
 13 14  1  0  0  0
 13 31  1  0  0  0
 14 15  2  0  0  0
 14 96  1  0  0  0
 15 97  1  0  0  0
 16 17  2  0  0  0
 16 21  1  0  0  0
 16 31  1  0  0  0
 17 18  1  0  0  0
 17 98  1  0  0  0
 18 19  2  0  0  0
 18 99  1  0  0  0
 19 20  1  0  0  0
 19 24  1  0  0  0
 20 21  2  0  0  0
 20100  1  0  0  0
 21 23  1  0  0  0
 22 28  1  0  0  0
 22 32  2  0  0  0
 26 27  1  0  0  0
 28101  1  0  0  0
 28102  1  0  0  0
 29103  1  0  0  0
 29104  1  0  0  0
 33 34  1  0  0  0
 33 66  1  0  0  0
 33 70  2  0  0  0
 34 36  1  0  0  0
 34 59  1  0  0  0
 34105  1  0  0  0
 35 44  2  0  0  0
 35 45  1  0  0  0
 35 68  1  0  0  0
 36 56  1  0  0  0
 36106  1  0  0  0
 37 39  1  0  0  0
 37 47  1  0  0  0
 37 66  1  0  0  0
 37107  1  0  0  0
 38 43  2  0  0  0
 38 46  1  0  0  0
 38 47  1  0  0  0
 39 64  1  0  0  0
 39 67  2  0  0  0
 40 52  1  0  0  0
 40 53  2  0  0  0
 40 58  1  0  0  0
 41108  1  0  0  0
 41109  1  0  0  0
 41110  1  0  0  0
 41 48  1  0  0  0
 42 43  1  0  0  0
 42 66  1  0  0  0
 42111  1  0  0  0
 42112  1  0  0  0
 43 44  1  0  0  0
 44113  1  0  0  0
 45 46  2  0  0  0
 45114  1  0  0  0
 46115  1  0  0  0
 47116  1  0  0  0
 47117  1  0  0  0
 48 56  1  0  0  0
 48 65  1  0  0  0
 48118  1  0  0  0
 49 50  1  0  0  0
 49 53  1  0  0  0
 49 64  1  0  0  0
 49119  1  0  0  0
 50 51  1  0  0  0
 50120  1  0  0  0
 50121  1  0  0  0
 51 52  1  0  0  0
 51122  1  0  0  0
 51123  1  0  0  0
 52124  1  0  0  0
 52125  1  0  0  0
 53 54  1  0  0  0
 54 55  2  0  0  0
 54126  1  0  0  0
 55 57  1  0  0  0
 55127  1  0  0  0
 56 69  2  0  0  0
 57 58  2  0  0  0
 57128  1  0  0  0
 58129  1  0  0  0
 59 60  1  0  0  0
 59 61  1  0  0  0
 59 62  1  0  0  0
 60130  1  0  0  0
 60131  1  0  0  0
 60132  1  0  0  0
 61133  1  0  0  0
 61134  1  0  0  0
 61135  1  0  0  0
 62136  1  0  0  0
 62137  1  0  0  0
 62138  1  0  0  0
 63 65  1  0  0  0
 63139  1  0  0  0
 63140  1  0  0  0
 63141  1  0  0  0
 64142  1  0  0  0
 65143  1  0  0  0
 68 81  1  0  0  0
 71 73  2  0  0  0
 71 75  1  0  0  0
 71144  1  0  0  0
 72 74  1  0  0  0
 72 75  2  0  0  0
 72145  1  0  0  0
 73 76  1  0  0  0
 73 78  1  0  0  0
 74 76  2  0  0  0
 74 79  1  0  0  0
 75 82  1  0  0  0
 76 83  1  0  0  0
 77 80  1  0  0  0
 77 82  1  0  0  0
 77 84  2  0  0  0
 78146  1  0  0  0
 78147  1  0  0  0
 78148  1  0  0  0
 79149  1  0  0  0
 79150  1  0  0  0
 79151  1  0  0  0
 80 81  1  0  0  0
 80152  1  0  0  0
 80153  1  0  0  0
 81154  1  0  0  0
 81155  1  0  0  0
 82156  1  0  0  0
 83157  1  0  0  0
M  ISO  4   1 100  68 101  81 101  83 100
M  END
> <chiral flag>
0

> <version>
0

> <s_m_source_file>
/data/baiqing/PycharmProjects/Reinvent-master-3.2/result/LINK_invent/BTK/process_docking_weight1_custom_sum_contain_oxygen_bond_distance_aromatic_linkinvent_7_9_3/rearranged_h_0008.sdf

> <i_m_source_file_index>
48

> <r_mmod_Potential_Energy-OPLS-2005>
-0.691497206687927

> <r_mmod_Stretch_Energy-OPLS-2005>
75.2995376586914

> <r_mmod_Bend_Energy-OPLS-2005>
129.294631958008

> <r_mmod_Torsional_Energy-OPLS-2005>
272.643585205078

> <r_mmod_Improper_Torsional_Energy-OPLS-2005>
6.36526870727539

> <r_mmod_Van_der_Waal_Energy-OPLS-2005>
137.878723144531

> <r_mmod_Electrostatic_Energy-OPLS-2005>
-445.075225830078

> <r_mmod_Solvation_Energy-OPLS-2005>
-232.114700317383

> <b_mmod_Minimization_Converged-OPLS-2005>
0

> <r_mmod_RMS_Derivative-OPLS-2005>
5.30618858337402

$$$$
48
                    3D
 Structure written by MMmdl.
154162  0  0  1  0            999 V2000
  -30.6517  -14.7269   20.4444 C   0  0  0  0  0  0
  -30.4240  -12.4437   19.4770 C   0  0  0  0  0  0
  -29.5050  -12.5073   18.2375 C   0  0  0  0  0  0
  -28.0319  -12.3368   18.6522 C   0  0  0  0  0  0
  -27.6429  -13.2376   19.8553 C   0  0  2  0  0  0
  -28.6919  -13.1826   20.9891 C   0  0  0  0  0  0
  -25.2511  -13.8218   20.5721 C   0  0  0  0  0  0
  -24.1805  -13.0449   20.9205 C   0  0  0  0  0  0
  -24.6400  -11.6924   20.8756 C   0  0  0  0  0  0
  -23.9085  -10.4292   21.0399 C   0  0  0  0  0  0
  -24.3629   -9.4213   21.9184 C   0  0  0  0  0  0
  -23.6294   -8.2254   22.0758 C   0  0  0  0  0  0
  -22.4291   -8.0283   21.3539 C   0  0  0  0  0  0
  -21.9927   -9.0258   20.4655 C   0  0  0  0  0  0
  -22.7252  -10.2132   20.3058 C   0  0  0  0  0  0
  -21.6856   -6.0736   22.5261 C   0  0  0  0  0  0
  -21.4020   -6.5637   23.8195 C   0  0  0  0  0  0
  -21.3661   -5.6794   24.9163 C   0  0  0  0  0  0
  -21.6044   -4.3054   24.7218 C   0  0  0  0  0  0
  -21.8820   -3.8142   23.4339 C   0  0  0  0  0  0
  -21.9194   -4.6960   22.3390 C   0  0  0  0  0  0
  -22.7827  -13.5214   21.1854 C   0  0  0  0  0  0
  -22.1660   -4.2135   21.0970 F   0  0  0  0  0  0
  -21.5634   -3.4539   25.7738 F   0  0  0  0  0  0
  -29.9962  -13.5161   20.4049 N   0  0  0  0  0  0
  -26.2957  -12.9430   20.3344 N   0  0  0  0  0  0
  -25.9346  -11.6559   20.5795 N   0  0  0  0  0  0
  -22.0488  -12.8192   22.0409 N   0  0  0  0  0  0
  -25.4189  -15.1942   20.4140 N   0  0  0  0  0  0
  -31.8449  -14.7710   20.1417 O   0  0  0  0  0  0
  -21.6644   -6.8886   21.4229 O   0  0  0  0  0  0
  -22.3507  -14.5509   20.6693 O   0  0  0  0  0  0
  -24.6292  -31.8565   23.2039 C   0  0  0  0  0  0
  -25.9127  -32.4773   23.8368 C   0  0  1  0  0  0
  -27.2231  -27.2682   20.1298 C   0  0  0  0  0  0
  -25.5947  -33.8576   24.2293 N   0  0  0  0  0  0
  -23.4284  -30.4801   21.5447 C   0  0  2  0  0  0
  -24.8790  -28.9369   20.1055 C   0  0  0  0  0  0
  -22.7509  -29.4581   22.4897 C   0  0  0  0  0  0
  -18.0289  -28.1381   22.8460 C   0  0  0  0  0  0
  -24.1499  -36.7279   23.2634 C   0  0  0  0  0  0
  -25.9746  -30.7707   21.3887 C   0  0  0  0  0  0
  -26.0471  -29.3955   20.7263 C   0  0  0  0  0  0
  -27.2184  -28.5715   20.7341 C   0  0  0  0  0  0
  -26.0381  -26.8930   19.4528 C   0  0  0  0  0  0
  -24.8803  -27.6941   19.4563 C   0  0  0  0  0  0
  -23.6496  -29.8245   20.1562 C   0  0  0  0  0  0
  -25.4123  -36.3074   24.0324 C   0  0  1  0  0  0
  -20.5902  -28.3685   23.1259 C   0  0  2  0  0  0
  -20.6790  -26.9398   22.5411 C   0  0  0  0  0  0
  -19.5765  -26.6377   21.5209 C   0  0  0  0  0  0
  -18.1929  -26.7921   22.1605 C   0  0  0  0  0  0
  -19.1546  -28.8843   23.2847 C   0  0  0  0  0  0
  -18.9465  -30.1435   23.8881 C   0  0  0  0  0  0
  -17.6471  -30.6580   24.0539 C   0  0  0  0  0  0
  -25.9054  -34.9446   23.5103 C   0  0  0  0  0  0
  -16.5353  -29.9079   23.6327 C   0  0  0  0  0  0
  -16.7275  -28.6498   23.0342 C   0  0  0  0  0  0
  -26.4524  -31.6593   25.0746 C   0  0  0  0  0  0
  -25.3741  -31.3706   26.1461 C   0  0  0  0  0  0
  -27.0407  -30.3016   24.6239 C   0  0  0  0  0  0
  -27.6081  -32.4343   25.7502 C   0  0  0  0  0  0
  -27.5584  -37.1792   24.8455 C   0  0  0  0  0  0
  -21.4211  -29.3038   22.3651 N   0  0  0  0  0  0
  -26.4301  -37.3770   23.9393 N   0  0  0  0  0  0
  -24.6949  -31.0543   22.1015 N   0  0  0  0  0  0
  -23.4215  -28.8094   23.2970 O   0  0  0  0  0  0
  -28.3191  -26.3745   20.2298 O   0  0  0  0  0  0
  -26.5614  -34.8910   22.4666 O   0  0  0  0  0  0
  -23.5451  -32.1398   23.7341 O   0  0  0  0  0  0
  -31.1550  -17.5345   19.1786 C   0  0  0  0  0  0
  -30.7899  -19.9625   19.2416 C   0  0  0  0  0  0
  -29.5570  -18.4883   20.7318 C   0  0  0  0  0  0
  -31.4485  -18.8340   18.7059 C   0  0  0  0  0  0
  -30.2155  -17.2973   20.2116 C   0  0  0  0  0  0
  -29.8124  -19.8427   20.2541 C   0  0  0  0  0  0
  -28.9409  -23.7199   20.6375 C   0  0  0  0  0  0
  -28.1656  -24.9183   19.8804 C   0  0  0  0  0  0
  -28.8799  -22.2323   19.9984 C   0  0  0  0  0  0
  -32.5111  -19.0078   17.6261 C   0  0  0  0  0  0
  -29.9252  -15.8964   20.6448 N   0  0  0  0  0  0
  -29.2029  -21.0109   20.8018 O   0  0  0  0  0  0
  -32.4015  -18.0557   16.6970 F   0  0  0  0  0  0
  -32.4046  -20.1905   17.0171 F   0  0  0  0  0  0
  -33.7234  -18.9259   18.1751 F   0  0  0  0  0  0
  -31.4674  -12.5454   19.1731 H   0  0  0  0  0  0
  -30.3499  -11.4702   19.9631 H   0  0  0  0  0  0
  -29.7825  -11.7357   17.5173 H   0  0  0  0  0  0
  -29.6330  -13.4645   17.7275 H   0  0  0  0  0  0
  -27.8850  -11.2889   18.9151 H   0  0  0  0  0  0
  -27.3731  -12.5307   17.8053 H   0  0  0  0  0  0
  -27.6346  -14.2583   19.4719 H   0  0  0  0  0  0
  -28.7227  -12.1938   21.4471 H   0  0  0  0  0  0
  -28.4350  -13.8800   21.7884 H   0  0  0  0  0  0
  -25.2779   -9.5677   22.4759 H   0  0  0  0  0  0
  -23.9988   -7.4653   22.7493 H   0  0  0  0  0  0
  -21.0854   -8.8795   19.8964 H   0  0  0  0  0  0
  -22.3722  -10.9681   19.6168 H   0  0  0  0  0  0
  -21.2016   -7.6147   23.9690 H   0  0  0  0  0  0
  -21.1486   -6.0532   25.9065 H   0  0  0  0  0  0
  -22.0600   -2.7601   23.2845 H   0  0  0  0  0  0
  -22.4136  -11.9846   22.4760 H   0  0  0  0  0  0
  -21.1118  -13.1210   22.2654 H   0  0  0  0  0  0
  -24.6479  -15.8458   20.5200 H   0  0  0  0  0  0
  -26.2642  -15.6344   20.0721 H   0  0  0  0  0  0
  -26.7171  -32.5433   23.1090 H   0  0  0  0  0  0
  -25.0122  -33.9715   25.0461 H   0  0  0  0  0  0
  -22.7228  -31.3008   21.4020 H   0  0  0  0  0  0
  -23.3773  -35.9597   23.3305 H   0  0  0  0  0  0
  -24.3560  -36.8901   22.2035 H   0  0  0  0  0  0
  -23.7247  -37.6476   23.6676 H   0  0  0  0  0  0
  -26.1167  -31.5350   20.6245 H   0  0  0  0  0  0
  -26.8496  -30.8144   22.0272 H   0  0  0  0  0  0
  -28.1054  -28.9088   21.2509 H   0  0  0  0  0  0
  -25.9639  -25.9603   18.9160 H   0  0  0  0  0  0
  -23.9910  -27.3475   18.9476 H   0  0  0  0  0  0
  -23.7762  -30.6094   19.4089 H   0  0  0  0  0  0
  -22.7696  -29.2595   19.8449 H   0  0  0  0  0  0
  -25.1306  -36.1930   25.0821 H   0  0  0  0  0  0
  -20.9958  -28.3306   24.1395 H   0  0  0  0  0  0
  -20.5714  -26.2285   23.3624 H   0  0  0  0  0  0
  -21.6653  -26.7458   22.1173 H   0  0  0  0  0  0
  -19.6932  -25.6285   21.1237 H   0  0  0  0  0  0
  -19.6735  -27.3196   20.6736 H   0  0  0  0  0  0
  -17.4209  -26.6654   21.3988 H   0  0  0  0  0  0
  -18.0301  -26.0091   22.9018 H   0  0  0  0  0  0
  -19.7954  -30.7208   24.2305 H   0  0  0  0  0  0
  -17.5042  -31.6282   24.5112 H   0  0  0  0  0  0
  -15.5348  -30.2959   23.7700 H   0  0  0  0  0  0
  -15.8671  -28.0815   22.7075 H   0  0  0  0  0  0
  -24.5944  -30.7043   25.7752 H   0  0  0  0  0  0
  -24.8896  -32.2850   26.4902 H   0  0  0  0  0  0
  -25.8052  -30.8865   27.0235 H   0  0  0  0  0  0
  -26.3009  -29.6709   24.1303 H   0  0  0  0  0  0
  -27.4116  -29.7343   25.4781 H   0  0  0  0  0  0
  -27.8875  -30.4294   23.9489 H   0  0  0  0  0  0
  -27.2740  -33.3679   26.2053 H   0  0  0  0  0  0
  -28.3926  -32.6837   25.0341 H   0  0  0  0  0  0
  -28.0742  -31.8475   26.5445 H   0  0  0  0  0  0
  -28.2580  -38.0107   24.7526 H   0  0  0  0  0  0
  -28.1104  -36.2629   24.6290 H   0  0  0  0  0  0
  -27.2276  -37.1442   25.8848 H   0  0  0  0  0  0
  -20.9401  -29.8789   21.6876 H   0  0  0  0  0  0
  -26.0189  -38.2833   24.1440 H   0  0  0  0  0  0
  -31.6824  -16.7176   18.7109 H   0  0  0  0  0  0
  -31.0832  -20.9344   18.8779 H   0  0  0  0  0  0
  -28.8318  -18.3643   21.5232 H   0  0  0  0  0  0
  -28.5423  -23.6680   21.6513 H   0  0  0  0  0  0
  -29.9869  -23.9967   20.7547 H   0  0  0  0  0  0
  -27.1230  -24.6282   19.9838 H   0  0  0  0  0  0
  -28.3977  -24.8389   18.8180 H   0  0  0  0  0  0
  -29.4465  -22.2593   19.0711 H   0  0  0  0  0  0
  -27.8502  -22.0750   19.6764 H   0  0  0  0  0  0
  -29.0051  -15.7513   21.0338 H   0  0  0  0  0  0
  1 25  1  0  0  0
  1 30  2  0  0  0
  1 81  1  0  0  0
  2  3  1  0  0  0
  2 25  1  0  0  0
  2 86  1  0  0  0
  2 87  1  0  0  0
  3  4  1  0  0  0
  3 88  1  0  0  0
  3 89  1  0  0  0
  4  5  1  0  0  0
  4 90  1  0  0  0
  4 91  1  0  0  0
  5  6  1  0  0  0
  5 26  1  0  0  0
  5 92  1  0  0  0
  6 25  1  0  0  0
  6 93  1  0  0  0
  6 94  1  0  0  0
  7  8  2  0  0  0
  7 26  1  0  0  0
  7 29  1  0  0  0
  8  9  1  0  0  0
  8 22  1  0  0  0
  9 10  1  0  0  0
  9 27  2  0  0  0
 10 11  2  0  0  0
 10 15  1  0  0  0
 11 12  1  0  0  0
 11 95  1  0  0  0
 12 13  2  0  0  0
 12 96  1  0  0  0
 13 14  1  0  0  0
 13 31  1  0  0  0
 14 15  2  0  0  0
 14 97  1  0  0  0
 15 98  1  0  0  0
 16 17  2  0  0  0
 16 21  1  0  0  0
 16 31  1  0  0  0
 17 18  1  0  0  0
 17 99  1  0  0  0
 18 19  2  0  0  0
 18100  1  0  0  0
 19 20  1  0  0  0
 19 24  1  0  0  0
 20 21  2  0  0  0
 20101  1  0  0  0
 21 23  1  0  0  0
 22 28  1  0  0  0
 22 32  2  0  0  0
 26 27  1  0  0  0
 28102  1  0  0  0
 28103  1  0  0  0
 29104  1  0  0  0
 29105  1  0  0  0
 33 34  1  0  0  0
 33 66  1  0  0  0
 33 70  2  0  0  0
 34 36  1  0  0  0
 34 59  1  0  0  0
 34106  1  0  0  0
 35 44  2  0  0  0
 35 45  1  0  0  0
 35 68  1  0  0  0
 36 56  1  0  0  0
 36107  1  0  0  0
 37 39  1  0  0  0
 37 47  1  0  0  0
 37 66  1  0  0  0
 37108  1  0  0  0
 38 43  2  0  0  0
 38 46  1  0  0  0
 38 47  1  0  0  0
 39 64  1  0  0  0
 39 67  2  0  0  0
 40 52  1  0  0  0
 40 53  2  0  0  0
 40 58  1  0  0  0
 41109  1  0  0  0
 41110  1  0  0  0
 41111  1  0  0  0
 41 48  1  0  0  0
 42 43  1  0  0  0
 42 66  1  0  0  0
 42112  1  0  0  0
 42113  1  0  0  0
 43 44  1  0  0  0
 44114  1  0  0  0
 45 46  2  0  0  0
 45115  1  0  0  0
 46116  1  0  0  0
 47117  1  0  0  0
 47118  1  0  0  0
 48 56  1  0  0  0
 48 65  1  0  0  0
 48119  1  0  0  0
 49 50  1  0  0  0
 49 53  1  0  0  0
 49 64  1  0  0  0
 49120  1  0  0  0
 50 51  1  0  0  0
 50121  1  0  0  0
 50122  1  0  0  0
 51 52  1  0  0  0
 51123  1  0  0  0
 51124  1  0  0  0
 52125  1  0  0  0
 52126  1  0  0  0
 53 54  1  0  0  0
 54 55  2  0  0  0
 54127  1  0  0  0
 55 57  1  0  0  0
 55128  1  0  0  0
 56 69  2  0  0  0
 57 58  2  0  0  0
 57129  1  0  0  0
 58130  1  0  0  0
 59 60  1  0  0  0
 59 61  1  0  0  0
 59 62  1  0  0  0
 60131  1  0  0  0
 60132  1  0  0  0
 60133  1  0  0  0
 61134  1  0  0  0
 61135  1  0  0  0
 61136  1  0  0  0
 62137  1  0  0  0
 62138  1  0  0  0
 62139  1  0  0  0
 63 65  1  0  0  0
 63140  1  0  0  0
 63141  1  0  0  0
 63142  1  0  0  0
 64143  1  0  0  0
 65144  1  0  0  0
 68 78  1  0  0  0
 71 74  2  0  0  0
 71 75  1  0  0  0
 71145  1  0  0  0
 72 74  1  0  0  0
 72 76  2  0  0  0
 72146  1  0  0  0
 73 75  2  0  0  0
 73 76  1  0  0  0
 73147  1  0  0  0
 74 80  1  0  0  0
 75 81  1  0  0  0
 76 82  1  0  0  0
 77 78  1  0  0  0
 77 79  1  0  0  0
 77148  1  0  0  0
 77149  1  0  0  0
 78150  1  0  0  0
 78151  1  0  0  0
 79 82  1  0  0  0
 79152  1  0  0  0
 79153  1  0  0  0
 80 83  1  0  0  0
 80 84  1  0  0  0
 80 85  1  0  0  0
 81154  1  0  0  0
M  ISO  4   1 100  68 101  78 101  81 100
M  END
> <chiral flag>
0

> <version>
0

> <s_m_source_file>
/data/baiqing/PycharmProjects/Reinvent-master-3.2/result/LINK_invent/BTK/process_docking_weight1_custom_sum_contain_oxygen_bond_distance_aromatic_linkinvent_7_9_3/rearranged_h_0008.sdf

> <i_m_source_file_index>
49

> <r_mmod_Potential_Energy-OPLS-2005>
189.599533081055

> <r_mmod_Stretch_Energy-OPLS-2005>
124.66756439209

> <r_mmod_Bend_Energy-OPLS-2005>
169.273010253906

> <r_mmod_Torsional_Energy-OPLS-2005>
230.927490234375

> <r_mmod_Improper_Torsional_Energy-OPLS-2005>
4.37099266052246

> <r_mmod_Van_der_Waal_Energy-OPLS-2005>
152.08332824707

> <r_mmod_Electrostatic_Energy-OPLS-2005>
-364.498779296875

> <r_mmod_Solvation_Energy-OPLS-2005>
-209.674240112305

> <b_mmod_Minimization_Converged-OPLS-2005>
0

> <r_mmod_RMS_Derivative-OPLS-2005>
2.73974776268005

$$$$
49
                    3D
 Structure written by MMmdl.
153161  0  0  1  0            999 V2000
  -30.6569  -14.6524   20.4609 C   0  0  0  0  0  0
  -30.4207  -12.3901   19.4744 C   0  0  0  0  0  0
  -29.5082  -12.4984   18.2330 C   0  0  0  0  0  0
  -28.0304  -12.3347   18.6380 C   0  0  0  0  0  0
  -27.6427  -13.2249   19.8487 C   0  0  2  0  0  0
  -28.6834  -13.1362   20.9858 C   0  0  0  0  0  0
  -25.2527  -13.8181   20.5688 C   0  0  0  0  0  0
  -24.1813  -13.0432   20.9201 C   0  0  0  0  0  0
  -24.6392  -11.6908   20.8738 C   0  0  0  0  0  0
  -23.9066  -10.4288   21.0408 C   0  0  0  0  0  0
  -24.3618   -9.4206   21.9191 C   0  0  0  0  0  0
  -23.6291   -8.2242   22.0755 C   0  0  0  0  0  0
  -22.4272   -8.0282   21.3545 C   0  0  0  0  0  0
  -21.9908   -9.0254   20.4646 C   0  0  0  0  0  0
  -22.7239  -10.2132   20.3054 C   0  0  0  0  0  0
  -21.6853   -6.0741   22.5283 C   0  0  0  0  0  0
  -21.4016   -6.5643   23.8219 C   0  0  0  0  0  0
  -21.3659   -5.6793   24.9181 C   0  0  0  0  0  0
  -21.6042   -4.3056   24.7227 C   0  0  0  0  0  0
  -21.8818   -3.8149   23.4348 C   0  0  0  0  0  0
  -21.9193   -4.6968   22.3406 C   0  0  0  0  0  0
  -22.7840  -13.5226   21.1869 C   0  0  0  0  0  0
  -22.1659   -4.2157   21.0980 F   0  0  0  0  0  0
  -21.5629   -3.4539   25.7734 F   0  0  0  0  0  0
  -30.0010  -13.4475   20.4192 N   0  0  0  0  0  0
  -26.2939  -12.9375   20.3257 N   0  0  0  0  0  0
  -25.9318  -11.6524   20.5727 N   0  0  0  0  0  0
  -22.0486  -12.8216   22.0421 N   0  0  0  0  0  0
  -25.4238  -15.1905   20.4127 N   0  0  0  0  0  0
  -31.8552  -14.6969   20.1690 O   0  0  0  0  0  0
  -21.6635   -6.8880   21.4240 O   0  0  0  0  0  0
  -22.3531  -14.5542   20.6724 O   0  0  0  0  0  0
  -24.6255  -31.8593   23.2024 C   0  0  0  0  0  0
  -25.9104  -32.4770   23.8353 C   0  0  1  0  0  0
  -27.2247  -27.3221   20.1007 C   0  0  0  0  0  0
  -25.5919  -33.8570   24.2273 N   0  0  0  0  0  0
  -23.4176  -30.4835   21.5463 C   0  0  2  0  0  0
  -24.8608  -28.9376   20.1123 C   0  0  0  0  0  0
  -22.7463  -29.4622   22.4954 C   0  0  0  0  0  0
  -18.0277  -28.1387   22.8483 C   0  0  0  0  0  0
  -24.1482  -36.7281   23.2639 C   0  0  0  0  0  0
  -25.9583  -30.7900   21.3713 C   0  0  0  0  0  0
  -26.0304  -29.4176   20.7127 C   0  0  0  0  0  0
  -27.2109  -28.6192   20.7011 C   0  0  0  0  0  0
  -26.0188  -26.8816   19.5047 C   0  0  0  0  0  0
  -24.8558  -27.6732   19.5054 C   0  0  0  0  0  0
  -23.6296  -29.8173   20.1619 C   0  0  0  0  0  0
  -25.4105  -36.3071   24.0331 C   0  0  1  0  0  0
  -20.5874  -28.3679   23.1291 C   0  0  2  0  0  0
  -20.6762  -26.9406   22.5409 C   0  0  0  0  0  0
  -19.5739  -26.6387   21.5211 C   0  0  0  0  0  0
  -18.1922  -26.7931   22.1626 C   0  0  0  0  0  0
  -19.1530  -28.8855   23.2882 C   0  0  0  0  0  0
  -18.9456  -30.1459   23.8895 C   0  0  0  0  0  0
  -17.6457  -30.6588   24.0568 C   0  0  0  0  0  0
  -25.9051  -34.9445   23.5104 C   0  0  0  0  0  0
  -16.5346  -29.9087   23.6336 C   0  0  0  0  0  0
  -16.7265  -28.6507   23.0349 C   0  0  0  0  0  0
  -26.4493  -31.6580   25.0723 C   0  0  0  0  0  0
  -25.3734  -31.3727   26.1461 C   0  0  0  0  0  0
  -27.0321  -30.2999   24.6176 C   0  0  0  0  0  0
  -27.6062  -32.4308   25.7485 C   0  0  0  0  0  0
  -27.5573  -37.1782   24.8458 C   0  0  0  0  0  0
  -21.4180  -29.3035   22.3692 N   0  0  0  0  0  0
  -26.4273  -37.3773   23.9427 N   0  0  0  0  0  0
  -24.6862  -31.0611   22.0969 N   0  0  0  0  0  0
  -23.4191  -28.8167   23.3035 O   0  0  0  0  0  0
  -28.3700  -26.5112   20.1552 O   0  0  0  0  0  0
  -26.5625  -34.8913   22.4673 O   0  0  0  0  0  0
  -23.5420  -32.1397   23.7355 O   0  0  0  0  0  0
  -28.5547  -18.8966   20.1420 C   0  0  0  0  0  0
  -30.3146  -21.0500   20.4675 C   0  0  0  0  0  0
  -29.8971  -18.5791   20.4763 C   0  0  0  0  0  0
  -29.0043  -21.3531   20.0222 C   0  0  0  0  0  0
  -28.1234  -20.2379   19.9074 C   0  0  0  0  0  0
  -30.7509  -19.7092   20.6834 C   0  0  0  0  0  0
  -30.4417  -17.1508   20.5406 C   0  0  0  0  0  0
  -29.8493  -15.9090   20.5907 C   0  0  0  0  0  0
  -28.7022  -23.8968   20.1674 C   0  0  0  0  0  0
  -28.1845  -22.6765   18.1051 C   0  0  0  0  0  0
  -28.4983  -25.2619   19.3711 C   0  0  0  0  0  0
  -28.6427  -22.6818   19.5016 N   0  0  0  0  0  0
  -28.9353  -23.9544   21.3801 O   0  0  0  0  0  0
  -26.8438  -20.4426   19.5117 F   0  0  0  0  0  0
  -32.4001  -19.4884   21.1559 Cl  0  0  0  0  0  0
  -31.4686  -12.4764   19.1821 H   0  0  0  0  0  0
  -30.3242  -11.4076   19.9386 H   0  0  0  0  0  0
  -29.7803  -11.7408   17.4971 H   0  0  0  0  0  0
  -29.6553  -13.4645   17.7483 H   0  0  0  0  0  0
  -27.8724  -11.2849   18.8873 H   0  0  0  0  0  0
  -27.3780  -12.5466   17.7901 H   0  0  0  0  0  0
  -27.6422  -14.2482   19.4754 H   0  0  0  0  0  0
  -28.6905  -12.1395   21.4301 H   0  0  0  0  0  0
  -28.4328  -13.8237   21.7950 H   0  0  0  0  0  0
  -25.2768   -9.5684   22.4764 H   0  0  0  0  0  0
  -24.0003   -7.4629   22.7470 H   0  0  0  0  0  0
  -21.0839   -8.8769   19.8949 H   0  0  0  0  0  0
  -22.3703  -10.9667   19.6154 H   0  0  0  0  0  0
  -21.2013   -7.6152   23.9727 H   0  0  0  0  0  0
  -21.1478   -6.0523   25.9083 H   0  0  0  0  0  0
  -22.0599   -2.7612   23.2841 H   0  0  0  0  0  0
  -22.4078  -11.9856   22.4791 H   0  0  0  0  0  0
  -21.1107  -13.1247   22.2633 H   0  0  0  0  0  0
  -24.6585  -15.8449   20.5316 H   0  0  0  0  0  0
  -26.2761  -15.6306   20.0904 H   0  0  0  0  0  0
  -26.7168  -32.5435   23.1096 H   0  0  0  0  0  0
  -25.0046  -33.9715   25.0406 H   0  0  0  0  0  0
  -22.7115  -31.3041   21.4037 H   0  0  0  0  0  0
  -23.3751  -35.9602   23.3277 H   0  0  0  0  0  0
  -24.3582  -36.8928   22.2059 H   0  0  0  0  0  0
  -23.7217  -37.6467   23.6681 H   0  0  0  0  0  0
  -26.0877  -31.5537   20.6036 H   0  0  0  0  0  0
  -26.8394  -30.8383   21.9994 H   0  0  0  0  0  0
  -28.1098  -28.9857   21.1770 H   0  0  0  0  0  0
  -25.9162  -25.9045   19.0613 H   0  0  0  0  0  0
  -23.9518  -27.2907   19.0514 H   0  0  0  0  0  0
  -23.7459  -30.5920   19.4034 H   0  0  0  0  0  0
  -22.7498  -29.2449   19.8623 H   0  0  0  0  0  0
  -25.1281  -36.1909   25.0821 H   0  0  0  0  0  0
  -20.9963  -28.3243   24.1416 H   0  0  0  0  0  0
  -20.5655  -26.2293   23.3606 H   0  0  0  0  0  0
  -21.6632  -26.7437   22.1204 H   0  0  0  0  0  0
  -19.6900  -25.6300   21.1238 H   0  0  0  0  0  0
  -19.6679  -27.3202   20.6745 H   0  0  0  0  0  0
  -17.4190  -26.6666   21.4035 H   0  0  0  0  0  0
  -18.0331  -26.0077   22.9030 H   0  0  0  0  0  0
  -19.7937  -30.7273   24.2260 H   0  0  0  0  0  0
  -17.5014  -31.6267   24.5167 H   0  0  0  0  0  0
  -15.5346  -30.2986   23.7675 H   0  0  0  0  0  0
  -15.8661  -28.0832   22.7062 H   0  0  0  0  0  0
  -24.5874  -30.7122   25.7787 H   0  0  0  0  0  0
  -24.8977  -32.2902   26.4934 H   0  0  0  0  0  0
  -25.8058  -30.8853   27.0209 H   0  0  0  0  0  0
  -26.2882  -29.6753   24.1217 H   0  0  0  0  0  0
  -27.4027  -29.7258   25.4679 H   0  0  0  0  0  0
  -27.8756  -30.4277   23.9388 H   0  0  0  0  0  0
  -27.2690  -33.3622   26.2046 H   0  0  0  0  0  0
  -28.3882  -32.6836   25.0313 H   0  0  0  0  0  0
  -28.0716  -31.8436   26.5413 H   0  0  0  0  0  0
  -28.2563  -38.0106   24.7544 H   0  0  0  0  0  0
  -28.1095  -36.2640   24.6227 H   0  0  0  0  0  0
  -27.2306  -37.1357   25.8863 H   0  0  0  0  0  0
  -20.9359  -29.8754   21.6898 H   0  0  0  0  0  0
  -26.0146  -38.2836   24.1465 H   0  0  0  0  0  0
  -27.8464  -18.0968   19.9875 H   0  0  0  0  0  0
  -31.0331  -21.8501   20.5722 H   0  0  0  0  0  0
  -31.5196  -17.1239   20.4785 H   0  0  0  0  0  0
  -28.7757  -15.8522   20.6763 H   0  0  0  0  0  0
  -28.3116  -21.6998   17.6377 H   0  0  0  0  0  0
  -28.7483  -23.3748   17.4853 H   0  0  0  0  0  0
  -27.1246  -22.9269   18.0455 H   0  0  0  0  0  0
  -27.7374  -25.1620   18.6051 H   0  0  0  0  0  0
  -29.4162  -25.3907   18.7973 H   0  0  0  0  0  0
  1 25  1  0  0  0
  1 30  2  0  0  0
  1 78  1  0  0  0
  2  3  1  0  0  0
  2 25  1  0  0  0
  2 86  1  0  0  0
  2 87  1  0  0  0
  3  4  1  0  0  0
  3 88  1  0  0  0
  3 89  1  0  0  0
  4  5  1  0  0  0
  4 90  1  0  0  0
  4 91  1  0  0  0
  5  6  1  0  0  0
  5 26  1  0  0  0
  5 92  1  0  0  0
  6 25  1  0  0  0
  6 93  1  0  0  0
  6 94  1  0  0  0
  7  8  2  0  0  0
  7 26  1  0  0  0
  7 29  1  0  0  0
  8  9  1  0  0  0
  8 22  1  0  0  0
  9 10  1  0  0  0
  9 27  2  0  0  0
 10 11  2  0  0  0
 10 15  1  0  0  0
 11 12  1  0  0  0
 11 95  1  0  0  0
 12 13  2  0  0  0
 12 96  1  0  0  0
 13 14  1  0  0  0
 13 31  1  0  0  0
 14 15  2  0  0  0
 14 97  1  0  0  0
 15 98  1  0  0  0
 16 17  2  0  0  0
 16 21  1  0  0  0
 16 31  1  0  0  0
 17 18  1  0  0  0
 17 99  1  0  0  0
 18 19  2  0  0  0
 18100  1  0  0  0
 19 20  1  0  0  0
 19 24  1  0  0  0
 20 21  2  0  0  0
 20101  1  0  0  0
 21 23  1  0  0  0
 22 28  1  0  0  0
 22 32  2  0  0  0
 26 27  1  0  0  0
 28102  1  0  0  0
 28103  1  0  0  0
 29104  1  0  0  0
 29105  1  0  0  0
 33 34  1  0  0  0
 33 66  1  0  0  0
 33 70  2  0  0  0
 34 36  1  0  0  0
 34 59  1  0  0  0
 34106  1  0  0  0
 35 44  2  0  0  0
 35 45  1  0  0  0
 35 68  1  0  0  0
 36 56  1  0  0  0
 36107  1  0  0  0
 37 39  1  0  0  0
 37 47  1  0  0  0
 37 66  1  0  0  0
 37108  1  0  0  0
 38 43  2  0  0  0
 38 46  1  0  0  0
 38 47  1  0  0  0
 39 64  1  0  0  0
 39 67  2  0  0  0
 40 52  1  0  0  0
 40 53  2  0  0  0
 40 58  1  0  0  0
 41109  1  0  0  0
 41110  1  0  0  0
 41111  1  0  0  0
 41 48  1  0  0  0
 42 43  1  0  0  0
 42 66  1  0  0  0
 42112  1  0  0  0
 42113  1  0  0  0
 43 44  1  0  0  0
 44114  1  0  0  0
 45 46  2  0  0  0
 45115  1  0  0  0
 46116  1  0  0  0
 47117  1  0  0  0
 47118  1  0  0  0
 48 56  1  0  0  0
 48 65  1  0  0  0
 48119  1  0  0  0
 49 50  1  0  0  0
 49 53  1  0  0  0
 49 64  1  0  0  0
 49120  1  0  0  0
 50 51  1  0  0  0
 50121  1  0  0  0
 50122  1  0  0  0
 51 52  1  0  0  0
 51123  1  0  0  0
 51124  1  0  0  0
 52125  1  0  0  0
 52126  1  0  0  0
 53 54  1  0  0  0
 54 55  2  0  0  0
 54127  1  0  0  0
 55 57  1  0  0  0
 55128  1  0  0  0
 56 69  2  0  0  0
 57 58  2  0  0  0
 57129  1  0  0  0
 58130  1  0  0  0
 59 60  1  0  0  0
 59 61  1  0  0  0
 59 62  1  0  0  0
 60131  1  0  0  0
 60132  1  0  0  0
 60133  1  0  0  0
 61134  1  0  0  0
 61135  1  0  0  0
 61136  1  0  0  0
 62137  1  0  0  0
 62138  1  0  0  0
 62139  1  0  0  0
 63 65  1  0  0  0
 63140  1  0  0  0
 63141  1  0  0  0
 63142  1  0  0  0
 64143  1  0  0  0
 65144  1  0  0  0
 68 81  1  0  0  0
 71 73  2  0  0  0
 71 75  1  0  0  0
 71145  1  0  0  0
 72 74  1  0  0  0
 72 76  2  0  0  0
 72146  1  0  0  0
 73 76  1  0  0  0
 73 77  1  0  0  0
 74 75  2  0  0  0
 74 82  1  0  0  0
 75 84  1  0  0  0
 76 85  1  0  0  0
 77 78  2  0  0  0
 77147  1  0  0  0
 78148  1  0  0  0
 79 81  1  0  0  0
 79 82  1  0  0  0
 79 83  2  0  0  0
 80 82  1  0  0  0
 80149  1  0  0  0
 80150  1  0  0  0
 80151  1  0  0  0
 81152  1  0  0  0
 81153  1  0  0  0
M  ISO  4   1 100  68 101  78 100  81 101
M  END
> <chiral flag>
0

> <version>
0

> <s_m_source_file>
/data/baiqing/PycharmProjects/Reinvent-master-3.2/result/LINK_invent/BTK/process_docking_weight1_custom_sum_contain_oxygen_bond_distance_aromatic_linkinvent_7_9_3/rearranged_h_0008.sdf

> <i_m_source_file_index>
50

> <r_mmod_Potential_Energy-OPLS-2005>
178.180572509766

> <r_mmod_Stretch_Energy-OPLS-2005>
86.4952621459961

> <r_mmod_Bend_Energy-OPLS-2005>
145.566818237305

> <r_mmod_Torsional_Energy-OPLS-2005>
246.095062255859

> <r_mmod_Improper_Torsional_Energy-OPLS-2005>
8.10329723358154

> <r_mmod_Van_der_Waal_Energy-OPLS-2005>
158.30290222168

> <r_mmod_Electrostatic_Energy-OPLS-2005>
-298.26416015625

> <r_mmod_Solvation_Energy-OPLS-2005>
-219.783294677734

> <b_mmod_Minimization_Converged-OPLS-2005>
0

> <r_mmod_RMS_Derivative-OPLS-2005>
1.19788408279419

$$$$
50
                    3D
 Structure written by MMmdl.
153161  0  0  1  0            999 V2000
  -30.6684  -14.7448   20.4435 C   0  0  0  0  0  0
  -30.4241  -12.4530   19.4716 C   0  0  0  0  0  0
  -29.5160  -12.5178   18.2264 C   0  0  0  0  0  0
  -28.0374  -12.3484   18.6299 C   0  0  0  0  0  0
  -27.6420  -13.2433   19.8389 C   0  0  2  0  0  0
  -28.6922  -13.2032   20.9723 C   0  0  0  0  0  0
  -25.2530  -13.8211   20.5699 C   0  0  0  0  0  0
  -24.1826  -13.0467   20.9226 C   0  0  0  0  0  0
  -24.6406  -11.6950   20.8740 C   0  0  0  0  0  0
  -23.9050  -10.4338   21.0411 C   0  0  0  0  0  0
  -24.3614   -9.4254   21.9179 C   0  0  0  0  0  0
  -23.6322   -8.2256   22.0735 C   0  0  0  0  0  0
  -22.4299   -8.0286   21.3537 C   0  0  0  0  0  0
  -21.9915   -9.0252   20.4629 C   0  0  0  0  0  0
  -22.7224  -10.2158   20.3055 C   0  0  0  0  0  0
  -21.6855   -6.0739   22.5302 C   0  0  0  0  0  0
  -21.3994   -6.5644   23.8238 C   0  0  0  0  0  0
  -21.3664   -5.6785   24.9199 C   0  0  0  0  0  0
  -21.6055   -4.3041   24.7236 C   0  0  0  0  0  0
  -21.8810   -3.8134   23.4351 C   0  0  0  0  0  0
  -21.9197   -4.6966   22.3417 C   0  0  0  0  0  0
  -22.7851  -13.5266   21.1873 C   0  0  0  0  0  0
  -22.1678   -4.2152   21.0988 F   0  0  0  0  0  0
  -21.5648   -3.4521   25.7746 F   0  0  0  0  0  0
  -29.9939  -13.5416   20.3808 N   0  0  0  0  0  0
  -26.2955  -12.9435   20.3213 N   0  0  0  0  0  0
  -25.9339  -11.6571   20.5687 N   0  0  0  0  0  0
  -22.0437  -12.8294   22.0417 N   0  0  0  0  0  0
  -25.4205  -15.1928   20.4124 N   0  0  0  0  0  0
  -31.8687  -14.7605   20.1543 O   0  0  0  0  0  0
  -21.6647   -6.8893   21.4266 O   0  0  0  0  0  0
  -22.3576  -14.5594   20.6726 O   0  0  0  0  0  0
  -24.6317  -31.8531   23.1997 C   0  0  0  0  0  0
  -25.9148  -32.4729   23.8314 C   0  0  1  0  0  0
  -27.2260  -27.2678   20.1327 C   0  0  0  0  0  0
  -25.5957  -33.8533   24.2276 N   0  0  0  0  0  0
  -23.4286  -30.4773   21.5397 C   0  0  2  0  0  0
  -24.8765  -28.9161   20.1145 C   0  0  0  0  0  0
  -22.7510  -29.4588   22.4904 C   0  0  0  0  0  0
  -18.0294  -28.1358   22.8476 C   0  0  0  0  0  0
  -24.1499  -36.7264   23.2634 C   0  0  0  0  0  0
  -25.9722  -30.7723   21.3764 C   0  0  0  0  0  0
  -26.0463  -29.3913   20.7218 C   0  0  0  0  0  0
  -27.2264  -28.5806   20.7139 C   0  0  0  0  0  0
  -26.0361  -26.8561   19.4976 C   0  0  0  0  0  0
  -24.8767  -27.6568   19.4909 C   0  0  0  0  0  0
  -23.6477  -29.8039   20.1573 C   0  0  0  0  0  0
  -25.4133  -36.3054   24.0325 C   0  0  1  0  0  0
  -20.5907  -28.3676   23.1276 C   0  0  2  0  0  0
  -20.6771  -26.9386   22.5428 C   0  0  0  0  0  0
  -19.5759  -26.6365   21.5216 C   0  0  0  0  0  0
  -18.1933  -26.7910   22.1596 C   0  0  0  0  0  0
  -19.1547  -28.8836   23.2860 C   0  0  0  0  0  0
  -18.9464  -30.1437   23.8869 C   0  0  0  0  0  0
  -17.6460  -30.6565   24.0552 C   0  0  0  0  0  0
  -25.9070  -34.9432   23.5106 C   0  0  0  0  0  0
  -16.5352  -29.9058   23.6325 C   0  0  0  0  0  0
  -16.7279  -28.6478   23.0341 C   0  0  0  0  0  0
  -26.4534  -31.6522   25.0683 C   0  0  0  0  0  0
  -25.3746  -31.3680   26.1403 C   0  0  0  0  0  0
  -27.0337  -30.2929   24.6156 C   0  0  0  0  0  0
  -27.6124  -32.4223   25.7451 C   0  0  0  0  0  0
  -27.5598  -37.1786   24.8464 C   0  0  0  0  0  0
  -21.4215  -29.3029   22.3655 N   0  0  0  0  0  0
  -26.4300  -37.3761   23.9405 N   0  0  0  0  0  0
  -24.6958  -31.0516   22.0953 N   0  0  0  0  0  0
  -23.4208  -28.8133   23.2997 O   0  0  0  0  0  0
  -28.3348  -26.3943   20.1282 O   0  0  0  0  0  0
  -26.5603  -34.8900   22.4653 O   0  0  0  0  0  0
  -23.5464  -32.1330   23.7307 O   0  0  0  0  0  0
  -31.3212  -20.0224   20.7740 C   0  0  0  0  0  0
  -29.9591  -19.8590   20.4383 C   0  0  0  0  0  0
  -29.5079  -18.4710   20.3538 C   0  0  0  0  0  0
  -32.1390  -18.9024   21.0053 C   0  0  0  0  0  0
  -30.4004  -17.3455   20.6221 C   0  0  0  0  0  0
  -29.2057  -22.3534   20.6238 C   0  0  0  0  0  0
  -33.6242  -19.0758   21.2891 C   0  0  0  0  0  0
  -28.7435  -23.6779   19.8348 C   0  0  0  0  0  0
  -28.1810  -24.9806   20.6295 C   0  0  0  0  0  0
  -31.6891  -17.6274   20.9474 N   0  0  0  0  0  0
  -29.1800  -21.0748   20.0711 N   0  0  0  0  0  0
  -29.9462  -15.9288   20.5655 N   0  0  0  0  0  0
  -29.5884  -22.5050   21.7865 O   0  0  0  0  0  0
  -27.8695  -18.1436   19.9019 Cl  0  0  0  0  0  0
  -31.4728  -12.5323   19.1826 H   0  0  0  0  0  0
  -30.3272  -11.4841   19.9644 H   0  0  0  0  0  0
  -29.8074  -11.7498   17.5093 H   0  0  0  0  0  0
  -29.6505  -13.4732   17.7176 H   0  0  0  0  0  0
  -27.8863  -11.2991   18.8816 H   0  0  0  0  0  0
  -27.3846  -12.5483   17.7794 H   0  0  0  0  0  0
  -27.6266  -14.2646   19.4566 H   0  0  0  0  0  0
  -28.7283  -12.2142   21.4360 H   0  0  0  0  0  0
  -28.4268  -13.9007   21.7663 H   0  0  0  0  0  0
  -25.2761   -9.5780   22.4747 H   0  0  0  0  0  0
  -24.0065   -7.4648   22.7437 H   0  0  0  0  0  0
  -21.0846   -8.8751   19.8938 H   0  0  0  0  0  0
  -22.3656  -10.9683   19.6160 H   0  0  0  0  0  0
  -21.1958   -7.6151   23.9747 H   0  0  0  0  0  0
  -21.1508   -6.0505   25.9110 H   0  0  0  0  0  0
  -22.0577   -2.7592   23.2825 H   0  0  0  0  0  0
  -22.3994  -11.9982   22.4908 H   0  0  0  0  0  0
  -21.1036  -13.1325   22.2498 H   0  0  0  0  0  0
  -24.6432  -15.8379   20.5145 H   0  0  0  0  0  0
  -26.2582  -15.6362   20.0611 H   0  0  0  0  0  0
  -26.7195  -32.5391   23.1031 H   0  0  0  0  0  0
  -25.0152  -33.9652   25.0453 H   0  0  0  0  0  0
  -22.7265  -31.3016   21.3929 H   0  0  0  0  0  0
  -23.3767  -35.9581   23.3286 H   0  0  0  0  0  0
  -24.3612  -36.8893   22.2054 H   0  0  0  0  0  0
  -23.7239  -37.6461   23.6658 H   0  0  0  0  0  0
  -26.1122  -31.5340   20.6069 H   0  0  0  0  0  0
  -26.8498  -30.8189   22.0110 H   0  0  0  0  0  0
  -28.1266  -28.9453   21.1886 H   0  0  0  0  0  0
  -26.0021  -25.8962   18.9996 H   0  0  0  0  0  0
  -23.9820  -27.2988   18.9978 H   0  0  0  0  0  0
  -23.7680  -30.5770   19.3972 H   0  0  0  0  0  0
  -22.7666  -29.2344   19.8532 H   0  0  0  0  0  0
  -25.1318  -36.1890   25.0810 H   0  0  0  0  0  0
  -21.0026  -28.3217   24.1389 H   0  0  0  0  0  0
  -20.5664  -26.2267   23.3622 H   0  0  0  0  0  0
  -21.6633  -26.7368   22.1237 H   0  0  0  0  0  0
  -19.6918  -25.6284   21.1226 H   0  0  0  0  0  0
  -19.6728  -27.3184   20.6761 H   0  0  0  0  0  0
  -17.4246  -26.6700   21.3958 H   0  0  0  0  0  0
  -18.0286  -26.0038   22.8972 H   0  0  0  0  0  0
  -19.7944  -30.7253   24.2227 H   0  0  0  0  0  0
  -17.5019  -31.6258   24.5120 H   0  0  0  0  0  0
  -15.5345  -30.2928   23.7690 H   0  0  0  0  0  0
  -15.8690  -28.0791   22.7029 H   0  0  0  0  0  0
  -24.6003  -30.6920   25.7758 H   0  0  0  0  0  0
  -24.8819  -32.2814   26.4728 H   0  0  0  0  0  0
  -25.8067  -30.8970   27.0236 H   0  0  0  0  0  0
  -26.2881  -29.6689   24.1218 H   0  0  0  0  0  0
  -27.4038  -29.7202   25.4668 H   0  0  0  0  0  0
  -27.8770  -30.4186   23.9368 H   0  0  0  0  0  0
  -27.2782  -33.3534   26.2030 H   0  0  0  0  0  0
  -28.3934  -32.6719   25.0259 H   0  0  0  0  0  0
  -28.0771  -31.8298   26.5340 H   0  0  0  0  0  0
  -28.2603  -38.0094   24.7514 H   0  0  0  0  0  0
  -28.1091  -36.2622   24.6266 H   0  0  0  0  0  0
  -27.2315  -37.1423   25.8864 H   0  0  0  0  0  0
  -20.9407  -29.8724   21.6843 H   0  0  0  0  0  0
  -26.0172  -38.2822   24.1406 H   0  0  0  0  0  0
  -31.7591  -21.0117   20.8119 H   0  0  0  0  0  0
  -33.8155  -20.0052   21.8283 H   0  0  0  0  0  0
  -34.1941  -19.1084   20.3585 H   0  0  0  0  0  0
  -34.0164  -18.2573   21.8935 H   0  0  0  0  0  0
  -28.0333  -23.4078   19.0545 H   0  0  0  0  0  0
  -29.6374  -24.0004   19.2998 H   0  0  0  0  0  0
  -28.6641  -24.9909   21.6069 H   0  0  0  0  0  0
  -27.1336  -24.7879   20.8633 H   0  0  0  0  0  0
  -28.6349  -20.9763   19.2250 H   0  0  0  0  0  0
  -28.9485  -15.8193   20.5825 H   0  0  0  0  0  0
  1 25  1  0  0  0
  1 30  2  0  0  0
  1 82  1  0  0  0
  2  3  1  0  0  0
  2 25  1  0  0  0
  2 85  1  0  0  0
  2 86  1  0  0  0
  3  4  1  0  0  0
  3 87  1  0  0  0
  3 88  1  0  0  0
  4  5  1  0  0  0
  4 89  1  0  0  0
  4 90  1  0  0  0
  5  6  1  0  0  0
  5 26  1  0  0  0
  5 91  1  0  0  0
  6 25  1  0  0  0
  6 92  1  0  0  0
  6 93  1  0  0  0
  7  8  2  0  0  0
  7 26  1  0  0  0
  7 29  1  0  0  0
  8  9  1  0  0  0
  8 22  1  0  0  0
  9 10  1  0  0  0
  9 27  2  0  0  0
 10 11  2  0  0  0
 10 15  1  0  0  0
 11 12  1  0  0  0
 11 94  1  0  0  0
 12 13  2  0  0  0
 12 95  1  0  0  0
 13 14  1  0  0  0
 13 31  1  0  0  0
 14 15  2  0  0  0
 14 96  1  0  0  0
 15 97  1  0  0  0
 16 17  2  0  0  0
 16 21  1  0  0  0
 16 31  1  0  0  0
 17 18  1  0  0  0
 17 98  1  0  0  0
 18 19  2  0  0  0
 18 99  1  0  0  0
 19 20  1  0  0  0
 19 24  1  0  0  0
 20 21  2  0  0  0
 20100  1  0  0  0
 21 23  1  0  0  0
 22 28  1  0  0  0
 22 32  2  0  0  0
 26 27  1  0  0  0
 28101  1  0  0  0
 28102  1  0  0  0
 29103  1  0  0  0
 29104  1  0  0  0
 33 34  1  0  0  0
 33 66  1  0  0  0
 33 70  2  0  0  0
 34 36  1  0  0  0
 34 59  1  0  0  0
 34105  1  0  0  0
 35 44  2  0  0  0
 35 45  1  0  0  0
 35 68  1  0  0  0
 36 56  1  0  0  0
 36106  1  0  0  0
 37 39  1  0  0  0
 37 47  1  0  0  0
 37 66  1  0  0  0
 37107  1  0  0  0
 38 43  2  0  0  0
 38 46  1  0  0  0
 38 47  1  0  0  0
 39 64  1  0  0  0
 39 67  2  0  0  0
 40 52  1  0  0  0
 40 53  2  0  0  0
 40 58  1  0  0  0
 41108  1  0  0  0
 41109  1  0  0  0
 41110  1  0  0  0
 41 48  1  0  0  0
 42 43  1  0  0  0
 42 66  1  0  0  0
 42111  1  0  0  0
 42112  1  0  0  0
 43 44  1  0  0  0
 44113  1  0  0  0
 45 46  2  0  0  0
 45114  1  0  0  0
 46115  1  0  0  0
 47116  1  0  0  0
 47117  1  0  0  0
 48 56  1  0  0  0
 48 65  1  0  0  0
 48118  1  0  0  0
 49 50  1  0  0  0
 49 53  1  0  0  0
 49 64  1  0  0  0
 49119  1  0  0  0
 50 51  1  0  0  0
 50120  1  0  0  0
 50121  1  0  0  0
 51 52  1  0  0  0
 51122  1  0  0  0
 51123  1  0  0  0
 52124  1  0  0  0
 52125  1  0  0  0
 53 54  1  0  0  0
 54 55  2  0  0  0
 54126  1  0  0  0
 55 57  1  0  0  0
 55127  1  0  0  0
 56 69  2  0  0  0
 57 58  2  0  0  0
 57128  1  0  0  0
 58129  1  0  0  0
 59 60  1  0  0  0
 59 61  1  0  0  0
 59 62  1  0  0  0
 60130  1  0  0  0
 60131  1  0  0  0
 60132  1  0  0  0
 61133  1  0  0  0
 61134  1  0  0  0
 61135  1  0  0  0
 62136  1  0  0  0
 62137  1  0  0  0
 62138  1  0  0  0
 63 65  1  0  0  0
 63139  1  0  0  0
 63140  1  0  0  0
 63141  1  0  0  0
 64142  1  0  0  0
 65143  1  0  0  0
 68 79  1  0  0  0
 71 72  2  0  0  0
 71 74  1  0  0  0
 71144  1  0  0  0
 72 73  1  0  0  0
 72 81  1  0  0  0
 73 75  2  0  0  0
 73 84  1  0  0  0
 74 77  1  0  0  0
 74 80  2  0  0  0
 75 80  1  0  0  0
 75 82  1  0  0  0
 76 78  1  0  0  0
 76 81  1  0  0  0
 76 83  2  0  0  0
 77145  1  0  0  0
 77146  1  0  0  0
 77147  1  0  0  0
 78 79  1  0  0  0
 78148  1  0  0  0
 78149  1  0  0  0
 79150  1  0  0  0
 79151  1  0  0  0
 81152  1  0  0  0
 82153  1  0  0  0
M  ISO  4   1 100  68 101  79 101  82 100
M  END
> <chiral flag>
0

> <version>
0

> <s_m_source_file>
/data/baiqing/PycharmProjects/Reinvent-master-3.2/result/LINK_invent/BTK/process_docking_weight1_custom_sum_contain_oxygen_bond_distance_aromatic_linkinvent_7_9_3/rearranged_h_0008.sdf

> <i_m_source_file_index>
51

> <r_mmod_Potential_Energy-OPLS-2005>
12.7002658843994

> <r_mmod_Stretch_Energy-OPLS-2005>
129.551818847656

> <r_mmod_Bend_Energy-OPLS-2005>
164.139984130859

> <r_mmod_Torsional_Energy-OPLS-2005>
252.006103515625

> <r_mmod_Improper_Torsional_Energy-OPLS-2005>
6.91168785095215

> <r_mmod_Van_der_Waal_Energy-OPLS-2005>
134.616928100586

> <r_mmod_Electrostatic_Energy-OPLS-2005>
-508.218383789062

> <r_mmod_Solvation_Energy-OPLS-2005>
-248.504852294922

> <b_mmod_Minimization_Converged-OPLS-2005>
0

> <r_mmod_RMS_Derivative-OPLS-2005>
4.20723676681519

$$$$
51
                    3D
 Structure written by MMmdl.
158166  0  0  1  0            999 V2000
  -30.7460  -14.6964   20.5363 C   0  0  0  0  0  0
  -30.4125  -12.4442   19.4764 C   0  0  0  0  0  0
  -29.5099  -12.5511   18.2245 C   0  0  0  0  0  0
  -28.0175  -12.4424   18.5957 C   0  0  0  0  0  0
  -27.6442  -13.2674   19.8619 C   0  0  2  0  0  0
  -28.6952  -13.1799   20.9891 C   0  0  0  0  0  0
  -25.2431  -13.8274   20.5760 C   0  0  0  0  0  0
  -24.1688  -13.0446   20.9221 C   0  0  0  0  0  0
  -24.6361  -11.6984   20.8712 C   0  0  0  0  0  0
  -23.9050  -10.4348   21.0363 C   0  0  0  0  0  0
  -24.3578   -9.4263   21.9169 C   0  0  0  0  0  0
  -23.6258   -8.2286   22.0766 C   0  0  0  0  0  0
  -22.4248   -8.0283   21.3541 C   0  0  0  0  0  0
  -21.9884   -9.0268   20.4648 C   0  0  0  0  0  0
  -22.7213  -10.2155   20.3049 C   0  0  0  0  0  0
  -21.6841   -6.0715   22.5290 C   0  0  0  0  0  0
  -21.3991   -6.5619   23.8214 C   0  0  0  0  0  0
  -21.3684   -5.6755   24.9179 C   0  0  0  0  0  0
  -21.6045   -4.3035   24.7201 C   0  0  0  0  0  0
  -21.8819   -3.8125   23.4335 C   0  0  0  0  0  0
  -21.9179   -4.6957   22.3382 C   0  0  0  0  0  0
  -22.7740  -13.5226   21.1879 C   0  0  0  0  0  0
  -22.1660   -4.2129   21.0970 F   0  0  0  0  0  0
  -21.5660   -3.4551   25.7738 F   0  0  0  0  0  0
  -30.0068  -13.5293   20.4167 N   0  0  0  0  0  0
  -26.2935  -12.9595   20.3384 N   0  0  0  0  0  0
  -25.9288  -11.6692   20.5677 N   0  0  0  0  0  0
  -22.0265  -12.8234   22.0415 N   0  0  0  0  0  0
  -25.4011  -15.2002   20.4235 N   0  0  0  0  0  0
  -31.9258  -14.6529   20.1995 O   0  0  0  0  0  0
  -21.6634   -6.8882   21.4248 O   0  0  0  0  0  0
  -22.3410  -14.5475   20.6700 O   0  0  0  0  0  0
  -24.6391  -31.8595   23.2054 C   0  0  0  0  0  0
  -25.9243  -32.4796   23.8364 C   0  0  1  0  0  0
  -27.1835  -27.2195   20.2126 C   0  0  0  0  0  0
  -25.6152  -33.8584   24.2366 N   0  0  0  0  0  0
  -23.4256  -30.4821   21.5525 C   0  0  2  0  0  0
  -24.8722  -28.9219   20.1109 C   0  0  0  0  0  0
  -22.7503  -29.4717   22.5074 C   0  0  0  0  0  0
  -18.0274  -28.1420   22.8411 C   0  0  0  0  0  0
  -24.1499  -36.7198   23.2630 C   0  0  0  0  0  0
  -25.9649  -30.7726   21.3677 C   0  0  0  0  0  0
  -26.0388  -29.3782   20.7400 C   0  0  0  0  0  0
  -27.1953  -28.5405   20.7757 C   0  0  0  0  0  0
  -26.0088  -26.8290   19.5361 C   0  0  0  0  0  0
  -24.8651  -27.6603   19.4914 C   0  0  0  0  0  0
  -23.6373  -29.8049   20.1698 C   0  0  0  0  0  0
  -25.4153  -36.3103   24.0313 C   0  0  1  0  0  0
  -20.5892  -28.3685   23.1328 C   0  0  2  0  0  0
  -20.6880  -26.9449   22.5355 C   0  0  0  0  0  0
  -19.5788  -26.6368   21.5214 C   0  0  0  0  0  0
  -18.1926  -26.7969   22.1563 C   0  0  0  0  0  0
  -19.1536  -28.8859   23.2842 C   0  0  0  0  0  0
  -18.9452  -30.1503   23.8832 C   0  0  0  0  0  0
  -17.6448  -30.6638   24.0510 C   0  0  0  0  0  0
  -25.9107  -34.9476   23.5076 C   0  0  0  0  0  0
  -16.5330  -29.9079   23.6391 C   0  0  0  0  0  0
  -16.7258  -28.6511   23.0363 C   0  0  0  0  0  0
  -26.4605  -31.6633   25.0731 C   0  0  0  0  0  0
  -25.3886  -31.3818   26.1429 C   0  0  0  0  0  0
  -27.0523  -30.3109   24.6155 C   0  0  0  0  0  0
  -27.6113  -32.4367   25.7579 C   0  0  0  0  0  0
  -27.5607  -37.1797   24.8492 C   0  0  0  0  0  0
  -21.4235  -29.3085   22.3762 N   0  0  0  0  0  0
  -26.4336  -37.3761   23.9390 N   0  0  0  0  0  0
  -24.6989  -31.0531   22.1024 N   0  0  0  0  0  0
  -23.4235  -28.8318   23.3194 O   0  0  0  0  0  0
  -28.2585  -26.3111   20.2728 O   0  0  0  0  0  0
  -26.5517  -34.8865   22.4580 O   0  0  0  0  0  0
  -23.5549  -32.1482   23.7291 O   0  0  0  0  0  0
  -30.9918  -18.4011   18.8424 C   0  0  0  0  0  0
  -32.3305  -17.9077   18.7956 C   0  0  0  0  0  0
  -32.1582  -17.2885   21.1559 C   0  0  0  0  0  0
  -30.3393  -18.4696   20.1012 C   0  0  0  0  0  0
  -30.7585  -17.3185   20.9221 C   0  0  0  0  0  0
  -32.9501  -17.4748   19.9998 C   0  0  0  0  0  0
  -31.4927  -20.6657   20.2833 C   0  0  0  0  0  0
  -29.1442  -22.3584   20.9103 C   0  0  0  0  0  0
  -28.0165  -23.5236   20.6342 C   0  0  0  0  0  0
  -29.0519  -20.8219   20.2606 C   0  0  0  0  0  0
  -28.1659  -25.0803   21.1414 C   0  0  0  0  0  0
  -30.1439  -15.9400   20.8097 N   0  0  0  0  0  0
  -30.2452  -19.8828   20.5472 N   0  0  0  0  0  0
  -34.2667  -17.1368   20.0195 F   0  0  0  0  0  0
  -31.4602  -12.5063   19.1790 H   0  0  0  0  0  0
  -30.3055  -11.4623   19.9468 H   0  0  0  0  0  0
  -29.7649  -11.8066   17.4702 H   0  0  0  0  0  0
  -29.6920  -13.5091   17.7354 H   0  0  0  0  0  0
  -27.7573  -11.3905   18.7203 H   0  0  0  0  0  0
  -27.4178  -12.7896   17.7556 H   0  0  0  0  0  0
  -27.6393  -14.3121   19.5486 H   0  0  0  0  0  0
  -28.7064  -12.1680   21.4024 H   0  0  0  0  0  0
  -28.4361  -13.8531   21.8044 H   0  0  0  0  0  0
  -25.2738   -9.5727   22.4734 H   0  0  0  0  0  0
  -23.9985   -7.4649   22.7464 H   0  0  0  0  0  0
  -21.0870   -8.8733   19.8888 H   0  0  0  0  0  0
  -22.3681  -10.9651   19.6111 H   0  0  0  0  0  0
  -21.1963   -7.6139   23.9701 H   0  0  0  0  0  0
  -21.1519   -6.0519   25.9076 H   0  0  0  0  0  0
  -22.0560   -2.7607   23.2837 H   0  0  0  0  0  0
  -22.3868  -11.9976   22.5000 H   0  0  0  0  0  0
  -21.0802  -13.1196   22.2347 H   0  0  0  0  0  0
  -24.6408  -15.8589   20.5816 H   0  0  0  0  0  0
  -26.2615  -15.6645   20.1447 H   0  0  0  0  0  0
  -26.7330  -32.5455   23.1158 H   0  0  0  0  0  0
  -25.0783  -33.9787   25.0796 H   0  0  0  0  0  0
  -22.7192  -31.3043   21.4029 H   0  0  0  0  0  0
  -23.3850  -35.9469   23.3382 H   0  0  0  0  0  0
  -24.3649  -36.8747   22.2058 H   0  0  0  0  0  0
  -23.7131  -37.6346   23.6607 H   0  0  0  0  0  0
  -26.0695  -31.5051   20.5701 H   0  0  0  0  0  0
  -26.8516  -30.8576   21.9837 H   0  0  0  0  0  0
  -28.0921  -28.8639   21.2879 H   0  0  0  0  0  0
  -25.9557  -25.8501   19.0799 H   0  0  0  0  0  0
  -23.9803  -27.3111   18.9795 H   0  0  0  0  0  0
  -23.7289  -30.5878   19.4122 H   0  0  0  0  0  0
  -22.7581  -29.2158   19.8884 H   0  0  0  0  0  0
  -25.1365  -36.1947   25.0813 H   0  0  0  0  0  0
  -20.9798  -28.3185   24.1544 H   0  0  0  0  0  0
  -20.5935  -26.2293   23.3561 H   0  0  0  0  0  0
  -21.6730  -26.7678   22.1040 H   0  0  0  0  0  0
  -19.6938  -25.6254   21.1287 H   0  0  0  0  0  0
  -19.6692  -27.3153   20.6738 H   0  0  0  0  0  0
  -17.4214  -26.6748   21.3937 H   0  0  0  0  0  0
  -18.0319  -26.0134   22.8972 H   0  0  0  0  0  0
  -19.7925  -30.7313   24.2166 H   0  0  0  0  0  0
  -17.5005  -31.6287   24.5116 H   0  0  0  0  0  0
  -15.5329  -30.2886   23.7870 H   0  0  0  0  0  0
  -15.8675  -28.0790   22.7221 H   0  0  0  0  0  0
  -24.6021  -30.7235   25.7750 H   0  0  0  0  0  0
  -24.9143  -32.3000   26.4858 H   0  0  0  0  0  0
  -25.8169  -30.8975   27.0197 H   0  0  0  0  0  0
  -26.3151  -29.6849   24.1098 H   0  0  0  0  0  0
  -27.4424  -29.7289   25.4530 H   0  0  0  0  0  0
  -27.8858  -30.4616   23.9312 H   0  0  0  0  0  0
  -27.2777  -33.3647   26.2198 H   0  0  0  0  0  0
  -28.3889  -32.6960   25.0437 H   0  0  0  0  0  0
  -28.0767  -31.8465   26.5485 H   0  0  0  0  0  0
  -28.2604  -38.0099   24.7556 H   0  0  0  0  0  0
  -28.1104  -36.2615   24.6335 H   0  0  0  0  0  0
  -27.2328  -37.1450   25.8889 H   0  0  0  0  0  0
  -20.9526  -29.8552   21.6679 H   0  0  0  0  0  0
  -26.0229  -38.2850   24.1338 H   0  0  0  0  0  0
  -30.6923  -19.1028   18.0768 H   0  0  0  0  0  0
  -32.9309  -18.0435   17.9075 H   0  0  0  0  0  0
  -32.6258  -16.6686   21.9136 H   0  0  0  0  0  0
  -32.4152  -20.1205   20.0557 H   0  0  0  0  0  0
  -31.7478  -21.3715   21.0848 H   0  0  0  0  0  0
  -31.3411  -21.2658   19.3771 H   0  0  0  0  0  0
  -30.0888  -22.8273   20.6247 H   0  0  0  0  0  0
  -29.2711  -22.2530   22.0049 H   0  0  0  0  0  0
  -27.1300  -23.1225   21.1401 H   0  0  0  0  0  0
  -27.7053  -23.5749   19.5918 H   0  0  0  0  0  0
  -28.1060  -20.3196   20.5412 H   0  0  0  0  0  0
  -28.9129  -20.9162   19.1669 H   0  0  0  0  0  0
  -29.0463  -25.1036   21.7859 H   0  0  0  0  0  0
  -27.3292  -25.2696   21.8299 H   0  0  0  0  0  0
  -29.1375  -15.9135   20.7833 H   0  0  0  0  0  0
  1 25  1  0  0  0
  1 30  2  0  0  0
  1 82  1  0  0  0
  2  3  1  0  0  0
  2 25  1  0  0  0
  2 85  1  0  0  0
  2 86  1  0  0  0
  3  4  1  0  0  0
  3 87  1  0  0  0
  3 88  1  0  0  0
  4  5  1  0  0  0
  4 89  1  0  0  0
  4 90  1  0  0  0
  5  6  1  0  0  0
  5 26  1  0  0  0
  5 91  1  0  0  0
  6 25  1  0  0  0
  6 92  1  0  0  0
  6 93  1  0  0  0
  7  8  2  0  0  0
  7 26  1  0  0  0
  7 29  1  0  0  0
  8  9  1  0  0  0
  8 22  1  0  0  0
  9 10  1  0  0  0
  9 27  2  0  0  0
 10 11  2  0  0  0
 10 15  1  0  0  0
 11 12  1  0  0  0
 11 94  1  0  0  0
 12 13  2  0  0  0
 12 95  1  0  0  0
 13 14  1  0  0  0
 13 31  1  0  0  0
 14 15  2  0  0  0
 14 96  1  0  0  0
 15 97  1  0  0  0
 16 17  2  0  0  0
 16 21  1  0  0  0
 16 31  1  0  0  0
 17 18  1  0  0  0
 17 98  1  0  0  0
 18 19  2  0  0  0
 18 99  1  0  0  0
 19 20  1  0  0  0
 19 24  1  0  0  0
 20 21  2  0  0  0
 20100  1  0  0  0
 21 23  1  0  0  0
 22 28  1  0  0  0
 22 32  2  0  0  0
 26 27  1  0  0  0
 28101  1  0  0  0
 28102  1  0  0  0
 29103  1  0  0  0
 29104  1  0  0  0
 33 34  1  0  0  0
 33 66  1  0  0  0
 33 70  2  0  0  0
 34 36  1  0  0  0
 34 59  1  0  0  0
 34105  1  0  0  0
 35 44  2  0  0  0
 35 45  1  0  0  0
 35 68  1  0  0  0
 36 56  1  0  0  0
 36106  1  0  0  0
 37 39  1  0  0  0
 37 47  1  0  0  0
 37 66  1  0  0  0
 37107  1  0  0  0
 38 43  2  0  0  0
 38 46  1  0  0  0
 38 47  1  0  0  0
 39 64  1  0  0  0
 39 67  2  0  0  0
 40 52  1  0  0  0
 40 53  2  0  0  0
 40 58  1  0  0  0
 41108  1  0  0  0
 41109  1  0  0  0
 41110  1  0  0  0
 41 48  1  0  0  0
 42 43  1  0  0  0
 42 66  1  0  0  0
 42111  1  0  0  0
 42112  1  0  0  0
 43 44  1  0  0  0
 44113  1  0  0  0
 45 46  2  0  0  0
 45114  1  0  0  0
 46115  1  0  0  0
 47116  1  0  0  0
 47117  1  0  0  0
 48 56  1  0  0  0
 48 65  1  0  0  0
 48118  1  0  0  0
 49 50  1  0  0  0
 49 53  1  0  0  0
 49 64  1  0  0  0
 49119  1  0  0  0
 50 51  1  0  0  0
 50120  1  0  0  0
 50121  1  0  0  0
 51 52  1  0  0  0
 51122  1  0  0  0
 51123  1  0  0  0
 52124  1  0  0  0
 52125  1  0  0  0
 53 54  1  0  0  0
 54 55  2  0  0  0
 54126  1  0  0  0
 55 57  1  0  0  0
 55127  1  0  0  0
 56 69  2  0  0  0
 57 58  2  0  0  0
 57128  1  0  0  0
 58129  1  0  0  0
 59 60  1  0  0  0
 59 61  1  0  0  0
 59 62  1  0  0  0
 60130  1  0  0  0
 60131  1  0  0  0
 60132  1  0  0  0
 61133  1  0  0  0
 61134  1  0  0  0
 61135  1  0  0  0
 62136  1  0  0  0
 62137  1  0  0  0
 62138  1  0  0  0
 63 65  1  0  0  0
 63139  1  0  0  0
 63140  1  0  0  0
 63141  1  0  0  0
 64142  1  0  0  0
 65143  1  0  0  0
 68 81  1  0  0  0
 71 72  2  0  0  0
 71 74  1  0  0  0
 71144  1  0  0  0
 72 76  1  0  0  0
 72145  1  0  0  0
 73 75  1  0  0  0
 73 76  2  0  0  0
 73146  1  0  0  0
 74 75  2  0  0  0
 74 83  1  0  0  0
 75 82  1  0  0  0
 76 84  1  0  0  0
 77 83  1  0  0  0
 77147  1  0  0  0
 77148  1  0  0  0
 77149  1  0  0  0
 78 79  1  0  0  0
 78 80  1  0  0  0
 78150  1  0  0  0
 78151  1  0  0  0
 79 81  1  0  0  0
 79152  1  0  0  0
 79153  1  0  0  0
 80 83  1  0  0  0
 80154  1  0  0  0
 80155  1  0  0  0
 81156  1  0  0  0
 81157  1  0  0  0
 82158  1  0  0  0
M  ISO  4   1 100  68 101  81 101  82 100
M  END
> <chiral flag>
0

> <version>
0

> <s_m_source_file>
/data/baiqing/PycharmProjects/Reinvent-master-3.2/result/LINK_invent/BTK/process_docking_weight1_custom_sum_contain_oxygen_bond_distance_aromatic_linkinvent_7_9_3/rearranged_h_0008.sdf

> <i_m_source_file_index>
52

> <r_mmod_Potential_Energy-OPLS-2005>
603.131958007812

> <r_mmod_Stretch_Energy-OPLS-2005>
193.189910888672

> <r_mmod_Bend_Energy-OPLS-2005>
237.479232788086

> <r_mmod_Torsional_Energy-OPLS-2005>
509.359100341797

> <r_mmod_Improper_Torsional_Energy-OPLS-2005>
44.2293586730957

> <r_mmod_Van_der_Waal_Energy-OPLS-2005>
166.459533691406

> <r_mmod_Electrostatic_Energy-OPLS-2005>
-420.319122314453

> <r_mmod_Solvation_Energy-OPLS-2005>
-221.379913330078

> <b_mmod_Minimization_Converged-OPLS-2005>
0

> <r_mmod_RMS_Derivative-OPLS-2005>
15.8214130401611

$$$$
52
                    3D
 Structure written by MMmdl.
159167  0  0  1  0            999 V2000
  -30.1520  -14.7383   20.3484 C   0  0  0  0  0  0
  -30.4995  -12.4154   19.4975 C   0  0  0  0  0  0
  -29.5112  -12.2682   18.3003 C   0  0  0  0  0  0
  -28.0643  -11.9649   18.8190 C   0  0  0  0  0  0
  -27.7582  -12.8705   20.0380 C   0  0  2  0  0  0
  -28.7734  -12.8732   21.1499 C   0  0  0  0  0  0
  -25.5001  -14.4785   20.3887 C   0  0  0  0  0  0
  -24.3903  -13.5155   20.9162 C   0  0  0  0  0  0
  -24.6836  -12.0520   20.8916 C   0  0  0  0  0  0
  -23.9384  -10.6807   21.0499 C   0  0  0  0  0  0
  -24.3871   -9.6187   21.9049 C   0  0  0  0  0  0
  -23.6851   -8.3819   22.0607 C   0  0  0  0  0  0
  -22.4840   -8.1333   21.3538 C   0  0  0  0  0  0
  -22.0533   -9.1400   20.4648 C   0  0  0  0  0  0
  -22.7587  -10.3679   20.3149 C   0  0  0  0  0  0
  -21.7337   -6.1207   22.5174 C   0  0  0  0  0  0
  -21.4372   -6.5950   23.8157 C   0  0  0  0  0  0
  -21.3782   -5.7000   24.9057 C   0  0  0  0  0  0
  -21.6042   -4.3251   24.7067 C   0  0  0  0  0  0
  -21.8764   -3.8422   23.4156 C   0  0  0  0  0  0
  -21.9337   -4.7328   22.3266 C   0  0  0  0  0  0
  -22.8943  -13.6886   21.3283 C   0  0  0  0  0  0
  -22.1713   -4.2436   21.0854 F   0  0  0  0  0  0
  -21.5545   -3.4682   25.7550 F   0  0  0  0  0  0
  -29.9556  -13.3926   20.4810 N   0  0  0  0  0  0
  -26.3828  -13.2121   20.4333 N   0  0  0  0  0  0
  -25.9301  -11.9615   20.7095 N   0  0  0  0  0  0
  -22.3424  -12.8495   22.2042 N   0  0  0  0  0  0
  -25.7132  -16.6665   18.9949 N   0  0  0  0  0  0
  -31.3331  -15.0787   20.1315 O   0  0  0  0  0  0
  -21.7435   -6.9583   21.4189 O   0  0  0  0  0  0
  -22.1093  -14.5285   20.9273 O   0  0  0  0  0  0
  -24.6787  -31.8070   23.1634 C   0  0  0  0  0  0
  -25.9422  -32.4474   23.8109 C   0  0  1  0  0  0
  -26.9246  -26.6112   20.3260 C   0  0  0  0  0  0
  -25.6034  -33.8306   24.1984 N   0  0  0  0  0  0
  -23.4912  -30.4325   21.5167 C   0  0  2  0  0  0
  -24.9014  -28.7902   20.0981 C   0  0  0  0  0  0
  -22.7721  -29.4391   22.4697 C   0  0  0  0  0  0
  -18.0336  -28.1411   22.8468 C   0  0  0  0  0  0
  -24.1506  -36.7156   23.2645 C   0  0  0  0  0  0
  -26.0697  -30.5141   21.4376 C   0  0  0  0  0  0
  -26.0816  -29.0787   20.7916 C   0  0  0  0  0  0
  -27.1076  -28.0063   20.8753 C   0  0  0  0  0  0
  -25.7996  -26.5712   19.4908 C   0  0  0  0  0  0
  -24.8126  -27.5784   19.4038 C   0  0  0  0  0  0
  -23.7309  -29.7717   20.1318 C   0  0  0  0  0  0
  -25.4153  -36.2897   24.0275 C   0  0  1  0  0  0
  -20.5976  -28.3770   23.1150 C   0  0  2  0  0  0
  -20.6804  -26.9435   22.5391 C   0  0  0  0  0  0
  -19.5766  -26.6370   21.5218 C   0  0  0  0  0  0
  -18.1960  -26.7944   22.1633 C   0  0  0  0  0  0
  -19.1604  -28.8908   23.2801 C   0  0  0  0  0  0
  -18.9506  -30.1500   23.8833 C   0  0  0  0  0  0
  -17.6494  -30.6593   24.0551 C   0  0  0  0  0  0
  -25.9132  -34.9283   23.4956 C   0  0  0  0  0  0
  -16.5386  -29.9074   23.6347 C   0  0  0  0  0  0
  -16.7320  -28.6500   23.0366 C   0  0  0  0  0  0
  -26.4594  -31.6514   25.0732 C   0  0  0  0  0  0
  -25.3650  -31.3835   26.1342 C   0  0  0  0  0  0
  -27.0513  -30.2843   24.6653 C   0  0  0  0  0  0
  -27.6069  -32.4372   25.7518 C   0  0  0  0  0  0
  -27.5578  -37.1738   24.8462 C   0  0  0  0  0  0
  -21.4380  -29.3046   22.3470 N   0  0  0  0  0  0
  -26.4279  -37.3660   23.9406 N   0  0  0  0  0  0
  -24.7720  -30.9549   22.0887 N   0  0  0  0  0  0
  -23.4220  -28.7947   23.2972 O   0  0  0  0  0  0
  -27.6055  -25.2497   20.5297 O   0  0  0  0  0  0
  -26.5761  -34.8848   22.4569 O   0  0  0  0  0  0
  -23.5831  -32.1167   23.6624 O   0  0  0  0  0  0
  -23.7583  -15.6535   19.3894 C   0  0  0  0  0  0
  -24.5132  -16.5462   20.9013 C   0  0  0  0  0  0
  -26.7370  -14.7759   18.4256 C   0  0  0  0  0  0
  -24.8678  -14.7327   18.1753 C   0  0  0  0  0  0
  -27.5017  -15.6857   19.9922 C   0  0  0  0  0  0
  -26.3733  -16.7401   21.1272 C   0  0  0  0  0  0
  -22.8890  -14.2945   16.8465 C   0  0  0  0  0  0
  -24.8980  -12.7898   16.7562 C   0  0  0  0  0  0
  -27.3077  -21.7296   20.9115 C   0  0  0  0  0  0
  -26.9221  -23.6111   20.5425 C   0  0  0  0  0  0
  -26.5221  -19.9357   20.9130 C   0  0  0  0  0  0
  -29.0309  -15.6527   20.2976 N   0  0  0  0  0  0
  -24.3151  -14.0888   17.0583 N   0  0  0  0  0  0
  -26.9029  -18.2608   21.3208 O   0  0  0  0  0  0
  -31.4862  -12.7207   19.1448 H   0  0  0  0  0  0
  -30.6431  -11.4503   19.9836 H   0  0  0  0  0  0
  -29.8440  -11.4734   17.6319 H   0  0  0  0  0  0
  -29.5171  -13.1811   17.7041 H   0  0  0  0  0  0
  -27.9999  -10.9210   19.1299 H   0  0  0  0  0  0
  -27.3355  -12.0823   18.0184 H   0  0  0  0  0  0
  -28.1464  -13.6018   19.4549 H   0  0  0  0  0  0
  -28.9322  -11.8710   21.5496 H   0  0  0  0  0  0
  -28.4715  -13.5154   21.9805 H   0  0  0  0  0  0
  -25.2983   -9.7681   22.4674 H   0  0  0  0  0  0
  -24.0864   -7.6298   22.7242 H   0  0  0  0  0  0
  -21.1581   -8.9777   19.8791 H   0  0  0  0  0  0
  -22.3725  -11.1016   19.6211 H   0  0  0  0  0  0
  -21.2528   -7.6469   23.9777 H   0  0  0  0  0  0
  -21.1600   -6.0691   25.8975 H   0  0  0  0  0  0
  -22.0374   -2.7861   23.2586 H   0  0  0  0  0  0
  -22.8716  -12.1058   22.6347 H   0  0  0  0  0  0
  -21.3735  -12.9689   22.4631 H   0  0  0  0  0  0
  -24.9600  -17.3402   18.9404 H   0  0  0  0  0  0
  -26.5319  -16.9181   18.4565 H   0  0  0  0  0  0
  -26.7480  -32.4881   23.0783 H   0  0  0  0  0  0
  -25.0104  -33.9358   25.0085 H   0  0  0  0  0  0
  -22.8149  -31.2741   21.3542 H   0  0  0  0  0  0
  -23.3782  -35.9473   23.3238 H   0  0  0  0  0  0
  -24.3579  -36.8884   22.2076 H   0  0  0  0  0  0
  -23.7248  -37.6308   23.6762 H   0  0  0  0  0  0
  -26.2952  -31.2318   20.6475 H   0  0  0  0  0  0
  -26.9204  -30.5607   22.1053 H   0  0  0  0  0  0
  -27.9784  -28.1930   21.4875 H   0  0  0  0  0  0
  -25.5915  -25.6451   18.9750 H   0  0  0  0  0  0
  -23.9276  -27.3693   18.8186 H   0  0  0  0  0  0
  -23.9363  -30.5469   19.3928 H   0  0  0  0  0  0
  -22.8221  -29.2733   19.7885 H   0  0  0  0  0  0
  -25.1362  -36.1665   25.0765 H   0  0  0  0  0  0
  -21.0075  -28.3383   24.1271 H   0  0  0  0  0  0
  -20.5675  -26.2397   23.3653 H   0  0  0  0  0  0
  -21.6666  -26.7385   22.1204 H   0  0  0  0  0  0
  -19.6904  -25.6264   21.1294 H   0  0  0  0  0  0
  -19.6686  -27.3143   20.6718 H   0  0  0  0  0  0
  -17.4225  -26.6710   21.4040 H   0  0  0  0  0  0
  -18.0329  -26.0100   22.9038 H   0  0  0  0  0  0
  -19.7974  -30.7348   24.2175 H   0  0  0  0  0  0
  -17.5028  -31.6261   24.5172 H   0  0  0  0  0  0
  -15.5377  -30.2939   23.7690 H   0  0  0  0  0  0
  -15.8740  -28.0779   22.7106 H   0  0  0  0  0  0
  -24.5858  -30.7171   25.7620 H   0  0  0  0  0  0
  -24.8804  -32.3051   26.4574 H   0  0  0  0  0  0
  -25.7795  -30.9108   27.0255 H   0  0  0  0  0  0
  -26.3206  -29.6448   24.1689 H   0  0  0  0  0  0
  -27.3952  -29.7316   25.5405 H   0  0  0  0  0  0
  -27.9203  -30.3946   24.0164 H   0  0  0  0  0  0
  -27.2642  -33.3756   26.1889 H   0  0  0  0  0  0
  -28.3959  -32.6803   25.0387 H   0  0  0  0  0  0
  -28.0652  -31.8647   26.5591 H   0  0  0  0  0  0
  -28.2543  -38.0085   24.7534 H   0  0  0  0  0  0
  -28.1128  -36.2605   24.6259 H   0  0  0  0  0  0
  -27.2292  -37.1335   25.8863 H   0  0  0  0  0  0
  -20.9641  -29.8757   21.6616 H   0  0  0  0  0  0
  -26.0101  -38.2706   24.1421 H   0  0  0  0  0  0
  -22.7138  -15.7826   19.1473 H   0  0  0  0  0  0
  -23.8567  -17.1980   21.4586 H   0  0  0  0  0  0
  -27.3663  -14.3243   17.6732 H   0  0  0  0  0  0
  -22.3010  -13.8336   17.6438 H   0  0  0  0  0  0
  -22.5672  -13.8622   15.8981 H   0  0  0  0  0  0
  -22.6551  -15.3602   16.8114 H   0  0  0  0  0  0
  -25.0491  -12.2088   17.6672 H   0  0  0  0  0  0
  -25.8565  -12.9006   16.2456 H   0  0  0  0  0  0
  -24.2406  -12.2103   16.1074 H   0  0  0  0  0  0
  -27.7140  -21.7874   21.9212 H   0  0  0  0  0  0
  -28.1897  -21.5715   20.2911 H   0  0  0  0  0  0
  -26.0398  -23.7775   21.1621 H   0  0  0  0  0  0
  -26.5169  -23.5597   19.5313 H   0  0  0  0  0  0
  -26.1462  -19.8295   19.8954 H   0  0  0  0  0  0
  -25.6196  -20.0827   21.5058 H   0  0  0  0  0  0
  -29.3777  -16.5896   20.4422 H   0  0  0  0  0  0
  1 25  1  0  0  0
  1 30  2  0  0  0
  1 82  1  0  0  0
  2  3  1  0  0  0
  2 25  1  0  0  0
  2 85  1  0  0  0
  2 86  1  0  0  0
  3  4  1  0  0  0
  3 87  1  0  0  0
  3 88  1  0  0  0
  4  5  1  0  0  0
  4 89  1  0  0  0
  4 90  1  0  0  0
  5  6  1  0  0  0
  5 26  1  0  0  0
  5 91  1  0  0  0
  6 25  1  0  0  0
  6 92  1  0  0  0
  6 93  1  0  0  0
  7  8  2  0  0  0
  7 26  1  0  0  0
  7 29  1  0  0  0
  8  9  1  0  0  0
  8 22  1  0  0  0
  9 10  1  0  0  0
  9 27  2  0  0  0
 10 11  2  0  0  0
 10 15  1  0  0  0
 11 12  1  0  0  0
 11 94  1  0  0  0
 12 13  2  0  0  0
 12 95  1  0  0  0
 13 14  1  0  0  0
 13 31  1  0  0  0
 14 15  2  0  0  0
 14 96  1  0  0  0
 15 97  1  0  0  0
 16 17  2  0  0  0
 16 21  1  0  0  0
 16 31  1  0  0  0
 17 18  1  0  0  0
 17 98  1  0  0  0
 18 19  2  0  0  0
 18 99  1  0  0  0
 19 20  1  0  0  0
 19 24  1  0  0  0
 20 21  2  0  0  0
 20100  1  0  0  0
 21 23  1  0  0  0
 22 28  1  0  0  0
 22 32  2  0  0  0
 26 27  1  0  0  0
 28101  1  0  0  0
 28102  1  0  0  0
 29103  1  0  0  0
 29104  1  0  0  0
 33 34  1  0  0  0
 33 66  1  0  0  0
 33 70  2  0  0  0
 34 36  1  0  0  0
 34 59  1  0  0  0
 34105  1  0  0  0
 35 44  2  0  0  0
 35 45  1  0  0  0
 35 68  1  0  0  0
 36 56  1  0  0  0
 36106  1  0  0  0
 37 39  1  0  0  0
 37 47  1  0  0  0
 37 66  1  0  0  0
 37107  1  0  0  0
 38 43  2  0  0  0
 38 46  1  0  0  0
 38 47  1  0  0  0
 39 64  1  0  0  0
 39 67  2  0  0  0
 40 52  1  0  0  0
 40 53  2  0  0  0
 40 58  1  0  0  0
 41108  1  0  0  0
 41109  1  0  0  0
 41110  1  0  0  0
 41 48  1  0  0  0
 42 43  1  0  0  0
 42 66  1  0  0  0
 42111  1  0  0  0
 42112  1  0  0  0
 43 44  1  0  0  0
 44113  1  0  0  0
 45 46  2  0  0  0
 45114  1  0  0  0
 46115  1  0  0  0
 47116  1  0  0  0
 47117  1  0  0  0
 48 56  1  0  0  0
 48 65  1  0  0  0
 48118  1  0  0  0
 49 50  1  0  0  0
 49 53  1  0  0  0
 49 64  1  0  0  0
 49119  1  0  0  0
 50 51  1  0  0  0
 50120  1  0  0  0
 50121  1  0  0  0
 51 52  1  0  0  0
 51122  1  0  0  0
 51123  1  0  0  0
 52124  1  0  0  0
 52125  1  0  0  0
 53 54  1  0  0  0
 54 55  2  0  0  0
 54126  1  0  0  0
 55 57  1  0  0  0
 55127  1  0  0  0
 56 69  2  0  0  0
 57 58  2  0  0  0
 57128  1  0  0  0
 58129  1  0  0  0
 59 60  1  0  0  0
 59 61  1  0  0  0
 59 62  1  0  0  0
 60130  1  0  0  0
 60131  1  0  0  0
 60132  1  0  0  0
 61133  1  0  0  0
 61134  1  0  0  0
 61135  1  0  0  0
 62136  1  0  0  0
 62137  1  0  0  0
 62138  1  0  0  0
 63 65  1  0  0  0
 63139  1  0  0  0
 63140  1  0  0  0
 63141  1  0  0  0
 64142  1  0  0  0
 65143  1  0  0  0
 68 80  1  0  0  0
 71 72  2  0  0  0
 71 74  1  0  0  0
 71144  1  0  0  0
 72 76  1  0  0  0
 72145  1  0  0  0
 73 74  2  0  0  0
 73 75  1  0  0  0
 73146  1  0  0  0
 74 83  1  0  0  0
 75 76  2  0  0  0
 75 82  1  0  0  0
 76 84  1  0  0  0
 77 83  1  0  0  0
 77147  1  0  0  0
 77148  1  0  0  0
 77149  1  0  0  0
 78 83  1  0  0  0
 78150  1  0  0  0
 78151  1  0  0  0
 78152  1  0  0  0
 79 80  1  0  0  0
 79 81  1  0  0  0
 79153  1  0  0  0
 79154  1  0  0  0
 80155  1  0  0  0
 80156  1  0  0  0
 81 84  1  0  0  0
 81157  1  0  0  0
 81158  1  0  0  0
 82159  1  0  0  0
M  ISO  4   1 100  68 101  80 101  82 100
M  END
> <chiral flag>
0

> <version>
0

> <s_m_source_file>
/data/baiqing/PycharmProjects/Reinvent-master-3.2/result/LINK_invent/BTK/process_docking_weight1_custom_sum_contain_oxygen_bond_distance_aromatic_linkinvent_7_9_3/rearranged_h_0008.sdf

> <i_m_source_file_index>
53

> <r_mmod_Potential_Energy-OPLS-2005>
11706.8564453125

> <r_mmod_Stretch_Energy-OPLS-2005>
6903.31103515625

> <r_mmod_Bend_Energy-OPLS-2005>
861.616638183594

> <r_mmod_Torsional_Energy-OPLS-2005>
409.188903808594

> <r_mmod_Improper_Torsional_Energy-OPLS-2005>
37.6297340393066

> <r_mmod_Van_der_Waal_Energy-OPLS-2005>
2825.59252929688

> <r_mmod_Electrostatic_Energy-OPLS-2005>
-410.103851318359

> <r_mmod_Solvation_Energy-OPLS-2005>
-225.891479492188

> <b_mmod_Minimization_Converged-OPLS-2005>
0

> <r_mmod_RMS_Derivative-OPLS-2005>
4.27568101882935

$$$$
53
                    3D
 Structure written by MMmdl.
148156  0  0  1  0            999 V2000
  -30.5182  -14.9243   20.4273 C   0  0  0  0  0  0
  -30.4485  -12.5676   19.5002 C   0  0  0  0  0  0
  -29.5256  -12.5341   18.2581 C   0  0  0  0  0  0
  -28.0559  -12.3244   18.6711 C   0  0  0  0  0  0
  -27.6374  -13.2425   19.8489 C   0  0  2  0  0  0
  -28.6796  -13.2319   20.9887 C   0  0  0  0  0  0
  -25.2490  -13.8205   20.5707 C   0  0  0  0  0  0
  -24.1793  -13.0436   20.9212 C   0  0  0  0  0  0
  -24.6401  -11.6919   20.8745 C   0  0  0  0  0  0
  -23.9080  -10.4292   21.0404 C   0  0  0  0  0  0
  -24.3627   -9.4208   21.9183 C   0  0  0  0  0  0
  -23.6298   -8.2244   22.0754 C   0  0  0  0  0  0
  -22.4280   -8.0283   21.3545 C   0  0  0  0  0  0
  -21.9918   -9.0257   20.4646 C   0  0  0  0  0  0
  -22.7251  -10.2134   20.3054 C   0  0  0  0  0  0
  -21.6855   -6.0737   22.5279 C   0  0  0  0  0  0
  -21.4015   -6.5641   23.8213 C   0  0  0  0  0  0
  -21.3660   -5.6793   24.9174 C   0  0  0  0  0  0
  -21.6044   -4.3056   24.7225 C   0  0  0  0  0  0
  -21.8819   -3.8148   23.4346 C   0  0  0  0  0  0
  -21.9193   -4.6965   22.3402 C   0  0  0  0  0  0
  -22.7813  -13.5212   21.1871 C   0  0  0  0  0  0
  -22.1662   -4.2151   21.0980 F   0  0  0  0  0  0
  -21.5628   -3.4539   25.7737 F   0  0  0  0  0  0
  -29.9639  -13.6466   20.4064 N   0  0  0  0  0  0
  -26.2921  -12.9428   20.3276 N   0  0  0  0  0  0
  -25.9336  -11.6561   20.5746 N   0  0  0  0  0  0
  -22.0465  -12.8199   22.0428 N   0  0  0  0  0  0
  -25.4163  -15.1932   20.4141 N   0  0  0  0  0  0
  -31.6994  -15.0452   20.0829 O   0  0  0  0  0  0
  -21.6642   -6.8881   21.4242 O   0  0  0  0  0  0
  -22.3492  -14.5516   20.6719 O   0  0  0  0  0  0
  -24.6426  -31.8438   23.1879 C   0  0  0  0  0  0
  -25.9201  -32.4692   23.8268 C   0  0  1  0  0  0
  -27.2223  -27.1392   20.1425 C   0  0  0  0  0  0
  -25.5951  -33.8498   24.2185 N   0  0  0  0  0  0
  -23.4460  -30.4626   21.5332 C   0  0  2  0  0  0
  -24.8954  -28.8895   20.1072 C   0  0  0  0  0  0
  -22.7563  -29.4543   22.4859 C   0  0  0  0  0  0
  -18.0303  -28.1395   22.8479 C   0  0  0  0  0  0
  -24.1491  -36.7253   23.2642 C   0  0  0  0  0  0
  -26.0011  -30.7171   21.3868 C   0  0  0  0  0  0
  -26.0706  -29.3288   20.7274 C   0  0  0  0  0  0
  -27.2298  -28.4677   20.7317 C   0  0  0  0  0  0
  -26.0182  -26.7996   19.4846 C   0  0  0  0  0  0
  -24.8819  -27.6384   19.4725 C   0  0  0  0  0  0
  -23.6715  -29.7909   20.1521 C   0  0  0  0  0  0
  -25.4124  -36.3031   24.0316 C   0  0  1  0  0  0
  -20.5915  -28.3719   23.1238 C   0  0  2  0  0  0
  -20.6787  -26.9424   22.5404 C   0  0  0  0  0  0
  -19.5760  -26.6382   21.5213 C   0  0  0  0  0  0
  -18.1942  -26.7933   22.1627 C   0  0  0  0  0  0
  -19.1560  -28.8876   23.2850 C   0  0  0  0  0  0
  -18.9477  -30.1473   23.8875 C   0  0  0  0  0  0
  -17.6473  -30.6592   24.0559 C   0  0  0  0  0  0
  -25.9074  -34.9406   23.5060 C   0  0  0  0  0  0
  -16.5364  -29.9085   23.6336 C   0  0  0  0  0  0
  -16.7288  -28.6504   23.0358 C   0  0  0  0  0  0
  -26.4524  -31.6563   25.0712 C   0  0  0  0  0  0
  -25.3709  -31.3759   26.1410 C   0  0  0  0  0  0
  -27.0387  -30.2957   24.6298 C   0  0  0  0  0  0
  -27.6056  -32.4328   25.7496 C   0  0  0  0  0  0
  -27.5575  -37.1784   24.8466 C   0  0  0  0  0  0
  -21.4256  -29.3044   22.3609 N   0  0  0  0  0  0
  -26.4287  -37.3744   23.9408 N   0  0  0  0  0  0
  -24.7163  -31.0294   22.0911 N   0  0  0  0  0  0
  -23.4208  -28.8095   23.3011 O   0  0  0  0  0  0
  -28.2978  -26.1831   20.2513 O   0  0  0  0  0  0
  -26.5662  -34.8905   22.4640 O   0  0  0  0  0  0
  -23.5547  -32.1315   23.7102 O   0  0  0  0  0  0
  -30.4933  -18.3565   19.6582 C   0  0  0  0  0  0
  -28.5603  -19.8249   21.0345 C   0  0  0  0  0  0
  -29.6793  -17.5586   20.5240 C   0  0  0  0  0  0
  -29.3532  -20.6200   20.1431 C   0  0  0  0  0  0
  -30.3291  -19.7915   19.4747 C   0  0  0  0  0  0
  -28.7081  -18.3830   21.2002 C   0  0  0  0  0  0
  -28.3216  -24.7180   19.7170 C   0  0  0  0  0  0
  -28.5917  -23.2487   20.5102 C   0  0  0  0  0  0
  -29.6856  -16.0342   20.7086 N   0  0  0  0  0  0
  -29.2413  -22.0463   19.8039 O   0  0  0  0  0  0
  -31.1555  -20.3988   18.5893 F   0  0  0  0  0  0
  -27.8534  -17.7570   22.0444 F   0  0  0  0  0  0
  -31.4823  -12.7307   19.1917 H   0  0  0  0  0  0
  -30.4409  -11.6048   20.0137 H   0  0  0  0  0  0
  -29.8390  -11.7442   17.5741 H   0  0  0  0  0  0
  -29.6201  -13.4712   17.7072 H   0  0  0  0  0  0
  -27.9426  -11.2795   18.9621 H   0  0  0  0  0  0
  -27.3951  -12.4757   17.8167 H   0  0  0  0  0  0
  -27.6122  -14.2531   19.4405 H   0  0  0  0  0  0
  -28.7569  -12.2410   21.4389 H   0  0  0  0  0  0
  -28.3804  -13.9079   21.7911 H   0  0  0  0  0  0
  -25.2771   -9.5683   22.4760 H   0  0  0  0  0  0
  -24.0005   -7.4636   22.7475 H   0  0  0  0  0  0
  -21.0849   -8.8779   19.8952 H   0  0  0  0  0  0
  -22.3710  -10.9674   19.6164 H   0  0  0  0  0  0
  -21.2008   -7.6149   23.9716 H   0  0  0  0  0  0
  -21.1482   -6.0524   25.9077 H   0  0  0  0  0  0
  -22.0598   -2.7610   23.2846 H   0  0  0  0  0  0
  -22.4089  -11.9862   22.4814 H   0  0  0  0  0  0
  -21.1081  -13.1217   22.2636 H   0  0  0  0  0  0
  -24.6501  -15.8455   20.5392 H   0  0  0  0  0  0
  -26.2653  -15.6402   20.0942 H   0  0  0  0  0  0
  -26.7265  -32.5294   23.0994 H   0  0  0  0  0  0
  -25.0075  -33.9613   25.0317 H   0  0  0  0  0  0
  -22.7485  -31.2885   21.3788 H   0  0  0  0  0  0
  -23.3759  -35.9579   23.3293 H   0  0  0  0  0  0
  -24.3576  -36.8897   22.2059 H   0  0  0  0  0  0
  -23.7241  -37.6444   23.6687 H   0  0  0  0  0  0
  -26.1577  -31.4720   20.6150 H   0  0  0  0  0  0
  -26.8713  -30.7661   22.0297 H   0  0  0  0  0  0
  -28.1234  -28.7980   21.2425 H   0  0  0  0  0  0
  -25.8999  -25.8458   18.9982 H   0  0  0  0  0  0
  -23.9827  -27.2959   18.9789 H   0  0  0  0  0  0
  -23.8066  -30.5651   19.3960 H   0  0  0  0  0  0
  -22.7864  -29.2321   19.8428 H   0  0  0  0  0  0
  -25.1313  -36.1857   25.0808 H   0  0  0  0  0  0
  -21.0008  -28.3309   24.1359 H   0  0  0  0  0  0
  -20.5681  -26.2334   23.3622 H   0  0  0  0  0  0
  -21.6653  -26.7430   22.1201 H   0  0  0  0  0  0
  -19.6921  -25.6287   21.1255 H   0  0  0  0  0  0
  -19.6695  -27.3181   20.6733 H   0  0  0  0  0  0
  -17.4209  -26.6674   21.4033 H   0  0  0  0  0  0
  -18.0346  -26.0082   22.9031 H   0  0  0  0  0  0
  -19.7952  -30.7296   24.2233 H   0  0  0  0  0  0
  -17.5026  -31.6270   24.5165 H   0  0  0  0  0  0
  -15.5363  -30.2980   23.7673 H   0  0  0  0  0  0
  -15.8688  -28.0814   22.7087 H   0  0  0  0  0  0
  -24.5887  -30.7108   25.7731 H   0  0  0  0  0  0
  -24.8900  -32.2944   26.4783 H   0  0  0  0  0  0
  -25.7990  -30.8963   27.0221 H   0  0  0  0  0  0
  -26.3003  -29.6678   24.1300 H   0  0  0  0  0  0
  -27.3989  -29.7261   25.4875 H   0  0  0  0  0  0
  -27.8917  -30.4189   23.9622 H   0  0  0  0  0  0
  -27.2656  -33.3659   26.2001 H   0  0  0  0  0  0
  -28.3906  -32.6836   25.0349 H   0  0  0  0  0  0
  -28.0678  -31.8497   26.5471 H   0  0  0  0  0  0
  -28.2586  -38.0086   24.7511 H   0  0  0  0  0  0
  -28.1077  -36.2615   24.6296 H   0  0  0  0  0  0
  -27.2290  -37.1434   25.8869 H   0  0  0  0  0  0
  -20.9466  -29.8753   21.6784 H   0  0  0  0  0  0
  -26.0152  -38.2812   24.1410 H   0  0  0  0  0  0
  -31.2573  -17.8619   19.0776 H   0  0  0  0  0  0
  -27.7775  -20.3151   21.5926 H   0  0  0  0  0  0
  -27.4790  -24.5474   19.0542 H   0  0  0  0  0  0
  -29.1561  -24.7744   19.0182 H   0  0  0  0  0  0
  -27.6494  -22.9152   20.9451 H   0  0  0  0  0  0
  -29.2379  -23.4612   21.3619 H   0  0  0  0  0  0
  -28.8179  -15.7174   21.1150 H   0  0  0  0  0  0
  1 25  1  0  0  0
  1 30  2  0  0  0
  1 79  1  0  0  0
  2  3  1  0  0  0
  2 25  1  0  0  0
  2 83  1  0  0  0
  2 84  1  0  0  0
  3  4  1  0  0  0
  3 85  1  0  0  0
  3 86  1  0  0  0
  4  5  1  0  0  0
  4 87  1  0  0  0
  4 88  1  0  0  0
  5  6  1  0  0  0
  5 26  1  0  0  0
  5 89  1  0  0  0
  6 25  1  0  0  0
  6 90  1  0  0  0
  6 91  1  0  0  0
  7  8  2  0  0  0
  7 26  1  0  0  0
  7 29  1  0  0  0
  8  9  1  0  0  0
  8 22  1  0  0  0
  9 10  1  0  0  0
  9 27  2  0  0  0
 10 11  2  0  0  0
 10 15  1  0  0  0
 11 12  1  0  0  0
 11 92  1  0  0  0
 12 13  2  0  0  0
 12 93  1  0  0  0
 13 14  1  0  0  0
 13 31  1  0  0  0
 14 15  2  0  0  0
 14 94  1  0  0  0
 15 95  1  0  0  0
 16 17  2  0  0  0
 16 21  1  0  0  0
 16 31  1  0  0  0
 17 18  1  0  0  0
 17 96  1  0  0  0
 18 19  2  0  0  0
 18 97  1  0  0  0
 19 20  1  0  0  0
 19 24  1  0  0  0
 20 21  2  0  0  0
 20 98  1  0  0  0
 21 23  1  0  0  0
 22 28  1  0  0  0
 22 32  2  0  0  0
 26 27  1  0  0  0
 28 99  1  0  0  0
 28100  1  0  0  0
 29101  1  0  0  0
 29102  1  0  0  0
 33 34  1  0  0  0
 33 66  1  0  0  0
 33 70  2  0  0  0
 34 36  1  0  0  0
 34 59  1  0  0  0
 34103  1  0  0  0
 35 44  2  0  0  0
 35 45  1  0  0  0
 35 68  1  0  0  0
 36 56  1  0  0  0
 36104  1  0  0  0
 37 39  1  0  0  0
 37 47  1  0  0  0
 37 66  1  0  0  0
 37105  1  0  0  0
 38 43  2  0  0  0
 38 46  1  0  0  0
 38 47  1  0  0  0
 39 64  1  0  0  0
 39 67  2  0  0  0
 40 52  1  0  0  0
 40 53  2  0  0  0
 40 58  1  0  0  0
 41106  1  0  0  0
 41107  1  0  0  0
 41108  1  0  0  0
 41 48  1  0  0  0
 42 43  1  0  0  0
 42 66  1  0  0  0
 42109  1  0  0  0
 42110  1  0  0  0
 43 44  1  0  0  0
 44111  1  0  0  0
 45 46  2  0  0  0
 45112  1  0  0  0
 46113  1  0  0  0
 47114  1  0  0  0
 47115  1  0  0  0
 48 56  1  0  0  0
 48 65  1  0  0  0
 48116  1  0  0  0
 49 50  1  0  0  0
 49 53  1  0  0  0
 49 64  1  0  0  0
 49117  1  0  0  0
 50 51  1  0  0  0
 50118  1  0  0  0
 50119  1  0  0  0
 51 52  1  0  0  0
 51120  1  0  0  0
 51121  1  0  0  0
 52122  1  0  0  0
 52123  1  0  0  0
 53 54  1  0  0  0
 54 55  2  0  0  0
 54124  1  0  0  0
 55 57  1  0  0  0
 55125  1  0  0  0
 56 69  2  0  0  0
 57 58  2  0  0  0
 57126  1  0  0  0
 58127  1  0  0  0
 59 60  1  0  0  0
 59 61  1  0  0  0
 59 62  1  0  0  0
 60128  1  0  0  0
 60129  1  0  0  0
 60130  1  0  0  0
 61131  1  0  0  0
 61132  1  0  0  0
 61133  1  0  0  0
 62134  1  0  0  0
 62135  1  0  0  0
 62136  1  0  0  0
 63 65  1  0  0  0
 63137  1  0  0  0
 63138  1  0  0  0
 63139  1  0  0  0
 64140  1  0  0  0
 65141  1  0  0  0
 68 77  1  0  0  0
 71 73  2  0  0  0
 71 75  1  0  0  0
 71142  1  0  0  0
 72 74  1  0  0  0
 72 76  2  0  0  0
 72143  1  0  0  0
 73 76  1  0  0  0
 73 79  1  0  0  0
 74 75  2  0  0  0
 74 80  1  0  0  0
 75 81  1  0  0  0
 76 82  1  0  0  0
 77 78  1  0  0  0
 77144  1  0  0  0
 77145  1  0  0  0
 78 80  1  0  0  0
 78146  1  0  0  0
 78147  1  0  0  0
 79148  1  0  0  0
M  ISO  4   1 100  68 101  77 101  79 100
M  END
> <chiral flag>
0

> <version>
0

> <s_m_source_file>
/data/baiqing/PycharmProjects/Reinvent-master-3.2/result/LINK_invent/BTK/process_docking_weight1_custom_sum_contain_oxygen_bond_distance_aromatic_linkinvent_7_9_3/rearranged_h_0008.sdf

> <i_m_source_file_index>
54

> <r_mmod_Potential_Energy-OPLS-2005>
455.152130126953

> <r_mmod_Stretch_Energy-OPLS-2005>
227.920120239258

> <r_mmod_Bend_Energy-OPLS-2005>
295.857421875

> <r_mmod_Torsional_Energy-OPLS-2005>
212.856811523438

> <r_mmod_Improper_Torsional_Energy-OPLS-2005>
3.46052241325378

> <r_mmod_Van_der_Waal_Energy-OPLS-2005>
130.192138671875

> <r_mmod_Electrostatic_Energy-OPLS-2005>
-386.322631835938

> <r_mmod_Solvation_Energy-OPLS-2005>
-209.379211425781

> <b_mmod_Minimization_Converged-OPLS-2005>
0

> <r_mmod_RMS_Derivative-OPLS-2005>
0.111098766326904

$$$$
54
                    3D
 Structure written by MMmdl.
164172  0  0  1  0            999 V2000
  -30.5064  -15.0646   20.3619 C   0  0  0  0  0  0
  -30.4399  -12.6612   19.4970 C   0  0  0  0  0  0
  -29.5218  -12.4864   18.2645 C   0  0  0  0  0  0
  -28.0616  -12.2648   18.7044 C   0  0  0  0  0  0
  -27.6124  -13.2360   19.8276 C   0  0  2  0  0  0
  -28.6611  -13.3624   20.9510 C   0  0  0  0  0  0
  -25.2444  -13.8156   20.5797 C   0  0  0  0  0  0
  -24.1735  -13.0405   20.9264 C   0  0  0  0  0  0
  -24.6331  -11.6882   20.8790 C   0  0  0  0  0  0
  -23.9019  -10.4263   21.0414 C   0  0  0  0  0  0
  -24.3576   -9.4188   21.9194 C   0  0  0  0  0  0
  -23.6260   -8.2220   22.0755 C   0  0  0  0  0  0
  -22.4251   -8.0252   21.3533 C   0  0  0  0  0  0
  -21.9877   -9.0227   20.4640 C   0  0  0  0  0  0
  -22.7195  -10.2112   20.3054 C   0  0  0  0  0  0
  -21.6848   -6.0706   22.5268 C   0  0  0  0  0  0
  -21.4012   -6.5624   23.8194 C   0  0  0  0  0  0
  -21.3653   -5.6792   24.9166 C   0  0  0  0  0  0
  -21.6036   -4.3051   24.7230 C   0  0  0  0  0  0
  -21.8825   -3.8129   23.4357 C   0  0  0  0  0  0
  -21.9193   -4.6935   22.3402 C   0  0  0  0  0  0
  -22.7772  -13.5213   21.1900 C   0  0  0  0  0  0
  -22.1670   -4.2114   21.0982 F   0  0  0  0  0  0
  -21.5620   -3.4541   25.7746 F   0  0  0  0  0  0
  -29.9093  -13.7958   20.3111 N   0  0  0  0  0  0
  -26.2826  -12.9342   20.3318 N   0  0  0  0  0  0
  -25.9263  -11.6497   20.5817 N   0  0  0  0  0  0
  -22.0424  -12.8196   22.0447 N   0  0  0  0  0  0
  -25.4172  -15.1887   20.4252 N   0  0  0  0  0  0
  -31.7405  -15.0687   20.2685 O   0  0  0  0  0  0
  -21.6635   -6.8837   21.4223 O   0  0  0  0  0  0
  -22.3478  -14.5526   20.6745 O   0  0  0  0  0  0
  -24.6479  -31.8400   23.1819 C   0  0  0  0  0  0
  -25.9240  -32.4668   23.8207 C   0  0  1  0  0  0
  -27.2045  -27.0882   20.1656 C   0  0  0  0  0  0
  -25.5983  -33.8472   24.2137 N   0  0  0  0  0  0
  -23.4518  -30.4602   21.5267 C   0  0  2  0  0  0
  -24.9004  -28.8794   20.1033 C   0  0  0  0  0  0
  -22.7585  -29.4529   22.4800 C   0  0  0  0  0  0
  -18.0315  -28.1406   22.8474 C   0  0  0  0  0  0
  -24.1505  -36.7232   23.2635 C   0  0  0  0  0  0
  -26.0101  -30.7019   21.3847 C   0  0  0  0  0  0
  -26.0779  -29.3079   20.7287 C   0  0  0  0  0  0
  -27.2295  -28.4282   20.7432 C   0  0  0  0  0  0
  -26.0070  -26.7785   19.4860 C   0  0  0  0  0  0
  -24.8807  -27.6310   19.4638 C   0  0  0  0  0  0
  -23.6802  -29.7889   20.1458 C   0  0  0  0  0  0
  -25.4135  -36.3007   24.0302 C   0  0  1  0  0  0
  -20.5932  -28.3732   23.1225 C   0  0  2  0  0  0
  -20.6807  -26.9435   22.5405 C   0  0  0  0  0  0
  -19.5784  -26.6399   21.5212 C   0  0  0  0  0  0
  -18.1954  -26.7945   22.1617 C   0  0  0  0  0  0
  -19.1571  -28.8885   23.2847 C   0  0  0  0  0  0
  -18.9483  -30.1481   23.8884 C   0  0  0  0  0  0
  -17.6478  -30.6604   24.0560 C   0  0  0  0  0  0
  -25.9091  -34.9393   23.5023 C   0  0  0  0  0  0
  -16.5368  -29.9101   23.6343 C   0  0  0  0  0  0
  -16.7295  -28.6515   23.0368 C   0  0  0  0  0  0
  -26.4544  -31.6550   25.0666 C   0  0  0  0  0  0
  -25.3708  -31.3767   26.1339 C   0  0  0  0  0  0
  -27.0380  -30.2928   24.6279 C   0  0  0  0  0  0
  -27.6069  -32.4306   25.7463 C   0  0  0  0  0  0
  -27.5578  -37.1777   24.8464 C   0  0  0  0  0  0
  -21.4264  -29.3053   22.3576 N   0  0  0  0  0  0
  -26.4287  -37.3736   23.9410 N   0  0  0  0  0  0
  -24.7226  -31.0237   22.0856 N   0  0  0  0  0  0
  -23.4217  -28.8084   23.2962 O   0  0  0  0  0  0
  -28.2345  -26.0681   20.2698 O   0  0  0  0  0  0
  -26.5666  -34.8911   22.4594 O   0  0  0  0  0  0
  -23.5598  -32.1266   23.7057 O   0  0  0  0  0  0
  -30.3568  -17.8853   21.9709 C   0  0  0  0  0  0
  -30.3703  -19.1375   22.6283 C   0  0  0  0  0  0
  -29.2310  -19.0199   20.1553 C   0  0  0  0  0  0
  -29.7804  -17.7209   20.6971 C   0  0  0  0  0  0
  -29.8422  -20.3429   22.0821 C   0  0  0  0  0  0
  -29.2508  -20.3873   20.7805 C   0  0  0  0  0  0
  -30.9481  -22.2792   23.0638 C   0  0  0  0  0  0
  -32.1709  -22.0109   22.1894 C   0  0  0  0  0  0
  -30.1610  -16.9514   17.6906 C   0  0  0  0  0  0
  -28.7305  -21.6400   23.8570 C   0  0  0  0  0  0
  -29.2053  -16.3036   18.7120 C   0  0  0  0  0  0
  -27.9844  -24.5276   20.0169 C   0  0  0  0  0  0
  -28.8054  -23.1525   20.6270 C   0  0  0  0  0  0
  -29.8696  -21.4670   22.9502 N   0  0  0  0  0  0
  -29.7600  -16.2869   20.0777 N   0  0  0  0  0  0
  -30.9864  -23.2324   23.8489 O   0  0  0  0  0  0
  -28.6955  -21.6381   20.1834 O   0  0  0  0  0  0
  -31.4652  -12.8442   19.1705 H   0  0  0  0  0  0
  -30.4731  -11.7462   20.0902 H   0  0  0  0  0  0
  -29.8584  -11.6382   17.6663 H   0  0  0  0  0  0
  -29.5931  -13.3543   17.6102 H   0  0  0  0  0  0
  -27.9957  -11.2418   19.0754 H   0  0  0  0  0  0
  -27.3862  -12.3207   17.8507 H   0  0  0  0  0  0
  -27.5194  -14.2067   19.3524 H   0  0  0  0  0  0
  -28.7926  -12.4235   21.4896 H   0  0  0  0  0  0
  -28.3449  -14.1069   21.6842 H   0  0  0  0  0  0
  -25.2703   -9.5685   22.4791 H   0  0  0  0  0  0
  -23.9960   -7.4614   22.7485 H   0  0  0  0  0  0
  -21.0803   -8.8731   19.8957 H   0  0  0  0  0  0
  -22.3623  -10.9651   19.6173 H   0  0  0  0  0  0
  -21.2018   -7.6136   23.9678 H   0  0  0  0  0  0
  -21.1467   -6.0534   25.9060 H   0  0  0  0  0  0
  -22.0612   -2.7587   23.2876 H   0  0  0  0  0  0
  -22.4064  -11.9857   22.4815 H   0  0  0  0  0  0
  -21.1050  -13.1209   22.2680 H   0  0  0  0  0  0
  -24.6571  -15.8485   20.5452 H   0  0  0  0  0  0
  -26.2836  -15.6273   20.1403 H   0  0  0  0  0  0
  -26.7296  -32.5265   23.0921 H   0  0  0  0  0  0
  -25.0153  -33.9562   25.0299 H   0  0  0  0  0  0
  -22.7564  -31.2877   21.3721 H   0  0  0  0  0  0
  -23.3776  -35.9556   23.3273 H   0  0  0  0  0  0
  -24.3595  -36.8892   22.2058 H   0  0  0  0  0  0
  -23.7272  -37.6424   23.6678 H   0  0  0  0  0  0
  -26.1742  -31.4569   20.6142 H   0  0  0  0  0  0
  -26.8779  -30.7511   22.0309 H   0  0  0  0  0  0
  -28.1202  -28.7500   21.2642 H   0  0  0  0  0  0
  -25.9025  -25.8257   18.9891 H   0  0  0  0  0  0
  -23.9841  -27.3025   18.9582 H   0  0  0  0  0  0
  -23.8201  -30.5624   19.3899 H   0  0  0  0  0  0
  -22.7931  -29.2367   19.8323 H   0  0  0  0  0  0
  -25.1354  -36.1792   25.0795 H   0  0  0  0  0  0
  -21.0034  -28.3321   24.1339 H   0  0  0  0  0  0
  -20.5722  -26.2339   23.3618 H   0  0  0  0  0  0
  -21.6670  -26.7462   22.1191 H   0  0  0  0  0  0
  -19.6951  -25.6307   21.1262 H   0  0  0  0  0  0
  -19.6730  -27.3190   20.6728 H   0  0  0  0  0  0
  -17.4238  -26.6690   21.4010 H   0  0  0  0  0  0
  -18.0345  -26.0098   22.9026 H   0  0  0  0  0  0
  -19.7956  -30.7302   24.2245 H   0  0  0  0  0  0
  -17.5038  -31.6278   24.5169 H   0  0  0  0  0  0
  -15.5369  -30.3008   23.7678 H   0  0  0  0  0  0
  -15.8688  -28.0832   22.7105 H   0  0  0  0  0  0
  -24.5926  -30.7068   25.7668 H   0  0  0  0  0  0
  -24.8844  -32.2953   26.4614 H   0  0  0  0  0  0
  -25.7978  -30.9055   27.0197 H   0  0  0  0  0  0
  -26.2971  -29.6654   24.1304 H   0  0  0  0  0  0
  -27.3983  -29.7243   25.4861 H   0  0  0  0  0  0
  -27.8905  -30.4135   23.9593 H   0  0  0  0  0  0
  -27.2660  -33.3649   26.1926 H   0  0  0  0  0  0
  -28.3941  -32.6776   25.0329 H   0  0  0  0  0  0
  -28.0647  -31.8489   26.5475 H   0  0  0  0  0  0
  -28.2587  -38.0085   24.7519 H   0  0  0  0  0  0
  -28.1091  -36.2616   24.6283 H   0  0  0  0  0  0
  -27.2289  -37.1418   25.8866 H   0  0  0  0  0  0
  -20.9454  -29.8746   21.6744 H   0  0  0  0  0  0
  -26.0135  -38.2798   24.1412 H   0  0  0  0  0  0
  -30.7835  -17.0351   22.4839 H   0  0  0  0  0  0
  -30.8008  -19.1689   23.6193 H   0  0  0  0  0  0
  -28.7509  -18.9795   19.1895 H   0  0  0  0  0  0
  -32.6054  -21.0438   22.4407 H   0  0  0  0  0  0
  -32.9302  -22.7757   22.3517 H   0  0  0  0  0  0
  -31.9022  -22.0138   21.1329 H   0  0  0  0  0  0
  -29.7259  -16.9298   16.6906 H   0  0  0  0  0  0
  -31.1101  -16.4157   17.6432 H   0  0  0  0  0  0
  -30.3871  -17.9928   17.9183 H   0  0  0  0  0  0
  -27.8511  -21.1046   23.4983 H   0  0  0  0  0  0
  -28.4527  -22.6899   23.9625 H   0  0  0  0  0  0
  -28.9751  -21.2583   24.8483 H   0  0  0  0  0  0
  -28.9880  -15.3093   18.3380 H   0  0  0  0  0  0
  -28.2405  -16.8124   18.7197 H   0  0  0  0  0  0
  -26.9436  -24.3486   20.2873 H   0  0  0  0  0  0
  -28.0031  -24.4295   18.9319 H   0  0  0  0  0  0
  -28.5468  -23.1834   21.6792 H   0  0  0  0  0  0
  -29.8677  -23.3873   20.5752 H   0  0  0  0  0  0
  1 25  1  0  0  0
  1 30  2  0  0  0
  1 85  1  0  0  0
  2  3  1  0  0  0
  2 25  1  0  0  0
  2 88  1  0  0  0
  2 89  1  0  0  0
  3  4  1  0  0  0
  3 90  1  0  0  0
  3 91  1  0  0  0
  4  5  1  0  0  0
  4 92  1  0  0  0
  4 93  1  0  0  0
  5  6  1  0  0  0
  5 26  1  0  0  0
  5 94  1  0  0  0
  6 25  1  0  0  0
  6 95  1  0  0  0
  6 96  1  0  0  0
  7  8  2  0  0  0
  7 26  1  0  0  0
  7 29  1  0  0  0
  8  9  1  0  0  0
  8 22  1  0  0  0
  9 10  1  0  0  0
  9 27  2  0  0  0
 10 11  2  0  0  0
 10 15  1  0  0  0
 11 12  1  0  0  0
 11 97  1  0  0  0
 12 13  2  0  0  0
 12 98  1  0  0  0
 13 14  1  0  0  0
 13 31  1  0  0  0
 14 15  2  0  0  0
 14 99  1  0  0  0
 15100  1  0  0  0
 16 17  2  0  0  0
 16 21  1  0  0  0
 16 31  1  0  0  0
 17 18  1  0  0  0
 17101  1  0  0  0
 18 19  2  0  0  0
 18102  1  0  0  0
 19 20  1  0  0  0
 19 24  1  0  0  0
 20 21  2  0  0  0
 20103  1  0  0  0
 21 23  1  0  0  0
 22 28  1  0  0  0
 22 32  2  0  0  0
 26 27  1  0  0  0
 28104  1  0  0  0
 28105  1  0  0  0
 29106  1  0  0  0
 29107  1  0  0  0
 33 34  1  0  0  0
 33 66  1  0  0  0
 33 70  2  0  0  0
 34 36  1  0  0  0
 34 59  1  0  0  0
 34108  1  0  0  0
 35 44  2  0  0  0
 35 45  1  0  0  0
 35 68  1  0  0  0
 36 56  1  0  0  0
 36109  1  0  0  0
 37 39  1  0  0  0
 37 47  1  0  0  0
 37 66  1  0  0  0
 37110  1  0  0  0
 38 43  2  0  0  0
 38 46  1  0  0  0
 38 47  1  0  0  0
 39 64  1  0  0  0
 39 67  2  0  0  0
 40 52  1  0  0  0
 40 53  2  0  0  0
 40 58  1  0  0  0
 41111  1  0  0  0
 41112  1  0  0  0
 41113  1  0  0  0
 41 48  1  0  0  0
 42 43  1  0  0  0
 42 66  1  0  0  0
 42114  1  0  0  0
 42115  1  0  0  0
 43 44  1  0  0  0
 44116  1  0  0  0
 45 46  2  0  0  0
 45117  1  0  0  0
 46118  1  0  0  0
 47119  1  0  0  0
 47120  1  0  0  0
 48 56  1  0  0  0
 48 65  1  0  0  0
 48121  1  0  0  0
 49 50  1  0  0  0
 49 53  1  0  0  0
 49 64  1  0  0  0
 49122  1  0  0  0
 50 51  1  0  0  0
 50123  1  0  0  0
 50124  1  0  0  0
 51 52  1  0  0  0
 51125  1  0  0  0
 51126  1  0  0  0
 52127  1  0  0  0
 52128  1  0  0  0
 53 54  1  0  0  0
 54 55  2  0  0  0
 54129  1  0  0  0
 55 57  1  0  0  0
 55130  1  0  0  0
 56 69  2  0  0  0
 57 58  2  0  0  0
 57131  1  0  0  0
 58132  1  0  0  0
 59 60  1  0  0  0
 59 61  1  0  0  0
 59 62  1  0  0  0
 60133  1  0  0  0
 60134  1  0  0  0
 60135  1  0  0  0
 61136  1  0  0  0
 61137  1  0  0  0
 61138  1  0  0  0
 62139  1  0  0  0
 62140  1  0  0  0
 62141  1  0  0  0
 63 65  1  0  0  0
 63142  1  0  0  0
 63143  1  0  0  0
 63144  1  0  0  0
 64145  1  0  0  0
 65146  1  0  0  0
 68 82  1  0  0  0
 71 72  2  0  0  0
 71 74  1  0  0  0
 71147  1  0  0  0
 72 75  1  0  0  0
 72148  1  0  0  0
 73 74  2  0  0  0
 73 76  1  0  0  0
 73149  1  0  0  0
 74 85  1  0  0  0
 75 76  2  0  0  0
 75 84  1  0  0  0
 76 87  1  0  0  0
 77 78  1  0  0  0
 77 84  1  0  0  0
 77 86  2  0  0  0
 78150  1  0  0  0
 78151  1  0  0  0
 78152  1  0  0  0
 79 81  1  0  0  0
 79153  1  0  0  0
 79154  1  0  0  0
 79155  1  0  0  0
 80 84  1  0  0  0
 80156  1  0  0  0
 80157  1  0  0  0
 80158  1  0  0  0
 81 85  1  0  0  0
 81159  1  0  0  0
 81160  1  0  0  0
 82 83  1  0  0  0
 82161  1  0  0  0
 82162  1  0  0  0
 83 87  1  0  0  0
 83163  1  0  0  0
 83164  1  0  0  0
M  ISO  4   1 100  68 101  82 101  85 100
M  END
> <chiral flag>
0

> <version>
0

> <s_m_source_file>
/data/baiqing/PycharmProjects/Reinvent-master-3.2/result/LINK_invent/BTK/process_docking_weight1_custom_sum_contain_oxygen_bond_distance_aromatic_linkinvent_7_9_3/rearranged_h_0008.sdf

> <i_m_source_file_index>
55

> <r_mmod_Potential_Energy-OPLS-2005>
928.53271484375

> <r_mmod_Stretch_Energy-OPLS-2005>
340.014068603516

> <r_mmod_Bend_Energy-OPLS-2005>
305.170593261719

> <r_mmod_Torsional_Energy-OPLS-2005>
350.5322265625

> <r_mmod_Improper_Torsional_Energy-OPLS-2005>
14.4256954193115

> <r_mmod_Van_der_Waal_Energy-OPLS-2005>
145.107284545898

> <r_mmod_Electrostatic_Energy-OPLS-2005>
-290.205932617188

> <r_mmod_Solvation_Energy-OPLS-2005>
-209.158599853516

> <b_mmod_Minimization_Converged-OPLS-2005>
0

> <r_mmod_RMS_Derivative-OPLS-2005>
2.32965636253357

$$$$
55
                    3D
 Structure written by MMmdl.
151159  0  0  1  0            999 V2000
  -30.5435  -14.9766   20.3489 C   0  0  0  0  0  0
  -30.4457  -12.5918   19.4760 C   0  0  0  0  0  0
  -29.5101  -12.4287   18.2524 C   0  0  0  0  0  0
  -28.0421  -12.2690   18.6863 C   0  0  0  0  0  0
  -27.6238  -13.2389   19.8230 C   0  0  2  0  0  0
  -28.6788  -13.3146   20.9439 C   0  0  0  0  0  0
  -25.2481  -13.8214   20.5745 C   0  0  0  0  0  0
  -24.1778  -13.0450   20.9242 C   0  0  0  0  0  0
  -24.6377  -11.6929   20.8787 C   0  0  0  0  0  0
  -23.9064  -10.4298   21.0426 C   0  0  0  0  0  0
  -24.3617   -9.4208   21.9195 C   0  0  0  0  0  0
  -23.6294   -8.2241   22.0756 C   0  0  0  0  0  0
  -22.4277   -8.0281   21.3545 C   0  0  0  0  0  0
  -21.9915   -9.0257   20.4649 C   0  0  0  0  0  0
  -22.7242  -10.2138   20.3066 C   0  0  0  0  0  0
  -21.6853   -6.0736   22.5278 C   0  0  0  0  0  0
  -21.4014   -6.5640   23.8211 C   0  0  0  0  0  0
  -21.3659   -5.6793   24.9174 C   0  0  0  0  0  0
  -21.6044   -4.3056   24.7225 C   0  0  0  0  0  0
  -21.8819   -3.8147   23.4346 C   0  0  0  0  0  0
  -21.9192   -4.6963   22.3402 C   0  0  0  0  0  0
  -22.7798  -13.5225   21.1883 C   0  0  0  0  0  0
  -22.1661   -4.2149   21.0980 F   0  0  0  0  0  0
  -21.5628   -3.4540   25.7738 F   0  0  0  0  0  0
  -29.9358  -13.7198   20.3030 N   0  0  0  0  0  0
  -26.2884  -12.9421   20.3276 N   0  0  0  0  0  0
  -25.9309  -11.6566   20.5809 N   0  0  0  0  0  0
  -22.0444  -12.8211   22.0434 N   0  0  0  0  0  0
  -25.4197  -15.1938   20.4181 N   0  0  0  0  0  0
  -31.7800  -14.9885   20.3132 O   0  0  0  0  0  0
  -21.6641   -6.8878   21.4239 O   0  0  0  0  0  0
  -22.3484  -14.5526   20.6721 O   0  0  0  0  0  0
  -24.6426  -31.8445   23.1879 C   0  0  0  0  0  0
  -25.9200  -32.4698   23.8271 C   0  0  1  0  0  0
  -27.2178  -27.1425   20.1637 C   0  0  0  0  0  0
  -25.5949  -33.8503   24.2190 N   0  0  0  0  0  0
  -23.4464  -30.4625   21.5335 C   0  0  2  0  0  0
  -24.8968  -28.8853   20.1156 C   0  0  0  0  0  0
  -22.7564  -29.4548   22.4866 C   0  0  0  0  0  0
  -18.0303  -28.1395   22.8478 C   0  0  0  0  0  0
  -24.1491  -36.7257   23.2643 C   0  0  0  0  0  0
  -26.0011  -30.7214   21.3846 C   0  0  0  0  0  0
  -26.0742  -29.3309   20.7312 C   0  0  0  0  0  0
  -27.2399  -28.4772   20.7333 C   0  0  0  0  0  0
  -26.0167  -26.7914   19.5143 C   0  0  0  0  0  0
  -24.8799  -27.6284   19.4908 C   0  0  0  0  0  0
  -23.6735  -29.7880   20.1544 C   0  0  0  0  0  0
  -25.4124  -36.3034   24.0316 C   0  0  1  0  0  0
  -20.5915  -28.3720   23.1239 C   0  0  2  0  0  0
  -20.6788  -26.9425   22.5405 C   0  0  0  0  0  0
  -19.5762  -26.6382   21.5213 C   0  0  0  0  0  0
  -18.1943  -26.7934   22.1624 C   0  0  0  0  0  0
  -19.1560  -28.8876   23.2850 C   0  0  0  0  0  0
  -18.9476  -30.1472   23.8875 C   0  0  0  0  0  0
  -17.6473  -30.6592   24.0559 C   0  0  0  0  0  0
  -25.9072  -34.9409   23.5062 C   0  0  0  0  0  0
  -16.5364  -29.9084   23.6336 C   0  0  0  0  0  0
  -16.7288  -28.6503   23.0357 C   0  0  0  0  0  0
  -26.4525  -31.6564   25.0710 C   0  0  0  0  0  0
  -25.3711  -31.3749   26.1406 C   0  0  0  0  0  0
  -27.0392  -30.2963   24.6284 C   0  0  0  0  0  0
  -27.6053  -32.4332   25.7498 C   0  0  0  0  0  0
  -27.5574  -37.1787   24.8467 C   0  0  0  0  0  0
  -21.4257  -29.3047   22.3613 N   0  0  0  0  0  0
  -26.4289  -37.3745   23.9405 N   0  0  0  0  0  0
  -24.7165  -31.0306   22.0908 N   0  0  0  0  0  0
  -23.4207  -28.8100   23.3020 O   0  0  0  0  0  0
  -28.2718  -26.1638   20.1718 O   0  0  0  0  0  0
  -26.5660  -34.8906   22.4642 O   0  0  0  0  0  0
  -23.5546  -32.1316   23.7103 O   0  0  0  0  0  0
  -29.8057  -19.7877   21.4402 C   0  0  0  0  0  0
  -28.6766  -19.9024   19.3840 C   0  0  0  0  0  0
  -30.0505  -18.3549   21.2633 C   0  0  0  0  0  0
  -28.8936  -18.4757   19.2259 C   0  0  0  0  0  0
  -29.1230  -20.6591   20.5081 C   0  0  0  0  0  0
  -29.6182  -17.5945   20.1231 C   0  0  0  0  0  0
  -28.6017  -23.3317   20.0569 C   0  0  0  0  0  0
  -29.8035  -15.9013   18.3093 C   0  0  0  0  0  0
  -28.0311  -24.7353   20.7364 C   0  0  0  0  0  0
  -28.8124  -22.1367   20.7965 N   0  0  0  0  0  0
  -29.8501  -16.0966   19.7757 N   0  0  0  0  0  0
  -28.8294  -23.3396   18.8442 O   0  0  0  0  0  0
  -31.4673  -12.7715   19.1371 H   0  0  0  0  0  0
  -30.4797  -11.6734   20.0640 H   0  0  0  0  0  0
  -29.8151  -11.5569   17.6720 H   0  0  0  0  0  0
  -29.5925  -13.2667   17.5667 H   0  0  0  0  0  0
  -27.9270  -11.2400   19.0281 H   0  0  0  0  0  0
  -27.3773  -12.3769   17.8284 H   0  0  0  0  0  0
  -27.5697  -14.2252   19.3640 H   0  0  0  0  0  0
  -28.7828  -12.3595   21.4606 H   0  0  0  0  0  0
  -28.3860  -14.0519   21.6934 H   0  0  0  0  0  0
  -25.2758   -9.5684   22.4776 H   0  0  0  0  0  0
  -24.0002   -7.4631   22.7474 H   0  0  0  0  0  0
  -21.0848   -8.8778   19.8952 H   0  0  0  0  0  0
  -22.3700  -10.9682   19.6181 H   0  0  0  0  0  0
  -21.2008   -7.6148   23.9714 H   0  0  0  0  0  0
  -21.1481   -6.0524   25.9076 H   0  0  0  0  0  0
  -22.0598   -2.7609   23.2847 H   0  0  0  0  0  0
  -22.4066  -11.9877   22.4826 H   0  0  0  0  0  0
  -21.1058  -13.1229   22.2634 H   0  0  0  0  0  0
  -24.6600  -15.8539   20.5435 H   0  0  0  0  0  0
  -26.2841  -15.6345   20.1287 H   0  0  0  0  0  0
  -26.7267  -32.5311   23.1002 H   0  0  0  0  0  0
  -25.0073  -33.9618   25.0322 H   0  0  0  0  0  0
  -22.7487  -31.2878   21.3772 H   0  0  0  0  0  0
  -23.3756  -35.9587   23.3299 H   0  0  0  0  0  0
  -24.3574  -36.8896   22.2059 H   0  0  0  0  0  0
  -23.7246  -37.6451   23.6685 H   0  0  0  0  0  0
  -26.1532  -31.4740   20.6097 H   0  0  0  0  0  0
  -26.8727  -30.7752   22.0253 H   0  0  0  0  0  0
  -28.1418  -28.8173   21.2226 H   0  0  0  0  0  0
  -25.9452  -25.8266   19.0322 H   0  0  0  0  0  0
  -23.9816  -27.2822   18.9981 H   0  0  0  0  0  0
  -23.8109  -30.5603   19.3968 H   0  0  0  0  0  0
  -22.7885  -29.2292   19.8446 H   0  0  0  0  0  0
  -25.1313  -36.1863   25.0808 H   0  0  0  0  0  0
  -21.0006  -28.3310   24.1360 H   0  0  0  0  0  0
  -20.5682  -26.2334   23.3623 H   0  0  0  0  0  0
  -21.6654  -26.7432   22.1202 H   0  0  0  0  0  0
  -19.6924  -25.6287   21.1256 H   0  0  0  0  0  0
  -19.6699  -27.3180   20.6733 H   0  0  0  0  0  0
  -17.4212  -26.6677   21.4028 H   0  0  0  0  0  0
  -18.0343  -26.0080   22.9025 H   0  0  0  0  0  0
  -19.7952  -30.7294   24.2235 H   0  0  0  0  0  0
  -17.5026  -31.6270   24.5164 H   0  0  0  0  0  0
  -15.5363  -30.2979   23.7673 H   0  0  0  0  0  0
  -15.8688  -28.0814   22.7086 H   0  0  0  0  0  0
  -24.5897  -30.7090   25.7725 H   0  0  0  0  0  0
  -24.8892  -32.2930   26.4778 H   0  0  0  0  0  0
  -25.7995  -30.8958   27.0218 H   0  0  0  0  0  0
  -26.3010  -29.6683   24.1285 H   0  0  0  0  0  0
  -27.4005  -29.7264   25.4855 H   0  0  0  0  0  0
  -27.8915  -30.4204   23.9600 H   0  0  0  0  0  0
  -27.2643  -33.3651   26.2021 H   0  0  0  0  0  0
  -28.3893  -32.6863   25.0350 H   0  0  0  0  0  0
  -28.0688  -31.8494   26.5461 H   0  0  0  0  0  0
  -28.2591  -38.0084   24.7502 H   0  0  0  0  0  0
  -28.1071  -36.2612   24.6311 H   0  0  0  0  0  0
  -27.2288  -37.1454   25.8870 H   0  0  0  0  0  0
  -20.9468  -29.8755   21.6786 H   0  0  0  0  0  0
  -26.0156  -38.2815   24.1401 H   0  0  0  0  0  0
  -30.1735  -20.2314   22.3546 H   0  0  0  0  0  0
  -28.1112  -20.4146   18.6182 H   0  0  0  0  0  0
  -30.5988  -17.8400   22.0393 H   0  0  0  0  0  0
  -28.4534  -18.0580   18.3330 H   0  0  0  0  0  0
  -28.7961  -15.6487   17.9788 H   0  0  0  0  0  0
  -30.4894  -15.1413   17.9332 H   0  0  0  0  0  0
  -30.1312  -16.7864   17.7645 H   0  0  0  0  0  0
  -28.4157  -24.7545   21.7561 H   0  0  0  0  0  0
  -26.9572  -24.5903   20.8527 H   0  0  0  0  0  0
  -28.7292  -22.3238   21.7872 H   0  0  0  0  0  0
  1 25  1  0  0  0
  1 30  2  0  0  0
  1 81  1  0  0  0
  2  3  1  0  0  0
  2 25  1  0  0  0
  2 83  1  0  0  0
  2 84  1  0  0  0
  3  4  1  0  0  0
  3 85  1  0  0  0
  3 86  1  0  0  0
  4  5  1  0  0  0
  4 87  1  0  0  0
  4 88  1  0  0  0
  5  6  1  0  0  0
  5 26  1  0  0  0
  5 89  1  0  0  0
  6 25  1  0  0  0
  6 90  1  0  0  0
  6 91  1  0  0  0
  7  8  2  0  0  0
  7 26  1  0  0  0
  7 29  1  0  0  0
  8  9  1  0  0  0
  8 22  1  0  0  0
  9 10  1  0  0  0
  9 27  2  0  0  0
 10 11  2  0  0  0
 10 15  1  0  0  0
 11 12  1  0  0  0
 11 92  1  0  0  0
 12 13  2  0  0  0
 12 93  1  0  0  0
 13 14  1  0  0  0
 13 31  1  0  0  0
 14 15  2  0  0  0
 14 94  1  0  0  0
 15 95  1  0  0  0
 16 17  2  0  0  0
 16 21  1  0  0  0
 16 31  1  0  0  0
 17 18  1  0  0  0
 17 96  1  0  0  0
 18 19  2  0  0  0
 18 97  1  0  0  0
 19 20  1  0  0  0
 19 24  1  0  0  0
 20 21  2  0  0  0
 20 98  1  0  0  0
 21 23  1  0  0  0
 22 28  1  0  0  0
 22 32  2  0  0  0
 26 27  1  0  0  0
 28 99  1  0  0  0
 28100  1  0  0  0
 29101  1  0  0  0
 29102  1  0  0  0
 33 34  1  0  0  0
 33 66  1  0  0  0
 33 70  2  0  0  0
 34 36  1  0  0  0
 34 59  1  0  0  0
 34103  1  0  0  0
 35 44  2  0  0  0
 35 45  1  0  0  0
 35 68  1  0  0  0
 36 56  1  0  0  0
 36104  1  0  0  0
 37 39  1  0  0  0
 37 47  1  0  0  0
 37 66  1  0  0  0
 37105  1  0  0  0
 38 43  2  0  0  0
 38 46  1  0  0  0
 38 47  1  0  0  0
 39 64  1  0  0  0
 39 67  2  0  0  0
 40 52  1  0  0  0
 40 53  2  0  0  0
 40 58  1  0  0  0
 41106  1  0  0  0
 41107  1  0  0  0
 41108  1  0  0  0
 41 48  1  0  0  0
 42 43  1  0  0  0
 42 66  1  0  0  0
 42109  1  0  0  0
 42110  1  0  0  0
 43 44  1  0  0  0
 44111  1  0  0  0
 45 46  2  0  0  0
 45112  1  0  0  0
 46113  1  0  0  0
 47114  1  0  0  0
 47115  1  0  0  0
 48 56  1  0  0  0
 48 65  1  0  0  0
 48116  1  0  0  0
 49 50  1  0  0  0
 49 53  1  0  0  0
 49 64  1  0  0  0
 49117  1  0  0  0
 50 51  1  0  0  0
 50118  1  0  0  0
 50119  1  0  0  0
 51 52  1  0  0  0
 51120  1  0  0  0
 51121  1  0  0  0
 52122  1  0  0  0
 52123  1  0  0  0
 53 54  1  0  0  0
 54 55  2  0  0  0
 54124  1  0  0  0
 55 57  1  0  0  0
 55125  1  0  0  0
 56 69  2  0  0  0
 57 58  2  0  0  0
 57126  1  0  0  0
 58127  1  0  0  0
 59 60  1  0  0  0
 59 61  1  0  0  0
 59 62  1  0  0  0
 60128  1  0  0  0
 60129  1  0  0  0
 60130  1  0  0  0
 61131  1  0  0  0
 61132  1  0  0  0
 61133  1  0  0  0
 62134  1  0  0  0
 62135  1  0  0  0
 62136  1  0  0  0
 63 65  1  0  0  0
 63137  1  0  0  0
 63138  1  0  0  0
 63139  1  0  0  0
 64140  1  0  0  0
 65141  1  0  0  0
 68 79  1  0  0  0
 71 73  2  0  0  0
 71 75  1  0  0  0
 71142  1  0  0  0
 72 74  1  0  0  0
 72 75  2  0  0  0
 72143  1  0  0  0
 73 76  1  0  0  0
 73144  1  0  0  0
 74 76  2  0  0  0
 74145  1  0  0  0
 75 80  1  0  0  0
 76 81  1  0  0  0
 77 79  1  0  0  0
 77 80  1  0  0  0
 77 82  2  0  0  0
 78 81  1  0  0  0
 78146  1  0  0  0
 78147  1  0  0  0
 78148  1  0  0  0
 79149  1  0  0  0
 79150  1  0  0  0
 80151  1  0  0  0
M  ISO  4   1 100  68 101  79 101  81 100
M  END
> <chiral flag>
0

> <version>
0

> <s_m_source_file>
/data/baiqing/PycharmProjects/Reinvent-master-3.2/result/LINK_invent/BTK/process_docking_weight1_custom_sum_contain_oxygen_bond_distance_aromatic_linkinvent_7_9_3/rearranged_h_0008.sdf

> <i_m_source_file_index>
56

> <r_mmod_Potential_Energy-OPLS-2005>
683.92822265625

> <r_mmod_Stretch_Energy-OPLS-2005>
239.201324462891

> <r_mmod_Bend_Energy-OPLS-2005>
274.961578369141

> <r_mmod_Torsional_Energy-OPLS-2005>
330.34619140625

> <r_mmod_Improper_Torsional_Energy-OPLS-2005>
27.5296878814697

> <r_mmod_Van_der_Waal_Energy-OPLS-2005>
141.905746459961

> <r_mmod_Electrostatic_Energy-OPLS-2005>
-310.557312011719

> <r_mmod_Solvation_Energy-OPLS-2005>
-229.201797485352

> <b_mmod_Minimization_Converged-OPLS-2005>
0

> <r_mmod_RMS_Derivative-OPLS-2005>
0.0859675332903862

$$$$
56
                    3D
 Structure written by MMmdl.
163171  0  0  1  0            999 V2000
  -30.7221  -14.4123   20.4823 C   0  0  0  0  0  0
  -30.4180  -12.2359   19.4309 C   0  0  0  0  0  0
  -29.4978  -12.4240   18.2071 C   0  0  0  0  0  0
  -28.0120  -12.3357   18.6179 C   0  0  0  0  0  0
  -27.6619  -13.1987   19.8616 C   0  0  2  0  0  0
  -28.7045  -13.0024   20.9884 C   0  0  0  0  0  0
  -25.2589  -13.8159   20.5654 C   0  0  0  0  0  0
  -24.1825  -13.0447   20.9185 C   0  0  0  0  0  0
  -24.6383  -11.6918   20.8741 C   0  0  0  0  0  0
  -23.9057  -10.4303   21.0416 C   0  0  0  0  0  0
  -24.3614   -9.4206   21.9184 C   0  0  0  0  0  0
  -23.6295   -8.2234   22.0757 C   0  0  0  0  0  0
  -22.4273   -8.0279   21.3553 C   0  0  0  0  0  0
  -21.9912   -9.0257   20.4667 C   0  0  0  0  0  0
  -22.7229  -10.2137   20.3065 C   0  0  0  0  0  0
  -21.6847   -6.0746   22.5271 C   0  0  0  0  0  0
  -21.4015   -6.5647   23.8212 C   0  0  0  0  0  0
  -21.3654   -5.6789   24.9172 C   0  0  0  0  0  0
  -21.6037   -4.3049   24.7216 C   0  0  0  0  0  0
  -21.8813   -3.8150   23.4332 C   0  0  0  0  0  0
  -21.9183   -4.6979   22.3390 C   0  0  0  0  0  0
  -22.7839  -13.5249   21.1820 C   0  0  0  0  0  0
  -22.1636   -4.2171   21.0971 F   0  0  0  0  0  0
  -21.5645   -3.4538   25.7728 F   0  0  0  0  0  0
  -30.0407  -13.2456   20.4242 N   0  0  0  0  0  0
  -26.3027  -12.9330   20.3324 N   0  0  0  0  0  0
  -25.9307  -11.6503   20.5774 N   0  0  0  0  0  0
  -22.0461  -12.8290   22.0393 N   0  0  0  0  0  0
  -25.4285  -15.1882   20.4032 N   0  0  0  0  0  0
  -31.9136  -14.5291   20.1866 O   0  0  0  0  0  0
  -21.6627   -6.8879   21.4236 O   0  0  0  0  0  0
  -22.3528  -14.5552   20.6639 O   0  0  0  0  0  0
  -24.6058  -31.8737   23.2149 C   0  0  0  0  0  0
  -25.8984  -32.4855   23.8421 C   0  0  1  0  0  0
  -27.2390  -27.5030   20.0850 C   0  0  0  0  0  0
  -25.5871  -33.8653   24.2355 N   0  0  0  0  0  0
  -23.3888  -30.4982   21.5528 C   0  0  2  0  0  0
  -24.8332  -28.9715   20.1131 C   0  0  0  0  0  0
  -22.7363  -29.4688   22.5014 C   0  0  0  0  0  0
  -18.0257  -28.1373   22.8494 C   0  0  0  0  0  0
  -24.1483  -36.7334   23.2639 C   0  0  0  0  0  0
  -25.9083  -30.8589   21.3573 C   0  0  0  0  0  0
  -25.9838  -29.4969   20.7097 C   0  0  0  0  0  0
  -27.1811  -28.7634   20.7039 C   0  0  0  0  0  0
  -26.0692  -26.9687   19.4918 C   0  0  0  0  0  0
  -24.8678  -27.7022   19.5070 C   0  0  0  0  0  0
  -23.5931  -29.8311   20.1644 C   0  0  0  0  0  0
  -25.4101  -36.3135   24.0346 C   0  0  1  0  0  0
  -20.5843  -28.3649   23.1331 C   0  0  2  0  0  0
  -20.6747  -26.9394   22.5420 C   0  0  0  0  0  0
  -19.5732  -26.6385   21.5210 C   0  0  0  0  0  0
  -18.1907  -26.7918   22.1620 C   0  0  0  0  0  0
  -19.1507  -28.8824   23.2911 C   0  0  0  0  0  0
  -18.9445  -30.1430   23.8927 C   0  0  0  0  0  0
  -17.6455  -30.6583   24.0567 C   0  0  0  0  0  0
  -25.9022  -34.9500   23.5144 C   0  0  0  0  0  0
  -16.5342  -29.9097   23.6319 C   0  0  0  0  0  0
  -16.7254  -28.6507   23.0346 C   0  0  0  0  0  0
  -26.4449  -31.6613   25.0722 C   0  0  0  0  0  0
  -25.3748  -31.3712   26.1501 C   0  0  0  0  0  0
  -27.0254  -30.3058   24.6048 C   0  0  0  0  0  0
  -27.6037  -32.4328   25.7469 C   0  0  0  0  0  0
  -27.5585  -37.1818   24.8467 C   0  0  0  0  0  0
  -21.4101  -29.3027   22.3747 N   0  0  0  0  0  0
  -26.4293  -37.3812   23.9415 N   0  0  0  0  0  0
  -24.6522  -31.0912   22.1010 N   0  0  0  0  0  0
  -23.4170  -28.8225   23.3027 O   0  0  0  0  0  0
  -28.4552  -26.8751   20.1399 O   0  0  0  0  0  0
  -26.5585  -34.8937   22.4708 O   0  0  0  0  0  0
  -23.5271  -32.1462   23.7596 O   0  0  0  0  0  0
  -30.0753  -16.4286   18.2956 C   0  0  0  0  0  0
  -30.8399  -18.7023   17.9520 C   0  0  0  0  0  0
  -30.5715  -17.8381   20.2251 C   0  0  0  0  0  0
  -30.4217  -17.4720   17.4150 C   0  0  0  0  0  0
  -30.1857  -16.5931   19.6958 C   0  0  0  0  0  0
  -30.8832  -18.9036   19.3539 C   0  0  0  0  0  0
  -30.4414  -21.2538   19.5273 C   0  0  0  0  0  0
  -32.2068  -20.2763   20.9445 C   0  0  0  0  0  0
  -30.8073  -22.6439   20.0616 C   0  0  0  0  0  0
  -30.2514  -23.7967   19.1985 C   0  0  0  0  0  0
  -29.6852  -24.9239   20.0520 C   0  0  0  0  0  0
  -28.8017  -25.8556   19.2320 C   0  0  0  0  0  0
  -30.3227  -17.2900   15.9068 C   0  0  0  0  0  0
  -29.9469  -15.4985   20.5604 N   0  0  0  0  0  0
  -31.1959  -20.1852   19.8853 N   0  0  0  0  0  0
  -29.4442  -21.1392   18.8015 O   0  0  0  0  0  0
  -30.3506  -16.0004   15.5676 F   0  0  0  0  0  0
  -29.1810  -17.8182   15.4664 F   0  0  0  0  0  0
  -31.3390  -17.9002   15.2975 F   0  0  0  0  0  0
  -31.4671  -12.3041   19.1351 H   0  0  0  0  0  0
  -30.2919  -11.2391   19.8558 H   0  0  0  0  0  0
  -29.7191  -11.6591   17.4608 H   0  0  0  0  0  0
  -29.6983  -13.3738   17.7179 H   0  0  0  0  0  0
  -27.8005  -11.2884   18.8285 H   0  0  0  0  0  0
  -27.3717  -12.6032   17.7783 H   0  0  0  0  0  0
  -27.7012  -14.2386   19.5366 H   0  0  0  0  0  0
  -28.6576  -11.9865   21.3856 H   0  0  0  0  0  0
  -28.4988  -13.6645   21.8323 H   0  0  0  0  0  0
  -25.2775   -9.5694   22.4743 H   0  0  0  0  0  0
  -24.0015   -7.4637   22.7479 H   0  0  0  0  0  0
  -21.0838   -8.8782   19.8980 H   0  0  0  0  0  0
  -22.3695  -10.9674   19.6171 H   0  0  0  0  0  0
  -21.2003   -7.6155   23.9732 H   0  0  0  0  0  0
  -21.1484   -6.0516   25.9081 H   0  0  0  0  0  0
  -22.0602   -2.7622   23.2817 H   0  0  0  0  0  0
  -22.4068  -11.9984   22.4847 H   0  0  0  0  0  0
  -21.1077  -13.1339   22.2568 H   0  0  0  0  0  0
  -24.6624  -15.8418   20.5240 H   0  0  0  0  0  0
  -26.2764  -15.6303   20.0732 H   0  0  0  0  0  0
  -26.7059  -32.5592   23.1197 H   0  0  0  0  0  0
  -25.0037  -33.9823   25.0505 H   0  0  0  0  0  0
  -22.6733  -31.3129   21.4191 H   0  0  0  0  0  0
  -23.3738  -35.9675   23.3322 H   0  0  0  0  0  0
  -24.3580  -36.8922   22.2050 H   0  0  0  0  0  0
  -23.7238  -37.6550   23.6632 H   0  0  0  0  0  0
  -26.0115  -31.6259   20.5881 H   0  0  0  0  0  0
  -26.7992  -30.9151   21.9703 H   0  0  0  0  0  0
  -28.0704  -29.1701   21.1663 H   0  0  0  0  0  0
  -26.0467  -25.9943   19.0299 H   0  0  0  0  0  0
  -23.9792  -27.2879   19.0517 H   0  0  0  0  0  0
  -23.6962  -30.6079   19.4058 H   0  0  0  0  0  0
  -22.7185  -29.2488   19.8703 H   0  0  0  0  0  0
  -25.1269  -36.2019   25.0839 H   0  0  0  0  0  0
  -20.9941  -28.3222   24.1449 H   0  0  0  0  0  0
  -20.5644  -26.2270   23.3608 H   0  0  0  0  0  0
  -21.6621  -26.7443   22.1218 H   0  0  0  0  0  0
  -19.6893  -25.6301   21.1224 H   0  0  0  0  0  0
  -19.6662  -27.3211   20.6750 H   0  0  0  0  0  0
  -17.4178  -26.6672   21.4018 H   0  0  0  0  0  0
  -18.0306  -26.0051   22.9012 H   0  0  0  0  0  0
  -19.7929  -30.7223   24.2324 H   0  0  0  0  0  0
  -17.5020  -31.6267   24.5163 H   0  0  0  0  0  0
  -15.5348  -30.3017   23.7615 H   0  0  0  0  0  0
  -15.8649  -28.0837   22.7052 H   0  0  0  0  0  0
  -24.5914  -30.7051   25.7868 H   0  0  0  0  0  0
  -24.8949  -32.2871   26.4966 H   0  0  0  0  0  0
  -25.8139  -30.8892   27.0246 H   0  0  0  0  0  0
  -26.2764  -29.6847   24.1123 H   0  0  0  0  0  0
  -27.4060  -29.7266   25.4471 H   0  0  0  0  0  0
  -27.8590  -30.4382   23.9144 H   0  0  0  0  0  0
  -27.2649  -33.3606   26.2095 H   0  0  0  0  0  0
  -28.3810  -32.6932   25.0271 H   0  0  0  0  0  0
  -28.0751  -31.8436   26.5346 H   0  0  0  0  0  0
  -28.2618  -38.0101   24.7506 H   0  0  0  0  0  0
  -28.1061  -36.2636   24.6290 H   0  0  0  0  0  0
  -27.2315  -37.1481   25.8873 H   0  0  0  0  0  0
  -20.9251  -29.8775   21.6993 H   0  0  0  0  0  0
  -26.0197  -38.2897   24.1404 H   0  0  0  0  0  0
  -29.7558  -15.4897   17.8806 H   0  0  0  0  0  0
  -31.0881  -19.5070   17.2740 H   0  0  0  0  0  0
  -30.6222  -17.9729   21.2968 H   0  0  0  0  0  0
  -32.6533  -19.3077   21.1715 H   0  0  0  0  0  0
  -31.7751  -20.6661   21.8679 H   0  0  0  0  0  0
  -33.0285  -20.9257   20.6439 H   0  0  0  0  0  0
  -31.8854  -22.7676   20.1500 H   0  0  0  0  0  0
  -30.4052  -22.6878   21.0745 H   0  0  0  0  0  0
  -29.4599  -23.4722   18.5235 H   0  0  0  0  0  0
  -31.0355  -24.1860   18.5480 H   0  0  0  0  0  0
  -30.5020  -25.4776   20.5177 H   0  0  0  0  0  0
  -29.0789  -24.5158   20.8630 H   0  0  0  0  0  0
  -27.9662  -25.2928   18.8236 H   0  0  0  0  0  0
  -29.3565  -26.2907   18.3994 H   0  0  0  0  0  0
  -28.9900  -15.3359   20.8382 H   0  0  0  0  0  0
  1 25  1  0  0  0
  1 30  2  0  0  0
  1 84  1  0  0  0
  2  3  1  0  0  0
  2 25  1  0  0  0
  2 90  1  0  0  0
  2 91  1  0  0  0
  3  4  1  0  0  0
  3 92  1  0  0  0
  3 93  1  0  0  0
  4  5  1  0  0  0
  4 94  1  0  0  0
  4 95  1  0  0  0
  5  6  1  0  0  0
  5 26  1  0  0  0
  5 96  1  0  0  0
  6 25  1  0  0  0
  6 97  1  0  0  0
  6 98  1  0  0  0
  7  8  2  0  0  0
  7 26  1  0  0  0
  7 29  1  0  0  0
  8  9  1  0  0  0
  8 22  1  0  0  0
  9 10  1  0  0  0
  9 27  2  0  0  0
 10 11  2  0  0  0
 10 15  1  0  0  0
 11 12  1  0  0  0
 11 99  1  0  0  0
 12 13  2  0  0  0
 12100  1  0  0  0
 13 14  1  0  0  0
 13 31  1  0  0  0
 14 15  2  0  0  0
 14101  1  0  0  0
 15102  1  0  0  0
 16 17  2  0  0  0
 16 21  1  0  0  0
 16 31  1  0  0  0
 17 18  1  0  0  0
 17103  1  0  0  0
 18 19  2  0  0  0
 18104  1  0  0  0
 19 20  1  0  0  0
 19 24  1  0  0  0
 20 21  2  0  0  0
 20105  1  0  0  0
 21 23  1  0  0  0
 22 28  1  0  0  0
 22 32  2  0  0  0
 26 27  1  0  0  0
 28106  1  0  0  0
 28107  1  0  0  0
 29108  1  0  0  0
 29109  1  0  0  0
 33 34  1  0  0  0
 33 66  1  0  0  0
 33 70  2  0  0  0
 34 36  1  0  0  0
 34 59  1  0  0  0
 34110  1  0  0  0
 35 44  2  0  0  0
 35 45  1  0  0  0
 35 68  1  0  0  0
 36 56  1  0  0  0
 36111  1  0  0  0
 37 39  1  0  0  0
 37 47  1  0  0  0
 37 66  1  0  0  0
 37112  1  0  0  0
 38 43  2  0  0  0
 38 46  1  0  0  0
 38 47  1  0  0  0
 39 64  1  0  0  0
 39 67  2  0  0  0
 40 52  1  0  0  0
 40 53  2  0  0  0
 40 58  1  0  0  0
 41113  1  0  0  0
 41114  1  0  0  0
 41115  1  0  0  0
 41 48  1  0  0  0
 42 43  1  0  0  0
 42 66  1  0  0  0
 42116  1  0  0  0
 42117  1  0  0  0
 43 44  1  0  0  0
 44118  1  0  0  0
 45 46  2  0  0  0
 45119  1  0  0  0
 46120  1  0  0  0
 47121  1  0  0  0
 47122  1  0  0  0
 48 56  1  0  0  0
 48 65  1  0  0  0
 48123  1  0  0  0
 49 50  1  0  0  0
 49 53  1  0  0  0
 49 64  1  0  0  0
 49124  1  0  0  0
 50 51  1  0  0  0
 50125  1  0  0  0
 50126  1  0  0  0
 51 52  1  0  0  0
 51127  1  0  0  0
 51128  1  0  0  0
 52129  1  0  0  0
 52130  1  0  0  0
 53 54  1  0  0  0
 54 55  2  0  0  0
 54131  1  0  0  0
 55 57  1  0  0  0
 55132  1  0  0  0
 56 69  2  0  0  0
 57 58  2  0  0  0
 57133  1  0  0  0
 58134  1  0  0  0
 59 60  1  0  0  0
 59 61  1  0  0  0
 59 62  1  0  0  0
 60135  1  0  0  0
 60136  1  0  0  0
 60137  1  0  0  0
 61138  1  0  0  0
 61139  1  0  0  0
 61140  1  0  0  0
 62141  1  0  0  0
 62142  1  0  0  0
 62143  1  0  0  0
 63 65  1  0  0  0
 63144  1  0  0  0
 63145  1  0  0  0
 63146  1  0  0  0
 64147  1  0  0  0
 65148  1  0  0  0
 68 82  1  0  0  0
 71 74  2  0  0  0
 71 75  1  0  0  0
 71149  1  0  0  0
 72 74  1  0  0  0
 72 76  2  0  0  0
 72150  1  0  0  0
 73 75  2  0  0  0
 73 76  1  0  0  0
 73151  1  0  0  0
 74 83  1  0  0  0
 75 84  1  0  0  0
 76 85  1  0  0  0
 77 79  1  0  0  0
 77 85  1  0  0  0
 77 86  2  0  0  0
 78 85  1  0  0  0
 78152  1  0  0  0
 78153  1  0  0  0
 78154  1  0  0  0
 79 80  1  0  0  0
 79155  1  0  0  0
 79156  1  0  0  0
 80 81  1  0  0  0
 80157  1  0  0  0
 80158  1  0  0  0
 81 82  1  0  0  0
 81159  1  0  0  0
 81160  1  0  0  0
 82161  1  0  0  0
 82162  1  0  0  0
 83 87  1  0  0  0
 83 88  1  0  0  0
 83 89  1  0  0  0
 84163  1  0  0  0
M  ISO  4   1 100  68 101  82 101  84 100
M  END
> <chiral flag>
0

> <version>
0

> <s_m_source_file>
/data/baiqing/PycharmProjects/Reinvent-master-3.2/result/LINK_invent/BTK/process_docking_weight1_custom_sum_contain_oxygen_bond_distance_aromatic_linkinvent_7_9_3/rearranged_h_0008.sdf

> <i_m_source_file_index>
57

> <r_mmod_Potential_Energy-OPLS-2005>
111.455184936523

> <r_mmod_Stretch_Energy-OPLS-2005>
32.0230445861816

> <r_mmod_Bend_Energy-OPLS-2005>
103.79207611084

> <r_mmod_Torsional_Energy-OPLS-2005>
310.395843505859

> <r_mmod_Improper_Torsional_Energy-OPLS-2005>
10.883584022522

> <r_mmod_Van_der_Waal_Energy-OPLS-2005>
181.746643066406

> <r_mmod_Electrostatic_Energy-OPLS-2005>
-331.998168945312

> <r_mmod_Solvation_Energy-OPLS-2005>
-216.505004882812

> <b_mmod_Minimization_Converged-OPLS-2005>
0

> <r_mmod_RMS_Derivative-OPLS-2005>
2.74148440361023

$$$$
57
                    3D
 Structure written by MMmdl.
158166  0  0  1  0            999 V2000
  -30.2483  -15.7796   20.3355 C   0  0  0  0  0  0
  -30.4050  -13.1883   19.5243 C   0  0  0  0  0  0
  -29.5475  -12.6752   18.3273 C   0  0  0  0  0  0
  -28.1332  -12.2884   18.7827 C   0  0  0  0  0  0
  -27.5866  -13.3143   19.8005 C   0  0  2  0  0  0
  -28.5965  -13.7271   20.9016 C   0  0  0  0  0  0
  -25.2287  -13.8288   20.5841 C   0  0  0  0  0  0
  -24.1684  -13.0431   20.9288 C   0  0  0  0  0  0
  -24.6388  -11.6948   20.8756 C   0  0  0  0  0  0
  -23.9085  -10.4289   21.0404 C   0  0  0  0  0  0
  -24.3642   -9.4166   21.9167 C   0  0  0  0  0  0
  -23.6304   -8.2213   22.0749 C   0  0  0  0  0  0
  -22.4277   -8.0270   21.3553 C   0  0  0  0  0  0
  -21.9921   -9.0232   20.4639 C   0  0  0  0  0  0
  -22.7251  -10.2109   20.3034 C   0  0  0  0  0  0
  -21.6862   -6.0712   22.5261 C   0  0  0  0  0  0
  -21.4014   -6.5630   23.8194 C   0  0  0  0  0  0
  -21.3639   -5.6790   24.9180 C   0  0  0  0  0  0
  -21.6058   -4.3058   24.7236 C   0  0  0  0  0  0
  -21.8815   -3.8125   23.4366 C   0  0  0  0  0  0
  -21.9188   -4.6939   22.3418 C   0  0  0  0  0  0
  -22.7693  -13.5159   21.1918 C   0  0  0  0  0  0
  -22.1642   -4.2106   21.0990 F   0  0  0  0  0  0
  -21.5637   -3.4548   25.7759 F   0  0  0  0  0  0
  -29.7342  -14.3949   20.2151 N   0  0  0  0  0  0
  -26.2758  -12.9617   20.3264 N   0  0  0  0  0  0
  -25.9353  -11.6670   20.5698 N   0  0  0  0  0  0
  -22.0399  -12.8095   22.0457 N   0  0  0  0  0  0
  -25.3859  -15.2047   20.4252 N   0  0  0  0  0  0
  -31.4950  -15.6738   20.2773 O   0  0  0  0  0  0
  -21.6654   -6.8860   21.4224 O   0  0  0  0  0  0
  -22.3349  -14.5454   20.6790 O   0  0  0  0  0  0
  -24.6945  -31.7877   23.1469 C   0  0  0  0  0  0
  -25.9486  -32.4386   23.8019 C   0  0  1  0  0  0
  -27.2028  -26.5935   20.2058 C   0  0  0  0  0  0
  -25.6026  -33.8208   24.1919 N   0  0  0  0  0  0
  -23.5207  -30.3933   21.4989 C   0  0  2  0  0  0
  -24.9774  -28.7244   20.1128 C   0  0  0  0  0  0
  -22.7749  -29.4280   22.4636 C   0  0  0  0  0  0
  -18.0337  -28.1383   22.8510 C   0  0  0  0  0  0
  -24.1491  -36.7085   23.2664 C   0  0  0  0  0  0
  -26.1090  -30.4880   21.4284 C   0  0  0  0  0  0
  -26.1692  -29.0453   20.7723 C   0  0  0  0  0  0
  -27.2556  -28.0057   20.7911 C   0  0  0  0  0  0
  -25.9845  -26.5292   19.4709 C   0  0  0  0  0  0
  -24.9348  -27.4946   19.4371 C   0  0  0  0  0  0
  -23.7785  -29.6888   20.1354 C   0  0  0  0  0  0
  -25.4151  -36.2822   24.0271 C   0  0  1  0  0  0
  -20.5988  -28.3755   23.1031 C   0  0  2  0  0  0
  -20.6789  -26.9449   22.5212 C   0  0  0  0  0  0
  -19.5660  -26.6369   21.5124 C   0  0  0  0  0  0
  -18.1962  -26.7833   22.1812 C   0  0  0  0  0  0
  -19.1634  -28.8896   23.2783 C   0  0  0  0  0  0
  -18.9544  -30.1437   23.8878 C   0  0  0  0  0  0
  -17.6552  -30.6627   24.0528 C   0  0  0  0  0  0
  -25.9166  -34.9206   23.4966 C   0  0  0  0  0  0
  -16.5419  -29.9114   23.6388 C   0  0  0  0  0  0
  -16.7337  -28.6490   23.0474 C   0  0  0  0  0  0
  -26.4639  -31.6452   25.0672 C   0  0  0  0  0  0
  -25.3710  -31.3793   26.1289 C   0  0  0  0  0  0
  -27.0587  -30.2765   24.6678 C   0  0  0  0  0  0
  -27.6062  -32.4354   25.7530 C   0  0  0  0  0  0
  -27.5533  -37.1696   24.8477 C   0  0  0  0  0  0
  -21.4398  -29.3042   22.3360 N   0  0  0  0  0  0
  -26.4257  -37.3604   23.9411 N   0  0  0  0  0  0
  -24.7966  -30.9229   22.0761 N   0  0  0  0  0  0
  -23.4183  -28.7854   23.2975 O   0  0  0  0  0  0
  -28.1194  -25.3047   20.3162 O   0  0  0  0  0  0
  -26.5799  -34.8793   22.4566 O   0  0  0  0  0  0
  -23.5920  -32.1004   23.6354 O   0  0  0  0  0  0
  -28.7309  -20.2892   20.0499 C   0  0  0  0  0  0
  -29.7108  -21.9026   21.5269 C   0  0  0  0  0  0
  -30.3865  -19.4163   21.5396 C   0  0  0  0  0  0
  -28.7890  -21.8726   20.4588 C   0  0  0  0  0  0
  -29.5086  -18.9319   20.5211 C   0  0  0  0  0  0
  -30.4653  -20.7787   22.0404 C   0  0  0  0  0  0
  -27.7886  -23.4855   18.5113 C   0  0  0  0  0  0
  -26.5407  -23.2944   20.7029 C   0  0  0  0  0  0
  -31.0896  -20.3146   24.3823 C   0  0  0  0  0  0
  -31.9593  -22.3489   23.2748 C   0  0  0  0  0  0
  -27.9164  -23.5216   20.0503 C   0  0  0  0  0  0
  -29.4868  -17.1802   20.2459 N   0  0  0  0  0  0
  -31.3440  -21.0256   23.1259 N   0  0  0  0  0  0
  -31.3920  -13.4650   19.1532 H   0  0  0  0  0  0
  -30.5883  -12.3797   20.2344 H   0  0  0  0  0  0
  -30.0248  -11.8236   17.8426 H   0  0  0  0  0  0
  -29.4814  -13.4641   17.5776 H   0  0  0  0  0  0
  -28.1889  -11.3080   19.2551 H   0  0  0  0  0  0
  -27.4640  -12.1764   17.9262 H   0  0  0  0  0  0
  -27.4247  -14.2084   19.1958 H   0  0  0  0  0  0
  -28.9067  -12.8912   21.5284 H   0  0  0  0  0  0
  -28.1408  -14.4596   21.5717 H   0  0  0  0  0  0
  -25.2789   -9.5659   22.4758 H   0  0  0  0  0  0
  -23.9983   -7.4620   22.7516 H   0  0  0  0  0  0
  -21.0835   -8.8768   19.8997 H   0  0  0  0  0  0
  -22.3680  -10.9666   19.6164 H   0  0  0  0  0  0
  -21.2001   -7.6131   23.9676 H   0  0  0  0  0  0
  -21.1467   -6.0543   25.9078 H   0  0  0  0  0  0
  -22.0616   -2.7583   23.2899 H   0  0  0  0  0  0
  -22.4080  -11.9775   22.4843 H   0  0  0  0  0  0
  -21.1050  -13.1099   22.2772 H   0  0  0  0  0  0
  -24.6247  -15.8630   20.5515 H   0  0  0  0  0  0
  -26.2253  -15.6423   20.0681 H   0  0  0  0  0  0
  -26.7553  -32.4860   23.0700 H   0  0  0  0  0  0
  -24.9948  -33.9223   24.9922 H   0  0  0  0  0  0
  -22.8588  -31.2420   21.3017 H   0  0  0  0  0  0
  -23.3743  -35.9438   23.3343 H   0  0  0  0  0  0
  -24.3557  -36.8755   22.2086 H   0  0  0  0  0  0
  -23.7303  -37.6274   23.6756 H   0  0  0  0  0  0
  -26.3324  -31.2123   20.6438 H   0  0  0  0  0  0
  -26.9531  -30.5471   22.1029 H   0  0  0  0  0  0
  -28.1413  -28.2523   21.3565 H   0  0  0  0  0  0
  -25.7652  -25.6215   18.9305 H   0  0  0  0  0  0
  -24.0408  -27.2558   18.8746 H   0  0  0  0  0  0
  -23.9441  -30.4470   19.3675 H   0  0  0  0  0  0
  -22.8844  -29.1526   19.8104 H   0  0  0  0  0  0
  -25.1382  -36.1560   25.0762 H   0  0  0  0  0  0
  -21.0125  -28.3317   24.1125 H   0  0  0  0  0  0
  -20.5627  -26.2396   23.3456 H   0  0  0  0  0  0
  -21.6603  -26.7393   22.0955 H   0  0  0  0  0  0
  -19.6807  -25.6275   21.1129 H   0  0  0  0  0  0
  -19.6341  -27.3174   20.6619 H   0  0  0  0  0  0
  -17.3974  -26.6197   21.4547 H   0  0  0  0  0  0
  -18.0755  -26.0118   22.9426 H   0  0  0  0  0  0
  -19.8021  -30.7177   24.2330 H   0  0  0  0  0  0
  -17.5171  -31.6356   24.5022 H   0  0  0  0  0  0
  -15.5431  -30.3041   23.7754 H   0  0  0  0  0  0
  -15.8706  -28.0770   22.7365 H   0  0  0  0  0  0
  -24.5867  -30.7203   25.7536 H   0  0  0  0  0  0
  -24.8931  -32.3007   26.4586 H   0  0  0  0  0  0
  -25.7818  -30.8994   27.0171 H   0  0  0  0  0  0
  -26.3307  -29.6333   24.1680 H   0  0  0  0  0  0
  -27.3934  -29.7283   25.5494 H   0  0  0  0  0  0
  -27.9346  -30.3833   24.0294 H   0  0  0  0  0  0
  -27.2558  -33.3699   26.1915 H   0  0  0  0  0  0
  -28.3936  -32.6850   25.0420 H   0  0  0  0  0  0
  -28.0640  -31.8654   26.5627 H   0  0  0  0  0  0
  -28.2542  -37.9977   24.7431 H   0  0  0  0  0  0
  -28.1015  -36.2484   24.6419 H   0  0  0  0  0  0
  -27.2220  -37.1471   25.8869 H   0  0  0  0  0  0
  -20.9713  -29.8748   21.6449 H   0  0  0  0  0  0
  -26.0049  -38.2644   24.1405 H   0  0  0  0  0  0
  -27.9830  -20.1001   19.2933 H   0  0  0  0  0  0
  -29.8041  -22.8656   22.0043 H   0  0  0  0  0  0
  -31.0266  -18.6713   21.9946 H   0  0  0  0  0  0
  -27.1279  -24.2512   18.1130 H   0  0  0  0  0  0
  -27.3994  -22.5257   18.1616 H   0  0  0  0  0  0
  -28.7616  -23.6469   18.0394 H   0  0  0  0  0  0
  -26.1409  -22.3207   20.4275 H   0  0  0  0  0  0
  -25.7969  -24.0343   20.4258 H   0  0  0  0  0  0
  -26.6247  -23.3187   21.7890 H   0  0  0  0  0  0
  -31.0958  -19.2278   24.2793 H   0  0  0  0  0  0
  -30.1330  -20.6138   24.8220 H   0  0  0  0  0  0
  -31.8724  -20.5600   25.1071 H   0  0  0  0  0  0
  -31.9517  -22.9357   22.3568 H   0  0  0  0  0  0
  -33.0042  -22.2437   23.5723 H   0  0  0  0  0  0
  -31.4541  -22.9314   24.0532 H   0  0  0  0  0  0
  -28.5675  -16.9291   19.9053 H   0  0  0  0  0  0
  1 25  1  0  0  0
  1 30  2  0  0  0
  1 82  1  0  0  0
  2  3  1  0  0  0
  2 25  1  0  0  0
  2 84  1  0  0  0
  2 85  1  0  0  0
  3  4  1  0  0  0
  3 86  1  0  0  0
  3 87  1  0  0  0
  4  5  1  0  0  0
  4 88  1  0  0  0
  4 89  1  0  0  0
  5  6  1  0  0  0
  5 26  1  0  0  0
  5 90  1  0  0  0
  6 25  1  0  0  0
  6 91  1  0  0  0
  6 92  1  0  0  0
  7  8  2  0  0  0
  7 26  1  0  0  0
  7 29  1  0  0  0
  8  9  1  0  0  0
  8 22  1  0  0  0
  9 10  1  0  0  0
  9 27  2  0  0  0
 10 11  2  0  0  0
 10 15  1  0  0  0
 11 12  1  0  0  0
 11 93  1  0  0  0
 12 13  2  0  0  0
 12 94  1  0  0  0
 13 14  1  0  0  0
 13 31  1  0  0  0
 14 15  2  0  0  0
 14 95  1  0  0  0
 15 96  1  0  0  0
 16 17  2  0  0  0
 16 21  1  0  0  0
 16 31  1  0  0  0
 17 18  1  0  0  0
 17 97  1  0  0  0
 18 19  2  0  0  0
 18 98  1  0  0  0
 19 20  1  0  0  0
 19 24  1  0  0  0
 20 21  2  0  0  0
 20 99  1  0  0  0
 21 23  1  0  0  0
 22 28  1  0  0  0
 22 32  2  0  0  0
 26 27  1  0  0  0
 28100  1  0  0  0
 28101  1  0  0  0
 29102  1  0  0  0
 29103  1  0  0  0
 33 34  1  0  0  0
 33 66  1  0  0  0
 33 70  2  0  0  0
 34 36  1  0  0  0
 34 59  1  0  0  0
 34104  1  0  0  0
 35 44  2  0  0  0
 35 45  1  0  0  0
 35 68  1  0  0  0
 36 56  1  0  0  0
 36105  1  0  0  0
 37 39  1  0  0  0
 37 47  1  0  0  0
 37 66  1  0  0  0
 37106  1  0  0  0
 38 43  2  0  0  0
 38 46  1  0  0  0
 38 47  1  0  0  0
 39 64  1  0  0  0
 39 67  2  0  0  0
 40 52  1  0  0  0
 40 53  2  0  0  0
 40 58  1  0  0  0
 41107  1  0  0  0
 41108  1  0  0  0
 41109  1  0  0  0
 41 48  1  0  0  0
 42 43  1  0  0  0
 42 66  1  0  0  0
 42110  1  0  0  0
 42111  1  0  0  0
 43 44  1  0  0  0
 44112  1  0  0  0
 45 46  2  0  0  0
 45113  1  0  0  0
 46114  1  0  0  0
 47115  1  0  0  0
 47116  1  0  0  0
 48 56  1  0  0  0
 48 65  1  0  0  0
 48117  1  0  0  0
 49 50  1  0  0  0
 49 53  1  0  0  0
 49 64  1  0  0  0
 49118  1  0  0  0
 50 51  1  0  0  0
 50119  1  0  0  0
 50120  1  0  0  0
 51 52  1  0  0  0
 51121  1  0  0  0
 51122  1  0  0  0
 52123  1  0  0  0
 52124  1  0  0  0
 53 54  1  0  0  0
 54 55  2  0  0  0
 54125  1  0  0  0
 55 57  1  0  0  0
 55126  1  0  0  0
 56 69  2  0  0  0
 57 58  2  0  0  0
 57127  1  0  0  0
 58128  1  0  0  0
 59 60  1  0  0  0
 59 61  1  0  0  0
 59 62  1  0  0  0
 60129  1  0  0  0
 60130  1  0  0  0
 60131  1  0  0  0
 61132  1  0  0  0
 61133  1  0  0  0
 61134  1  0  0  0
 62135  1  0  0  0
 62136  1  0  0  0
 62137  1  0  0  0
 63 65  1  0  0  0
 63138  1  0  0  0
 63139  1  0  0  0
 63140  1  0  0  0
 64141  1  0  0  0
 65142  1  0  0  0
 68 81  1  0  0  0
 71 74  2  0  0  0
 71 75  1  0  0  0
 71143  1  0  0  0
 72 74  1  0  0  0
 72 76  2  0  0  0
 72144  1  0  0  0
 73 75  2  0  0  0
 73 76  1  0  0  0
 73145  1  0  0  0
 74 81  1  0  0  0
 75 82  1  0  0  0
 76 83  1  0  0  0
 77146  1  0  0  0
 77147  1  0  0  0
 77148  1  0  0  0
 77 81  1  0  0  0
 78 81  1  0  0  0
 78149  1  0  0  0
 78150  1  0  0  0
 78151  1  0  0  0
 79 83  1  0  0  0
 79152  1  0  0  0
 79153  1  0  0  0
 79154  1  0  0  0
 80 83  1  0  0  0
 80155  1  0  0  0
 80156  1  0  0  0
 80157  1  0  0  0
 82158  1  0  0  0
M  ISO  4   1 100  68 101  81 101  82 100
M  END
> <chiral flag>
0

> <version>
0

> <s_m_source_file>
/data/baiqing/PycharmProjects/Reinvent-master-3.2/result/LINK_invent/BTK/process_docking_weight1_custom_sum_contain_oxygen_bond_distance_aromatic_linkinvent_7_9_3/rearranged_h_0008.sdf

> <i_m_source_file_index>
58

> <r_mmod_Potential_Energy-OPLS-2005>
2855.94091796875

> <r_mmod_Stretch_Energy-OPLS-2005>
1264.64404296875

> <r_mmod_Bend_Energy-OPLS-2005>
668.977355957031

> <r_mmod_Torsional_Energy-OPLS-2005>
238.247894287109

> <r_mmod_Improper_Torsional_Energy-OPLS-2005>
10.8599796295166

> <r_mmod_Van_der_Waal_Energy-OPLS-2005>
132.990692138672

> <r_mmod_Electrostatic_Energy-OPLS-2005>
-366.802642822266

> <r_mmod_Solvation_Energy-OPLS-2005>
-235.408477783203

> <b_mmod_Minimization_Converged-OPLS-2005>
0

> <r_mmod_RMS_Derivative-OPLS-2005>
7.85578012466431

$$$$
58
                    3D
 Structure written by MMmdl.
163171  0  0  1  0            999 V2000
  -30.5284  -15.0093   20.4211 C   0  0  0  0  0  0
  -30.4395  -12.6370   19.4934 C   0  0  0  0  0  0
  -29.5198  -12.5416   18.2525 C   0  0  0  0  0  0
  -28.0564  -12.3161   18.6736 C   0  0  0  0  0  0
  -27.6216  -13.2560   19.8280 C   0  0  2  0  0  0
  -28.6639  -13.3213   20.9621 C   0  0  0  0  0  0
  -25.2422  -13.8233   20.5711 C   0  0  0  0  0  0
  -24.1747  -13.0429   20.9245 C   0  0  0  0  0  0
  -24.6404  -11.6935   20.8761 C   0  0  0  0  0  0
  -23.9101  -10.4291   21.0413 C   0  0  0  0  0  0
  -24.3647   -9.4196   21.9189 C   0  0  0  0  0  0
  -23.6323   -8.2225   22.0746 C   0  0  0  0  0  0
  -22.4297   -8.0278   21.3536 C   0  0  0  0  0  0
  -21.9945   -9.0248   20.4624 C   0  0  0  0  0  0
  -22.7273  -10.2135   20.3054 C   0  0  0  0  0  0
  -21.6872   -6.0736   22.5282 C   0  0  0  0  0  0
  -21.4010   -6.5635   23.8209 C   0  0  0  0  0  0
  -21.3667   -5.6782   24.9167 C   0  0  0  0  0  0
  -21.6056   -4.3051   24.7220 C   0  0  0  0  0  0
  -21.8819   -3.8153   23.4344 C   0  0  0  0  0  0
  -21.9188   -4.6962   22.3397 C   0  0  0  0  0  0
  -22.7758  -13.5175   21.1894 C   0  0  0  0  0  0
  -22.1657   -4.2145   21.0977 F   0  0  0  0  0  0
  -21.5633   -3.4544   25.7737 F   0  0  0  0  0  0
  -29.9303  -13.7469   20.3537 N   0  0  0  0  0  0
  -26.2848  -12.9481   20.3212 N   0  0  0  0  0  0
  -25.9330  -11.6607   20.5718 N   0  0  0  0  0  0
  -22.0429  -12.8159   22.0477 N   0  0  0  0  0  0
  -25.4070  -15.1955   20.4103 N   0  0  0  0  0  0
  -31.7468  -15.0427   20.2068 O   0  0  0  0  0  0
  -21.6646   -6.8887   21.4253 O   0  0  0  0  0  0
  -22.3424  -14.5456   20.6718 O   0  0  0  0  0  0
  -24.6477  -31.8410   23.1853 C   0  0  0  0  0  0
  -25.9243  -32.4660   23.8242 C   0  0  1  0  0  0
  -27.2108  -27.0947   20.1567 C   0  0  0  0  0  0
  -25.5993  -33.8469   24.2183 N   0  0  0  0  0  0
  -23.4521  -30.4590   21.5320 C   0  0  2  0  0  0
  -24.9025  -28.8810   20.1065 C   0  0  0  0  0  0
  -22.7579  -29.4526   22.4836 C   0  0  0  0  0  0
  -18.0304  -28.1399   22.8445 C   0  0  0  0  0  0
  -24.1512  -36.7231   23.2639 C   0  0  0  0  0  0
  -26.0094  -30.7038   21.3874 C   0  0  0  0  0  0
  -26.0816  -29.3114   20.7283 C   0  0  0  0  0  0
  -27.2386  -28.4358   20.7320 C   0  0  0  0  0  0
  -26.0043  -26.7776   19.4971 C   0  0  0  0  0  0
  -24.8786  -27.6304   19.4738 C   0  0  0  0  0  0
  -23.6821  -29.7903   20.1510 C   0  0  0  0  0  0
  -25.4130  -36.2998   24.0324 C   0  0  1  0  0  0
  -20.5903  -28.3731   23.1226 C   0  0  2  0  0  0
  -20.6793  -26.9422   22.5400 C   0  0  0  0  0  0
  -19.5779  -26.6375   21.5201 C   0  0  0  0  0  0
  -18.1961  -26.7937   22.1604 C   0  0  0  0  0  0
  -19.1550  -28.8887   23.2828 C   0  0  0  0  0  0
  -18.9462  -30.1480   23.8857 C   0  0  0  0  0  0
  -17.6456  -30.6589   24.0540 C   0  0  0  0  0  0
  -25.9077  -34.9380   23.5049 C   0  0  0  0  0  0
  -16.5352  -29.9069   23.6326 C   0  0  0  0  0  0
  -16.7287  -28.6497   23.0331 C   0  0  0  0  0  0
  -26.4569  -31.6513   25.0667 C   0  0  0  0  0  0
  -25.3763  -31.3697   26.1361 C   0  0  0  0  0  0
  -27.0436  -30.2915   24.6222 C   0  0  0  0  0  0
  -27.6108  -32.4261   25.7467 C   0  0  0  0  0  0
  -27.5579  -37.1765   24.8468 C   0  0  0  0  0  0
  -21.4261  -29.3052   22.3585 N   0  0  0  0  0  0
  -26.4281  -37.3713   23.9428 N   0  0  0  0  0  0
  -24.7225  -31.0243   22.0904 N   0  0  0  0  0  0
  -23.4209  -28.8061   23.2990 O   0  0  0  0  0  0
  -28.2453  -26.0780   20.2325 O   0  0  0  0  0  0
  -26.5622  -34.8886   22.4608 O   0  0  0  0  0  0
  -23.5590  -32.1328   23.7056 O   0  0  0  0  0  0
  -31.3156  -18.0733   21.1264 C   0  0  0  0  0  0
  -31.6830  -19.4098   21.3700 C   0  0  0  0  0  0
  -29.2008  -18.9393   20.3321 C   0  0  0  0  0  0
  -30.0557  -17.7310   20.6052 C   0  0  0  0  0  0
  -30.8625  -20.5394   21.0946 C   0  0  0  0  0  0
  -29.5483  -20.4001   20.5368 C   0  0  0  0  0  0
  -32.3169  -23.4102   22.9915 C   0  0  0  0  0  0
  -33.8111  -22.0450   21.4931 C   0  0  0  0  0  0
  -27.5795  -21.3861   19.3564 C   0  0  0  0  0  0
  -29.0209  -23.2081   20.3905 C   0  0  0  0  0  0
  -27.9613  -24.5287   20.1036 C   0  0  0  0  0  0
  -32.4875  -22.0690   22.2715 C   0  0  0  0  0  0
  -29.7451  -16.2163   20.4644 N   0  0  0  0  0  0
  -31.3586  -21.8227   21.3795 N   0  0  0  0  0  0
  -28.7162  -21.6482   20.2384 N   0  0  0  0  0  0
  -31.4662  -12.8143   19.1686 H   0  0  0  0  0  0
  -30.4544  -11.6970   20.0480 H   0  0  0  0  0  0
  -29.8470  -11.7364   17.5926 H   0  0  0  0  0  0
  -29.5958  -13.4667   17.6766 H   0  0  0  0  0  0
  -27.9622  -11.2772   18.9907 H   0  0  0  0  0  0
  -27.3926  -12.4358   17.8155 H   0  0  0  0  0  0
  -27.5683  -14.2484   19.3806 H   0  0  0  0  0  0
  -28.7680  -12.3565   21.4601 H   0  0  0  0  0  0
  -28.3499  -14.0359   21.7247 H   0  0  0  0  0  0
  -25.2797   -9.5651   22.4775 H   0  0  0  0  0  0
  -24.0023   -7.4610   22.7472 H   0  0  0  0  0  0
  -21.0872   -8.8770   19.8929 H   0  0  0  0  0  0
  -22.3744  -10.9674   19.6157 H   0  0  0  0  0  0
  -21.2005   -7.6145   23.9716 H   0  0  0  0  0  0
  -21.1491   -6.0508   25.9062 H   0  0  0  0  0  0
  -22.0603   -2.7618   23.2841 H   0  0  0  0  0  0
  -22.4070  -11.9832   22.4859 H   0  0  0  0  0  0
  -21.1023  -13.1123   22.2646 H   0  0  0  0  0  0
  -24.6383  -15.8470   20.5182 H   0  0  0  0  0  0
  -26.2426  -15.6385   20.0539 H   0  0  0  0  0  0
  -26.7284  -32.5282   23.0949 H   0  0  0  0  0  0
  -25.0200  -33.9578   25.0373 H   0  0  0  0  0  0
  -22.7544  -31.2835   21.3745 H   0  0  0  0  0  0
  -23.3779  -35.9555   23.3264 H   0  0  0  0  0  0
  -24.3601  -36.8890   22.2053 H   0  0  0  0  0  0
  -23.7267  -37.6420   23.6695 H   0  0  0  0  0  0
  -26.1567  -31.4542   20.6107 H   0  0  0  0  0  0
  -26.8841  -30.7644   22.0231 H   0  0  0  0  0  0
  -28.1373  -28.7585   21.2387 H   0  0  0  0  0  0
  -25.8955  -25.8207   19.0114 H   0  0  0  0  0  0
  -23.9788  -27.2948   18.9765 H   0  0  0  0  0  0
  -23.8286  -30.5694   19.4038 H   0  0  0  0  0  0
  -22.7953  -29.2431   19.8272 H   0  0  0  0  0  0
  -25.1315  -36.1808   25.0811 H   0  0  0  0  0  0
  -20.9982  -28.3339   24.1357 H   0  0  0  0  0  0
  -20.5710  -26.2333   23.3624 H   0  0  0  0  0  0
  -21.6660  -26.7455   22.1175 H   0  0  0  0  0  0
  -19.6946  -25.6279   21.1254 H   0  0  0  0  0  0
  -19.6736  -27.3167   20.6718 H   0  0  0  0  0  0
  -17.4227  -26.6658   21.4013 H   0  0  0  0  0  0
  -18.0356  -26.0092   22.9016 H   0  0  0  0  0  0
  -19.7940  -30.7286   24.2227 H   0  0  0  0  0  0
  -17.5016  -31.6264   24.5139 H   0  0  0  0  0  0
  -15.5358  -30.2949   23.7685 H   0  0  0  0  0  0
  -15.8693  -28.0817   22.7047 H   0  0  0  0  0  0
  -24.5984  -30.6990   25.7698 H   0  0  0  0  0  0
  -24.8901  -32.2862   26.4690 H   0  0  0  0  0  0
  -25.8034  -30.8950   27.0200 H   0  0  0  0  0  0
  -26.3044  -29.6604   24.1260 H   0  0  0  0  0  0
  -27.4118  -29.7214   25.4763 H   0  0  0  0  0  0
  -27.8922  -30.4165   23.9493 H   0  0  0  0  0  0
  -27.2733  -33.3615   26.1946 H   0  0  0  0  0  0
  -28.3975  -32.6710   25.0320 H   0  0  0  0  0  0
  -28.0713  -31.8428   26.5453 H   0  0  0  0  0  0
  -28.2547  -38.0098   24.7493 H   0  0  0  0  0  0
  -28.1101  -36.2606   24.6302 H   0  0  0  0  0  0
  -27.2274  -37.1419   25.8861 H   0  0  0  0  0  0
  -20.9475  -29.8806   21.6789 H   0  0  0  0  0  0
  -26.0134  -38.2780   24.1416 H   0  0  0  0  0  0
  -32.0316  -17.3056   21.3853 H   0  0  0  0  0  0
  -32.6660  -19.5401   21.7932 H   0  0  0  0  0  0
  -28.2188  -18.7100   19.9492 H   0  0  0  0  0  0
  -33.1375  -23.5760   23.6905 H   0  0  0  0  0  0
  -31.3961  -23.4429   23.5749 H   0  0  0  0  0  0
  -32.3105  -24.2484   22.2939 H   0  0  0  0  0  0
  -34.6598  -22.1348   22.1708 H   0  0  0  0  0  0
  -33.8700  -22.8728   20.7871 H   0  0  0  0  0  0
  -33.9478  -21.1250   20.9257 H   0  0  0  0  0  0
  -27.1607  -20.3873   19.4602 H   0  0  0  0  0  0
  -27.8689  -21.5231   18.3120 H   0  0  0  0  0  0
  -26.7593  -22.0755   19.5680 H   0  0  0  0  0  0
  -29.3398  -23.3476   21.4232 H   0  0  0  0  0  0
  -29.9020  -23.4029   19.7787 H   0  0  0  0  0  0
  -27.0959  -24.3548   20.7433 H   0  0  0  0  0  0
  -27.5881  -24.3895   19.0886 H   0  0  0  0  0  0
  -32.5047  -21.3019   23.0474 H   0  0  0  0  0  0
  -28.7601  -16.0141   20.4016 H   0  0  0  0  0  0
  -30.6738  -22.5575   21.2629 H   0  0  0  0  0  0
  1 25  1  0  0  0
  1 30  2  0  0  0
  1 83  1  0  0  0
  2  3  1  0  0  0
  2 25  1  0  0  0
  2 86  1  0  0  0
  2 87  1  0  0  0
  3  4  1  0  0  0
  3 88  1  0  0  0
  3 89  1  0  0  0
  4  5  1  0  0  0
  4 90  1  0  0  0
  4 91  1  0  0  0
  5  6  1  0  0  0
  5 26  1  0  0  0
  5 92  1  0  0  0
  6 25  1  0  0  0
  6 93  1  0  0  0
  6 94  1  0  0  0
  7  8  2  0  0  0
  7 26  1  0  0  0
  7 29  1  0  0  0
  8  9  1  0  0  0
  8 22  1  0  0  0
  9 10  1  0  0  0
  9 27  2  0  0  0
 10 11  2  0  0  0
 10 15  1  0  0  0
 11 12  1  0  0  0
 11 95  1  0  0  0
 12 13  2  0  0  0
 12 96  1  0  0  0
 13 14  1  0  0  0
 13 31  1  0  0  0
 14 15  2  0  0  0
 14 97  1  0  0  0
 15 98  1  0  0  0
 16 17  2  0  0  0
 16 21  1  0  0  0
 16 31  1  0  0  0
 17 18  1  0  0  0
 17 99  1  0  0  0
 18 19  2  0  0  0
 18100  1  0  0  0
 19 20  1  0  0  0
 19 24  1  0  0  0
 20 21  2  0  0  0
 20101  1  0  0  0
 21 23  1  0  0  0
 22 28  1  0  0  0
 22 32  2  0  0  0
 26 27  1  0  0  0
 28102  1  0  0  0
 28103  1  0  0  0
 29104  1  0  0  0
 29105  1  0  0  0
 33 34  1  0  0  0
 33 66  1  0  0  0
 33 70  2  0  0  0
 34 36  1  0  0  0
 34 59  1  0  0  0
 34106  1  0  0  0
 35 44  2  0  0  0
 35 45  1  0  0  0
 35 68  1  0  0  0
 36 56  1  0  0  0
 36107  1  0  0  0
 37 39  1  0  0  0
 37 47  1  0  0  0
 37 66  1  0  0  0
 37108  1  0  0  0
 38 43  2  0  0  0
 38 46  1  0  0  0
 38 47  1  0  0  0
 39 64  1  0  0  0
 39 67  2  0  0  0
 40 52  1  0  0  0
 40 53  2  0  0  0
 40 58  1  0  0  0
 41109  1  0  0  0
 41110  1  0  0  0
 41111  1  0  0  0
 41 48  1  0  0  0
 42 43  1  0  0  0
 42 66  1  0  0  0
 42112  1  0  0  0
 42113  1  0  0  0
 43 44  1  0  0  0
 44114  1  0  0  0
 45 46  2  0  0  0
 45115  1  0  0  0
 46116  1  0  0  0
 47117  1  0  0  0
 47118  1  0  0  0
 48 56  1  0  0  0
 48 65  1  0  0  0
 48119  1  0  0  0
 49 50  1  0  0  0
 49 53  1  0  0  0
 49 64  1  0  0  0
 49120  1  0  0  0
 50 51  1  0  0  0
 50121  1  0  0  0
 50122  1  0  0  0
 51 52  1  0  0  0
 51123  1  0  0  0
 51124  1  0  0  0
 52125  1  0  0  0
 52126  1  0  0  0
 53 54  1  0  0  0
 54 55  2  0  0  0
 54127  1  0  0  0
 55 57  1  0  0  0
 55128  1  0  0  0
 56 69  2  0  0  0
 57 58  2  0  0  0
 57129  1  0  0  0
 58130  1  0  0  0
 59 60  1  0  0  0
 59 61  1  0  0  0
 59 62  1  0  0  0
 60131  1  0  0  0
 60132  1  0  0  0
 60133  1  0  0  0
 61134  1  0  0  0
 61135  1  0  0  0
 61136  1  0  0  0
 62137  1  0  0  0
 62138  1  0  0  0
 62139  1  0  0  0
 63 65  1  0  0  0
 63140  1  0  0  0
 63141  1  0  0  0
 63142  1  0  0  0
 64143  1  0  0  0
 65144  1  0  0  0
 68 81  1  0  0  0
 71 72  2  0  0  0
 71 74  1  0  0  0
 71145  1  0  0  0
 72 75  1  0  0  0
 72146  1  0  0  0
 73 74  2  0  0  0
 73 76  1  0  0  0
 73147  1  0  0  0
 74 83  1  0  0  0
 75 76  2  0  0  0
 75 84  1  0  0  0
 76 85  1  0  0  0
 77148  1  0  0  0
 77149  1  0  0  0
 77150  1  0  0  0
 77 82  1  0  0  0
 78 82  1  0  0  0
 78151  1  0  0  0
 78152  1  0  0  0
 78153  1  0  0  0
 79 85  1  0  0  0
 79154  1  0  0  0
 79155  1  0  0  0
 79156  1  0  0  0
 80 81  1  0  0  0
 80 85  1  0  0  0
 80157  1  0  0  0
 80158  1  0  0  0
 81159  1  0  0  0
 81160  1  0  0  0
 82 84  1  0  0  0
 82161  1  0  0  0
 83162  1  0  0  0
 84163  1  0  0  0
M  ISO  4   1 100  68 101  81 101  83 100
M  END
> <chiral flag>
0

> <version>
0

> <s_m_source_file>
/data/baiqing/PycharmProjects/Reinvent-master-3.2/result/LINK_invent/BTK/process_docking_weight1_custom_sum_contain_oxygen_bond_distance_aromatic_linkinvent_7_9_3/rearranged_h_0008.sdf

> <i_m_source_file_index>
59

> <r_mmod_Potential_Energy-OPLS-2005>
609.725036621094

> <r_mmod_Stretch_Energy-OPLS-2005>
328.203338623047

> <r_mmod_Bend_Energy-OPLS-2005>
298.357330322266

> <r_mmod_Torsional_Energy-OPLS-2005>
203.409286499023

> <r_mmod_Improper_Torsional_Energy-OPLS-2005>
8.27705097198486

> <r_mmod_Van_der_Waal_Energy-OPLS-2005>
150.543197631836

> <r_mmod_Electrostatic_Energy-OPLS-2005>
-383.373291015625

> <r_mmod_Solvation_Energy-OPLS-2005>
-232.772369384766

> <b_mmod_Minimization_Converged-OPLS-2005>
0

> <r_mmod_RMS_Derivative-OPLS-2005>
3.19872307777405

$$$$
59
                    3D
 Structure written by MMmdl.
158166  0  0  1  0            999 V2000
  -30.5063  -15.0518   20.4039 C   0  0  0  0  0  0
  -30.4358  -12.6569   19.5122 C   0  0  0  0  0  0
  -29.5249  -12.5339   18.2675 C   0  0  0  0  0  0
  -28.0625  -12.2993   18.6892 C   0  0  0  0  0  0
  -27.6193  -13.2461   19.8323 C   0  0  2  0  0  0
  -28.6568  -13.3238   20.9693 C   0  0  0  0  0  0
  -25.2445  -13.8202   20.5720 C   0  0  0  0  0  0
  -24.1750  -13.0421   20.9227 C   0  0  0  0  0  0
  -24.6357  -11.6904   20.8756 C   0  0  0  0  0  0
  -23.9025  -10.4287   21.0414 C   0  0  0  0  0  0
  -24.3599   -9.4190   21.9165 C   0  0  0  0  0  0
  -23.6290   -8.2214   22.0718 C   0  0  0  0  0  0
  -22.4263   -8.0276   21.3512 C   0  0  0  0  0  0
  -21.9884   -9.0245   20.4614 C   0  0  0  0  0  0
  -22.7208  -10.2126   20.3034 C   0  0  0  0  0  0
  -21.6855   -6.0730   22.5261 C   0  0  0  0  0  0
  -21.4032   -6.5624   23.8200 C   0  0  0  0  0  0
  -21.3673   -5.6765   24.9152 C   0  0  0  0  0  0
  -21.6054   -4.3029   24.7191 C   0  0  0  0  0  0
  -21.8846   -3.8120   23.4314 C   0  0  0  0  0  0
  -21.9182   -4.6953   22.3379 C   0  0  0  0  0  0
  -22.7768  -13.5208   21.1855 C   0  0  0  0  0  0
  -22.1659   -4.2144   21.0954 F   0  0  0  0  0  0
  -21.5601   -3.4513   25.7704 F   0  0  0  0  0  0
  -29.9187  -13.7748   20.3665 N   0  0  0  0  0  0
  -26.2834  -12.9396   20.3225 N   0  0  0  0  0  0
  -25.9287  -11.6545   20.5768 N   0  0  0  0  0  0
  -22.0399  -12.8235   22.0432 N   0  0  0  0  0  0
  -25.4137  -15.1947   20.4175 N   0  0  0  0  0  0
  -31.6878  -15.0933   20.0385 O   0  0  0  0  0  0
  -21.6625   -6.8877   21.4225 O   0  0  0  0  0  0
  -22.3459  -14.5490   20.6642 O   0  0  0  0  0  0
  -24.6494  -31.8334   23.1795 C   0  0  0  0  0  0
  -25.9257  -32.4609   23.8187 C   0  0  1  0  0  0
  -27.2132  -27.0490   20.1815 C   0  0  0  0  0  0
  -25.5988  -33.8427   24.2110 N   0  0  0  0  0  0
  -23.4557  -30.4520   21.5235 C   0  0  2  0  0  0
  -24.9089  -28.8613   20.1077 C   0  0  0  0  0  0
  -22.7588  -29.4507   22.4773 C   0  0  0  0  0  0
  -18.0300  -28.1418   22.8433 C   0  0  0  0  0  0
  -24.1510  -36.7230   23.2635 C   0  0  0  0  0  0
  -26.0151  -30.6800   21.3937 C   0  0  0  0  0  0
  -26.0844  -29.2831   20.7392 C   0  0  0  0  0  0
  -27.2319  -28.3931   20.7597 C   0  0  0  0  0  0
  -26.0177  -26.7539   19.4898 C   0  0  0  0  0  0
  -24.8930  -27.6149   19.4617 C   0  0  0  0  0  0
  -23.6897  -29.7754   20.1447 C   0  0  0  0  0  0
  -25.4140  -36.2967   24.0285 C   0  0  1  0  0  0
  -20.5919  -28.3760   23.1198 C   0  0  2  0  0  0
  -20.6801  -26.9441   22.5405 C   0  0  0  0  0  0
  -19.5794  -26.6380   21.5200 C   0  0  0  0  0  0
  -18.1959  -26.7950   22.1588 C   0  0  0  0  0  0
  -19.1555  -28.8901   23.2810 C   0  0  0  0  0  0
  -18.9487  -30.1498   23.8833 C   0  0  0  0  0  0
  -17.6488  -30.6609   24.0560 C   0  0  0  0  0  0
  -25.9095  -34.9350   23.4999 C   0  0  0  0  0  0
  -16.5371  -29.9099   23.6353 C   0  0  0  0  0  0
  -16.7287  -28.6533   23.0331 C   0  0  0  0  0  0
  -26.4568  -31.6502   25.0663 C   0  0  0  0  0  0
  -25.3739  -31.3732   26.1347 C   0  0  0  0  0  0
  -27.0468  -30.2872   24.6342 C   0  0  0  0  0  0
  -27.6063  -32.4292   25.7477 C   0  0  0  0  0  0
  -27.5573  -37.1766   24.8453 C   0  0  0  0  0  0
  -21.4270  -29.3057   22.3536 N   0  0  0  0  0  0
  -26.4285  -37.3699   23.9388 N   0  0  0  0  0  0
  -24.7258  -31.0144   22.0854 N   0  0  0  0  0  0
  -23.4200  -28.8062   23.2965 O   0  0  0  0  0  0
  -28.2447  -26.0204   20.3045 O   0  0  0  0  0  0
  -26.5677  -34.8877   22.4578 O   0  0  0  0  0  0
  -23.5608  -32.1244   23.6995 O   0  0  0  0  0  0
  -28.7332  -20.2357   18.8361 C   0  0  0  0  0  0
  -28.8015  -18.9955   18.1512 C   0  0  0  0  0  0
  -29.4247  -19.0096   20.7943 C   0  0  0  0  0  0
  -29.0546  -20.3449   20.2003 C   0  0  0  0  0  0
  -29.1844  -17.7549   18.7432 C   0  0  0  0  0  0
  -29.5216  -17.6578   20.1307 C   0  0  0  0  0  0
  -28.9982  -21.7826   20.9540 C   0  0  0  0  0  0
  -28.6938  -23.2163   20.9727 C   0  0  0  0  0  0
  -28.9881  -23.7773   22.2916 C   0  0  0  0  0  0
  -29.1820  -16.5363   17.8323 C   0  0  0  0  0  0
  -29.7723  -16.3537   22.2747 C   0  0  0  0  0  0
  -28.0962  -24.4527   20.0070 C   0  0  0  0  0  0
  -28.2598  -23.2337   23.2688 N   0  0  0  0  0  0
  -29.8168  -16.2666   20.8107 N   0  0  0  0  0  0
  -29.8247  -24.6425   22.5339 O   0  0  0  0  0  0
  -31.4663  -12.8169   19.1923 H   0  0  0  0  0  0
  -30.4478  -11.7229   20.0767 H   0  0  0  0  0  0
  -29.8652  -11.7119   17.6355 H   0  0  0  0  0  0
  -29.5955  -13.4389   17.6601 H   0  0  0  0  0  0
  -27.9845  -11.2670   19.0309 H   0  0  0  0  0  0
  -27.3959  -12.3803   17.8299 H   0  0  0  0  0  0
  -27.5619  -14.2348   19.3830 H   0  0  0  0  0  0
  -28.7725  -12.3597   21.4668 H   0  0  0  0  0  0
  -28.3153  -14.0286   21.7264 H   0  0  0  0  0  0
  -25.2751   -9.5674   22.4726 H   0  0  0  0  0  0
  -23.9994   -7.4613   22.7453 H   0  0  0  0  0  0
  -21.0787   -8.8772   19.8964 H   0  0  0  0  0  0
  -22.3656  -10.9651   19.6141 H   0  0  0  0  0  0
  -21.2073   -7.6144   23.9713 H   0  0  0  0  0  0
  -21.1456   -6.0471   25.9051 H   0  0  0  0  0  0
  -22.0611   -2.7583   23.2781 H   0  0  0  0  0  0
  -22.4021  -11.9953   22.4943 H   0  0  0  0  0  0
  -21.1019  -13.1276   22.2629 H   0  0  0  0  0  0
  -24.6461  -15.8462   20.5299 H   0  0  0  0  0  0
  -26.2733  -15.6355   20.1149 H   0  0  0  0  0  0
  -26.7290  -32.5188   23.0883 H   0  0  0  0  0  0
  -25.0132  -33.9524   25.0254 H   0  0  0  0  0  0
  -22.7621  -31.2785   21.3623 H   0  0  0  0  0  0
  -23.3757  -35.9577   23.3274 H   0  0  0  0  0  0
  -24.3582  -36.8907   22.2052 H   0  0  0  0  0  0
  -23.7308  -37.6425   23.6718 H   0  0  0  0  0  0
  -26.1829  -31.4271   20.6179 H   0  0  0  0  0  0
  -26.8797  -30.7302   22.0429 H   0  0  0  0  0  0
  -28.1187  -28.7080   21.2926 H   0  0  0  0  0  0
  -25.9118  -25.8063   18.9856 H   0  0  0  0  0  0
  -24.0011  -27.2925   18.9430 H   0  0  0  0  0  0
  -23.8366  -30.5482   19.3874 H   0  0  0  0  0  0
  -22.8031  -29.2248   19.8265 H   0  0  0  0  0  0
  -25.1347  -36.1740   25.0774 H   0  0  0  0  0  0
  -21.0003  -28.3381   24.1330 H   0  0  0  0  0  0
  -20.5699  -26.2366   23.3641 H   0  0  0  0  0  0
  -21.6675  -26.7457   22.1214 H   0  0  0  0  0  0
  -19.6977  -25.6275   21.1284 H   0  0  0  0  0  0
  -19.6774  -27.3151   20.6702 H   0  0  0  0  0  0
  -17.4242  -26.6659   21.3979 H   0  0  0  0  0  0
  -18.0376  -26.0113   22.9016 H   0  0  0  0  0  0
  -19.7963  -30.7318   24.2171 H   0  0  0  0  0  0
  -17.5048  -31.6284   24.5175 H   0  0  0  0  0  0
  -15.5369  -30.2992   23.7739 H   0  0  0  0  0  0
  -15.8675  -28.0867   22.7053 H   0  0  0  0  0  0
  -24.5931  -30.7064   25.7670 H   0  0  0  0  0  0
  -24.8931  -32.2946   26.4647 H   0  0  0  0  0  0
  -25.8010  -30.8981   27.0194 H   0  0  0  0  0  0
  -26.3121  -29.6530   24.1371 H   0  0  0  0  0  0
  -27.4055  -29.7232   25.4968 H   0  0  0  0  0  0
  -27.9041  -30.4047   23.9705 H   0  0  0  0  0  0
  -27.2613  -33.3609   26.1976 H   0  0  0  0  0  0
  -28.3944  -32.6818   25.0369 H   0  0  0  0  0  0
  -28.0668  -31.8470   26.5481 H   0  0  0  0  0  0
  -28.2556  -38.0092   24.7482 H   0  0  0  0  0  0
  -28.1100  -36.2610   24.6293 H   0  0  0  0  0  0
  -27.2281  -37.1425   25.8854 H   0  0  0  0  0  0
  -20.9477  -29.8717   21.6663 H   0  0  0  0  0  0
  -26.0125  -38.2743   24.1414 H   0  0  0  0  0  0
  -28.4323  -21.1204   18.2924 H   0  0  0  0  0  0
  -28.5321  -19.0125   17.1025 H   0  0  0  0  0  0
  -29.6574  -19.0336   21.8484 H   0  0  0  0  0  0
  -29.4059  -21.4876   21.9116 H   0  0  0  0  0  0
  -28.9207  -16.7942   16.8038 H   0  0  0  0  0  0
  -28.4515  -15.8065   18.1692 H   0  0  0  0  0  0
  -30.1661  -16.0714   17.7963 H   0  0  0  0  0  0
  -28.8253  -16.7822   22.6035 H   0  0  0  0  0  0
  -30.5778  -16.9983   22.6256 H   0  0  0  0  0  0
  -29.8842  -15.3958   22.7894 H   0  0  0  0  0  0
  -27.0308  -24.2364   19.9493 H   0  0  0  0  0  0
  -28.4813  -24.2828   19.0027 H   0  0  0  0  0  0
  -27.5718  -22.5270   23.0512 H   0  0  0  0  0  0
  -28.4045  -23.4988   24.2337 H   0  0  0  0  0  0
  1 25  1  0  0  0
  1 30  2  0  0  0
  1 84  1  0  0  0
  2  3  1  0  0  0
  2 25  1  0  0  0
  2 86  1  0  0  0
  2 87  1  0  0  0
  3  4  1  0  0  0
  3 88  1  0  0  0
  3 89  1  0  0  0
  4  5  1  0  0  0
  4 90  1  0  0  0
  4 91  1  0  0  0
  5  6  1  0  0  0
  5 26  1  0  0  0
  5 92  1  0  0  0
  6 25  1  0  0  0
  6 93  1  0  0  0
  6 94  1  0  0  0
  7  8  2  0  0  0
  7 26  1  0  0  0
  7 29  1  0  0  0
  8  9  1  0  0  0
  8 22  1  0  0  0
  9 10  1  0  0  0
  9 27  2  0  0  0
 10 11  2  0  0  0
 10 15  1  0  0  0
 11 12  1  0  0  0
 11 95  1  0  0  0
 12 13  2  0  0  0
 12 96  1  0  0  0
 13 14  1  0  0  0
 13 31  1  0  0  0
 14 15  2  0  0  0
 14 97  1  0  0  0
 15 98  1  0  0  0
 16 17  2  0  0  0
 16 21  1  0  0  0
 16 31  1  0  0  0
 17 18  1  0  0  0
 17 99  1  0  0  0
 18 19  2  0  0  0
 18100  1  0  0  0
 19 20  1  0  0  0
 19 24  1  0  0  0
 20 21  2  0  0  0
 20101  1  0  0  0
 21 23  1  0  0  0
 22 28  1  0  0  0
 22 32  2  0  0  0
 26 27  1  0  0  0
 28102  1  0  0  0
 28103  1  0  0  0
 29104  1  0  0  0
 29105  1  0  0  0
 33 34  1  0  0  0
 33 66  1  0  0  0
 33 70  2  0  0  0
 34 36  1  0  0  0
 34 59  1  0  0  0
 34106  1  0  0  0
 35 44  2  0  0  0
 35 45  1  0  0  0
 35 68  1  0  0  0
 36 56  1  0  0  0
 36107  1  0  0  0
 37 39  1  0  0  0
 37 47  1  0  0  0
 37 66  1  0  0  0
 37108  1  0  0  0
 38 43  2  0  0  0
 38 46  1  0  0  0
 38 47  1  0  0  0
 39 64  1  0  0  0
 39 67  2  0  0  0
 40 52  1  0  0  0
 40 53  2  0  0  0
 40 58  1  0  0  0
 41109  1  0  0  0
 41110  1  0  0  0
 41111  1  0  0  0
 41 48  1  0  0  0
 42 43  1  0  0  0
 42 66  1  0  0  0
 42112  1  0  0  0
 42113  1  0  0  0
 43 44  1  0  0  0
 44114  1  0  0  0
 45 46  2  0  0  0
 45115  1  0  0  0
 46116  1  0  0  0
 47117  1  0  0  0
 47118  1  0  0  0
 48 56  1  0  0  0
 48 65  1  0  0  0
 48119  1  0  0  0
 49 50  1  0  0  0
 49 53  1  0  0  0
 49 64  1  0  0  0
 49120  1  0  0  0
 50 51  1  0  0  0
 50121  1  0  0  0
 50122  1  0  0  0
 51 52  1  0  0  0
 51123  1  0  0  0
 51124  1  0  0  0
 52125  1  0  0  0
 52126  1  0  0  0
 53 54  1  0  0  0
 54 55  2  0  0  0
 54127  1  0  0  0
 55 57  1  0  0  0
 55128  1  0  0  0
 56 69  2  0  0  0
 57 58  2  0  0  0
 57129  1  0  0  0
 58130  1  0  0  0
 59 60  1  0  0  0
 59 61  1  0  0  0
 59 62  1  0  0  0
 60131  1  0  0  0
 60132  1  0  0  0
 60133  1  0  0  0
 61134  1  0  0  0
 61135  1  0  0  0
 61136  1  0  0  0
 62137  1  0  0  0
 62138  1  0  0  0
 62139  1  0  0  0
 63 65  1  0  0  0
 63140  1  0  0  0
 63141  1  0  0  0
 63142  1  0  0  0
 64143  1  0  0  0
 65144  1  0  0  0
 68 82  1  0  0  0
 71 72  2  0  0  0
 71 74  1  0  0  0
 71145  1  0  0  0
 72 75  1  0  0  0
 72146  1  0  0  0
 73 74  2  0  0  0
 73 76  1  0  0  0
 73147  1  0  0  0
 74 77  1  0  0  0
 75 76  2  0  0  0
 75 80  1  0  0  0
 76 84  1  0  0  0
 77 78  2  0  0  0
 77148  1  0  0  0
 78 79  1  0  0  0
 78 82  1  0  0  0
 79 83  1  0  0  0
 79 85  2  0  0  0
 80149  1  0  0  0
 80150  1  0  0  0
 80151  1  0  0  0
 81 84  1  0  0  0
 81152  1  0  0  0
 81153  1  0  0  0
 81154  1  0  0  0
 82155  1  0  0  0
 82156  1  0  0  0
 83157  1  0  0  0
 83158  1  0  0  0
M  ISO  4   1 100  68 101  82 101  84 100
M  END
> <chiral flag>
0

> <version>
0

> <s_m_source_file>
/data/baiqing/PycharmProjects/Reinvent-master-3.2/result/LINK_invent/BTK/process_docking_weight1_custom_sum_contain_oxygen_bond_distance_aromatic_linkinvent_7_9_3/rearranged_h_0008.sdf

> <i_m_source_file_index>
60

> <r_mmod_Potential_Energy-OPLS-2005>
818.862976074219

> <r_mmod_Stretch_Energy-OPLS-2005>
362.767059326172

> <r_mmod_Bend_Energy-OPLS-2005>
374.041717529297

> <r_mmod_Torsional_Energy-OPLS-2005>
297.488922119141

> <r_mmod_Improper_Torsional_Energy-OPLS-2005>
3.2711546421051

> <r_mmod_Van_der_Waal_Energy-OPLS-2005>
139.749496459961

> <r_mmod_Electrostatic_Energy-OPLS-2005>
-396.864501953125

> <r_mmod_Solvation_Energy-OPLS-2005>
-238.729568481445

> <b_mmod_Minimization_Converged-OPLS-2005>
0

> <r_mmod_RMS_Derivative-OPLS-2005>
3.94950652122498

$$$$
60
                    3D
 Structure written by MMmdl.
158166  0  0  1  0            999 V2000
  -30.7599  -14.3764   20.6407 C   0  0  0  0  0  0
  -30.4130  -12.2750   19.4015 C   0  0  0  0  0  0
  -29.4874  -12.5094   18.1918 C   0  0  0  0  0  0
  -28.0069  -12.3862   18.6022 C   0  0  0  0  0  0
  -27.6641  -13.2043   19.8756 C   0  0  2  0  0  0
  -28.7011  -12.9499   20.9894 C   0  0  0  0  0  0
  -25.2604  -13.8164   20.5663 C   0  0  0  0  0  0
  -24.1850  -13.0443   20.9154 C   0  0  0  0  0  0
  -24.6395  -11.6907   20.8709 C   0  0  0  0  0  0
  -23.9062  -10.4292   21.0385 C   0  0  0  0  0  0
  -24.3607   -9.4218   21.9176 C   0  0  0  0  0  0
  -23.6280   -8.2256   22.0756 C   0  0  0  0  0  0
  -22.4265   -8.0287   21.3547 C   0  0  0  0  0  0
  -21.9897   -9.0260   20.4654 C   0  0  0  0  0  0
  -22.7222  -10.2140   20.3050 C   0  0  0  0  0  0
  -21.6862   -6.0728   22.5274 C   0  0  0  0  0  0
  -21.4015   -6.5628   23.8206 C   0  0  0  0  0  0
  -21.3659   -5.6781   24.9171 C   0  0  0  0  0  0
  -21.6044   -4.3046   24.7224 C   0  0  0  0  0  0
  -21.8818   -3.8139   23.4342 C   0  0  0  0  0  0
  -21.9193   -4.6953   22.3395 C   0  0  0  0  0  0
  -22.7876  -13.5256   21.1821 C   0  0  0  0  0  0
  -22.1662   -4.2134   21.0975 F   0  0  0  0  0  0
  -21.5633   -3.4533   25.7738 F   0  0  0  0  0  0
  -30.0406  -13.2397   20.4457 N   0  0  0  0  0  0
  -26.3038  -12.9325   20.3358 N   0  0  0  0  0  0
  -25.9315  -11.6482   20.5722 N   0  0  0  0  0  0
  -22.0509  -12.8256   22.0379 N   0  0  0  0  0  0
  -25.4334  -15.1883   20.4099 N   0  0  0  0  0  0
  -31.8491  -14.5885   20.0962 O   0  0  0  0  0  0
  -21.6643   -6.8872   21.4237 O   0  0  0  0  0  0
  -22.3568  -14.5568   20.6682 O   0  0  0  0  0  0
  -24.6134  -31.8702   23.2110 C   0  0  0  0  0  0
  -25.9037  -32.4831   23.8396 C   0  0  1  0  0  0
  -27.2346  -27.4575   20.0772 C   0  0  0  0  0  0
  -25.5899  -33.8629   24.2327 N   0  0  0  0  0  0
  -23.3980  -30.4952   21.5535 C   0  0  2  0  0  0
  -24.8394  -28.9623   20.1175 C   0  0  0  0  0  0
  -22.7384  -29.4687   22.5018 C   0  0  0  0  0  0
  -18.0257  -28.1384   22.8496 C   0  0  0  0  0  0
  -24.1485  -36.7317   23.2637 C   0  0  0  0  0  0
  -25.9240  -30.8425   21.3568 C   0  0  0  0  0  0
  -25.9999  -29.4779   20.7058 C   0  0  0  0  0  0
  -27.1991  -28.7347   20.6783 C   0  0  0  0  0  0
  -26.0457  -26.9432   19.5061 C   0  0  0  0  0  0
  -24.8557  -27.6926   19.5174 C   0  0  0  0  0  0
  -23.6018  -29.8271   20.1683 C   0  0  0  0  0  0
  -25.4106  -36.3115   24.0335 C   0  0  1  0  0  0
  -20.5843  -28.3673   23.1329 C   0  0  2  0  0  0
  -20.6755  -26.9417   22.5424 C   0  0  0  0  0  0
  -19.5733  -26.6395   21.5223 C   0  0  0  0  0  0
  -18.1907  -26.7928   22.1628 C   0  0  0  0  0  0
  -19.1505  -28.8844   23.2905 C   0  0  0  0  0  0
  -18.9439  -30.1448   23.8919 C   0  0  0  0  0  0
  -17.6446  -30.6593   24.0576 C   0  0  0  0  0  0
  -25.9038  -34.9482   23.5128 C   0  0  0  0  0  0
  -16.5336  -29.9102   23.6331 C   0  0  0  0  0  0
  -16.7247  -28.6519   23.0348 C   0  0  0  0  0  0
  -26.4466  -31.6595   25.0710 C   0  0  0  0  0  0
  -25.3735  -31.3679   26.1456 C   0  0  0  0  0  0
  -27.0293  -30.3047   24.6056 C   0  0  0  0  0  0
  -27.6051  -32.4301   25.7464 C   0  0  0  0  0  0
  -27.5577  -37.1808   24.8462 C   0  0  0  0  0  0
  -21.4118  -29.3041   22.3739 N   0  0  0  0  0  0
  -26.4287  -37.3804   23.9412 N   0  0  0  0  0  0
  -24.6643  -31.0820   22.1001 N   0  0  0  0  0  0
  -23.4162  -28.8235   23.3061 O   0  0  0  0  0  0
  -28.4358  -26.7800   20.0649 O   0  0  0  0  0  0
  -26.5601  -34.8936   22.4687 O   0  0  0  0  0  0
  -23.5331  -32.1451   23.7518 O   0  0  0  0  0  0
  -29.8972  -17.8128   21.5185 C   0  0  0  0  0  0
  -29.7375  -19.0709   20.9075 C   0  0  0  0  0  0
  -29.6199  -16.7340   19.3591 C   0  0  0  0  0  0
  -29.8802  -16.6235   20.7502 C   0  0  0  0  0  0
  -29.5437  -19.1722   19.5095 C   0  0  0  0  0  0
  -29.4712  -17.9905   18.7432 C   0  0  0  0  0  0
  -29.2143  -21.6371   19.2839 C   0  0  0  0  0  0
  -30.2781  -15.2505   22.8199 C   0  0  0  0  0  0
  -29.5006  -22.8139   18.3433 C   0  0  0  0  0  0
  -28.4385  -25.3697   19.8414 C   0  0  0  0  0  0
  -28.5245  -24.9989   18.3457 C   0  0  0  0  0  0
  -29.5124  -20.4149   18.8191 N   0  0  0  0  0  0
  -30.1575  -15.3494   21.3595 N   0  0  0  0  0  0
  -28.7061  -21.8516   20.3883 O   0  0  0  0  0  0
  -28.3199  -23.5992   18.1779 O   0  0  0  0  0  0
  -29.2342  -18.0639   17.0310 Cl  0  0  0  0  0  0
  -31.4594  -12.3592   19.1007 H   0  0  0  0  0  0
  -30.2980  -11.2572   19.7781 H   0  0  0  0  0  0
  -29.7158  -11.7924   17.4016 H   0  0  0  0  0  0
  -29.6735  -13.4974   17.7683 H   0  0  0  0  0  0
  -27.7977  -11.3291   18.7722 H   0  0  0  0  0  0
  -27.3641  -12.6941   17.7770 H   0  0  0  0  0  0
  -27.7206  -14.2584   19.6048 H   0  0  0  0  0  0
  -28.6626  -11.9094   21.3148 H   0  0  0  0  0  0
  -28.4517  -13.5358   21.8733 H   0  0  0  0  0  0
  -25.2748   -9.5697   22.4757 H   0  0  0  0  0  0
  -23.9987   -7.4650   22.7477 H   0  0  0  0  0  0
  -21.0828   -8.8772   19.8969 H   0  0  0  0  0  0
  -22.3667  -10.9677   19.6160 H   0  0  0  0  0  0
  -21.2004   -7.6136   23.9706 H   0  0  0  0  0  0
  -21.1488   -6.0513   25.9072 H   0  0  0  0  0  0
  -22.0599   -2.7598   23.2845 H   0  0  0  0  0  0
  -22.4097  -11.9903   22.4763 H   0  0  0  0  0  0
  -21.1138  -13.1316   22.2589 H   0  0  0  0  0  0
  -24.6704  -15.8458   20.5268 H   0  0  0  0  0  0
  -26.2988  -15.6321   20.1296 H   0  0  0  0  0  0
  -26.7108  -32.5557   23.1163 H   0  0  0  0  0  0
  -25.0052  -33.9800   25.0474 H   0  0  0  0  0  0
  -22.6861  -31.3117   21.4159 H   0  0  0  0  0  0
  -23.3749  -35.9648   23.3302 H   0  0  0  0  0  0
  -24.3583  -36.8934   22.2053 H   0  0  0  0  0  0
  -23.7235  -37.6520   23.6653 H   0  0  0  0  0  0
  -26.0257  -31.6055   20.5844 H   0  0  0  0  0  0
  -26.8168  -30.9005   21.9676 H   0  0  0  0  0  0
  -28.0994  -29.1381   21.1198 H   0  0  0  0  0  0
  -26.0105  -25.9703   19.0404 H   0  0  0  0  0  0
  -23.9616  -27.2877   19.0632 H   0  0  0  0  0  0
  -23.7076  -30.6012   19.4074 H   0  0  0  0  0  0
  -22.7261  -29.2447   19.8760 H   0  0  0  0  0  0
  -25.1281  -36.1979   25.0829 H   0  0  0  0  0  0
  -20.9922  -28.3250   24.1454 H   0  0  0  0  0  0
  -20.5686  -26.2292   23.3612 H   0  0  0  0  0  0
  -21.6627  -26.7488   22.1206 H   0  0  0  0  0  0
  -19.6911  -25.6312   21.1240 H   0  0  0  0  0  0
  -19.6669  -27.3223   20.6764 H   0  0  0  0  0  0
  -17.4185  -26.6676   21.4020 H   0  0  0  0  0  0
  -18.0304  -26.0064   22.9017 H   0  0  0  0  0  0
  -19.7918  -30.7249   24.2300 H   0  0  0  0  0  0
  -17.5010  -31.6274   24.5175 H   0  0  0  0  0  0
  -15.5341  -30.3020   23.7645 H   0  0  0  0  0  0
  -15.8640  -28.0857   22.7045 H   0  0  0  0  0  0
  -24.5917  -30.7023   25.7777 H   0  0  0  0  0  0
  -24.8918  -32.2824   26.4923 H   0  0  0  0  0  0
  -25.8095  -30.8828   27.0198 H   0  0  0  0  0  0
  -26.2824  -29.6803   24.1140 H   0  0  0  0  0  0
  -27.4109  -29.7283   25.4493 H   0  0  0  0  0  0
  -27.8633  -30.4378   23.9163 H   0  0  0  0  0  0
  -27.2689  -33.3600   26.2056 H   0  0  0  0  0  0
  -28.3845  -32.6854   25.0274 H   0  0  0  0  0  0
  -28.0727  -31.8409   26.5361 H   0  0  0  0  0  0
  -28.2589  -38.0112   24.7532 H   0  0  0  0  0  0
  -28.1077  -36.2646   24.6256 H   0  0  0  0  0  0
  -27.2299  -37.1426   25.8865 H   0  0  0  0  0  0
  -20.9280  -29.8759   21.6953 H   0  0  0  0  0  0
  -26.0173  -38.2877   24.1433 H   0  0  0  0  0  0
  -30.0797  -17.7941   22.5828 H   0  0  0  0  0  0
  -29.8148  -19.9502   21.5294 H   0  0  0  0  0  0
  -29.5756  -15.8591   18.7275 H   0  0  0  0  0  0
  -31.1563  -15.7950   23.1704 H   0  0  0  0  0  0
  -30.3820  -14.2187   23.1624 H   0  0  0  0  0  0
  -29.3928  -15.6599   23.3074 H   0  0  0  0  0  0
  -29.8331  -22.4628   17.3651 H   0  0  0  0  0  0
  -30.3279  -23.3815   18.7724 H   0  0  0  0  0  0
  -29.3046  -24.9607   20.3623 H   0  0  0  0  0  0
  -27.5743  -24.8995   20.3129 H   0  0  0  0  0  0
  -29.4677  -25.3271   17.9055 H   0  0  0  0  0  0
  -27.7450  -25.5088   17.7822 H   0  0  0  0  0  0
  -29.7595  -20.3639   17.8394 H   0  0  0  0  0  0
  1 25  1  0  0  0
  1 30  2  0  0  0
  1 83  1  0  0  0
  2  3  1  0  0  0
  2 25  1  0  0  0
  2 87  1  0  0  0
  2 88  1  0  0  0
  3  4  1  0  0  0
  3 89  1  0  0  0
  3 90  1  0  0  0
  4  5  1  0  0  0
  4 91  1  0  0  0
  4 92  1  0  0  0
  5  6  1  0  0  0
  5 26  1  0  0  0
  5 93  1  0  0  0
  6 25  1  0  0  0
  6 94  1  0  0  0
  6 95  1  0  0  0
  7  8  2  0  0  0
  7 26  1  0  0  0
  7 29  1  0  0  0
  8  9  1  0  0  0
  8 22  1  0  0  0
  9 10  1  0  0  0
  9 27  2  0  0  0
 10 11  2  0  0  0
 10 15  1  0  0  0
 11 12  1  0  0  0
 11 96  1  0  0  0
 12 13  2  0  0  0
 12 97  1  0  0  0
 13 14  1  0  0  0
 13 31  1  0  0  0
 14 15  2  0  0  0
 14 98  1  0  0  0
 15 99  1  0  0  0
 16 17  2  0  0  0
 16 21  1  0  0  0
 16 31  1  0  0  0
 17 18  1  0  0  0
 17100  1  0  0  0
 18 19  2  0  0  0
 18101  1  0  0  0
 19 20  1  0  0  0
 19 24  1  0  0  0
 20 21  2  0  0  0
 20102  1  0  0  0
 21 23  1  0  0  0
 22 28  1  0  0  0
 22 32  2  0  0  0
 26 27  1  0  0  0
 28103  1  0  0  0
 28104  1  0  0  0
 29105  1  0  0  0
 29106  1  0  0  0
 33 34  1  0  0  0
 33 66  1  0  0  0
 33 70  2  0  0  0
 34 36  1  0  0  0
 34 59  1  0  0  0
 34107  1  0  0  0
 35 44  2  0  0  0
 35 45  1  0  0  0
 35 68  1  0  0  0
 36 56  1  0  0  0
 36108  1  0  0  0
 37 39  1  0  0  0
 37 47  1  0  0  0
 37 66  1  0  0  0
 37109  1  0  0  0
 38 43  2  0  0  0
 38 46  1  0  0  0
 38 47  1  0  0  0
 39 64  1  0  0  0
 39 67  2  0  0  0
 40 52  1  0  0  0
 40 53  2  0  0  0
 40 58  1  0  0  0
 41110  1  0  0  0
 41111  1  0  0  0
 41112  1  0  0  0
 41 48  1  0  0  0
 42 43  1  0  0  0
 42 66  1  0  0  0
 42113  1  0  0  0
 42114  1  0  0  0
 43 44  1  0  0  0
 44115  1  0  0  0
 45 46  2  0  0  0
 45116  1  0  0  0
 46117  1  0  0  0
 47118  1  0  0  0
 47119  1  0  0  0
 48 56  1  0  0  0
 48 65  1  0  0  0
 48120  1  0  0  0
 49 50  1  0  0  0
 49 53  1  0  0  0
 49 64  1  0  0  0
 49121  1  0  0  0
 50 51  1  0  0  0
 50122  1  0  0  0
 50123  1  0  0  0
 51 52  1  0  0  0
 51124  1  0  0  0
 51125  1  0  0  0
 52126  1  0  0  0
 52127  1  0  0  0
 53 54  1  0  0  0
 54 55  2  0  0  0
 54128  1  0  0  0
 55 57  1  0  0  0
 55129  1  0  0  0
 56 69  2  0  0  0
 57 58  2  0  0  0
 57130  1  0  0  0
 58131  1  0  0  0
 59 60  1  0  0  0
 59 61  1  0  0  0
 59 62  1  0  0  0
 60132  1  0  0  0
 60133  1  0  0  0
 60134  1  0  0  0
 61135  1  0  0  0
 61136  1  0  0  0
 61137  1  0  0  0
 62138  1  0  0  0
 62139  1  0  0  0
 62140  1  0  0  0
 63 65  1  0  0  0
 63141  1  0  0  0
 63142  1  0  0  0
 63143  1  0  0  0
 64144  1  0  0  0
 65145  1  0  0  0
 68 80  1  0  0  0
 71 72  2  0  0  0
 71 74  1  0  0  0
 71146  1  0  0  0
 72 75  1  0  0  0
 72147  1  0  0  0
 73 74  2  0  0  0
 73 76  1  0  0  0
 73148  1  0  0  0
 74 83  1  0  0  0
 75 76  2  0  0  0
 75 82  1  0  0  0
 76 86  1  0  0  0
 77 79  1  0  0  0
 77 82  1  0  0  0
 77 84  2  0  0  0
 78 83  1  0  0  0
 78149  1  0  0  0
 78150  1  0  0  0
 78151  1  0  0  0
 79 85  1  0  0  0
 79152  1  0  0  0
 79153  1  0  0  0
 80 81  1  0  0  0
 80154  1  0  0  0
 80155  1  0  0  0
 81 85  1  0  0  0
 81156  1  0  0  0
 81157  1  0  0  0
 82158  1  0  0  0
M  ISO  4   1 100  68 101  80 101  83 100
M  END
> <chiral flag>
0

> <version>
0

> <s_m_source_file>
/data/baiqing/PycharmProjects/Reinvent-master-3.2/result/LINK_invent/BTK/process_docking_weight1_custom_sum_contain_oxygen_bond_distance_aromatic_linkinvent_7_9_3/rearranged_h_0008.sdf

> <i_m_source_file_index>
61

> <r_mmod_Potential_Energy-OPLS-2005>
88.5590286254883

> <r_mmod_Stretch_Energy-OPLS-2005>
36.1530876159668

> <r_mmod_Bend_Energy-OPLS-2005>
103.729431152344

> <r_mmod_Torsional_Energy-OPLS-2005>
296.587921142578

> <r_mmod_Improper_Torsional_Energy-OPLS-2005>
4.4563045501709

> <r_mmod_Van_der_Waal_Energy-OPLS-2005>
168.524047851562

> <r_mmod_Electrostatic_Energy-OPLS-2005>
-313.189514160156

> <r_mmod_Solvation_Energy-OPLS-2005>
-216.567886352539

> <b_mmod_Minimization_Converged-OPLS-2005>
0

> <r_mmod_RMS_Derivative-OPLS-2005>
1.17391216754913

$$$$
61
                    3D
 Structure written by MMmdl.
154162  0  0  1  0            999 V2000
  -30.6970  -14.6534   20.4827 C   0  0  0  0  0  0
  -30.4127  -12.4054   19.4618 C   0  0  0  0  0  0
  -29.4932  -12.4936   18.2272 C   0  0  0  0  0  0
  -28.0208  -12.3325   18.6460 C   0  0  0  0  0  0
  -27.6427  -13.2328   19.8533 C   0  0  2  0  0  0
  -28.6913  -13.1595   20.9860 C   0  0  0  0  0  0
  -25.2525  -13.8208   20.5747 C   0  0  0  0  0  0
  -24.1813  -13.0468   20.9239 C   0  0  0  0  0  0
  -24.6388  -11.6933   20.8753 C   0  0  0  0  0  0
  -23.9056  -10.4307   21.0423 C   0  0  0  0  0  0
  -24.3607   -9.4221   21.9211 C   0  0  0  0  0  0
  -23.6301   -8.2235   22.0757 C   0  0  0  0  0  0
  -22.4274   -8.0289   21.3546 C   0  0  0  0  0  0
  -21.9917   -9.0246   20.4635 C   0  0  0  0  0  0
  -22.7229  -10.2136   20.3063 C   0  0  0  0  0  0
  -21.6847   -6.0762   22.5294 C   0  0  0  0  0  0
  -21.4007   -6.5658   23.8236 C   0  0  0  0  0  0
  -21.3646   -5.6800   24.9201 C   0  0  0  0  0  0
  -21.6041   -4.3064   24.7235 C   0  0  0  0  0  0
  -21.8807   -3.8169   23.4351 C   0  0  0  0  0  0
  -21.9189   -4.6999   22.3423 C   0  0  0  0  0  0
  -22.7820  -13.5230   21.1919 C   0  0  0  0  0  0
  -22.1661   -4.2179   21.1002 F   0  0  0  0  0  0
  -21.5619   -3.4555   25.7754 F   0  0  0  0  0  0
  -29.9995  -13.4733   20.3974 N   0  0  0  0  0  0
  -26.2953  -12.9420   20.3321 N   0  0  0  0  0  0
  -25.9331  -11.6557   20.5774 N   0  0  0  0  0  0
  -22.0464  -12.8200   22.0431 N   0  0  0  0  0  0
  -25.4246  -15.1943   20.4208 N   0  0  0  0  0  0
  -31.8841  -14.6920   20.1534 O   0  0  0  0  0  0
  -21.6625   -6.8900   21.4250 O   0  0  0  0  0  0
  -22.3499  -14.5552   20.6789 O   0  0  0  0  0  0
  -24.6211  -31.8592   23.2010 C   0  0  0  0  0  0
  -25.9081  -32.4754   23.8338 C   0  0  1  0  0  0
  -27.2385  -27.3091   20.1073 C   0  0  0  0  0  0
  -25.5944  -33.8557   24.2249 N   0  0  0  0  0  0
  -23.4159  -30.4840   21.5398 C   0  0  2  0  0  0
  -24.8688  -28.9347   20.1085 C   0  0  0  0  0  0
  -22.7454  -29.4607   22.4877 C   0  0  0  0  0  0
  -18.0308  -28.1346   22.8478 C   0  0  0  0  0  0
  -24.1482  -36.7249   23.2661 C   0  0  0  0  0  0
  -25.9600  -30.7787   21.3840 C   0  0  0  0  0  0
  -26.0359  -29.4087   20.7208 C   0  0  0  0  0  0
  -27.2147  -28.6055   20.7146 C   0  0  0  0  0  0
  -26.0339  -26.8747   19.5047 C   0  0  0  0  0  0
  -24.8718  -27.6687   19.5002 C   0  0  0  0  0  0
  -23.6381  -29.8184   20.1545 C   0  0  0  0  0  0
  -25.4097  -36.3032   24.0339 C   0  0  1  0  0  0
  -20.5894  -28.3670   23.1265 C   0  0  2  0  0  0
  -20.6772  -26.9367   22.5420 C   0  0  0  0  0  0
  -19.5758  -26.6349   21.5206 C   0  0  0  0  0  0
  -18.1939  -26.7899   22.1579 C   0  0  0  0  0  0
  -19.1557  -28.8816   23.2860 C   0  0  0  0  0  0
  -18.9508  -30.1432   23.8866 C   0  0  0  0  0  0
  -17.6514  -30.6566   24.0561 C   0  0  0  0  0  0
  -25.9072  -34.9436   23.5076 C   0  0  0  0  0  0
  -16.5405  -29.9062   23.6362 C   0  0  0  0  0  0
  -16.7294  -28.6481   23.0352 C   0  0  0  0  0  0
  -26.4497  -31.6602   25.0731 C   0  0  0  0  0  0
  -25.3757  -31.3746   26.1508 C   0  0  0  0  0  0
  -27.0440  -30.3050   24.6250 C   0  0  0  0  0  0
  -27.6035  -32.4423   25.7473 C   0  0  0  0  0  0
  -27.5570  -37.1750   24.8456 C   0  0  0  0  0  0
  -21.4171  -29.3045   22.3659 N   0  0  0  0  0  0
  -26.4243  -37.3751   23.9458 N   0  0  0  0  0  0
  -24.6820  -31.0581   22.0980 N   0  0  0  0  0  0
  -23.4201  -28.8162   23.2948 O   0  0  0  0  0  0
  -28.3847  -26.4927   20.1718 O   0  0  0  0  0  0
  -26.5615  -34.8908   22.4632 O   0  0  0  0  0  0
  -23.5405  -32.1410   23.7345 O   0  0  0  0  0  0
  -30.8037  -19.7384   21.1245 C   0  0  0  0  0  0
  -28.9581  -18.8656   19.8471 C   0  0  0  0  0  0
  -30.4163  -21.0778   20.8113 C   0  0  0  0  0  0
  -28.5717  -20.2086   19.5321 C   0  0  0  0  0  0
  -30.1149  -18.5928   20.6242 C   0  0  0  0  0  0
  -29.3034  -21.3556   19.9734 C   0  0  0  0  0  0
  -28.8147  -23.8786   20.1376 C   0  0  0  0  0  0
  -29.0200  -22.7639   17.9493 C   0  0  0  0  0  0
  -30.7580  -17.1660   20.8339 C   0  0  0  0  0  0
  -28.5565  -25.2538   19.3686 C   0  0  0  0  0  0
  -30.0419  -15.8346   20.7480 N   0  0  0  0  0  0
  -29.0280  -22.7006   19.4249 N   0  0  0  0  0  0
  -28.8216  -23.8945   21.3757 O   0  0  0  0  0  0
  -31.4564  -12.4907   19.1585 H   0  0  0  0  0  0
  -30.3172  -11.4295   19.9379 H   0  0  0  0  0  0
  -29.7610  -11.7246   17.4998 H   0  0  0  0  0  0
  -29.6302  -13.4527   17.7245 H   0  0  0  0  0  0
  -27.8708  -11.2837   18.9085 H   0  0  0  0  0  0
  -27.3581  -12.5336   17.8014 H   0  0  0  0  0  0
  -27.6396  -14.2552   19.4770 H   0  0  0  0  0  0
  -28.7075  -12.1652   21.4341 H   0  0  0  0  0  0
  -28.4428  -13.8537   21.7906 H   0  0  0  0  0  0
  -25.2752   -9.5704   22.4790 H   0  0  0  0  0  0
  -24.0030   -7.4620   22.7458 H   0  0  0  0  0  0
  -21.0862   -8.8755   19.8914 H   0  0  0  0  0  0
  -22.3711  -10.9685   19.6166 H   0  0  0  0  0  0
  -21.1977   -7.6164   23.9761 H   0  0  0  0  0  0
  -21.1477   -6.0537   25.9109 H   0  0  0  0  0  0
  -22.0584   -2.7633   23.2864 H   0  0  0  0  0  0
  -22.4091  -11.9850   22.4791 H   0  0  0  0  0  0
  -21.1072  -13.1194   22.2641 H   0  0  0  0  0  0
  -24.6585  -15.8501   20.5312 H   0  0  0  0  0  0
  -26.2829  -15.6347   20.1145 H   0  0  0  0  0  0
  -26.7127  -32.5411   23.1052 H   0  0  0  0  0  0
  -25.0245  -33.9735   25.0501 H   0  0  0  0  0  0
  -22.7087  -31.3033   21.3893 H   0  0  0  0  0  0
  -23.3781  -35.9537   23.3298 H   0  0  0  0  0  0
  -24.3571  -36.8894   22.2080 H   0  0  0  0  0  0
  -23.7232  -37.6438   23.6703 H   0  0  0  0  0  0
  -26.1057  -31.5428   20.6223 H   0  0  0  0  0  0
  -26.8314  -30.8147   22.0246 H   0  0  0  0  0  0
  -28.1079  -28.9589   21.2088 H   0  0  0  0  0  0
  -25.9430  -25.8954   19.0657 H   0  0  0  0  0  0
  -23.9724  -27.2846   19.0400 H   0  0  0  0  0  0
  -23.7575  -30.5957   19.3987 H   0  0  0  0  0  0
  -22.7579  -29.2512   19.8436 H   0  0  0  0  0  0
  -25.1254  -36.1852   25.0809 H   0  0  0  0  0  0
  -20.9996  -28.3244   24.1374 H   0  0  0  0  0  0
  -20.5644  -26.2249   23.3619 H   0  0  0  0  0  0
  -21.6642  -26.7355   22.1230 H   0  0  0  0  0  0
  -19.6919  -25.6257   21.1240 H   0  0  0  0  0  0
  -19.6736  -27.3148   20.6729 H   0  0  0  0  0  0
  -17.4220  -26.6737   21.3962 H   0  0  0  0  0  0
  -18.0272  -25.9972   22.8894 H   0  0  0  0  0  0
  -19.7998  -30.7255   24.2176 H   0  0  0  0  0  0
  -17.5089  -31.6255   24.5160 H   0  0  0  0  0  0
  -15.5403  -30.2973   23.7721 H   0  0  0  0  0  0
  -15.8679  -28.0836   22.7035 H   0  0  0  0  0  0
  -24.5959  -30.7017   25.7901 H   0  0  0  0  0  0
  -24.8934  -32.2910   26.4926 H   0  0  0  0  0  0
  -25.8138  -30.9014   27.0304 H   0  0  0  0  0  0
  -26.3061  -29.6717   24.1314 H   0  0  0  0  0  0
  -27.4236  -29.7363   25.4755 H   0  0  0  0  0  0
  -27.8820  -30.4387   23.9398 H   0  0  0  0  0  0
  -27.2616  -33.3770   26.1902 H   0  0  0  0  0  0
  -28.3871  -32.6929   25.0303 H   0  0  0  0  0  0
  -28.0631  -31.8677   26.5519 H   0  0  0  0  0  0
  -28.2506  -38.0129   24.7614 H   0  0  0  0  0  0
  -28.1157  -36.2684   24.6120 H   0  0  0  0  0  0
  -27.2330  -37.1181   25.8862 H   0  0  0  0  0  0
  -20.9334  -29.8835   21.6941 H   0  0  0  0  0  0
  -26.0129  -38.2784   24.1599 H   0  0  0  0  0  0
  -31.6955  -19.6028   21.7246 H   0  0  0  0  0  0
  -28.3845  -18.0463   19.4321 H   0  0  0  0  0  0
  -31.0392  -21.8880   21.1718 H   0  0  0  0  0  0
  -27.7102  -20.3521   18.8891 H   0  0  0  0  0  0
  -29.1186  -21.7857   17.4756 H   0  0  0  0  0  0
  -29.8652  -23.3461   17.5776 H   0  0  0  0  0  0
  -28.1018  -23.1981   17.5527 H   0  0  0  0  0  0
  -31.2845  -17.1777   21.7906 H   0  0  0  0  0  0
  -31.5504  -17.1475   20.0811 H   0  0  0  0  0  0
  -27.7725  -25.1170   18.6334 H   0  0  0  0  0  0
  -29.4531  -25.4364   18.7736 H   0  0  0  0  0  0
  -29.0582  -15.8023   20.9681 H   0  0  0  0  0  0
  1 25  1  0  0  0
  1 30  2  0  0  0
  1 81  1  0  0  0
  2  3  1  0  0  0
  2 25  1  0  0  0
  2 84  1  0  0  0
  2 85  1  0  0  0
  3  4  1  0  0  0
  3 86  1  0  0  0
  3 87  1  0  0  0
  4  5  1  0  0  0
  4 88  1  0  0  0
  4 89  1  0  0  0
  5  6  1  0  0  0
  5 26  1  0  0  0
  5 90  1  0  0  0
  6 25  1  0  0  0
  6 91  1  0  0  0
  6 92  1  0  0  0
  7  8  2  0  0  0
  7 26  1  0  0  0
  7 29  1  0  0  0
  8  9  1  0  0  0
  8 22  1  0  0  0
  9 10  1  0  0  0
  9 27  2  0  0  0
 10 11  2  0  0  0
 10 15  1  0  0  0
 11 12  1  0  0  0
 11 93  1  0  0  0
 12 13  2  0  0  0
 12 94  1  0  0  0
 13 14  1  0  0  0
 13 31  1  0  0  0
 14 15  2  0  0  0
 14 95  1  0  0  0
 15 96  1  0  0  0
 16 17  2  0  0  0
 16 21  1  0  0  0
 16 31  1  0  0  0
 17 18  1  0  0  0
 17 97  1  0  0  0
 18 19  2  0  0  0
 18 98  1  0  0  0
 19 20  1  0  0  0
 19 24  1  0  0  0
 20 21  2  0  0  0
 20 99  1  0  0  0
 21 23  1  0  0  0
 22 28  1  0  0  0
 22 32  2  0  0  0
 26 27  1  0  0  0
 28100  1  0  0  0
 28101  1  0  0  0
 29102  1  0  0  0
 29103  1  0  0  0
 33 34  1  0  0  0
 33 66  1  0  0  0
 33 70  2  0  0  0
 34 36  1  0  0  0
 34 59  1  0  0  0
 34104  1  0  0  0
 35 44  2  0  0  0
 35 45  1  0  0  0
 35 68  1  0  0  0
 36 56  1  0  0  0
 36105  1  0  0  0
 37 39  1  0  0  0
 37 47  1  0  0  0
 37 66  1  0  0  0
 37106  1  0  0  0
 38 43  2  0  0  0
 38 46  1  0  0  0
 38 47  1  0  0  0
 39 64  1  0  0  0
 39 67  2  0  0  0
 40 52  1  0  0  0
 40 53  2  0  0  0
 40 58  1  0  0  0
 41107  1  0  0  0
 41108  1  0  0  0
 41109  1  0  0  0
 41 48  1  0  0  0
 42 43  1  0  0  0
 42 66  1  0  0  0
 42110  1  0  0  0
 42111  1  0  0  0
 43 44  1  0  0  0
 44112  1  0  0  0
 45 46  2  0  0  0
 45113  1  0  0  0
 46114  1  0  0  0
 47115  1  0  0  0
 47116  1  0  0  0
 48 56  1  0  0  0
 48 65  1  0  0  0
 48117  1  0  0  0
 49 50  1  0  0  0
 49 53  1  0  0  0
 49 64  1  0  0  0
 49118  1  0  0  0
 50 51  1  0  0  0
 50119  1  0  0  0
 50120  1  0  0  0
 51 52  1  0  0  0
 51121  1  0  0  0
 51122  1  0  0  0
 52123  1  0  0  0
 52124  1  0  0  0
 53 54  1  0  0  0
 54 55  2  0  0  0
 54125  1  0  0  0
 55 57  1  0  0  0
 55126  1  0  0  0
 56 69  2  0  0  0
 57 58  2  0  0  0
 57127  1  0  0  0
 58128  1  0  0  0
 59 60  1  0  0  0
 59 61  1  0  0  0
 59 62  1  0  0  0
 60129  1  0  0  0
 60130  1  0  0  0
 60131  1  0  0  0
 61132  1  0  0  0
 61133  1  0  0  0
 61134  1  0  0  0
 62135  1  0  0  0
 62136  1  0  0  0
 62137  1  0  0  0
 63 65  1  0  0  0
 63138  1  0  0  0
 63139  1  0  0  0
 63140  1  0  0  0
 64141  1  0  0  0
 65142  1  0  0  0
 68 80  1  0  0  0
 71 73  2  0  0  0
 71 75  1  0  0  0
 71143  1  0  0  0
 72 74  1  0  0  0
 72 75  2  0  0  0
 72144  1  0  0  0
 73 76  1  0  0  0
 73145  1  0  0  0
 74 76  2  0  0  0
 74146  1  0  0  0
 75 79  1  0  0  0
 76 82  1  0  0  0
 77 80  1  0  0  0
 77 82  1  0  0  0
 77 83  2  0  0  0
 78 82  1  0  0  0
 78147  1  0  0  0
 78148  1  0  0  0
 78149  1  0  0  0
 79 81  1  0  0  0
 79150  1  0  0  0
 79151  1  0  0  0
 80152  1  0  0  0
 80153  1  0  0  0
 81154  1  0  0  0
M  ISO  4   1 100  68 101  80 101  81 100
M  END
> <chiral flag>
0

> <version>
0

> <s_m_source_file>
/data/baiqing/PycharmProjects/Reinvent-master-3.2/result/LINK_invent/BTK/process_docking_weight1_custom_sum_contain_oxygen_bond_distance_aromatic_linkinvent_7_9_3/rearranged_h_0008.sdf

> <i_m_source_file_index>
62

> <r_mmod_Potential_Energy-OPLS-2005>
139.730438232422

> <r_mmod_Stretch_Energy-OPLS-2005>
95.555046081543

> <r_mmod_Bend_Energy-OPLS-2005>
165.086669921875

> <r_mmod_Torsional_Energy-OPLS-2005>
254.129165649414

> <r_mmod_Improper_Torsional_Energy-OPLS-2005>
5.41736030578613

> <r_mmod_Van_der_Waal_Energy-OPLS-2005>
151.262084960938

> <r_mmod_Electrostatic_Energy-OPLS-2005>
-351.901763916016

> <r_mmod_Solvation_Energy-OPLS-2005>
-235.723937988281

> <b_mmod_Minimization_Converged-OPLS-2005>
0

> <r_mmod_RMS_Derivative-OPLS-2005>
5.45205402374268

$$$$
62
                    3D
 Structure written by MMmdl.
165173  0  0  1  0            999 V2000
  -30.6232  -14.7220   20.6213 C   0  0  0  0  0  0
  -30.4483  -12.4815   19.4789 C   0  0  0  0  0  0
  -29.5138  -12.5332   18.2459 C   0  0  0  0  0  0
  -28.0335  -12.3475   18.6429 C   0  0  0  0  0  0
  -27.6567  -13.1878   19.8891 C   0  0  2  0  0  0
  -28.7094  -12.9639   21.0032 C   0  0  0  0  0  0
  -25.2523  -13.8050   20.5558 C   0  0  0  0  0  0
  -24.1792  -13.0358   20.9167 C   0  0  0  0  0  0
  -24.6376  -11.6843   20.8803 C   0  0  0  0  0  0
  -23.9058  -10.4243   21.0460 C   0  0  0  0  0  0
  -24.3605   -9.4145   21.9224 C   0  0  0  0  0  0
  -23.6270   -8.2177   22.0741 C   0  0  0  0  0  0
  -22.4243   -8.0264   21.3547 C   0  0  0  0  0  0
  -21.9893   -9.0260   20.4662 C   0  0  0  0  0  0
  -22.7230  -10.2135   20.3099 C   0  0  0  0  0  0
  -21.6823   -6.0726   22.5272 C   0  0  0  0  0  0
  -21.3990   -6.5626   23.8211 C   0  0  0  0  0  0
  -21.3668   -5.6779   24.9174 C   0  0  0  0  0  0
  -21.6056   -4.3047   24.7223 C   0  0  0  0  0  0
  -21.8807   -3.8140   23.4341 C   0  0  0  0  0  0
  -21.9166   -4.6956   22.3396 C   0  0  0  0  0  0
  -22.7833  -13.5204   21.1811 C   0  0  0  0  0  0
  -22.1628   -4.2139   21.0973 F   0  0  0  0  0  0
  -21.5658   -3.4543   25.7742 F   0  0  0  0  0  0
  -29.9801  -13.4909   20.4744 N   0  0  0  0  0  0
  -26.2987  -12.9190   20.3434 N   0  0  0  0  0  0
  -25.9311  -11.6385   20.5895 N   0  0  0  0  0  0
  -22.0494  -12.8248   22.0430 N   0  0  0  0  0  0
  -25.4096  -15.1713   20.3597 N   0  0  0  0  0  0
  -31.7599  -14.7712   20.1253 O   0  0  0  0  0  0
  -21.6601   -6.8866   21.4228 O   0  0  0  0  0  0
  -22.3534  -14.5504   20.6649 O   0  0  0  0  0  0
  -24.6240  -31.8640   23.2097 C   0  0  0  0  0  0
  -25.9104  -32.4795   23.8414 C   0  0  1  0  0  0
  -27.2188  -27.3492   20.0955 C   0  0  0  0  0  0
  -25.5954  -33.8604   24.2329 N   0  0  0  0  0  0
  -23.4163  -30.4931   21.5521 C   0  0  2  0  0  0
  -24.8599  -28.9622   20.1084 C   0  0  0  0  0  0
  -22.7477  -29.4642   22.4956 C   0  0  0  0  0  0
  -18.0282  -28.1376   22.8475 C   0  0  0  0  0  0
  -24.1503  -36.7297   23.2636 C   0  0  0  0  0  0
  -25.9607  -30.8007   21.3854 C   0  0  0  0  0  0
  -26.0313  -29.4380   20.7120 C   0  0  0  0  0  0
  -27.2155  -28.6457   20.6921 C   0  0  0  0  0  0
  -26.0185  -26.9269   19.4710 C   0  0  0  0  0  0
  -24.8556  -27.7128   19.4780 C   0  0  0  0  0  0
  -23.6288  -29.8401   20.1627 C   0  0  0  0  0  0
  -25.4121  -36.3101   24.0345 C   0  0  1  0  0  0
  -20.5880  -28.3683   23.1290 C   0  0  2  0  0  0
  -20.6768  -26.9395   22.5444 C   0  0  0  0  0  0
  -19.5776  -26.6356   21.5218 C   0  0  0  0  0  0
  -18.1936  -26.7924   22.1582 C   0  0  0  0  0  0
  -19.1532  -28.8843   23.2878 C   0  0  0  0  0  0
  -18.9459  -30.1436   23.8905 C   0  0  0  0  0  0
  -17.6465  -30.6580   24.0554 C   0  0  0  0  0  0
  -25.9061  -34.9466   23.5125 C   0  0  0  0  0  0
  -16.5353  -29.9082   23.6321 C   0  0  0  0  0  0
  -16.7267  -28.6489   23.0354 C   0  0  0  0  0  0
  -26.4473  -31.6612   25.0792 C   0  0  0  0  0  0
  -25.3719  -31.3838   26.1554 C   0  0  0  0  0  0
  -27.0209  -30.2971   24.6303 C   0  0  0  0  0  0
  -27.6112  -32.4309   25.7481 C   0  0  0  0  0  0
  -27.5600  -37.1789   24.8447 C   0  0  0  0  0  0
  -21.4198  -29.3026   22.3680 N   0  0  0  0  0  0
  -26.4291  -37.3800   23.9424 N   0  0  0  0  0  0
  -24.6844  -31.0694   22.1033 N   0  0  0  0  0  0
  -23.4214  -28.8179   23.3026 O   0  0  0  0  0  0
  -28.3395  -26.5041   20.1367 O   0  0  0  0  0  0
  -26.5617  -34.8912   22.4685 O   0  0  0  0  0  0
  -23.5417  -32.1412   23.7455 O   0  0  0  0  0  0
  -30.8023  -17.0569   21.3228 C   0  0  0  0  0  0
  -28.9549  -22.8562   21.2275 C   0  0  0  0  0  0
  -29.5898  -19.2148   19.9237 C   0  0  0  0  0  0
  -30.3373  -19.4986   22.3413 C   0  0  0  0  0  0
  -29.6794  -20.7993   19.8445 C   0  0  0  0  0  0
  -29.2670  -20.6369   22.2876 C   0  0  0  0  0  0
  -30.4636  -18.6124   21.0688 C   0  0  0  0  0  0
  -28.9093  -15.5889   23.3828 C   0  0  0  0  0  0
  -27.7667  -17.1184   21.7301 C   0  0  0  0  0  0
  -29.2279  -23.9755   20.1615 C   0  0  0  0  0  0
  -28.0856  -25.0597   19.9633 C   0  0  0  0  0  0
  -28.7181  -15.9223   21.8850 C   0  0  0  0  0  0
  -29.3278  -21.5257   21.0977 N   0  0  0  0  0  0
  -30.0139  -15.9148   21.1231 N   0  0  0  0  0  0
  -31.9302  -16.9188   21.8149 O   0  0  0  0  0  0
  -28.4251  -23.2452   22.2737 O   0  0  0  0  0  0
  -31.4795  -12.6387   19.1604 H   0  0  0  0  0  0
  -30.4600  -11.4818   19.9164 H   0  0  0  0  0  0
  -29.8077  -11.7695   17.5245 H   0  0  0  0  0  0
  -29.6338  -13.4957   17.7458 H   0  0  0  0  0  0
  -27.8739  -11.2885   18.8527 H   0  0  0  0  0  0
  -27.3779  -12.5935   17.8067 H   0  0  0  0  0  0
  -27.6894  -14.2275   19.5670 H   0  0  0  0  0  0
  -28.7872  -11.8935   21.1974 H   0  0  0  0  0  0
  -28.4368  -13.3281   21.9882 H   0  0  0  0  0  0
  -25.2742   -9.5596   22.4834 H   0  0  0  0  0  0
  -23.9975   -7.4526   22.7403 H   0  0  0  0  0  0
  -21.0826   -8.8830   19.8949 H   0  0  0  0  0  0
  -22.3708  -10.9729   19.6242 H   0  0  0  0  0  0
  -21.1989   -7.6136   23.9736 H   0  0  0  0  0  0
  -21.1506   -6.0501   25.9094 H   0  0  0  0  0  0
  -22.0602   -2.7607   23.2837 H   0  0  0  0  0  0
  -22.4130  -11.9949   22.4869 H   0  0  0  0  0  0
  -21.1154  -13.1335   22.2696 H   0  0  0  0  0  0
  -24.6172  -15.8032   20.3895 H   0  0  0  0  0  0
  -26.2312  -15.5873   19.9425 H   0  0  0  0  0  0
  -26.7190  -32.5437   23.1185 H   0  0  0  0  0  0
  -25.0167  -33.9783   25.0512 H   0  0  0  0  0  0
  -22.7077  -31.3124   21.4168 H   0  0  0  0  0  0
  -23.3778  -35.9612   23.3267 H   0  0  0  0  0  0
  -24.3604  -36.8930   22.2053 H   0  0  0  0  0  0
  -23.7221  -37.6481   23.6661 H   0  0  0  0  0  0
  -26.1162  -31.5785   20.6361 H   0  0  0  0  0  0
  -26.8322  -30.8219   22.0293 H   0  0  0  0  0  0
  -28.1170  -29.0128   21.1610 H   0  0  0  0  0  0
  -25.9310  -25.9783   18.9654 H   0  0  0  0  0  0
  -23.9615  -27.3482   18.9912 H   0  0  0  0  0  0
  -23.7507  -30.6240   19.4142 H   0  0  0  0  0  0
  -22.7485  -29.2746   19.8529 H   0  0  0  0  0  0
  -25.1293  -36.1966   25.0839 H   0  0  0  0  0  0
  -20.9966  -28.3261   24.1416 H   0  0  0  0  0  0
  -20.5603  -26.2313   23.3666 H   0  0  0  0  0  0
  -21.6657  -26.7384   22.1290 H   0  0  0  0  0  0
  -19.6937  -25.6256   21.1284 H   0  0  0  0  0  0
  -19.6743  -27.3146   20.6744 H   0  0  0  0  0  0
  -17.4232  -26.6704   21.3952 H   0  0  0  0  0  0
  -18.0273  -26.0044   22.8946 H   0  0  0  0  0  0
  -19.7939  -30.7233   24.2292 H   0  0  0  0  0  0
  -17.5021  -31.6264   24.5158 H   0  0  0  0  0  0
  -15.5352  -30.2994   23.7632 H   0  0  0  0  0  0
  -15.8656  -28.0798   22.7093 H   0  0  0  0  0  0
  -24.6074  -30.6895   25.8050 H   0  0  0  0  0  0
  -24.8673  -32.2987   26.4676 H   0  0  0  0  0  0
  -25.8104  -30.9404   27.0504 H   0  0  0  0  0  0
  -26.2739  -29.6817   24.1271 H   0  0  0  0  0  0
  -27.3711  -29.7184   25.4862 H   0  0  0  0  0  0
  -27.8748  -30.4130   23.9627 H   0  0  0  0  0  0
  -27.2811  -33.3652   26.2038 H   0  0  0  0  0  0
  -28.3895  -32.6779   25.0249 H   0  0  0  0  0  0
  -28.0804  -31.8431   26.5377 H   0  0  0  0  0  0
  -28.2640  -38.0072   24.7492 H   0  0  0  0  0  0
  -28.1071  -36.2605   24.6238 H   0  0  0  0  0  0
  -27.2348  -37.1427   25.8861 H   0  0  0  0  0  0
  -20.9383  -29.8752   21.6887 H   0  0  0  0  0  0
  -26.0178  -38.2874   24.1445 H   0  0  0  0  0  0
  -29.8775  -18.7776   18.9667 H   0  0  0  0  0  0
  -28.5415  -18.9707   20.0481 H   0  0  0  0  0  0
  -30.1608  -18.8770   23.2200 H   0  0  0  0  0  0
  -31.3016  -19.9753   22.5245 H   0  0  0  0  0  0
  -29.0282  -21.1421   19.0388 H   0  0  0  0  0  0
  -30.6901  -21.0961   19.5632 H   0  0  0  0  0  0
  -29.3878  -21.2144   23.2065 H   0  0  0  0  0  0
  -28.2602  -20.2258   22.3412 H   0  0  0  0  0  0
  -31.4412  -18.9159   20.6889 H   0  0  0  0  0  0
  -27.9464  -15.4329   23.8737 H   0  0  0  0  0  0
  -29.4097  -16.3967   23.9193 H   0  0  0  0  0  0
  -29.4931  -14.6808   23.5371 H   0  0  0  0  0  0
  -26.8211  -16.9122   22.2358 H   0  0  0  0  0  0
  -27.5007  -17.2799   20.6877 H   0  0  0  0  0  0
  -28.1349  -18.0324   22.1814 H   0  0  0  0  0  0
  -29.4565  -23.5141   19.2027 H   0  0  0  0  0  0
  -30.1395  -24.4917   20.4595 H   0  0  0  0  0  0
  -27.2417  -24.7994   20.6033 H   0  0  0  0  0  0
  -27.7388  -24.9140   18.9407 H   0  0  0  0  0  0
  -28.0512  -15.2060   21.4532 H   0  0  0  0  0  0
  1 25  1  0  0  0
  1 30  2  0  0  0
  1 84  1  0  0  0
  2  3  1  0  0  0
  2 25  1  0  0  0
  2 87  1  0  0  0
  2 88  1  0  0  0
  3  4  1  0  0  0
  3 89  1  0  0  0
  3 90  1  0  0  0
  4  5  1  0  0  0
  4 91  1  0  0  0
  4 92  1  0  0  0
  5  6  1  0  0  0
  5 26  1  0  0  0
  5 93  1  0  0  0
  6 25  1  0  0  0
  6 94  1  0  0  0
  6 95  1  0  0  0
  7  8  2  0  0  0
  7 26  1  0  0  0
  7 29  1  0  0  0
  8  9  1  0  0  0
  8 22  1  0  0  0
  9 10  1  0  0  0
  9 27  2  0  0  0
 10 11  2  0  0  0
 10 15  1  0  0  0
 11 12  1  0  0  0
 11 96  1  0  0  0
 12 13  2  0  0  0
 12 97  1  0  0  0
 13 14  1  0  0  0
 13 31  1  0  0  0
 14 15  2  0  0  0
 14 98  1  0  0  0
 15 99  1  0  0  0
 16 17  2  0  0  0
 16 21  1  0  0  0
 16 31  1  0  0  0
 17 18  1  0  0  0
 17100  1  0  0  0
 18 19  2  0  0  0
 18101  1  0  0  0
 19 20  1  0  0  0
 19 24  1  0  0  0
 20 21  2  0  0  0
 20102  1  0  0  0
 21 23  1  0  0  0
 22 28  1  0  0  0
 22 32  2  0  0  0
 26 27  1  0  0  0
 28103  1  0  0  0
 28104  1  0  0  0
 29105  1  0  0  0
 29106  1  0  0  0
 33 34  1  0  0  0
 33 66  1  0  0  0
 33 70  2  0  0  0
 34 36  1  0  0  0
 34 59  1  0  0  0
 34107  1  0  0  0
 35 44  2  0  0  0
 35 45  1  0  0  0
 35 68  1  0  0  0
 36 56  1  0  0  0
 36108  1  0  0  0
 37 39  1  0  0  0
 37 47  1  0  0  0
 37 66  1  0  0  0
 37109  1  0  0  0
 38 43  2  0  0  0
 38 46  1  0  0  0
 38 47  1  0  0  0
 39 64  1  0  0  0
 39 67  2  0  0  0
 40 52  1  0  0  0
 40 53  2  0  0  0
 40 58  1  0  0  0
 41110  1  0  0  0
 41111  1  0  0  0
 41112  1  0  0  0
 41 48  1  0  0  0
 42 43  1  0  0  0
 42 66  1  0  0  0
 42113  1  0  0  0
 42114  1  0  0  0
 43 44  1  0  0  0
 44115  1  0  0  0
 45 46  2  0  0  0
 45116  1  0  0  0
 46117  1  0  0  0
 47118  1  0  0  0
 47119  1  0  0  0
 48 56  1  0  0  0
 48 65  1  0  0  0
 48120  1  0  0  0
 49 50  1  0  0  0
 49 53  1  0  0  0
 49 64  1  0  0  0
 49121  1  0  0  0
 50 51  1  0  0  0
 50122  1  0  0  0
 50123  1  0  0  0
 51 52  1  0  0  0
 51124  1  0  0  0
 51125  1  0  0  0
 52126  1  0  0  0
 52127  1  0  0  0
 53 54  1  0  0  0
 54 55  2  0  0  0
 54128  1  0  0  0
 55 57  1  0  0  0
 55129  1  0  0  0
 56 69  2  0  0  0
 57 58  2  0  0  0
 57130  1  0  0  0
 58131  1  0  0  0
 59 60  1  0  0  0
 59 61  1  0  0  0
 59 62  1  0  0  0
 60132  1  0  0  0
 60133  1  0  0  0
 60134  1  0  0  0
 61135  1  0  0  0
 61136  1  0  0  0
 61137  1  0  0  0
 62138  1  0  0  0
 62139  1  0  0  0
 62140  1  0  0  0
 63 65  1  0  0  0
 63141  1  0  0  0
 63142  1  0  0  0
 63143  1  0  0  0
 64144  1  0  0  0
 65145  1  0  0  0
 68 81  1  0  0  0
 71 84  1  0  0  0
 71 85  2  0  0  0
 71 77  1  0  0  0
 72 80  1  0  0  0
 72 83  1  0  0  0
 72 86  2  0  0  0
 73 75  1  0  0  0
 73 77  1  0  0  0
 73146  1  0  0  0
 73147  1  0  0  0
 74 76  1  0  0  0
 74 77  1  0  0  0
 74148  1  0  0  0
 74149  1  0  0  0
 75 83  1  0  0  0
 75150  1  0  0  0
 75151  1  0  0  0
 76 83  1  0  0  0
 76152  1  0  0  0
 76153  1  0  0  0
 77154  1  0  0  0
 78155  1  0  0  0
 78156  1  0  0  0
 78157  1  0  0  0
 78 82  1  0  0  0
 79 82  1  0  0  0
 79158  1  0  0  0
 79159  1  0  0  0
 79160  1  0  0  0
 80 81  1  0  0  0
 80161  1  0  0  0
 80162  1  0  0  0
 81163  1  0  0  0
 81164  1  0  0  0
 82 84  1  0  0  0
 82165  1  0  0  0
M  ISO  4   1 100  68 101  81 101  84 100
M  END
> <chiral flag>
0

> <version>
0

> <s_m_source_file>
/data/baiqing/PycharmProjects/Reinvent-master-3.2/result/LINK_invent/BTK/process_docking_weight1_custom_sum_contain_oxygen_bond_distance_aromatic_linkinvent_7_9_3/rearranged_h_0008.sdf

> <i_m_source_file_index>
63

> <r_mmod_Potential_Energy-OPLS-2005>
518.105407714844

> <r_mmod_Stretch_Energy-OPLS-2005>
118.197059631348

> <r_mmod_Bend_Energy-OPLS-2005>
259.745178222656

> <r_mmod_Torsional_Energy-OPLS-2005>
374.168884277344

> <r_mmod_Improper_Torsional_Energy-OPLS-2005>
6.07328796386719

> <r_mmod_Van_der_Waal_Energy-OPLS-2005>
188.199600219727

> <r_mmod_Electrostatic_Energy-OPLS-2005>
-255.145065307617

> <r_mmod_Solvation_Energy-OPLS-2005>
-227.282073974609

> <b_mmod_Minimization_Converged-OPLS-2005>
0

> <r_mmod_RMS_Derivative-OPLS-2005>
3.15071702003479

$$$$
63
                    3D
 Structure written by MMmdl.
156164  0  0  1  0            999 V2000
  -30.6925  -14.5173   20.5917 C   0  0  0  0  0  0
  -30.4324  -12.3337   19.4459 C   0  0  0  0  0  0
  -29.5113  -12.4870   18.2190 C   0  0  0  0  0  0
  -28.0330  -12.3379   18.6293 C   0  0  0  0  0  0
  -27.6621  -13.2008   19.8653 C   0  0  2  0  0  0
  -28.6977  -13.0278   20.9982 C   0  0  0  0  0  0
  -25.2635  -13.8129   20.5653 C   0  0  0  0  0  0
  -24.1876  -13.0450   20.9154 C   0  0  0  0  0  0
  -24.6398  -11.6899   20.8691 C   0  0  0  0  0  0
  -23.9043  -10.4300   21.0374 C   0  0  0  0  0  0
  -24.3589   -9.4227   21.9173 C   0  0  0  0  0  0
  -23.6273   -8.2266   22.0762 C   0  0  0  0  0  0
  -22.4261   -8.0278   21.3542 C   0  0  0  0  0  0
  -21.9882   -9.0248   20.4645 C   0  0  0  0  0  0
  -22.7203  -10.2132   20.3036 C   0  0  0  0  0  0
  -21.6861   -6.0715   22.5266 C   0  0  0  0  0  0
  -21.4037   -6.5629   23.8199 C   0  0  0  0  0  0
  -21.3655   -5.6787   24.9164 C   0  0  0  0  0  0
  -21.6039   -4.3051   24.7224 C   0  0  0  0  0  0
  -21.8827   -3.8132   23.4352 C   0  0  0  0  0  0
  -21.9211   -4.6944   22.3401 C   0  0  0  0  0  0
  -22.7900  -13.5270   21.1825 C   0  0  0  0  0  0
  -22.1671   -4.2127   21.0979 F   0  0  0  0  0  0
  -21.5621   -3.4534   25.7743 F   0  0  0  0  0  0
  -30.0237  -13.3386   20.4426 N   0  0  0  0  0  0
  -26.3043  -12.9284   20.3283 N   0  0  0  0  0  0
  -25.9321  -11.6456   20.5706 N   0  0  0  0  0  0
  -22.0513  -12.8269   22.0350 N   0  0  0  0  0  0
  -25.4401  -15.1853   20.4057 N   0  0  0  0  0  0
  -31.8280  -14.6892   20.1389 O   0  0  0  0  0  0
  -21.6655   -6.8851   21.4221 O   0  0  0  0  0  0
  -22.3597  -14.5580   20.6664 O   0  0  0  0  0  0
  -24.6169  -31.8649   23.2063 C   0  0  0  0  0  0
  -25.9050  -32.4798   23.8367 C   0  0  1  0  0  0
  -27.2400  -27.4052   20.1106 C   0  0  0  0  0  0
  -25.5880  -33.8581   24.2280 N   0  0  0  0  0  0
  -23.4084  -30.4900   21.5442 C   0  0  2  0  0  0
  -24.8618  -28.9553   20.1152 C   0  0  0  0  0  0
  -22.7438  -29.4643   22.4920 C   0  0  0  0  0  0
  -18.0297  -28.1388   22.8492 C   0  0  0  0  0  0
  -24.1493  -36.7294   23.2641 C   0  0  0  0  0  0
  -25.9396  -30.8294   21.3623 C   0  0  0  0  0  0
  -26.0248  -29.4606   20.7104 C   0  0  0  0  0  0
  -27.2192  -28.6938   20.7042 C   0  0  0  0  0  0
  -26.0613  -26.9370   19.4845 C   0  0  0  0  0  0
  -24.8761  -27.6941   19.5000 C   0  0  0  0  0  0
  -23.6247  -29.8229   20.1606 C   0  0  0  0  0  0
  -25.4112  -36.3065   24.0321 C   0  0  1  0  0  0
  -20.5891  -28.3667   23.1287 C   0  0  2  0  0  0
  -20.6785  -26.9390   22.5428 C   0  0  0  0  0  0
  -19.5756  -26.6394   21.5217 C   0  0  0  0  0  0
  -18.1939  -26.7931   22.1637 C   0  0  0  0  0  0
  -19.1552  -28.8842   23.2899 C   0  0  0  0  0  0
  -18.9478  -30.1443   23.8905 C   0  0  0  0  0  0
  -17.6479  -30.6584   24.0567 C   0  0  0  0  0  0
  -25.9034  -34.9442   23.5100 C   0  0  0  0  0  0
  -16.5371  -29.9099   23.6321 C   0  0  0  0  0  0
  -16.7291  -28.6521   23.0326 C   0  0  0  0  0  0
  -26.4485  -31.6579   25.0683 C   0  0  0  0  0  0
  -25.3740  -31.3696   26.1422 C   0  0  0  0  0  0
  -27.0302  -30.3019   24.6035 C   0  0  0  0  0  0
  -27.6047  -32.4314   25.7464 C   0  0  0  0  0  0
  -27.5563  -37.1794   24.8464 C   0  0  0  0  0  0
  -21.4163  -29.3033   22.3665 N   0  0  0  0  0  0
  -26.4280  -37.3759   23.9399 N   0  0  0  0  0  0
  -24.6725  -31.0756   22.0966 N   0  0  0  0  0  0
  -23.4196  -28.8154   23.2945 O   0  0  0  0  0  0
  -28.3751  -26.6067   20.1446 O   0  0  0  0  0  0
  -26.5619  -34.8907   22.4676 O   0  0  0  0  0  0
  -23.5361  -32.1387   23.7454 O   0  0  0  0  0  0
  -31.2991  -19.3494   22.5239 C   0  0  0  0  0  0
  -31.9678  -18.1666   22.8943 C   0  0  0  0  0  0
  -29.7450  -18.0346   21.1893 C   0  0  0  0  0  0
  -30.1731  -19.3078   21.6685 C   0  0  0  0  0  0
  -30.4387  -16.8328   21.5257 C   0  0  0  0  0  0
  -31.5405  -16.9169   22.4102 C   0  0  0  0  0  0
  -29.8344  -21.6221   21.0655 C   0  0  0  0  0  0
  -31.2286  -21.8813   20.5104 C   0  0  0  0  0  0
  -28.9082  -22.8578   21.2002 C   0  0  0  0  0  0
  -29.3026  -24.2319   20.5507 C   0  0  0  0  0  0
  -28.1662  -25.2885   20.7190 C   0  0  0  0  0  0
  -29.3937  -20.4706   21.4529 N   0  0  0  0  0  0
  -29.9634  -15.5502   21.0825 N   0  0  0  0  0  0
  -32.1587  -15.7972   22.8593 F   0  0  0  0  0  0
  -31.4779  -12.4404   19.1522 H   0  0  0  0  0  0
  -30.3449  -11.3305   19.8696 H   0  0  0  0  0  0
  -29.7646  -11.7358   17.4698 H   0  0  0  0  0  0
  -29.6759  -13.4572   17.7484 H   0  0  0  0  0  0
  -27.8641  -11.2834   18.8555 H   0  0  0  0  0  0
  -27.3797  -12.5756   17.7886 H   0  0  0  0  0  0
  -27.6974  -14.2399   19.5397 H   0  0  0  0  0  0
  -28.6880  -12.0072   21.3826 H   0  0  0  0  0  0
  -28.4443  -13.6586   21.8515 H   0  0  0  0  0  0
  -25.2730   -9.5739   22.4741 H   0  0  0  0  0  0
  -23.9994   -7.4673   22.7499 H   0  0  0  0  0  0
  -21.0813   -8.8750   19.8949 H   0  0  0  0  0  0
  -22.3642  -10.9661   19.6144 H   0  0  0  0  0  0
  -21.2036   -7.6141   23.9694 H   0  0  0  0  0  0
  -21.1456   -6.0519   25.9063 H   0  0  0  0  0  0
  -22.0605   -2.7595   23.2863 H   0  0  0  0  0  0
  -22.4119  -11.9945   22.4779 H   0  0  0  0  0  0
  -21.1115  -13.1292   22.2490 H   0  0  0  0  0  0
  -24.6775  -15.8431   20.5236 H   0  0  0  0  0  0
  -26.2905  -15.6190   20.0687 H   0  0  0  0  0  0
  -26.7125  -32.5547   23.1145 H   0  0  0  0  0  0
  -24.9975  -33.9757   25.0387 H   0  0  0  0  0  0
  -22.6975  -31.3063   21.3983 H   0  0  0  0  0  0
  -23.3729  -35.9652   23.3316 H   0  0  0  0  0  0
  -24.3578  -36.8919   22.2053 H   0  0  0  0  0  0
  -23.7298  -37.6513   23.6676 H   0  0  0  0  0  0
  -26.0465  -31.5973   20.5953 H   0  0  0  0  0  0
  -26.8277  -30.8908   21.9785 H   0  0  0  0  0  0
  -28.1131  -29.0716   21.1831 H   0  0  0  0  0  0
  -26.0450  -25.9797   18.9840 H   0  0  0  0  0  0
  -23.9836  -27.3001   19.0359 H   0  0  0  0  0  0
  -23.7391  -30.5959   19.3994 H   0  0  0  0  0  0
  -22.7492  -29.2462   19.8578 H   0  0  0  0  0  0
  -25.1308  -36.1898   25.0814 H   0  0  0  0  0  0
  -21.0025  -28.3265   24.1393 H   0  0  0  0  0  0
  -20.5682  -26.2267   23.3621 H   0  0  0  0  0  0
  -21.6642  -26.7427   22.1195 H   0  0  0  0  0  0
  -19.6905  -25.6316   21.1228 H   0  0  0  0  0  0
  -19.6696  -27.3222   20.6756 H   0  0  0  0  0  0
  -17.4205  -26.6683   21.4048 H   0  0  0  0  0  0
  -18.0322  -26.0084   22.9035 H   0  0  0  0  0  0
  -19.7954  -30.7259   24.2278 H   0  0  0  0  0  0
  -17.5040  -31.6263   24.5163 H   0  0  0  0  0  0
  -15.5363  -30.2999   23.7634 H   0  0  0  0  0  0
  -15.8699  -28.0863   22.6988 H   0  0  0  0  0  0
  -24.5921  -30.7040   25.7743 H   0  0  0  0  0  0
  -24.8916  -32.2861   26.4838 H   0  0  0  0  0  0
  -25.8086  -30.8881   27.0195 H   0  0  0  0  0  0
  -26.2817  -29.6803   24.1096 H   0  0  0  0  0  0
  -27.4090  -29.7237   25.4476 H   0  0  0  0  0  0
  -27.8658  -30.4333   23.9148 H   0  0  0  0  0  0
  -27.2632  -33.3615   26.2041 H   0  0  0  0  0  0
  -28.3868  -32.6890   25.0298 H   0  0  0  0  0  0
  -28.0694  -31.8428   26.5399 H   0  0  0  0  0  0
  -28.2582  -38.0084   24.7467 H   0  0  0  0  0  0
  -28.1063  -36.2607   24.6348 H   0  0  0  0  0  0
  -27.2263  -37.1493   25.8864 H   0  0  0  0  0  0
  -20.9294  -29.8771   21.6919 H   0  0  0  0  0  0
  -26.0158  -38.2824   24.1436 H   0  0  0  0  0  0
  -31.6261  -20.2839   22.9567 H   0  0  0  0  0  0
  -32.7930  -18.2149   23.5887 H   0  0  0  0  0  0
  -28.8521  -17.9803   20.5818 H   0  0  0  0  0  0
  -31.1684  -22.4400   19.5768 H   0  0  0  0  0  0
  -31.7582  -20.9558   20.2877 H   0  0  0  0  0  0
  -31.8214  -22.4562   21.2194 H   0  0  0  0  0  0
  -27.9286  -22.5672   20.8225 H   0  0  0  0  0  0
  -28.7607  -23.0281   22.2692 H   0  0  0  0  0  0
  -30.2172  -24.6072   21.0102 H   0  0  0  0  0  0
  -29.5078  -24.1071   19.4869 H   0  0  0  0  0  0
  -27.9790  -25.4268   21.7854 H   0  0  0  0  0  0
  -27.2642  -24.8300   20.3169 H   0  0  0  0  0  0
  -28.9772  -15.3784   21.2042 H   0  0  0  0  0  0
  1 25  1  0  0  0
  1 30  2  0  0  0
  1 83  1  0  0  0
  2  3  1  0  0  0
  2 25  1  0  0  0
  2 85  1  0  0  0
  2 86  1  0  0  0
  3  4  1  0  0  0
  3 87  1  0  0  0
  3 88  1  0  0  0
  4  5  1  0  0  0
  4 89  1  0  0  0
  4 90  1  0  0  0
  5  6  1  0  0  0
  5 26  1  0  0  0
  5 91  1  0  0  0
  6 25  1  0  0  0
  6 92  1  0  0  0
  6 93  1  0  0  0
  7  8  2  0  0  0
  7 26  1  0  0  0
  7 29  1  0  0  0
  8  9  1  0  0  0
  8 22  1  0  0  0
  9 10  1  0  0  0
  9 27  2  0  0  0
 10 11  2  0  0  0
 10 15  1  0  0  0
 11 12  1  0  0  0
 11 94  1  0  0  0
 12 13  2  0  0  0
 12 95  1  0  0  0
 13 14  1  0  0  0
 13 31  1  0  0  0
 14 15  2  0  0  0
 14 96  1  0  0  0
 15 97  1  0  0  0
 16 17  2  0  0  0
 16 21  1  0  0  0
 16 31  1  0  0  0
 17 18  1  0  0  0
 17 98  1  0  0  0
 18 19  2  0  0  0
 18 99  1  0  0  0
 19 20  1  0  0  0
 19 24  1  0  0  0
 20 21  2  0  0  0
 20100  1  0  0  0
 21 23  1  0  0  0
 22 28  1  0  0  0
 22 32  2  0  0  0
 26 27  1  0  0  0
 28101  1  0  0  0
 28102  1  0  0  0
 29103  1  0  0  0
 29104  1  0  0  0
 33 34  1  0  0  0
 33 66  1  0  0  0
 33 70  2  0  0  0
 34 36  1  0  0  0
 34 59  1  0  0  0
 34105  1  0  0  0
 35 44  2  0  0  0
 35 45  1  0  0  0
 35 68  1  0  0  0
 36 56  1  0  0  0
 36106  1  0  0  0
 37 39  1  0  0  0
 37 47  1  0  0  0
 37 66  1  0  0  0
 37107  1  0  0  0
 38 43  2  0  0  0
 38 46  1  0  0  0
 38 47  1  0  0  0
 39 64  1  0  0  0
 39 67  2  0  0  0
 40 52  1  0  0  0
 40 53  2  0  0  0
 40 58  1  0  0  0
 41108  1  0  0  0
 41109  1  0  0  0
 41110  1  0  0  0
 41 48  1  0  0  0
 42 43  1  0  0  0
 42 66  1  0  0  0
 42111  1  0  0  0
 42112  1  0  0  0
 43 44  1  0  0  0
 44113  1  0  0  0
 45 46  2  0  0  0
 45114  1  0  0  0
 46115  1  0  0  0
 47116  1  0  0  0
 47117  1  0  0  0
 48 56  1  0  0  0
 48 65  1  0  0  0
 48118  1  0  0  0
 49 50  1  0  0  0
 49 53  1  0  0  0
 49 64  1  0  0  0
 49119  1  0  0  0
 50 51  1  0  0  0
 50120  1  0  0  0
 50121  1  0  0  0
 51 52  1  0  0  0
 51122  1  0  0  0
 51123  1  0  0  0
 52124  1  0  0  0
 52125  1  0  0  0
 53 54  1  0  0  0
 54 55  2  0  0  0
 54126  1  0  0  0
 55 57  1  0  0  0
 55127  1  0  0  0
 56 69  2  0  0  0
 57 58  2  0  0  0
 57128  1  0  0  0
 58129  1  0  0  0
 59 60  1  0  0  0
 59 61  1  0  0  0
 59 62  1  0  0  0
 60130  1  0  0  0
 60131  1  0  0  0
 60132  1  0  0  0
 61133  1  0  0  0
 61134  1  0  0  0
 61135  1  0  0  0
 62136  1  0  0  0
 62137  1  0  0  0
 62138  1  0  0  0
 63 65  1  0  0  0
 63139  1  0  0  0
 63140  1  0  0  0
 63141  1  0  0  0
 64142  1  0  0  0
 65143  1  0  0  0
 68 81  1  0  0  0
 71 72  2  0  0  0
 71 74  1  0  0  0
 71144  1  0  0  0
 72 76  1  0  0  0
 72145  1  0  0  0
 73 74  2  0  0  0
 73 75  1  0  0  0
 73146  1  0  0  0
 74 82  1  0  0  0
 75 76  2  0  0  0
 75 83  1  0  0  0
 76 84  1  0  0  0
 77 78  1  0  0  0
 77 79  1  0  0  0
 77 82  2  0  0  0
 78147  1  0  0  0
 78148  1  0  0  0
 78149  1  0  0  0
 79 80  1  0  0  0
 79150  1  0  0  0
 79151  1  0  0  0
 80 81  1  0  0  0
 80152  1  0  0  0
 80153  1  0  0  0
 81154  1  0  0  0
 81155  1  0  0  0
 83156  1  0  0  0
M  ISO  4   1 100  68 101  81 101  83 100
M  END
> <chiral flag>
0

> <version>
0

> <s_m_source_file>
/data/baiqing/PycharmProjects/Reinvent-master-3.2/result/LINK_invent/BTK/process_docking_weight1_custom_sum_contain_oxygen_bond_distance_aromatic_linkinvent_7_9_3/rearranged_h_0008.sdf

> <i_m_source_file_index>
64

> <r_mmod_Potential_Energy-OPLS-2005>
-42.816478729248

> <r_mmod_Stretch_Energy-OPLS-2005>
49.339282989502

> <r_mmod_Bend_Energy-OPLS-2005>
114.736427307129

> <r_mmod_Torsional_Energy-OPLS-2005>
259.549133300781

> <r_mmod_Improper_Torsional_Energy-OPLS-2005>
5.60795593261719

> <r_mmod_Van_der_Waal_Energy-OPLS-2005>
157.616561889648

> <r_mmod_Electrostatic_Energy-OPLS-2005>
-443.326080322266

> <r_mmod_Solvation_Energy-OPLS-2005>
-206.772491455078

> <b_mmod_Minimization_Converged-OPLS-2005>
0

> <r_mmod_RMS_Derivative-OPLS-2005>
3.45154309272766

$$$$
64
                    3D
 Structure written by MMmdl.
183191  0  0  1  0            999 V2000
  -30.6119  -14.5136   20.3498 C   0  0  0  0  0  0
  -30.4196  -12.2774   19.3964 C   0  0  0  0  0  0
  -29.4806  -12.4643   18.1839 C   0  0  0  0  0  0
  -28.0021  -12.3101   18.6026 C   0  0  0  0  0  0
  -27.6417  -13.1506   19.8591 C   0  0  2  0  0  0
  -28.7128  -13.0059   20.9697 C   0  0  0  0  0  0
  -25.2618  -13.7949   20.5896 C   0  0  0  0  0  0
  -24.1774  -13.0315   20.9184 C   0  0  0  0  0  0
  -24.6272  -11.6757   20.8717 C   0  0  0  0  0  0
  -23.8944  -10.4210   21.0390 C   0  0  0  0  0  0
  -24.3525   -9.4148   21.9180 C   0  0  0  0  0  0
  -23.6199   -8.2206   22.0786 C   0  0  0  0  0  0
  -22.4193   -8.0261   21.3585 C   0  0  0  0  0  0
  -21.9793   -9.0207   20.4696 C   0  0  0  0  0  0
  -22.7116  -10.2072   20.3053 C   0  0  0  0  0  0
  -21.6815   -6.0735   22.5295 C   0  0  0  0  0  0
  -21.4000   -6.5626   23.8252 C   0  0  0  0  0  0
  -21.3625   -5.6771   24.9188 C   0  0  0  0  0  0
  -21.5995   -4.3034   24.7233 C   0  0  0  0  0  0
  -21.8796   -3.8145   23.4352 C   0  0  0  0  0  0
  -21.9178   -4.6957   22.3423 C   0  0  0  0  0  0
  -22.7819  -13.5218   21.1820 C   0  0  0  0  0  0
  -22.1666   -4.2141   21.1001 F   0  0  0  0  0  0
  -21.5555   -3.4513   25.7743 F   0  0  0  0  0  0
  -30.0369  -13.2875   20.3850 N   0  0  0  0  0  0
  -26.2937  -12.8994   20.3418 N   0  0  0  0  0  0
  -25.9180  -11.6218   20.5765 N   0  0  0  0  0  0
  -22.0364  -12.8296   22.0363 N   0  0  0  0  0  0
  -25.4414  -15.1710   20.4752 N   0  0  0  0  0  0
  -31.8197  -14.7072   20.1862 O   0  0  0  0  0  0
  -21.6579   -6.8842   21.4276 O   0  0  0  0  0  0
  -22.3620  -14.5634   20.6737 O   0  0  0  0  0  0
  -24.6000  -31.8732   23.2208 C   0  0  0  0  0  0
  -25.8923  -32.4869   23.8432 C   0  0  1  0  0  0
  -27.2354  -27.4871   20.1033 C   0  0  0  0  0  0
  -25.5776  -33.8661   24.2352 N   0  0  0  0  0  0
  -23.3764  -30.5019   21.5610 C   0  0  2  0  0  0
  -24.8254  -28.9760   20.1207 C   0  0  0  0  0  0
  -22.7280  -29.4636   22.5006 C   0  0  0  0  0  0
  -18.0209  -28.1261   22.8498 C   0  0  0  0  0  0
  -24.1461  -36.7373   23.2649 C   0  0  0  0  0  0
  -25.9018  -30.8596   21.3638 C   0  0  0  0  0  0
  -25.9791  -29.4912   20.7247 C   0  0  0  0  0  0
  -27.1772  -28.7489   20.7265 C   0  0  0  0  0  0
  -26.0603  -26.9708   19.5072 C   0  0  0  0  0  0
  -24.8587  -27.7047   19.5221 C   0  0  0  0  0  0
  -23.5848  -29.8445   20.1680 C   0  0  0  0  0  0
  -25.4051  -36.3165   24.0368 C   0  0  1  0  0  0
  -20.5763  -28.3468   23.1407 C   0  0  2  0  0  0
  -20.6616  -26.9117   22.5626 C   0  0  0  0  0  0
  -19.5657  -26.6205   21.5245 C   0  0  0  0  0  0
  -18.1832  -26.7826   22.1639 C   0  0  0  0  0  0
  -19.1444  -28.8688   23.2968 C   0  0  0  0  0  0
  -18.9333  -30.1288   23.8963 C   0  0  0  0  0  0
  -17.6302  -30.6488   24.0458 C   0  0  0  0  0  0
  -25.8955  -34.9498   23.5164 C   0  0  0  0  0  0
  -16.5202  -29.8937   23.6304 C   0  0  0  0  0  0
  -16.7169  -28.6321   23.0388 C   0  0  0  0  0  0
  -26.4341  -31.6643   25.0742 C   0  0  0  0  0  0
  -25.3637  -31.3858   26.1541 C   0  0  0  0  0  0
  -27.0128  -30.3079   24.6058 C   0  0  0  0  0  0
  -27.5901  -32.4319   25.7529 C   0  0  0  0  0  0
  -27.5560  -37.1856   24.8443 C   0  0  0  0  0  0
  -21.3994  -29.2857   22.3767 N   0  0  0  0  0  0
  -26.4246  -37.3862   23.9422 N   0  0  0  0  0  0
  -24.6434  -31.0888   22.1103 N   0  0  0  0  0  0
  -23.4154  -28.8220   23.2955 O   0  0  0  0  0  0
  -28.4521  -26.8370   20.1022 O   0  0  0  0  0  0
  -26.5555  -34.8965   22.4736 O   0  0  0  0  0  0
  -23.5229  -32.1362   23.7702 O   0  0  0  0  0  0
  -30.7396  -17.6980   20.2671 C   0  0  0  0  0  0
  -29.4473  -19.6303   19.5571 C   0  0  0  0  0  0
  -30.6465  -19.1031   20.0902 C   0  0  0  0  0  0
  -28.6389  -17.3976   19.0486 C   0  0  0  0  0  0
  -29.7320  -16.8417   19.7727 C   0  0  0  0  0  0
  -28.4178  -18.7985   19.0838 C   0  0  0  0  0  0
  -27.3549  -23.2730   20.5198 C   0  0  0  0  0  0
  -27.7169  -16.5095   18.2194 C   0  0  0  0  0  0
  -33.1571  -19.4093   20.4651 C   0  0  0  0  0  0
  -31.4585  -20.3472   22.0714 C   0  0  0  0  0  0
  -31.7716  -21.3729   19.8024 C   0  0  0  0  0  0
  -26.6664  -19.2974   17.4246 C   0  0  0  0  0  0
  -26.0339  -23.1577   22.6252 C   0  0  0  0  0  0
  -27.9978  -24.5947   20.9746 C   0  0  0  0  0  0
  -26.3615  -20.2087   21.0558 C   0  0  0  0  0  0
  -26.2034  -19.1953   19.8971 C   0  0  0  0  0  0
  -25.6256  -21.5333   20.7975 C   0  0  0  0  0  0
  -28.5031  -25.4521   19.7858 C   0  0  0  0  0  0
  -31.7518  -20.0452   20.5953 C   0  0  0  0  0  0
  -29.6800  -15.4570   20.1050 N   0  0  0  0  0  0
  -27.1675  -19.3900   18.7982 N   0  0  0  0  0  0
  -26.3927  -22.6925   21.2834 N   0  0  0  0  0  0
  -27.7188  -22.7862   19.4469 O   0  0  0  0  0  0
  -31.4638  -12.3664   19.0925 H   0  0  0  0  0  0
  -30.3093  -11.2778   19.8179 H   0  0  0  0  0  0
  -29.7290  -11.7441   17.4051 H   0  0  0  0  0  0
  -29.6353  -13.4459   17.7338 H   0  0  0  0  0  0
  -27.8345  -11.2532   18.8077 H   0  0  0  0  0  0
  -27.3420  -12.5566   17.7669 H   0  0  0  0  0  0
  -27.6104  -14.1712   19.5241 H   0  0  0  0  0  0
  -28.7029  -11.9980   21.3845 H   0  0  0  0  0  0
  -28.4976  -13.6815   21.7985 H   0  0  0  0  0  0
  -25.2686   -9.5575   22.4721 H   0  0  0  0  0  0
  -23.9885   -7.4597   22.7512 H   0  0  0  0  0  0
  -21.0699   -8.8704   19.9045 H   0  0  0  0  0  0
  -22.3587  -10.9600   19.6137 H   0  0  0  0  0  0
  -21.2031   -7.6135   23.9774 H   0  0  0  0  0  0
  -21.1453   -6.0493   25.9094 H   0  0  0  0  0  0
  -22.0599   -2.7606   23.2870 H   0  0  0  0  0  0
  -22.3735  -11.9813   22.4700 H   0  0  0  0  0  0
  -21.1078  -13.1583   22.2643 H   0  0  0  0  0  0
  -24.6859  -15.8198   20.6626 H   0  0  0  0  0  0
  -26.3186  -15.6373   20.2974 H   0  0  0  0  0  0
  -26.7002  -32.5621   23.1231 H   0  0  0  0  0  0
  -24.9969  -33.9836   25.0507 H   0  0  0  0  0  0
  -22.6552  -31.3113   21.4407 H   0  0  0  0  0  0
  -23.3733  -35.9721   23.3325 H   0  0  0  0  0  0
  -24.3625  -36.8941   22.2081 H   0  0  0  0  0  0
  -23.7197  -37.6576   23.6635 H   0  0  0  0  0  0
  -25.9888  -31.6257   20.5908 H   0  0  0  0  0  0
  -26.8035  -30.9312   21.9609 H   0  0  0  0  0  0
  -28.0583  -29.1463   21.2157 H   0  0  0  0  0  0
  -26.0437  -26.0100   19.0204 H   0  0  0  0  0  0
  -23.9717  -27.2947   19.0668 H   0  0  0  0  0  0
  -23.6968  -30.6325   19.4206 H   0  0  0  0  0  0
  -22.7031  -29.2827   19.8649 H   0  0  0  0  0  0
  -25.1249  -36.2046   25.0885 H   0  0  0  0  0  0
  -20.9912  -28.3138   24.1510 H   0  0  0  0  0  0
  -20.5196  -26.1973   23.3759 H   0  0  0  0  0  0
  -21.6523  -26.6910   22.1532 H   0  0  0  0  0  0
  -19.6612  -25.6069   21.1309 H   0  0  0  0  0  0
  -19.6722  -27.3084   20.6844 H   0  0  0  0  0  0
  -17.4113  -26.6685   21.4020 H   0  0  0  0  0  0
  -18.0117  -25.9875   22.8929 H   0  0  0  0  0  0
  -19.7702  -30.7125   24.2566 H   0  0  0  0  0  0
  -17.4792  -31.6242   24.4918 H   0  0  0  0  0  0
  -15.5149  -30.2804   23.7436 H   0  0  0  0  0  0
  -15.8656  -28.0473   22.7109 H   0  0  0  0  0  0
  -24.5745  -30.7180   25.8091 H   0  0  0  0  0  0
  -24.8881  -32.3080   26.4906 H   0  0  0  0  0  0
  -25.8003  -30.9196   27.0365 H   0  0  0  0  0  0
  -26.2698  -29.6985   24.0879 H   0  0  0  0  0  0
  -27.3690  -29.7167   25.4510 H   0  0  0  0  0  0
  -27.8642  -30.4491   23.9373 H   0  0  0  0  0  0
  -27.2465  -33.3586   26.2141 H   0  0  0  0  0  0
  -28.3734  -32.6855   25.0388 H   0  0  0  0  0  0
  -28.0494  -31.8375   26.5433 H   0  0  0  0  0  0
  -28.2584  -38.0158   24.7481 H   0  0  0  0  0  0
  -28.1018  -36.2657   24.6223 H   0  0  0  0  0  0
  -27.2292  -37.1518   25.8860 H   0  0  0  0  0  0
  -20.9021  -29.8510   21.7037 H   0  0  0  0  0  0
  -26.0123  -38.2947   24.1438 H   0  0  0  0  0  0
  -31.5651  -17.2647   20.8098 H   0  0  0  0  0  0
  -29.2698  -20.6935   19.5267 H   0  0  0  0  0  0
  -28.1137  -15.5110   18.0705 H   0  0  0  0  0  0
  -27.6571  -16.8848   17.2010 H   0  0  0  0  0  0
  -26.7031  -16.4784   18.6134 H   0  0  0  0  0  0
  -33.2826  -18.5210   21.0828 H   0  0  0  0  0  0
  -33.9355  -20.1063   20.7760 H   0  0  0  0  0  0
  -33.3807  -19.1200   19.4380 H   0  0  0  0  0  0
  -31.4669  -19.4355   22.6690 H   0  0  0  0  0  0
  -30.4754  -20.8045   22.1881 H   0  0  0  0  0  0
  -32.1915  -21.0290   22.4985 H   0  0  0  0  0  0
  -31.8527  -21.1888   18.7301 H   0  0  0  0  0  0
  -32.6093  -22.0040   20.0992 H   0  0  0  0  0  0
  -30.8782  -21.9747   19.9629 H   0  0  0  0  0  0
  -27.4170  -18.9319   16.7207 H   0  0  0  0  0  0
  -26.3556  -20.2779   17.0595 H   0  0  0  0  0  0
  -25.7985  -18.6350   17.3738 H   0  0  0  0  0  0
  -26.9002  -23.5333   23.1723 H   0  0  0  0  0  0
  -25.6113  -22.3649   23.2411 H   0  0  0  0  0  0
  -25.2963  -23.9579   22.5578 H   0  0  0  0  0  0
  -28.8107  -24.3814   21.6681 H   0  0  0  0  0  0
  -27.2679  -25.1780   21.5344 H   0  0  0  0  0  0
  -27.4139  -20.3782   21.2838 H   0  0  0  0  0  0
  -25.9416  -19.7707   21.9661 H   0  0  0  0  0  0
  -25.1788  -19.2378   19.5194 H   0  0  0  0  0  0
  -26.3390  -18.1976   20.3210 H   0  0  0  0  0  0
  -24.6460  -21.4845   21.2743 H   0  0  0  0  0  0
  -25.4082  -21.6423   19.7340 H   0  0  0  0  0  0
  -27.9816  -25.2525   18.8475 H   0  0  0  0  0  0
  -29.5447  -25.2087   19.5690 H   0  0  0  0  0  0
  -28.7573  -15.0588   20.0369 H   0  0  0  0  0  0
  1 25  1  0  0  0
  1 30  2  0  0  0
  1 90  1  0  0  0
  2  3  1  0  0  0
  2 25  1  0  0  0
  2 94  1  0  0  0
  2 95  1  0  0  0
  3  4  1  0  0  0
  3 96  1  0  0  0
  3 97  1  0  0  0
  4  5  1  0  0  0
  4 98  1  0  0  0
  4 99  1  0  0  0
  5  6  1  0  0  0
  5 26  1  0  0  0
  5100  1  0  0  0
  6 25  1  0  0  0
  6101  1  0  0  0
  6102  1  0  0  0
  7  8  2  0  0  0
  7 26  1  0  0  0
  7 29  1  0  0  0
  8  9  1  0  0  0
  8 22  1  0  0  0
  9 10  1  0  0  0
  9 27  2  0  0  0
 10 11  2  0  0  0
 10 15  1  0  0  0
 11 12  1  0  0  0
 11103  1  0  0  0
 12 13  2  0  0  0
 12104  1  0  0  0
 13 14  1  0  0  0
 13 31  1  0  0  0
 14 15  2  0  0  0
 14105  1  0  0  0
 15106  1  0  0  0
 16 17  2  0  0  0
 16 21  1  0  0  0
 16 31  1  0  0  0
 17 18  1  0  0  0
 17107  1  0  0  0
 18 19  2  0  0  0
 18108  1  0  0  0
 19 20  1  0  0  0
 19 24  1  0  0  0
 20 21  2  0  0  0
 20109  1  0  0  0
 21 23  1  0  0  0
 22 28  1  0  0  0
 22 32  2  0  0  0
 26 27  1  0  0  0
 28110  1  0  0  0
 28111  1  0  0  0
 29112  1  0  0  0
 29113  1  0  0  0
 33 34  1  0  0  0
 33 66  1  0  0  0
 33 70  2  0  0  0
 34 36  1  0  0  0
 34 59  1  0  0  0
 34114  1  0  0  0
 35 44  2  0  0  0
 35 45  1  0  0  0
 35 68  1  0  0  0
 36 56  1  0  0  0
 36115  1  0  0  0
 37 39  1  0  0  0
 37 47  1  0  0  0
 37 66  1  0  0  0
 37116  1  0  0  0
 38 43  2  0  0  0
 38 46  1  0  0  0
 38 47  1  0  0  0
 39 64  1  0  0  0
 39 67  2  0  0  0
 40 52  1  0  0  0
 40 53  2  0  0  0
 40 58  1  0  0  0
 41117  1  0  0  0
 41118  1  0  0  0
 41119  1  0  0  0
 41 48  1  0  0  0
 42 43  1  0  0  0
 42 66  1  0  0  0
 42120  1  0  0  0
 42121  1  0  0  0
 43 44  1  0  0  0
 44122  1  0  0  0
 45 46  2  0  0  0
 45123  1  0  0  0
 46124  1  0  0  0
 47125  1  0  0  0
 47126  1  0  0  0
 48 56  1  0  0  0
 48 65  1  0  0  0
 48127  1  0  0  0
 49 50  1  0  0  0
 49 53  1  0  0  0
 49 64  1  0  0  0
 49128  1  0  0  0
 50 51  1  0  0  0
 50129  1  0  0  0
 50130  1  0  0  0
 51 52  1  0  0  0
 51131  1  0  0  0
 51132  1  0  0  0
 52133  1  0  0  0
 52134  1  0  0  0
 53 54  1  0  0  0
 54 55  2  0  0  0
 54135  1  0  0  0
 55 57  1  0  0  0
 55136  1  0  0  0
 56 69  2  0  0  0
 57 58  2  0  0  0
 57137  1  0  0  0
 58138  1  0  0  0
 59 60  1  0  0  0
 59 61  1  0  0  0
 59 62  1  0  0  0
 60139  1  0  0  0
 60140  1  0  0  0
 60141  1  0  0  0
 61142  1  0  0  0
 61143  1  0  0  0
 61144  1  0  0  0
 62145  1  0  0  0
 62146  1  0  0  0
 62147  1  0  0  0
 63 65  1  0  0  0
 63148  1  0  0  0
 63149  1  0  0  0
 63150  1  0  0  0
 64151  1  0  0  0
 65152  1  0  0  0
 68 88  1  0  0  0
 71 73  2  0  0  0
 71 75  1  0  0  0
 71153  1  0  0  0
 72 73  1  0  0  0
 72 76  2  0  0  0
 72154  1  0  0  0
 73 89  1  0  0  0
 74 75  2  0  0  0
 74 76  1  0  0  0
 74 78  1  0  0  0
 75 90  1  0  0  0
 76 91  1  0  0  0
 77 84  1  0  0  0
 77 92  1  0  0  0
 77 93  2  0  0  0
 78155  1  0  0  0
 78156  1  0  0  0
 78157  1  0  0  0
 79158  1  0  0  0
 79159  1  0  0  0
 79160  1  0  0  0
 79 89  1  0  0  0
 80 89  1  0  0  0
 80161  1  0  0  0
 80162  1  0  0  0
 80163  1  0  0  0
 81 89  1  0  0  0
 81164  1  0  0  0
 81165  1  0  0  0
 81166  1  0  0  0
 82 91  1  0  0  0
 82167  1  0  0  0
 82168  1  0  0  0
 82169  1  0  0  0
 83 92  1  0  0  0
 83170  1  0  0  0
 83171  1  0  0  0
 83172  1  0  0  0
 84 88  1  0  0  0
 84173  1  0  0  0
 84174  1  0  0  0
 85 86  1  0  0  0
 85 87  1  0  0  0
 85175  1  0  0  0
 85176  1  0  0  0
 86 91  1  0  0  0
 86177  1  0  0  0
 86178  1  0  0  0
 87 92  1  0  0  0
 87179  1  0  0  0
 87180  1  0  0  0
 88181  1  0  0  0
 88182  1  0  0  0
 90183  1  0  0  0
M  ISO  4   1 100  68 101  88 101  90 100
M  END
> <chiral flag>
0

> <version>
0

> <s_m_source_file>
/data/baiqing/PycharmProjects/Reinvent-master-3.2/result/LINK_invent/BTK/process_docking_weight1_custom_sum_contain_oxygen_bond_distance_aromatic_linkinvent_7_9_3/rearranged_h_0008.sdf

> <i_m_source_file_index>
65

> <r_mmod_Potential_Energy-OPLS-2005>
62.4569358825684

> <r_mmod_Stretch_Energy-OPLS-2005>
41.1825752258301

> <r_mmod_Bend_Energy-OPLS-2005>
131.226837158203

> <r_mmod_Torsional_Energy-OPLS-2005>
323.152709960938

> <r_mmod_Improper_Torsional_Energy-OPLS-2005>
16.5218620300293

> <r_mmod_Van_der_Waal_Energy-OPLS-2005>
173.396881103516

> <r_mmod_Electrostatic_Energy-OPLS-2005>
-436.284698486328

> <r_mmod_Solvation_Energy-OPLS-2005>
-216.53987121582

> <b_mmod_Minimization_Converged-OPLS-2005>
0

> <r_mmod_RMS_Derivative-OPLS-2005>
8.46596431732178

$$$$
65
                    3D
 Structure written by MMmdl.
151159  0  0  1  0            999 V2000
  -30.5144  -14.9178   20.4216 C   0  0  0  0  0  0
  -30.4560  -12.5635   19.4882 C   0  0  0  0  0  0
  -29.5264  -12.5230   18.2513 C   0  0  0  0  0  0
  -28.0577  -12.3107   18.6687 C   0  0  0  0  0  0
  -27.6385  -13.2351   19.8408 C   0  0  2  0  0  0
  -28.6835  -13.2240   20.9781 C   0  0  0  0  0  0
  -25.2517  -13.8197   20.5688 C   0  0  0  0  0  0
  -24.1817  -13.0447   20.9226 C   0  0  0  0  0  0
  -24.6407  -11.6925   20.8751 C   0  0  0  0  0  0
  -23.9077  -10.4301   21.0411 C   0  0  0  0  0  0
  -24.3626   -9.4211   21.9183 C   0  0  0  0  0  0
  -23.6293   -8.2252   22.0756 C   0  0  0  0  0  0
  -22.4274   -8.0294   21.3548 C   0  0  0  0  0  0
  -21.9910   -9.0271   20.4653 C   0  0  0  0  0  0
  -22.7247  -10.2144   20.3061 C   0  0  0  0  0  0
  -21.6856   -6.0735   22.5278 C   0  0  0  0  0  0
  -21.4013   -6.5638   23.8210 C   0  0  0  0  0  0
  -21.3655   -5.6791   24.9175 C   0  0  0  0  0  0
  -21.6042   -4.3053   24.7227 C   0  0  0  0  0  0
  -21.8819   -3.8147   23.4347 C   0  0  0  0  0  0
  -21.9191   -4.6961   22.3399 C   0  0  0  0  0  0
  -22.7834  -13.5231   21.1879 C   0  0  0  0  0  0
  -22.1661   -4.2145   21.0976 F   0  0  0  0  0  0
  -21.5626   -3.4539   25.7741 F   0  0  0  0  0  0
  -29.9688  -13.6382   20.3941 N   0  0  0  0  0  0
  -26.2930  -12.9401   20.3226 N   0  0  0  0  0  0
  -25.9332  -11.6544   20.5721 N   0  0  0  0  0  0
  -22.0471  -12.8227   22.0434 N   0  0  0  0  0  0
  -25.4206  -15.1921   20.4086 N   0  0  0  0  0  0
  -31.7037  -15.0545   20.1122 O   0  0  0  0  0  0
  -21.6645   -6.8885   21.4243 O   0  0  0  0  0  0
  -22.3518  -14.5535   20.6722 O   0  0  0  0  0  0
  -24.6453  -31.8441   23.1886 C   0  0  0  0  0  0
  -25.9228  -32.4687   23.8285 C   0  0  1  0  0  0
  -27.2215  -27.1380   20.1428 C   0  0  0  0  0  0
  -25.5979  -33.8495   24.2202 N   0  0  0  0  0  0
  -23.4494  -30.4652   21.5334 C   0  0  2  0  0  0
  -24.8997  -28.8955   20.1096 C   0  0  0  0  0  0
  -22.7585  -29.4551   22.4839 C   0  0  0  0  0  0
  -18.0323  -28.1388   22.8471 C   0  0  0  0  0  0
  -24.1499  -36.7250   23.2636 C   0  0  0  0  0  0
  -26.0067  -30.7174   21.3895 C   0  0  0  0  0  0
  -26.0784  -29.3297   20.7290 C   0  0  0  0  0  0
  -27.2403  -28.4676   20.7297 C   0  0  0  0  0  0
  -26.0137  -26.8102   19.4837 C   0  0  0  0  0  0
  -24.8804  -27.6480   19.4724 C   0  0  0  0  0  0
  -23.6771  -29.7977   20.1520 C   0  0  0  0  0  0
  -25.4129  -36.3024   24.0310 C   0  0  1  0  0  0
  -20.5936  -28.3723   23.1217 C   0  0  2  0  0  0
  -20.6803  -26.9423   22.5390 C   0  0  0  0  0  0
  -19.5769  -26.6378   21.5203 C   0  0  0  0  0  0
  -18.1958  -26.7921   22.1627 C   0  0  0  0  0  0
  -19.1578  -28.8874   23.2837 C   0  0  0  0  0  0
  -18.9489  -30.1467   23.8864 C   0  0  0  0  0  0
  -17.6484  -30.6578   24.0561 C   0  0  0  0  0  0
  -25.9084  -34.9398   23.5063 C   0  0  0  0  0  0
  -16.5378  -29.9071   23.6329 C   0  0  0  0  0  0
  -16.7306  -28.6494   23.0344 C   0  0  0  0  0  0
  -26.4542  -31.6547   25.0722 C   0  0  0  0  0  0
  -25.3735  -31.3761   26.1429 C   0  0  0  0  0  0
  -27.0384  -30.2926   24.6319 C   0  0  0  0  0  0
  -27.6082  -32.4303   25.7506 C   0  0  0  0  0  0
  -27.5571  -37.1794   24.8473 C   0  0  0  0  0  0
  -21.4276  -29.3050   22.3584 N   0  0  0  0  0  0
  -26.4295  -37.3731   23.9395 N   0  0  0  0  0  0
  -24.7201  -31.0306   22.0916 N   0  0  0  0  0  0
  -23.4223  -28.8097   23.2992 O   0  0  0  0  0  0
  -28.2633  -26.1376   20.2110 O   0  0  0  0  0  0
  -26.5658  -34.8894   22.4634 O   0  0  0  0  0  0
  -23.5572  -32.1322   23.7099 O   0  0  0  0  0  0
  -30.5010  -18.5328   20.1498 C   0  0  0  0  0  0
  -30.2088  -19.9711   20.0805 C   0  0  0  0  0  0
  -28.2809  -18.1368   20.8248 C   0  0  0  0  0  0
  -27.9796  -19.5497   20.7531 C   0  0  0  0  0  0
  -29.5385  -17.5266   20.5263 C   0  0  0  0  0  0
  -28.9240  -20.5643   20.3727 C   0  0  0  0  0  0
  -28.9212  -23.3481   20.2721 C   0  0  0  0  0  0
  -26.5588  -19.9644   21.1017 C   0  0  0  0  0  0
  -27.9030  -24.6331   20.0204 C   0  0  0  0  0  0
  -28.4403  -22.0162   20.2307 N   0  0  0  0  0  0
  -29.6325  -16.0010   20.6400 N   0  0  0  0  0  0
  -30.1160  -23.5721   20.4861 O   0  0  0  0  0  0
  -31.4858  -12.7382   19.1738 H   0  0  0  0  0  0
  -30.4598  -11.6021   20.0044 H   0  0  0  0  0  0
  -29.8392  -11.7314   17.5690 H   0  0  0  0  0  0
  -29.6159  -13.4575   17.6962 H   0  0  0  0  0  0
  -27.9498  -11.2672   18.9676 H   0  0  0  0  0  0
  -27.3954  -12.4519   17.8138 H   0  0  0  0  0  0
  -27.6115  -14.2425   19.4245 H   0  0  0  0  0  0
  -28.7614  -12.2332   21.4284 H   0  0  0  0  0  0
  -28.3849  -13.9001   21.7808 H   0  0  0  0  0  0
  -25.2769   -9.5681   22.4759 H   0  0  0  0  0  0
  -23.9997   -7.4639   22.7478 H   0  0  0  0  0  0
  -21.0831   -8.8796   19.8962 H   0  0  0  0  0  0
  -22.3704  -10.9687   19.6177 H   0  0  0  0  0  0
  -21.2010   -7.6146   23.9710 H   0  0  0  0  0  0
  -21.1472   -6.0525   25.9072 H   0  0  0  0  0  0
  -22.0599   -2.7611   23.2855 H   0  0  0  0  0  0
  -22.4081  -11.9890   22.4828 H   0  0  0  0  0  0
  -21.1089  -13.1261   22.2637 H   0  0  0  0  0  0
  -24.6472  -15.8400   20.5114 H   0  0  0  0  0  0
  -26.2404  -15.6209   20.0005 H   0  0  0  0  0  0
  -26.7297  -32.5292   23.1019 H   0  0  0  0  0  0
  -25.0120  -33.9613   25.0345 H   0  0  0  0  0  0
  -22.7525  -31.2914   21.3793 H   0  0  0  0  0  0
  -23.3744  -35.9602   23.3325 H   0  0  0  0  0  0
  -24.3579  -36.8847   22.2044 H   0  0  0  0  0  0
  -23.7285  -37.6470   23.6650 H   0  0  0  0  0  0
  -26.1686  -31.4734   20.6200 H   0  0  0  0  0  0
  -26.8745  -30.7635   22.0355 H   0  0  0  0  0  0
  -28.1362  -28.7953   21.2380 H   0  0  0  0  0  0
  -25.9003  -25.8626   18.9816 H   0  0  0  0  0  0
  -23.9828  -27.3108   18.9725 H   0  0  0  0  0  0
  -23.8161  -30.5734   19.3977 H   0  0  0  0  0  0
  -22.7919  -29.2419   19.8383 H   0  0  0  0  0  0
  -25.1318  -36.1855   25.0801 H   0  0  0  0  0  0
  -21.0043  -28.3318   24.1332 H   0  0  0  0  0  0
  -20.5693  -26.2339   23.3614 H   0  0  0  0  0  0
  -21.6668  -26.7416   22.1188 H   0  0  0  0  0  0
  -19.6929  -25.6287   21.1238 H   0  0  0  0  0  0
  -19.6689  -27.3181   20.6725 H   0  0  0  0  0  0
  -17.4218  -26.6651   21.4045 H   0  0  0  0  0  0
  -18.0374  -26.0073   22.9037 H   0  0  0  0  0  0
  -19.7967  -30.7295   24.2214 H   0  0  0  0  0  0
  -17.5035  -31.6252   24.5173 H   0  0  0  0  0  0
  -15.5375  -30.2959   23.7666 H   0  0  0  0  0  0
  -15.8712  -28.0804   22.7059 H   0  0  0  0  0  0
  -24.5883  -30.7142   25.7758 H   0  0  0  0  0  0
  -24.8970  -32.2956   26.4835 H   0  0  0  0  0  0
  -25.8020  -30.8936   27.0222 H   0  0  0  0  0  0
  -26.2991  -29.6660   24.1314 H   0  0  0  0  0  0
  -27.3953  -29.7222   25.4906 H   0  0  0  0  0  0
  -27.8930  -30.4126   23.9657 H   0  0  0  0  0  0
  -27.2674  -33.3600   26.2076 H   0  0  0  0  0  0
  -28.3903  -32.6870   25.0347 H   0  0  0  0  0  0
  -28.0742  -31.8436   26.5435 H   0  0  0  0  0  0
  -28.2618  -38.0057   24.7456 H   0  0  0  0  0  0
  -28.1037  -36.2588   24.6381 H   0  0  0  0  0  0
  -27.2280  -37.1537   25.8875 H   0  0  0  0  0  0
  -20.9488  -29.8769   21.6764 H   0  0  0  0  0  0
  -26.0161  -38.2807   24.1355 H   0  0  0  0  0  0
  -31.4990  -18.2091   19.8898 H   0  0  0  0  0  0
  -31.0046  -20.6281   19.7592 H   0  0  0  0  0  0
  -27.4782  -17.4766   21.1222 H   0  0  0  0  0  0
  -26.0229  -19.1654   21.6150 H   0  0  0  0  0  0
  -26.0022  -20.2111   20.1976 H   0  0  0  0  0  0
  -26.5511  -20.8296   21.7648 H   0  0  0  0  0  0
  -27.0215  -24.4334   20.6310 H   0  0  0  0  0  0
  -27.5869  -24.5146   18.9844 H   0  0  0  0  0  0
  -27.4372  -22.0463   20.1106 H   0  0  0  0  0  0
  -28.7418  -15.6070   20.9001 H   0  0  0  0  0  0
  1 25  1  0  0  0
  1 30  2  0  0  0
  1 81  1  0  0  0
  2  3  1  0  0  0
  2 25  1  0  0  0
  2 83  1  0  0  0
  2 84  1  0  0  0
  3  4  1  0  0  0
  3 85  1  0  0  0
  3 86  1  0  0  0
  4  5  1  0  0  0
  4 87  1  0  0  0
  4 88  1  0  0  0
  5  6  1  0  0  0
  5 26  1  0  0  0
  5 89  1  0  0  0
  6 25  1  0  0  0
  6 90  1  0  0  0
  6 91  1  0  0  0
  7  8  2  0  0  0
  7 26  1  0  0  0
  7 29  1  0  0  0
  8  9  1  0  0  0
  8 22  1  0  0  0
  9 10  1  0  0  0
  9 27  2  0  0  0
 10 11  2  0  0  0
 10 15  1  0  0  0
 11 12  1  0  0  0
 11 92  1  0  0  0
 12 13  2  0  0  0
 12 93  1  0  0  0
 13 14  1  0  0  0
 13 31  1  0  0  0
 14 15  2  0  0  0
 14 94  1  0  0  0
 15 95  1  0  0  0
 16 17  2  0  0  0
 16 21  1  0  0  0
 16 31  1  0  0  0
 17 18  1  0  0  0
 17 96  1  0  0  0
 18 19  2  0  0  0
 18 97  1  0  0  0
 19 20  1  0  0  0
 19 24  1  0  0  0
 20 21  2  0  0  0
 20 98  1  0  0  0
 21 23  1  0  0  0
 22 28  1  0  0  0
 22 32  2  0  0  0
 26 27  1  0  0  0
 28 99  1  0  0  0
 28100  1  0  0  0
 29101  1  0  0  0
 29102  1  0  0  0
 33 34  1  0  0  0
 33 66  1  0  0  0
 33 70  2  0  0  0
 34 36  1  0  0  0
 34 59  1  0  0  0
 34103  1  0  0  0
 35 44  2  0  0  0
 35 45  1  0  0  0
 35 68  1  0  0  0
 36 56  1  0  0  0
 36104  1  0  0  0
 37 39  1  0  0  0
 37 47  1  0  0  0
 37 66  1  0  0  0
 37105  1  0  0  0
 38 43  2  0  0  0
 38 46  1  0  0  0
 38 47  1  0  0  0
 39 64  1  0  0  0
 39 67  2  0  0  0
 40 52  1  0  0  0
 40 53  2  0  0  0
 40 58  1  0  0  0
 41106  1  0  0  0
 41107  1  0  0  0
 41108  1  0  0  0
 41 48  1  0  0  0
 42 43  1  0  0  0
 42 66  1  0  0  0
 42109  1  0  0  0
 42110  1  0  0  0
 43 44  1  0  0  0
 44111  1  0  0  0
 45 46  2  0  0  0
 45112  1  0  0  0
 46113  1  0  0  0
 47114  1  0  0  0
 47115  1  0  0  0
 48 56  1  0  0  0
 48 65  1  0  0  0
 48116  1  0  0  0
 49 50  1  0  0  0
 49 53  1  0  0  0
 49 64  1  0  0  0
 49117  1  0  0  0
 50 51  1  0  0  0
 50118  1  0  0  0
 50119  1  0  0  0
 51 52  1  0  0  0
 51120  1  0  0  0
 51121  1  0  0  0
 52122  1  0  0  0
 52123  1  0  0  0
 53 54  1  0  0  0
 54 55  2  0  0  0
 54124  1  0  0  0
 55 57  1  0  0  0
 55125  1  0  0  0
 56 69  2  0  0  0
 57 58  2  0  0  0
 57126  1  0  0  0
 58127  1  0  0  0
 59 60  1  0  0  0
 59 61  1  0  0  0
 59 62  1  0  0  0
 60128  1  0  0  0
 60129  1  0  0  0
 60130  1  0  0  0
 61131  1  0  0  0
 61132  1  0  0  0
 61133  1  0  0  0
 62134  1  0  0  0
 62135  1  0  0  0
 62136  1  0  0  0
 63 65  1  0  0  0
 63137  1  0  0  0
 63138  1  0  0  0
 63139  1  0  0  0
 64140  1  0  0  0
 65141  1  0  0  0
 68 79  1  0  0  0
 71 72  2  0  0  0
 71 75  1  0  0  0
 71142  1  0  0  0
 72 76  1  0  0  0
 72143  1  0  0  0
 73 74  1  0  0  0
 73 75  2  0  0  0
 73144  1  0  0  0
 74 76  2  0  0  0
 74 78  1  0  0  0
 75 81  1  0  0  0
 76 80  1  0  0  0
 77 79  1  0  0  0
 77 80  1  0  0  0
 77 82  2  0  0  0
 78145  1  0  0  0
 78146  1  0  0  0
 78147  1  0  0  0
 79148  1  0  0  0
 79149  1  0  0  0
 80150  1  0  0  0
 81151  1  0  0  0
M  ISO  4   1 100  68 101  79 101  81 100
M  END
> <chiral flag>
0

> <version>
0

> <s_m_source_file>
/data/baiqing/PycharmProjects/Reinvent-master-3.2/result/LINK_invent/BTK/process_docking_weight1_custom_sum_contain_oxygen_bond_distance_aromatic_linkinvent_7_9_3/rearranged_h_0008.sdf

> <i_m_source_file_index>
66

> <r_mmod_Potential_Energy-OPLS-2005>
406.607940673828

> <r_mmod_Stretch_Energy-OPLS-2005>
220.072738647461

> <r_mmod_Bend_Energy-OPLS-2005>
280.334228515625

> <r_mmod_Torsional_Energy-OPLS-2005>
222.647247314453

> <r_mmod_Improper_Torsional_Energy-OPLS-2005>
4.48283672332764

> <r_mmod_Van_der_Waal_Energy-OPLS-2005>
131.61994934082

> <r_mmod_Electrostatic_Energy-OPLS-2005>
-387.265258789062

> <r_mmod_Solvation_Energy-OPLS-2005>
-249.595458984375

> <b_mmod_Minimization_Converged-OPLS-2005>
0

> <r_mmod_RMS_Derivative-OPLS-2005>
1.20512986183167

$$$$
66
                    3D
 Structure written by MMmdl.
155163  0  0  1  0            999 V2000
  -30.5115  -14.9037   20.4400 C   0  0  0  0  0  0
  -30.4544  -12.5564   19.4902 C   0  0  0  0  0  0
  -29.5271  -12.5326   18.2510 C   0  0  0  0  0  0
  -28.0558  -12.3245   18.6627 C   0  0  0  0  0  0
  -27.6389  -13.2356   19.8463 C   0  0  2  0  0  0
  -28.6825  -13.2074   20.9842 C   0  0  0  0  0  0
  -25.2502  -13.8187   20.5688 C   0  0  0  0  0  0
  -24.1805  -13.0433   20.9225 C   0  0  0  0  0  0
  -24.6400  -11.6912   20.8748 C   0  0  0  0  0  0
  -23.9073  -10.4291   21.0407 C   0  0  0  0  0  0
  -24.3621   -9.4206   21.9185 C   0  0  0  0  0  0
  -23.6293   -8.2243   22.0754 C   0  0  0  0  0  0
  -22.4276   -8.0282   21.3544 C   0  0  0  0  0  0
  -21.9913   -9.0256   20.4648 C   0  0  0  0  0  0
  -22.7243  -10.2134   20.3058 C   0  0  0  0  0  0
  -21.6853   -6.0734   22.5279 C   0  0  0  0  0  0
  -21.4014   -6.5638   23.8212 C   0  0  0  0  0  0
  -21.3660   -5.6791   24.9174 C   0  0  0  0  0  0
  -21.6045   -4.3053   24.7224 C   0  0  0  0  0  0
  -21.8819   -3.8145   23.4345 C   0  0  0  0  0  0
  -21.9192   -4.6961   22.3401 C   0  0  0  0  0  0
  -22.7826  -13.5217   21.1880 C   0  0  0  0  0  0
  -22.1662   -4.2147   21.0977 F   0  0  0  0  0  0
  -21.5629   -3.4538   25.7736 F   0  0  0  0  0  0
  -29.9682  -13.6240   20.4041 N   0  0  0  0  0  0
  -26.2924  -12.9396   20.3241 N   0  0  0  0  0  0
  -25.9329  -11.6539   20.5724 N   0  0  0  0  0  0
  -22.0464  -12.8210   22.0432 N   0  0  0  0  0  0
  -25.4167  -15.1910   20.4067 N   0  0  0  0  0  0
  -31.7000  -15.0477   20.1304 O   0  0  0  0  0  0
  -21.6639   -6.8880   21.4243 O   0  0  0  0  0  0
  -22.3513  -14.5518   20.6715 O   0  0  0  0  0  0
  -24.6412  -31.8462   23.1905 C   0  0  0  0  0  0
  -25.9194  -32.4709   23.8285 C   0  0  1  0  0  0
  -27.2200  -27.1584   20.1514 C   0  0  0  0  0  0
  -25.5951  -33.8514   24.2203 N   0  0  0  0  0  0
  -23.4440  -30.4659   21.5359 C   0  0  2  0  0  0
  -24.8937  -28.8946   20.1145 C   0  0  0  0  0  0
  -22.7559  -29.4555   22.4876 C   0  0  0  0  0  0
  -18.0303  -28.1397   22.8474 C   0  0  0  0  0  0
  -24.1491  -36.7262   23.2641 C   0  0  0  0  0  0
  -25.9982  -30.7262   21.3871 C   0  0  0  0  0  0
  -26.0703  -29.3382   20.7316 C   0  0  0  0  0  0
  -27.2358  -28.4867   20.7327 C   0  0  0  0  0  0
  -26.0207  -26.8151   19.4895 C   0  0  0  0  0  0
  -24.8802  -27.6448   19.4784 C   0  0  0  0  0  0
  -23.6699  -29.7950   20.1555 C   0  0  0  0  0  0
  -25.4122  -36.3040   24.0318 C   0  0  1  0  0  0
  -20.5914  -28.3717   23.1242 C   0  0  2  0  0  0
  -20.6788  -26.9424   22.5407 C   0  0  0  0  0  0
  -19.5766  -26.6384   21.5211 C   0  0  0  0  0  0
  -18.1944  -26.7939   22.1615 C   0  0  0  0  0  0
  -19.1559  -28.8876   23.2851 C   0  0  0  0  0  0
  -18.9476  -30.1472   23.8879 C   0  0  0  0  0  0
  -17.6472  -30.6590   24.0566 C   0  0  0  0  0  0
  -25.9070  -34.9415   23.5068 C   0  0  0  0  0  0
  -16.5363  -29.9085   23.6338 C   0  0  0  0  0  0
  -16.7287  -28.6506   23.0354 C   0  0  0  0  0  0
  -26.4523  -31.6569   25.0718 C   0  0  0  0  0  0
  -25.3712  -31.3750   26.1417 C   0  0  0  0  0  0
  -27.0388  -30.2968   24.6285 C   0  0  0  0  0  0
  -27.6057  -32.4331   25.7502 C   0  0  0  0  0  0
  -27.5576  -37.1789   24.8465 C   0  0  0  0  0  0
  -21.4255  -29.3045   22.3623 N   0  0  0  0  0  0
  -26.4288  -37.3751   23.9406 N   0  0  0  0  0  0
  -24.7141  -31.0336   22.0930 N   0  0  0  0  0  0
  -23.4212  -28.8104   23.3020 O   0  0  0  0  0  0
  -28.2858  -26.1932   20.1808 O   0  0  0  0  0  0
  -26.5654  -34.8908   22.4644 O   0  0  0  0  0  0
  -23.5536  -32.1330   23.7136 O   0  0  0  0  0  0
  -30.5498  -18.5112   20.3962 C   0  0  0  0  0  0
  -30.2839  -19.9529   20.4115 C   0  0  0  0  0  0
  -28.2497  -18.1130   20.7044 C   0  0  0  0  0  0
  -27.9753  -19.5333   20.7111 C   0  0  0  0  0  0
  -29.5362  -17.5034   20.5677 C   0  0  0  0  0  0
  -28.9841  -20.5532   20.5926 C   0  0  0  0  0  0
  -26.5196  -19.9417   20.8868 C   0  0  0  0  0  0
  -28.3875  -22.1380   22.2940 C   0  0  0  0  0  0
  -28.9775  -23.3489   20.1876 C   0  0  0  0  0  0
  -28.0060  -24.6961   20.4734 C   0  0  0  0  0  0
  -29.6211  -15.9789   20.6550 N   0  0  0  0  0  0
  -28.6621  -21.9843   20.8649 N   0  0  0  0  0  0
  -31.4867  -12.7300   19.1819 H   0  0  0  0  0  0
  -30.4514  -11.5895   19.9956 H   0  0  0  0  0  0
  -29.8385  -11.7477   17.5605 H   0  0  0  0  0  0
  -29.6233  -13.4733   17.7066 H   0  0  0  0  0  0
  -27.9382  -11.2778   18.9452 H   0  0  0  0  0  0
  -27.3964  -12.4849   17.8088 H   0  0  0  0  0  0
  -27.6176  -14.2485   19.4439 H   0  0  0  0  0  0
  -28.7568  -12.2102   21.4207 H   0  0  0  0  0  0
  -28.3862  -13.8721   21.7971 H   0  0  0  0  0  0
  -25.2766   -9.5680   22.4759 H   0  0  0  0  0  0
  -24.0000   -7.4632   22.7473 H   0  0  0  0  0  0
  -21.0843   -8.8774   19.8954 H   0  0  0  0  0  0
  -22.3701  -10.9672   19.6167 H   0  0  0  0  0  0
  -21.2008   -7.6146   23.9713 H   0  0  0  0  0  0
  -21.1484   -6.0522   25.9076 H   0  0  0  0  0  0
  -22.0597   -2.7608   23.2844 H   0  0  0  0  0  0
  -22.4079  -11.9878   22.4832 H   0  0  0  0  0  0
  -21.1079  -13.1234   22.2628 H   0  0  0  0  0  0
  -24.6341  -15.8300   20.4945 H   0  0  0  0  0  0
  -26.2274  -15.6165   19.9788 H   0  0  0  0  0  0
  -26.7260  -32.5325   23.1016 H   0  0  0  0  0  0
  -25.0084  -33.9631   25.0342 H   0  0  0  0  0  0
  -22.7450  -31.2908   21.3827 H   0  0  0  0  0  0
  -23.3758  -35.9589   23.3293 H   0  0  0  0  0  0
  -24.3575  -36.8902   22.2056 H   0  0  0  0  0  0
  -23.7242  -37.6455   23.6681 H   0  0  0  0  0  0
  -26.1499  -31.4800   20.6135 H   0  0  0  0  0  0
  -26.8703  -30.7778   22.0275 H   0  0  0  0  0  0
  -28.1342  -28.8234   21.2307 H   0  0  0  0  0  0
  -25.9405  -25.8720   18.9704 H   0  0  0  0  0  0
  -23.9853  -27.3040   18.9760 H   0  0  0  0  0  0
  -23.8069  -30.5692   19.3997 H   0  0  0  0  0  0
  -22.7852  -29.2363   19.8445 H   0  0  0  0  0  0
  -25.1310  -36.1872   25.0811 H   0  0  0  0  0  0
  -21.0002  -28.3306   24.1367 H   0  0  0  0  0  0
  -20.5683  -26.2329   23.3623 H   0  0  0  0  0  0
  -21.6655  -26.7442   22.1205 H   0  0  0  0  0  0
  -19.6930  -25.6292   21.1246 H   0  0  0  0  0  0
  -19.6708  -27.3186   20.6736 H   0  0  0  0  0  0
  -17.4220  -26.6692   21.4013 H   0  0  0  0  0  0
  -18.0341  -26.0083   22.9014 H   0  0  0  0  0  0
  -19.7951  -30.7293   24.2237 H   0  0  0  0  0  0
  -17.5028  -31.6270   24.5174 H   0  0  0  0  0  0
  -15.5363  -30.2982   23.7674 H   0  0  0  0  0  0
  -15.8689  -28.0821   22.7073 H   0  0  0  0  0  0
  -24.5898  -30.7091   25.7737 H   0  0  0  0  0  0
  -24.8894  -32.2929   26.4792 H   0  0  0  0  0  0
  -25.8000  -30.8957   27.0226 H   0  0  0  0  0  0
  -26.3001  -29.6694   24.1285 H   0  0  0  0  0  0
  -27.4001  -29.7264   25.4851 H   0  0  0  0  0  0
  -27.8908  -30.4212   23.9598 H   0  0  0  0  0  0
  -27.2652  -33.3646   26.2034 H   0  0  0  0  0  0
  -28.3891  -32.6868   25.0349 H   0  0  0  0  0  0
  -28.0699  -31.8487   26.5456 H   0  0  0  0  0  0
  -28.2591  -38.0089   24.7511 H   0  0  0  0  0  0
  -28.1076  -36.2619   24.6296 H   0  0  0  0  0  0
  -27.2292  -37.1440   25.8868 H   0  0  0  0  0  0
  -20.9464  -29.8763   21.6806 H   0  0  0  0  0  0
  -26.0157  -38.2820   24.1409 H   0  0  0  0  0  0
  -31.5749  -18.1883   20.2824 H   0  0  0  0  0  0
  -31.1343  -20.6148   20.3350 H   0  0  0  0  0  0
  -27.4050  -17.4525   20.8354 H   0  0  0  0  0  0
  -25.8428  -19.1585   20.5445 H   0  0  0  0  0  0
  -26.2891  -20.8411   20.3149 H   0  0  0  0  0  0
  -26.3041  -20.1373   21.9369 H   0  0  0  0  0  0
  -28.5695  -21.2270   22.8676 H   0  0  0  0  0  0
  -27.3461  -22.4225   22.4506 H   0  0  0  0  0  0
  -29.0147  -22.9169   22.7301 H   0  0  0  0  0  0
  -29.9947  -23.6110   20.4809 H   0  0  0  0  0  0
  -29.0261  -23.1836   19.1107 H   0  0  0  0  0  0
  -27.8156  -24.7059   21.5461 H   0  0  0  0  0  0
  -27.0423  -24.4310   20.0456 H   0  0  0  0  0  0
  -28.7232  -15.5810   20.8819 H   0  0  0  0  0  0
  1 25  1  0  0  0
  1 30  2  0  0  0
  1 81  1  0  0  0
  2  3  1  0  0  0
  2 25  1  0  0  0
  2 83  1  0  0  0
  2 84  1  0  0  0
  3  4  1  0  0  0
  3 85  1  0  0  0
  3 86  1  0  0  0
  4  5  1  0  0  0
  4 87  1  0  0  0
  4 88  1  0  0  0
  5  6  1  0  0  0
  5 26  1  0  0  0
  5 89  1  0  0  0
  6 25  1  0  0  0
  6 90  1  0  0  0
  6 91  1  0  0  0
  7  8  2  0  0  0
  7 26  1  0  0  0
  7 29  1  0  0  0
  8  9  1  0  0  0
  8 22  1  0  0  0
  9 10  1  0  0  0
  9 27  2  0  0  0
 10 11  2  0  0  0
 10 15  1  0  0  0
 11 12  1  0  0  0
 11 92  1  0  0  0
 12 13  2  0  0  0
 12 93  1  0  0  0
 13 14  1  0  0  0
 13 31  1  0  0  0
 14 15  2  0  0  0
 14 94  1  0  0  0
 15 95  1  0  0  0
 16 17  2  0  0  0
 16 21  1  0  0  0
 16 31  1  0  0  0
 17 18  1  0  0  0
 17 96  1  0  0  0
 18 19  2  0  0  0
 18 97  1  0  0  0
 19 20  1  0  0  0
 19 24  1  0  0  0
 20 21  2  0  0  0
 20 98  1  0  0  0
 21 23  1  0  0  0
 22 28  1  0  0  0
 22 32  2  0  0  0
 26 27  1  0  0  0
 28 99  1  0  0  0
 28100  1  0  0  0
 29101  1  0  0  0
 29102  1  0  0  0
 33 34  1  0  0  0
 33 66  1  0  0  0
 33 70  2  0  0  0
 34 36  1  0  0  0
 34 59  1  0  0  0
 34103  1  0  0  0
 35 44  2  0  0  0
 35 45  1  0  0  0
 35 68  1  0  0  0
 36 56  1  0  0  0
 36104  1  0  0  0
 37 39  1  0  0  0
 37 47  1  0  0  0
 37 66  1  0  0  0
 37105  1  0  0  0
 38 43  2  0  0  0
 38 46  1  0  0  0
 38 47  1  0  0  0
 39 64  1  0  0  0
 39 67  2  0  0  0
 40 52  1  0  0  0
 40 53  2  0  0  0
 40 58  1  0  0  0
 41106  1  0  0  0
 41107  1  0  0  0
 41108  1  0  0  0
 41 48  1  0  0  0
 42 43  1  0  0  0
 42 66  1  0  0  0
 42109  1  0  0  0
 42110  1  0  0  0
 43 44  1  0  0  0
 44111  1  0  0  0
 45 46  2  0  0  0
 45112  1  0  0  0
 46113  1  0  0  0
 47114  1  0  0  0
 47115  1  0  0  0
 48 56  1  0  0  0
 48 65  1  0  0  0
 48116  1  0  0  0
 49 50  1  0  0  0
 49 53  1  0  0  0
 49 64  1  0  0  0
 49117  1  0  0  0
 50 51  1  0  0  0
 50118  1  0  0  0
 50119  1  0  0  0
 51 52  1  0  0  0
 51120  1  0  0  0
 51121  1  0  0  0
 52122  1  0  0  0
 52123  1  0  0  0
 53 54  1  0  0  0
 54 55  2  0  0  0
 54124  1  0  0  0
 55 57  1  0  0  0
 55125  1  0  0  0
 56 69  2  0  0  0
 57 58  2  0  0  0
 57126  1  0  0  0
 58127  1  0  0  0
 59 60  1  0  0  0
 59 61  1  0  0  0
 59 62  1  0  0  0
 60128  1  0  0  0
 60129  1  0  0  0
 60130  1  0  0  0
 61131  1  0  0  0
 61132  1  0  0  0
 61133  1  0  0  0
 62134  1  0  0  0
 62135  1  0  0  0
 62136  1  0  0  0
 63 65  1  0  0  0
 63137  1  0  0  0
 63138  1  0  0  0
 63139  1  0  0  0
 64140  1  0  0  0
 65141  1  0  0  0
 68 80  1  0  0  0
 71 72  2  0  0  0
 71 75  1  0  0  0
 71142  1  0  0  0
 72 76  1  0  0  0
 72143  1  0  0  0
 73 74  1  0  0  0
 73 75  2  0  0  0
 73144  1  0  0  0
 74 76  2  0  0  0
 74 77  1  0  0  0
 75 81  1  0  0  0
 76 82  1  0  0  0
 77145  1  0  0  0
 77146  1  0  0  0
 77147  1  0  0  0
 78 82  1  0  0  0
 78148  1  0  0  0
 78149  1  0  0  0
 78150  1  0  0  0
 79 80  1  0  0  0
 79 82  1  0  0  0
 79151  1  0  0  0
 79152  1  0  0  0
 80153  1  0  0  0
 80154  1  0  0  0
 81155  1  0  0  0
M  ISO  4   1 100  68 101  80 101  81 100
M  END
> <chiral flag>
0

> <version>
0

> <s_m_source_file>
/data/baiqing/PycharmProjects/Reinvent-master-3.2/result/LINK_invent/BTK/process_docking_weight1_custom_sum_contain_oxygen_bond_distance_aromatic_linkinvent_7_9_3/rearranged_h_0008.sdf

> <i_m_source_file_index>
67

> <r_mmod_Potential_Energy-OPLS-2005>
439.221496582031

> <r_mmod_Stretch_Energy-OPLS-2005>
210.651062011719

> <r_mmod_Bend_Energy-OPLS-2005>
276.668182373047

> <r_mmod_Torsional_Energy-OPLS-2005>
245.005493164062

> <r_mmod_Improper_Torsional_Energy-OPLS-2005>
7.2226448059082

> <r_mmod_Van_der_Waal_Energy-OPLS-2005>
136.267471313477

> <r_mmod_Electrostatic_Energy-OPLS-2005>
-385.012603759766

> <r_mmod_Solvation_Energy-OPLS-2005>
-218.010757446289

> <b_mmod_Minimization_Converged-OPLS-2005>
0

> <r_mmod_RMS_Derivative-OPLS-2005>
0.500055015087128

$$$$
67
                    3D
 Structure written by MMmdl.
155163  0  0  1  0            999 V2000
  -30.5217  -14.9324   20.4247 C   0  0  0  0  0  0
  -30.4475  -12.5744   19.4978 C   0  0  0  0  0  0
  -29.5249  -12.5454   18.2555 C   0  0  0  0  0  0
  -28.0527  -12.3361   18.6632 C   0  0  0  0  0  0
  -27.6348  -13.2476   19.8466 C   0  0  2  0  0  0
  -28.6787  -13.2372   20.9852 C   0  0  0  0  0  0
  -25.2468  -13.8213   20.5708 C   0  0  0  0  0  0
  -24.1775  -13.0440   20.9232 C   0  0  0  0  0  0
  -24.6382  -11.6925   20.8746 C   0  0  0  0  0  0
  -23.9057  -10.4296   21.0402 C   0  0  0  0  0  0
  -24.3610   -9.4208   21.9176 C   0  0  0  0  0  0
  -23.6293   -8.2232   22.0740 C   0  0  0  0  0  0
  -22.4276   -8.0265   21.3531 C   0  0  0  0  0  0
  -21.9906   -9.0233   20.4627 C   0  0  0  0  0  0
  -22.7231  -10.2122   20.3044 C   0  0  0  0  0  0
  -21.6851   -6.0722   22.5278 C   0  0  0  0  0  0
  -21.4011   -6.5623   23.8215 C   0  0  0  0  0  0
  -21.3678   -5.6776   24.9180 C   0  0  0  0  0  0
  -21.6060   -4.3040   24.7228 C   0  0  0  0  0  0
  -21.8811   -3.8127   23.4349 C   0  0  0  0  0  0
  -21.9185   -4.6946   22.3407 C   0  0  0  0  0  0
  -22.7791  -13.5196   21.1898 C   0  0  0  0  0  0
  -22.1657   -4.2121   21.0990 F   0  0  0  0  0  0
  -21.5644   -3.4535   25.7750 F   0  0  0  0  0  0
  -29.9634  -13.6543   20.4037 N   0  0  0  0  0  0
  -26.2901  -12.9447   20.3262 N   0  0  0  0  0  0
  -25.9324  -11.6583   20.5734 N   0  0  0  0  0  0
  -22.0436  -12.8181   22.0457 N   0  0  0  0  0  0
  -25.4131  -15.1936   20.4120 N   0  0  0  0  0  0
  -31.7052  -15.0464   20.0886 O   0  0  0  0  0  0
  -21.6646   -6.8863   21.4235 O   0  0  0  0  0  0
  -22.3478  -14.5505   20.6758 O   0  0  0  0  0  0
  -24.6442  -31.8453   23.1911 C   0  0  0  0  0  0
  -25.9211  -32.4700   23.8299 C   0  0  1  0  0  0
  -27.2223  -27.1347   20.1626 C   0  0  0  0  0  0
  -25.5971  -33.8509   24.2225 N   0  0  0  0  0  0
  -23.4489  -30.4657   21.5358 C   0  0  2  0  0  0
  -24.9025  -28.8964   20.1117 C   0  0  0  0  0  0
  -22.7571  -29.4552   22.4857 C   0  0  0  0  0  0
  -18.0304  -28.1395   22.8474 C   0  0  0  0  0  0
  -24.1498  -36.7231   23.2644 C   0  0  0  0  0  0
  -26.0057  -30.7196   21.3936 C   0  0  0  0  0  0
  -26.0787  -29.3306   20.7362 C   0  0  0  0  0  0
  -27.2360  -28.4640   20.7514 C   0  0  0  0  0  0
  -26.0255  -26.8176   19.4768 C   0  0  0  0  0  0
  -24.8892  -27.6522   19.4674 C   0  0  0  0  0  0
  -23.6779  -29.7965   20.1551 C   0  0  0  0  0  0
  -25.4133  -36.3036   24.0331 C   0  0  1  0  0  0
  -20.5919  -28.3716   23.1231 C   0  0  2  0  0  0
  -20.6784  -26.9413   22.5414 C   0  0  0  0  0  0
  -19.5763  -26.6373   21.5220 C   0  0  0  0  0  0
  -18.1943  -26.7929   22.1629 C   0  0  0  0  0  0
  -19.1561  -28.8875   23.2848 C   0  0  0  0  0  0
  -18.9476  -30.1471   23.8869 C   0  0  0  0  0  0
  -17.6471  -30.6589   24.0554 C   0  0  0  0  0  0
  -25.9082  -34.9405   23.5084 C   0  0  0  0  0  0
  -16.5361  -29.9083   23.6331 C   0  0  0  0  0  0
  -16.7285  -28.6505   23.0349 C   0  0  0  0  0  0
  -26.4544  -31.6542   25.0717 C   0  0  0  0  0  0
  -25.3736  -31.3706   26.1411 C   0  0  0  0  0  0
  -27.0394  -30.2932   24.6283 C   0  0  0  0  0  0
  -27.6116  -32.4269   25.7473 C   0  0  0  0  0  0
  -27.5581  -37.1781   24.8466 C   0  0  0  0  0  0
  -21.4263  -29.3041   22.3592 N   0  0  0  0  0  0
  -26.4294  -37.3750   23.9410 N   0  0  0  0  0  0
  -24.7190  -31.0310   22.0948 N   0  0  0  0  0  0
  -23.4205  -28.8098   23.3016 O   0  0  0  0  0  0
  -28.2570  -26.1283   20.2763 O   0  0  0  0  0  0
  -26.5652  -34.8894   22.4656 O   0  0  0  0  0  0
  -23.5560  -32.1321   23.7135 O   0  0  0  0  0  0
  -30.4080  -19.8232   19.5600 C   0  0  0  0  0  0
  -30.5611  -18.3864   19.7267 C   0  0  0  0  0  0
  -28.5583  -19.8420   21.0081 C   0  0  0  0  0  0
  -29.3977  -20.6586   20.1750 C   0  0  0  0  0  0
  -29.6957  -17.5765   20.5279 C   0  0  0  0  0  0
  -28.6790  -18.3846   21.1593 C   0  0  0  0  0  0
  -28.6900  -23.2807   20.5559 C   0  0  0  0  0  0
  -29.8629  -22.5410   18.5663 C   0  0  0  0  0  0
  -26.6148  -18.2812   22.3924 C   0  0  0  0  0  0
  -27.9827  -24.6408   19.8906 C   0  0  0  0  0  0
  -29.6904  -16.0492   20.6908 N   0  0  0  0  0  0
  -29.2123  -22.1625   19.8294 N   0  0  0  0  0  0
  -28.6847  -23.2227   21.7902 O   0  0  0  0  0  0
  -27.7925  -17.6468   21.9172 O   0  0  0  0  0  0
  -31.4800  -12.7391   19.1866 H   0  0  0  0  0  0
  -30.4435  -11.6102   20.0082 H   0  0  0  0  0  0
  -29.8407  -11.7611   17.5655 H   0  0  0  0  0  0
  -29.6193  -13.4866   17.7116 H   0  0  0  0  0  0
  -27.9310  -11.2891   18.9443 H   0  0  0  0  0  0
  -27.3937  -12.5007   17.8088 H   0  0  0  0  0  0
  -27.6076  -14.2605   19.4436 H   0  0  0  0  0  0
  -28.7548  -12.2442   21.4316 H   0  0  0  0  0  0
  -28.3785  -13.9113   21.7886 H   0  0  0  0  0  0
  -25.2752   -9.5689   22.4756 H   0  0  0  0  0  0
  -24.0001   -7.4618   22.7460 H   0  0  0  0  0  0
  -21.0837   -8.8735   19.8935 H   0  0  0  0  0  0
  -22.3673  -10.9647   19.6148 H   0  0  0  0  0  0
  -21.1994   -7.6132   23.9712 H   0  0  0  0  0  0
  -21.1533   -6.0515   25.9088 H   0  0  0  0  0  0
  -22.0580   -2.7586   23.2862 H   0  0  0  0  0  0
  -22.4041  -11.9825   22.4821 H   0  0  0  0  0  0
  -21.1036  -13.1178   22.2648 H   0  0  0  0  0  0
  -24.6429  -15.8444   20.5186 H   0  0  0  0  0  0
  -26.2554  -15.6301   20.0603 H   0  0  0  0  0  0
  -26.7273  -32.5319   23.1031 H   0  0  0  0  0  0
  -25.0104  -33.9621   25.0361 H   0  0  0  0  0  0
  -22.7534  -31.2935   21.3823 H   0  0  0  0  0  0
  -23.3780  -35.9541   23.3305 H   0  0  0  0  0  0
  -24.3580  -36.8849   22.2055 H   0  0  0  0  0  0
  -23.7221  -37.6425   23.6660 H   0  0  0  0  0  0
  -26.1645  -31.4755   20.6237 H   0  0  0  0  0  0
  -26.8755  -30.7706   22.0362 H   0  0  0  0  0  0
  -28.1242  -28.7875   21.2776 H   0  0  0  0  0  0
  -25.9180  -25.8755   18.9636 H   0  0  0  0  0  0
  -23.9936  -27.3140   18.9647 H   0  0  0  0  0  0
  -23.8165  -30.5730   19.4026 H   0  0  0  0  0  0
  -22.7933  -29.2406   19.8402 H   0  0  0  0  0  0
  -25.1327  -36.1880   25.0826 H   0  0  0  0  0  0
  -21.0028  -28.3311   24.1349 H   0  0  0  0  0  0
  -20.5677  -26.2326   23.3636 H   0  0  0  0  0  0
  -21.6647  -26.7416   22.1211 H   0  0  0  0  0  0
  -19.6920  -25.6284   21.1254 H   0  0  0  0  0  0
  -19.6704  -27.3179   20.6749 H   0  0  0  0  0  0
  -17.4218  -26.6675   21.4031 H   0  0  0  0  0  0
  -18.0336  -26.0077   22.9030 H   0  0  0  0  0  0
  -19.7953  -30.7297   24.2218 H   0  0  0  0  0  0
  -17.5022  -31.6266   24.5168 H   0  0  0  0  0  0
  -15.5357  -30.2980   23.7668 H   0  0  0  0  0  0
  -15.8682  -28.0817   22.7071 H   0  0  0  0  0  0
  -24.5967  -30.6998   25.7721 H   0  0  0  0  0  0
  -24.8861  -32.2863   26.4767 H   0  0  0  0  0  0
  -25.8039  -30.8934   27.0225 H   0  0  0  0  0  0
  -26.2998  -29.6650   24.1307 H   0  0  0  0  0  0
  -27.4018  -29.7238   25.4852 H   0  0  0  0  0  0
  -27.8911  -30.4150   23.9588 H   0  0  0  0  0  0
  -27.2784  -33.3628   26.1972 H   0  0  0  0  0  0
  -28.3969  -32.6717   25.0304 H   0  0  0  0  0  0
  -28.0730  -31.8412   26.5437 H   0  0  0  0  0  0
  -28.2605  -38.0074   24.7532 H   0  0  0  0  0  0
  -28.1082  -36.2613   24.6298 H   0  0  0  0  0  0
  -27.2286  -37.1417   25.8862 H   0  0  0  0  0  0
  -20.9469  -29.8726   21.6745 H   0  0  0  0  0  0
  -26.0169  -38.2822   24.1421 H   0  0  0  0  0  0
  -31.1177  -20.2876   18.8922 H   0  0  0  0  0  0
  -31.3537  -17.8967   19.1793 H   0  0  0  0  0  0
  -27.7607  -20.3651   21.5132 H   0  0  0  0  0  0
  -30.9447  -22.5658   18.7091 H   0  0  0  0  0  0
  -29.6046  -23.5142   18.1599 H   0  0  0  0  0  0
  -29.6409  -21.8155   17.7838 H   0  0  0  0  0  0
  -25.9537  -17.5286   22.8219 H   0  0  0  0  0  0
  -26.0680  -18.7715   21.5859 H   0  0  0  0  0  0
  -26.8461  -19.0081   23.1713 H   0  0  0  0  0  0
  -26.9513  -24.4618   20.1924 H   0  0  0  0  0  0
  -27.9480  -24.5776   18.8059 H   0  0  0  0  0  0
  -28.8095  -15.7354   21.0688 H   0  0  0  0  0  0
  1 25  1  0  0  0
  1 30  2  0  0  0
  1 81  1  0  0  0
  2  3  1  0  0  0
  2 25  1  0  0  0
  2 85  1  0  0  0
  2 86  1  0  0  0
  3  4  1  0  0  0
  3 87  1  0  0  0
  3 88  1  0  0  0
  4  5  1  0  0  0
  4 89  1  0  0  0
  4 90  1  0  0  0
  5  6  1  0  0  0
  5 26  1  0  0  0
  5 91  1  0  0  0
  6 25  1  0  0  0
  6 92  1  0  0  0
  6 93  1  0  0  0
  7  8  2  0  0  0
  7 26  1  0  0  0
  7 29  1  0  0  0
  8  9  1  0  0  0
  8 22  1  0  0  0
  9 10  1  0  0  0
  9 27  2  0  0  0
 10 11  2  0  0  0
 10 15  1  0  0  0
 11 12  1  0  0  0
 11 94  1  0  0  0
 12 13  2  0  0  0
 12 95  1  0  0  0
 13 14  1  0  0  0
 13 31  1  0  0  0
 14 15  2  0  0  0
 14 96  1  0  0  0
 15 97  1  0  0  0
 16 17  2  0  0  0
 16 21  1  0  0  0
 16 31  1  0  0  0
 17 18  1  0  0  0
 17 98  1  0  0  0
 18 19  2  0  0  0
 18 99  1  0  0  0
 19 20  1  0  0  0
 19 24  1  0  0  0
 20 21  2  0  0  0
 20100  1  0  0  0
 21 23  1  0  0  0
 22 28  1  0  0  0
 22 32  2  0  0  0
 26 27  1  0  0  0
 28101  1  0  0  0
 28102  1  0  0  0
 29103  1  0  0  0
 29104  1  0  0  0
 33 34  1  0  0  0
 33 66  1  0  0  0
 33 70  2  0  0  0
 34 36  1  0  0  0
 34 59  1  0  0  0
 34105  1  0  0  0
 35 44  2  0  0  0
 35 45  1  0  0  0
 35 68  1  0  0  0
 36 56  1  0  0  0
 36106  1  0  0  0
 37 39  1  0  0  0
 37 47  1  0  0  0
 37 66  1  0  0  0
 37107  1  0  0  0
 38 43  2  0  0  0
 38 46  1  0  0  0
 38 47  1  0  0  0
 39 64  1  0  0  0
 39 67  2  0  0  0
 40 52  1  0  0  0
 40 53  2  0  0  0
 40 58  1  0  0  0
 41108  1  0  0  0
 41109  1  0  0  0
 41110  1  0  0  0
 41 48  1  0  0  0
 42 43  1  0  0  0
 42 66  1  0  0  0
 42111  1  0  0  0
 42112  1  0  0  0
 43 44  1  0  0  0
 44113  1  0  0  0
 45 46  2  0  0  0
 45114  1  0  0  0
 46115  1  0  0  0
 47116  1  0  0  0
 47117  1  0  0  0
 48 56  1  0  0  0
 48 65  1  0  0  0
 48118  1  0  0  0
 49 50  1  0  0  0
 49 53  1  0  0  0
 49 64  1  0  0  0
 49119  1  0  0  0
 50 51  1  0  0  0
 50120  1  0  0  0
 50121  1  0  0  0
 51 52  1  0  0  0
 51122  1  0  0  0
 51123  1  0  0  0
 52124  1  0  0  0
 52125  1  0  0  0
 53 54  1  0  0  0
 54 55  2  0  0  0
 54126  1  0  0  0
 55 57  1  0  0  0
 55127  1  0  0  0
 56 69  2  0  0  0
 57 58  2  0  0  0
 57128  1  0  0  0
 58129  1  0  0  0
 59 60  1  0  0  0
 59 61  1  0  0  0
 59 62  1  0  0  0
 60130  1  0  0  0
 60131  1  0  0  0
 60132  1  0  0  0
 61133  1  0  0  0
 61134  1  0  0  0
 61135  1  0  0  0
 62136  1  0  0  0
 62137  1  0  0  0
 62138  1  0  0  0
 63 65  1  0  0  0
 63139  1  0  0  0
 63140  1  0  0  0
 63141  1  0  0  0
 64142  1  0  0  0
 65143  1  0  0  0
 68 80  1  0  0  0
 71 72  2  0  0  0
 71 74  1  0  0  0
 71144  1  0  0  0
 72 75  1  0  0  0
 72145  1  0  0  0
 73 74  2  0  0  0
 73 76  1  0  0  0
 73146  1  0  0  0
 74 82  1  0  0  0
 75 76  2  0  0  0
 75 81  1  0  0  0
 76 84  1  0  0  0
 77 80  1  0  0  0
 77 82  1  0  0  0
 77 83  2  0  0  0
 78 82  1  0  0  0
 78147  1  0  0  0
 78148  1  0  0  0
 78149  1  0  0  0
 79 84  1  0  0  0
 79150  1  0  0  0
 79151  1  0  0  0
 79152  1  0  0  0
 80153  1  0  0  0
 80154  1  0  0  0
 81155  1  0  0  0
M  ISO  4   1 100  68 101  80 101  81 100
M  END
> <chiral flag>
0

> <version>
0

> <s_m_source_file>
/data/baiqing/PycharmProjects/Reinvent-master-3.2/result/LINK_invent/BTK/process_docking_weight1_custom_sum_contain_oxygen_bond_distance_aromatic_linkinvent_7_9_3/rearranged_h_0008.sdf

> <i_m_source_file_index>
68

> <r_mmod_Potential_Energy-OPLS-2005>
540.132202148438

> <r_mmod_Stretch_Energy-OPLS-2005>
246.939544677734

> <r_mmod_Bend_Energy-OPLS-2005>
279.266815185547

> <r_mmod_Torsional_Energy-OPLS-2005>
266.499816894531

> <r_mmod_Improper_Torsional_Energy-OPLS-2005>
4.78109455108643

> <r_mmod_Van_der_Waal_Energy-OPLS-2005>
147.944229125977

> <r_mmod_Electrostatic_Energy-OPLS-2005>
-366.684020996094

> <r_mmod_Solvation_Energy-OPLS-2005>
-230.089721679688

> <b_mmod_Minimization_Converged-OPLS-2005>
0

> <r_mmod_RMS_Derivative-OPLS-2005>
2.11357736587524

$$$$
68
                    3D
 Structure written by MMmdl.
152160  0  0  1  0            999 V2000
  -30.5192  -15.0104   20.3571 C   0  0  0  0  0  0
  -30.4528  -12.6255   19.5041 C   0  0  0  0  0  0
  -29.5361  -12.5203   18.2644 C   0  0  0  0  0  0
  -28.0659  -12.3191   18.6772 C   0  0  0  0  0  0
  -27.6325  -13.2546   19.8366 C   0  0  2  0  0  0
  -28.6778  -13.3091   20.9684 C   0  0  0  0  0  0
  -25.2471  -13.8218   20.5799 C   0  0  0  0  0  0
  -24.1768  -13.0426   20.9265 C   0  0  0  0  0  0
  -24.6407  -11.6911   20.8768 C   0  0  0  0  0  0
  -23.9096  -10.4266   21.0405 C   0  0  0  0  0  0
  -24.3629   -9.4168   21.9198 C   0  0  0  0  0  0
  -23.6302   -8.2213   22.0769 C   0  0  0  0  0  0
  -22.4270   -8.0297   21.3572 C   0  0  0  0  0  0
  -21.9907   -9.0276   20.4668 C   0  0  0  0  0  0
  -22.7248  -10.2142   20.3070 C   0  0  0  0  0  0
  -21.6847   -6.0728   22.5279 C   0  0  0  0  0  0
  -21.4011   -6.5623   23.8219 C   0  0  0  0  0  0
  -21.3665   -5.6772   24.9175 C   0  0  0  0  0  0
  -21.6041   -4.3044   24.7217 C   0  0  0  0  0  0
  -21.8819   -3.8129   23.4345 C   0  0  0  0  0  0
  -21.9171   -4.6947   22.3389 C   0  0  0  0  0  0
  -22.7785  -13.5227   21.1842 C   0  0  0  0  0  0
  -22.1635   -4.2137   21.0973 F   0  0  0  0  0  0
  -21.5612   -3.4520   25.7744 F   0  0  0  0  0  0
  -29.9435  -13.7351   20.3597 N   0  0  0  0  0  0
  -26.2910  -12.9468   20.3275 N   0  0  0  0  0  0
  -25.9356  -11.6588   20.5758 N   0  0  0  0  0  0
  -22.0368  -12.8340   22.0431 N   0  0  0  0  0  0
  -25.4122  -15.1962   20.4209 N   0  0  0  0  0  0
  -31.7318  -15.0532   20.1210 O   0  0  0  0  0  0
  -21.6628   -6.8897   21.4247 O   0  0  0  0  0  0
  -22.3492  -14.5513   20.6618 O   0  0  0  0  0  0
  -24.6523  -31.8344   23.1794 C   0  0  0  0  0  0
  -25.9242  -32.4626   23.8251 C   0  0  1  0  0  0
  -27.2176  -27.0656   20.1622 C   0  0  0  0  0  0
  -25.5926  -33.8438   24.2119 N   0  0  0  0  0  0
  -23.4625  -30.4471   21.5277 C   0  0  2  0  0  0
  -24.9077  -28.8539   20.1212 C   0  0  0  0  0  0
  -22.7641  -29.4466   22.4834 C   0  0  0  0  0  0
  -18.0298  -28.1368   22.8496 C   0  0  0  0  0  0
  -24.1483  -36.7242   23.2647 C   0  0  0  0  0  0
  -26.0250  -30.6843   21.3914 C   0  0  0  0  0  0
  -26.0918  -29.2894   20.7334 C   0  0  0  0  0  0
  -27.2500  -28.4144   20.7233 C   0  0  0  0  0  0
  -26.0032  -26.7423   19.5234 C   0  0  0  0  0  0
  -24.8778  -27.5932   19.5051 C   0  0  0  0  0  0
  -23.6937  -29.7660   20.1531 C   0  0  0  0  0  0
  -25.4117  -36.2987   24.0309 C   0  0  1  0  0  0
  -20.5929  -28.3694   23.1210 C   0  0  2  0  0  0
  -20.6765  -26.9385   22.5382 C   0  0  0  0  0  0
  -19.5736  -26.6345   21.5196 C   0  0  0  0  0  0
  -18.1922  -26.7901   22.1626 C   0  0  0  0  0  0
  -19.1565  -28.8854   23.2823 C   0  0  0  0  0  0
  -18.9486  -30.1458   23.8845 C   0  0  0  0  0  0
  -17.6486  -30.6571   24.0549 C   0  0  0  0  0  0
  -25.9084  -34.9372   23.5055 C   0  0  0  0  0  0
  -16.5374  -29.9063   23.6325 C   0  0  0  0  0  0
  -16.7290  -28.6464   23.0370 C   0  0  0  0  0  0
  -26.4506  -31.6564   25.0774 C   0  0  0  0  0  0
  -25.3683  -31.3834   26.1476 C   0  0  0  0  0  0
  -27.0362  -30.2925   24.6477 C   0  0  0  0  0  0
  -27.5984  -32.4378   25.7577 C   0  0  0  0  0  0
  -27.5564  -37.1767   24.8460 C   0  0  0  0  0  0
  -21.4301  -29.3022   22.3608 N   0  0  0  0  0  0
  -26.4265  -37.3719   23.9416 N   0  0  0  0  0  0
  -24.7339  -31.0120   22.0870 N   0  0  0  0  0  0
  -23.4208  -28.8019   23.3036 O   0  0  0  0  0  0
  -28.2640  -26.0531   20.1762 O   0  0  0  0  0  0
  -26.5715  -34.8890   22.4647 O   0  0  0  0  0  0
  -23.5617  -32.1221   23.6944 O   0  0  0  0  0  0
  -30.1377  -20.3839   18.8524 C   0  0  0  0  0  0
  -30.7737  -19.2377   18.3115 C   0  0  0  0  0  0
  -29.1725  -18.9109   20.5070 C   0  0  0  0  0  0
  -29.2954  -20.3206   19.9843 C   0  0  0  0  0  0
  -29.8585  -17.6735   19.9979 C   0  0  0  0  0  0
  -30.6453  -17.9341   18.8472 C   0  0  0  0  0  0
  -28.0454  -21.5134   21.7727 C   0  0  0  0  0  0
  -28.9013  -23.1141   19.9532 C   0  0  0  0  0  0
  -28.0150  -24.5067   20.4453 C   0  0  0  0  0  0
  -29.7256  -16.2015   20.4845 N   0  0  0  0  0  0
  -28.6783  -21.6181   20.4586 N   0  0  0  0  0  0
  -31.2522  -16.9209   18.1835 F   0  0  0  0  0  0
  -31.4823  -12.7943   19.1827 H   0  0  0  0  0  0
  -30.4785  -11.6919   20.0674 H   0  0  0  0  0  0
  -29.8692  -11.6993   17.6299 H   0  0  0  0  0  0
  -29.6269  -13.4217   17.6584 H   0  0  0  0  0  0
  -27.9576  -11.2832   18.9994 H   0  0  0  0  0  0
  -27.4132  -12.4446   17.8129 H   0  0  0  0  0  0
  -27.5926  -14.2534   19.4045 H   0  0  0  0  0  0
  -28.7854  -12.3388   21.4549 H   0  0  0  0  0  0
  -28.3820  -14.0145   21.7466 H   0  0  0  0  0  0
  -25.2771   -9.5615   22.4784 H   0  0  0  0  0  0
  -23.9972   -7.4585   22.7505 H   0  0  0  0  0  0
  -21.0810   -8.8819   19.9014 H   0  0  0  0  0  0
  -22.3706  -10.9703   19.6189 H   0  0  0  0  0  0
  -21.2045   -7.6125   23.9739 H   0  0  0  0  0  0
  -21.1486   -6.0485   25.9088 H   0  0  0  0  0  0
  -22.0595   -2.7600   23.2831 H   0  0  0  0  0  0
  -22.3898  -12.0099   22.5050 H   0  0  0  0  0  0
  -21.0979  -13.1440   22.2499 H   0  0  0  0  0  0
  -24.6498  -15.8536   20.5518 H   0  0  0  0  0  0
  -26.2450  -15.6299   20.0435 H   0  0  0  0  0  0
  -26.7345  -32.5185   23.1000 H   0  0  0  0  0  0
  -24.9973  -33.9526   25.0206 H   0  0  0  0  0  0
  -22.7699  -31.2744   21.3597 H   0  0  0  0  0  0
  -23.3737  -35.9578   23.3289 H   0  0  0  0  0  0
  -24.3589  -36.8905   22.2068 H   0  0  0  0  0  0
  -23.7232  -37.6432   23.6714 H   0  0  0  0  0  0
  -26.2028  -31.4315   20.6174 H   0  0  0  0  0  0
  -26.8878  -30.7250   22.0449 H   0  0  0  0  0  0
  -28.1635  -28.7452   21.1956 H   0  0  0  0  0  0
  -25.9041  -25.7787   19.0439 H   0  0  0  0  0  0
  -23.9715  -27.2491   19.0229 H   0  0  0  0  0  0
  -23.8476  -30.5303   19.3917 H   0  0  0  0  0  0
  -22.8088  -29.2102   19.8381 H   0  0  0  0  0  0
  -25.1285  -36.1818   25.0799 H   0  0  0  0  0  0
  -21.0004  -28.3276   24.1340 H   0  0  0  0  0  0
  -20.5604  -26.2324   23.3621 H   0  0  0  0  0  0
  -21.6639  -26.7336   22.1224 H   0  0  0  0  0  0
  -19.6893  -25.6237   21.1262 H   0  0  0  0  0  0
  -19.6664  -27.3124   20.6712 H   0  0  0  0  0  0
  -17.4178  -26.6634   21.4034 H   0  0  0  0  0  0
  -18.0339  -26.0024   22.9026 H   0  0  0  0  0  0
  -19.7975  -30.7267   24.2185 H   0  0  0  0  0  0
  -17.5048  -31.6257   24.5142 H   0  0  0  0  0  0
  -15.5365  -30.2957   23.7660 H   0  0  0  0  0  0
  -15.8693  -28.0757   22.7138 H   0  0  0  0  0  0
  -24.5769  -30.7265   25.7846 H   0  0  0  0  0  0
  -24.8987  -32.3061   26.4906 H   0  0  0  0  0  0
  -25.7943  -30.9000   27.0275 H   0  0  0  0  0  0
  -26.3015  -29.6658   24.1405 H   0  0  0  0  0  0
  -27.3793  -29.7226   25.5124 H   0  0  0  0  0  0
  -27.9005  -30.4082   23.9926 H   0  0  0  0  0  0
  -27.2474  -33.3625   26.2169 H   0  0  0  0  0  0
  -28.3788  -32.7046   25.0446 H   0  0  0  0  0  0
  -28.0682  -31.8554   26.5513 H   0  0  0  0  0  0
  -28.2544  -38.0093   24.7511 H   0  0  0  0  0  0
  -28.1079  -36.2618   24.6245 H   0  0  0  0  0  0
  -27.2313  -37.1384   25.8872 H   0  0  0  0  0  0
  -20.9537  -29.8772   21.6806 H   0  0  0  0  0  0
  -26.0122  -38.2777   24.1436 H   0  0  0  0  0  0
  -30.3034  -21.3306   18.3600 H   0  0  0  0  0  0
  -31.3848  -19.3532   17.4280 H   0  0  0  0  0  0
  -28.5072  -18.7380   21.3343 H   0  0  0  0  0  0
  -28.5204  -22.2032   22.4713 H   0  0  0  0  0  0
  -28.1132  -20.5268   22.2280 H   0  0  0  0  0  0
  -26.9864  -21.7714   21.7130 H   0  0  0  0  0  0
  -29.9531  -23.3328   20.1366 H   0  0  0  0  0  0
  -28.8124  -23.0819   18.8656 H   0  0  0  0  0  0
  -28.0484  -24.4685   21.5361 H   0  0  0  0  0  0
  -26.9734  -24.2911   20.2177 H   0  0  0  0  0  0
  -28.8184  -16.0029   20.8745 H   0  0  0  0  0  0
  1 25  1  0  0  0
  1 30  2  0  0  0
  1 80  1  0  0  0
  2  3  1  0  0  0
  2 25  1  0  0  0
  2 83  1  0  0  0
  2 84  1  0  0  0
  3  4  1  0  0  0
  3 85  1  0  0  0
  3 86  1  0  0  0
  4  5  1  0  0  0
  4 87  1  0  0  0
  4 88  1  0  0  0
  5  6  1  0  0  0
  5 26  1  0  0  0
  5 89  1  0  0  0
  6 25  1  0  0  0
  6 90  1  0  0  0
  6 91  1  0  0  0
  7  8  2  0  0  0
  7 26  1  0  0  0
  7 29  1  0  0  0
  8  9  1  0  0  0
  8 22  1  0  0  0
  9 10  1  0  0  0
  9 27  2  0  0  0
 10 11  2  0  0  0
 10 15  1  0  0  0
 11 12  1  0  0  0
 11 92  1  0  0  0
 12 13  2  0  0  0
 12 93  1  0  0  0
 13 14  1  0  0  0
 13 31  1  0  0  0
 14 15  2  0  0  0
 14 94  1  0  0  0
 15 95  1  0  0  0
 16 17  2  0  0  0
 16 21  1  0  0  0
 16 31  1  0  0  0
 17 18  1  0  0  0
 17 96  1  0  0  0
 18 19  2  0  0  0
 18 97  1  0  0  0
 19 20  1  0  0  0
 19 24  1  0  0  0
 20 21  2  0  0  0
 20 98  1  0  0  0
 21 23  1  0  0  0
 22 28  1  0  0  0
 22 32  2  0  0  0
 26 27  1  0  0  0
 28 99  1  0  0  0
 28100  1  0  0  0
 29101  1  0  0  0
 29102  1  0  0  0
 33 34  1  0  0  0
 33 66  1  0  0  0
 33 70  2  0  0  0
 34 36  1  0  0  0
 34 59  1  0  0  0
 34103  1  0  0  0
 35 44  2  0  0  0
 35 45  1  0  0  0
 35 68  1  0  0  0
 36 56  1  0  0  0
 36104  1  0  0  0
 37 39  1  0  0  0
 37 47  1  0  0  0
 37 66  1  0  0  0
 37105  1  0  0  0
 38 43  2  0  0  0
 38 46  1  0  0  0
 38 47  1  0  0  0
 39 64  1  0  0  0
 39 67  2  0  0  0
 40 52  1  0  0  0
 40 53  2  0  0  0
 40 58  1  0  0  0
 41106  1  0  0  0
 41107  1  0  0  0
 41108  1  0  0  0
 41 48  1  0  0  0
 42 43  1  0  0  0
 42 66  1  0  0  0
 42109  1  0  0  0
 42110  1  0  0  0
 43 44  1  0  0  0
 44111  1  0  0  0
 45 46  2  0  0  0
 45112  1  0  0  0
 46113  1  0  0  0
 47114  1  0  0  0
 47115  1  0  0  0
 48 56  1  0  0  0
 48 65  1  0  0  0
 48116  1  0  0  0
 49 50  1  0  0  0
 49 53  1  0  0  0
 49 64  1  0  0  0
 49117  1  0  0  0
 50 51  1  0  0  0
 50118  1  0  0  0
 50119  1  0  0  0
 51 52  1  0  0  0
 51120  1  0  0  0
 51121  1  0  0  0
 52122  1  0  0  0
 52123  1  0  0  0
 53 54  1  0  0  0
 54 55  2  0  0  0
 54124  1  0  0  0
 55 57  1  0  0  0
 55125  1  0  0  0
 56 69  2  0  0  0
 57 58  2  0  0  0
 57126  1  0  0  0
 58127  1  0  0  0
 59 60  1  0  0  0
 59 61  1  0  0  0
 59 62  1  0  0  0
 60128  1  0  0  0
 60129  1  0  0  0
 60130  1  0  0  0
 61131  1  0  0  0
 61132  1  0  0  0
 61133  1  0  0  0
 62134  1  0  0  0
 62135  1  0  0  0
 62136  1  0  0  0
 63 65  1  0  0  0
 63137  1  0  0  0
 63138  1  0  0  0
 63139  1  0  0  0
 64140  1  0  0  0
 65141  1  0  0  0
 68 79  1  0  0  0
 71 72  2  0  0  0
 71 74  1  0  0  0
 71142  1  0  0  0
 72 76  1  0  0  0
 72143  1  0  0  0
 73 74  2  0  0  0
 73 75  1  0  0  0
 73144  1  0  0  0
 74 81  1  0  0  0
 75 76  2  0  0  0
 75 80  1  0  0  0
 76 82  1  0  0  0
 77 81  1  0  0  0
 77145  1  0  0  0
 77146  1  0  0  0
 77147  1  0  0  0
 78 79  1  0  0  0
 78 81  1  0  0  0
 78148  1  0  0  0
 78149  1  0  0  0
 79150  1  0  0  0
 79151  1  0  0  0
 80152  1  0  0  0
M  ISO  4   1 100  68 101  79 101  80 100
M  END
> <chiral flag>
0

> <version>
0

> <s_m_source_file>
/data/baiqing/PycharmProjects/Reinvent-master-3.2/result/LINK_invent/BTK/process_docking_weight1_custom_sum_contain_oxygen_bond_distance_aromatic_linkinvent_7_9_3/rearranged_h_0008.sdf

> <i_m_source_file_index>
69

> <r_mmod_Potential_Energy-OPLS-2005>
612.71630859375

> <r_mmod_Stretch_Energy-OPLS-2005>
322.816223144531

> <r_mmod_Bend_Energy-OPLS-2005>
283.581176757812

> <r_mmod_Torsional_Energy-OPLS-2005>
228.043823242188

> <r_mmod_Improper_Torsional_Energy-OPLS-2005>
4.20966148376465

> <r_mmod_Van_der_Waal_Energy-OPLS-2005>
134.899200439453

> <r_mmod_Electrostatic_Energy-OPLS-2005>
-370.754913330078

> <r_mmod_Solvation_Energy-OPLS-2005>
-238.279006958008

> <b_mmod_Minimization_Converged-OPLS-2005>
0

> <r_mmod_RMS_Derivative-OPLS-2005>
5.50621938705444

$$$$
69
                    3D
 Structure written by MMmdl.
146153  0  0  1  0            999 V2000
  -30.3224  -15.5833   20.3418 C   0  0  0  0  0  0
  -30.4328  -13.0489   19.5272 C   0  0  0  0  0  0
  -29.5458  -12.6315   18.3203 C   0  0  0  0  0  0
  -28.1238  -12.2709   18.7778 C   0  0  0  0  0  0
  -27.6000  -13.2799   19.8214 C   0  0  2  0  0  0
  -28.6290  -13.5794   20.9376 C   0  0  0  0  0  0
  -25.2329  -13.8179   20.5822 C   0  0  0  0  0  0
  -24.1694  -13.0367   20.9288 C   0  0  0  0  0  0
  -24.6375  -11.6880   20.8781 C   0  0  0  0  0  0
  -23.9071  -10.4251   21.0409 C   0  0  0  0  0  0
  -24.3617   -9.4176   21.9187 C   0  0  0  0  0  0
  -23.6289   -8.2213   22.0748 C   0  0  0  0  0  0
  -22.4267   -8.0259   21.3535 C   0  0  0  0  0  0
  -21.9909   -9.0233   20.4634 C   0  0  0  0  0  0
  -22.7245  -10.2107   20.3049 C   0  0  0  0  0  0
  -21.6851   -6.0716   22.5276 C   0  0  0  0  0  0
  -21.4003   -6.5629   23.8212 C   0  0  0  0  0  0
  -21.3662   -5.6789   24.9173 C   0  0  0  0  0  0
  -21.6045   -4.3049   24.7233 C   0  0  0  0  0  0
  -21.8821   -3.8136   23.4355 C   0  0  0  0  0  0
  -21.9195   -4.6949   22.3407 C   0  0  0  0  0  0
  -22.7723  -13.5147   21.1917 C   0  0  0  0  0  0
  -22.1674   -4.2134   21.0983 F   0  0  0  0  0  0
  -21.5629   -3.4534   25.7745 F   0  0  0  0  0  0
  -29.7952  -14.2201   20.2771 N   0  0  0  0  0  0
  -26.2777  -12.9478   20.3304 N   0  0  0  0  0  0
  -25.9318  -11.6576   20.5758 N   0  0  0  0  0  0
  -22.0382  -12.8126   22.0470 N   0  0  0  0  0  0
  -25.3861  -15.1895   20.4280 N   0  0  0  0  0  0
  -31.5598  -15.5197   20.1983 O   0  0  0  0  0  0
  -21.6626   -6.8857   21.4239 O   0  0  0  0  0  0
  -22.3408  -14.5460   20.6772 O   0  0  0  0  0  0
  -24.6788  -31.8050   23.1546 C   0  0  0  0  0  0
  -25.9393  -32.4493   23.8082 C   0  0  1  0  0  0
  -27.2302  -26.7511   20.2115 C   0  0  0  0  0  0
  -25.6001  -33.8314   24.1987 N   0  0  0  0  0  0
  -23.5023  -30.4069   21.5093 C   0  0  2  0  0  0
  -24.9586  -28.7545   20.1207 C   0  0  0  0  0  0
  -22.7744  -29.4324   22.4730 C   0  0  0  0  0  0
  -18.0325  -28.1401   22.8428 C   0  0  0  0  0  0
  -24.1494  -36.7170   23.2647 C   0  0  0  0  0  0
  -26.0799  -30.5540   21.4092 C   0  0  0  0  0  0
  -26.1476  -29.1226   20.7613 C   0  0  0  0  0  0
  -27.2702  -28.1485   20.7734 C   0  0  0  0  0  0
  -26.0054  -26.5759   19.5196 C   0  0  0  0  0  0
  -24.9228  -27.5046   19.4782 C   0  0  0  0  0  0
  -23.7542  -29.7058   20.1442 C   0  0  0  0  0  0
  -25.4139  -36.2912   24.0287 C   0  0  1  0  0  0
  -20.5958  -28.3750   23.1141 C   0  0  2  0  0  0
  -20.6792  -26.9407   22.5395 C   0  0  0  0  0  0
  -19.5779  -26.6357   21.5192 C   0  0  0  0  0  0
  -18.1956  -26.7931   22.1595 C   0  0  0  0  0  0
  -19.1592  -28.8894   23.2764 C   0  0  0  0  0  0
  -18.9509  -30.1475   23.8807 C   0  0  0  0  0  0
  -17.6503  -30.6583   24.0532 C   0  0  0  0  0  0
  -25.9119  -34.9300   23.4971 C   0  0  0  0  0  0
  -16.5385  -29.9069   23.6338 C   0  0  0  0  0  0
  -16.7307  -28.6491   23.0354 C   0  0  0  0  0  0
  -26.4582  -31.6492   25.0677 C   0  0  0  0  0  0
  -25.3663  -31.3780   26.1300 C   0  0  0  0  0  0
  -27.0489  -30.2837   24.6508 C   0  0  0  0  0  0
  -27.6054  -32.4326   25.7487 C   0  0  0  0  0  0
  -27.5571  -37.1725   24.8466 C   0  0  0  0  0  0
  -21.4395  -29.3023   22.3487 N   0  0  0  0  0  0
  -26.4269  -37.3676   23.9422 N   0  0  0  0  0  0
  -24.7767  -30.9542   22.0773 N   0  0  0  0  0  0
  -23.4211  -28.7914   23.3046 O   0  0  0  0  0  0
  -28.2202  -25.5705   20.2665 O   0  0  0  0  0  0
  -26.5750  -34.8867   22.4582 O   0  0  0  0  0  0
  -23.5822  -32.1107   23.6537 O   0  0  0  0  0  0
  -28.1134  -16.8398   20.3960 C   0  0  0  0  0  0
  -28.8140  -20.3076   20.3286 C   0  0  0  0  0  0
  -29.0422  -22.2125   20.2550 C   0  0  0  0  0  0
  -29.8482  -18.6893   20.3077 C   0  0  0  0  0  0
  -28.0265  -23.8410   20.2496 C   0  0  0  0  0  0
  -29.5656  -16.9524   20.3664 N   0  0  0  0  0  0
  -31.4193  -13.3218   19.1511 H   0  0  0  0  0  0
  -30.6090  -12.2019   20.1923 H   0  0  0  0  0  0
  -29.9952  -11.7899   17.7912 H   0  0  0  0  0  0
  -29.4994  -13.4556   17.6069 H   0  0  0  0  0  0
  -28.1658  -11.2795   19.2325 H   0  0  0  0  0  0
  -27.4457  -12.1930   17.9278 H   0  0  0  0  0  0
  -27.4651  -14.1940   19.2478 H   0  0  0  0  0  0
  -28.8972  -12.6722   21.4810 H   0  0  0  0  0  0
  -28.2081  -14.2447   21.6893 H   0  0  0  0  0  0
  -25.2756   -9.5655   22.4775 H   0  0  0  0  0  0
  -23.9991   -7.4601   22.7470 H   0  0  0  0  0  0
  -21.0836   -8.8756   19.8941 H   0  0  0  0  0  0
  -22.3706  -10.9648   19.6163 H   0  0  0  0  0  0
  -21.1984   -7.6135   23.9711 H   0  0  0  0  0  0
  -21.1487   -6.0513   25.9079 H   0  0  0  0  0  0
  -22.0596   -2.7597   23.2863 H   0  0  0  0  0  0
  -22.4017  -11.9806   22.4871 H   0  0  0  0  0  0
  -21.0993  -13.1132   22.2670 H   0  0  0  0  0  0
  -24.6214  -15.8418   20.5626 H   0  0  0  0  0  0
  -26.2468  -15.6402   20.1517 H   0  0  0  0  0  0
  -26.7465  -32.4985   23.0784 H   0  0  0  0  0  0
  -25.0086  -33.9365   25.0099 H   0  0  0  0  0  0
  -22.8239  -31.2423   21.3234 H   0  0  0  0  0  0
  -23.3779  -35.9477   23.3261 H   0  0  0  0  0  0
  -24.3557  -36.8884   22.2070 H   0  0  0  0  0  0
  -23.7235  -37.6326   23.6756 H   0  0  0  0  0  0
  -26.2708  -31.2790   20.6172 H   0  0  0  0  0  0
  -26.9348  -30.6253   22.0690 H   0  0  0  0  0  0
  -28.1692  -28.4364   21.3010 H   0  0  0  0  0  0
  -25.8486  -25.6298   19.0208 H   0  0  0  0  0  0
  -24.0237  -27.2136   18.9535 H   0  0  0  0  0  0
  -23.9256  -30.4667   19.3822 H   0  0  0  0  0  0
  -22.8592  -29.1717   19.8209 H   0  0  0  0  0  0
  -25.1338  -36.1685   25.0778 H   0  0  0  0  0  0
  -21.0015  -28.3373   24.1277 H   0  0  0  0  0  0
  -20.5635  -26.2369   23.3655 H   0  0  0  0  0  0
  -21.6658  -26.7351   22.1218 H   0  0  0  0  0  0
  -19.6941  -25.6256   21.1250 H   0  0  0  0  0  0
  -19.6733  -27.3131   20.6692 H   0  0  0  0  0  0
  -17.4227  -26.6637   21.4000 H   0  0  0  0  0  0
  -18.0352  -26.0095   22.9014 H   0  0  0  0  0  0
  -19.7991  -30.7281   24.2162 H   0  0  0  0  0  0
  -17.5066  -31.6257   24.5142 H   0  0  0  0  0  0
  -15.5377  -30.2943   23.7723 H   0  0  0  0  0  0
  -15.8706  -28.0778   22.7134 H   0  0  0  0  0  0
  -24.5891  -30.7087   25.7596 H   0  0  0  0  0  0
  -24.8793  -32.2979   26.4541 H   0  0  0  0  0  0
  -25.7849  -30.9070   27.0206 H   0  0  0  0  0  0
  -26.3180  -29.6481   24.1495 H   0  0  0  0  0  0
  -27.3935  -29.7240   25.5214 H   0  0  0  0  0  0
  -27.9158  -30.3972   24.0000 H   0  0  0  0  0  0
  -27.2626  -33.3705   26.1870 H   0  0  0  0  0  0
  -28.3957  -32.6753   25.0370 H   0  0  0  0  0  0
  -28.0614  -31.8574   26.5555 H   0  0  0  0  0  0
  -28.2534  -38.0074   24.7553 H   0  0  0  0  0  0
  -28.1123  -36.2595   24.6246 H   0  0  0  0  0  0
  -27.2287  -37.1299   25.8868 H   0  0  0  0  0  0
  -20.9699  -29.8745   21.6608 H   0  0  0  0  0  0
  -26.0103  -38.2721   24.1478 H   0  0  0  0  0  0
  -27.7643  -16.3301   19.5004 H   0  0  0  0  0  0
  -27.6113  -17.8063   20.4105 H   0  0  0  0  0  0
  -27.7779  -16.3148   21.2878 H   0  0  0  0  0  0
  -28.0882  -20.1322   19.5354 H   0  0  0  0  0  0
  -28.2242  -20.1865   21.2382 H   0  0  0  0  0  0
  -29.6536  -22.3343   19.3603 H   0  0  0  0  0  0
  -29.7510  -22.3868   21.0651 H   0  0  0  0  0  0
  -30.5643  -18.8258   21.1192 H   0  0  0  0  0  0
  -30.4641  -18.7858   19.4129 H   0  0  0  0  0  0
  -27.3786  -23.7132   21.1168 H   0  0  0  0  0  0
  -27.3481  -23.7002   19.4085 H   0  0  0  0  0  0
  1 25  1  0  0  0
  1 30  2  0  0  0
  1 76  1  0  0  0
  2  3  1  0  0  0
  2 25  1  0  0  0
  2 77  1  0  0  0
  2 78  1  0  0  0
  3  4  1  0  0  0
  3 79  1  0  0  0
  3 80  1  0  0  0
  4  5  1  0  0  0
  4 81  1  0  0  0
  4 82  1  0  0  0
  5  6  1  0  0  0
  5 26  1  0  0  0
  5 83  1  0  0  0
  6 25  1  0  0  0
  6 84  1  0  0  0
  6 85  1  0  0  0
  7  8  2  0  0  0
  7 26  1  0  0  0
  7 29  1  0  0  0
  8  9  1  0  0  0
  8 22  1  0  0  0
  9 10  1  0  0  0
  9 27  2  0  0  0
 10 11  2  0  0  0
 10 15  1  0  0  0
 11 12  1  0  0  0
 11 86  1  0  0  0
 12 13  2  0  0  0
 12 87  1  0  0  0
 13 14  1  0  0  0
 13 31  1  0  0  0
 14 15  2  0  0  0
 14 88  1  0  0  0
 15 89  1  0  0  0
 16 17  2  0  0  0
 16 21  1  0  0  0
 16 31  1  0  0  0
 17 18  1  0  0  0
 17 90  1  0  0  0
 18 19  2  0  0  0
 18 91  1  0  0  0
 19 20  1  0  0  0
 19 24  1  0  0  0
 20 21  2  0  0  0
 20 92  1  0  0  0
 21 23  1  0  0  0
 22 28  1  0  0  0
 22 32  2  0  0  0
 26 27  1  0  0  0
 28 93  1  0  0  0
 28 94  1  0  0  0
 29 95  1  0  0  0
 29 96  1  0  0  0
 33 34  1  0  0  0
 33 66  1  0  0  0
 33 70  2  0  0  0
 34 36  1  0  0  0
 34 59  1  0  0  0
 34 97  1  0  0  0
 35 44  2  0  0  0
 35 45  1  0  0  0
 35 68  1  0  0  0
 36 56  1  0  0  0
 36 98  1  0  0  0
 37 39  1  0  0  0
 37 47  1  0  0  0
 37 66  1  0  0  0
 37 99  1  0  0  0
 38 43  2  0  0  0
 38 46  1  0  0  0
 38 47  1  0  0  0
 39 64  1  0  0  0
 39 67  2  0  0  0
 40 52  1  0  0  0
 40 53  2  0  0  0
 40 58  1  0  0  0
 41100  1  0  0  0
 41101  1  0  0  0
 41102  1  0  0  0
 41 48  1  0  0  0
 42 43  1  0  0  0
 42 66  1  0  0  0
 42103  1  0  0  0
 42104  1  0  0  0
 43 44  1  0  0  0
 44105  1  0  0  0
 45 46  2  0  0  0
 45106  1  0  0  0
 46107  1  0  0  0
 47108  1  0  0  0
 47109  1  0  0  0
 48 56  1  0  0  0
 48 65  1  0  0  0
 48110  1  0  0  0
 49 50  1  0  0  0
 49 53  1  0  0  0
 49 64  1  0  0  0
 49111  1  0  0  0
 50 51  1  0  0  0
 50112  1  0  0  0
 50113  1  0  0  0
 51 52  1  0  0  0
 51114  1  0  0  0
 51115  1  0  0  0
 52116  1  0  0  0
 52117  1  0  0  0
 53 54  1  0  0  0
 54 55  2  0  0  0
 54118  1  0  0  0
 55 57  1  0  0  0
 55119  1  0  0  0
 56 69  2  0  0  0
 57 58  2  0  0  0
 57120  1  0  0  0
 58121  1  0  0  0
 59 60  1  0  0  0
 59 61  1  0  0  0
 59 62  1  0  0  0
 60122  1  0  0  0
 60123  1  0  0  0
 60124  1  0  0  0
 61125  1  0  0  0
 61126  1  0  0  0
 61127  1  0  0  0
 62128  1  0  0  0
 62129  1  0  0  0
 62130  1  0  0  0
 63 65  1  0  0  0
 63131  1  0  0  0
 63132  1  0  0  0
 63133  1  0  0  0
 64134  1  0  0  0
 65135  1  0  0  0
 68 75  1  0  0  0
 71 76  1  0  0  0
 71136  1  0  0  0
 71137  1  0  0  0
 71138  1  0  0  0
 72 73  1  0  0  0
 72 74  1  0  0  0
 72139  1  0  0  0
 72140  1  0  0  0
 73 75  1  0  0  0
 73141  1  0  0  0
 73142  1  0  0  0
 74 76  1  0  0  0
 74143  1  0  0  0
 74144  1  0  0  0
 75145  1  0  0  0
 75146  1  0  0  0
M  ISO  4   1 100  68 101  75 101  76 100
M  END
> <chiral flag>
0

> <version>
0

> <s_m_source_file>
/data/baiqing/PycharmProjects/Reinvent-master-3.2/result/LINK_invent/BTK/process_docking_weight1_custom_sum_contain_oxygen_bond_distance_aromatic_linkinvent_7_9_3/rearranged_h_0008.sdf

> <i_m_source_file_index>
70

> <r_mmod_Potential_Energy-OPLS-2005>
2394.60620117188

> <r_mmod_Stretch_Energy-OPLS-2005>
1089.49169921875

> <r_mmod_Bend_Energy-OPLS-2005>
600.165954589844

> <r_mmod_Torsional_Energy-OPLS-2005>
262.956756591797

> <r_mmod_Improper_Torsional_Energy-OPLS-2005>
3.83639168739319

> <r_mmod_Van_der_Waal_Energy-OPLS-2005>
114.869972229004

> <r_mmod_Electrostatic_Energy-OPLS-2005>
-274.106903076172

> <r_mmod_Solvation_Energy-OPLS-2005>
-208.84977722168

> <b_mmod_Minimization_Converged-OPLS-2005>
0

> <r_mmod_RMS_Derivative-OPLS-2005>
1.83712780475616

$$$$
70
                    3D
 Structure written by MMmdl.
183191  0  0  1  0            999 V2000
  -30.7509  -14.3544   20.6859 C   0  0  0  0  0  0
  -30.4211  -12.2854   19.3806 C   0  0  0  0  0  0
  -29.4736  -12.5132   18.1855 C   0  0  0  0  0  0
  -27.9983  -12.3757   18.6112 C   0  0  0  0  0  0
  -27.6657  -13.1986   19.8807 C   0  0  2  0  0  0
  -28.7049  -12.9175   20.9892 C   0  0  0  0  0  0
  -25.2583  -13.8138   20.5659 C   0  0  0  0  0  0
  -24.1822  -13.0455   20.9203 C   0  0  0  0  0  0
  -24.6346  -11.6912   20.8733 C   0  0  0  0  0  0
  -23.8981  -10.4314   21.0384 C   0  0  0  0  0  0
  -24.3547   -9.4240   21.9165 C   0  0  0  0  0  0
  -23.6269   -8.2253   22.0714 C   0  0  0  0  0  0
  -22.4249   -8.0282   21.3513 C   0  0  0  0  0  0
  -21.9861   -9.0227   20.4607 C   0  0  0  0  0  0
  -22.7152  -10.2140   20.3026 C   0  0  0  0  0  0
  -21.6845   -6.0738   22.5284 C   0  0  0  0  0  0
  -21.4008   -6.5648   23.8225 C   0  0  0  0  0  0
  -21.3649   -5.6791   24.9178 C   0  0  0  0  0  0
  -21.6041   -4.3055   24.7224 C   0  0  0  0  0  0
  -21.8818   -3.8149   23.4335 C   0  0  0  0  0  0
  -21.9195   -4.6966   22.3400 C   0  0  0  0  0  0
  -22.7849  -13.5270   21.1881 C   0  0  0  0  0  0
  -22.1652   -4.2158   21.0968 F   0  0  0  0  0  0
  -21.5630   -3.4536   25.7728 F   0  0  0  0  0  0
  -30.0504  -13.2139   20.4576 N   0  0  0  0  0  0
  -26.3029  -12.9306   20.3396 N   0  0  0  0  0  0
  -25.9277  -11.6479   20.5766 N   0  0  0  0  0  0
  -22.0462  -12.8248   22.0415 N   0  0  0  0  0  0
  -25.4324  -15.1827   20.3967 N   0  0  0  0  0  0
  -31.7735  -14.6670   20.0693 O   0  0  0  0  0  0
  -21.6617   -6.8874   21.4243 O   0  0  0  0  0  0
  -22.3555  -14.5579   20.6732 O   0  0  0  0  0  0
  -24.6102  -31.8703   23.2128 C   0  0  0  0  0  0
  -25.9012  -32.4844   23.8413 C   0  0  1  0  0  0
  -27.2396  -27.4809   20.0857 C   0  0  0  0  0  0
  -25.5886  -33.8643   24.2356 N   0  0  0  0  0  0
  -23.3977  -30.4919   21.5527 C   0  0  2  0  0  0
  -24.8453  -28.9570   20.1228 C   0  0  0  0  0  0
  -22.7392  -29.4663   22.5026 C   0  0  0  0  0  0
  -18.0265  -28.1382   22.8492 C   0  0  0  0  0  0
  -24.1480  -36.7320   23.2639 C   0  0  0  0  0  0
  -25.9207  -30.8493   21.3588 C   0  0  0  0  0  0
  -26.0019  -29.4835   20.7137 C   0  0  0  0  0  0
  -27.2053  -28.7491   20.6978 C   0  0  0  0  0  0
  -26.0716  -26.9489   19.5071 C   0  0  0  0  0  0
  -24.8717  -27.6858   19.5192 C   0  0  0  0  0  0
  -23.6054  -29.8197   20.1689 C   0  0  0  0  0  0
  -25.4098  -36.3133   24.0349 C   0  0  1  0  0  0
  -20.5848  -28.3651   23.1344 C   0  0  2  0  0  0
  -20.6761  -26.9398   22.5423 C   0  0  0  0  0  0
  -19.5744  -26.6389   21.5217 C   0  0  0  0  0  0
  -18.1917  -26.7929   22.1623 C   0  0  0  0  0  0
  -19.1512  -28.8835   23.2914 C   0  0  0  0  0  0
  -18.9443  -30.1444   23.8918 C   0  0  0  0  0  0
  -17.6448  -30.6593   24.0564 C   0  0  0  0  0  0
  -25.9023  -34.9493   23.5150 C   0  0  0  0  0  0
  -16.5338  -29.9093   23.6329 C   0  0  0  0  0  0
  -16.7256  -28.6512   23.0346 C   0  0  0  0  0  0
  -26.4457  -31.6610   25.0718 C   0  0  0  0  0  0
  -25.3744  -31.3684   26.1483 C   0  0  0  0  0  0
  -27.0279  -30.3065   24.6043 C   0  0  0  0  0  0
  -27.6049  -32.4309   25.7479 C   0  0  0  0  0  0
  -27.5582  -37.1814   24.8466 C   0  0  0  0  0  0
  -21.4125  -29.3023   22.3760 N   0  0  0  0  0  0
  -26.4292  -37.3807   23.9416 N   0  0  0  0  0  0
  -24.6610  -31.0839   22.1010 N   0  0  0  0  0  0
  -23.4179  -28.8216   23.3062 O   0  0  0  0  0  0
  -28.4006  -26.7606   20.0275 O   0  0  0  0  0  0
  -26.5579  -34.8933   22.4708 O   0  0  0  0  0  0
  -23.5306  -32.1444   23.7540 O   0  0  0  0  0  0
  -31.5332  -17.1648   22.0755 C   0  0  0  0  0  0
  -30.3622  -19.3076   21.9692 C   0  0  0  0  0  0
  -29.1502  -17.2432   21.5541 C   0  0  0  0  0  0
  -31.5517  -18.5719   22.1811 C   0  0  0  0  0  0
  -30.3315  -16.5040   21.7538 C   0  0  0  0  0  0
  -29.1452  -18.6538   21.6569 C   0  0  0  0  0  0
  -33.6434  -19.6597   21.2761 C   0  0  0  0  0  0
  -26.3318  -20.6411   22.8410 C   0  0  0  0  0  0
  -27.8597  -21.8372   21.1915 C   0  0  0  0  0  0
  -27.0453  -18.8864   20.4007 C   0  0  0  0  0  0
  -32.8503  -19.2880   22.5332 C   0  0  0  0  0  0
  -31.5466  -23.9765   18.6879 C   0  0  0  0  0  0
  -32.5892  -23.3460   19.6175 C   0  0  0  0  0  0
  -30.8845  -25.2126   19.3085 C   0  0  0  0  0  0
  -33.3595  -22.2049   18.9332 C   0  0  0  0  0  0
  -29.8731  -25.8648   18.3564 C   0  0  0  0  0  0
  -34.4134  -21.5483   19.8387 C   0  0  0  0  0  0
  -29.2372  -27.1316   18.9384 C   0  0  0  0  0  0
  -27.6999  -20.6378   22.1385 C   0  0  0  0  0  0
  -30.2640  -15.0965   21.6873 N   0  0  0  0  0  0
  -33.7974  -20.9648   21.0265 N   0  0  0  0  0  0
  -27.9457  -19.3690   21.4479 N   0  0  0  0  0  0
  -34.1001  -18.7801   20.5421 O   0  0  0  0  0  0
  -31.4583  -12.4090   19.0616 H   0  0  0  0  0  0
  -30.3438  -11.2573   19.7391 H   0  0  0  0  0  0
  -29.6983  -11.7969   17.3950 H   0  0  0  0  0  0
  -29.6480  -13.5025   17.7580 H   0  0  0  0  0  0
  -27.7965  -11.3188   18.7920 H   0  0  0  0  0  0
  -27.3393  -12.6746   17.7946 H   0  0  0  0  0  0
  -27.7340  -14.2531   19.6132 H   0  0  0  0  0  0
  -28.6613  -11.8682   21.2848 H   0  0  0  0  0  0
  -28.4461  -13.4712   21.8918 H   0  0  0  0  0  0
  -25.2665   -9.5774   22.4770 H   0  0  0  0  0  0
  -24.0029   -7.4643   22.7404 H   0  0  0  0  0  0
  -21.0815   -8.8708   19.8889 H   0  0  0  0  0  0
  -22.3567  -10.9672   19.6154 H   0  0  0  0  0  0
  -21.1982   -7.6160   23.9733 H   0  0  0  0  0  0
  -21.1478   -6.0505   25.9087 H   0  0  0  0  0  0
  -22.0603   -2.7602   23.2820 H   0  0  0  0  0  0
  -22.4067  -11.9905   22.4813 H   0  0  0  0  0  0
  -21.1069  -13.1254   22.2604 H   0  0  0  0  0  0
  -24.6608  -15.8335   20.4840 H   0  0  0  0  0  0
  -26.2659  -15.5955   20.0000 H   0  0  0  0  0  0
  -26.7083  -32.5584   23.1184 H   0  0  0  0  0  0
  -25.0063  -33.9803   25.0519 H   0  0  0  0  0  0
  -22.6848  -31.3066   21.4133 H   0  0  0  0  0  0
  -23.3751  -35.9645   23.3306 H   0  0  0  0  0  0
  -24.3585  -36.8920   22.2054 H   0  0  0  0  0  0
  -23.7219  -37.6523   23.6636 H   0  0  0  0  0  0
  -26.0202  -31.6123   20.5853 H   0  0  0  0  0  0
  -26.8147  -30.9119   21.9678 H   0  0  0  0  0  0
  -28.1039  -29.1534   21.1422 H   0  0  0  0  0  0
  -26.0996  -25.9753   19.0379 H   0  0  0  0  0  0
  -23.9817  -27.2732   19.0644 H   0  0  0  0  0  0
  -23.7119  -30.5919   19.4058 H   0  0  0  0  0  0
  -22.7320  -29.2341   19.8756 H   0  0  0  0  0  0
  -25.1270  -36.2005   25.0842 H   0  0  0  0  0  0
  -20.9940  -28.3211   24.1466 H   0  0  0  0  0  0
  -20.5688  -26.2251   23.3597 H   0  0  0  0  0  0
  -21.6630  -26.7468   22.1205 H   0  0  0  0  0  0
  -19.6905  -25.6310   21.1227 H   0  0  0  0  0  0
  -19.6689  -27.3214   20.6760 H   0  0  0  0  0  0
  -17.4196  -26.6692   21.4010 H   0  0  0  0  0  0
  -18.0305  -26.0064   22.9012 H   0  0  0  0  0  0
  -19.7921  -30.7247   24.2295 H   0  0  0  0  0  0
  -17.5011  -31.6273   24.5166 H   0  0  0  0  0  0
  -15.5339  -30.3001   23.7649 H   0  0  0  0  0  0
  -15.8656  -28.0843   22.7044 H   0  0  0  0  0  0
  -24.5905  -30.7044   25.7818 H   0  0  0  0  0  0
  -24.8941  -32.2826   26.4977 H   0  0  0  0  0  0
  -25.8114  -30.8819   27.0211 H   0  0  0  0  0  0
  -26.2795  -29.6836   24.1125 H   0  0  0  0  0  0
  -27.4116  -29.7280   25.4455 H   0  0  0  0  0  0
  -27.8600  -30.4411   23.9126 H   0  0  0  0  0  0
  -27.2690  -33.3603   26.2082 H   0  0  0  0  0  0
  -28.3843  -32.6875   25.0295 H   0  0  0  0  0  0
  -28.0731  -31.8414   26.5367 H   0  0  0  0  0  0
  -28.2603  -38.0108   24.7528 H   0  0  0  0  0  0
  -28.1071  -36.2644   24.6270 H   0  0  0  0  0  0
  -27.2306  -37.1448   25.8870 H   0  0  0  0  0  0
  -20.9285  -29.8733   21.6973 H   0  0  0  0  0  0
  -26.0190  -38.2889   24.1416 H   0  0  0  0  0  0
  -32.4352  -16.5928   22.2452 H   0  0  0  0  0  0
  -30.3959  -20.3857   22.0390 H   0  0  0  0  0  0
  -28.2372  -16.7110   21.3258 H   0  0  0  0  0  0
  -26.2153  -21.5364   23.4531 H   0  0  0  0  0  0
  -26.2238  -19.7835   23.5065 H   0  0  0  0  0  0
  -25.5023  -20.6190   22.1355 H   0  0  0  0  0  0
  -27.7453  -22.7776   21.7322 H   0  0  0  0  0  0
  -27.1168  -21.8312   20.3939 H   0  0  0  0  0  0
  -28.8457  -21.8512   20.7252 H   0  0  0  0  0  0
  -27.6056  -18.5387   19.5314 H   0  0  0  0  0  0
  -26.3716  -19.6711   20.0554 H   0  0  0  0  0  0
  -26.4321  -18.0636   20.7708 H   0  0  0  0  0  0
  -33.4699  -18.6487   23.1640 H   0  0  0  0  0  0
  -32.6317  -20.1799   23.1229 H   0  0  0  0  0  0
  -30.7845  -23.2352   18.4421 H   0  0  0  0  0  0
  -32.0199  -24.2553   17.7450 H   0  0  0  0  0  0
  -32.0895  -22.9839   20.5177 H   0  0  0  0  0  0
  -33.2986  -24.1090   19.9438 H   0  0  0  0  0  0
  -31.6530  -25.9421   19.5734 H   0  0  0  0  0  0
  -30.3889  -24.9381   20.2412 H   0  0  0  0  0  0
  -33.8594  -22.5982   18.0464 H   0  0  0  0  0  0
  -32.6597  -21.4488   18.5738 H   0  0  0  0  0  0
  -29.0896  -25.1523   18.0929 H   0  0  0  0  0  0
  -30.3761  -26.1214   17.4232 H   0  0  0  0  0  0
  -35.1428  -22.2921   20.1614 H   0  0  0  0  0  0
  -34.9726  -20.8045   19.2685 H   0  0  0  0  0  0
  -28.6781  -27.6406   18.1496 H   0  0  0  0  0  0
  -30.0031  -27.8293   19.2816 H   0  0  0  0  0  0
  -28.4375  -20.7506   22.9334 H   0  0  0  0  0  0
  -29.4612  -14.6746   22.1283 H   0  0  0  0  0  0
  -33.4179  -21.6108   21.7057 H   0  0  0  0  0  0
  1 25  1  0  0  0
  1 30  2  0  0  0
  1 90  1  0  0  0
  2  3  1  0  0  0
  2 25  1  0  0  0
  2 94  1  0  0  0
  2 95  1  0  0  0
  3  4  1  0  0  0
  3 96  1  0  0  0
  3 97  1  0  0  0
  4  5  1  0  0  0
  4 98  1  0  0  0
  4 99  1  0  0  0
  5  6  1  0  0  0
  5 26  1  0  0  0
  5100  1  0  0  0
  6 25  1  0  0  0
  6101  1  0  0  0
  6102  1  0  0  0
  7  8  2  0  0  0
  7 26  1  0  0  0
  7 29  1  0  0  0
  8  9  1  0  0  0
  8 22  1  0  0  0
  9 10  1  0  0  0
  9 27  2  0  0  0
 10 11  2  0  0  0
 10 15  1  0  0  0
 11 12  1  0  0  0
 11103  1  0  0  0
 12 13  2  0  0  0
 12104  1  0  0  0
 13 14  1  0  0  0
 13 31  1  0  0  0
 14 15  2  0  0  0
 14105  1  0  0  0
 15106  1  0  0  0
 16 17  2  0  0  0
 16 21  1  0  0  0
 16 31  1  0  0  0
 17 18  1  0  0  0
 17107  1  0  0  0
 18 19  2  0  0  0
 18108  1  0  0  0
 19 20  1  0  0  0
 19 24  1  0  0  0
 20 21  2  0  0  0
 20109  1  0  0  0
 21 23  1  0  0  0
 22 28  1  0  0  0
 22 32  2  0  0  0
 26 27  1  0  0  0
 28110  1  0  0  0
 28111  1  0  0  0
 29112  1  0  0  0
 29113  1  0  0  0
 33 34  1  0  0  0
 33 66  1  0  0  0
 33 70  2  0  0  0
 34 36  1  0  0  0
 34 59  1  0  0  0
 34114  1  0  0  0
 35 44  2  0  0  0
 35 45  1  0  0  0
 35 68  1  0  0  0
 36 56  1  0  0  0
 36115  1  0  0  0
 37 39  1  0  0  0
 37 47  1  0  0  0
 37 66  1  0  0  0
 37116  1  0  0  0
 38 43  2  0  0  0
 38 46  1  0  0  0
 38 47  1  0  0  0
 39 64  1  0  0  0
 39 67  2  0  0  0
 40 52  1  0  0  0
 40 53  2  0  0  0
 40 58  1  0  0  0
 41117  1  0  0  0
 41118  1  0  0  0
 41119  1  0  0  0
 41 48  1  0  0  0
 42 43  1  0  0  0
 42 66  1  0  0  0
 42120  1  0  0  0
 42121  1  0  0  0
 43 44  1  0  0  0
 44122  1  0  0  0
 45 46  2  0  0  0
 45123  1  0  0  0
 46124  1  0  0  0
 47125  1  0  0  0
 47126  1  0  0  0
 48 56  1  0  0  0
 48 65  1  0  0  0
 48127  1  0  0  0
 49 50  1  0  0  0
 49 53  1  0  0  0
 49 64  1  0  0  0
 49128  1  0  0  0
 50 51  1  0  0  0
 50129  1  0  0  0
 50130  1  0  0  0
 51 52  1  0  0  0
 51131  1  0  0  0
 51132  1  0  0  0
 52133  1  0  0  0
 52134  1  0  0  0
 53 54  1  0  0  0
 54 55  2  0  0  0
 54135  1  0  0  0
 55 57  1  0  0  0
 55136  1  0  0  0
 56 69  2  0  0  0
 57 58  2  0  0  0
 57137  1  0  0  0
 58138  1  0  0  0
 59 60  1  0  0  0
 59 61  1  0  0  0
 59 62  1  0  0  0
 60139  1  0  0  0
 60140  1  0  0  0
 60141  1  0  0  0
 61142  1  0  0  0
 61143  1  0  0  0
 61144  1  0  0  0
 62145  1  0  0  0
 62146  1  0  0  0
 62147  1  0  0  0
 63 65  1  0  0  0
 63148  1  0  0  0
 63149  1  0  0  0
 63150  1  0  0  0
 64151  1  0  0  0
 65152  1  0  0  0
 68 88  1  0  0  0
 71 74  2  0  0  0
 71 75  1  0  0  0
 71153  1  0  0  0
 72 74  1  0  0  0
 72 76  2  0  0  0
 72154  1  0  0  0
 73 75  2  0  0  0
 73 76  1  0  0  0
 73155  1  0  0  0
 74 81  1  0  0  0
 75 90  1  0  0  0
 76 92  1  0  0  0
 77 81  1  0  0  0
 77 91  1  0  0  0
 77 93  2  0  0  0
 78156  1  0  0  0
 78157  1  0  0  0
 78158  1  0  0  0
 78 89  1  0  0  0
 79 89  1  0  0  0
 79159  1  0  0  0
 79160  1  0  0  0
 79161  1  0  0  0
 80 92  1  0  0  0
 80162  1  0  0  0
 80163  1  0  0  0
 80164  1  0  0  0
 81165  1  0  0  0
 81166  1  0  0  0
 82 83  1  0  0  0
 82 84  1  0  0  0
 82167  1  0  0  0
 82168  1  0  0  0
 83 85  1  0  0  0
 83169  1  0  0  0
 83170  1  0  0  0
 84 86  1  0  0  0
 84171  1  0  0  0
 84172  1  0  0  0
 85 87  1  0  0  0
 85173  1  0  0  0
 85174  1  0  0  0
 86 88  1  0  0  0
 86175  1  0  0  0
 86176  1  0  0  0
 87 91  1  0  0  0
 87177  1  0  0  0
 87178  1  0  0  0
 88179  1  0  0  0
 88180  1  0  0  0
 89 92  1  0  0  0
 89181  1  0  0  0
 90182  1  0  0  0
 91183  1  0  0  0
M  ISO  4   1 100  68 101  88 101  90 100
M  END
> <chiral flag>
0

> <version>
0

> <s_m_source_file>
/data/baiqing/PycharmProjects/Reinvent-master-3.2/result/LINK_invent/BTK/process_docking_weight1_custom_sum_contain_oxygen_bond_distance_aromatic_linkinvent_7_9_3/rearranged_h_0008.sdf

> <i_m_source_file_index>
71

> <r_mmod_Potential_Energy-OPLS-2005>
-68.2558975219727

> <r_mmod_Stretch_Energy-OPLS-2005>
32.8362884521484

> <r_mmod_Bend_Energy-OPLS-2005>
100.507423400879

> <r_mmod_Torsional_Energy-OPLS-2005>
265.812286376953

> <r_mmod_Improper_Torsional_Energy-OPLS-2005>
4.6789379119873

> <r_mmod_Van_der_Waal_Energy-OPLS-2005>
146.326904296875

> <r_mmod_Electrostatic_Energy-OPLS-2005>
-376.886901855469

> <r_mmod_Solvation_Energy-OPLS-2005>
-247.763763427734

> <b_mmod_Minimization_Converged-OPLS-2005>
0

> <r_mmod_RMS_Derivative-OPLS-2005>
2.90615034103394

$$$$
71
                    3D
 Structure written by MMmdl.
151159  0  0  1  0            999 V2000
  -30.5239  -14.9240   20.4254 C   0  0  0  0  0  0
  -30.4500  -12.5690   19.4926 C   0  0  0  0  0  0
  -29.5239  -12.5344   18.2531 C   0  0  0  0  0  0
  -28.0548  -12.3235   18.6686 C   0  0  0  0  0  0
  -27.6365  -13.2418   19.8461 C   0  0  2  0  0  0
  -28.6820  -13.2341   20.9828 C   0  0  0  0  0  0
  -25.2484  -13.8188   20.5731 C   0  0  0  0  0  0
  -24.1788  -13.0419   20.9219 C   0  0  0  0  0  0
  -24.6401  -11.6906   20.8744 C   0  0  0  0  0  0
  -23.9080  -10.4281   21.0402 C   0  0  0  0  0  0
  -24.3626   -9.4198   21.9183 C   0  0  0  0  0  0
  -23.6296   -8.2237   22.0755 C   0  0  0  0  0  0
  -22.4277   -8.0278   21.3546 C   0  0  0  0  0  0
  -21.9916   -9.0250   20.4645 C   0  0  0  0  0  0
  -22.7250  -10.2126   20.3053 C   0  0  0  0  0  0
  -21.6852   -6.0734   22.5281 C   0  0  0  0  0  0
  -21.4013   -6.5639   23.8214 C   0  0  0  0  0  0
  -21.3660   -5.6793   24.9177 C   0  0  0  0  0  0
  -21.6045   -4.3055   24.7228 C   0  0  0  0  0  0
  -21.8819   -3.8146   23.4349 C   0  0  0  0  0  0
  -21.9192   -4.6962   22.3404 C   0  0  0  0  0  0
  -22.7808  -13.5196   21.1878 C   0  0  0  0  0  0
  -22.1659   -4.2148   21.0982 F   0  0  0  0  0  0
  -21.5632   -3.4539   25.7741 F   0  0  0  0  0  0
  -29.9649  -13.6486   20.3958 N   0  0  0  0  0  0
  -26.2920  -12.9420   20.3275 N   0  0  0  0  0  0
  -25.9336  -11.6552   20.5738 N   0  0  0  0  0  0
  -22.0458  -12.8185   22.0435 N   0  0  0  0  0  0
  -25.4129  -15.1920   20.4212 N   0  0  0  0  0  0
  -31.7160  -15.0405   20.1197 O   0  0  0  0  0  0
  -21.6639   -6.8877   21.4242 O   0  0  0  0  0  0
  -22.3491  -14.5502   20.6726 O   0  0  0  0  0  0
  -24.6433  -31.8445   23.1894 C   0  0  0  0  0  0
  -25.9206  -32.4698   23.8280 C   0  0  1  0  0  0
  -27.2189  -27.1398   20.1449 C   0  0  0  0  0  0
  -25.5956  -33.8505   24.2195 N   0  0  0  0  0  0
  -23.4470  -30.4647   21.5349 C   0  0  2  0  0  0
  -24.8977  -28.8958   20.1084 C   0  0  0  0  0  0
  -22.7568  -29.4548   22.4859 C   0  0  0  0  0  0
  -18.0305  -28.1396   22.8478 C   0  0  0  0  0  0
  -24.1492  -36.7254   23.2642 C   0  0  0  0  0  0
  -26.0039  -30.7178   21.3906 C   0  0  0  0  0  0
  -26.0750  -29.3303   20.7305 C   0  0  0  0  0  0
  -27.2352  -28.4673   20.7356 C   0  0  0  0  0  0
  -26.0175  -26.8151   19.4729 C   0  0  0  0  0  0
  -24.8819  -27.6511   19.4646 C   0  0  0  0  0  0
  -23.6737  -29.7965   20.1535 C   0  0  0  0  0  0
  -25.4125  -36.3034   24.0315 C   0  0  1  0  0  0
  -20.5917  -28.3723   23.1234 C   0  0  2  0  0  0
  -20.6788  -26.9425   22.5404 C   0  0  0  0  0  0
  -19.5761  -26.6382   21.5213 C   0  0  0  0  0  0
  -18.1943  -26.7936   22.1624 C   0  0  0  0  0  0
  -19.1562  -28.8878   23.2848 C   0  0  0  0  0  0
  -18.9478  -30.1474   23.8874 C   0  0  0  0  0  0
  -17.6474  -30.6593   24.0560 C   0  0  0  0  0  0
  -25.9074  -34.9409   23.5062 C   0  0  0  0  0  0
  -16.5365  -29.9085   23.6338 C   0  0  0  0  0  0
  -16.7289  -28.6504   23.0359 C   0  0  0  0  0  0
  -26.4528  -31.6567   25.0722 C   0  0  0  0  0  0
  -25.3709  -31.3758   26.1413 C   0  0  0  0  0  0
  -27.0397  -30.2962   24.6309 C   0  0  0  0  0  0
  -27.6055  -32.4336   25.7508 C   0  0  0  0  0  0
  -27.5577  -37.1785   24.8465 C   0  0  0  0  0  0
  -21.4260  -29.3048   22.3606 N   0  0  0  0  0  0
  -26.4289  -37.3746   23.9407 N   0  0  0  0  0  0
  -24.7177  -31.0299   22.0933 N   0  0  0  0  0  0
  -23.4210  -28.8092   23.3007 O   0  0  0  0  0  0
  -28.2592  -26.1404   20.2313 O   0  0  0  0  0  0
  -26.5657  -34.8904   22.4639 O   0  0  0  0  0  0
  -23.5551  -32.1325   23.7111 O   0  0  0  0  0  0
  -29.9461  -20.0075   21.1177 C   0  0  0  0  0  0
  -30.2205  -18.5730   21.2343 C   0  0  0  0  0  0
  -28.5185  -19.5560   19.3024 C   0  0  0  0  0  0
  -28.7894  -18.1335   19.4050 C   0  0  0  0  0  0
  -29.0512  -20.5847   20.1490 C   0  0  0  0  0  0
  -29.6528  -17.5467   20.3921 C   0  0  0  0  0  0
  -28.8685  -23.3502   20.3991 C   0  0  0  0  0  0
  -28.0804  -17.2196   18.4200 C   0  0  0  0  0  0
  -27.9449  -24.6452   19.9272 C   0  0  0  0  0  0
  -28.5777  -22.0342   19.9577 N   0  0  0  0  0  0
  -29.6718  -16.0339   20.6462 N   0  0  0  0  0  0
  -29.8199  -23.5531   21.1581 O   0  0  0  0  0  0
  -31.4826  -12.7355   19.1813 H   0  0  0  0  0  0
  -30.4452  -11.6071   20.0078 H   0  0  0  0  0  0
  -29.8363  -11.7449   17.5682 H   0  0  0  0  0  0
  -29.6162  -13.4719   17.7024 H   0  0  0  0  0  0
  -27.9429  -11.2786   18.9602 H   0  0  0  0  0  0
  -27.3930  -12.4739   17.8148 H   0  0  0  0  0  0
  -27.6079  -14.2509   19.4353 H   0  0  0  0  0  0
  -28.7611  -12.2442   21.4345 H   0  0  0  0  0  0
  -28.3859  -13.9119   21.7849 H   0  0  0  0  0  0
  -25.2770   -9.5673   22.4759 H   0  0  0  0  0  0
  -24.0001   -7.4628   22.7476 H   0  0  0  0  0  0
  -21.0848   -8.8771   19.8950 H   0  0  0  0  0  0
  -22.3711  -10.9665   19.6161 H   0  0  0  0  0  0
  -21.2004   -7.6147   23.9716 H   0  0  0  0  0  0
  -21.1484   -6.0525   25.9080 H   0  0  0  0  0  0
  -22.0597   -2.7609   23.2852 H   0  0  0  0  0  0
  -22.4078  -11.9847   22.4821 H   0  0  0  0  0  0
  -21.1074  -13.1207   22.2642 H   0  0  0  0  0  0
  -24.6411  -15.8387   20.5438 H   0  0  0  0  0  0
  -26.2586  -15.6432   20.1028 H   0  0  0  0  0  0
  -26.7271  -32.5304   23.1007 H   0  0  0  0  0  0
  -25.0089  -33.9625   25.0332 H   0  0  0  0  0  0
  -22.7495  -31.2907   21.3814 H   0  0  0  0  0  0
  -23.3760  -35.9579   23.3294 H   0  0  0  0  0  0
  -24.3576  -36.8897   22.2059 H   0  0  0  0  0  0
  -23.7241  -37.6445   23.6685 H   0  0  0  0  0  0
  -26.1615  -31.4731   20.6195 H   0  0  0  0  0  0
  -26.8734  -30.7659   22.0342 H   0  0  0  0  0  0
  -28.1284  -28.7923   21.2506 H   0  0  0  0  0  0
  -25.9128  -25.8705   18.9617 H   0  0  0  0  0  0
  -23.9855  -27.3155   18.9614 H   0  0  0  0  0  0
  -23.8094  -30.5722   19.3991 H   0  0  0  0  0  0
  -22.7888  -29.2384   19.8422 H   0  0  0  0  0  0
  -25.1313  -36.1863   25.0807 H   0  0  0  0  0  0
  -21.0011  -28.3315   24.1354 H   0  0  0  0  0  0
  -20.5682  -26.2336   23.3624 H   0  0  0  0  0  0
  -21.6653  -26.7429   22.1202 H   0  0  0  0  0  0
  -19.6921  -25.6287   21.1257 H   0  0  0  0  0  0
  -19.6698  -27.3180   20.6732 H   0  0  0  0  0  0
  -17.4211  -26.6682   21.4028 H   0  0  0  0  0  0
  -18.0340  -26.0083   22.9025 H   0  0  0  0  0  0
  -19.7953  -30.7298   24.2232 H   0  0  0  0  0  0
  -17.5025  -31.6270   24.5166 H   0  0  0  0  0  0
  -15.5364  -30.2978   23.7675 H   0  0  0  0  0  0
  -15.8690  -28.0813   22.7088 H   0  0  0  0  0  0
  -24.5902  -30.7089   25.7735 H   0  0  0  0  0  0
  -24.8882  -32.2939   26.4769 H   0  0  0  0  0  0
  -25.7991  -30.8982   27.0235 H   0  0  0  0  0  0
  -26.3020  -29.6682   24.1303 H   0  0  0  0  0  0
  -27.3992  -29.7265   25.4888 H   0  0  0  0  0  0
  -27.8934  -30.4197   23.9643 H   0  0  0  0  0  0
  -27.2647  -33.3659   26.2023 H   0  0  0  0  0  0
  -28.3899  -32.6862   25.0360 H   0  0  0  0  0  0
  -28.0686  -31.8503   26.5476 H   0  0  0  0  0  0
  -28.2586  -38.0089   24.7512 H   0  0  0  0  0  0
  -28.1082  -36.2617   24.6295 H   0  0  0  0  0  0
  -27.2291  -37.1434   25.8868 H   0  0  0  0  0  0
  -20.9470  -29.8766   21.6789 H   0  0  0  0  0  0
  -26.0155  -38.2813   24.1413 H   0  0  0  0  0  0
  -30.4144  -20.6699   21.8321 H   0  0  0  0  0  0
  -30.8590  -18.2571   22.0472 H   0  0  0  0  0  0
  -27.8285  -19.8678   18.5307 H   0  0  0  0  0  0
  -27.8383  -17.7482   17.4975 H   0  0  0  0  0  0
  -27.1501  -16.8492   18.8476 H   0  0  0  0  0  0
  -28.7019  -16.3660   18.1479 H   0  0  0  0  0  0
  -26.9625  -24.4317   20.3489 H   0  0  0  0  0  0
  -27.8333  -24.5591   18.8460 H   0  0  0  0  0  0
  -27.8063  -22.0811   19.3056 H   0  0  0  0  0  0
  -28.7508  -15.6868   20.8644 H   0  0  0  0  0  0
  1 25  1  0  0  0
  1 30  2  0  0  0
  1 81  1  0  0  0
  2  3  1  0  0  0
  2 25  1  0  0  0
  2 83  1  0  0  0
  2 84  1  0  0  0
  3  4  1  0  0  0
  3 85  1  0  0  0
  3 86  1  0  0  0
  4  5  1  0  0  0
  4 87  1  0  0  0
  4 88  1  0  0  0
  5  6  1  0  0  0
  5 26  1  0  0  0
  5 89  1  0  0  0
  6 25  1  0  0  0
  6 90  1  0  0  0
  6 91  1  0  0  0
  7  8  2  0  0  0
  7 26  1  0  0  0
  7 29  1  0  0  0
  8  9  1  0  0  0
  8 22  1  0  0  0
  9 10  1  0  0  0
  9 27  2  0  0  0
 10 11  2  0  0  0
 10 15  1  0  0  0
 11 12  1  0  0  0
 11 92  1  0  0  0
 12 13  2  0  0  0
 12 93  1  0  0  0
 13 14  1  0  0  0
 13 31  1  0  0  0
 14 15  2  0  0  0
 14 94  1  0  0  0
 15 95  1  0  0  0
 16 17  2  0  0  0
 16 21  1  0  0  0
 16 31  1  0  0  0
 17 18  1  0  0  0
 17 96  1  0  0  0
 18 19  2  0  0  0
 18 97  1  0  0  0
 19 20  1  0  0  0
 19 24  1  0  0  0
 20 21  2  0  0  0
 20 98  1  0  0  0
 21 23  1  0  0  0
 22 28  1  0  0  0
 22 32  2  0  0  0
 26 27  1  0  0  0
 28 99  1  0  0  0
 28100  1  0  0  0
 29101  1  0  0  0
 29102  1  0  0  0
 33 34  1  0  0  0
 33 66  1  0  0  0
 33 70  2  0  0  0
 34 36  1  0  0  0
 34 59  1  0  0  0
 34103  1  0  0  0
 35 44  2  0  0  0
 35 45  1  0  0  0
 35 68  1  0  0  0
 36 56  1  0  0  0
 36104  1  0  0  0
 37 39  1  0  0  0
 37 47  1  0  0  0
 37 66  1  0  0  0
 37105  1  0  0  0
 38 43  2  0  0  0
 38 46  1  0  0  0
 38 47  1  0  0  0
 39 64  1  0  0  0
 39 67  2  0  0  0
 40 52  1  0  0  0
 40 53  2  0  0  0
 40 58  1  0  0  0
 41106  1  0  0  0
 41107  1  0  0  0
 41108  1  0  0  0
 41 48  1  0  0  0
 42 43  1  0  0  0
 42 66  1  0  0  0
 42109  1  0  0  0
 42110  1  0  0  0
 43 44  1  0  0  0
 44111  1  0  0  0
 45 46  2  0  0  0
 45112  1  0  0  0
 46113  1  0  0  0
 47114  1  0  0  0
 47115  1  0  0  0
 48 56  1  0  0  0
 48 65  1  0  0  0
 48116  1  0  0  0
 49 50  1  0  0  0
 49 53  1  0  0  0
 49 64  1  0  0  0
 49117  1  0  0  0
 50 51  1  0  0  0
 50118  1  0  0  0
 50119  1  0  0  0
 51 52  1  0  0  0
 51120  1  0  0  0
 51121  1  0  0  0
 52122  1  0  0  0
 52123  1  0  0  0
 53 54  1  0  0  0
 54 55  2  0  0  0
 54124  1  0  0  0
 55 57  1  0  0  0
 55125  1  0  0  0
 56 69  2  0  0  0
 57 58  2  0  0  0
 57126  1  0  0  0
 58127  1  0  0  0
 59 60  1  0  0  0
 59 61  1  0  0  0
 59 62  1  0  0  0
 60128  1  0  0  0
 60129  1  0  0  0
 60130  1  0  0  0
 61131  1  0  0  0
 61132  1  0  0  0
 61133  1  0  0  0
 62134  1  0  0  0
 62135  1  0  0  0
 62136  1  0  0  0
 63 65  1  0  0  0
 63137  1  0  0  0
 63138  1  0  0  0
 63139  1  0  0  0
 64140  1  0  0  0
 65141  1  0  0  0
 68 79  1  0  0  0
 71 72  2  0  0  0
 71 75  1  0  0  0
 71142  1  0  0  0
 72 76  1  0  0  0
 72143  1  0  0  0
 73 74  1  0  0  0
 73 75  2  0  0  0
 73144  1  0  0  0
 74 76  2  0  0  0
 74 78  1  0  0  0
 75 80  1  0  0  0
 76 81  1  0  0  0
 77 79  1  0  0  0
 77 80  1  0  0  0
 77 82  2  0  0  0
 78145  1  0  0  0
 78146  1  0  0  0
 78147  1  0  0  0
 79148  1  0  0  0
 79149  1  0  0  0
 80150  1  0  0  0
 81151  1  0  0  0
M  ISO  4   1 100  68 101  79 101  81 100
M  END
> <chiral flag>
0

> <version>
0

> <s_m_source_file>
/data/baiqing/PycharmProjects/Reinvent-master-3.2/result/LINK_invent/BTK/process_docking_weight1_custom_sum_contain_oxygen_bond_distance_aromatic_linkinvent_7_9_3/rearranged_h_0008.sdf

> <i_m_source_file_index>
72

> <r_mmod_Potential_Energy-OPLS-2005>
408.473846435547

> <r_mmod_Stretch_Energy-OPLS-2005>
221.40803527832

> <r_mmod_Bend_Energy-OPLS-2005>
260.003326416016

> <r_mmod_Torsional_Energy-OPLS-2005>
248.484390258789

> <r_mmod_Improper_Torsional_Energy-OPLS-2005>
6.22255659103394

> <r_mmod_Van_der_Waal_Energy-OPLS-2005>
127.763702392578

> <r_mmod_Electrostatic_Energy-OPLS-2005>
-387.741668701172

> <r_mmod_Solvation_Energy-OPLS-2005>
-252.530776977539

> <b_mmod_Minimization_Converged-OPLS-2005>
0

> <r_mmod_RMS_Derivative-OPLS-2005>
0.222149834036827

$$$$
72
                    3D
 Structure written by MMmdl.
150157  0  0  1  0            999 V2000
  -30.2990  -15.6675   20.3294 C   0  0  0  0  0  0
  -30.4235  -13.1064   19.5352 C   0  0  0  0  0  0
  -29.5496  -12.6617   18.3256 C   0  0  0  0  0  0
  -28.1253  -12.2994   18.7729 C   0  0  0  0  0  0
  -27.5925  -13.3082   19.8146 C   0  0  2  0  0  0
  -28.6116  -13.6551   20.9274 C   0  0  0  0  0  0
  -25.2244  -13.8144   20.5793 C   0  0  0  0  0  0
  -24.1661  -13.0316   20.9308 C   0  0  0  0  0  0
  -24.6410  -11.6861   20.8787 C   0  0  0  0  0  0
  -23.9121  -10.4228   21.0409 C   0  0  0  0  0  0
  -24.3653   -9.4150   21.9195 C   0  0  0  0  0  0
  -23.6302   -8.2202   22.0762 C   0  0  0  0  0  0
  -22.4284   -8.0260   21.3546 C   0  0  0  0  0  0
  -21.9934   -9.0237   20.4646 C   0  0  0  0  0  0
  -22.7289  -10.2096   20.3055 C   0  0  0  0  0  0
  -21.6844   -6.0732   22.5283 C   0  0  0  0  0  0
  -21.4007   -6.5638   23.8216 C   0  0  0  0  0  0
  -21.3657   -5.6792   24.9178 C   0  0  0  0  0  0
  -21.6042   -4.3055   24.7228 C   0  0  0  0  0  0
  -21.8820   -3.8146   23.4350 C   0  0  0  0  0  0
  -21.9190   -4.6961   22.3405 C   0  0  0  0  0  0
  -22.7682  -13.5079   21.1935 C   0  0  0  0  0  0
  -22.1660   -4.2148   21.0981 F   0  0  0  0  0  0
  -21.5630   -3.4539   25.7742 F   0  0  0  0  0  0
  -29.7788  -14.2928   20.2668 N   0  0  0  0  0  0
  -26.2757  -12.9555   20.3273 N   0  0  0  0  0  0
  -25.9372  -11.6625   20.5742 N   0  0  0  0  0  0
  -22.0347  -12.8079   22.0500 N   0  0  0  0  0  0
  -25.3651  -15.1828   20.4181 N   0  0  0  0  0  0
  -31.5389  -15.6098   20.1782 O   0  0  0  0  0  0
  -21.6628   -6.8873   21.4246 O   0  0  0  0  0  0
  -22.3374  -14.5391   20.6775 O   0  0  0  0  0  0
  -24.6856  -31.7970   23.1492 C   0  0  0  0  0  0
  -25.9426  -32.4454   23.8049 C   0  0  1  0  0  0
  -27.2365  -26.6844   20.2174 C   0  0  0  0  0  0
  -25.5994  -33.8280   24.1931 N   0  0  0  0  0  0
  -23.5131  -30.3972   21.5034 C   0  0  2  0  0  0
  -24.9722  -28.7313   20.1208 C   0  0  0  0  0  0
  -22.7773  -29.4302   22.4703 C   0  0  0  0  0  0
  -18.0339  -28.1421   22.8456 C   0  0  0  0  0  0
  -24.1494  -36.7147   23.2655 C   0  0  0  0  0  0
  -26.0948  -30.5239   21.4167 C   0  0  0  0  0  0
  -26.1618  -29.0862   20.7675 C   0  0  0  0  0  0
  -27.2773  -28.0925   20.7801 C   0  0  0  0  0  0
  -26.0106  -26.5411   19.5162 C   0  0  0  0  0  0
  -24.9363  -27.4842   19.4720 C   0  0  0  0  0  0
  -23.7690  -29.6892   20.1409 C   0  0  0  0  0  0
  -25.4147  -36.2887   24.0279 C   0  0  1  0  0  0
  -20.5975  -28.3783   23.1137 C   0  0  2  0  0  0
  -20.6804  -26.9441   22.5403 C   0  0  0  0  0  0
  -19.5782  -26.6368   21.5216 C   0  0  0  0  0  0
  -18.1964  -26.7949   22.1619 C   0  0  0  0  0  0
  -19.1606  -28.8928   23.2777 C   0  0  0  0  0  0
  -18.9513  -30.1510   23.8825 C   0  0  0  0  0  0
  -17.6503  -30.6606   24.0549 C   0  0  0  0  0  0
  -25.9128  -34.9278   23.4944 C   0  0  0  0  0  0
  -16.5392  -29.9086   23.6351 C   0  0  0  0  0  0
  -16.7319  -28.6507   23.0372 C   0  0  0  0  0  0
  -26.4597  -31.6503   25.0684 C   0  0  0  0  0  0
  -25.3654  -31.3827   26.1292 C   0  0  0  0  0  0
  -27.0537  -30.2840   24.6605 C   0  0  0  0  0  0
  -27.6036  -32.4374   25.7506 C   0  0  0  0  0  0
  -27.5561  -37.1732   24.8469 C   0  0  0  0  0  0
  -21.4419  -29.3027   22.3454 N   0  0  0  0  0  0
  -26.4272  -37.3650   23.9404 N   0  0  0  0  0  0
  -24.7882  -30.9396   22.0755 N   0  0  0  0  0  0
  -23.4206  -28.7908   23.3061 O   0  0  0  0  0  0
  -28.2167  -25.4717   20.2808 O   0  0  0  0  0  0
  -26.5774  -34.8861   22.4565 O   0  0  0  0  0  0
  -23.5871  -32.1054   23.6434 O   0  0  0  0  0  0
  -28.8144  -18.6778   20.3593 C   0  0  0  0  0  0
  -26.8786  -17.6593   19.1401 C   0  0  0  0  0  0
  -26.9982  -17.6027   21.7396 C   0  0  0  0  0  0
  -29.0826  -22.0315   20.2751 C   0  0  0  0  0  0
  -28.0577  -23.7034   20.2134 C   0  0  0  0  0  0
  -27.3285  -18.3545   20.4368 C   0  0  0  0  0  0
  -29.4566  -17.2124   20.3513 N   0  0  0  0  0  0
  -28.7230  -20.2737   20.3270 N   0  3  0  0  0  0
  -31.4122  -13.3763   19.1619 H   0  0  0  0  0  0
  -30.5982  -12.2703   20.2148 H   0  0  0  0  0  0
  -30.0094  -11.8172   17.8103 H   0  0  0  0  0  0
  -29.5033  -13.4753   17.6002 H   0  0  0  0  0  0
  -28.1585  -11.3040   19.2179 H   0  0  0  0  0  0
  -27.4546  -12.2332   17.9152 H   0  0  0  0  0  0
  -27.4462  -14.2243   19.2419 H   0  0  0  0  0  0
  -28.8827  -12.7767   21.5151 H   0  0  0  0  0  0
  -28.1717  -14.3638   21.6295 H   0  0  0  0  0  0
  -25.2793   -9.5618   22.4783 H   0  0  0  0  0  0
  -23.9995   -7.4590   22.7488 H   0  0  0  0  0  0
  -21.0861   -8.8773   19.8953 H   0  0  0  0  0  0
  -22.3763  -10.9646   19.6168 H   0  0  0  0  0  0
  -21.1998   -7.6146   23.9718 H   0  0  0  0  0  0
  -21.1479   -6.0523   25.9081 H   0  0  0  0  0  0
  -22.0602   -2.7609   23.2851 H   0  0  0  0  0  0
  -22.3986  -11.9751   22.4890 H   0  0  0  0  0  0
  -21.0963  -13.1091   22.2714 H   0  0  0  0  0  0
  -24.5782  -15.8115   20.5284 H   0  0  0  0  0  0
  -26.1975  -15.6382   20.0752 H   0  0  0  0  0  0
  -26.7510  -32.4920   23.0762 H   0  0  0  0  0  0
  -25.0044  -33.9314   25.0020 H   0  0  0  0  0  0
  -22.8400  -31.2349   21.3100 H   0  0  0  0  0  0
  -23.3773  -35.9460   23.3274 H   0  0  0  0  0  0
  -24.3557  -36.8855   22.2078 H   0  0  0  0  0  0
  -23.7241  -37.6308   23.6764 H   0  0  0  0  0  0
  -26.3006  -31.2479   20.6274 H   0  0  0  0  0  0
  -26.9442  -30.5925   22.0838 H   0  0  0  0  0  0
  -28.1739  -28.3740   21.3141 H   0  0  0  0  0  0
  -25.8434  -25.5990   19.0138 H   0  0  0  0  0  0
  -24.0385  -27.2028   18.9390 H   0  0  0  0  0  0
  -23.9469  -30.4470   19.3772 H   0  0  0  0  0  0
  -22.8737  -29.1563   19.8161 H   0  0  0  0  0  0
  -25.1360  -36.1646   25.0770 H   0  0  0  0  0  0
  -21.0058  -28.3411   24.1264 H   0  0  0  0  0  0
  -20.5663  -26.2410   23.3667 H   0  0  0  0  0  0
  -21.6665  -26.7378   22.1226 H   0  0  0  0  0  0
  -19.6938  -25.6258   21.1299 H   0  0  0  0  0  0
  -19.6725  -27.3133   20.6709 H   0  0  0  0  0  0
  -17.4232  -26.6690   21.4024 H   0  0  0  0  0  0
  -18.0355  -26.0108   22.9032 H   0  0  0  0  0  0
  -19.7988  -30.7343   24.2164 H   0  0  0  0  0  0
  -17.5055  -31.6280   24.5161 H   0  0  0  0  0  0
  -15.5389  -30.2968   23.7716 H   0  0  0  0  0  0
  -15.8718  -28.0799   22.7135 H   0  0  0  0  0  0
  -24.5857  -30.7164   25.7583 H   0  0  0  0  0  0
  -24.8827  -32.3053   26.4524 H   0  0  0  0  0  0
  -25.7821  -30.9108   27.0200 H   0  0  0  0  0  0
  -26.3260  -29.6443   24.1603 H   0  0  0  0  0  0
  -27.3959  -29.7303   25.5358 H   0  0  0  0  0  0
  -27.9241  -30.3961   24.0140 H   0  0  0  0  0  0
  -27.2565  -33.3742   26.1878 H   0  0  0  0  0  0
  -28.3952  -32.6832   25.0416 H   0  0  0  0  0  0
  -28.0591  -31.8648   26.5595 H   0  0  0  0  0  0
  -28.2553  -38.0049   24.7505 H   0  0  0  0  0  0
  -28.1080  -36.2570   24.6315 H   0  0  0  0  0  0
  -27.2271  -37.1390   25.8870 H   0  0  0  0  0  0
  -20.9727  -29.8675   21.6510 H   0  0  0  0  0  0
  -26.0097  -38.2698   24.1412 H   0  0  0  0  0  0
  -27.1791  -18.2476   18.2729 H   0  0  0  0  0  0
  -25.7929  -17.5698   19.1033 H   0  0  0  0  0  0
  -27.3022  -16.6641   19.0192 H   0  0  0  0  0  0
  -27.3974  -18.1393   22.6004 H   0  0  0  0  0  0
  -27.3981  -16.5913   21.7682 H   0  0  0  0  0  0
  -25.9198  -17.5282   21.8793 H   0  0  0  0  0  0
  -29.7230  -22.1585   21.1474 H   0  0  0  0  0  0
  -29.7729  -22.1135   19.4360 H   0  0  0  0  0  0
  -27.3027  -23.5397   20.9821 H   0  0  0  0  0  0
  -27.4944  -23.5896   19.2874 H   0  0  0  0  0  0
  -26.7188  -19.2590   20.4912 H   0  0  0  0  0  0
  -30.3098  -17.7453   20.3083 H   0  0  0  0  0  0
  -27.7200  -20.3856   20.3898 H   0  0  0  0  0  0
  1 25  1  0  0  0
  1 30  2  0  0  0
  1 77  1  0  0  0
  2  3  1  0  0  0
  2 25  1  0  0  0
  2 79  1  0  0  0
  2 80  1  0  0  0
  3  4  1  0  0  0
  3 81  1  0  0  0
  3 82  1  0  0  0
  4  5  1  0  0  0
  4 83  1  0  0  0
  4 84  1  0  0  0
  5  6  1  0  0  0
  5 26  1  0  0  0
  5 85  1  0  0  0
  6 25  1  0  0  0
  6 86  1  0  0  0
  6 87  1  0  0  0
  7  8  2  0  0  0
  7 26  1  0  0  0
  7 29  1  0  0  0
  8  9  1  0  0  0
  8 22  1  0  0  0
  9 10  1  0  0  0
  9 27  2  0  0  0
 10 11  2  0  0  0
 10 15  1  0  0  0
 11 12  1  0  0  0
 11 88  1  0  0  0
 12 13  2  0  0  0
 12 89  1  0  0  0
 13 14  1  0  0  0
 13 31  1  0  0  0
 14 15  2  0  0  0
 14 90  1  0  0  0
 15 91  1  0  0  0
 16 17  2  0  0  0
 16 21  1  0  0  0
 16 31  1  0  0  0
 17 18  1  0  0  0
 17 92  1  0  0  0
 18 19  2  0  0  0
 18 93  1  0  0  0
 19 20  1  0  0  0
 19 24  1  0  0  0
 20 21  2  0  0  0
 20 94  1  0  0  0
 21 23  1  0  0  0
 22 28  1  0  0  0
 22 32  2  0  0  0
 26 27  1  0  0  0
 28 95  1  0  0  0
 28 96  1  0  0  0
 29 97  1  0  0  0
 29 98  1  0  0  0
 33 34  1  0  0  0
 33 66  1  0  0  0
 33 70  2  0  0  0
 34 36  1  0  0  0
 34 59  1  0  0  0
 34 99  1  0  0  0
 35 44  2  0  0  0
 35 45  1  0  0  0
 35 68  1  0  0  0
 36 56  1  0  0  0
 36100  1  0  0  0
 37 39  1  0  0  0
 37 47  1  0  0  0
 37 66  1  0  0  0
 37101  1  0  0  0
 38 43  2  0  0  0
 38 46  1  0  0  0
 38 47  1  0  0  0
 39 64  1  0  0  0
 39 67  2  0  0  0
 40 52  1  0  0  0
 40 53  2  0  0  0
 40 58  1  0  0  0
 41102  1  0  0  0
 41103  1  0  0  0
 41104  1  0  0  0
 41 48  1  0  0  0
 42 43  1  0  0  0
 42 66  1  0  0  0
 42105  1  0  0  0
 42106  1  0  0  0
 43 44  1  0  0  0
 44107  1  0  0  0
 45 46  2  0  0  0
 45108  1  0  0  0
 46109  1  0  0  0
 47110  1  0  0  0
 47111  1  0  0  0
 48 56  1  0  0  0
 48 65  1  0  0  0
 48112  1  0  0  0
 49 50  1  0  0  0
 49 53  1  0  0  0
 49 64  1  0  0  0
 49113  1  0  0  0
 50 51  1  0  0  0
 50114  1  0  0  0
 50115  1  0  0  0
 51 52  1  0  0  0
 51116  1  0  0  0
 51117  1  0  0  0
 52118  1  0  0  0
 52119  1  0  0  0
 53 54  1  0  0  0
 54 55  2  0  0  0
 54120  1  0  0  0
 55 57  1  0  0  0
 55121  1  0  0  0
 56 69  2  0  0  0
 57 58  2  0  0  0
 57122  1  0  0  0
 58123  1  0  0  0
 59 60  1  0  0  0
 59 61  1  0  0  0
 59 62  1  0  0  0
 60124  1  0  0  0
 60125  1  0  0  0
 60126  1  0  0  0
 61127  1  0  0  0
 61128  1  0  0  0
 61129  1  0  0  0
 62130  1  0  0  0
 62131  1  0  0  0
 62132  1  0  0  0
 63 65  1  0  0  0
 63133  1  0  0  0
 63134  1  0  0  0
 63135  1  0  0  0
 64136  1  0  0  0
 65137  1  0  0  0
 68 75  1  0  0  0
 71 76  1  0  0  0
 71 77  1  0  0  0
 71 78  2  0  0  0
 72138  1  0  0  0
 72139  1  0  0  0
 72140  1  0  0  0
 72 76  1  0  0  0
 73 76  1  0  0  0
 73141  1  0  0  0
 73142  1  0  0  0
 73143  1  0  0  0
 74 75  1  0  0  0
 74 78  1  0  0  0
 74144  1  0  0  0
 74145  1  0  0  0
 75146  1  0  0  0
 75147  1  0  0  0
 76148  1  0  0  0
 77149  1  0  0  0
 78150  1  0  0  0
M  CHG  1  78   1
M  ISO  4   1 100  68 101  75 101  77 100
M  END
> <chiral flag>
0

> <version>
0

> <s_m_source_file>
/data/baiqing/PycharmProjects/Reinvent-master-3.2/result/LINK_invent/BTK/process_docking_weight1_custom_sum_contain_oxygen_bond_distance_aromatic_linkinvent_7_9_3/rearranged_h_0008.sdf

> <i_m_source_file_index>
73

> <r_mmod_Potential_Energy-OPLS-2005>
2976.42651367188

> <r_mmod_Stretch_Energy-OPLS-2005>
1196.73596191406

> <r_mmod_Bend_Energy-OPLS-2005>
1177.79113769531

> <r_mmod_Torsional_Energy-OPLS-2005>
205.800903320312

> <r_mmod_Improper_Torsional_Energy-OPLS-2005>
4.35089826583862

> <r_mmod_Van_der_Waal_Energy-OPLS-2005>
120.416854858398

> <r_mmod_Electrostatic_Energy-OPLS-2005>
-224.937637329102

> <r_mmod_Solvation_Energy-OPLS-2005>
-445.826873779297

> <b_mmod_Minimization_Converged-OPLS-2005>
0

> <r_mmod_RMS_Derivative-OPLS-2005>
0.376186668872833

$$$$
73
                    3D
 Structure written by MMmdl.
151159  0  0  1  0            999 V2000
  -30.5338  -14.9387   20.4830 C   0  0  0  0  0  0
  -30.4378  -12.6065   19.4714 C   0  0  0  0  0  0
  -29.5065  -12.5455   18.2359 C   0  0  0  0  0  0
  -28.0349  -12.3533   18.6446 C   0  0  0  0  0  0
  -27.6283  -13.2489   19.8405 C   0  0  2  0  0  0
  -28.6713  -13.2085   20.9705 C   0  0  0  0  0  0
  -25.2426  -13.8203   20.5687 C   0  0  0  0  0  0
  -24.1769  -13.0444   20.9234 C   0  0  0  0  0  0
  -24.6382  -11.6922   20.8753 C   0  0  0  0  0  0
  -23.9068  -10.4297   21.0408 C   0  0  0  0  0  0
  -24.3610   -9.4213   21.9191 C   0  0  0  0  0  0
  -23.6294   -8.2244   22.0749 C   0  0  0  0  0  0
  -22.4285   -8.0271   21.3526 C   0  0  0  0  0  0
  -21.9916   -9.0254   20.4647 C   0  0  0  0  0  0
  -22.7234  -10.2140   20.3072 C   0  0  0  0  0  0
  -21.6856   -6.0715   22.5252 C   0  0  0  0  0  0
  -21.4014   -6.5619   23.8177 C   0  0  0  0  0  0
  -21.3679   -5.6787   24.9146 C   0  0  0  0  0  0
  -21.6035   -4.3043   24.7208 C   0  0  0  0  0  0
  -21.8829   -3.8130   23.4334 C   0  0  0  0  0  0
  -21.9203   -4.6945   22.3384 C   0  0  0  0  0  0
  -22.7788  -13.5205   21.1895 C   0  0  0  0  0  0
  -22.1672   -4.2126   21.0965 F   0  0  0  0  0  0
  -21.5639   -3.4539   25.7726 F   0  0  0  0  0  0
  -29.9475  -13.6694   20.3999 N   0  0  0  0  0  0
  -26.2859  -12.9452   20.3241 N   0  0  0  0  0  0
  -25.9307  -11.6571   20.5736 N   0  0  0  0  0  0
  -22.0455  -12.8207   22.0457 N   0  0  0  0  0  0
  -25.4070  -15.1940   20.4033 N   0  0  0  0  0  0
  -31.6899  -15.0450   20.0548 O   0  0  0  0  0  0
  -21.6649   -6.8870   21.4217 O   0  0  0  0  0  0
  -22.3471  -14.5519   20.6748 O   0  0  0  0  0  0
  -24.6432  -31.8463   23.1902 C   0  0  0  0  0  0
  -25.9190  -32.4704   23.8320 C   0  0  1  0  0  0
  -27.2289  -27.1490   20.1398 C   0  0  0  0  0  0
  -25.5914  -33.8510   24.2206 N   0  0  0  0  0  0
  -23.4446  -30.4660   21.5369 C   0  0  2  0  0  0
  -24.8969  -28.8898   20.1109 C   0  0  0  0  0  0
  -22.7566  -29.4575   22.4882 C   0  0  0  0  0  0
  -18.0315  -28.1417   22.8486 C   0  0  0  0  0  0
  -24.1448  -36.7281   23.2647 C   0  0  0  0  0  0
  -26.0005  -30.7215   21.3850 C   0  0  0  0  0  0
  -26.0729  -29.3308   20.7310 C   0  0  0  0  0  0
  -27.2357  -28.4730   20.7371 C   0  0  0  0  0  0
  -26.0295  -26.8139   19.4723 C   0  0  0  0  0  0
  -24.8872  -27.6443   19.4680 C   0  0  0  0  0  0
  -23.6693  -29.7888   20.1578 C   0  0  0  0  0  0
  -25.4084  -36.3040   24.0312 C   0  0  1  0  0  0
  -20.5918  -28.3745   23.1229 C   0  0  2  0  0  0
  -20.6787  -26.9453   22.5393 C   0  0  0  0  0  0
  -19.5745  -26.6395   21.5222 C   0  0  0  0  0  0
  -18.1932  -26.7953   22.1633 C   0  0  0  0  0  0
  -19.1573  -28.8896   23.2836 C   0  0  0  0  0  0
  -18.9503  -30.1490   23.8866 C   0  0  0  0  0  0
  -17.6504  -30.6613   24.0568 C   0  0  0  0  0  0
  -25.9063  -34.9416   23.5077 C   0  0  0  0  0  0
  -16.5389  -29.9121   23.6329 C   0  0  0  0  0  0
  -16.7304  -28.6531   23.0372 C   0  0  0  0  0  0
  -26.4500  -31.6595   25.0776 C   0  0  0  0  0  0
  -25.3661  -31.3755   26.1458 C   0  0  0  0  0  0
  -27.0407  -30.2997   24.6370 C   0  0  0  0  0  0
  -27.6042  -32.4375   25.7557 C   0  0  0  0  0  0
  -27.5556  -37.1774   24.8456 C   0  0  0  0  0  0
  -21.4261  -29.3082   22.3613 N   0  0  0  0  0  0
  -26.4242  -37.3765   23.9430 N   0  0  0  0  0  0
  -24.7162  -31.0333   22.0937 N   0  0  0  0  0  0
  -23.4204  -28.8131   23.3044 O   0  0  0  0  0  0
  -28.2857  -26.1685   20.2173 O   0  0  0  0  0  0
  -26.5702  -34.8920   22.4686 O   0  0  0  0  0  0
  -23.5553  -32.1357   23.7124 O   0  0  0  0  0  0
  -28.5066  -18.0114   19.8217 C   0  0  0  0  0  0
  -28.1832  -19.4146   19.6290 C   0  0  0  0  0  0
  -30.4500  -18.6556   20.9883 C   0  0  0  0  0  0
  -29.6620  -17.5323   20.5259 C   0  0  0  0  0  0
  -28.9490  -20.5342   20.1138 C   0  0  0  0  0  0
  -30.1283  -20.0702   20.7927 C   0  0  0  0  0  0
  -29.6075  -15.9775   22.4521 C   0  0  0  0  0  0
  -28.0481  -24.6601   19.9060 C   0  0  0  0  0  0
  -28.8975  -23.2831   20.3791 C   0  0  0  0  0  0
  -29.8314  -16.0741   20.9999 N   0  0  0  0  0  0
  -28.4712  -21.8999   19.8577 O   0  0  0  0  0  0
  -30.9844  -20.9977   21.2896 F   0  0  0  0  0  0
  -31.4574  -12.7963   19.1361 H   0  0  0  0  0  0
  -30.4735  -11.6424   19.9772 H   0  0  0  0  0  0
  -29.8120  -11.7343   17.5730 H   0  0  0  0  0  0
  -29.6060  -13.4626   17.6535 H   0  0  0  0  0  0
  -27.8949  -11.3044   18.9031 H   0  0  0  0  0  0
  -27.3780  -12.5452   17.7968 H   0  0  0  0  0  0
  -27.6089  -14.2709   19.4581 H   0  0  0  0  0  0
  -28.7661  -12.2007   21.3757 H   0  0  0  0  0  0
  -28.3356  -13.8299   21.7958 H   0  0  0  0  0  0
  -25.2742   -9.5686   22.4779 H   0  0  0  0  0  0
  -23.9996   -7.4631   22.7468 H   0  0  0  0  0  0
  -21.0843   -8.8786   19.8949 H   0  0  0  0  0  0
  -22.3689  -10.9689   19.6199 H   0  0  0  0  0  0
  -21.2012   -7.6133   23.9667 H   0  0  0  0  0  0
  -21.1486   -6.0518   25.9043 H   0  0  0  0  0  0
  -22.0604   -2.7592   23.2832 H   0  0  0  0  0  0
  -22.4083  -11.9885   22.4872 H   0  0  0  0  0  0
  -21.1060  -13.1208   22.2650 H   0  0  0  0  0  0
  -24.6302  -15.8405   20.4865 H   0  0  0  0  0  0
  -26.2515  -15.6278   20.0575 H   0  0  0  0  0  0
  -26.7293  -32.5326   23.1091 H   0  0  0  0  0  0
  -24.9850  -33.9598   25.0191 H   0  0  0  0  0  0
  -22.7465  -31.2903   21.3769 H   0  0  0  0  0  0
  -23.3703  -35.9604   23.3281 H   0  0  0  0  0  0
  -24.3516  -36.8982   22.2064 H   0  0  0  0  0  0
  -23.7214  -37.6459   23.6743 H   0  0  0  0  0  0
  -26.1382  -31.4667   20.6001 H   0  0  0  0  0  0
  -26.8767  -30.7902   22.0176 H   0  0  0  0  0  0
  -28.1274  -28.7986   21.2558 H   0  0  0  0  0  0
  -25.9423  -25.8700   18.9570 H   0  0  0  0  0  0
  -23.9921  -27.3020   18.9699 H   0  0  0  0  0  0
  -23.7976  -30.5587   19.3967 H   0  0  0  0  0  0
  -22.7830  -29.2253   19.8575 H   0  0  0  0  0  0
  -25.1246  -36.1853   25.0797 H   0  0  0  0  0  0
  -21.0008  -28.3373   24.1352 H   0  0  0  0  0  0
  -20.5673  -26.2398   23.3633 H   0  0  0  0  0  0
  -21.6657  -26.7452   22.1210 H   0  0  0  0  0  0
  -19.6919  -25.6299   21.1287 H   0  0  0  0  0  0
  -19.6683  -27.3154   20.6700 H   0  0  0  0  0  0
  -17.4204  -26.6713   21.4040 H   0  0  0  0  0  0
  -18.0337  -26.0087   22.9012 H   0  0  0  0  0  0
  -19.7989  -30.7302   24.2250 H   0  0  0  0  0  0
  -17.5076  -31.6282   24.5193 H   0  0  0  0  0  0
  -15.5394  -30.3033   23.7680 H   0  0  0  0  0  0
  -15.8700  -28.0848   22.7124 H   0  0  0  0  0  0
  -24.5876  -30.7058   25.7773 H   0  0  0  0  0  0
  -24.8763  -32.2906   26.4816 H   0  0  0  0  0  0
  -25.7919  -30.8999   27.0306 H   0  0  0  0  0  0
  -26.3076  -29.6681   24.1336 H   0  0  0  0  0  0
  -27.4007  -29.7323   25.4966 H   0  0  0  0  0  0
  -27.8968  -30.4256   23.9718 H   0  0  0  0  0  0
  -27.2687  -33.3741   26.2023 H   0  0  0  0  0  0
  -28.3916  -32.6850   25.0415 H   0  0  0  0  0  0
  -28.0649  -31.8568   26.5559 H   0  0  0  0  0  0
  -28.2530  -38.0111   24.7561 H   0  0  0  0  0  0
  -28.1118  -36.2660   24.6215 H   0  0  0  0  0  0
  -27.2306  -37.1344   25.8865 H   0  0  0  0  0  0
  -20.9515  -29.8823   21.6776 H   0  0  0  0  0  0
  -26.0109  -38.2815   24.1485 H   0  0  0  0  0  0
  -27.7925  -17.2844   19.4557 H   0  0  0  0  0  0
  -27.2645  -19.6360   19.0999 H   0  0  0  0  0  0
  -31.3405  -18.4374   21.5627 H   0  0  0  0  0  0
  -30.1720  -16.7377   22.9938 H   0  0  0  0  0  0
  -29.8969  -15.0184   22.8883 H   0  0  0  0  0  0
  -28.5531  -16.1311   22.6863 H   0  0  0  0  0  0
  -27.0285  -24.4425   20.2221 H   0  0  0  0  0  0
  -28.0212  -24.6107   18.8162 H   0  0  0  0  0  0
  -28.8512  -23.2323   21.4697 H   0  0  0  0  0  0
  -29.9526  -23.4209   20.1468 H   0  0  0  0  0  0
  1 25  1  0  0  0
  1 30  2  0  0  0
  1 80  1  0  0  0
  2  3  1  0  0  0
  2 25  1  0  0  0
  2 83  1  0  0  0
  2 84  1  0  0  0
  3  4  1  0  0  0
  3 85  1  0  0  0
  3 86  1  0  0  0
  4  5  1  0  0  0
  4 87  1  0  0  0
  4 88  1  0  0  0
  5  6  1  0  0  0
  5 26  1  0  0  0
  5 89  1  0  0  0
  6 25  1  0  0  0
  6 90  1  0  0  0
  6 91  1  0  0  0
  7  8  2  0  0  0
  7 26  1  0  0  0
  7 29  1  0  0  0
  8  9  1  0  0  0
  8 22  1  0  0  0
  9 10  1  0  0  0
  9 27  2  0  0  0
 10 11  2  0  0  0
 10 15  1  0  0  0
 11 12  1  0  0  0
 11 92  1  0  0  0
 12 13  2  0  0  0
 12 93  1  0  0  0
 13 14  1  0  0  0
 13 31  1  0  0  0
 14 15  2  0  0  0
 14 94  1  0  0  0
 15 95  1  0  0  0
 16 17  2  0  0  0
 16 21  1  0  0  0
 16 31  1  0  0  0
 17 18  1  0  0  0
 17 96  1  0  0  0
 18 19  2  0  0  0
 18 97  1  0  0  0
 19 20  1  0  0  0
 19 24  1  0  0  0
 20 21  2  0  0  0
 20 98  1  0  0  0
 21 23  1  0  0  0
 22 28  1  0  0  0
 22 32  2  0  0  0
 26 27  1  0  0  0
 28 99  1  0  0  0
 28100  1  0  0  0
 29101  1  0  0  0
 29102  1  0  0  0
 33 34  1  0  0  0
 33 66  1  0  0  0
 33 70  2  0  0  0
 34 36  1  0  0  0
 34 59  1  0  0  0
 34103  1  0  0  0
 35 44  2  0  0  0
 35 45  1  0  0  0
 35 68  1  0  0  0
 36 56  1  0  0  0
 36104  1  0  0  0
 37 39  1  0  0  0
 37 47  1  0  0  0
 37 66  1  0  0  0
 37105  1  0  0  0
 38 43  2  0  0  0
 38 46  1  0  0  0
 38 47  1  0  0  0
 39 64  1  0  0  0
 39 67  2  0  0  0
 40 52  1  0  0  0
 40 53  2  0  0  0
 40 58  1  0  0  0
 41106  1  0  0  0
 41107  1  0  0  0
 41108  1  0  0  0
 41 48  1  0  0  0
 42 43  1  0  0  0
 42 66  1  0  0  0
 42109  1  0  0  0
 42110  1  0  0  0
 43 44  1  0  0  0
 44111  1  0  0  0
 45 46  2  0  0  0
 45112  1  0  0  0
 46113  1  0  0  0
 47114  1  0  0  0
 47115  1  0  0  0
 48 56  1  0  0  0
 48 65  1  0  0  0
 48116  1  0  0  0
 49 50  1  0  0  0
 49 53  1  0  0  0
 49 64  1  0  0  0
 49117  1  0  0  0
 50 51  1  0  0  0
 50118  1  0  0  0
 50119  1  0  0  0
 51 52  1  0  0  0
 51120  1  0  0  0
 51121  1  0  0  0
 52122  1  0  0  0
 52123  1  0  0  0
 53 54  1  0  0  0
 54 55  2  0  0  0
 54124  1  0  0  0
 55 57  1  0  0  0
 55125  1  0  0  0
 56 69  2  0  0  0
 57 58  2  0  0  0
 57126  1  0  0  0
 58127  1  0  0  0
 59 60  1  0  0  0
 59 61  1  0  0  0
 59 62  1  0  0  0
 60128  1  0  0  0
 60129  1  0  0  0
 60130  1  0  0  0
 61131  1  0  0  0
 61132  1  0  0  0
 61133  1  0  0  0
 62134  1  0  0  0
 62135  1  0  0  0
 62136  1  0  0  0
 63 65  1  0  0  0
 63137  1  0  0  0
 63138  1  0  0  0
 63139  1  0  0  0
 64140  1  0  0  0
 65141  1  0  0  0
 68 78  1  0  0  0
 71 72  2  0  0  0
 71 74  1  0  0  0
 71142  1  0  0  0
 72 75  1  0  0  0
 72143  1  0  0  0
 73 74  2  0  0  0
 73 76  1  0  0  0
 73144  1  0  0  0
 74 80  1  0  0  0
 75 76  2  0  0  0
 75 81  1  0  0  0
 76 82  1  0  0  0
 77 80  1  0  0  0
 77145  1  0  0  0
 77146  1  0  0  0
 77147  1  0  0  0
 78 79  1  0  0  0
 78148  1  0  0  0
 78149  1  0  0  0
 79 81  1  0  0  0
 79150  1  0  0  0
 79151  1  0  0  0
M  ISO  4   1 100  68 101  78 101  80 100
M  END
> <chiral flag>
0

> <version>
0

> <s_m_source_file>
/data/baiqing/PycharmProjects/Reinvent-master-3.2/result/LINK_invent/BTK/process_docking_weight1_custom_sum_contain_oxygen_bond_distance_aromatic_linkinvent_7_9_3/rearranged_h_0008.sdf

> <i_m_source_file_index>
74

> <r_mmod_Potential_Energy-OPLS-2005>
680.898010253906

> <r_mmod_Stretch_Energy-OPLS-2005>
239.020202636719

> <r_mmod_Bend_Energy-OPLS-2005>
284.776184082031

> <r_mmod_Torsional_Energy-OPLS-2005>
310.008209228516

> <r_mmod_Improper_Torsional_Energy-OPLS-2005>
5.87072706222534

> <r_mmod_Van_der_Waal_Energy-OPLS-2005>
135.038879394531

> <r_mmod_Electrostatic_Energy-OPLS-2005>
-278.127838134766

> <r_mmod_Solvation_Energy-OPLS-2005>
-195.857055664062

> <b_mmod_Minimization_Converged-OPLS-2005>
0

> <r_mmod_RMS_Derivative-OPLS-2005>
4.48634338378906

$$$$
74
                    3D
 Structure written by MMmdl.
151159  0  0  1  0            999 V2000
  -30.5341  -15.0189   20.4046 C   0  0  0  0  0  0
  -30.4390  -12.6362   19.5019 C   0  0  0  0  0  0
  -29.5226  -12.5319   18.2609 C   0  0  0  0  0  0
  -28.0590  -12.3096   18.6839 C   0  0  0  0  0  0
  -27.6250  -13.2558   19.8338 C   0  0  2  0  0  0
  -28.6688  -13.3252   20.9684 C   0  0  0  0  0  0
  -25.2448  -13.8230   20.5735 C   0  0  0  0  0  0
  -24.1775  -13.0443   20.9248 C   0  0  0  0  0  0
  -24.6404  -11.6932   20.8773 C   0  0  0  0  0  0
  -23.9094  -10.4297   21.0422 C   0  0  0  0  0  0
  -24.3636   -9.4207   21.9196 C   0  0  0  0  0  0
  -23.6304   -8.2245   22.0760 C   0  0  0  0  0  0
  -22.4286   -8.0289   21.3547 C   0  0  0  0  0  0
  -21.9930   -9.0268   20.4650 C   0  0  0  0  0  0
  -22.7267  -10.2143   20.3066 C   0  0  0  0  0  0
  -21.6852   -6.0746   22.5280 C   0  0  0  0  0  0
  -21.4013   -6.5646   23.8215 C   0  0  0  0  0  0
  -21.3658   -5.6796   24.9176 C   0  0  0  0  0  0
  -21.6042   -4.3060   24.7224 C   0  0  0  0  0  0
  -21.8818   -3.8154   23.4345 C   0  0  0  0  0  0
  -21.9193   -4.6972   22.3402 C   0  0  0  0  0  0
  -22.7793  -13.5208   21.1891 C   0  0  0  0  0  0
  -22.1661   -4.2159   21.0978 F   0  0  0  0  0  0
  -21.5627   -3.4542   25.7735 F   0  0  0  0  0  0
  -29.9319  -13.7549   20.3551 N   0  0  0  0  0  0
  -26.2875  -12.9474   20.3255 N   0  0  0  0  0  0
  -25.9338  -11.6598   20.5756 N   0  0  0  0  0  0
  -22.0441  -12.8197   22.0445 N   0  0  0  0  0  0
  -25.4090  -15.1963   20.4156 N   0  0  0  0  0  0
  -31.7477  -15.0329   20.1683 O   0  0  0  0  0  0
  -21.6641   -6.8891   21.4244 O   0  0  0  0  0  0
  -22.3477  -14.5510   20.6731 O   0  0  0  0  0  0
  -24.6480  -31.8390   23.1837 C   0  0  0  0  0  0
  -25.9229  -32.4664   23.8248 C   0  0  1  0  0  0
  -27.2173  -27.0851   20.1620 C   0  0  0  0  0  0
  -25.5952  -33.8471   24.2156 N   0  0  0  0  0  0
  -23.4541  -30.4569   21.5301 C   0  0  2  0  0  0
  -24.9047  -28.8735   20.1110 C   0  0  0  0  0  0
  -22.7589  -29.4527   22.4841 C   0  0  0  0  0  0
  -18.0308  -28.1402   22.8478 C   0  0  0  0  0  0
  -24.1487  -36.7244   23.2647 C   0  0  0  0  0  0
  -26.0137  -30.6973   21.3896 C   0  0  0  0  0  0
  -26.0843  -29.3034   20.7317 C   0  0  0  0  0  0
  -27.2408  -28.4273   20.7357 C   0  0  0  0  0  0
  -26.0090  -26.7672   19.5038 C   0  0  0  0  0  0
  -24.8830  -27.6207   19.4801 C   0  0  0  0  0  0
  -23.6836  -29.7823   20.1515 C   0  0  0  0  0  0
  -25.4121  -36.3012   24.0313 C   0  0  1  0  0  0
  -20.5924  -28.3735   23.1225 C   0  0  2  0  0  0
  -20.6794  -26.9432   22.5407 C   0  0  0  0  0  0
  -19.5764  -26.6383   21.5220 C   0  0  0  0  0  0
  -18.1943  -26.7940   22.1627 C   0  0  0  0  0  0
  -19.1566  -28.8886   23.2841 C   0  0  0  0  0  0
  -18.9483  -30.1483   23.8867 C   0  0  0  0  0  0
  -17.6480  -30.6599   24.0561 C   0  0  0  0  0  0
  -25.9079  -34.9392   23.5048 C   0  0  0  0  0  0
  -16.5371  -29.9092   23.6340 C   0  0  0  0  0  0
  -16.7293  -28.6510   23.0360 C   0  0  0  0  0  0
  -26.4530  -31.6557   25.0717 C   0  0  0  0  0  0
  -25.3696  -31.3761   26.1401 C   0  0  0  0  0  0
  -27.0406  -30.2940   24.6346 C   0  0  0  0  0  0
  -27.6047  -32.4346   25.7501 C   0  0  0  0  0  0
  -27.5570  -37.1776   24.8465 C   0  0  0  0  0  0
  -21.4277  -29.3049   22.3587 N   0  0  0  0  0  0
  -26.4278  -37.3732   23.9411 N   0  0  0  0  0  0
  -24.7256  -31.0201   22.0894 N   0  0  0  0  0  0
  -23.4209  -28.8081   23.3015 O   0  0  0  0  0  0
  -28.2588  -26.0718   20.2333 O   0  0  0  0  0  0
  -26.5678  -34.8902   22.4637 O   0  0  0  0  0  0
  -23.5588  -32.1292   23.7027 O   0  0  0  0  0  0
  -31.9047  -19.4431   20.7191 C   0  0  0  0  0  0
  -31.4647  -18.1066   20.6679 C   0  0  0  0  0  0
  -29.2364  -18.9859   20.3726 C   0  0  0  0  0  0
  -31.0591  -20.5761   20.6024 C   0  0  0  0  0  0
  -30.1123  -17.7627   20.4922 C   0  0  0  0  0  0
  -29.6459  -20.4408   20.4135 C   0  0  0  0  0  0
  -31.7819  -21.9113   20.6887 C   0  0  0  0  0  0
  -27.9807  -24.5166   20.1194 C   0  0  0  0  0  0
  -29.0332  -23.1803   20.3544 C   0  0  0  0  0  0
  -29.7675  -16.2404   20.4844 N   0  0  0  0  0  0
  -28.7439  -21.6242   20.2731 O   0  0  0  0  0  0
  -31.4694  -12.7992   19.1819 H   0  0  0  0  0  0
  -30.4476  -11.6985   20.0596 H   0  0  0  0  0  0
  -29.8530  -11.7191   17.6123 H   0  0  0  0  0  0
  -29.5996  -13.4469   17.6712 H   0  0  0  0  0  0
  -27.9687  -11.2731   19.0107 H   0  0  0  0  0  0
  -27.3929  -12.4184   17.8274 H   0  0  0  0  0  0
  -27.5748  -14.2486   19.3862 H   0  0  0  0  0  0
  -28.7772  -12.3618   21.4684 H   0  0  0  0  0  0
  -28.3593  -14.0395   21.7331 H   0  0  0  0  0  0
  -25.2777   -9.5679   22.4779 H   0  0  0  0  0  0
  -24.0008   -7.4637   22.7483 H   0  0  0  0  0  0
  -21.0858   -8.8798   19.8957 H   0  0  0  0  0  0
  -22.3730  -10.9690   19.6181 H   0  0  0  0  0  0
  -21.2005   -7.6154   23.9721 H   0  0  0  0  0  0
  -21.1478   -6.0526   25.9078 H   0  0  0  0  0  0
  -22.0596   -2.7617   23.2841 H   0  0  0  0  0  0
  -22.4057  -11.9858   22.4835 H   0  0  0  0  0  0
  -21.1056  -13.1218   22.2641 H   0  0  0  0  0  0
  -24.6365  -15.8440   20.5283 H   0  0  0  0  0  0
  -26.2450  -15.6393   20.0583 H   0  0  0  0  0  0
  -26.7298  -32.5250   23.0977 H   0  0  0  0  0  0
  -25.0043  -33.9570   25.0264 H   0  0  0  0  0  0
  -22.7588  -31.2839   21.3713 H   0  0  0  0  0  0
  -23.3754  -35.9570   23.3293 H   0  0  0  0  0  0
  -24.3566  -36.8897   22.2063 H   0  0  0  0  0  0
  -23.7246  -37.6434   23.6704 H   0  0  0  0  0  0
  -26.1738  -31.4488   20.6155 H   0  0  0  0  0  0
  -26.8825  -30.7497   22.0343 H   0  0  0  0  0  0
  -28.1382  -28.7527   21.2426 H   0  0  0  0  0  0
  -25.8996  -25.8084   19.0206 H   0  0  0  0  0  0
  -23.9827  -27.2850   18.9836 H   0  0  0  0  0  0
  -23.8240  -30.5551   19.3952 H   0  0  0  0  0  0
  -22.7971  -29.2272   19.8401 H   0  0  0  0  0  0
  -25.1309  -36.1827   25.0805 H   0  0  0  0  0  0
  -21.0013  -28.3338   24.1349 H   0  0  0  0  0  0
  -20.5692  -26.2349   23.3631 H   0  0  0  0  0  0
  -21.6658  -26.7436   22.1198 H   0  0  0  0  0  0
  -19.6925  -25.6286   21.1267 H   0  0  0  0  0  0
  -19.6699  -27.3178   20.6736 H   0  0  0  0  0  0
  -17.4211  -26.6689   21.4030 H   0  0  0  0  0  0
  -18.0337  -26.0085   22.9025 H   0  0  0  0  0  0
  -19.7960  -30.7306   24.2221 H   0  0  0  0  0  0
  -17.5034  -31.6277   24.5172 H   0  0  0  0  0  0
  -15.5368  -30.2984   23.7686 H   0  0  0  0  0  0
  -15.8692  -28.0822   22.7094 H   0  0  0  0  0  0
  -24.5883  -30.7101   25.7720 H   0  0  0  0  0  0
  -24.8877  -32.2945   26.4761 H   0  0  0  0  0  0
  -25.7962  -30.8974   27.0224 H   0  0  0  0  0  0
  -26.3044  -29.6641   24.1338 H   0  0  0  0  0  0
  -27.3977  -29.7264   25.4951 H   0  0  0  0  0  0
  -27.8964  -30.4156   23.9700 H   0  0  0  0  0  0
  -27.2634  -33.3679   26.1992 H   0  0  0  0  0  0
  -28.3895  -32.6862   25.0354 H   0  0  0  0  0  0
  -28.0672  -31.8532   26.5486 H   0  0  0  0  0  0
  -28.2576  -38.0081   24.7510 H   0  0  0  0  0  0
  -28.1078  -36.2612   24.6294 H   0  0  0  0  0  0
  -27.2287  -37.1419   25.8867 H   0  0  0  0  0  0
  -20.9502  -29.8741   21.6737 H   0  0  0  0  0  0
  -26.0138  -38.2794   24.1423 H   0  0  0  0  0  0
  -32.9664  -19.5914   20.8595 H   0  0  0  0  0  0
  -32.2167  -17.3409   20.7830 H   0  0  0  0  0  0
  -28.1805  -18.8023   20.2382 H   0  0  0  0  0  0
  -32.8434  -21.7783   20.8985 H   0  0  0  0  0  0
  -31.4027  -22.5242   21.5028 H   0  0  0  0  0  0
  -31.7342  -22.4467   19.7422 H   0  0  0  0  0  0
  -27.1326  -24.3382   20.7814 H   0  0  0  0  0  0
  -27.5845  -24.3745   19.1149 H   0  0  0  0  0  0
  -29.4436  -23.3400   21.3492 H   0  0  0  0  0  0
  -29.8341  -23.3692   19.6453 H   0  0  0  0  0  0
  -28.7783  -16.0523   20.5429 H   0  0  0  0  0  0
  1 25  1  0  0  0
  1 30  2  0  0  0
  1 80  1  0  0  0
  2  3  1  0  0  0
  2 25  1  0  0  0
  2 82  1  0  0  0
  2 83  1  0  0  0
  3  4  1  0  0  0
  3 84  1  0  0  0
  3 85  1  0  0  0
  4  5  1  0  0  0
  4 86  1  0  0  0
  4 87  1  0  0  0
  5  6  1  0  0  0
  5 26  1  0  0  0
  5 88  1  0  0  0
  6 25  1  0  0  0
  6 89  1  0  0  0
  6 90  1  0  0  0
  7  8  2  0  0  0
  7 26  1  0  0  0
  7 29  1  0  0  0
  8  9  1  0  0  0
  8 22  1  0  0  0
  9 10  1  0  0  0
  9 27  2  0  0  0
 10 11  2  0  0  0
 10 15  1  0  0  0
 11 12  1  0  0  0
 11 91  1  0  0  0
 12 13  2  0  0  0
 12 92  1  0  0  0
 13 14  1  0  0  0
 13 31  1  0  0  0
 14 15  2  0  0  0
 14 93  1  0  0  0
 15 94  1  0  0  0
 16 17  2  0  0  0
 16 21  1  0  0  0
 16 31  1  0  0  0
 17 18  1  0  0  0
 17 95  1  0  0  0
 18 19  2  0  0  0
 18 96  1  0  0  0
 19 20  1  0  0  0
 19 24  1  0  0  0
 20 21  2  0  0  0
 20 97  1  0  0  0
 21 23  1  0  0  0
 22 28  1  0  0  0
 22 32  2  0  0  0
 26 27  1  0  0  0
 28 98  1  0  0  0
 28 99  1  0  0  0
 29100  1  0  0  0
 29101  1  0  0  0
 33 34  1  0  0  0
 33 66  1  0  0  0
 33 70  2  0  0  0
 34 36  1  0  0  0
 34 59  1  0  0  0
 34102  1  0  0  0
 35 44  2  0  0  0
 35 45  1  0  0  0
 35 68  1  0  0  0
 36 56  1  0  0  0
 36103  1  0  0  0
 37 39  1  0  0  0
 37 47  1  0  0  0
 37 66  1  0  0  0
 37104  1  0  0  0
 38 43  2  0  0  0
 38 46  1  0  0  0
 38 47  1  0  0  0
 39 64  1  0  0  0
 39 67  2  0  0  0
 40 52  1  0  0  0
 40 53  2  0  0  0
 40 58  1  0  0  0
 41105  1  0  0  0
 41106  1  0  0  0
 41107  1  0  0  0
 41 48  1  0  0  0
 42 43  1  0  0  0
 42 66  1  0  0  0
 42108  1  0  0  0
 42109  1  0  0  0
 43 44  1  0  0  0
 44110  1  0  0  0
 45 46  2  0  0  0
 45111  1  0  0  0
 46112  1  0  0  0
 47113  1  0  0  0
 47114  1  0  0  0
 48 56  1  0  0  0
 48 65  1  0  0  0
 48115  1  0  0  0
 49 50  1  0  0  0
 49 53  1  0  0  0
 49 64  1  0  0  0
 49116  1  0  0  0
 50 51  1  0  0  0
 50117  1  0  0  0
 50118  1  0  0  0
 51 52  1  0  0  0
 51119  1  0  0  0
 51120  1  0  0  0
 52121  1  0  0  0
 52122  1  0  0  0
 53 54  1  0  0  0
 54 55  2  0  0  0
 54123  1  0  0  0
 55 57  1  0  0  0
 55124  1  0  0  0
 56 69  2  0  0  0
 57 58  2  0  0  0
 57125  1  0  0  0
 58126  1  0  0  0
 59 60  1  0  0  0
 59 61  1  0  0  0
 59 62  1  0  0  0
 60127  1  0  0  0
 60128  1  0  0  0
 60129  1  0  0  0
 61130  1  0  0  0
 61131  1  0  0  0
 61132  1  0  0  0
 62133  1  0  0  0
 62134  1  0  0  0
 62135  1  0  0  0
 63 65  1  0  0  0
 63136  1  0  0  0
 63137  1  0  0  0
 63138  1  0  0  0
 64139  1  0  0  0
 65140  1  0  0  0
 68 78  1  0  0  0
 71 72  2  0  0  0
 71 74  1  0  0  0
 71141  1  0  0  0
 72 75  1  0  0  0
 72142  1  0  0  0
 73 75  2  0  0  0
 73 76  1  0  0  0
 73143  1  0  0  0
 74 76  2  0  0  0
 74 77  1  0  0  0
 75 80  1  0  0  0
 76 81  1  0  0  0
 77144  1  0  0  0
 77145  1  0  0  0
 77146  1  0  0  0
 78 79  1  0  0  0
 78147  1  0  0  0
 78148  1  0  0  0
 79 81  1  0  0  0
 79149  1  0  0  0
 79150  1  0  0  0
 80151  1  0  0  0
M  ISO  4   1 100  68 101  78 101  80 100
M  END
> <chiral flag>
0

> <version>
0

> <s_m_source_file>
/data/baiqing/PycharmProjects/Reinvent-master-3.2/result/LINK_invent/BTK/process_docking_weight1_custom_sum_contain_oxygen_bond_distance_aromatic_linkinvent_7_9_3/rearranged_h_0008.sdf

> <i_m_source_file_index>
75

> <r_mmod_Potential_Energy-OPLS-2005>
662.726196289062

> <r_mmod_Stretch_Energy-OPLS-2005>
337.147094726562

> <r_mmod_Bend_Energy-OPLS-2005>
300.611724853516

> <r_mmod_Torsional_Energy-OPLS-2005>
210.337829589844

> <r_mmod_Improper_Torsional_Energy-OPLS-2005>
5.00403594970703

> <r_mmod_Van_der_Waal_Energy-OPLS-2005>
144.401229858398

> <r_mmod_Electrostatic_Energy-OPLS-2005>
-362.667816162109

> <r_mmod_Solvation_Energy-OPLS-2005>
-214.052856445312

> <b_mmod_Minimization_Converged-OPLS-2005>
0

> <r_mmod_RMS_Derivative-OPLS-2005>
0.631585478782654

$$$$
75
                    3D
 Structure written by MMmdl.
154162  0  0  1  0            999 V2000
  -30.5905  -14.7238   20.4238 C   0  0  0  0  0  0
  -30.4386  -12.4145   19.4921 C   0  0  0  0  0  0
  -29.5193  -12.4254   18.2505 C   0  0  0  0  0  0
  -28.0315  -12.3246   18.6444 C   0  0  0  0  0  0
  -27.6439  -13.2246   19.8490 C   0  0  2  0  0  0
  -28.6829  -13.1377   20.9857 C   0  0  0  0  0  0
  -25.2521  -13.8167   20.5704 C   0  0  0  0  0  0
  -24.1795  -13.0427   20.9222 C   0  0  0  0  0  0
  -24.6380  -11.6902   20.8759 C   0  0  0  0  0  0
  -23.9054  -10.4275   21.0417 C   0  0  0  0  0  0
  -24.3604   -9.4174   21.9183 C   0  0  0  0  0  0
  -23.6272   -8.2212   22.0720 C   0  0  0  0  0  0
  -22.4246   -8.0278   21.3519 C   0  0  0  0  0  0
  -21.9901   -9.0258   20.4611 C   0  0  0  0  0  0
  -22.7243  -10.2135   20.3042 C   0  0  0  0  0  0
  -21.6835   -6.0745   22.5290 C   0  0  0  0  0  0
  -21.4026   -6.5637   23.8238 C   0  0  0  0  0  0
  -21.3651   -5.6763   24.9188 C   0  0  0  0  0  0
  -21.6021   -4.3031   24.7225 C   0  0  0  0  0  0
  -21.8811   -3.8141   23.4337 C   0  0  0  0  0  0
  -21.9184   -4.6970   22.3399 C   0  0  0  0  0  0
  -22.7813  -13.5219   21.1898 C   0  0  0  0  0  0
  -22.1655   -4.2169   21.0980 F   0  0  0  0  0  0
  -21.5614   -3.4504   25.7733 F   0  0  0  0  0  0
  -29.9891  -13.4858   20.4123 N   0  0  0  0  0  0
  -26.2930  -12.9364   20.3247 N   0  0  0  0  0  0
  -25.9300  -11.6517   20.5720 N   0  0  0  0  0  0
  -22.0422  -12.8213   22.0438 N   0  0  0  0  0  0
  -25.4268  -15.1895   20.4204 N   0  0  0  0  0  0
  -31.7745  -14.8338   20.0878 O   0  0  0  0  0  0
  -21.6589   -6.8897   21.4251 O   0  0  0  0  0  0
  -22.3506  -14.5530   20.6759 O   0  0  0  0  0  0
  -24.6321  -31.8551   23.1988 C   0  0  0  0  0  0
  -25.9145  -32.4747   23.8334 C   0  0  1  0  0  0
  -27.2235  -27.2514   20.1214 C   0  0  0  0  0  0
  -25.5928  -33.8551   24.2259 N   0  0  0  0  0  0
  -23.4308  -30.4805   21.5406 C   0  0  2  0  0  0
  -24.8802  -28.9303   20.1054 C   0  0  0  0  0  0
  -22.7511  -29.4619   22.4871 C   0  0  0  0  0  0
  -18.0297  -28.1429   22.8466 C   0  0  0  0  0  0
  -24.1486  -36.7280   23.2643 C   0  0  0  0  0  0
  -25.9796  -30.7623   21.3856 C   0  0  0  0  0  0
  -26.0509  -29.3850   20.7245 C   0  0  0  0  0  0
  -27.2215  -28.5565   20.7279 C   0  0  0  0  0  0
  -26.0323  -26.8823   19.4525 C   0  0  0  0  0  0
  -24.8770  -27.6865   19.4590 C   0  0  0  0  0  0
  -23.6514  -29.8181   20.1550 C   0  0  0  0  0  0
  -25.4113  -36.3065   24.0332 C   0  0  1  0  0  0
  -20.5904  -28.3741   23.1242 C   0  0  2  0  0  0
  -20.6786  -26.9446   22.5411 C   0  0  0  0  0  0
  -19.5764  -26.6402   21.5213 C   0  0  0  0  0  0
  -18.1943  -26.7966   22.1617 C   0  0  0  0  0  0
  -19.1550  -28.8898   23.2854 C   0  0  0  0  0  0
  -18.9477  -30.1495   23.8875 C   0  0  0  0  0  0
  -17.6474  -30.6614   24.0575 C   0  0  0  0  0  0
  -25.9055  -34.9432   23.5099 C   0  0  0  0  0  0
  -16.5362  -29.9114   23.6340 C   0  0  0  0  0  0
  -16.7286  -28.6546   23.0330 C   0  0  0  0  0  0
  -26.4499  -31.6573   25.0730 C   0  0  0  0  0  0
  -25.3708  -31.3781   26.1452 C   0  0  0  0  0  0
  -27.0329  -30.2963   24.6269 C   0  0  0  0  0  0
  -27.6082  -32.4297   25.7467 C   0  0  0  0  0  0
  -27.5584  -37.1784   24.8458 C   0  0  0  0  0  0
  -21.4212  -29.3075   22.3616 N   0  0  0  0  0  0
  -26.4287  -37.3765   23.9411 N   0  0  0  0  0  0
  -24.7000  -31.0508   22.0972 N   0  0  0  0  0  0
  -23.4199  -28.8141   23.2970 O   0  0  0  0  0  0
  -28.3069  -26.3349   20.2018 O   0  0  0  0  0  0
  -26.5633  -34.8913   22.4671 O   0  0  0  0  0  0
  -23.5467  -32.1378   23.7263 O   0  0  0  0  0  0
  -29.7611  -19.7835   18.7076 C   0  0  0  0  0  0
  -29.9163  -18.5920   17.9746 C   0  0  0  0  0  0
  -29.6256  -18.4412   20.7301 C   0  0  0  0  0  0
  -29.5747  -19.7559   20.1009 C   0  0  0  0  0  0
  -29.9082  -17.3183   18.5904 C   0  0  0  0  0  0
  -29.8253  -17.1914   20.0089 C   0  0  0  0  0  0
  -28.9995  -23.7383   20.5133 C   0  0  0  0  0  0
  -29.9076  -16.1116   17.6669 C   0  0  0  0  0  0
  -29.3971  -21.1412   20.8685 C   0  0  0  0  0  0
  -28.0776  -24.8780   19.8549 C   0  0  0  0  0  0
  -29.8034  -15.8449   20.6479 N   0  0  0  0  0  0
  -28.8437  -22.3958   20.1836 N   0  0  0  0  0  0
  -29.8300  -24.0731   21.3611 O   0  0  0  0  0  0
  -31.4765  -12.5442   19.1789 H   0  0  0  0  0  0
  -30.4004  -11.4427   19.9872 H   0  0  0  0  0  0
  -29.7782  -11.5887   17.6002 H   0  0  0  0  0  0
  -29.6949  -13.3202   17.6595 H   0  0  0  0  0  0
  -27.8319  -11.2796   18.8862 H   0  0  0  0  0  0
  -27.4025  -12.5597   17.7860 H   0  0  0  0  0  0
  -27.6482  -14.2498   19.4798 H   0  0  0  0  0  0
  -28.7051  -12.1315   21.4079 H   0  0  0  0  0  0
  -28.4181  -13.8072   21.8051 H   0  0  0  0  0  0
  -25.2754   -9.5632   22.4753 H   0  0  0  0  0  0
  -23.9973   -7.4567   22.7404 H   0  0  0  0  0  0
  -21.0844   -8.8790   19.8890 H   0  0  0  0  0  0
  -22.3721  -10.9681   19.6137 H   0  0  0  0  0  0
  -21.2049   -7.6142   23.9779 H   0  0  0  0  0  0
  -21.1472   -6.0473   25.9103 H   0  0  0  0  0  0
  -22.0605   -2.7606   23.2810 H   0  0  0  0  0  0
  -22.4009  -11.9906   22.4908 H   0  0  0  0  0  0
  -21.1033  -13.1258   22.2596 H   0  0  0  0  0  0
  -24.6732  -15.8500   20.5725 H   0  0  0  0  0  0
  -26.2825  -15.6309   20.1103 H   0  0  0  0  0  0
  -26.7209  -32.5398   23.1075 H   0  0  0  0  0  0
  -25.0042  -33.9683   25.0380 H   0  0  0  0  0  0
  -22.7290  -31.3048   21.3944 H   0  0  0  0  0  0
  -23.3750  -35.9608   23.3292 H   0  0  0  0  0  0
  -24.3582  -36.8918   22.2061 H   0  0  0  0  0  0
  -23.7234  -37.6475   23.6678 H   0  0  0  0  0  0
  -26.1272  -31.5239   20.6186 H   0  0  0  0  0  0
  -26.8531  -30.8061   22.0247 H   0  0  0  0  0  0
  -28.1119  -28.8962   21.2380 H   0  0  0  0  0  0
  -25.9548  -25.9475   18.9189 H   0  0  0  0  0  0
  -23.9853  -27.3398   18.9550 H   0  0  0  0  0  0
  -23.7783  -30.5974   19.4026 H   0  0  0  0  0  0
  -22.7696  -29.2549   19.8460 H   0  0  0  0  0  0
  -25.1292  -36.1910   25.0824 H   0  0  0  0  0  0
  -21.0009  -28.3354   24.1358 H   0  0  0  0  0  0
  -20.5679  -26.2364   23.3637 H   0  0  0  0  0  0
  -21.6659  -26.7466   22.1216 H   0  0  0  0  0  0
  -19.6926  -25.6299   21.1280 H   0  0  0  0  0  0
  -19.6715  -27.3185   20.6721 H   0  0  0  0  0  0
  -17.4214  -26.6699   21.4023 H   0  0  0  0  0  0
  -18.0343  -26.0132   22.9036 H   0  0  0  0  0  0
  -19.7952  -30.7323   24.2226 H   0  0  0  0  0  0
  -17.5033  -31.6282   24.5196 H   0  0  0  0  0  0
  -15.5368  -30.3012   23.7685 H   0  0  0  0  0  0
  -15.8687  -28.0883   22.7020 H   0  0  0  0  0  0
  -24.5857  -30.7157   25.7789 H   0  0  0  0  0  0
  -24.8928  -32.2979   26.4834 H   0  0  0  0  0  0
  -25.7995  -30.8977   27.0255 H   0  0  0  0  0  0
  -26.2926  -29.6703   24.1275 H   0  0  0  0  0  0
  -27.3940  -29.7247   25.4830 H   0  0  0  0  0  0
  -27.8843  -30.4186   23.9570 H   0  0  0  0  0  0
  -27.2729  -33.3608   26.2041 H   0  0  0  0  0  0
  -28.3872  -32.6827   25.0263 H   0  0  0  0  0  0
  -28.0769  -31.8415   26.5366 H   0  0  0  0  0  0
  -28.2604  -38.0078   24.7496 H   0  0  0  0  0  0
  -28.1073  -36.2610   24.6275 H   0  0  0  0  0  0
  -27.2315  -37.1435   25.8866 H   0  0  0  0  0  0
  -20.9400  -29.8808   21.6823 H   0  0  0  0  0  0
  -26.0167  -38.2837   24.1417 H   0  0  0  0  0  0
  -29.7833  -20.7285   18.1827 H   0  0  0  0  0  0
  -30.0215  -18.6702   16.9008 H   0  0  0  0  0  0
  -29.5089  -18.3882   21.8041 H   0  0  0  0  0  0
  -29.7413  -16.3992   16.6292 H   0  0  0  0  0  0
  -29.0946  -15.4393   17.9390 H   0  0  0  0  0  0
  -30.8521  -15.5709   17.7071 H   0  0  0  0  0  0
  -30.3748  -21.3841   21.2870 H   0  0  0  0  0  0
  -28.7555  -20.9407   21.7277 H   0  0  0  0  0  0
  -27.0701  -24.5888   20.1526 H   0  0  0  0  0  0
  -28.1289  -24.7716   18.7702 H   0  0  0  0  0  0
  -28.9677  -15.6512   21.1798 H   0  0  0  0  0  0
  -28.1552  -22.2120   19.4668 H   0  0  0  0  0  0
  1 25  1  0  0  0
  1 30  2  0  0  0
  1 81  1  0  0  0
  2  3  1  0  0  0
  2 25  1  0  0  0
  2 84  1  0  0  0
  2 85  1  0  0  0
  3  4  1  0  0  0
  3 86  1  0  0  0
  3 87  1  0  0  0
  4  5  1  0  0  0
  4 88  1  0  0  0
  4 89  1  0  0  0
  5  6  1  0  0  0
  5 26  1  0  0  0
  5 90  1  0  0  0
  6 25  1  0  0  0
  6 91  1  0  0  0
  6 92  1  0  0  0
  7  8  2  0  0  0
  7 26  1  0  0  0
  7 29  1  0  0  0
  8  9  1  0  0  0
  8 22  1  0  0  0
  9 10  1  0  0  0
  9 27  2  0  0  0
 10 11  2  0  0  0
 10 15  1  0  0  0
 11 12  1  0  0  0
 11 93  1  0  0  0
 12 13  2  0  0  0
 12 94  1  0  0  0
 13 14  1  0  0  0
 13 31  1  0  0  0
 14 15  2  0  0  0
 14 95  1  0  0  0
 15 96  1  0  0  0
 16 17  2  0  0  0
 16 21  1  0  0  0
 16 31  1  0  0  0
 17 18  1  0  0  0
 17 97  1  0  0  0
 18 19  2  0  0  0
 18 98  1  0  0  0
 19 20  1  0  0  0
 19 24  1  0  0  0
 20 21  2  0  0  0
 20 99  1  0  0  0
 21 23  1  0  0  0
 22 28  1  0  0  0
 22 32  2  0  0  0
 26 27  1  0  0  0
 28100  1  0  0  0
 28101  1  0  0  0
 29102  1  0  0  0
 29103  1  0  0  0
 33 34  1  0  0  0
 33 66  1  0  0  0
 33 70  2  0  0  0
 34 36  1  0  0  0
 34 59  1  0  0  0
 34104  1  0  0  0
 35 44  2  0  0  0
 35 45  1  0  0  0
 35 68  1  0  0  0
 36 56  1  0  0  0
 36105  1  0  0  0
 37 39  1  0  0  0
 37 47  1  0  0  0
 37 66  1  0  0  0
 37106  1  0  0  0
 38 43  2  0  0  0
 38 46  1  0  0  0
 38 47  1  0  0  0
 39 64  1  0  0  0
 39 67  2  0  0  0
 40 52  1  0  0  0
 40 53  2  0  0  0
 40 58  1  0  0  0
 41107  1  0  0  0
 41108  1  0  0  0
 41109  1  0  0  0
 41 48  1  0  0  0
 42 43  1  0  0  0
 42 66  1  0  0  0
 42110  1  0  0  0
 42111  1  0  0  0
 43 44  1  0  0  0
 44112  1  0  0  0
 45 46  2  0  0  0
 45113  1  0  0  0
 46114  1  0  0  0
 47115  1  0  0  0
 47116  1  0  0  0
 48 56  1  0  0  0
 48 65  1  0  0  0
 48117  1  0  0  0
 49 50  1  0  0  0
 49 53  1  0  0  0
 49 64  1  0  0  0
 49118  1  0  0  0
 50 51  1  0  0  0
 50119  1  0  0  0
 50120  1  0  0  0
 51 52  1  0  0  0
 51121  1  0  0  0
 51122  1  0  0  0
 52123  1  0  0  0
 52124  1  0  0  0
 53 54  1  0  0  0
 54 55  2  0  0  0
 54125  1  0  0  0
 55 57  1  0  0  0
 55126  1  0  0  0
 56 69  2  0  0  0
 57 58  2  0  0  0
 57127  1  0  0  0
 58128  1  0  0  0
 59 60  1  0  0  0
 59 61  1  0  0  0
 59 62  1  0  0  0
 60129  1  0  0  0
 60130  1  0  0  0
 60131  1  0  0  0
 61132  1  0  0  0
 61133  1  0  0  0
 61134  1  0  0  0
 62135  1  0  0  0
 62136  1  0  0  0
 62137  1  0  0  0
 63 65  1  0  0  0
 63138  1  0  0  0
 63139  1  0  0  0
 63140  1  0  0  0
 64141  1  0  0  0
 65142  1  0  0  0
 68 80  1  0  0  0
 71 72  2  0  0  0
 71 74  1  0  0  0
 71143  1  0  0  0
 72 75  1  0  0  0
 72144  1  0  0  0
 73 74  2  0  0  0
 73 76  1  0  0  0
 73145  1  0  0  0
 74 79  1  0  0  0
 75 76  2  0  0  0
 75 78  1  0  0  0
 76 81  1  0  0  0
 77 80  1  0  0  0
 77 82  1  0  0  0
 77 83  2  0  0  0
 78146  1  0  0  0
 78147  1  0  0  0
 78148  1  0  0  0
 79 82  1  0  0  0
 79149  1  0  0  0
 79150  1  0  0  0
 80151  1  0  0  0
 80152  1  0  0  0
 81153  1  0  0  0
 82154  1  0  0  0
M  ISO  4   1 100  68 101  80 101  81 100
M  END
> <chiral flag>
0

> <version>
0

> <s_m_source_file>
/data/baiqing/PycharmProjects/Reinvent-master-3.2/result/LINK_invent/BTK/process_docking_weight1_custom_sum_contain_oxygen_bond_distance_aromatic_linkinvent_7_9_3/rearranged_h_0008.sdf

> <i_m_source_file_index>
76

> <r_mmod_Potential_Energy-OPLS-2005>
82.4742660522461

> <r_mmod_Stretch_Energy-OPLS-2005>
127.186416625977

> <r_mmod_Bend_Energy-OPLS-2005>
155.467315673828

> <r_mmod_Torsional_Energy-OPLS-2005>
240.650726318359

> <r_mmod_Improper_Torsional_Energy-OPLS-2005>
5.33831644058228

> <r_mmod_Van_der_Waal_Energy-OPLS-2005>
140.646057128906

> <r_mmod_Electrostatic_Energy-OPLS-2005>
-420.516448974609

> <r_mmod_Solvation_Energy-OPLS-2005>
-253.785736083984

> <b_mmod_Minimization_Converged-OPLS-2005>
0

> <r_mmod_RMS_Derivative-OPLS-2005>
2.67704463005066

$$$$
76
                    3D
 Structure written by MMmdl.
158166  0  0  1  0            999 V2000
  -30.5135  -15.0516   20.4331 C   0  0  0  0  0  0
  -30.4395  -12.6644   19.5074 C   0  0  0  0  0  0
  -29.5242  -12.5448   18.2637 C   0  0  0  0  0  0
  -28.0569  -12.3202   18.6749 C   0  0  0  0  0  0
  -27.6228  -13.2535   19.8341 C   0  0  2  0  0  0
  -28.6637  -13.2870   20.9684 C   0  0  0  0  0  0
  -25.2442  -13.8231   20.5727 C   0  0  0  0  0  0
  -24.1759  -13.0448   20.9228 C   0  0  0  0  0  0
  -24.6373  -11.6939   20.8742 C   0  0  0  0  0  0
  -23.9063  -10.4303   21.0399 C   0  0  0  0  0  0
  -24.3621   -9.4222   21.9175 C   0  0  0  0  0  0
  -23.6314   -8.2248   22.0744 C   0  0  0  0  0  0
  -22.4296   -8.0276   21.3537 C   0  0  0  0  0  0
  -21.9920   -9.0243   20.4637 C   0  0  0  0  0  0
  -22.7234  -10.2132   20.3049 C   0  0  0  0  0  0
  -21.6848   -6.0746   22.5287 C   0  0  0  0  0  0
  -21.4006   -6.5652   23.8220 C   0  0  0  0  0  0
  -21.3672   -5.6798   24.9182 C   0  0  0  0  0  0
  -21.6051   -4.3060   24.7217 C   0  0  0  0  0  0
  -21.8819   -3.8154   23.4338 C   0  0  0  0  0  0
  -21.9192   -4.6976   22.3403 C   0  0  0  0  0  0
  -22.7785  -13.5221   21.1896 C   0  0  0  0  0  0
  -22.1661   -4.2168   21.0977 F   0  0  0  0  0  0
  -21.5641   -3.4543   25.7728 F   0  0  0  0  0  0
  -29.9209  -13.7723   20.3757 N   0  0  0  0  0  0
  -26.2849  -12.9460   20.3225 N   0  0  0  0  0  0
  -25.9305  -11.6590   20.5712 N   0  0  0  0  0  0
  -22.0438  -12.8203   22.0448 N   0  0  0  0  0  0
  -25.4118  -15.1963   20.4210 N   0  0  0  0  0  0
  -31.7078  -15.0794   20.1092 O   0  0  0  0  0  0
  -21.6647   -6.8886   21.4249 O   0  0  0  0  0  0
  -22.3470  -14.5535   20.6750 O   0  0  0  0  0  0
  -24.6497  -31.8382   23.1822 C   0  0  0  0  0  0
  -25.9234  -32.4662   23.8242 C   0  0  1  0  0  0
  -27.2119  -27.0543   20.1692 C   0  0  0  0  0  0
  -25.5960  -33.8477   24.2155 N   0  0  0  0  0  0
  -23.4582  -30.4513   21.5308 C   0  0  2  0  0  0
  -24.9093  -28.8640   20.1159 C   0  0  0  0  0  0
  -22.7602  -29.4497   22.4861 C   0  0  0  0  0  0
  -18.0307  -28.1393   22.8479 C   0  0  0  0  0  0
  -24.1495  -36.7233   23.2643 C   0  0  0  0  0  0
  -26.0198  -30.6812   21.3983 C   0  0  0  0  0  0
  -26.0892  -29.2844   20.7430 C   0  0  0  0  0  0
  -27.2410  -28.3967   20.7515 C   0  0  0  0  0  0
  -26.0075  -26.7613   19.4932 C   0  0  0  0  0  0
  -24.8851  -27.6181   19.4738 C   0  0  0  0  0  0
  -23.6905  -29.7746   20.1538 C   0  0  0  0  0  0
  -25.4131  -36.3016   24.0314 C   0  0  1  0  0  0
  -20.5924  -28.3726   23.1236 C   0  0  2  0  0  0
  -20.6793  -26.9428   22.5410 C   0  0  0  0  0  0
  -19.5771  -26.6378   21.5217 C   0  0  0  0  0  0
  -18.1952  -26.7932   22.1619 C   0  0  0  0  0  0
  -19.1565  -28.8880   23.2840 C   0  0  0  0  0  0
  -18.9477  -30.1475   23.8873 C   0  0  0  0  0  0
  -17.6471  -30.6594   24.0556 C   0  0  0  0  0  0
  -25.9093  -34.9392   23.5051 C   0  0  0  0  0  0
  -16.5365  -29.9082   23.6336 C   0  0  0  0  0  0
  -16.7291  -28.6492   23.0375 C   0  0  0  0  0  0
  -26.4527  -31.6553   25.0716 C   0  0  0  0  0  0
  -25.3676  -31.3786   26.1386 C   0  0  0  0  0  0
  -27.0397  -30.2936   24.6362 C   0  0  0  0  0  0
  -27.6058  -32.4327   25.7496 C   0  0  0  0  0  0
  -27.5579  -37.1776   24.8465 C   0  0  0  0  0  0
  -21.4289  -29.3035   22.3607 N   0  0  0  0  0  0
  -26.4292  -37.3734   23.9405 N   0  0  0  0  0  0
  -24.7290  -31.0141   22.0912 N   0  0  0  0  0  0
  -23.4204  -28.8069   23.3061 O   0  0  0  0  0  0
  -28.2389  -26.0166   20.2030 O   0  0  0  0  0  0
  -26.5688  -34.8900   22.4636 O   0  0  0  0  0  0
  -23.5587  -32.1311   23.6972 O   0  0  0  0  0  0
  -29.7365  -19.0124   17.8950 C   0  0  0  0  0  0
  -29.3211  -19.0510   20.5842 C   0  0  0  0  0  0
  -29.8963  -17.7900   18.5947 C   0  0  0  0  0  0
  -29.7032  -17.6992   20.0039 C   0  0  0  0  0  0
  -29.1605  -20.3761   19.8729 C   0  0  0  0  0  0
  -29.3487  -20.2536   18.4723 C   0  0  0  0  0  0
  -28.8790  -23.1605   20.0388 C   0  0  0  0  0  0
  -30.1986  -16.5761   17.7262 C   0  0  0  0  0  0
  -29.2485  -16.3204   22.0770 C   0  0  0  0  0  0
  -28.9323  -21.1923   16.2812 C   0  0  0  0  0  0
  -27.8972  -24.4767   20.4353 C   0  0  0  0  0  0
  -28.6655  -21.7717   20.4011 N   0  0  0  0  0  0
  -29.7906  -16.2910   20.7158 N   0  0  0  0  0  0
  -29.9001  -23.4454   19.4061 O   0  0  0  0  0  0
  -29.0775  -21.3570   17.6885 O   0  0  0  0  0  0
  -31.4663  -12.8421   19.1844 H   0  0  0  0  0  0
  -30.4688  -11.7223   20.0582 H   0  0  0  0  0  0
  -29.8630  -11.7311   17.6209 H   0  0  0  0  0  0
  -29.5989  -13.4530   17.6652 H   0  0  0  0  0  0
  -27.9570  -11.2786   18.9831 H   0  0  0  0  0  0
  -27.3963  -12.4465   17.8156 H   0  0  0  0  0  0
  -27.5808  -14.2555   19.4069 H   0  0  0  0  0  0
  -28.7876  -12.2972   21.4105 H   0  0  0  0  0  0
  -28.3155  -13.9248   21.7767 H   0  0  0  0  0  0
  -25.2764   -9.5724   22.4747 H   0  0  0  0  0  0
  -24.0039   -7.4642   22.7460 H   0  0  0  0  0  0
  -21.0854   -8.8752   19.8941 H   0  0  0  0  0  0
  -22.3681  -10.9668   19.6163 H   0  0  0  0  0  0
  -21.1980   -7.6153   23.9737 H   0  0  0  0  0  0
  -21.1505   -6.0517   25.9092 H   0  0  0  0  0  0
  -22.0582   -2.7616   23.2821 H   0  0  0  0  0  0
  -22.4058  -11.9864   22.4842 H   0  0  0  0  0  0
  -21.1049  -13.1211   22.2653 H   0  0  0  0  0  0
  -24.6450  -15.8476   20.5467 H   0  0  0  0  0  0
  -26.2699  -15.6451   20.1252 H   0  0  0  0  0  0
  -26.7303  -32.5244   23.0968 H   0  0  0  0  0  0
  -25.0081  -33.9589   25.0283 H   0  0  0  0  0  0
  -22.7647  -31.2790   21.3687 H   0  0  0  0  0  0
  -23.3776  -35.9547   23.3295 H   0  0  0  0  0  0
  -24.3572  -36.8877   22.2059 H   0  0  0  0  0  0
  -23.7241  -37.6417   23.6693 H   0  0  0  0  0  0
  -26.1880  -31.4298   20.6231 H   0  0  0  0  0  0
  -26.8841  -30.7325   22.0485 H   0  0  0  0  0  0
  -28.1362  -28.7097   21.2701 H   0  0  0  0  0  0
  -25.9031  -25.8208   18.9745 H   0  0  0  0  0  0
  -23.9894  -27.2941   18.9622 H   0  0  0  0  0  0
  -23.8355  -30.5445   19.3957 H   0  0  0  0  0  0
  -22.8051  -29.2186   19.8407 H   0  0  0  0  0  0
  -25.1328  -36.1834   25.0810 H   0  0  0  0  0  0
  -20.9995  -28.3307   24.1365 H   0  0  0  0  0  0
  -20.5686  -26.2341   23.3630 H   0  0  0  0  0  0
  -21.6661  -26.7441   22.1213 H   0  0  0  0  0  0
  -19.6942  -25.6280   21.1273 H   0  0  0  0  0  0
  -19.6713  -27.3166   20.6731 H   0  0  0  0  0  0
  -17.4228  -26.6683   21.4015 H   0  0  0  0  0  0
  -18.0344  -26.0071   22.9010 H   0  0  0  0  0  0
  -19.7956  -30.7291   24.2235 H   0  0  0  0  0  0
  -17.5032  -31.6276   24.5155 H   0  0  0  0  0  0
  -15.5366  -30.2980   23.7677 H   0  0  0  0  0  0
  -15.8687  -28.0792   22.7131 H   0  0  0  0  0  0
  -24.5881  -30.7106   25.7698 H   0  0  0  0  0  0
  -24.8825  -32.2979   26.4685 H   0  0  0  0  0  0
  -25.7914  -30.9044   27.0248 H   0  0  0  0  0  0
  -26.3034  -29.6649   24.1349 H   0  0  0  0  0  0
  -27.3949  -29.7255   25.4967 H   0  0  0  0  0  0
  -27.8970  -30.4144   23.9743 H   0  0  0  0  0  0
  -27.2670  -33.3671   26.1987 H   0  0  0  0  0  0
  -28.3910  -32.6816   25.0342 H   0  0  0  0  0  0
  -28.0685  -31.8506   26.5477 H   0  0  0  0  0  0
  -28.2594  -38.0073   24.7510 H   0  0  0  0  0  0
  -28.1080  -36.2607   24.6300 H   0  0  0  0  0  0
  -27.2300  -37.1428   25.8868 H   0  0  0  0  0  0
  -20.9524  -29.8713   21.6744 H   0  0  0  0  0  0
  -26.0157  -38.2804   24.1393 H   0  0  0  0  0  0
  -29.8832  -18.9663   16.8282 H   0  0  0  0  0  0
  -29.1143  -19.0847   21.6425 H   0  0  0  0  0  0
  -30.1161  -16.8061   16.6634 H   0  0  0  0  0  0
  -29.4890  -15.7738   17.9215 H   0  0  0  0  0  0
  -31.2144  -16.2178   17.8866 H   0  0  0  0  0  0
  -29.5604  -17.2158   22.6115 H   0  0  0  0  0  0
  -29.5792  -15.4886   22.7033 H   0  0  0  0  0  0
  -28.1587  -16.3093   22.0418 H   0  0  0  0  0  0
  -28.5718  -22.1217   15.8408 H   0  0  0  0  0  0
  -28.2050  -20.4149   16.0386 H   0  0  0  0  0  0
  -29.8849  -20.9571   15.8059 H   0  0  0  0  0  0
  -27.6776  -24.3763   21.4984 H   0  0  0  0  0  0
  -26.9572  -24.2526   19.9367 H   0  0  0  0  0  0
  -27.9477  -21.6892   21.1085 H   0  0  0  0  0  0
  1 25  1  0  0  0
  1 30  2  0  0  0
  1 83  1  0  0  0
  2  3  1  0  0  0
  2 25  1  0  0  0
  2 86  1  0  0  0
  2 87  1  0  0  0
  3  4  1  0  0  0
  3 88  1  0  0  0
  3 89  1  0  0  0
  4  5  1  0  0  0
  4 90  1  0  0  0
  4 91  1  0  0  0
  5  6  1  0  0  0
  5 26  1  0  0  0
  5 92  1  0  0  0
  6 25  1  0  0  0
  6 93  1  0  0  0
  6 94  1  0  0  0
  7  8  2  0  0  0
  7 26  1  0  0  0
  7 29  1  0  0  0
  8  9  1  0  0  0
  8 22  1  0  0  0
  9 10  1  0  0  0
  9 27  2  0  0  0
 10 11  2  0  0  0
 10 15  1  0  0  0
 11 12  1  0  0  0
 11 95  1  0  0  0
 12 13  2  0  0  0
 12 96  1  0  0  0
 13 14  1  0  0  0
 13 31  1  0  0  0
 14 15  2  0  0  0
 14 97  1  0  0  0
 15 98  1  0  0  0
 16 17  2  0  0  0
 16 21  1  0  0  0
 16 31  1  0  0  0
 17 18  1  0  0  0
 17 99  1  0  0  0
 18 19  2  0  0  0
 18100  1  0  0  0
 19 20  1  0  0  0
 19 24  1  0  0  0
 20 21  2  0  0  0
 20101  1  0  0  0
 21 23  1  0  0  0
 22 28  1  0  0  0
 22 32  2  0  0  0
 26 27  1  0  0  0
 28102  1  0  0  0
 28103  1  0  0  0
 29104  1  0  0  0
 29105  1  0  0  0
 33 34  1  0  0  0
 33 66  1  0  0  0
 33 70  2  0  0  0
 34 36  1  0  0  0
 34 59  1  0  0  0
 34106  1  0  0  0
 35 44  2  0  0  0
 35 45  1  0  0  0
 35 68  1  0  0  0
 36 56  1  0  0  0
 36107  1  0  0  0
 37 39  1  0  0  0
 37 47  1  0  0  0
 37 66  1  0  0  0
 37108  1  0  0  0
 38 43  2  0  0  0
 38 46  1  0  0  0
 38 47  1  0  0  0
 39 64  1  0  0  0
 39 67  2  0  0  0
 40 52  1  0  0  0
 40 53  2  0  0  0
 40 58  1  0  0  0
 41109  1  0  0  0
 41110  1  0  0  0
 41111  1  0  0  0
 41 48  1  0  0  0
 42 43  1  0  0  0
 42 66  1  0  0  0
 42112  1  0  0  0
 42113  1  0  0  0
 43 44  1  0  0  0
 44114  1  0  0  0
 45 46  2  0  0  0
 45115  1  0  0  0
 46116  1  0  0  0
 47117  1  0  0  0
 47118  1  0  0  0
 48 56  1  0  0  0
 48 65  1  0  0  0
 48119  1  0  0  0
 49 50  1  0  0  0
 49 53  1  0  0  0
 49 64  1  0  0  0
 49120  1  0  0  0
 50 51  1  0  0  0
 50121  1  0  0  0
 50122  1  0  0  0
 51 52  1  0  0  0
 51123  1  0  0  0
 51124  1  0  0  0
 52125  1  0  0  0
 52126  1  0  0  0
 53 54  1  0  0  0
 54 55  2  0  0  0
 54127  1  0  0  0
 55 57  1  0  0  0
 55128  1  0  0  0
 56 69  2  0  0  0
 57 58  2  0  0  0
 57129  1  0  0  0
 58130  1  0  0  0
 59 60  1  0  0  0
 59 61  1  0  0  0
 59 62  1  0  0  0
 60131  1  0  0  0
 60132  1  0  0  0
 60133  1  0  0  0
 61134  1  0  0  0
 61135  1  0  0  0
 61136  1  0  0  0
 62137  1  0  0  0
 62138  1  0  0  0
 62139  1  0  0  0
 63 65  1  0  0  0
 63140  1  0  0  0
 63141  1  0  0  0
 63142  1  0  0  0
 64143  1  0  0  0
 65144  1  0  0  0
 68 81  1  0  0  0
 71 73  2  0  0  0
 71 76  1  0  0  0
 71145  1  0  0  0
 72 74  2  0  0  0
 72 75  1  0  0  0
 72146  1  0  0  0
 73 74  1  0  0  0
 73 78  1  0  0  0
 74 83  1  0  0  0
 75 76  2  0  0  0
 75 82  1  0  0  0
 76 85  1  0  0  0
 77 81  1  0  0  0
 77 82  1  0  0  0
 77 84  2  0  0  0
 78147  1  0  0  0
 78148  1  0  0  0
 78149  1  0  0  0
 79 83  1  0  0  0
 79150  1  0  0  0
 79151  1  0  0  0
 79152  1  0  0  0
 80 85  1  0  0  0
 80153  1  0  0  0
 80154  1  0  0  0
 80155  1  0  0  0
 81156  1  0  0  0
 81157  1  0  0  0
 82158  1  0  0  0
M  ISO  4   1 100  68 101  81 101  83 100
M  END
> <chiral flag>
0

> <version>
0

> <s_m_source_file>
/data/baiqing/PycharmProjects/Reinvent-master-3.2/result/LINK_invent/BTK/process_docking_weight1_custom_sum_contain_oxygen_bond_distance_aromatic_linkinvent_7_9_3/rearranged_h_0008.sdf

> <i_m_source_file_index>
77

> <r_mmod_Potential_Energy-OPLS-2005>
840.755310058594

> <r_mmod_Stretch_Energy-OPLS-2005>
369.819549560547

> <r_mmod_Bend_Energy-OPLS-2005>
300.438171386719

> <r_mmod_Torsional_Energy-OPLS-2005>
312.742218017578

> <r_mmod_Improper_Torsional_Energy-OPLS-2005>
4.45693492889404

> <r_mmod_Van_der_Waal_Energy-OPLS-2005>
152.657119750977

> <r_mmod_Electrostatic_Energy-OPLS-2005>
-321.417694091797

> <r_mmod_Solvation_Energy-OPLS-2005>
-243.160095214844

> <b_mmod_Minimization_Converged-OPLS-2005>
0

> <r_mmod_RMS_Derivative-OPLS-2005>
1.71290111541748

$$$$
77
                    3D
 Structure written by MMmdl.
172180  0  0  1  0            999 V2000
  -30.7787  -14.3727   20.6989 C   0  0  0  0  0  0
  -30.4178  -12.3039   19.3962 C   0  0  0  0  0  0
  -29.4849  -12.5316   18.1931 C   0  0  0  0  0  0
  -28.0109  -12.3797   18.6115 C   0  0  0  0  0  0
  -27.6653  -13.2048   19.8790 C   0  0  2  0  0  0
  -28.7043  -12.9577   20.9951 C   0  0  0  0  0  0
  -25.2598  -13.8155   20.5680 C   0  0  0  0  0  0
  -24.1845  -13.0442   20.9167 C   0  0  0  0  0  0
  -24.6392  -11.6903   20.8716 C   0  0  0  0  0  0
  -23.9059  -10.4296   21.0388 C   0  0  0  0  0  0
  -24.3609   -9.4213   21.9175 C   0  0  0  0  0  0
  -23.6286   -8.2249   22.0749 C   0  0  0  0  0  0
  -22.4270   -8.0282   21.3540 C   0  0  0  0  0  0
  -21.9906   -9.0253   20.4638 C   0  0  0  0  0  0
  -22.7231  -10.2134   20.3043 C   0  0  0  0  0  0
  -21.6854   -6.0737   22.5279 C   0  0  0  0  0  0
  -21.4012   -6.5637   23.8213 C   0  0  0  0  0  0
  -21.3658   -5.6787   24.9177 C   0  0  0  0  0  0
  -21.6046   -4.3051   24.7225 C   0  0  0  0  0  0
  -21.8821   -3.8144   23.4343 C   0  0  0  0  0  0
  -21.9193   -4.6964   22.3402 C   0  0  0  0  0  0
  -22.7867  -13.5239   21.1834 C   0  0  0  0  0  0
  -22.1662   -4.2151   21.0978 F   0  0  0  0  0  0
  -21.5631   -3.4535   25.7733 F   0  0  0  0  0  0
  -30.0450  -13.2540   20.4560 N   0  0  0  0  0  0
  -26.3037  -12.9327   20.3368 N   0  0  0  0  0  0
  -25.9317  -11.6487   20.5749 N   0  0  0  0  0  0
  -22.0498  -12.8229   22.0380 N   0  0  0  0  0  0
  -25.4328  -15.1880   20.4096 N   0  0  0  0  0  0
  -31.8118  -14.6435   20.0779 O   0  0  0  0  0  0
  -21.6637   -6.8880   21.4241 O   0  0  0  0  0  0
  -22.3563  -14.5554   20.6699 O   0  0  0  0  0  0
  -24.6149  -31.8713   23.2126 C   0  0  0  0  0  0
  -25.9055  -32.4842   23.8414 C   0  0  1  0  0  0
  -27.2188  -27.4369   20.0747 C   0  0  0  0  0  0
  -25.5925  -33.8649   24.2335 N   0  0  0  0  0  0
  -23.4003  -30.4984   21.5548 C   0  0  2  0  0  0
  -24.8402  -28.9731   20.1094 C   0  0  0  0  0  0
  -22.7405  -29.4680   22.4998 C   0  0  0  0  0  0
  -18.0271  -28.1345   22.8462 C   0  0  0  0  0  0
  -24.1508  -36.7330   23.2628 C   0  0  0  0  0  0
  -25.9321  -30.8326   21.3715 C   0  0  0  0  0  0
  -26.0039  -29.4708   20.7105 C   0  0  0  0  0  0
  -27.1917  -28.7052   20.6988 C   0  0  0  0  0  0
  -26.0380  -26.9718   19.4456 C   0  0  0  0  0  0
  -24.8508  -27.7197   19.4795 C   0  0  0  0  0  0
  -23.6053  -29.8405   20.1667 C   0  0  0  0  0  0
  -25.4130  -36.3132   24.0321 C   0  0  1  0  0  0
  -20.5860  -28.3658   23.1300 C   0  0  2  0  0  0
  -20.6784  -26.9400   22.5397 C   0  0  0  0  0  0
  -19.5768  -26.6360   21.5186 C   0  0  0  0  0  0
  -18.1936  -26.7896   22.1583 C   0  0  0  0  0  0
  -19.1519  -28.8809   23.2879 C   0  0  0  0  0  0
  -18.9454  -30.1412   23.8888 C   0  0  0  0  0  0
  -17.6467  -30.6561   24.0542 C   0  0  0  0  0  0
  -25.9043  -34.9495   23.5114 C   0  0  0  0  0  0
  -16.5352  -29.9058   23.6318 C   0  0  0  0  0  0
  -16.7261  -28.6472   23.0330 C   0  0  0  0  0  0
  -26.4468  -31.6632   25.0748 C   0  0  0  0  0  0
  -25.3717  -31.3753   26.1488 C   0  0  0  0  0  0
  -27.0329  -30.3078   24.6148 C   0  0  0  0  0  0
  -27.6030  -32.4382   25.7510 C   0  0  0  0  0  0
  -27.5611  -37.1821   24.8439 C   0  0  0  0  0  0
  -21.4136  -29.3045   22.3730 N   0  0  0  0  0  0
  -26.4319  -37.3811   23.9387 N   0  0  0  0  0  0
  -24.6675  -31.0798   22.1043 N   0  0  0  0  0  0
  -23.4178  -28.8220   23.3038 O   0  0  0  0  0  0
  -28.3840  -26.6928   20.1254 O   0  0  0  0  0  0
  -26.5582  -34.8925   22.4662 O   0  0  0  0  0  0
  -23.5343  -32.1489   23.7501 O   0  0  0  0  0  0
  -32.9351  -17.2174   23.3868 C   0  0  0  0  0  0
  -32.2125  -18.3899   23.6749 C   0  0  0  0  0  0
  -32.3168  -16.1557   22.7005 C   0  0  0  0  0  0
  -30.2439  -17.4395   22.5882 C   0  0  0  0  0  0
  -30.8647  -18.5118   23.2739 C   0  0  0  0  0  0
  -30.9659  -16.2602   22.2939 C   0  0  0  0  0  0
  -28.0850  -21.9084   24.3153 C   0  0  0  0  0  0
  -29.3572  -21.1220   26.3865 C   0  0  0  0  0  0
  -27.0630  -20.2695   25.9062 C   0  0  0  0  0  0
  -30.1023  -19.7972   23.5762 C   0  0  0  0  0  0
  -28.0575  -23.4161   21.4247 C   0  0  0  0  0  0
  -27.4131  -24.3912   20.4286 C   0  0  0  0  0  0
  -26.9610  -22.7036   22.2445 C   0  0  0  0  0  0
  -28.3691  -25.3359   19.6522 C   0  0  0  0  0  0
  -28.3931  -20.7002   25.2486 C   0  0  0  0  0  0
  -30.2964  -15.1787   21.6603 N   0  0  0  0  0  0
  -27.4695  -21.6730   23.1452 N   0  0  0  0  0  0
  -28.9717  -19.5436   24.5008 N   0  3  0  0  0  0
  -28.3807  -23.0538   24.6628 O   0  0  0  0  0  0
  -31.4601  -12.4065   19.0886 H   0  0  0  0  0  0
  -30.3210  -11.2821   19.7667 H   0  0  0  0  0  0
  -29.7213  -11.8287   17.3937 H   0  0  0  0  0  0
  -29.6497  -13.5292   17.7832 H   0  0  0  0  0  0
  -27.8238  -11.3208   18.7951 H   0  0  0  0  0  0
  -27.3552  -12.6645   17.7875 H   0  0  0  0  0  0
  -27.7197  -14.2574   19.6005 H   0  0  0  0  0  0
  -28.6716  -11.9154   21.3170 H   0  0  0  0  0  0
  -28.4477  -13.5371   21.8819 H   0  0  0  0  0  0
  -25.2760   -9.5696   22.4744 H   0  0  0  0  0  0
  -24.0002   -7.4644   22.7471 H   0  0  0  0  0  0
  -21.0843   -8.8765   19.8940 H   0  0  0  0  0  0
  -22.3691  -10.9666   19.6145 H   0  0  0  0  0  0
  -21.2000   -7.6144   23.9719 H   0  0  0  0  0  0
  -21.1478   -6.0514   25.9077 H   0  0  0  0  0  0
  -22.0600   -2.7608   23.2842 H   0  0  0  0  0  0
  -22.4096  -11.9870   22.4749 H   0  0  0  0  0  0
  -21.1112  -13.1252   22.2570 H   0  0  0  0  0  0
  -24.6647  -15.8430   20.5074 H   0  0  0  0  0  0
  -26.2893  -15.6255   20.0922 H   0  0  0  0  0  0
  -26.7125  -32.5537   23.1179 H   0  0  0  0  0  0
  -25.0134  -33.9819   25.0523 H   0  0  0  0  0  0
  -22.6888  -31.3152   21.4199 H   0  0  0  0  0  0
  -23.3778  -35.9655   23.3278 H   0  0  0  0  0  0
  -24.3609  -36.8966   22.2047 H   0  0  0  0  0  0
  -23.7253  -37.6524   23.6659 H   0  0  0  0  0  0
  -26.0502  -31.6036   20.6096 H   0  0  0  0  0  0
  -26.8186  -30.8767   21.9924 H   0  0  0  0  0  0
  -28.0876  -29.0757   21.1780 H   0  0  0  0  0  0
  -25.9949  -26.0233   18.9338 H   0  0  0  0  0  0
  -23.9563  -27.3300   19.0128 H   0  0  0  0  0  0
  -23.7178  -30.6220   19.4140 H   0  0  0  0  0  0
  -22.7271  -29.2668   19.8662 H   0  0  0  0  0  0
  -25.1323  -36.2005   25.0816 H   0  0  0  0  0  0
  -20.9921  -28.3217   24.1432 H   0  0  0  0  0  0
  -20.5713  -26.2262   23.3586 H   0  0  0  0  0  0
  -21.6661  -26.7479   22.1191 H   0  0  0  0  0  0
  -19.6969  -25.6264   21.1234 H   0  0  0  0  0  0
  -19.6718  -27.3145   20.6698 H   0  0  0  0  0  0
  -17.4236  -26.6624   21.3961 H   0  0  0  0  0  0
  -18.0326  -26.0019   22.8955 H   0  0  0  0  0  0
  -19.7939  -30.7197   24.2271 H   0  0  0  0  0  0
  -17.5036  -31.6241   24.5143 H   0  0  0  0  0  0
  -15.5352  -30.2964   23.7654 H   0  0  0  0  0  0
  -15.8654  -28.0796   22.7054 H   0  0  0  0  0  0
  -24.5895  -30.7082   25.7842 H   0  0  0  0  0  0
  -24.8883  -32.2912   26.4904 H   0  0  0  0  0  0
  -25.8061  -30.8968   27.0275 H   0  0  0  0  0  0
  -26.2905  -29.6808   24.1187 H   0  0  0  0  0  0
  -27.4087  -29.7338   25.4635 H   0  0  0  0  0  0
  -27.8739  -30.4399   23.9330 H   0  0  0  0  0  0
  -27.2636  -33.3683   26.2079 H   0  0  0  0  0  0
  -28.3835  -32.6962   25.0342 H   0  0  0  0  0  0
  -28.0702  -31.8530   26.5433 H   0  0  0  0  0  0
  -28.2598  -38.0155   24.7567 H   0  0  0  0  0  0
  -28.1158  -36.2693   24.6202 H   0  0  0  0  0  0
  -27.2318  -37.1374   25.8835 H   0  0  0  0  0  0
  -20.9292  -29.8813   21.7001 H   0  0  0  0  0  0
  -26.0220  -38.2897   24.1386 H   0  0  0  0  0  0
  -33.9674  -17.1301   23.6980 H   0  0  0  0  0  0
  -32.7056  -19.1965   24.2021 H   0  0  0  0  0  0
  -32.8870  -15.2584   22.5045 H   0  0  0  0  0  0
  -29.2114  -17.5225   22.2788 H   0  0  0  0  0  0
  -28.8931  -21.8637   27.0385 H   0  0  0  0  0  0
  -30.2788  -21.5656   26.0092 H   0  0  0  0  0  0
  -29.6313  -20.2770   27.0192 H   0  0  0  0  0  0
  -26.5886  -21.1071   26.4212 H   0  0  0  0  0  0
  -27.2139  -19.4863   26.6484 H   0  0  0  0  0  0
  -26.3418  -19.8968   25.1774 H   0  0  0  0  0  0
  -29.7524  -20.2289   22.6381 H   0  0  0  0  0  0
  -30.7909  -20.5236   24.0105 H   0  0  0  0  0  0
  -28.7306  -23.9591   22.0875 H   0  0  0  0  0  0
  -28.6627  -22.6870   20.8844 H   0  0  0  0  0  0
  -26.6638  -24.9674   20.9698 H   0  0  0  0  0  0
  -26.8523  -23.8022   19.7010 H   0  0  0  0  0  0
  -26.2463  -22.2306   21.5693 H   0  0  0  0  0  0
  -26.3868  -23.4359   22.8184 H   0  0  0  0  0  0
  -28.1148  -25.3358   18.5908 H   0  0  0  0  0  0
  -29.3859  -24.9450   19.6982 H   0  0  0  0  0  0
  -29.3687  -14.9594   21.9899 H   0  0  0  0  0  0
  -27.1871  -20.7285   22.9260 H   0  0  0  0  0  0
  -29.2994  -18.8786   25.1807 H   0  0  0  0  0  0
  -28.2449  -19.0864   23.9776 H   0  0  0  0  0  0
  1 25  1  0  0  0
  1 30  2  0  0  0
  1 86  1  0  0  0
  2  3  1  0  0  0
  2 25  1  0  0  0
  2 90  1  0  0  0
  2 91  1  0  0  0
  3  4  1  0  0  0
  3 92  1  0  0  0
  3 93  1  0  0  0
  4  5  1  0  0  0
  4 94  1  0  0  0
  4 95  1  0  0  0
  5  6  1  0  0  0
  5 26  1  0  0  0
  5 96  1  0  0  0
  6 25  1  0  0  0
  6 97  1  0  0  0
  6 98  1  0  0  0
  7  8  2  0  0  0
  7 26  1  0  0  0
  7 29  1  0  0  0
  8  9  1  0  0  0
  8 22  1  0  0  0
  9 10  1  0  0  0
  9 27  2  0  0  0
 10 11  2  0  0  0
 10 15  1  0  0  0
 11 12  1  0  0  0
 11 99  1  0  0  0
 12 13  2  0  0  0
 12100  1  0  0  0
 13 14  1  0  0  0
 13 31  1  0  0  0
 14 15  2  0  0  0
 14101  1  0  0  0
 15102  1  0  0  0
 16 17  2  0  0  0
 16 21  1  0  0  0
 16 31  1  0  0  0
 17 18  1  0  0  0
 17103  1  0  0  0
 18 19  2  0  0  0
 18104  1  0  0  0
 19 20  1  0  0  0
 19 24  1  0  0  0
 20 21  2  0  0  0
 20105  1  0  0  0
 21 23  1  0  0  0
 22 28  1  0  0  0
 22 32  2  0  0  0
 26 27  1  0  0  0
 28106  1  0  0  0
 28107  1  0  0  0
 29108  1  0  0  0
 29109  1  0  0  0
 33 34  1  0  0  0
 33 66  1  0  0  0
 33 70  2  0  0  0
 34 36  1  0  0  0
 34 59  1  0  0  0
 34110  1  0  0  0
 35 44  2  0  0  0
 35 45  1  0  0  0
 35 68  1  0  0  0
 36 56  1  0  0  0
 36111  1  0  0  0
 37 39  1  0  0  0
 37 47  1  0  0  0
 37 66  1  0  0  0
 37112  1  0  0  0
 38 43  2  0  0  0
 38 46  1  0  0  0
 38 47  1  0  0  0
 39 64  1  0  0  0
 39 67  2  0  0  0
 40 52  1  0  0  0
 40 53  2  0  0  0
 40 58  1  0  0  0
 41113  1  0  0  0
 41114  1  0  0  0
 41115  1  0  0  0
 41 48  1  0  0  0
 42 43  1  0  0  0
 42 66  1  0  0  0
 42116  1  0  0  0
 42117  1  0  0  0
 43 44  1  0  0  0
 44118  1  0  0  0
 45 46  2  0  0  0
 45119  1  0  0  0
 46120  1  0  0  0
 47121  1  0  0  0
 47122  1  0  0  0
 48 56  1  0  0  0
 48 65  1  0  0  0
 48123  1  0  0  0
 49 50  1  0  0  0
 49 53  1  0  0  0
 49 64  1  0  0  0
 49124  1  0  0  0
 50 51  1  0  0  0
 50125  1  0  0  0
 50126  1  0  0  0
 51 52  1  0  0  0
 51127  1  0  0  0
 51128  1  0  0  0
 52129  1  0  0  0
 52130  1  0  0  0
 53 54  1  0  0  0
 54 55  2  0  0  0
 54131  1  0  0  0
 55 57  1  0  0  0
 55132  1  0  0  0
 56 69  2  0  0  0
 57 58  2  0  0  0
 57133  1  0  0  0
 58134  1  0  0  0
 59 60  1  0  0  0
 59 61  1  0  0  0
 59 62  1  0  0  0
 60135  1  0  0  0
 60136  1  0  0  0
 60137  1  0  0  0
 61138  1  0  0  0
 61139  1  0  0  0
 61140  1  0  0  0
 62141  1  0  0  0
 62142  1  0  0  0
 62143  1  0  0  0
 63 65  1  0  0  0
 63144  1  0  0  0
 63145  1  0  0  0
 63146  1  0  0  0
 64147  1  0  0  0
 65148  1  0  0  0
 68 84  1  0  0  0
 71 72  2  0  0  0
 71 73  1  0  0  0
 71149  1  0  0  0
 72 75  1  0  0  0
 72150  1  0  0  0
 73 76  2  0  0  0
 73151  1  0  0  0
 74 75  2  0  0  0
 74 76  1  0  0  0
 74152  1  0  0  0
 75 80  1  0  0  0
 76 86  1  0  0  0
 77 85  1  0  0  0
 77 87  1  0  0  0
 77 89  2  0  0  0
 78153  1  0  0  0
 78154  1  0  0  0
 78155  1  0  0  0
 78 85  1  0  0  0
 79 85  1  0  0  0
 79156  1  0  0  0
 79157  1  0  0  0
 79158  1  0  0  0
 80 88  1  0  0  0
 80159  1  0  0  0
 80160  1  0  0  0
 81 82  1  0  0  0
 81 83  1  0  0  0
 81161  1  0  0  0
 81162  1  0  0  0
 82 84  1  0  0  0
 82163  1  0  0  0
 82164  1  0  0  0
 83 87  1  0  0  0
 83165  1  0  0  0
 83166  1  0  0  0
 84167  1  0  0  0
 84168  1  0  0  0
 85 88  1  0  0  0
 86169  1  0  0  0
 87170  1  0  0  0
 88171  1  0  0  0
 88172  1  0  0  0
M  CHG  1  88   1
M  ISO  4   1 100  68 101  84 101  86 100
M  END
> <chiral flag>
0

> <version>
0

> <s_m_source_file>
/data/baiqing/PycharmProjects/Reinvent-master-3.2/result/LINK_invent/BTK/process_docking_weight1_custom_sum_contain_oxygen_bond_distance_aromatic_linkinvent_7_9_3/rearranged_h_0008.sdf

> <i_m_source_file_index>
78

> <r_mmod_Potential_Energy-OPLS-2005>
-348.708557128906

> <r_mmod_Stretch_Energy-OPLS-2005>
37.921272277832

> <r_mmod_Bend_Energy-OPLS-2005>
105.536125183105

> <r_mmod_Torsional_Energy-OPLS-2005>
225.551696777344

> <r_mmod_Improper_Torsional_Energy-OPLS-2005>
2.07348155975342

> <r_mmod_Van_der_Waal_Energy-OPLS-2005>
170.393524169922

> <r_mmod_Electrostatic_Energy-OPLS-2005>
-389.023040771484

> <r_mmod_Solvation_Energy-OPLS-2005>
-511.890716552734

> <b_mmod_Minimization_Converged-OPLS-2005>
0

> <r_mmod_RMS_Derivative-OPLS-2005>
1.78260457515717

$$$$
78
                    3D
 Structure written by MMmdl.
168176  0  0  1  0            999 V2000
  -30.5117  -14.9581   20.4225 C   0  0  0  0  0  0
  -30.4449  -12.5921   19.5008 C   0  0  0  0  0  0
  -29.5303  -12.5541   18.2550 C   0  0  0  0  0  0
  -28.0606  -12.3321   18.6617 C   0  0  0  0  0  0
  -27.6332  -13.2468   19.8408 C   0  0  2  0  0  0
  -28.6744  -13.2477   20.9802 C   0  0  0  0  0  0
  -25.2456  -13.8204   20.5663 C   0  0  0  0  0  0
  -24.1786  -13.0420   20.9213 C   0  0  0  0  0  0
  -24.6404  -11.6906   20.8720 C   0  0  0  0  0  0
  -23.9088  -10.4276   21.0371 C   0  0  0  0  0  0
  -24.3637   -9.4200   21.9149 C   0  0  0  0  0  0
  -23.6315   -8.2237   22.0730 C   0  0  0  0  0  0
  -22.4292   -8.0264   21.3535 C   0  0  0  0  0  0
  -21.9926   -9.0230   20.4625 C   0  0  0  0  0  0
  -22.7255  -10.2109   20.3026 C   0  0  0  0  0  0
  -21.6854   -6.0728   22.5277 C   0  0  0  0  0  0
  -21.4016   -6.5631   23.8212 C   0  0  0  0  0  0
  -21.3673   -5.6777   24.9174 C   0  0  0  0  0  0
  -21.6055   -4.3041   24.7220 C   0  0  0  0  0  0
  -21.8818   -3.8135   23.4345 C   0  0  0  0  0  0
  -21.9205   -4.6958   22.3401 C   0  0  0  0  0  0
  -22.7810  -13.5193   21.1882 C   0  0  0  0  0  0
  -22.1655   -4.2141   21.0982 F   0  0  0  0  0  0
  -21.5645   -3.4531   25.7740 F   0  0  0  0  0  0
  -29.9551  -13.6774   20.3975 N   0  0  0  0  0  0
  -26.2886  -12.9429   20.3191 N   0  0  0  0  0  0
  -25.9337  -11.6563   20.5703 N   0  0  0  0  0  0
  -22.0461  -12.8169   22.0430 N   0  0  0  0  0  0
  -25.4111  -15.1946   20.4054 N   0  0  0  0  0  0
  -31.6965  -15.0673   20.0904 O   0  0  0  0  0  0
  -21.6655   -6.8864   21.4234 O   0  0  0  0  0  0
  -22.3474  -14.5482   20.6708 O   0  0  0  0  0  0
  -24.6451  -31.8446   23.1875 C   0  0  0  0  0  0
  -25.9207  -32.4712   23.8295 C   0  0  1  0  0  0
  -27.2228  -27.1374   20.1477 C   0  0  0  0  0  0
  -25.5942  -33.8508   24.2201 N   0  0  0  0  0  0
  -23.4495  -30.4608   21.5347 C   0  0  2  0  0  0
  -24.9000  -28.8778   20.1197 C   0  0  0  0  0  0
  -22.7569  -29.4557   22.4885 C   0  0  0  0  0  0
  -18.0308  -28.1420   22.8498 C   0  0  0  0  0  0
  -24.1492  -36.7256   23.2645 C   0  0  0  0  0  0
  -26.0062  -30.7140   21.3872 C   0  0  0  0  0  0
  -26.0792  -29.3233   20.7332 C   0  0  0  0  0  0
  -27.2470  -28.4694   20.7252 C   0  0  0  0  0  0
  -26.0170  -26.7844   19.5129 C   0  0  0  0  0  0
  -24.8802  -27.6201   19.4982 C   0  0  0  0  0  0
  -23.6779  -29.7817   20.1580 C   0  0  0  0  0  0
  -25.4125  -36.3042   24.0325 C   0  0  1  0  0  0
  -20.5920  -28.3753   23.1241 C   0  0  2  0  0  0
  -20.6791  -26.9449   22.5416 C   0  0  0  0  0  0
  -19.5764  -26.6395   21.5231 C   0  0  0  0  0  0
  -18.1944  -26.7958   22.1640 C   0  0  0  0  0  0
  -19.1564  -28.8901   23.2865 C   0  0  0  0  0  0
  -18.9478  -30.1498   23.8883 C   0  0  0  0  0  0
  -17.6471  -30.6607   24.0576 C   0  0  0  0  0  0
  -25.9067  -34.9412   23.5075 C   0  0  0  0  0  0
  -16.5362  -29.9102   23.6346 C   0  0  0  0  0  0
  -16.7290  -28.6529   23.0359 C   0  0  0  0  0  0
  -26.4519  -31.6568   25.0732 C   0  0  0  0  0  0
  -25.3687  -31.3749   26.1415 C   0  0  0  0  0  0
  -27.0387  -30.2967   24.6312 C   0  0  0  0  0  0
  -27.6076  -32.4303   25.7514 C   0  0  0  0  0  0
  -27.5584  -37.1773   24.8461 C   0  0  0  0  0  0
  -21.4261  -29.3069   22.3610 N   0  0  0  0  0  0
  -26.4286  -37.3754   23.9411 N   0  0  0  0  0  0
  -24.7207  -31.0281   22.0926 N   0  0  0  0  0  0
  -23.4200  -28.8117   23.3056 O   0  0  0  0  0  0
  -28.2797  -26.1599   20.1169 O   0  0  0  0  0  0
  -26.5671  -34.8911   22.4669 O   0  0  0  0  0  0
  -23.5560  -32.1356   23.7062 O   0  0  0  0  0  0
  -29.4637  -19.8739   19.3786 C   0  0  0  0  0  0
  -29.5616  -18.4609   21.7465 C   0  0  0  0  0  0
  -29.3397  -20.7198   20.5446 C   0  0  0  0  0  0
  -29.7223  -17.6176   20.5971 C   0  0  0  0  0  0
  -29.6238  -18.4052   19.3916 C   0  0  0  0  0  0
  -29.3874  -19.9028   21.7324 C   0  0  0  0  0  0
  -28.4407  -23.2640   20.0765 C   0  0  0  0  0  0
  -31.6621  -24.0577   17.3003 C   0  0  0  0  0  0
  -31.2965  -26.4099   18.1648 C   0  0  0  0  0  0
  -29.1080  -18.2370   17.0542 C   0  0  0  0  0  0
  -28.1070  -24.7572   20.7636 C   0  0  0  0  0  0
  -30.5190  -22.8418   21.2813 C   0  0  0  0  0  0
  -31.5518  -23.4189   20.2903 C   0  0  0  0  0  0
  -31.8014  -25.0045   18.5043 C   0  0  0  0  0  0
  -29.6797  -16.0781   20.6963 N   0  0  0  0  0  0
  -29.3309  -22.2753   20.6047 N   0  0  0  0  0  0
  -27.7851  -22.9806   19.0684 O   0  0  0  0  0  0
  -29.6570  -17.6601   18.2314 O   0  0  0  0  0  0
  -31.0147  -24.5372   19.5947 O   0  0  0  0  0  0
  -29.1923  -20.6638   23.2743 Cl  0  0  0  0  0  0
  -31.4794  -12.7545   19.1958 H   0  0  0  0  0  0
  -30.4325  -11.6330   20.0215 H   0  0  0  0  0  0
  -29.8554  -11.7688   17.5716 H   0  0  0  0  0  0
  -29.6172  -13.4957   17.7091 H   0  0  0  0  0  0
  -27.9544  -11.2845   18.9472 H   0  0  0  0  0  0
  -27.4038  -12.4817   17.8032 H   0  0  0  0  0  0
  -27.6025  -14.2565   19.4329 H   0  0  0  0  0  0
  -28.7610  -12.2562   21.4257 H   0  0  0  0  0  0
  -28.3648  -13.9207   21.7797 H   0  0  0  0  0  0
  -25.2782   -9.5701   22.4717 H   0  0  0  0  0  0
  -24.0038   -7.4642   22.7440 H   0  0  0  0  0  0
  -21.0864   -8.8737   19.8928 H   0  0  0  0  0  0
  -22.3698  -10.9638   19.6131 H   0  0  0  0  0  0
  -21.1979   -7.6131   23.9717 H   0  0  0  0  0  0
  -21.1501   -6.0500   25.9077 H   0  0  0  0  0  0
  -22.0589   -2.7598   23.2852 H   0  0  0  0  0  0
  -22.4115  -11.9907   22.4914 H   0  0  0  0  0  0
  -21.1041  -13.1113   22.2553 H   0  0  0  0  0  0
  -24.6323  -15.8391   20.4941 H   0  0  0  0  0  0
  -26.2517  -15.6372   20.0521 H   0  0  0  0  0  0
  -26.7272  -32.5318   23.1028 H   0  0  0  0  0  0
  -25.0015  -33.9633   25.0299 H   0  0  0  0  0  0
  -22.7552  -31.2871   21.3733 H   0  0  0  0  0  0
  -23.3772  -35.9566   23.3288 H   0  0  0  0  0  0
  -24.3558  -36.8910   22.2056 H   0  0  0  0  0  0
  -23.7221  -37.6439   23.6694 H   0  0  0  0  0  0
  -26.1539  -31.4625   20.6079 H   0  0  0  0  0  0
  -26.8772  -30.7724   22.0263 H   0  0  0  0  0  0
  -28.1522  -28.8079   21.2088 H   0  0  0  0  0  0
  -25.9448  -25.8199   19.0288 H   0  0  0  0  0  0
  -23.9772  -27.2710   19.0152 H   0  0  0  0  0  0
  -23.8156  -30.5503   19.3980 H   0  0  0  0  0  0
  -22.7937  -29.2203   19.8522 H   0  0  0  0  0  0
  -25.1299  -36.1890   25.0815 H   0  0  0  0  0  0
  -21.0025  -28.3352   24.1359 H   0  0  0  0  0  0
  -20.5700  -26.2366   23.3654 H   0  0  0  0  0  0
  -21.6653  -26.7458   22.1195 H   0  0  0  0  0  0
  -19.6913  -25.6302   21.1281 H   0  0  0  0  0  0
  -19.6690  -27.3200   20.6765 H   0  0  0  0  0  0
  -17.4214  -26.6740   21.4037 H   0  0  0  0  0  0
  -18.0318  -26.0094   22.9026 H   0  0  0  0  0  0
  -19.7946  -30.7343   24.2231 H   0  0  0  0  0  0
  -17.5013  -31.6283   24.5196 H   0  0  0  0  0  0
  -15.5363  -30.2993   23.7682 H   0  0  0  0  0  0
  -15.8696  -28.0843   22.7067 H   0  0  0  0  0  0
  -24.5898  -30.7077   25.7709 H   0  0  0  0  0  0
  -24.8843  -32.2925   26.4765 H   0  0  0  0  0  0
  -25.7947  -30.8965   27.0244 H   0  0  0  0  0  0
  -26.3015  -29.6686   24.1306 H   0  0  0  0  0  0
  -27.3991  -29.7267   25.4886 H   0  0  0  0  0  0
  -27.8922  -30.4212   23.9645 H   0  0  0  0  0  0
  -27.2722  -33.3633   26.2054 H   0  0  0  0  0  0
  -28.3923  -32.6796   25.0356 H   0  0  0  0  0  0
  -28.0717  -31.8440   26.5462 H   0  0  0  0  0  0
  -28.2579  -38.0091   24.7521 H   0  0  0  0  0  0
  -28.1102  -36.2616   24.6268 H   0  0  0  0  0  0
  -27.2293  -37.1390   25.8859 H   0  0  0  0  0  0
  -20.9499  -29.8762   21.6747 H   0  0  0  0  0  0
  -26.0172  -38.2830   24.1405 H   0  0  0  0  0  0
  -29.4543  -20.3904   18.4306 H   0  0  0  0  0  0
  -29.5443  -17.9802   22.7124 H   0  0  0  0  0  0
  -32.1560  -24.4710   16.4196 H   0  0  0  0  0  0
  -30.6149  -23.8885   17.0516 H   0  0  0  0  0  0
  -32.1222  -23.0873   17.4842 H   0  0  0  0  0  0
  -31.8430  -26.8312   17.3197 H   0  0  0  0  0  0
  -31.4203  -27.0921   19.0065 H   0  0  0  0  0  0
  -30.2391  -26.3954   17.8993 H   0  0  0  0  0  0
  -28.9656  -17.4595   16.3024 H   0  0  0  0  0  0
  -29.7766  -18.9828   16.6258 H   0  0  0  0  0  0
  -28.1328  -18.6925   17.2368 H   0  0  0  0  0  0
  -28.6078  -24.8241   21.7247 H   0  0  0  0  0  0
  -27.0551  -24.6813   21.0416 H   0  0  0  0  0  0
  -30.2644  -23.5730   22.0466 H   0  0  0  0  0  0
  -31.0388  -22.0584   21.8313 H   0  0  0  0  0  0
  -31.8637  -22.6273   19.6110 H   0  0  0  0  0  0
  -32.4441  -23.7402   20.8295 H   0  0  0  0  0  0
  -32.8493  -25.0770   18.7982 H   0  0  0  0  0  0
  -28.7930  -15.7533   21.0534 H   0  0  0  0  0  0
  1 25  1  0  0  0
  1 30  2  0  0  0
  1 85  1  0  0  0
  2  3  1  0  0  0
  2 25  1  0  0  0
  2 91  1  0  0  0
  2 92  1  0  0  0
  3  4  1  0  0  0
  3 93  1  0  0  0
  3 94  1  0  0  0
  4  5  1  0  0  0
  4 95  1  0  0  0
  4 96  1  0  0  0
  5  6  1  0  0  0
  5 26  1  0  0  0
  5 97  1  0  0  0
  6 25  1  0  0  0
  6 98  1  0  0  0
  6 99  1  0  0  0
  7  8  2  0  0  0
  7 26  1  0  0  0
  7 29  1  0  0  0
  8  9  1  0  0  0
  8 22  1  0  0  0
  9 10  1  0  0  0
  9 27  2  0  0  0
 10 11  2  0  0  0
 10 15  1  0  0  0
 11 12  1  0  0  0
 11100  1  0  0  0
 12 13  2  0  0  0
 12101  1  0  0  0
 13 14  1  0  0  0
 13 31  1  0  0  0
 14 15  2  0  0  0
 14102  1  0  0  0
 15103  1  0  0  0
 16 17  2  0  0  0
 16 21  1  0  0  0
 16 31  1  0  0  0
 17 18  1  0  0  0
 17104  1  0  0  0
 18 19  2  0  0  0
 18105  1  0  0  0
 19 20  1  0  0  0
 19 24  1  0  0  0
 20 21  2  0  0  0
 20106  1  0  0  0
 21 23  1  0  0  0
 22 28  1  0  0  0
 22 32  2  0  0  0
 26 27  1  0  0  0
 28107  1  0  0  0
 28108  1  0  0  0
 29109  1  0  0  0
 29110  1  0  0  0
 33 34  1  0  0  0
 33 66  1  0  0  0
 33 70  2  0  0  0
 34 36  1  0  0  0
 34 59  1  0  0  0
 34111  1  0  0  0
 35 44  2  0  0  0
 35 45  1  0  0  0
 35 68  1  0  0  0
 36 56  1  0  0  0
 36112  1  0  0  0
 37 39  1  0  0  0
 37 47  1  0  0  0
 37 66  1  0  0  0
 37113  1  0  0  0
 38 43  2  0  0  0
 38 46  1  0  0  0
 38 47  1  0  0  0
 39 64  1  0  0  0
 39 67  2  0  0  0
 40 52  1  0  0  0
 40 53  2  0  0  0
 40 58  1  0  0  0
 41114  1  0  0  0
 41115  1  0  0  0
 41116  1  0  0  0
 41 48  1  0  0  0
 42 43  1  0  0  0
 42 66  1  0  0  0
 42117  1  0  0  0
 42118  1  0  0  0
 43 44  1  0  0  0
 44119  1  0  0  0
 45 46  2  0  0  0
 45120  1  0  0  0
 46121  1  0  0  0
 47122  1  0  0  0
 47123  1  0  0  0
 48 56  1  0  0  0
 48 65  1  0  0  0
 48124  1  0  0  0
 49 50  1  0  0  0
 49 53  1  0  0  0
 49 64  1  0  0  0
 49125  1  0  0  0
 50 51  1  0  0  0
 50126  1  0  0  0
 50127  1  0  0  0
 51 52  1  0  0  0
 51128  1  0  0  0
 51129  1  0  0  0
 52130  1  0  0  0
 52131  1  0  0  0
 53 54  1  0  0  0
 54 55  2  0  0  0
 54132  1  0  0  0
 55 57  1  0  0  0
 55133  1  0  0  0
 56 69  2  0  0  0
 57 58  2  0  0  0
 57134  1  0  0  0
 58135  1  0  0  0
 59 60  1  0  0  0
 59 61  1  0  0  0
 59 62  1  0  0  0
 60136  1  0  0  0
 60137  1  0  0  0
 60138  1  0  0  0
 61139  1  0  0  0
 61140  1  0  0  0
 61141  1  0  0  0
 62142  1  0  0  0
 62143  1  0  0  0
 62144  1  0  0  0
 63 65  1  0  0  0
 63145  1  0  0  0
 63146  1  0  0  0
 63147  1  0  0  0
 64148  1  0  0  0
 65149  1  0  0  0
 68 81  1  0  0  0
 71 73  2  0  0  0
 71 75  1  0  0  0
 71150  1  0  0  0
 72 74  1  0  0  0
 72 76  2  0  0  0
 72151  1  0  0  0
 73 76  1  0  0  0
 73 86  1  0  0  0
 74 75  2  0  0  0
 74 85  1  0  0  0
 75 88  1  0  0  0
 76 90  1  0  0  0
 77 81  1  0  0  0
 77 86  1  0  0  0
 77 87  2  0  0  0
 78152  1  0  0  0
 78153  1  0  0  0
 78154  1  0  0  0
 78 84  1  0  0  0
 79 84  1  0  0  0
 79155  1  0  0  0
 79156  1  0  0  0
 79157  1  0  0  0
 80 88  1  0  0  0
 80158  1  0  0  0
 80159  1  0  0  0
 80160  1  0  0  0
 81161  1  0  0  0
 81162  1  0  0  0
 82 83  1  0  0  0
 82 86  1  0  0  0
 82163  1  0  0  0
 82164  1  0  0  0
 83 89  1  0  0  0
 83165  1  0  0  0
 83166  1  0  0  0
 84 89  1  0  0  0
 84167  1  0  0  0
 85168  1  0  0  0
M  ISO  4   1 100  68 101  81 101  85 100
M  END
> <chiral flag>
0

> <version>
0

> <s_m_source_file>
/data/baiqing/PycharmProjects/Reinvent-master-3.2/result/LINK_invent/BTK/process_docking_weight1_custom_sum_contain_oxygen_bond_distance_aromatic_linkinvent_7_9_3/rearranged_h_0008.sdf

> <i_m_source_file_index>
79

> <r_mmod_Potential_Energy-OPLS-2005>
560.195251464844

> <r_mmod_Stretch_Energy-OPLS-2005>
253.820449829102

> <r_mmod_Bend_Energy-OPLS-2005>
281.381134033203

> <r_mmod_Torsional_Energy-OPLS-2005>
350.673248291016

> <r_mmod_Improper_Torsional_Energy-OPLS-2005>
6.49341249465942

> <r_mmod_Van_der_Waal_Energy-OPLS-2005>
130.142456054688

> <r_mmod_Electrostatic_Energy-OPLS-2005>
-424.356079101562

> <r_mmod_Solvation_Energy-OPLS-2005>
-230.72216796875

> <b_mmod_Minimization_Converged-OPLS-2005>
0

> <r_mmod_RMS_Derivative-OPLS-2005>
3.25928258895874

$$$$
79
                    3D
 Structure written by MMmdl.
148156  0  0  1  0            999 V2000
  -30.5204  -14.9199   20.4222 C   0  0  0  0  0  0
  -30.4515  -12.5657   19.4868 C   0  0  0  0  0  0
  -29.5236  -12.5307   18.2487 C   0  0  0  0  0  0
  -28.0538  -12.3214   18.6644 C   0  0  0  0  0  0
  -27.6358  -13.2383   19.8430 C   0  0  2  0  0  0
  -28.6827  -13.2292   20.9784 C   0  0  0  0  0  0
  -25.2489  -13.8181   20.5712 C   0  0  0  0  0  0
  -24.1800  -13.0421   20.9241 C   0  0  0  0  0  0
  -24.6404  -11.6904   20.8754 C   0  0  0  0  0  0
  -23.9080  -10.4284   21.0408 C   0  0  0  0  0  0
  -24.3626   -9.4198   21.9185 C   0  0  0  0  0  0
  -23.6297   -8.2235   22.0755 C   0  0  0  0  0  0
  -22.4278   -8.0277   21.3545 C   0  0  0  0  0  0
  -21.9916   -9.0254   20.4649 C   0  0  0  0  0  0
  -22.7250  -10.2130   20.3057 C   0  0  0  0  0  0
  -21.6851   -6.0737   22.5278 C   0  0  0  0  0  0
  -21.4014   -6.5641   23.8214 C   0  0  0  0  0  0
  -21.3660   -5.6791   24.9176 C   0  0  0  0  0  0
  -21.6043   -4.3055   24.7223 C   0  0  0  0  0  0
  -21.8820   -3.8148   23.4346 C   0  0  0  0  0  0
  -21.9193   -4.6965   22.3403 C   0  0  0  0  0  0
  -22.7820  -13.5206   21.1890 C   0  0  0  0  0  0
  -22.1662   -4.2150   21.0980 F   0  0  0  0  0  0
  -21.5629   -3.4539   25.7736 F   0  0  0  0  0  0
  -29.9649  -13.6441   20.3892 N   0  0  0  0  0  0
  -26.2915  -12.9403   20.3242 N   0  0  0  0  0  0
  -25.9332  -11.6539   20.5729 N   0  0  0  0  0  0
  -22.0461  -12.8197   22.0442 N   0  0  0  0  0  0
  -25.4114  -15.1902   20.4139 N   0  0  0  0  0  0
  -31.7178  -15.0422   20.1410 O   0  0  0  0  0  0
  -21.6639   -6.8879   21.4241 O   0  0  0  0  0  0
  -22.3500  -14.5507   20.6728 O   0  0  0  0  0  0
  -24.6431  -31.8451   23.1896 C   0  0  0  0  0  0
  -25.9206  -32.4699   23.8283 C   0  0  1  0  0  0
  -27.2188  -27.1416   20.1447 C   0  0  0  0  0  0
  -25.5957  -33.8507   24.2196 N   0  0  0  0  0  0
  -23.4468  -30.4657   21.5351 C   0  0  2  0  0  0
  -24.8974  -28.8966   20.1088 C   0  0  0  0  0  0
  -22.7569  -29.4555   22.4859 C   0  0  0  0  0  0
  -18.0306  -28.1397   22.8478 C   0  0  0  0  0  0
  -24.1494  -36.7255   23.2641 C   0  0  0  0  0  0
  -26.0038  -30.7192   21.3905 C   0  0  0  0  0  0
  -26.0752  -29.3319   20.7295 C   0  0  0  0  0  0
  -27.2360  -28.4701   20.7331 C   0  0  0  0  0  0
  -26.0152  -26.8138   19.4783 C   0  0  0  0  0  0
  -24.8803  -27.6505   19.4680 C   0  0  0  0  0  0
  -23.6736  -29.7977   20.1535 C   0  0  0  0  0  0
  -25.4126  -36.3031   24.0313 C   0  0  1  0  0  0
  -20.5922  -28.3723   23.1234 C   0  0  2  0  0  0
  -20.6790  -26.9425   22.5403 C   0  0  0  0  0  0
  -19.5764  -26.6380   21.5214 C   0  0  0  0  0  0
  -18.1946  -26.7932   22.1625 C   0  0  0  0  0  0
  -19.1563  -28.8878   23.2849 C   0  0  0  0  0  0
  -18.9477  -30.1475   23.8873 C   0  0  0  0  0  0
  -17.6473  -30.6592   24.0557 C   0  0  0  0  0  0
  -25.9079  -34.9407   23.5063 C   0  0  0  0  0  0
  -16.5366  -29.9084   23.6335 C   0  0  0  0  0  0
  -16.7290  -28.6504   23.0356 C   0  0  0  0  0  0
  -26.4524  -31.6567   25.0725 C   0  0  0  0  0  0
  -25.3704  -31.3766   26.1417 C   0  0  0  0  0  0
  -27.0384  -30.2955   24.6321 C   0  0  0  0  0  0
  -27.6058  -32.4330   25.7508 C   0  0  0  0  0  0
  -27.5578  -37.1785   24.8463 C   0  0  0  0  0  0
  -21.4261  -29.3050   22.3607 N   0  0  0  0  0  0
  -26.4288  -37.3744   23.9408 N   0  0  0  0  0  0
  -24.7176  -31.0309   22.0932 N   0  0  0  0  0  0
  -23.4213  -28.8097   23.3004 O   0  0  0  0  0  0
  -28.2607  -26.1444   20.2251 O   0  0  0  0  0  0
  -26.5661  -34.8902   22.4641 O   0  0  0  0  0  0
  -23.5549  -32.1327   23.7117 O   0  0  0  0  0  0
  -30.3742  -18.5716   21.0472 C   0  0  0  0  0  0
  -28.3104  -19.5434   19.4964 C   0  0  0  0  0  0
  -29.6173  -17.5396   20.3780 C   0  0  0  0  0  0
  -29.0270  -20.5814   20.1784 C   0  0  0  0  0  0
  -30.1020  -20.0113   20.9566 C   0  0  0  0  0  0
  -28.5751  -18.1237   19.5870 C   0  0  0  0  0  0
  -28.8990  -23.3619   20.3678 C   0  0  0  0  0  0
  -27.9302  -24.6454   19.9634 C   0  0  0  0  0  0
  -28.5429  -22.0341   20.0205 N   0  0  0  0  0  0
  -29.6499  -16.0201   20.5959 N   0  0  0  0  0  0
  -29.9434  -23.5919   20.9810 O   0  0  0  0  0  0
  -30.8881  -20.8451   21.6767 F   0  0  0  0  0  0
  -27.5405  -17.0677   18.6940 Cl  0  0  0  0  0  0
  -31.4837  -12.7359   19.1751 H   0  0  0  0  0  0
  -30.4487  -11.6032   20.0010 H   0  0  0  0  0  0
  -29.8358  -11.7410   17.5638 H   0  0  0  0  0  0
  -29.6165  -13.4680   17.6977 H   0  0  0  0  0  0
  -27.9394  -11.2759   18.9532 H   0  0  0  0  0  0
  -27.3927  -12.4748   17.8108 H   0  0  0  0  0  0
  -27.6078  -14.2465   19.4316 H   0  0  0  0  0  0
  -28.7619  -12.2388   21.4292 H   0  0  0  0  0  0
  -28.3870  -13.9065   21.7810 H   0  0  0  0  0  0
  -25.2772   -9.5671   22.4762 H   0  0  0  0  0  0
  -24.0003   -7.4626   22.7474 H   0  0  0  0  0  0
  -21.0845   -8.8777   19.8956 H   0  0  0  0  0  0
  -22.3711  -10.9672   19.6169 H   0  0  0  0  0  0
  -21.2004   -7.6149   23.9716 H   0  0  0  0  0  0
  -21.1483   -6.0523   25.9077 H   0  0  0  0  0  0
  -22.0598   -2.7610   23.2844 H   0  0  0  0  0  0
  -22.4081  -11.9869   22.4846 H   0  0  0  0  0  0
  -21.1075  -13.1219   22.2640 H   0  0  0  0  0  0
  -24.6243  -15.8231   20.5020 H   0  0  0  0  0  0
  -26.2129  -15.6260   19.9748 H   0  0  0  0  0  0
  -26.7274  -32.5306   23.1016 H   0  0  0  0  0  0
  -25.0077  -33.9628   25.0323 H   0  0  0  0  0  0
  -22.7488  -31.2912   21.3819 H   0  0  0  0  0  0
  -23.3761  -35.9584   23.3290 H   0  0  0  0  0  0
  -24.3577  -36.8901   22.2059 H   0  0  0  0  0  0
  -23.7248  -37.6446   23.6686 H   0  0  0  0  0  0
  -26.1626  -31.4762   20.6213 H   0  0  0  0  0  0
  -26.8728  -30.7664   22.0353 H   0  0  0  0  0  0
  -28.1301  -28.7959   21.2461 H   0  0  0  0  0  0
  -25.9071  -25.8657   18.9743 H   0  0  0  0  0  0
  -23.9823  -27.3132   18.9686 H   0  0  0  0  0  0
  -23.8092  -30.5740   19.3993 H   0  0  0  0  0  0
  -22.7886  -29.2398   19.8415 H   0  0  0  0  0  0
  -25.1319  -36.1857   25.0804 H   0  0  0  0  0  0
  -21.0013  -28.3311   24.1358 H   0  0  0  0  0  0
  -20.5687  -26.2336   23.3625 H   0  0  0  0  0  0
  -21.6655  -26.7433   22.1201 H   0  0  0  0  0  0
  -19.6925  -25.6285   21.1262 H   0  0  0  0  0  0
  -19.6700  -27.3175   20.6734 H   0  0  0  0  0  0
  -17.4215  -26.6675   21.4031 H   0  0  0  0  0  0
  -18.0348  -26.0084   22.9030 H   0  0  0  0  0  0
  -19.7953  -30.7299   24.2228 H   0  0  0  0  0  0
  -17.5025  -31.6270   24.5164 H   0  0  0  0  0  0
  -15.5363  -30.2977   23.7674 H   0  0  0  0  0  0
  -15.8690  -28.0812   22.7084 H   0  0  0  0  0  0
  -24.5887  -30.7113   25.7735 H   0  0  0  0  0  0
  -24.8892  -32.2953   26.4780 H   0  0  0  0  0  0
  -25.7980  -30.8975   27.0235 H   0  0  0  0  0  0
  -26.3006  -29.6679   24.1309 H   0  0  0  0  0  0
  -27.3962  -29.7257   25.4909 H   0  0  0  0  0  0
  -27.8933  -30.4175   23.9664 H   0  0  0  0  0  0
  -27.2650  -33.3641   26.2047 H   0  0  0  0  0  0
  -28.3887  -32.6875   25.0351 H   0  0  0  0  0  0
  -28.0707  -31.8482   26.5456 H   0  0  0  0  0  0
  -28.2587  -38.0087   24.7508 H   0  0  0  0  0  0
  -28.1081  -36.2619   24.6293 H   0  0  0  0  0  0
  -27.2295  -37.1432   25.8864 H   0  0  0  0  0  0
  -20.9470  -29.8755   21.6782 H   0  0  0  0  0  0
  -26.0154  -38.2813   24.1406 H   0  0  0  0  0  0
  -31.1722  -18.2607   21.7043 H   0  0  0  0  0  0
  -27.4796  -19.8367   18.8716 H   0  0  0  0  0  0
  -26.9800  -24.4371   20.4570 H   0  0  0  0  0  0
  -27.7409  -24.5441   18.8946 H   0  0  0  0  0  0
  -27.6810  -22.0689   19.4953 H   0  0  0  0  0  0
  -28.7152  -15.6589   20.7092 H   0  0  0  0  0  0
  1 25  1  0  0  0
  1 30  2  0  0  0
  1 80  1  0  0  0
  2  3  1  0  0  0
  2 25  1  0  0  0
  2 84  1  0  0  0
  2 85  1  0  0  0
  3  4  1  0  0  0
  3 86  1  0  0  0
  3 87  1  0  0  0
  4  5  1  0  0  0
  4 88  1  0  0  0
  4 89  1  0  0  0
  5  6  1  0  0  0
  5 26  1  0  0  0
  5 90  1  0  0  0
  6 25  1  0  0  0
  6 91  1  0  0  0
  6 92  1  0  0  0
  7  8  2  0  0  0
  7 26  1  0  0  0
  7 29  1  0  0  0
  8  9  1  0  0  0
  8 22  1  0  0  0
  9 10  1  0  0  0
  9 27  2  0  0  0
 10 11  2  0  0  0
 10 15  1  0  0  0
 11 12  1  0  0  0
 11 93  1  0  0  0
 12 13  2  0  0  0
 12 94  1  0  0  0
 13 14  1  0  0  0
 13 31  1  0  0  0
 14 15  2  0  0  0
 14 95  1  0  0  0
 15 96  1  0  0  0
 16 17  2  0  0  0
 16 21  1  0  0  0
 16 31  1  0  0  0
 17 18  1  0  0  0
 17 97  1  0  0  0
 18 19  2  0  0  0
 18 98  1  0  0  0
 19 20  1  0  0  0
 19 24  1  0  0  0
 20 21  2  0  0  0
 20 99  1  0  0  0
 21 23  1  0  0  0
 22 28  1  0  0  0
 22 32  2  0  0  0
 26 27  1  0  0  0
 28100  1  0  0  0
 28101  1  0  0  0
 29102  1  0  0  0
 29103  1  0  0  0
 33 34  1  0  0  0
 33 66  1  0  0  0
 33 70  2  0  0  0
 34 36  1  0  0  0
 34 59  1  0  0  0
 34104  1  0  0  0
 35 44  2  0  0  0
 35 45  1  0  0  0
 35 68  1  0  0  0
 36 56  1  0  0  0
 36105  1  0  0  0
 37 39  1  0  0  0
 37 47  1  0  0  0
 37 66  1  0  0  0
 37106  1  0  0  0
 38 43  2  0  0  0
 38 46  1  0  0  0
 38 47  1  0  0  0
 39 64  1  0  0  0
 39 67  2  0  0  0
 40 52  1  0  0  0
 40 53  2  0  0  0
 40 58  1  0  0  0
 41107  1  0  0  0
 41108  1  0  0  0
 41109  1  0  0  0
 41 48  1  0  0  0
 42 43  1  0  0  0
 42 66  1  0  0  0
 42110  1  0  0  0
 42111  1  0  0  0
 43 44  1  0  0  0
 44112  1  0  0  0
 45 46  2  0  0  0
 45113  1  0  0  0
 46114  1  0  0  0
 47115  1  0  0  0
 47116  1  0  0  0
 48 56  1  0  0  0
 48 65  1  0  0  0
 48117  1  0  0  0
 49 50  1  0  0  0
 49 53  1  0  0  0
 49 64  1  0  0  0
 49118  1  0  0  0
 50 51  1  0  0  0
 50119  1  0  0  0
 50120  1  0  0  0
 51 52  1  0  0  0
 51121  1  0  0  0
 51122  1  0  0  0
 52123  1  0  0  0
 52124  1  0  0  0
 53 54  1  0  0  0
 54 55  2  0  0  0
 54125  1  0  0  0
 55 57  1  0  0  0
 55126  1  0  0  0
 56 69  2  0  0  0
 57 58  2  0  0  0
 57127  1  0  0  0
 58128  1  0  0  0
 59 60  1  0  0  0
 59 61  1  0  0  0
 59 62  1  0  0  0
 60129  1  0  0  0
 60130  1  0  0  0
 60131  1  0  0  0
 61132  1  0  0  0
 61133  1  0  0  0
 61134  1  0  0  0
 62135  1  0  0  0
 62136  1  0  0  0
 62137  1  0  0  0
 63 65  1  0  0  0
 63138  1  0  0  0
 63139  1  0  0  0
 63140  1  0  0  0
 64141  1  0  0  0
 65142  1  0  0  0
 68 78  1  0  0  0
 71 73  2  0  0  0
 71 75  1  0  0  0
 71143  1  0  0  0
 72 74  1  0  0  0
 72 76  2  0  0  0
 72144  1  0  0  0
 73 76  1  0  0  0
 73 80  1  0  0  0
 74 75  2  0  0  0
 74 79  1  0  0  0
 75 82  1  0  0  0
 76 83  1  0  0  0
 77 78  1  0  0  0
 77 79  1  0  0  0
 77 81  2  0  0  0
 78145  1  0  0  0
 78146  1  0  0  0
 79147  1  0  0  0
 80148  1  0  0  0
M  ISO  4   1 100  68 101  78 101  80 100
M  END
> <chiral flag>
0

> <version>
0

> <s_m_source_file>
/data/baiqing/PycharmProjects/Reinvent-master-3.2/result/LINK_invent/BTK/process_docking_weight1_custom_sum_contain_oxygen_bond_distance_aromatic_linkinvent_7_9_3/rearranged_h_0008.sdf

> <i_m_source_file_index>
80

> <r_mmod_Potential_Energy-OPLS-2005>
384.859466552734

> <r_mmod_Stretch_Energy-OPLS-2005>
220.520233154297

> <r_mmod_Bend_Energy-OPLS-2005>
267.625915527344

> <r_mmod_Torsional_Energy-OPLS-2005>
240.501495361328

> <r_mmod_Improper_Torsional_Energy-OPLS-2005>
6.81895685195923

> <r_mmod_Van_der_Waal_Energy-OPLS-2005>
126.908294677734

> <r_mmod_Electrostatic_Energy-OPLS-2005>
-404.080993652344

> <r_mmod_Solvation_Energy-OPLS-2005>
-256.457611083984

> <b_mmod_Minimization_Converged-OPLS-2005>
0

> <r_mmod_RMS_Derivative-OPLS-2005>
0.821168065071106

$$$$
80
                    3D
 Structure written by MMmdl.
152160  0  0  1  0            999 V2000
  -30.5187  -15.0492   20.4033 C   0  0  0  0  0  0
  -30.4385  -12.6575   19.5051 C   0  0  0  0  0  0
  -29.5232  -12.5385   18.2641 C   0  0  0  0  0  0
  -28.0615  -12.3063   18.6878 C   0  0  0  0  0  0
  -27.6222  -13.2573   19.8310 C   0  0  2  0  0  0
  -28.6636  -13.3402   20.9666 C   0  0  0  0  0  0
  -25.2434  -13.8230   20.5720 C   0  0  0  0  0  0
  -24.1767  -13.0442   20.9253 C   0  0  0  0  0  0
  -24.6394  -11.6931   20.8771 C   0  0  0  0  0  0
  -23.9083  -10.4297   21.0415 C   0  0  0  0  0  0
  -24.3631   -9.4208   21.9189 C   0  0  0  0  0  0
  -23.6302   -8.2245   22.0755 C   0  0  0  0  0  0
  -22.4283   -8.0284   21.3546 C   0  0  0  0  0  0
  -21.9924   -9.0259   20.4647 C   0  0  0  0  0  0
  -22.7257  -10.2136   20.3060 C   0  0  0  0  0  0
  -21.6854   -6.0738   22.5279 C   0  0  0  0  0  0
  -21.4015   -6.5642   23.8211 C   0  0  0  0  0  0
  -21.3658   -5.6795   24.9174 C   0  0  0  0  0  0
  -21.6043   -4.3058   24.7224 C   0  0  0  0  0  0
  -21.8819   -3.8149   23.4346 C   0  0  0  0  0  0
  -21.9194   -4.6966   22.3403 C   0  0  0  0  0  0
  -22.7786  -13.5207   21.1898 C   0  0  0  0  0  0
  -22.1662   -4.2152   21.0980 F   0  0  0  0  0  0
  -21.5627   -3.4540   25.7736 F   0  0  0  0  0  0
  -29.9241  -13.7790   20.3532 N   0  0  0  0  0  0
  -26.2856  -12.9475   20.3232 N   0  0  0  0  0  0
  -25.9327  -11.6597   20.5745 N   0  0  0  0  0  0
  -22.0436  -12.8190   22.0447 N   0  0  0  0  0  0
  -25.4068  -15.1959   20.4103 N   0  0  0  0  0  0
  -31.7337  -15.0652   20.1723 O   0  0  0  0  0  0
  -21.6643   -6.8882   21.4242 O   0  0  0  0  0  0
  -22.3470  -14.5511   20.6737 O   0  0  0  0  0  0
  -24.6502  -31.8365   23.1826 C   0  0  0  0  0  0
  -25.9241  -32.4658   23.8235 C   0  0  1  0  0  0
  -27.2141  -27.0626   20.1628 C   0  0  0  0  0  0
  -25.5958  -33.8467   24.2145 N   0  0  0  0  0  0
  -23.4579  -30.4547   21.5290 C   0  0  2  0  0  0
  -24.9084  -28.8693   20.1098 C   0  0  0  0  0  0
  -22.7600  -29.4512   22.4826 C   0  0  0  0  0  0
  -18.0309  -28.1405   22.8465 C   0  0  0  0  0  0
  -24.1494  -36.7237   23.2646 C   0  0  0  0  0  0
  -26.0195  -30.6875   21.3924 C   0  0  0  0  0  0
  -26.0892  -29.2921   20.7334 C   0  0  0  0  0  0
  -27.2417  -28.4069   20.7394 C   0  0  0  0  0  0
  -26.0057  -26.7612   19.4958 C   0  0  0  0  0  0
  -24.8842  -27.6199   19.4732 C   0  0  0  0  0  0
  -23.6891  -29.7807   20.1503 C   0  0  0  0  0  0
  -25.4128  -36.3009   24.0310 C   0  0  1  0  0  0
  -20.5928  -28.3734   23.1215 C   0  0  2  0  0  0
  -20.6791  -26.9430   22.5400 C   0  0  0  0  0  0
  -19.5765  -26.6380   21.5212 C   0  0  0  0  0  0
  -18.1945  -26.7940   22.1619 C   0  0  0  0  0  0
  -19.1568  -28.8885   23.2833 C   0  0  0  0  0  0
  -18.9485  -30.1478   23.8865 C   0  0  0  0  0  0
  -17.6481  -30.6596   24.0555 C   0  0  0  0  0  0
  -25.9082  -34.9388   23.5039 C   0  0  0  0  0  0
  -16.5370  -29.9087   23.6343 C   0  0  0  0  0  0
  -16.7292  -28.6508   23.0356 C   0  0  0  0  0  0
  -26.4540  -31.6556   25.0708 C   0  0  0  0  0  0
  -25.3702  -31.3771   26.1386 C   0  0  0  0  0  0
  -27.0416  -30.2939   24.6350 C   0  0  0  0  0  0
  -27.6053  -32.4340   25.7502 C   0  0  0  0  0  0
  -27.5574  -37.1774   24.8465 C   0  0  0  0  0  0
  -21.4283  -29.3047   22.3574 N   0  0  0  0  0  0
  -26.4282  -37.3731   23.9412 N   0  0  0  0  0  0
  -24.7297  -31.0156   22.0895 N   0  0  0  0  0  0
  -23.4209  -28.8065   23.3009 O   0  0  0  0  0  0
  -28.2380  -26.0245   20.2392 O   0  0  0  0  0  0
  -26.5677  -34.8895   22.4627 O   0  0  0  0  0  0
  -23.5602  -32.1269   23.6999 O   0  0  0  0  0  0
  -31.8523  -19.5149   20.6641 C   0  0  0  0  0  0
  -30.9734  -20.6150   20.5517 C   0  0  0  0  0  0
  -31.4253  -18.1695   20.6313 C   0  0  0  0  0  0
  -29.5752  -20.4699   20.4034 C   0  0  0  0  0  0
  -30.0695  -17.8043   20.4855 C   0  0  0  0  0  0
  -29.1593  -19.0135   20.3819 C   0  0  0  0  0  0
  -28.9836  -23.2072   20.3669 C   0  0  0  0  0  0
  -27.1764  -18.4087   21.4488 C   0  0  0  0  0  0
  -27.9033  -24.4753   20.0907 C   0  0  0  0  0  0
  -28.7210  -21.7814   20.2705 N   0  0  0  0  0  0
  -29.7459  -16.2712   20.4813 N   0  0  0  0  0  0
  -30.1131  -23.5759   20.6966 O   0  0  0  0  0  0
  -27.8182  -18.7776   20.2366 O   0  0  0  0  0  0
  -31.4674  -12.8275   19.1844 H   0  0  0  0  0  0
  -30.4551  -11.7230   20.0683 H   0  0  0  0  0  0
  -29.8609  -11.7258   17.6194 H   0  0  0  0  0  0
  -29.5917  -13.4509   17.6696 H   0  0  0  0  0  0
  -27.9785  -11.2711   19.0210 H   0  0  0  0  0  0
  -27.3946  -12.4049   17.8304 H   0  0  0  0  0  0
  -27.5675  -14.2464   19.3756 H   0  0  0  0  0  0
  -28.7778  -12.3803   21.4723 H   0  0  0  0  0  0
  -28.3452  -14.0568   21.7257 H   0  0  0  0  0  0
  -25.2772   -9.5681   22.4771 H   0  0  0  0  0  0
  -24.0007   -7.4632   22.7473 H   0  0  0  0  0  0
  -21.0857   -8.8783   19.8950 H   0  0  0  0  0  0
  -22.3718  -10.9679   19.6174 H   0  0  0  0  0  0
  -21.2008   -7.6148   23.9717 H   0  0  0  0  0  0
  -21.1481   -6.0523   25.9077 H   0  0  0  0  0  0
  -22.0598   -2.7611   23.2844 H   0  0  0  0  0  0
  -22.4063  -11.9857   22.4836 H   0  0  0  0  0  0
  -21.1049  -13.1201   22.2650 H   0  0  0  0  0  0
  -24.6224  -15.8332   20.4926 H   0  0  0  0  0  0
  -26.2237  -15.6262   19.9983 H   0  0  0  0  0  0
  -26.7301  -32.5236   23.0948 H   0  0  0  0  0  0
  -25.0075  -33.9573   25.0272 H   0  0  0  0  0  0
  -22.7650  -31.2835   21.3688 H   0  0  0  0  0  0
  -23.3763  -35.9561   23.3283 H   0  0  0  0  0  0
  -24.3573  -36.8898   22.2065 H   0  0  0  0  0  0
  -23.7241  -37.6421   23.6701 H   0  0  0  0  0  0
  -26.1842  -31.4384   20.6185 H   0  0  0  0  0  0
  -26.8868  -30.7384   22.0393 H   0  0  0  0  0  0
  -28.1374  -28.7252   21.2534 H   0  0  0  0  0  0
  -25.8893  -25.8074   19.0041 H   0  0  0  0  0  0
  -23.9849  -27.2902   18.9714 H   0  0  0  0  0  0
  -23.8324  -30.5536   19.3946 H   0  0  0  0  0  0
  -22.8019  -29.2282   19.8358 H   0  0  0  0  0  0
  -25.1322  -36.1821   25.0801 H   0  0  0  0  0  0
  -21.0015  -28.3327   24.1339 H   0  0  0  0  0  0
  -20.5684  -26.2349   23.3628 H   0  0  0  0  0  0
  -21.6658  -26.7425   22.1202 H   0  0  0  0  0  0
  -19.6930  -25.6285   21.1258 H   0  0  0  0  0  0
  -19.6710  -27.3172   20.6731 H   0  0  0  0  0  0
  -17.4218  -26.6676   21.4021 H   0  0  0  0  0  0
  -18.0342  -26.0102   22.9035 H   0  0  0  0  0  0
  -19.7964  -30.7296   24.2225 H   0  0  0  0  0  0
  -17.5038  -31.6277   24.5156 H   0  0  0  0  0  0
  -15.5369  -30.2977   23.7695 H   0  0  0  0  0  0
  -15.8691  -28.0815   22.7095 H   0  0  0  0  0  0
  -24.5888  -30.7116   25.7696 H   0  0  0  0  0  0
  -24.8887  -32.2965   26.4727 H   0  0  0  0  0  0
  -25.7962  -30.8990   27.0215 H   0  0  0  0  0  0
  -26.3051  -29.6643   24.1342 H   0  0  0  0  0  0
  -27.3983  -29.7266   25.4958 H   0  0  0  0  0  0
  -27.8978  -30.4152   23.9713 H   0  0  0  0  0  0
  -27.2633  -33.3671   26.1990 H   0  0  0  0  0  0
  -28.3911  -32.6850   25.0366 H   0  0  0  0  0  0
  -28.0664  -31.8524   26.5494 H   0  0  0  0  0  0
  -28.2574  -38.0087   24.7517 H   0  0  0  0  0  0
  -28.1090  -36.2613   24.6284 H   0  0  0  0  0  0
  -27.2290  -37.1409   25.8868 H   0  0  0  0  0  0
  -20.9504  -29.8759   21.6743 H   0  0  0  0  0  0
  -26.0139  -38.2794   24.1423 H   0  0  0  0  0  0
  -32.9088  -19.7132   20.7793 H   0  0  0  0  0  0
  -31.4240  -21.5942   20.5783 H   0  0  0  0  0  0
  -32.1868  -17.4112   20.7317 H   0  0  0  0  0  0
  -26.1265  -18.1881   21.2558 H   0  0  0  0  0  0
  -27.2181  -19.2230   22.1736 H   0  0  0  0  0  0
  -27.6227  -17.5219   21.9000 H   0  0  0  0  0  0
  -27.0423  -24.2772   20.7297 H   0  0  0  0  0  0
  -27.5514  -24.3248   19.0702 H   0  0  0  0  0  0
  -27.7524  -21.5946   20.0469 H   0  0  0  0  0  0
  -28.7578  -16.0776   20.5284 H   0  0  0  0  0  0
  1 25  1  0  0  0
  1 30  2  0  0  0
  1 81  1  0  0  0
  2  3  1  0  0  0
  2 25  1  0  0  0
  2 84  1  0  0  0
  2 85  1  0  0  0
  3  4  1  0  0  0
  3 86  1  0  0  0
  3 87  1  0  0  0
  4  5  1  0  0  0
  4 88  1  0  0  0
  4 89  1  0  0  0
  5  6  1  0  0  0
  5 26  1  0  0  0
  5 90  1  0  0  0
  6 25  1  0  0  0
  6 91  1  0  0  0
  6 92  1  0  0  0
  7  8  2  0  0  0
  7 26  1  0  0  0
  7 29  1  0  0  0
  8  9  1  0  0  0
  8 22  1  0  0  0
  9 10  1  0  0  0
  9 27  2  0  0  0
 10 11  2  0  0  0
 10 15  1  0  0  0
 11 12  1  0  0  0
 11 93  1  0  0  0
 12 13  2  0  0  0
 12 94  1  0  0  0
 13 14  1  0  0  0
 13 31  1  0  0  0
 14 15  2  0  0  0
 14 95  1  0  0  0
 15 96  1  0  0  0
 16 17  2  0  0  0
 16 21  1  0  0  0
 16 31  1  0  0  0
 17 18  1  0  0  0
 17 97  1  0  0  0
 18 19  2  0  0  0
 18 98  1  0  0  0
 19 20  1  0  0  0
 19 24  1  0  0  0
 20 21  2  0  0  0
 20 99  1  0  0  0
 21 23  1  0  0  0
 22 28  1  0  0  0
 22 32  2  0  0  0
 26 27  1  0  0  0
 28100  1  0  0  0
 28101  1  0  0  0
 29102  1  0  0  0
 29103  1  0  0  0
 33 34  1  0  0  0
 33 66  1  0  0  0
 33 70  2  0  0  0
 34 36  1  0  0  0
 34 59  1  0  0  0
 34104  1  0  0  0
 35 44  2  0  0  0
 35 45  1  0  0  0
 35 68  1  0  0  0
 36 56  1  0  0  0
 36105  1  0  0  0
 37 39  1  0  0  0
 37 47  1  0  0  0
 37 66  1  0  0  0
 37106  1  0  0  0
 38 43  2  0  0  0
 38 46  1  0  0  0
 38 47  1  0  0  0
 39 64  1  0  0  0
 39 67  2  0  0  0
 40 52  1  0  0  0
 40 53  2  0  0  0
 40 58  1  0  0  0
 41107  1  0  0  0
 41108  1  0  0  0
 41109  1  0  0  0
 41 48  1  0  0  0
 42 43  1  0  0  0
 42 66  1  0  0  0
 42110  1  0  0  0
 42111  1  0  0  0
 43 44  1  0  0  0
 44112  1  0  0  0
 45 46  2  0  0  0
 45113  1  0  0  0
 46114  1  0  0  0
 47115  1  0  0  0
 47116  1  0  0  0
 48 56  1  0  0  0
 48 65  1  0  0  0
 48117  1  0  0  0
 49 50  1  0  0  0
 49 53  1  0  0  0
 49 64  1  0  0  0
 49118  1  0  0  0
 50 51  1  0  0  0
 50119  1  0  0  0
 50120  1  0  0  0
 51 52  1  0  0  0
 51121  1  0  0  0
 51122  1  0  0  0
 52123  1  0  0  0
 52124  1  0  0  0
 53 54  1  0  0  0
 54 55  2  0  0  0
 54125  1  0  0  0
 55 57  1  0  0  0
 55126  1  0  0  0
 56 69  2  0  0  0
 57 58  2  0  0  0
 57127  1  0  0  0
 58128  1  0  0  0
 59 60  1  0  0  0
 59 61  1  0  0  0
 59 62  1  0  0  0
 60129  1  0  0  0
 60130  1  0  0  0
 60131  1  0  0  0
 61132  1  0  0  0
 61133  1  0  0  0
 61134  1  0  0  0
 62135  1  0  0  0
 62136  1  0  0  0
 62137  1  0  0  0
 63 65  1  0  0  0
 63138  1  0  0  0
 63139  1  0  0  0
 63140  1  0  0  0
 64141  1  0  0  0
 65142  1  0  0  0
 68 79  1  0  0  0
 71 72  2  0  0  0
 71 73  1  0  0  0
 71143  1  0  0  0
 72 74  1  0  0  0
 72144  1  0  0  0
 73 75  2  0  0  0
 73145  1  0  0  0
 74 76  2  0  0  0
 74 80  1  0  0  0
 75 76  1  0  0  0
 75 81  1  0  0  0
 76 83  1  0  0  0
 77 79  1  0  0  0
 77 80  1  0  0  0
 77 82  2  0  0  0
 78 83  1  0  0  0
 78146  1  0  0  0
 78147  1  0  0  0
 78148  1  0  0  0
 79149  1  0  0  0
 79150  1  0  0  0
 80151  1  0  0  0
 81152  1  0  0  0
M  ISO  4   1 100  68 101  79 101  81 100
M  END
> <chiral flag>
0

> <version>
0

> <s_m_source_file>
/data/baiqing/PycharmProjects/Reinvent-master-3.2/result/LINK_invent/BTK/process_docking_weight1_custom_sum_contain_oxygen_bond_distance_aromatic_linkinvent_7_9_3/rearranged_h_0008.sdf

> <i_m_source_file_index>
81

> <r_mmod_Potential_Energy-OPLS-2005>
618.240112304688

> <r_mmod_Stretch_Energy-OPLS-2005>
347.511047363281

> <r_mmod_Bend_Energy-OPLS-2005>
268.615539550781

> <r_mmod_Torsional_Energy-OPLS-2005>
250.517181396484

> <r_mmod_Improper_Torsional_Energy-OPLS-2005>
5.30388450622559

> <r_mmod_Van_der_Waal_Energy-OPLS-2005>
130.50129699707

> <r_mmod_Electrostatic_Energy-OPLS-2005>
-410.293121337891

> <r_mmod_Solvation_Energy-OPLS-2005>
-242.438110351562

> <b_mmod_Minimization_Converged-OPLS-2005>
0

> <r_mmod_RMS_Derivative-OPLS-2005>
0.643335938453674

$$$$
81
                    3D
 Structure written by MMmdl.
165173  0  0  1  0            999 V2000
  -30.6806  -14.5031   20.5562 C   0  0  0  0  0  0
  -30.4206  -12.2979   19.4642 C   0  0  0  0  0  0
  -29.5063  -12.4168   18.2295 C   0  0  0  0  0  0
  -28.0178  -12.2950   18.6202 C   0  0  0  0  0  0
  -27.6363  -13.1691   19.8401 C   0  0  2  0  0  0
  -28.6715  -13.0312   20.9783 C   0  0  0  0  0  0
  -25.2528  -13.8029   20.5624 C   0  0  0  0  0  0
  -24.1757  -13.0387   20.9205 C   0  0  0  0  0  0
  -24.6282  -11.6856   20.8791 C   0  0  0  0  0  0
  -23.8977  -10.4269   21.0492 C   0  0  0  0  0  0
  -24.3550   -9.4182   21.9239 C   0  0  0  0  0  0
  -23.6237   -8.2210   22.0769 C   0  0  0  0  0  0
  -22.4224   -8.0258   21.3561 C   0  0  0  0  0  0
  -21.9871   -9.0226   20.4651 C   0  0  0  0  0  0
  -22.7195  -10.2117   20.3087 C   0  0  0  0  0  0
  -21.6824   -6.0716   22.5295 C   0  0  0  0  0  0
  -21.4002   -6.5637   23.8221 C   0  0  0  0  0  0
  -21.3652   -5.6798   24.9187 C   0  0  0  0  0  0
  -21.6027   -4.3059   24.7246 C   0  0  0  0  0  0
  -21.8848   -3.8140   23.4390 C   0  0  0  0  0  0
  -21.9178   -4.6943   22.3438 C   0  0  0  0  0  0
  -22.7809  -13.5265   21.1838 C   0  0  0  0  0  0
  -22.1657   -4.2128   21.1008 F   0  0  0  0  0  0
  -21.5567   -3.4565   25.7770 F   0  0  0  0  0  0
  -30.0042  -13.3240   20.4253 N   0  0  0  0  0  0
  -26.2842  -12.9109   20.3146 N   0  0  0  0  0  0
  -25.9163  -11.6339   20.5728 N   0  0  0  0  0  0
  -22.0458  -12.8270   22.0419 N   0  0  0  0  0  0
  -25.4274  -15.1726   20.4041 N   0  0  0  0  0  0
  -31.8515  -14.6409   20.1823 O   0  0  0  0  0  0
  -21.6598   -6.8853   21.4258 O   0  0  0  0  0  0
  -22.3545  -14.5609   20.6733 O   0  0  0  0  0  0
  -24.6106  -31.8695   23.2129 C   0  0  0  0  0  0
  -25.9021  -32.4823   23.8414 C   0  0  1  0  0  0
  -27.2396  -27.4412   20.1261 C   0  0  0  0  0  0
  -25.5901  -33.8639   24.2351 N   0  0  0  0  0  0
  -23.3989  -30.4937   21.5483 C   0  0  2  0  0  0
  -24.8503  -28.9512   20.1273 C   0  0  0  0  0  0
  -22.7370  -29.4676   22.4964 C   0  0  0  0  0  0
  -18.0261  -28.1390   22.8481 C   0  0  0  0  0  0
  -24.1484  -36.7309   23.2632 C   0  0  0  0  0  0
  -25.9242  -30.8340   21.3693 C   0  0  0  0  0  0
  -26.0041  -29.4630   20.7344 C   0  0  0  0  0  0
  -27.1997  -28.7113   20.7462 C   0  0  0  0  0  0
  -26.0763  -26.9456   19.5048 C   0  0  0  0  0  0
  -24.8769  -27.6834   19.5184 C   0  0  0  0  0  0
  -23.6143  -29.8218   20.1648 C   0  0  0  0  0  0
  -25.4106  -36.3129   24.0341 C   0  0  1  0  0  0
  -20.5841  -28.3679   23.1311 C   0  0  2  0  0  0
  -20.6761  -26.9428   22.5404 C   0  0  0  0  0  0
  -19.5757  -26.6411   21.5188 C   0  0  0  0  0  0
  -18.1926  -26.7940   22.1592 C   0  0  0  0  0  0
  -19.1506  -28.8841   23.2902 C   0  0  0  0  0  0
  -18.9453  -30.1435   23.8934 C   0  0  0  0  0  0
  -17.6464  -30.6595   24.0574 C   0  0  0  0  0  0
  -25.9031  -34.9481   23.5135 C   0  0  0  0  0  0
  -16.5347  -29.9114   23.6324 C   0  0  0  0  0  0
  -16.7253  -28.6527   23.0345 C   0  0  0  0  0  0
  -26.4477  -31.6605   25.0725 C   0  0  0  0  0  0
  -25.3761  -31.3684   26.1478 C   0  0  0  0  0  0
  -27.0324  -30.3059   24.6089 C   0  0  0  0  0  0
  -27.6060  -32.4298   25.7509 C   0  0  0  0  0  0
  -27.5574  -37.1829   24.8459 C   0  0  0  0  0  0
  -21.4092  -29.3054   22.3715 N   0  0  0  0  0  0
  -26.4295  -37.3802   23.9391 N   0  0  0  0  0  0
  -24.6619  -31.0805   22.1028 N   0  0  0  0  0  0
  -23.4147  -28.8191   23.2992 O   0  0  0  0  0  0
  -28.3871  -26.6856   20.0421 O   0  0  0  0  0  0
  -26.5582  -34.8929   22.4691 O   0  0  0  0  0  0
  -23.5303  -32.1443   23.7526 O   0  0  0  0  0  0
  -29.4017  -18.3492   23.3398 C   0  0  0  0  0  0
  -31.2410  -18.2286   21.7561 C   0  0  0  0  0  0
  -29.5230  -19.7544   23.3890 C   0  0  0  0  0  0
  -31.3813  -19.6305   21.8319 C   0  0  0  0  0  0
  -30.2232  -17.5776   22.4882 C   0  0  0  0  0  0
  -30.4945  -20.4104   22.6017 C   0  0  0  0  0  0
  -29.2279  -16.2383   19.9198 C   0  0  0  0  0  0
  -28.1943  -17.3153   20.2757 C   0  0  0  0  0  0
  -30.7842  -15.2620   23.3192 C   0  0  0  0  0  0
  -29.7699  -23.9315   21.9520 C   0  0  0  0  0  0
  -28.5976  -24.9342   21.7760 C   0  0  0  0  0  0
  -29.4403  -22.5791   22.6227 C   0  0  0  0  0  0
  -29.0468  -26.3302   21.2606 C   0  0  0  0  0  0
  -29.9300  -16.0791   22.3193 C   0  0  2  0  0  0
  -29.9273  -15.5839   20.9028 N   0  0  0  0  0  0
  -29.3367  -15.9851   18.7124 O   0  0  0  0  0  0
  -30.6266  -21.7820   22.5413 O   0  0  0  0  0  0
  -31.4667  -12.4048   19.1734 H   0  0  0  0  0  0
  -30.3341  -11.3106   19.9216 H   0  0  0  0  0  0
  -29.7643  -11.6338   17.5162 H   0  0  0  0  0  0
  -29.6859  -13.3675   17.7279 H   0  0  0  0  0  0
  -27.8120  -11.2474   18.8408 H   0  0  0  0  0  0
  -27.3876  -12.5520   17.7673 H   0  0  0  0  0  0
  -27.6322  -14.1891   19.4717 H   0  0  0  0  0  0
  -28.6488  -12.0209   21.3868 H   0  0  0  0  0  0
  -28.4046  -13.6931   21.8025 H   0  0  0  0  0  0
  -25.2712   -9.5647   22.4788 H   0  0  0  0  0  0
  -23.9967   -7.4594   22.7482 H   0  0  0  0  0  0
  -21.0808   -8.8764   19.8928 H   0  0  0  0  0  0
  -22.3701  -10.9647   19.6165 H   0  0  0  0  0  0
  -21.2036   -7.6153   23.9748 H   0  0  0  0  0  0
  -21.1415   -6.0505   25.9077 H   0  0  0  0  0  0
  -22.0637   -2.7607   23.2893 H   0  0  0  0  0  0
  -22.4150  -11.9932   22.4722 H   0  0  0  0  0  0
  -21.1119  -13.1320   22.2747 H   0  0  0  0  0  0
  -24.6520  -15.8134   20.5338 H   0  0  0  0  0  0
  -26.2232  -15.6039   19.9574 H   0  0  0  0  0  0
  -26.7066  -32.5568   23.1170 H   0  0  0  0  0  0
  -25.0111  -33.9817   25.0543 H   0  0  0  0  0  0
  -22.6877  -31.3091   21.4068 H   0  0  0  0  0  0
  -23.3749  -35.9640   23.3324 H   0  0  0  0  0  0
  -24.3570  -36.8889   22.2035 H   0  0  0  0  0  0
  -23.7239  -37.6530   23.6619 H   0  0  0  0  0  0
  -26.0316  -31.5900   20.5891 H   0  0  0  0  0  0
  -26.8145  -30.8975   21.9830 H   0  0  0  0  0  0
  -28.0869  -29.1140   21.2141 H   0  0  0  0  0  0
  -26.1005  -25.9817   19.0156 H   0  0  0  0  0  0
  -23.9881  -27.2783   19.0542 H   0  0  0  0  0  0
  -23.7379  -30.5964   19.4075 H   0  0  0  0  0  0
  -22.7377  -29.2478   19.8574 H   0  0  0  0  0  0
  -25.1288  -36.1999   25.0831 H   0  0  0  0  0  0
  -20.9951  -28.3270   24.1425 H   0  0  0  0  0  0
  -20.5672  -26.2287   23.3591 H   0  0  0  0  0  0
  -21.6636  -26.7491   22.1199 H   0  0  0  0  0  0
  -19.6931  -25.6330   21.1199 H   0  0  0  0  0  0
  -19.6713  -27.3229   20.6731 H   0  0  0  0  0  0
  -17.4201  -26.6685   21.3984 H   0  0  0  0  0  0
  -18.0342  -26.0072   22.8979 H   0  0  0  0  0  0
  -19.7934  -30.7213   24.2340 H   0  0  0  0  0  0
  -17.5042  -31.6285   24.5173 H   0  0  0  0  0  0
  -15.5356  -30.3043   23.7644 H   0  0  0  0  0  0
  -15.8641  -28.0872   22.7052 H   0  0  0  0  0  0
  -24.5977  -30.6969   25.7837 H   0  0  0  0  0  0
  -24.8901  -32.2819   26.4908 H   0  0  0  0  0  0
  -25.8147  -30.8903   27.0249 H   0  0  0  0  0  0
  -26.2883  -29.6811   24.1129 H   0  0  0  0  0  0
  -27.4104  -29.7286   25.4541 H   0  0  0  0  0  0
  -27.8715  -30.4383   23.9243 H   0  0  0  0  0  0
  -27.2709  -33.3605   26.2101 H   0  0  0  0  0  0
  -28.3910  -32.6826   25.0370 H   0  0  0  0  0  0
  -28.0687  -31.8395   26.5430 H   0  0  0  0  0  0
  -28.2602  -38.0116   24.7490 H   0  0  0  0  0  0
  -28.1058  -36.2645   24.6313 H   0  0  0  0  0  0
  -27.2283  -37.1512   25.8862 H   0  0  0  0  0  0
  -20.9228  -29.8829   21.6994 H   0  0  0  0  0  0
  -26.0185  -38.2885   24.1396 H   0  0  0  0  0  0
  -28.6316  -17.8668   23.9210 H   0  0  0  0  0  0
  -31.8873  -17.6704   21.0934 H   0  0  0  0  0  0
  -28.8547  -20.3176   24.0264 H   0  0  0  0  0  0
  -32.1462  -20.1190   21.2449 H   0  0  0  0  0  0
  -27.4989  -17.4686   19.4494 H   0  0  0  0  0  0
  -28.6787  -18.2749   20.4528 H   0  0  0  0  0  0
  -27.6020  -17.0416   21.1489 H   0  0  0  0  0  0
  -30.5851  -15.5817   24.3448 H   0  0  0  0  0  0
  -31.8537  -15.3892   23.1447 H   0  0  0  0  0  0
  -30.5530  -14.1969   23.2847 H   0  0  0  0  0  0
  -30.5633  -24.4032   22.5318 H   0  0  0  0  0  0
  -30.1942  -23.7228   20.9705 H   0  0  0  0  0  0
  -28.0712  -25.0632   22.7233 H   0  0  0  0  0  0
  -27.8631  -24.5156   21.0860 H   0  0  0  0  0  0
  -28.6015  -22.0900   22.1210 H   0  0  0  0  0  0
  -29.1558  -22.7187   23.6689 H   0  0  0  0  0  0
  -30.1144  -26.3148   21.0367 H   0  0  0  0  0  0
  -28.9268  -27.0840   22.0397 H   0  0  0  0  0  0
  -28.9050  -15.9273   22.6606 H   0  0  0  0  0  0
  1 25  1  0  0  0
  1 30  2  0  0  0
  1 85  1  0  0  0
  2  3  1  0  0  0
  2 25  1  0  0  0
  2 88  1  0  0  0
  2 89  1  0  0  0
  3  4  1  0  0  0
  3 90  1  0  0  0
  3 91  1  0  0  0
  4  5  1  0  0  0
  4 92  1  0  0  0
  4 93  1  0  0  0
  5  6  1  0  0  0
  5 26  1  0  0  0
  5 94  1  0  0  0
  6 25  1  0  0  0
  6 95  1  0  0  0
  6 96  1  0  0  0
  7  8  2  0  0  0
  7 26  1  0  0  0
  7 29  1  0  0  0
  8  9  1  0  0  0
  8 22  1  0  0  0
  9 10  1  0  0  0
  9 27  2  0  0  0
 10 11  2  0  0  0
 10 15  1  0  0  0
 11 12  1  0  0  0
 11 97  1  0  0  0
 12 13  2  0  0  0
 12 98  1  0  0  0
 13 14  1  0  0  0
 13 31  1  0  0  0
 14 15  2  0  0  0
 14 99  1  0  0  0
 15100  1  0  0  0
 16 17  2  0  0  0
 16 21  1  0  0  0
 16 31  1  0  0  0
 17 18  1  0  0  0
 17101  1  0  0  0
 18 19  2  0  0  0
 18102  1  0  0  0
 19 20  1  0  0  0
 19 24  1  0  0  0
 20 21  2  0  0  0
 20103  1  0  0  0
 21 23  1  0  0  0
 22 28  1  0  0  0
 22 32  2  0  0  0
 26 27  1  0  0  0
 28104  1  0  0  0
 28105  1  0  0  0
 29106  1  0  0  0
 29107  1  0  0  0
 33 34  1  0  0  0
 33 66  1  0  0  0
 33 70  2  0  0  0
 34 36  1  0  0  0
 34 59  1  0  0  0
 34108  1  0  0  0
 35 44  2  0  0  0
 35 45  1  0  0  0
 35 68  1  0  0  0
 36 56  1  0  0  0
 36109  1  0  0  0
 37 39  1  0  0  0
 37 47  1  0  0  0
 37 66  1  0  0  0
 37110  1  0  0  0
 38 43  2  0  0  0
 38 46  1  0  0  0
 38 47  1  0  0  0
 39 64  1  0  0  0
 39 67  2  0  0  0
 40 52  1  0  0  0
 40 53  2  0  0  0
 40 58  1  0  0  0
 41111  1  0  0  0
 41112  1  0  0  0
 41113  1  0  0  0
 41 48  1  0  0  0
 42 43  1  0  0  0
 42 66  1  0  0  0
 42114  1  0  0  0
 42115  1  0  0  0
 43 44  1  0  0  0
 44116  1  0  0  0
 45 46  2  0  0  0
 45117  1  0  0  0
 46118  1  0  0  0
 47119  1  0  0  0
 47120  1  0  0  0
 48 56  1  0  0  0
 48 65  1  0  0  0
 48121  1  0  0  0
 49 50  1  0  0  0
 49 53  1  0  0  0
 49 64  1  0  0  0
 49122  1  0  0  0
 50 51  1  0  0  0
 50123  1  0  0  0
 50124  1  0  0  0
 51 52  1  0  0  0
 51125  1  0  0  0
 51126  1  0  0  0
 52127  1  0  0  0
 52128  1  0  0  0
 53 54  1  0  0  0
 54 55  2  0  0  0
 54129  1  0  0  0
 55 57  1  0  0  0
 55130  1  0  0  0
 56 69  2  0  0  0
 57 58  2  0  0  0
 57131  1  0  0  0
 58132  1  0  0  0
 59 60  1  0  0  0
 59 61  1  0  0  0
 59 62  1  0  0  0
 60133  1  0  0  0
 60134  1  0  0  0
 60135  1  0  0  0
 61136  1  0  0  0
 61137  1  0  0  0
 61138  1  0  0  0
 62139  1  0  0  0
 62140  1  0  0  0
 62141  1  0  0  0
 63 65  1  0  0  0
 63142  1  0  0  0
 63143  1  0  0  0
 63144  1  0  0  0
 64145  1  0  0  0
 65146  1  0  0  0
 68 83  1  0  0  0
 71 73  2  0  0  0
 71 75  1  0  0  0
 71147  1  0  0  0
 72 74  1  0  0  0
 72 75  2  0  0  0
 72148  1  0  0  0
 73 76  1  0  0  0
 73149  1  0  0  0
 74 76  2  0  0  0
 74150  1  0  0  0
 75 84  1  0  0  0
 76 87  1  0  0  0
 77 78  1  0  0  0
 77 85  1  0  0  0
 77 86  2  0  0  0
 78151  1  0  0  0
 78152  1  0  0  0
 78153  1  0  0  0
 79154  1  0  0  0
 79155  1  0  0  0
 79156  1  0  0  0
 79 84  1  0  0  0
 80 81  1  0  0  0
 80 82  1  0  0  0
 80157  1  0  0  0
 80158  1  0  0  0
 81 83  1  0  0  0
 81159  1  0  0  0
 81160  1  0  0  0
 82 87  1  0  0  0
 82161  1  0  0  0
 82162  1  0  0  0
 83163  1  0  0  0
 83164  1  0  0  0
 84 85  1  0  0  0
 84165  1  0  0  0
M  ISO  4   1 100  68 101  83 101  85 100
M  END
> <chiral flag>
0

> <version>
0

> <s_m_source_file>
/data/baiqing/PycharmProjects/Reinvent-master-3.2/result/LINK_invent/BTK/process_docking_weight1_custom_sum_contain_oxygen_bond_distance_aromatic_linkinvent_7_9_3/rearranged_h_0008.sdf

> <i_m_source_file_index>
82

> <r_mmod_Potential_Energy-OPLS-2005>
115.159118652344

> <r_mmod_Stretch_Energy-OPLS-2005>
43.2034072875977

> <r_mmod_Bend_Energy-OPLS-2005>
108.630508422852

> <r_mmod_Torsional_Energy-OPLS-2005>
331.399078369141

> <r_mmod_Improper_Torsional_Energy-OPLS-2005>
5.96591567993164

> <r_mmod_Van_der_Waal_Energy-OPLS-2005>
165.332931518555

> <r_mmod_Electrostatic_Energy-OPLS-2005>
-365.40283203125

> <r_mmod_Solvation_Energy-OPLS-2005>
-193.385238647461

> <b_mmod_Minimization_Converged-OPLS-2005>
0

> <r_mmod_RMS_Derivative-OPLS-2005>
4.45285606384277

$$$$
82
                    3D
 Structure written by MMmdl.
167175  0  0  1  0            999 V2000
  -29.6423  -15.4496   20.6089 C   0  0  0  0  0  0
  -30.3301  -13.0171   19.6281 C   0  0  0  0  0  0
  -29.5201  -12.6660   18.3474 C   0  0  0  0  0  0
  -28.0699  -12.2773   18.6930 C   0  0  0  0  0  0
  -27.5257  -13.2216   19.7914 C   0  0  2  0  0  0
  -28.4486  -13.2784   21.0043 C   0  0  0  0  0  0
  -25.1982  -13.8094   20.5338 C   0  0  0  0  0  0
  -24.1476  -13.0346   20.9244 C   0  0  0  0  0  0
  -24.6092  -11.6827   20.8766 C   0  0  0  0  0  0
  -23.8886  -10.4215   21.0485 C   0  0  0  0  0  0
  -24.3525   -9.4140   21.9235 C   0  0  0  0  0  0
  -23.6226   -8.2166   22.0760 C   0  0  0  0  0  0
  -22.4205   -8.0220   21.3558 C   0  0  0  0  0  0
  -21.9808   -9.0175   20.4676 C   0  0  0  0  0  0
  -22.7086  -10.2062   20.3101 C   0  0  0  0  0  0
  -21.6817   -6.0693   22.5275 C   0  0  0  0  0  0
  -21.3991   -6.5618   23.8204 C   0  0  0  0  0  0
  -21.3658   -5.6787   24.9180 C   0  0  0  0  0  0
  -21.6058   -4.3050   24.7237 C   0  0  0  0  0  0
  -21.8834   -3.8131   23.4363 C   0  0  0  0  0  0
  -21.9181   -4.6931   22.3410 C   0  0  0  0  0  0
  -22.7570  -13.5170   21.2045 C   0  0  0  0  0  0
  -22.1663   -4.2129   21.0983 F   0  0  0  0  0  0
  -21.5620   -3.4537   25.7748 F   0  0  0  0  0  0
  -29.5508  -14.0197   20.4864 N   0  0  0  0  0  0
  -26.2049  -12.9176   20.2427 N   0  0  0  0  0  0
  -25.8844  -11.6387   20.5390 N   0  0  0  0  0  0
  -22.0264  -12.8149   22.0614 N   0  0  0  0  0  0
  -25.3714  -15.1840   20.3737 N   0  0  0  0  0  0
  -30.8523  -15.7409   20.3638 O   0  0  0  0  0  0
  -21.6600   -6.8813   21.4223 O   0  0  0  0  0  0
  -22.3334  -14.5520   20.6936 O   0  0  0  0  0  0
  -24.6564  -31.9399   23.2011 C   0  0  0  0  0  0
  -25.9435  -32.5143   23.8549 C   0  0  1  0  0  0
  -27.1137  -27.4568   20.2780 C   0  0  0  0  0  0
  -25.6280  -33.8879   24.2573 N   0  0  0  0  0  0
  -23.4741  -30.6249   21.5090 C   0  0  2  0  0  0
  -24.8716  -29.0783   20.0376 C   0  0  0  0  0  0
  -22.9199  -29.6139   22.5010 C   0  0  0  0  0  0
  -18.3207  -27.3495   23.2628 C   0  0  0  0  0  0
  -24.1503  -36.7345   23.2622 C   0  0  0  0  0  0
  -25.9719  -30.9300   21.3339 C   0  0  0  0  0  0
  -26.0256  -29.5733   20.6620 C   0  0  0  0  0  0
  -27.1772  -28.7763   20.7561 C   0  0  0  0  0  0
  -26.0262  -27.0063   19.5133 C   0  0  0  0  0  0
  -24.8792  -27.8110   19.4134 C   0  0  0  0  0  0
  -23.6693  -29.9867   20.0976 C   0  0  0  0  0  0
  -25.4138  -36.3237   24.0329 C   0  0  1  0  0  0
  -21.0898  -28.2253   22.8289 C   0  0  2  0  0  0
  -21.5192  -27.2141   21.1367 C   0  0  0  0  0  0
  -19.9069  -25.7554   20.6558 C   0  0  0  0  0  0
  -18.4859  -25.8831   22.1567 C   0  0  0  0  0  0
  -19.4953  -28.3129   23.5861 C   0  0  0  0  0  0
  -19.1631  -29.6540   24.0423 C   0  0  0  0  0  0
  -17.8619  -30.2177   24.0727 C   0  0  0  0  0  0
  -25.9129  -34.9648   23.5164 C   0  0  0  0  0  0
  -16.7876  -29.4158   23.6619 C   0  0  0  0  0  0
  -17.0274  -28.0552   23.2818 C   0  0  0  0  0  0
  -26.4582  -31.6644   25.0780 C   0  0  0  0  0  0
  -25.3704  -31.3692   26.1337 C   0  0  0  0  0  0
  -27.0256  -30.3054   24.6047 C   0  0  0  0  0  0
  -27.6180  -32.4157   25.7705 C   0  0  0  0  0  0
  -27.5602  -37.1863   24.8459 C   0  0  0  0  0  0
  -21.6105  -29.4975   22.5022 N   0  0  0  0  0  0
  -26.4325  -37.3899   23.9409 N   0  0  0  0  0  0
  -24.7215  -31.1953   22.0639 N   0  0  0  0  0  0
  -23.6461  -28.9524   23.2480 O   0  0  0  0  0  0
  -27.8524  -26.5176   20.9170 O   0  0  0  0  0  0
  -26.5508  -34.9045   22.4618 O   0  0  0  0  0  0
  -23.5721  -32.2033   23.7436 O   0  0  0  0  0  0
  -22.5504  -24.6358   21.0839 C   0  0  0  0  0  0
  -23.6832  -25.2359   21.6532 C   0  0  0  0  0  0
  -22.1569  -25.8779   23.5217 C   0  0  0  0  0  0
  -20.8769  -25.7367   22.7259 C   0  0  0  0  0  0
  -21.6801  -24.2983   22.1276 C   0  0  0  0  0  0
  -23.5420  -25.7916   22.9563 C   0  0  0  0  0  0
  -23.6016  -21.8240   21.7668 C   0  0  0  0  0  0
  -22.4288  -22.4012   23.9054 C   0  0  0  0  0  0
  -25.0747  -20.6318   22.0640 C   0  0  0  0  0  0
  -25.9300  -18.9440   21.4460 C   0  0  0  0  0  0
  -27.6859  -18.0602   21.1075 C   0  0  0  0  0  0
  -27.0500  -25.9417   22.0673 C   0  0  0  0  0  0
  -25.8757  -26.7501   22.8646 C   0  0  0  0  0  0
  -19.4382  -27.7669   21.2917 C   0  0  0  0  0  0
  -28.3935  -16.3961   20.8857 N   0  0  0  0  0  0
  -22.6421  -22.8548   22.5318 N   0  0  0  0  0  0
  -23.3352  -21.7584   20.5672 O   0  0  0  0  0  0
  -24.7488  -26.1211   23.6024 O   0  0  0  0  0  0
  -19.6336  -28.0115   19.9335 F   0  0  0  0  0  0
  -18.1359  -27.7397   20.8306 F   0  0  0  0  0  0
  -19.4600  -29.1350   21.3289 F   0  0  0  0  0  0
  -31.3120  -13.3987   19.3526 H   0  0  0  0  0  0
  -30.5446  -12.0988   20.1830 H   0  0  0  0  0  0
  -30.0013  -11.8695   17.7885 H   0  0  0  0  0  0
  -29.5110  -13.5288   17.6820 H   0  0  0  0  0  0
  -28.0648  -11.2466   19.0433 H   0  0  0  0  0  0
  -27.4412  -12.2933   17.8049 H   0  0  0  0  0  0
  -27.4654  -14.1976   19.3131 H   0  0  0  0  0  0
  -28.7123  -12.2806   21.3705 H   0  0  0  0  0  0
  -27.9779  -13.8028   21.8375 H   0  0  0  0  0  0
  -25.2672   -9.5629   22.4788 H   0  0  0  0  0  0
  -23.9972   -7.4531   22.7395 H   0  0  0  0  0  0
  -21.0782   -8.8674   19.8948 H   0  0  0  0  0  0
  -22.3562  -10.9613   19.6233 H   0  0  0  0  0  0
  -21.1989   -7.6132   23.9706 H   0  0  0  0  0  0
  -21.1470   -6.0525   25.9094 H   0  0  0  0  0  0
  -22.0620   -2.7586   23.2866 H   0  0  0  0  0  0
  -22.3917  -11.9760   22.4884 H   0  0  0  0  0  0
  -21.0893  -13.1155   22.2874 H   0  0  0  0  0  0
  -24.5667  -15.7669   20.5884 H   0  0  0  0  0  0
  -25.9178  -15.5647   19.6029 H   0  0  0  0  0  0
  -26.7656  -32.5963   23.1494 H   0  0  0  0  0  0
  -25.0527  -34.0037   25.0790 H   0  0  0  0  0  0
  -22.7496  -31.4321   21.4001 H   0  0  0  0  0  0
  -23.3820  -35.9627   23.3308 H   0  0  0  0  0  0
  -24.3584  -36.8948   22.2035 H   0  0  0  0  0  0
  -23.7178  -37.6532   23.6604 H   0  0  0  0  0  0
  -26.0917  -31.7209   20.5917 H   0  0  0  0  0  0
  -26.8529  -30.9652   21.9653 H   0  0  0  0  0  0
  -28.0060  -29.1063   21.3689 H   0  0  0  0  0  0
  -26.0053  -25.9922   19.1424 H   0  0  0  0  0  0
  -24.0137  -27.4420   18.8823 H   0  0  0  0  0  0
  -23.8630  -30.7904   19.3822 H   0  0  0  0  0  0
  -22.7692  -29.5144   19.7154 H   0  0  0  0  0  0
  -25.1299  -36.2124   25.0813 H   0  0  0  0  0  0
  -21.6046  -28.0444   23.7602 H   0  0  0  0  0  0
  -22.5554  -27.0527   20.9048 H   0  0  0  0  0  0
  -21.6235  -27.9811   20.3730 H   0  0  0  0  0  0
  -20.1539  -24.7340   20.3904 H   0  0  0  0  0  0
  -19.4735  -25.9212   19.6616 H   0  0  0  0  0  0
  -17.5125  -25.7098   21.6965 H   0  0  0  0  0  0
  -18.5585  -25.0250   22.8283 H   0  0  0  0  0  0
  -19.9809  -30.3110   24.2896 H   0  0  0  0  0  0
  -17.7150  -31.2454   24.3744 H   0  0  0  0  0  0
  -15.7886  -29.8320   23.6343 H   0  0  0  0  0  0
  -16.1662  -27.5157   22.9058 H   0  0  0  0  0  0
  -24.5865  -30.7191   25.7406 H   0  0  0  0  0  0
  -24.8945  -32.2845   26.4879 H   0  0  0  0  0  0
  -25.7891  -30.8627   27.0041 H   0  0  0  0  0  0
  -26.2723  -29.7043   24.0944 H   0  0  0  0  0  0
  -27.3776  -29.7086   25.4482 H   0  0  0  0  0  0
  -27.8739  -30.4264   23.9291 H   0  0  0  0  0  0
  -27.2880  -33.3431   26.2388 H   0  0  0  0  0  0
  -28.4077  -32.6736   25.0625 H   0  0  0  0  0  0
  -28.0729  -31.8118   26.5578 H   0  0  0  0  0  0
  -28.2610  -38.0170   24.7568 H   0  0  0  0  0  0
  -28.1099  -36.2714   24.6224 H   0  0  0  0  0  0
  -27.2288  -37.1418   25.8845 H   0  0  0  0  0  0
  -21.0311  -30.0924   21.9206 H   0  0  0  0  0  0
  -26.0230  -38.2974   24.1458 H   0  0  0  0  0  0
  -22.6252  -24.0680   20.1670 H   0  0  0  0  0  0
  -24.6210  -25.2116   21.1282 H   0  0  0  0  0  0
  -22.0679  -26.2616   24.5260 H   0  0  0  0  0  0
  -21.3865  -22.5672   24.1897 H   0  0  0  0  0  0
  -23.0551  -22.9216   24.6219 H   0  0  0  0  0  0
  -22.5926  -21.3248   24.0219 H   0  0  0  0  0  0
  -25.8971  -21.3389   21.9486 H   0  0  0  0  0  0
  -25.0765  -20.4849   23.1443 H   0  0  0  0  0  0
  -25.3534  -18.7257   20.5431 H   0  0  0  0  0  0
  -25.5013  -18.2443   22.1765 H   0  0  0  0  0  0
  -28.3676  -18.5564   21.8130 H   0  0  0  0  0  0
  -28.0361  -18.5748   20.1983 H   0  0  0  0  0  0
  -26.6468  -24.9875   21.7401 H   0  0  0  0  0  0
  -27.7742  -25.6377   22.8273 H   0  0  0  0  0  0
  -25.3956  -27.4683   22.2127 H   0  0  0  0  0  0
  -26.3704  -27.3596   23.6306 H   0  0  0  0  0  0
  -27.6364  -15.7306   20.9801 H   0  0  0  0  0  0
  1 25  1  0  0  0
  1 30  2  0  0  0
  1 85  1  0  0  0
  2  3  1  0  0  0
  2 25  1  0  0  0
  2 92  1  0  0  0
  2 93  1  0  0  0
  3  4  1  0  0  0
  3 94  1  0  0  0
  3 95  1  0  0  0
  4  5  1  0  0  0
  4 96  1  0  0  0
  4 97  1  0  0  0
  5  6  1  0  0  0
  5 26  1  0  0  0
  5 98  1  0  0  0
  6 25  1  0  0  0
  6 99  1  0  0  0
  6100  1  0  0  0
  7  8  2  0  0  0
  7 26  1  0  0  0
  7 29  1  0  0  0
  8  9  1  0  0  0
  8 22  1  0  0  0
  9 10  1  0  0  0
  9 27  2  0  0  0
 10 11  2  0  0  0
 10 15  1  0  0  0
 11 12  1  0  0  0
 11101  1  0  0  0
 12 13  2  0  0  0
 12102  1  0  0  0
 13 14  1  0  0  0
 13 31  1  0  0  0
 14 15  2  0  0  0
 14103  1  0  0  0
 15104  1  0  0  0
 16 17  2  0  0  0
 16 21  1  0  0  0
 16 31  1  0  0  0
 17 18  1  0  0  0
 17105  1  0  0  0
 18 19  2  0  0  0
 18106  1  0  0  0
 19 20  1  0  0  0
 19 24  1  0  0  0
 20 21  2  0  0  0
 20107  1  0  0  0
 21 23  1  0  0  0
 22 28  1  0  0  0
 22 32  2  0  0  0
 26 27  1  0  0  0
 28108  1  0  0  0
 28109  1  0  0  0
 29110  1  0  0  0
 29111  1  0  0  0
 33 34  1  0  0  0
 33 66  1  0  0  0
 33 70  2  0  0  0
 34 36  1  0  0  0
 34 59  1  0  0  0
 34112  1  0  0  0
 35 44  2  0  0  0
 35 45  1  0  0  0
 35 68  1  0  0  0
 36 56  1  0  0  0
 36113  1  0  0  0
 37 39  1  0  0  0
 37 47  1  0  0  0
 37 66  1  0  0  0
 37114  1  0  0  0
 38 43  2  0  0  0
 38 46  1  0  0  0
 38 47  1  0  0  0
 39 64  1  0  0  0
 39 67  2  0  0  0
 40 52  1  0  0  0
 40 53  2  0  0  0
 40 58  1  0  0  0
 41115  1  0  0  0
 41116  1  0  0  0
 41117  1  0  0  0
 41 48  1  0  0  0
 42 43  1  0  0  0
 42 66  1  0  0  0
 42118  1  0  0  0
 42119  1  0  0  0
 43 44  1  0  0  0
 44120  1  0  0  0
 45 46  2  0  0  0
 45121  1  0  0  0
 46122  1  0  0  0
 47123  1  0  0  0
 47124  1  0  0  0
 48 56  1  0  0  0
 48 65  1  0  0  0
 48125  1  0  0  0
 49 50  1  0  0  0
 49 53  1  0  0  0
 49 64  1  0  0  0
 49126  1  0  0  0
 50 51  1  0  0  0
 50127  1  0  0  0
 50128  1  0  0  0
 51 52  1  0  0  0
 51129  1  0  0  0
 51130  1  0  0  0
 52131  1  0  0  0
 52132  1  0  0  0
 53 54  1  0  0  0
 54 55  2  0  0  0
 54133  1  0  0  0
 55 57  1  0  0  0
 55134  1  0  0  0
 56 69  2  0  0  0
 57 58  2  0  0  0
 57135  1  0  0  0
 58136  1  0  0  0
 59 60  1  0  0  0
 59 61  1  0  0  0
 59 62  1  0  0  0
 60137  1  0  0  0
 60138  1  0  0  0
 60139  1  0  0  0
 61140  1  0  0  0
 61141  1  0  0  0
 61142  1  0  0  0
 62143  1  0  0  0
 62144  1  0  0  0
 62145  1  0  0  0
 63 65  1  0  0  0
 63146  1  0  0  0
 63147  1  0  0  0
 63148  1  0  0  0
 64149  1  0  0  0
 65150  1  0  0  0
 68 82  1  0  0  0
 71 72  2  0  0  0
 71 75  1  0  0  0
 71151  1  0  0  0
 72 76  1  0  0  0
 72152  1  0  0  0
 73 74  1  0  0  0
 73 76  2  0  0  0
 73153  1  0  0  0
 74 75  2  0  0  0
 74 84  1  0  0  0
 75 86  1  0  0  0
 76 88  1  0  0  0
 77 79  1  0  0  0
 77 86  1  0  0  0
 77 87  2  0  0  0
 78 86  1  0  0  0
 78154  1  0  0  0
 78155  1  0  0  0
 78156  1  0  0  0
 79 80  1  0  0  0
 79157  1  0  0  0
 79158  1  0  0  0
 80 81  1  0  0  0
 80159  1  0  0  0
 80160  1  0  0  0
 81 85  1  0  0  0
 81161  1  0  0  0
 81162  1  0  0  0
 82 83  1  0  0  0
 82163  1  0  0  0
 82164  1  0  0  0
 83 88  1  0  0  0
 83165  1  0  0  0
 83166  1  0  0  0
 84 89  1  0  0  0
 84 90  1  0  0  0
 84 91  1  0  0  0
 85167  1  0  0  0
M  ISO  4   1 100  68 101  82 101  85 100
M  END
> <chiral flag>
0

> <version>
0

> <s_m_source_file>
/data/baiqing/PycharmProjects/Reinvent-master-3.2/result/LINK_invent/BTK/process_docking_weight1_custom_sum_contain_oxygen_bond_distance_aromatic_linkinvent_7_9_3/rearranged_h_0008.sdf

> <i_m_source_file_index>
83

> <r_mmod_Potential_Energy-OPLS-2005>
10803.7041015625

> <r_mmod_Stretch_Energy-OPLS-2005>
5684.5146484375

> <r_mmod_Bend_Energy-OPLS-2005>
1376.63049316406

> <r_mmod_Torsional_Energy-OPLS-2005>
671.088684082031

> <r_mmod_Improper_Torsional_Energy-OPLS-2005>
76.5477447509766

> <r_mmod_Van_der_Waal_Energy-OPLS-2005>
1958.12451171875

> <r_mmod_Electrostatic_Energy-OPLS-2005>
-401.195281982422

> <r_mmod_Solvation_Energy-OPLS-2005>
-213.017471313477

> <b_mmod_Minimization_Converged-OPLS-2005>
0

> <r_mmod_RMS_Derivative-OPLS-2005>
18.3468990325928

$$$$
83
                    3D
 Structure written by MMmdl.
154162  0  0  1  0            999 V2000
  -30.5780  -14.9293   20.5079 C   0  0  0  0  0  0
  -30.4616  -12.5927   19.4985 C   0  0  0  0  0  0
  -29.5338  -12.5159   18.2603 C   0  0  0  0  0  0
  -28.0676  -12.3004   18.6783 C   0  0  0  0  0  0
  -27.6454  -13.2340   19.8397 C   0  0  2  0  0  0
  -28.6851  -13.2230   20.9765 C   0  0  0  0  0  0
  -25.2567  -13.8180   20.5693 C   0  0  0  0  0  0
  -24.1864  -13.0434   20.9177 C   0  0  0  0  0  0
  -24.6439  -11.6909   20.8731 C   0  0  0  0  0  0
  -23.9108  -10.4287   21.0394 C   0  0  0  0  0  0
  -24.3645   -9.4204   21.9175 C   0  0  0  0  0  0
  -23.6308   -8.2253   22.0759 C   0  0  0  0  0  0
  -22.4284   -8.0286   21.3549 C   0  0  0  0  0  0
  -21.9924   -9.0269   20.4657 C   0  0  0  0  0  0
  -22.7272  -10.2141   20.3057 C   0  0  0  0  0  0
  -21.6860   -6.0733   22.5269 C   0  0  0  0  0  0
  -21.4013   -6.5631   23.8202 C   0  0  0  0  0  0
  -21.3655   -5.6791   24.9165 C   0  0  0  0  0  0
  -21.6045   -4.3056   24.7222 C   0  0  0  0  0  0
  -21.8826   -3.8145   23.4341 C   0  0  0  0  0  0
  -21.9197   -4.6957   22.3403 C   0  0  0  0  0  0
  -22.7876  -13.5220   21.1812 C   0  0  0  0  0  0
  -22.1669   -4.2147   21.0979 F   0  0  0  0  0  0
  -21.5626   -3.4540   25.7739 F   0  0  0  0  0  0
  -29.9716  -13.6686   20.4138 N   0  0  0  0  0  0
  -26.2987  -12.9389   20.3229 N   0  0  0  0  0  0
  -25.9376  -11.6533   20.5719 N   0  0  0  0  0  0
  -22.0528  -12.8245   22.0389 N   0  0  0  0  0  0
  -25.4304  -15.1914   20.4166 N   0  0  0  0  0  0
  -31.7129  -15.0406   20.0313 O   0  0  0  0  0  0
  -21.6645   -6.8883   21.4239 O   0  0  0  0  0  0
  -22.3554  -14.5507   20.6613 O   0  0  0  0  0  0
  -24.6388  -31.8474   23.1886 C   0  0  0  0  0  0
  -25.9155  -32.4733   23.8268 C   0  0  1  0  0  0
  -27.2256  -27.1520   20.1473 C   0  0  0  0  0  0
  -25.5898  -33.8542   24.2179 N   0  0  0  0  0  0
  -23.4406  -30.4653   21.5379 C   0  0  2  0  0  0
  -24.8944  -28.8984   20.1105 C   0  0  0  0  0  0
  -22.7543  -29.4538   22.4890 C   0  0  0  0  0  0
  -18.0271  -28.1393   22.8484 C   0  0  0  0  0  0
  -24.1469  -36.7289   23.2641 C   0  0  0  0  0  0
  -25.9992  -30.7285   21.3816 C   0  0  0  0  0  0
  -26.0739  -29.3414   20.7218 C   0  0  0  0  0  0
  -27.2418  -28.4876   20.7169 C   0  0  0  0  0  0
  -26.0162  -26.8091   19.4981 C   0  0  0  0  0  0
  -24.8777  -27.6430   19.4857 C   0  0  0  0  0  0
  -23.6684  -29.7999   20.1560 C   0  0  0  0  0  0
  -25.4112  -36.3076   24.0318 C   0  0  1  0  0  0
  -20.5891  -28.3720   23.1275 C   0  0  2  0  0  0
  -20.6801  -26.9437   22.5423 C   0  0  0  0  0  0
  -19.5791  -26.6379   21.5224 C   0  0  0  0  0  0
  -18.1944  -26.7929   22.1604 C   0  0  0  0  0  0
  -19.1530  -28.8869   23.2860 C   0  0  0  0  0  0
  -18.9453  -30.1451   23.8908 C   0  0  0  0  0  0
  -17.6471  -30.6606   24.0547 C   0  0  0  0  0  0
  -25.9065  -34.9441   23.5066 C   0  0  0  0  0  0
  -16.5354  -29.9110   23.6341 C   0  0  0  0  0  0
  -16.7255  -28.6506   23.0392 C   0  0  0  0  0  0
  -26.4469  -31.6602   25.0703 C   0  0  0  0  0  0
  -25.3631  -31.3794   26.1402 C   0  0  0  0  0  0
  -27.0323  -30.3000   24.6256 C   0  0  0  0  0  0
  -27.6025  -32.4369   25.7480 C   0  0  0  0  0  0
  -27.5581  -37.1779   24.8455 C   0  0  0  0  0  0
  -21.4237  -29.3038   22.3647 N   0  0  0  0  0  0
  -26.4287  -37.3782   23.9414 N   0  0  0  0  0  0
  -24.7130  -31.0337   22.0921 N   0  0  0  0  0  0
  -23.4208  -28.8075   23.3008 O   0  0  0  0  0  0
  -28.2834  -26.1720   20.2227 O   0  0  0  0  0  0
  -26.5687  -34.8927   22.4666 O   0  0  0  0  0  0
  -23.5512  -32.1352   23.7104 O   0  0  0  0  0  0
  -30.4577  -18.5005   20.1244 C   0  0  0  0  0  0
  -28.4728  -18.1440   21.3312 C   0  0  0  0  0  0
  -30.1255  -19.9299   20.0161 C   0  0  0  0  0  0
  -28.1347  -19.5422   21.1999 C   0  0  0  0  0  0
  -29.6458  -17.5108   20.8010 C   0  0  0  0  0  0
  -28.9270  -20.5366   20.5454 C   0  0  0  0  0  0
  -29.7538  -23.4309   21.7002 C   0  0  0  0  0  0
  -29.8139  -15.8019   22.6020 C   0  0  0  0  0  0
  -27.9831  -24.6452   20.1405 C   0  0  0  0  0  0
  -28.9912  -23.3018   20.3749 C   0  0  2  0  0  0
  -29.9373  -16.0326   21.1517 N   0  0  0  0  0  0
  -28.3771  -21.8928   20.4224 O   0  0  0  0  0  0
  -31.4911  -12.7623   19.1763 H   0  0  0  0  0  0
  -30.4845  -11.6375   20.0246 H   0  0  0  0  0  0
  -29.8558  -11.7021   17.6070 H   0  0  0  0  0  0
  -29.6223  -13.4314   17.6738 H   0  0  0  0  0  0
  -27.9701  -11.2613   18.9950 H   0  0  0  0  0  0
  -27.4033  -12.4212   17.8227 H   0  0  0  0  0  0
  -27.6238  -14.2419   19.4248 H   0  0  0  0  0  0
  -28.7826  -12.2265   21.4084 H   0  0  0  0  0  0
  -28.3406  -13.8606   21.7839 H   0  0  0  0  0  0
  -25.2794   -9.5666   22.4733 H   0  0  0  0  0  0
  -24.0010   -7.4639   22.7485 H   0  0  0  0  0  0
  -21.0849   -8.8796   19.8970 H   0  0  0  0  0  0
  -22.3736  -10.9672   19.6161 H   0  0  0  0  0  0
  -21.2009   -7.6146   23.9700 H   0  0  0  0  0  0
  -21.1462   -6.0524   25.9065 H   0  0  0  0  0  0
  -22.0610   -2.7609   23.2848 H   0  0  0  0  0  0
  -22.4185  -11.9986   22.4875 H   0  0  0  0  0  0
  -21.1115  -13.1231   22.2500 H   0  0  0  0  0  0
  -24.6700  -15.8501   20.5409 H   0  0  0  0  0  0
  -26.2913  -15.6305   20.1167 H   0  0  0  0  0  0
  -26.7217  -32.5327   23.1010 H   0  0  0  0  0  0
  -24.9939  -33.9689   25.0242 H   0  0  0  0  0  0
  -22.7381  -31.2886   21.3853 H   0  0  0  0  0  0
  -23.3751  -35.9593   23.3277 H   0  0  0  0  0  0
  -24.3553  -36.8970   22.2056 H   0  0  0  0  0  0
  -23.7207  -37.6464   23.6723 H   0  0  0  0  0  0
  -26.1416  -31.4820   20.6063 H   0  0  0  0  0  0
  -26.8728  -30.7877   22.0176 H   0  0  0  0  0  0
  -28.1428  -28.8323   21.2036 H   0  0  0  0  0  0
  -25.9098  -25.8569   19.0045 H   0  0  0  0  0  0
  -23.9736  -27.2965   19.0046 H   0  0  0  0  0  0
  -23.8056  -30.5825   19.4074 H   0  0  0  0  0  0
  -22.7810  -29.2487   19.8428 H   0  0  0  0  0  0
  -25.1272  -36.1917   25.0808 H   0  0  0  0  0  0
  -20.9934  -28.3319   24.1418 H   0  0  0  0  0  0
  -20.5759  -26.2305   23.3615 H   0  0  0  0  0  0
  -21.6665  -26.7520   22.1182 H   0  0  0  0  0  0
  -19.6984  -25.6282   21.1285 H   0  0  0  0  0  0
  -19.6764  -27.3163   20.6736 H   0  0  0  0  0  0
  -17.4230  -26.6668   21.3985 H   0  0  0  0  0  0
  -18.0345  -26.0064   22.8986 H   0  0  0  0  0  0
  -19.7933  -30.7226   24.2345 H   0  0  0  0  0  0
  -17.5033  -31.6315   24.5107 H   0  0  0  0  0  0
  -15.5365  -30.3024   23.7681 H   0  0  0  0  0  0
  -15.8636  -28.0813   22.7187 H   0  0  0  0  0  0
  -24.5805  -30.7166   25.7696 H   0  0  0  0  0  0
  -24.8793  -32.2957   26.4779 H   0  0  0  0  0  0
  -25.7858  -30.8974   27.0215 H   0  0  0  0  0  0
  -26.2916  -29.6744   24.1254 H   0  0  0  0  0  0
  -27.3945  -29.7295   25.4812 H   0  0  0  0  0  0
  -27.8815  -30.4241   23.9541 H   0  0  0  0  0  0
  -27.2665  -33.3725   26.1965 H   0  0  0  0  0  0
  -28.3870  -32.6856   25.0316 H   0  0  0  0  0  0
  -28.0646  -31.8533   26.5451 H   0  0  0  0  0  0
  -28.2564  -38.0099   24.7556 H   0  0  0  0  0  0
  -28.1113  -36.2644   24.6220 H   0  0  0  0  0  0
  -27.2311  -37.1362   25.8855 H   0  0  0  0  0  0
  -20.9454  -29.8731   21.6804 H   0  0  0  0  0  0
  -26.0158  -38.2840   24.1467 H   0  0  0  0  0  0
  -31.3936  -18.1788   19.6908 H   0  0  0  0  0  0
  -27.7749  -17.5305   21.8815 H   0  0  0  0  0  0
  -30.8125  -20.5709   19.4822 H   0  0  0  0  0  0
  -27.2030  -19.8659   21.6418 H   0  0  0  0  0  0
  -30.2371  -24.4026   21.7947 H   0  0  0  0  0  0
  -30.5339  -22.6721   21.7707 H   0  0  0  0  0  0
  -29.0857  -23.3033   22.5520 H   0  0  0  0  0  0
  -30.2391  -16.6372   23.1600 H   0  0  0  0  0  0
  -30.3385  -14.9104   22.9563 H   0  0  0  0  0  0
  -28.7710  -15.7074   22.9027 H   0  0  0  0  0  0
  -27.1365  -24.4942   20.8121 H   0  0  0  0  0  0
  -27.5784  -24.4959   19.1409 H   0  0  0  0  0  0
  -29.7248  -23.3054   19.5671 H   0  0  0  0  0  0
  1 25  1  0  0  0
  1 30  2  0  0  0
  1 81  1  0  0  0
  2  3  1  0  0  0
  2 25  1  0  0  0
  2 83  1  0  0  0
  2 84  1  0  0  0
  3  4  1  0  0  0
  3 85  1  0  0  0
  3 86  1  0  0  0
  4  5  1  0  0  0
  4 87  1  0  0  0
  4 88  1  0  0  0
  5  6  1  0  0  0
  5 26  1  0  0  0
  5 89  1  0  0  0
  6 25  1  0  0  0
  6 90  1  0  0  0
  6 91  1  0  0  0
  7  8  2  0  0  0
  7 26  1  0  0  0
  7 29  1  0  0  0
  8  9  1  0  0  0
  8 22  1  0  0  0
  9 10  1  0  0  0
  9 27  2  0  0  0
 10 11  2  0  0  0
 10 15  1  0  0  0
 11 12  1  0  0  0
 11 92  1  0  0  0
 12 13  2  0  0  0
 12 93  1  0  0  0
 13 14  1  0  0  0
 13 31  1  0  0  0
 14 15  2  0  0  0
 14 94  1  0  0  0
 15 95  1  0  0  0
 16 17  2  0  0  0
 16 21  1  0  0  0
 16 31  1  0  0  0
 17 18  1  0  0  0
 17 96  1  0  0  0
 18 19  2  0  0  0
 18 97  1  0  0  0
 19 20  1  0  0  0
 19 24  1  0  0  0
 20 21  2  0  0  0
 20 98  1  0  0  0
 21 23  1  0  0  0
 22 28  1  0  0  0
 22 32  2  0  0  0
 26 27  1  0  0  0
 28 99  1  0  0  0
 28100  1  0  0  0
 29101  1  0  0  0
 29102  1  0  0  0
 33 34  1  0  0  0
 33 66  1  0  0  0
 33 70  2  0  0  0
 34 36  1  0  0  0
 34 59  1  0  0  0
 34103  1  0  0  0
 35 44  2  0  0  0
 35 45  1  0  0  0
 35 68  1  0  0  0
 36 56  1  0  0  0
 36104  1  0  0  0
 37 39  1  0  0  0
 37 47  1  0  0  0
 37 66  1  0  0  0
 37105  1  0  0  0
 38 43  2  0  0  0
 38 46  1  0  0  0
 38 47  1  0  0  0
 39 64  1  0  0  0
 39 67  2  0  0  0
 40 52  1  0  0  0
 40 53  2  0  0  0
 40 58  1  0  0  0
 41106  1  0  0  0
 41107  1  0  0  0
 41108  1  0  0  0
 41 48  1  0  0  0
 42 43  1  0  0  0
 42 66  1  0  0  0
 42109  1  0  0  0
 42110  1  0  0  0
 43 44  1  0  0  0
 44111  1  0  0  0
 45 46  2  0  0  0
 45112  1  0  0  0
 46113  1  0  0  0
 47114  1  0  0  0
 47115  1  0  0  0
 48 56  1  0  0  0
 48 65  1  0  0  0
 48116  1  0  0  0
 49 50  1  0  0  0
 49 53  1  0  0  0
 49 64  1  0  0  0
 49117  1  0  0  0
 50 51  1  0  0  0
 50118  1  0  0  0
 50119  1  0  0  0
 51 52  1  0  0  0
 51120  1  0  0  0
 51121  1  0  0  0
 52122  1  0  0  0
 52123  1  0  0  0
 53 54  1  0  0  0
 54 55  2  0  0  0
 54124  1  0  0  0
 55 57  1  0  0  0
 55125  1  0  0  0
 56 69  2  0  0  0
 57 58  2  0  0  0
 57126  1  0  0  0
 58127  1  0  0  0
 59 60  1  0  0  0
 59 61  1  0  0  0
 59 62  1  0  0  0
 60128  1  0  0  0
 60129  1  0  0  0
 60130  1  0  0  0
 61131  1  0  0  0
 61132  1  0  0  0
 61133  1  0  0  0
 62134  1  0  0  0
 62135  1  0  0  0
 62136  1  0  0  0
 63 65  1  0  0  0
 63137  1  0  0  0
 63138  1  0  0  0
 63139  1  0  0  0
 64140  1  0  0  0
 65141  1  0  0  0
 68 79  1  0  0  0
 71 73  2  0  0  0
 71 75  1  0  0  0
 71142  1  0  0  0
 72 74  1  0  0  0
 72 75  2  0  0  0
 72143  1  0  0  0
 73 76  1  0  0  0
 73144  1  0  0  0
 74 76  2  0  0  0
 74145  1  0  0  0
 75 81  1  0  0  0
 76 82  1  0  0  0
 77146  1  0  0  0
 77147  1  0  0  0
 77148  1  0  0  0
 77 80  1  0  0  0
 78 81  1  0  0  0
 78149  1  0  0  0
 78150  1  0  0  0
 78151  1  0  0  0
 79 80  1  0  0  0
 79152  1  0  0  0
 79153  1  0  0  0
 80 82  1  0  0  0
 80154  1  0  0  0
M  ISO  4   1 100  68 101  79 101  81 100
M  END
> <chiral flag>
0

> <version>
0

> <s_m_source_file>
/data/baiqing/PycharmProjects/Reinvent-master-3.2/result/LINK_invent/BTK/process_docking_weight1_custom_sum_contain_oxygen_bond_distance_aromatic_linkinvent_7_9_3/rearranged_h_0008.sdf

> <i_m_source_file_index>
84

> <r_mmod_Potential_Energy-OPLS-2005>
665.453552246094

> <r_mmod_Stretch_Energy-OPLS-2005>
244.34831237793

> <r_mmod_Bend_Energy-OPLS-2005>
303.352020263672

> <r_mmod_Torsional_Energy-OPLS-2005>
301.848083496094

> <r_mmod_Improper_Torsional_Energy-OPLS-2005>
3.58752346038818

> <r_mmod_Van_der_Waal_Energy-OPLS-2005>
137.346664428711

> <r_mmod_Electrostatic_Energy-OPLS-2005>
-309.305023193359

> <r_mmod_Solvation_Energy-OPLS-2005>
-190.895782470703

> <b_mmod_Minimization_Converged-OPLS-2005>
0

> <r_mmod_RMS_Derivative-OPLS-2005>
3.39593648910522

$$$$
84
                    3D
 Structure written by MMmdl.
148156  0  0  1  0            999 V2000
  -30.5089  -14.9122   20.4351 C   0  0  0  0  0  0
  -30.4555  -12.5616   19.4901 C   0  0  0  0  0  0
  -29.5264  -12.5317   18.2520 C   0  0  0  0  0  0
  -28.0565  -12.3206   18.6662 C   0  0  0  0  0  0
  -27.6389  -13.2354   19.8464 C   0  0  2  0  0  0
  -28.6835  -13.2119   20.9840 C   0  0  0  0  0  0
  -25.2500  -13.8182   20.5681 C   0  0  0  0  0  0
  -24.1806  -13.0431   20.9230 C   0  0  0  0  0  0
  -24.6402  -11.6911   20.8760 C   0  0  0  0  0  0
  -23.9076  -10.4289   21.0416 C   0  0  0  0  0  0
  -24.3624   -9.4201   21.9190 C   0  0  0  0  0  0
  -23.6294   -8.2240   22.0758 C   0  0  0  0  0  0
  -22.4276   -8.0282   21.3547 C   0  0  0  0  0  0
  -21.9915   -9.0259   20.4652 C   0  0  0  0  0  0
  -22.7249  -10.2135   20.3063 C   0  0  0  0  0  0
  -21.6853   -6.0736   22.5279 C   0  0  0  0  0  0
  -21.4015   -6.5640   23.8212 C   0  0  0  0  0  0
  -21.3659   -5.6793   24.9175 C   0  0  0  0  0  0
  -21.6044   -4.3056   24.7225 C   0  0  0  0  0  0
  -21.8818   -3.8147   23.4347 C   0  0  0  0  0  0
  -21.9192   -4.6963   22.3402 C   0  0  0  0  0  0
  -22.7826  -13.5218   21.1880 C   0  0  0  0  0  0
  -22.1661   -4.2149   21.0979 F   0  0  0  0  0  0
  -21.5626   -3.4539   25.7738 F   0  0  0  0  0  0
  -29.9682  -13.6307   20.4025 N   0  0  0  0  0  0
  -26.2925  -12.9392   20.3247 N   0  0  0  0  0  0
  -25.9332  -11.6537   20.5742 N   0  0  0  0  0  0
  -22.0465  -12.8213   22.0434 N   0  0  0  0  0  0
  -25.4162  -15.1901   20.4026 N   0  0  0  0  0  0
  -31.6970  -15.0562   20.1234 O   0  0  0  0  0  0
  -21.6639   -6.8881   21.4242 O   0  0  0  0  0  0
  -22.3518  -14.5520   20.6717 O   0  0  0  0  0  0
  -24.6422  -31.8456   23.1895 C   0  0  0  0  0  0
  -25.9199  -32.4704   23.8282 C   0  0  1  0  0  0
  -27.2214  -27.1519   20.1469 C   0  0  0  0  0  0
  -25.5952  -33.8509   24.2201 N   0  0  0  0  0  0
  -23.4453  -30.4654   21.5351 C   0  0  2  0  0  0
  -24.8953  -28.8959   20.1105 C   0  0  0  0  0  0
  -22.7562  -29.4552   22.4864 C   0  0  0  0  0  0
  -18.0305  -28.1392   22.8480 C   0  0  0  0  0  0
  -24.1492  -36.7261   23.2642 C   0  0  0  0  0  0
  -26.0006  -30.7245   21.3860 C   0  0  0  0  0  0
  -26.0728  -29.3373   20.7273 C   0  0  0  0  0  0
  -27.2369  -28.4820   20.7280 C   0  0  0  0  0  0
  -26.0152  -26.8096   19.4937 C   0  0  0  0  0  0
  -24.8787  -27.6448   19.4786 C   0  0  0  0  0  0
  -23.6712  -29.7962   20.1539 C   0  0  0  0  0  0
  -25.4122  -36.3038   24.0318 C   0  0  1  0  0  0
  -20.5917  -28.3717   23.1239 C   0  0  2  0  0  0
  -20.6789  -26.9422   22.5403 C   0  0  0  0  0  0
  -19.5760  -26.6380   21.5213 C   0  0  0  0  0  0
  -18.1944  -26.7931   22.1628 C   0  0  0  0  0  0
  -19.1562  -28.8873   23.2853 C   0  0  0  0  0  0
  -18.9477  -30.1469   23.8878 C   0  0  0  0  0  0
  -17.6473  -30.6589   24.0558 C   0  0  0  0  0  0
  -25.9071  -34.9412   23.5068 C   0  0  0  0  0  0
  -16.5365  -29.9082   23.6333 C   0  0  0  0  0  0
  -16.7289  -28.6500   23.0357 C   0  0  0  0  0  0
  -26.4522  -31.6564   25.0716 C   0  0  0  0  0  0
  -25.3712  -31.3749   26.1414 C   0  0  0  0  0  0
  -27.0385  -30.2963   24.6283 C   0  0  0  0  0  0
  -27.6053  -32.4328   25.7502 C   0  0  0  0  0  0
  -27.5575  -37.1788   24.8465 C   0  0  0  0  0  0
  -21.4255  -29.3048   22.3615 N   0  0  0  0  0  0
  -26.4286  -37.3749   23.9408 N   0  0  0  0  0  0
  -24.7158  -31.0325   22.0923 N   0  0  0  0  0  0
  -23.4210  -28.8096   23.3008 O   0  0  0  0  0  0
  -28.2796  -26.1752   20.2158 O   0  0  0  0  0  0
  -26.5655  -34.8906   22.4645 O   0  0  0  0  0  0
  -23.5543  -32.1325   23.7122 O   0  0  0  0  0  0
  -30.4979  -18.5502   20.3681 C   0  0  0  0  0  0
  -30.1918  -19.9876   20.3030 C   0  0  0  0  0  0
  -28.2013  -18.0915   20.6159 C   0  0  0  0  0  0
  -29.5058  -17.5125   20.5303 C   0  0  0  0  0  0
  -28.8604  -20.5427   20.3787 C   0  0  0  0  0  0
  -27.8953  -19.4982   20.5370 C   0  0  0  0  0  0
  -27.9814  -24.6559   20.0800 C   0  0  0  0  0  0
  -28.9666  -23.3090   20.3181 C   0  0  0  0  0  0
  -29.6181  -15.9877   20.6567 N   0  0  0  0  0  0
  -28.3436  -21.9122   20.2867 O   0  0  0  0  0  0
  -26.5907  -19.8568   20.6201 F   0  0  0  0  0  0
  -31.4867  -12.7370   19.1791 H   0  0  0  0  0  0
  -30.4561  -11.5962   19.9987 H   0  0  0  0  0  0
  -29.8377  -11.7454   17.5632 H   0  0  0  0  0  0
  -29.6191  -13.4710   17.7045 H   0  0  0  0  0  0
  -27.9424  -11.2750   18.9545 H   0  0  0  0  0  0
  -27.3955  -12.4747   17.8124 H   0  0  0  0  0  0
  -27.6160  -14.2467   19.4405 H   0  0  0  0  0  0
  -28.7608  -12.2155   21.4218 H   0  0  0  0  0  0
  -28.3869  -13.8773   21.7964 H   0  0  0  0  0  0
  -25.2769   -9.5672   22.4767 H   0  0  0  0  0  0
  -24.0000   -7.4629   22.7477 H   0  0  0  0  0  0
  -21.0844   -8.8784   19.8957 H   0  0  0  0  0  0
  -22.3712  -10.9678   19.6174 H   0  0  0  0  0  0
  -21.2010   -7.6149   23.9716 H   0  0  0  0  0  0
  -21.1480   -6.0523   25.9077 H   0  0  0  0  0  0
  -22.0597   -2.7608   23.2848 H   0  0  0  0  0  0
  -22.4083  -11.9878   22.4830 H   0  0  0  0  0  0
  -21.1084  -13.1242   22.2641 H   0  0  0  0  0  0
  -24.6295  -15.8261   20.4770 H   0  0  0  0  0  0
  -26.2182  -15.6066   19.9499 H   0  0  0  0  0  0
  -26.7265  -32.5316   23.1014 H   0  0  0  0  0  0
  -25.0077  -33.9626   25.0333 H   0  0  0  0  0  0
  -22.7472  -31.2910   21.3818 H   0  0  0  0  0  0
  -23.3757  -35.9590   23.3292 H   0  0  0  0  0  0
  -24.3578  -36.8903   22.2059 H   0  0  0  0  0  0
  -23.7245  -37.6454   23.6684 H   0  0  0  0  0  0
  -26.1536  -31.4794   20.6136 H   0  0  0  0  0  0
  -26.8721  -30.7754   22.0269 H   0  0  0  0  0  0
  -28.1335  -28.8156   21.2313 H   0  0  0  0  0  0
  -25.9102  -25.8553   19.0018 H   0  0  0  0  0  0
  -23.9801  -27.3016   18.9846 H   0  0  0  0  0  0
  -23.8070  -30.5716   19.3992 H   0  0  0  0  0  0
  -22.7864  -29.2380   19.8427 H   0  0  0  0  0  0
  -25.1309  -36.1869   25.0810 H   0  0  0  0  0  0
  -21.0010  -28.3306   24.1360 H   0  0  0  0  0  0
  -20.5685  -26.2330   23.3621 H   0  0  0  0  0  0
  -21.6654  -26.7429   22.1199 H   0  0  0  0  0  0
  -19.6921  -25.6286   21.1255 H   0  0  0  0  0  0
  -19.6694  -27.3179   20.6734 H   0  0  0  0  0  0
  -17.4210  -26.6673   21.4035 H   0  0  0  0  0  0
  -18.0346  -26.0078   22.9030 H   0  0  0  0  0  0
  -19.7952  -30.7291   24.2241 H   0  0  0  0  0  0
  -17.5025  -31.6268   24.5163 H   0  0  0  0  0  0
  -15.5364  -30.2977   23.7663 H   0  0  0  0  0  0
  -15.8691  -28.0808   22.7085 H   0  0  0  0  0  0
  -24.5894  -30.7094   25.7734 H   0  0  0  0  0  0
  -24.8898  -32.2930   26.4792 H   0  0  0  0  0  0
  -25.7998  -30.8952   27.0222 H   0  0  0  0  0  0
  -26.2998  -29.6690   24.1281 H   0  0  0  0  0  0
  -27.3997  -29.7256   25.4848 H   0  0  0  0  0  0
  -27.8906  -30.4204   23.9597 H   0  0  0  0  0  0
  -27.2645  -33.3646   26.2028 H   0  0  0  0  0  0
  -28.3892  -32.6860   25.0352 H   0  0  0  0  0  0
  -28.0689  -31.8488   26.5463 H   0  0  0  0  0  0
  -28.2585  -38.0091   24.7510 H   0  0  0  0  0  0
  -28.1079  -36.2622   24.6295 H   0  0  0  0  0  0
  -27.2293  -37.1437   25.8868 H   0  0  0  0  0  0
  -20.9461  -29.8768   21.6802 H   0  0  0  0  0  0
  -26.0155  -38.2818   24.1409 H   0  0  0  0  0  0
  -31.5349  -18.2525   20.2974 H   0  0  0  0  0  0
  -31.0171  -20.6732   20.1773 H   0  0  0  0  0  0
  -27.3590  -17.4297   20.7477 H   0  0  0  0  0  0
  -27.1214  -24.4889   20.7294 H   0  0  0  0  0  0
  -27.6025  -24.5258   19.0670 H   0  0  0  0  0  0
  -29.4518  -23.4117   21.2888 H   0  0  0  0  0  0
  -29.7707  -23.3307   19.5826 H   0  0  0  0  0  0
  -28.7268  -15.5824   20.8973 H   0  0  0  0  0  0
  1 25  1  0  0  0
  1 30  2  0  0  0
  1 79  1  0  0  0
  2  3  1  0  0  0
  2 25  1  0  0  0
  2 82  1  0  0  0
  2 83  1  0  0  0
  3  4  1  0  0  0
  3 84  1  0  0  0
  3 85  1  0  0  0
  4  5  1  0  0  0
  4 86  1  0  0  0
  4 87  1  0  0  0
  5  6  1  0  0  0
  5 26  1  0  0  0
  5 88  1  0  0  0
  6 25  1  0  0  0
  6 89  1  0  0  0
  6 90  1  0  0  0
  7  8  2  0  0  0
  7 26  1  0  0  0
  7 29  1  0  0  0
  8  9  1  0  0  0
  8 22  1  0  0  0
  9 10  1  0  0  0
  9 27  2  0  0  0
 10 11  2  0  0  0
 10 15  1  0  0  0
 11 12  1  0  0  0
 11 91  1  0  0  0
 12 13  2  0  0  0
 12 92  1  0  0  0
 13 14  1  0  0  0
 13 31  1  0  0  0
 14 15  2  0  0  0
 14 93  1  0  0  0
 15 94  1  0  0  0
 16 17  2  0  0  0
 16 21  1  0  0  0
 16 31  1  0  0  0
 17 18  1  0  0  0
 17 95  1  0  0  0
 18 19  2  0  0  0
 18 96  1  0  0  0
 19 20  1  0  0  0
 19 24  1  0  0  0
 20 21  2  0  0  0
 20 97  1  0  0  0
 21 23  1  0  0  0
 22 28  1  0  0  0
 22 32  2  0  0  0
 26 27  1  0  0  0
 28 98  1  0  0  0
 28 99  1  0  0  0
 29100  1  0  0  0
 29101  1  0  0  0
 33 34  1  0  0  0
 33 66  1  0  0  0
 33 70  2  0  0  0
 34 36  1  0  0  0
 34 59  1  0  0  0
 34102  1  0  0  0
 35 44  2  0  0  0
 35 45  1  0  0  0
 35 68  1  0  0  0
 36 56  1  0  0  0
 36103  1  0  0  0
 37 39  1  0  0  0
 37 47  1  0  0  0
 37 66  1  0  0  0
 37104  1  0  0  0
 38 43  2  0  0  0
 38 46  1  0  0  0
 38 47  1  0  0  0
 39 64  1  0  0  0
 39 67  2  0  0  0
 40 52  1  0  0  0
 40 53  2  0  0  0
 40 58  1  0  0  0
 41105  1  0  0  0
 41106  1  0  0  0
 41107  1  0  0  0
 41 48  1  0  0  0
 42 43  1  0  0  0
 42 66  1  0  0  0
 42108  1  0  0  0
 42109  1  0  0  0
 43 44  1  0  0  0
 44110  1  0  0  0
 45 46  2  0  0  0
 45111  1  0  0  0
 46112  1  0  0  0
 47113  1  0  0  0
 47114  1  0  0  0
 48 56  1  0  0  0
 48 65  1  0  0  0
 48115  1  0  0  0
 49 50  1  0  0  0
 49 53  1  0  0  0
 49 64  1  0  0  0
 49116  1  0  0  0
 50 51  1  0  0  0
 50117  1  0  0  0
 50118  1  0  0  0
 51 52  1  0  0  0
 51119  1  0  0  0
 51120  1  0  0  0
 52121  1  0  0  0
 52122  1  0  0  0
 53 54  1  0  0  0
 54 55  2  0  0  0
 54123  1  0  0  0
 55 57  1  0  0  0
 55124  1  0  0  0
 56 69  2  0  0  0
 57 58  2  0  0  0
 57125  1  0  0  0
 58126  1  0  0  0
 59 60  1  0  0  0
 59 61  1  0  0  0
 59 62  1  0  0  0
 60127  1  0  0  0
 60128  1  0  0  0
 60129  1  0  0  0
 61130  1  0  0  0
 61131  1  0  0  0
 61132  1  0  0  0
 62133  1  0  0  0
 62134  1  0  0  0
 62135  1  0  0  0
 63 65  1  0  0  0
 63136  1  0  0  0
 63137  1  0  0  0
 63138  1  0  0  0
 64139  1  0  0  0
 65140  1  0  0  0
 68 77  1  0  0  0
 71 72  2  0  0  0
 71 74  1  0  0  0
 71141  1  0  0  0
 72 75  1  0  0  0
 72142  1  0  0  0
 73 74  2  0  0  0
 73 76  1  0  0  0
 73143  1  0  0  0
 74 79  1  0  0  0
 75 76  2  0  0  0
 75 80  1  0  0  0
 76 81  1  0  0  0
 77 78  1  0  0  0
 77144  1  0  0  0
 77145  1  0  0  0
 78 80  1  0  0  0
 78146  1  0  0  0
 78147  1  0  0  0
 79148  1  0  0  0
M  ISO  4   1 100  68 101  77 101  79 100
M  END
> <chiral flag>
0

> <version>
0

> <s_m_source_file>
/data/baiqing/PycharmProjects/Reinvent-master-3.2/result/LINK_invent/BTK/process_docking_weight1_custom_sum_contain_oxygen_bond_distance_aromatic_linkinvent_7_9_3/rearranged_h_0008.sdf

> <i_m_source_file_index>
85

> <r_mmod_Potential_Energy-OPLS-2005>
491.091247558594

> <r_mmod_Stretch_Energy-OPLS-2005>
216.953765869141

> <r_mmod_Bend_Energy-OPLS-2005>
302.484619140625

> <r_mmod_Torsional_Energy-OPLS-2005>
212.021713256836

> <r_mmod_Improper_Torsional_Energy-OPLS-2005>
4.76716709136963

> <r_mmod_Van_der_Waal_Energy-OPLS-2005>
130.573699951172

> <r_mmod_Electrostatic_Energy-OPLS-2005>
-337.487060546875

> <r_mmod_Solvation_Energy-OPLS-2005>
-212.451721191406

> <b_mmod_Minimization_Converged-OPLS-2005>
0

> <r_mmod_RMS_Derivative-OPLS-2005>
0.366873770952225

$$$$
85
                    3D
 Structure written by MMmdl.
157165  0  0  1  0            999 V2000
  -30.6743  -14.4723   20.6038 C   0  0  0  0  0  0
  -30.4375  -12.3184   19.4265 C   0  0  0  0  0  0
  -29.5127  -12.5305   18.2112 C   0  0  0  0  0  0
  -28.0301  -12.3818   18.6101 C   0  0  0  0  0  0
  -27.6705  -13.2016   19.8806 C   0  0  2  0  0  0
  -28.7045  -12.9487   20.9997 C   0  0  0  0  0  0
  -25.2652  -13.8148   20.5676 C   0  0  0  0  0  0
  -24.1868  -13.0444   20.9122 C   0  0  0  0  0  0
  -24.6403  -11.6915   20.8668 C   0  0  0  0  0  0
  -23.9057  -10.4320   21.0362 C   0  0  0  0  0  0
  -24.3610   -9.4235   21.9139 C   0  0  0  0  0  0
  -23.6282   -8.2279   22.0736 C   0  0  0  0  0  0
  -22.4254   -8.0307   21.3550 C   0  0  0  0  0  0
  -21.9885   -9.0271   20.4642 C   0  0  0  0  0  0
  -22.7229  -10.2147   20.3022 C   0  0  0  0  0  0
  -21.6869   -6.0737   22.5266 C   0  0  0  0  0  0
  -21.4036   -6.5644   23.8199 C   0  0  0  0  0  0
  -21.3648   -5.6785   24.9156 C   0  0  0  0  0  0
  -21.6024   -4.3046   24.7209 C   0  0  0  0  0  0
  -21.8832   -3.8156   23.4329 C   0  0  0  0  0  0
  -21.9210   -4.6971   22.3384 C   0  0  0  0  0  0
  -22.7900  -13.5261   21.1773 C   0  0  0  0  0  0
  -22.1676   -4.2174   21.0958 F   0  0  0  0  0  0
  -21.5604   -3.4524   25.7710 F   0  0  0  0  0  0
  -30.0420  -13.2751   20.4709 N   0  0  0  0  0  0
  -26.3076  -12.9295   20.3336 N   0  0  0  0  0  0
  -25.9326  -11.6469   20.5673 N   0  0  0  0  0  0
  -22.0535  -12.8277   22.0342 N   0  0  0  0  0  0
  -25.4474  -15.1858   20.4158 N   0  0  0  0  0  0
  -31.7581  -14.7205   20.0632 O   0  0  0  0  0  0
  -21.6651   -6.8883   21.4231 O   0  0  0  0  0  0
  -22.3596  -14.5584   20.6638 O   0  0  0  0  0  0
  -24.6171  -31.8672   23.2091 C   0  0  0  0  0  0
  -25.9096  -32.4817   23.8371 C   0  0  1  0  0  0
  -27.2299  -27.4223   20.1115 C   0  0  0  0  0  0
  -25.5963  -33.8611   24.2308 N   0  0  0  0  0  0
  -23.4025  -30.4913   21.5443 C   0  0  2  0  0  0
  -24.8552  -28.9542   20.1108 C   0  0  0  0  0  0
  -22.7394  -29.4679   22.4946 C   0  0  0  0  0  0
  -18.0242  -28.1426   22.8452 C   0  0  0  0  0  0
  -24.1479  -36.7296   23.2615 C   0  0  0  0  0  0
  -25.9308  -30.8303   21.3632 C   0  0  0  0  0  0
  -26.0121  -29.4615   20.7162 C   0  0  0  0  0  0
  -27.2052  -28.6990   20.7216 C   0  0  0  0  0  0
  -26.0623  -26.9326   19.4935 C   0  0  0  0  0  0
  -24.8754  -27.6881   19.4984 C   0  0  0  0  0  0
  -23.6149  -29.8203   20.1586 C   0  0  0  0  0  0
  -25.4107  -36.3106   24.0314 C   0  0  1  0  0  0
  -20.5846  -28.3712   23.1304 C   0  0  2  0  0  0
  -20.6751  -26.9440   22.5431 C   0  0  0  0  0  0
  -19.5742  -26.6401   21.5194 C   0  0  0  0  0  0
  -18.1907  -26.7966   22.1573 C   0  0  0  0  0  0
  -19.1509  -28.8868   23.2877 C   0  0  0  0  0  0
  -18.9459  -30.1463   23.8921 C   0  0  0  0  0  0
  -17.6481  -30.6624   24.0566 C   0  0  0  0  0  0
  -25.9041  -34.9476   23.5096 C   0  0  0  0  0  0
  -16.5355  -29.9134   23.6347 C   0  0  0  0  0  0
  -16.7243  -28.6550   23.0349 C   0  0  0  0  0  0
  -26.4525  -31.6590   25.0703 C   0  0  0  0  0  0
  -25.3811  -31.3766   26.1472 C   0  0  0  0  0  0
  -27.0303  -30.3003   24.6106 C   0  0  0  0  0  0
  -27.6096  -32.4280   25.7504 C   0  0  0  0  0  0
  -27.5588  -37.1785   24.8431 C   0  0  0  0  0  0
  -21.4108  -29.3099   22.3725 N   0  0  0  0  0  0
  -26.4276  -37.3804   23.9412 N   0  0  0  0  0  0
  -24.6670  -31.0767   22.0986 N   0  0  0  0  0  0
  -23.4150  -28.8200   23.2976 O   0  0  0  0  0  0
  -28.3627  -26.6393   20.0941 O   0  0  0  0  0  0
  -26.5564  -34.8931   22.4632 O   0  0  0  0  0  0
  -23.5375  -32.1453   23.7495 O   0  0  0  0  0  0
  -29.6566  -17.7260   22.0402 C   0  0  0  0  0  0
  -29.4496  -19.0957   21.7485 C   0  0  0  0  0  0
  -29.7642  -17.2330   19.6690 C   0  0  0  0  0  0
  -29.5348  -18.5987   19.3736 C   0  0  0  0  0  0
  -29.8453  -16.7813   21.0074 C   0  0  0  0  0  0
  -29.3997  -19.5577   20.4075 C   0  0  0  0  0  0
  -29.3952  -19.0268   17.9219 C   0  0  0  0  0  0
  -27.9453  -24.3515   21.1384 C   0  0  0  0  0  0
  -28.8444  -23.2847   20.4498 C   0  0  0  0  0  0
  -28.5216  -25.7952   21.2478 C   0  0  0  0  0  0
  -28.5289  -21.8145   20.8548 C   0  0  0  0  0  0
  -30.0178  -15.3980   21.3310 N   0  0  0  0  0  0
  -29.2694  -20.8925   20.0390 O   0  0  0  0  0  0
  -31.4849  -12.4282   19.1367 H   0  0  0  0  0  0
  -30.3425  -11.3016   19.8094 H   0  0  0  0  0  0
  -29.7680  -11.8247   17.4192 H   0  0  0  0  0  0
  -29.6789  -13.5272   17.7982 H   0  0  0  0  0  0
  -27.8319  -11.3200   18.7769 H   0  0  0  0  0  0
  -27.3928  -12.6826   17.7785 H   0  0  0  0  0  0
  -27.7252  -14.2555   19.6045 H   0  0  0  0  0  0
  -28.6842  -11.9000   21.2983 H   0  0  0  0  0  0
  -28.4518  -13.5047   21.9012 H   0  0  0  0  0  0
  -25.2770   -9.5713   22.4692 H   0  0  0  0  0  0
  -24.0020   -7.4660   22.7428 H   0  0  0  0  0  0
  -21.0837   -8.8787   19.8916 H   0  0  0  0  0  0
  -22.3707  -10.9663   19.6112 H   0  0  0  0  0  0
  -21.2063   -7.6157   23.9704 H   0  0  0  0  0  0
  -21.1425   -6.0514   25.9047 H   0  0  0  0  0  0
  -22.0630   -2.7617   23.2828 H   0  0  0  0  0  0
  -22.4120  -11.9936   22.4747 H   0  0  0  0  0  0
  -21.1150  -13.1320   22.2502 H   0  0  0  0  0  0
  -24.6996  -15.8606   20.5299 H   0  0  0  0  0  0
  -26.3270  -15.6128   20.1583 H   0  0  0  0  0  0
  -26.7177  -32.5535   23.1134 H   0  0  0  0  0  0
  -25.0225  -33.9785   25.0525 H   0  0  0  0  0  0
  -22.6918  -31.3080   21.4006 H   0  0  0  0  0  0
  -23.3789  -35.9582   23.3238 H   0  0  0  0  0  0
  -24.3579  -36.8971   22.2041 H   0  0  0  0  0  0
  -23.7182  -37.6452   23.6679 H   0  0  0  0  0  0
  -26.0412  -31.5962   20.5937 H   0  0  0  0  0  0
  -26.8180  -30.8899   21.9809 H   0  0  0  0  0  0
  -28.0979  -29.0830   21.1975 H   0  0  0  0  0  0
  -26.0779  -25.9627   19.0181 H   0  0  0  0  0  0
  -23.9863  -27.2882   19.0309 H   0  0  0  0  0  0
  -23.7240  -30.5913   19.3944 H   0  0  0  0  0  0
  -22.7394  -29.2378   19.8641 H   0  0  0  0  0  0
  -25.1286  -36.1934   25.0805 H   0  0  0  0  0  0
  -20.9932  -28.3306   24.1426 H   0  0  0  0  0  0
  -20.5618  -26.2328   23.3627 H   0  0  0  0  0  0
  -21.6634  -26.7460   22.1261 H   0  0  0  0  0  0
  -19.6907  -25.6294   21.1281 H   0  0  0  0  0  0
  -19.6717  -27.3164   20.6688 H   0  0  0  0  0  0
  -17.4192  -26.6732   21.3942 H   0  0  0  0  0  0
  -18.0254  -26.0097   22.8945 H   0  0  0  0  0  0
  -19.7961  -30.7233   24.2314 H   0  0  0  0  0  0
  -17.5074  -31.6323   24.5146 H   0  0  0  0  0  0
  -15.5374  -30.3071   23.7671 H   0  0  0  0  0  0
  -15.8616  -28.0878   22.7092 H   0  0  0  0  0  0
  -24.5988  -30.7061   25.7902 H   0  0  0  0  0  0
  -24.9018  -32.2956   26.4843 H   0  0  0  0  0  0
  -25.8218  -30.9045   27.0264 H   0  0  0  0  0  0
  -26.2823  -29.6781   24.1179 H   0  0  0  0  0  0
  -27.4051  -29.7217   25.4568 H   0  0  0  0  0  0
  -27.8687  -30.4241   23.9242 H   0  0  0  0  0  0
  -27.2714  -33.3566   26.2099 H   0  0  0  0  0  0
  -28.3951  -32.6839   25.0384 H   0  0  0  0  0  0
  -28.0716  -31.8381   26.5431 H   0  0  0  0  0  0
  -28.2572  -38.0124   24.7593 H   0  0  0  0  0  0
  -28.1117  -36.2674   24.6101 H   0  0  0  0  0  0
  -27.2318  -37.1267   25.8831 H   0  0  0  0  0  0
  -20.9248  -29.8908   21.7037 H   0  0  0  0  0  0
  -26.0159  -38.2853   24.1533 H   0  0  0  0  0  0
  -29.6903  -17.4114   23.0760 H   0  0  0  0  0  0
  -29.3578  -19.7769   22.5827 H   0  0  0  0  0  0
  -29.8558  -16.5315   18.8531 H   0  0  0  0  0  0
  -29.4239  -18.1760   17.2395 H   0  0  0  0  0  0
  -30.1912  -19.7185   17.6469 H   0  0  0  0  0  0
  -28.4379  -19.5263   17.7700 H   0  0  0  0  0  0
  -27.7719  -24.0125   22.1608 H   0  0  0  0  0  0
  -26.9566  -24.3675   20.6796 H   0  0  0  0  0  0
  -29.8871  -23.4770   20.7044 H   0  0  0  0  0  0
  -28.7699  -23.4007   19.3681 H   0  0  0  0  0  0
  -29.5822  -25.7429   21.4931 H   0  0  0  0  0  0
  -28.0609  -26.2859   22.1090 H   0  0  0  0  0  0
  -27.4664  -21.6072   20.7177 H   0  0  0  0  0  0
  -28.7436  -21.6931   21.9141 H   0  0  0  0  0  0
  -29.3622  -15.0256   22.0038 H   0  0  0  0  0  0
  1 25  1  0  0  0
  1 30  2  0  0  0
  1 82  1  0  0  0
  2  3  1  0  0  0
  2 25  1  0  0  0
  2 84  1  0  0  0
  2 85  1  0  0  0
  3  4  1  0  0  0
  3 86  1  0  0  0
  3 87  1  0  0  0
  4  5  1  0  0  0
  4 88  1  0  0  0
  4 89  1  0  0  0
  5  6  1  0  0  0
  5 26  1  0  0  0
  5 90  1  0  0  0
  6 25  1  0  0  0
  6 91  1  0  0  0
  6 92  1  0  0  0
  7  8  2  0  0  0
  7 26  1  0  0  0
  7 29  1  0  0  0
  8  9  1  0  0  0
  8 22  1  0  0  0
  9 10  1  0  0  0
  9 27  2  0  0  0
 10 11  2  0  0  0
 10 15  1  0  0  0
 11 12  1  0  0  0
 11 93  1  0  0  0
 12 13  2  0  0  0
 12 94  1  0  0  0
 13 14  1  0  0  0
 13 31  1  0  0  0
 14 15  2  0  0  0
 14 95  1  0  0  0
 15 96  1  0  0  0
 16 17  2  0  0  0
 16 21  1  0  0  0
 16 31  1  0  0  0
 17 18  1  0  0  0
 17 97  1  0  0  0
 18 19  2  0  0  0
 18 98  1  0  0  0
 19 20  1  0  0  0
 19 24  1  0  0  0
 20 21  2  0  0  0
 20 99  1  0  0  0
 21 23  1  0  0  0
 22 28  1  0  0  0
 22 32  2  0  0  0
 26 27  1  0  0  0
 28100  1  0  0  0
 28101  1  0  0  0
 29102  1  0  0  0
 29103  1  0  0  0
 33 34  1  0  0  0
 33 66  1  0  0  0
 33 70  2  0  0  0
 34 36  1  0  0  0
 34 59  1  0  0  0
 34104  1  0  0  0
 35 44  2  0  0  0
 35 45  1  0  0  0
 35 68  1  0  0  0
 36 56  1  0  0  0
 36105  1  0  0  0
 37 39  1  0  0  0
 37 47  1  0  0  0
 37 66  1  0  0  0
 37106  1  0  0  0
 38 43  2  0  0  0
 38 46  1  0  0  0
 38 47  1  0  0  0
 39 64  1  0  0  0
 39 67  2  0  0  0
 40 52  1  0  0  0
 40 53  2  0  0  0
 40 58  1  0  0  0
 41107  1  0  0  0
 41108  1  0  0  0
 41109  1  0  0  0
 41 48  1  0  0  0
 42 43  1  0  0  0
 42 66  1  0  0  0
 42110  1  0  0  0
 42111  1  0  0  0
 43 44  1  0  0  0
 44112  1  0  0  0
 45 46  2  0  0  0
 45113  1  0  0  0
 46114  1  0  0  0
 47115  1  0  0  0
 47116  1  0  0  0
 48 56  1  0  0  0
 48 65  1  0  0  0
 48117  1  0  0  0
 49 50  1  0  0  0
 49 53  1  0  0  0
 49 64  1  0  0  0
 49118  1  0  0  0
 50 51  1  0  0  0
 50119  1  0  0  0
 50120  1  0  0  0
 51 52  1  0  0  0
 51121  1  0  0  0
 51122  1  0  0  0
 52123  1  0  0  0
 52124  1  0  0  0
 53 54  1  0  0  0
 54 55  2  0  0  0
 54125  1  0  0  0
 55 57  1  0  0  0
 55126  1  0  0  0
 56 69  2  0  0  0
 57 58  2  0  0  0
 57127  1  0  0  0
 58128  1  0  0  0
 59 60  1  0  0  0
 59 61  1  0  0  0
 59 62  1  0  0  0
 60129  1  0  0  0
 60130  1  0  0  0
 60131  1  0  0  0
 61132  1  0  0  0
 61133  1  0  0  0
 61134  1  0  0  0
 62135  1  0  0  0
 62136  1  0  0  0
 62137  1  0  0  0
 63 65  1  0  0  0
 63138  1  0  0  0
 63139  1  0  0  0
 63140  1  0  0  0
 64141  1  0  0  0
 65142  1  0  0  0
 68 80  1  0  0  0
 71 72  2  0  0  0
 71 75  1  0  0  0
 71143  1  0  0  0
 72 76  1  0  0  0
 72144  1  0  0  0
 73 74  1  0  0  0
 73 75  2  0  0  0
 73145  1  0  0  0
 74 76  2  0  0  0
 74 77  1  0  0  0
 75 82  1  0  0  0
 76 83  1  0  0  0
 77146  1  0  0  0
 77147  1  0  0  0
 77148  1  0  0  0
 78 79  1  0  0  0
 78 80  1  0  0  0
 78149  1  0  0  0
 78150  1  0  0  0
 79 81  1  0  0  0
 79151  1  0  0  0
 79152  1  0  0  0
 80153  1  0  0  0
 80154  1  0  0  0
 81 83  1  0  0  0
 81155  1  0  0  0
 81156  1  0  0  0
 82157  1  0  0  0
M  ISO  4   1 100  68 101  80 101  82 100
M  END
> <chiral flag>
0

> <version>
0

> <s_m_source_file>
/data/baiqing/PycharmProjects/Reinvent-master-3.2/result/LINK_invent/BTK/process_docking_weight1_custom_sum_contain_oxygen_bond_distance_aromatic_linkinvent_7_9_3/rearranged_h_0008.sdf

> <i_m_source_file_index>
86

> <r_mmod_Potential_Energy-OPLS-2005>
-27.5373725891113

> <r_mmod_Stretch_Energy-OPLS-2005>
40.8301315307617

> <r_mmod_Bend_Energy-OPLS-2005>
104.972503662109

> <r_mmod_Torsional_Energy-OPLS-2005>
267.506011962891

> <r_mmod_Improper_Torsional_Energy-OPLS-2005>
3.438232421875

> <r_mmod_Van_der_Waal_Energy-OPLS-2005>
145.473388671875

> <r_mmod_Electrostatic_Energy-OPLS-2005>
-394.064971923828

> <r_mmod_Solvation_Energy-OPLS-2005>
-209.151901245117

> <b_mmod_Minimization_Converged-OPLS-2005>
0

> <r_mmod_RMS_Derivative-OPLS-2005>
4.20163011550903

$$$$
86
                    3D
 Structure written by MMmdl.
163171  0  0  1  0            999 V2000
  -30.6445  -14.6360   20.3906 C   0  0  0  0  0  0
  -30.4211  -12.3323   19.4708 C   0  0  0  0  0  0
  -29.5358  -12.5310   18.2247 C   0  0  0  0  0  0
  -28.0452  -12.3922   18.5990 C   0  0  0  0  0  0
  -27.6744  -13.2235   19.8627 C   0  0  2  0  0  0
  -28.7199  -13.0982   21.0019 C   0  0  0  0  0  0
  -25.2734  -13.8199   20.5682 C   0  0  0  0  0  0
  -24.1997  -13.0388   20.9117 C   0  0  0  0  0  0
  -24.6596  -11.6921   20.8695 C   0  0  0  0  0  0
  -23.9228  -10.4298   21.0398 C   0  0  0  0  0  0
  -24.3742   -9.4234   21.9212 C   0  0  0  0  0  0
  -23.6419   -8.2263   22.0741 C   0  0  0  0  0  0
  -22.4366   -8.0336   21.3514 C   0  0  0  0  0  0
  -22.0038   -9.0311   20.4605 C   0  0  0  0  0  0
  -22.7389  -10.2195   20.3016 C   0  0  0  0  0  0
  -21.6866   -6.0801   22.5333 C   0  0  0  0  0  0
  -21.4064   -6.5662   23.8274 C   0  0  0  0  0  0
  -21.3690   -5.6775   24.9212 C   0  0  0  0  0  0
  -21.6038   -4.3056   24.7222 C   0  0  0  0  0  0
  -21.8822   -3.8156   23.4339 C   0  0  0  0  0  0
  -21.9225   -4.6995   22.3412 C   0  0  0  0  0  0
  -22.8031  -13.5282   21.1724 C   0  0  0  0  0  0
  -22.1677   -4.2207   21.0993 F   0  0  0  0  0  0
  -21.5607   -3.4522   25.7719 F   0  0  0  0  0  0
  -30.0392  -13.3986   20.4240 N   0  0  0  0  0  0
  -26.3184  -12.9377   20.3285 N   0  0  0  0  0  0
  -25.9557  -11.6535   20.5706 N   0  0  0  0  0  0
  -22.0623  -12.8295   22.0295 N   0  0  0  0  0  0
  -25.4277  -15.1897   20.4185 N   0  0  0  0  0  0
  -31.8314  -14.7624   20.0894 O   0  0  0  0  0  0
  -21.6645   -6.8991   21.4299 O   0  0  0  0  0  0
  -22.3788  -14.5599   20.6625 O   0  0  0  0  0  0
  -24.6320  -31.8549   23.1946 C   0  0  0  0  0  0
  -25.9111  -32.4747   23.8350 C   0  0  1  0  0  0
  -27.2830  -27.3234   19.9957 C   0  0  0  0  0  0
  -25.5901  -33.8551   24.2234 N   0  0  0  0  0  0
  -23.4375  -30.4673   21.5374 C   0  0  2  0  0  0
  -24.8954  -28.9239   20.1118 C   0  0  0  0  0  0
  -22.7543  -29.4552   22.4873 C   0  0  0  0  0  0
  -18.0307  -28.1396   22.8493 C   0  0  0  0  0  0
  -24.1475  -36.7282   23.2639 C   0  0  0  0  0  0
  -25.9873  -30.7599   21.3908 C   0  0  0  0  0  0
  -26.0690  -29.3904   20.7219 C   0  0  0  0  0  0
  -27.2635  -28.5998   20.6604 C   0  0  0  0  0  0
  -26.0554  -26.9067   19.4280 C   0  0  0  0  0  0
  -24.8950  -27.6900   19.4563 C   0  0  0  0  0  0
  -23.6623  -29.7973   20.1599 C   0  0  0  0  0  0
  -25.4109  -36.3075   24.0324 C   0  0  1  0  0  0
  -20.5914  -28.3702   23.1259 C   0  0  2  0  0  0
  -20.6771  -26.9421   22.5400 C   0  0  0  0  0  0
  -19.5755  -26.6370   21.5208 C   0  0  0  0  0  0
  -18.1949  -26.7948   22.1616 C   0  0  0  0  0  0
  -19.1563  -28.8869   23.2891 C   0  0  0  0  0  0
  -18.9459  -30.1449   23.8934 C   0  0  0  0  0  0
  -17.6444  -30.6603   24.0556 C   0  0  0  0  0  0
  -25.9053  -34.9418   23.5096 C   0  0  0  0  0  0
  -16.5343  -29.9097   23.6309 C   0  0  0  0  0  0
  -16.7291  -28.6502   23.0375 C   0  0  0  0  0  0
  -26.4448  -31.6628   25.0799 C   0  0  0  0  0  0
  -25.3569  -31.3862   26.1451 C   0  0  0  0  0  0
  -27.0314  -30.3017   24.6406 C   0  0  0  0  0  0
  -27.6009  -32.4382   25.7596 C   0  0  0  0  0  0
  -27.5596  -37.1805   24.8440 C   0  0  0  0  0  0
  -21.4230  -29.3025   22.3631 N   0  0  0  0  0  0
  -26.4287  -37.3786   23.9420 N   0  0  0  0  0  0
  -24.7031  -31.0472   22.0964 N   0  0  0  0  0  0
  -23.4223  -28.8097   23.2994 O   0  0  0  0  0  0
  -28.4301  -26.4983   19.8474 O   0  0  0  0  0  0
  -26.5630  -34.8904   22.4671 O   0  0  0  0  0  0
  -23.5410  -32.1343   23.7198 O   0  0  0  0  0  0
  -30.5660  -18.9887   18.5279 C   0  0  0  0  0  0
  -29.1232  -18.1419   20.7202 C   0  0  0  0  0  0
  -29.8579  -20.0358   19.2369 C   0  0  0  0  0  0
  -29.8985  -17.1312   20.0801 C   0  0  0  0  0  0
  -30.5791  -17.5993   18.9181 C   0  0  0  0  0  0
  -29.0985  -19.5175   20.3213 C   0  0  0  0  0  0
  -29.7716  -21.5312   18.7100 C   0  0  0  0  0  0
  -31.4940  -25.5603   17.7840 C   0  0  0  0  0  0
  -32.1032  -23.9464   19.5647 C   0  0  0  0  0  0
  -29.4581  -22.8280   20.9202 C   0  0  0  0  0  0
  -28.2887  -25.1170   19.2684 C   0  0  0  0  0  0
  -30.9477  -24.8452   19.0456 C   0  0  0  0  0  0
  -29.5383  -24.1471   18.8627 C   0  0  1  0  0  0
  -29.8170  -15.7217   20.5369 N   0  0  0  0  0  0
  -29.5231  -22.7125   19.4428 N   0  0  0  0  0  0
  -30.0014  -21.6512   17.4972 O   0  0  0  0  0  0
  -31.1748  -16.6994   18.0969 F   0  0  0  0  0  0
  -28.2559  -20.3250   20.9832 F   0  0  0  0  0  0
  -31.4840  -12.3495   19.2169 H   0  0  0  0  0  0
  -30.2472  -11.3342   19.8849 H   0  0  0  0  0  0
  -29.8133  -11.8300   17.4389 H   0  0  0  0  0  0
  -29.7225  -13.5248   17.8146 H   0  0  0  0  0  0
  -27.8318  -11.3344   18.7551 H   0  0  0  0  0  0
  -27.4154  -12.7029   17.7606 H   0  0  0  0  0  0
  -27.6893  -14.2654   19.5359 H   0  0  0  0  0  0
  -28.7158  -12.0989   21.4502 H   0  0  0  0  0  0
  -28.4917  -13.7953   21.8096 H   0  0  0  0  0  0
  -25.2914   -9.5711   22.4802 H   0  0  0  0  0  0
  -24.0116   -7.4679   22.7492 H   0  0  0  0  0  0
  -21.0914   -8.8860   19.8966 H   0  0  0  0  0  0
  -22.3893  -10.9712   19.6077 H   0  0  0  0  0  0
  -21.2069   -7.6171   23.9865 H   0  0  0  0  0  0
  -21.1494   -6.0432   25.9151 H   0  0  0  0  0  0
  -22.0578   -2.7624   23.2758 H   0  0  0  0  0  0
  -22.4191  -11.9907   22.4575 H   0  0  0  0  0  0
  -21.1269  -13.1376   22.2402 H   0  0  0  0  0  0
  -24.6222  -15.7921   20.5413 H   0  0  0  0  0  0
  -26.2466  -15.6847   20.0875 H   0  0  0  0  0  0
  -26.7217  -32.5427   23.1134 H   0  0  0  0  0  0
  -25.0034  -33.9688   25.0367 H   0  0  0  0  0  0
  -22.7331  -31.2871   21.3781 H   0  0  0  0  0  0
  -23.3770  -35.9591   23.3263 H   0  0  0  0  0  0
  -24.3590  -36.8935   22.2071 H   0  0  0  0  0  0
  -23.7161  -37.6438   23.6693 H   0  0  0  0  0  0
  -26.1400  -31.5277   20.6314 H   0  0  0  0  0  0
  -26.8538  -30.8049   22.0391 H   0  0  0  0  0  0
  -28.1637  -28.9812   21.1256 H   0  0  0  0  0  0
  -25.9518  -25.9716   18.9104 H   0  0  0  0  0  0
  -24.0223  -27.3294   18.9301 H   0  0  0  0  0  0
  -23.7724  -30.5583   19.3867 H   0  0  0  0  0  0
  -22.7978  -29.1986   19.8658 H   0  0  0  0  0  0
  -25.1289  -36.1945   25.0826 H   0  0  0  0  0  0
  -21.0026  -28.3280   24.1378 H   0  0  0  0  0  0
  -20.5670  -26.2321   23.3612 H   0  0  0  0  0  0
  -21.6666  -26.7438   22.1211 H   0  0  0  0  0  0
  -19.6913  -25.6263   21.1294 H   0  0  0  0  0  0
  -19.6715  -27.3118   20.6700 H   0  0  0  0  0  0
  -17.4223  -26.6700   21.4020 H   0  0  0  0  0  0
  -18.0358  -26.0110   22.9034 H   0  0  0  0  0  0
  -19.7939  -30.7265   24.2381 H   0  0  0  0  0  0
  -17.4997  -31.6292   24.5110 H   0  0  0  0  0  0
  -15.5355  -30.2990   23.7585 H   0  0  0  0  0  0
  -15.8697  -28.0769   22.7105 H   0  0  0  0  0  0
  -24.5738  -30.7264   25.7701 H   0  0  0  0  0  0
  -24.8758  -32.3065   26.4782 H   0  0  0  0  0  0
  -25.7730  -30.9042   27.0302 H   0  0  0  0  0  0
  -26.2964  -29.6803   24.1284 H   0  0  0  0  0  0
  -27.3737  -29.7289   25.5036 H   0  0  0  0  0  0
  -27.8954  -30.4236   23.9871 H   0  0  0  0  0  0
  -27.2642  -33.3703   26.2159 H   0  0  0  0  0  0
  -28.3858  -32.6912   25.0456 H   0  0  0  0  0  0
  -28.0666  -31.8524   26.5527 H   0  0  0  0  0  0
  -28.2541  -38.0160   24.7594 H   0  0  0  0  0  0
  -28.1154  -36.2714   24.6146 H   0  0  0  0  0  0
  -27.2354  -37.1302   25.8835 H   0  0  0  0  0  0
  -20.9417  -29.8790   21.6871 H   0  0  0  0  0  0
  -26.0164  -38.2867   24.1434 H   0  0  0  0  0  0
  -31.0780  -19.2001   17.6014 H   0  0  0  0  0  0
  -28.4435  -17.8866   21.5194 H   0  0  0  0  0  0
  -32.4866  -25.9774   17.9932 H   0  0  0  0  0  0
  -30.8759  -26.3897   17.4413 H   0  0  0  0  0  0
  -31.6051  -24.8694   16.9424 H   0  0  0  0  0  0
  -33.0133  -24.5245   19.7522 H   0  0  0  0  0  0
  -32.3438  -23.1341   18.8682 H   0  0  0  0  0  0
  -31.8745  -23.5057   20.5276 H   0  0  0  0  0  0
  -30.2986  -22.3322   21.4145 H   0  0  0  0  0  0
  -28.5286  -22.4515   21.3383 H   0  0  0  0  0  0
  -29.5150  -23.8816   21.2354 H   0  0  0  0  0  0
  -27.6254  -24.5878   19.9582 H   0  0  0  0  0  0
  -27.7217  -25.1861   18.3324 H   0  0  0  0  0  0
  -30.8028  -25.6156   19.8073 H   0  0  0  0  0  0
  -29.3947  -24.0349   17.7770 H   0  0  0  0  0  0
  -28.9279  -15.4463   20.9241 H   0  0  0  0  0  0
  1 25  1  0  0  0
  1 30  2  0  0  0
  1 84  1  0  0  0
  2  3  1  0  0  0
  2 25  1  0  0  0
  2 89  1  0  0  0
  2 90  1  0  0  0
  3  4  1  0  0  0
  3 91  1  0  0  0
  3 92  1  0  0  0
  4  5  1  0  0  0
  4 93  1  0  0  0
  4 94  1  0  0  0
  5  6  1  0  0  0
  5 26  1  0  0  0
  5 95  1  0  0  0
  6 25  1  0  0  0
  6 96  1  0  0  0
  6 97  1  0  0  0
  7  8  2  0  0  0
  7 26  1  0  0  0
  7 29  1  0  0  0
  8  9  1  0  0  0
  8 22  1  0  0  0
  9 10  1  0  0  0
  9 27  2  0  0  0
 10 11  2  0  0  0
 10 15  1  0  0  0
 11 12  1  0  0  0
 11 98  1  0  0  0
 12 13  2  0  0  0
 12 99  1  0  0  0
 13 14  1  0  0  0
 13 31  1  0  0  0
 14 15  2  0  0  0
 14100  1  0  0  0
 15101  1  0  0  0
 16 17  2  0  0  0
 16 21  1  0  0  0
 16 31  1  0  0  0
 17 18  1  0  0  0
 17102  1  0  0  0
 18 19  2  0  0  0
 18103  1  0  0  0
 19 20  1  0  0  0
 19 24  1  0  0  0
 20 21  2  0  0  0
 20104  1  0  0  0
 21 23  1  0  0  0
 22 28  1  0  0  0
 22 32  2  0  0  0
 26 27  1  0  0  0
 28105  1  0  0  0
 28106  1  0  0  0
 29107  1  0  0  0
 29108  1  0  0  0
 33 34  1  0  0  0
 33 66  1  0  0  0
 33 70  2  0  0  0
 34 36  1  0  0  0
 34 59  1  0  0  0
 34109  1  0  0  0
 35 44  2  0  0  0
 35 45  1  0  0  0
 35 68  1  0  0  0
 36 56  1  0  0  0
 36110  1  0  0  0
 37 39  1  0  0  0
 37 47  1  0  0  0
 37 66  1  0  0  0
 37111  1  0  0  0
 38 43  2  0  0  0
 38 46  1  0  0  0
 38 47  1  0  0  0
 39 64  1  0  0  0
 39 67  2  0  0  0
 40 52  1  0  0  0
 40 53  2  0  0  0
 40 58  1  0  0  0
 41112  1  0  0  0
 41113  1  0  0  0
 41114  1  0  0  0
 41 48  1  0  0  0
 42 43  1  0  0  0
 42 66  1  0  0  0
 42115  1  0  0  0
 42116  1  0  0  0
 43 44  1  0  0  0
 44117  1  0  0  0
 45 46  2  0  0  0
 45118  1  0  0  0
 46119  1  0  0  0
 47120  1  0  0  0
 47121  1  0  0  0
 48 56  1  0  0  0
 48 65  1  0  0  0
 48122  1  0  0  0
 49 50  1  0  0  0
 49 53  1  0  0  0
 49 64  1  0  0  0
 49123  1  0  0  0
 50 51  1  0  0  0
 50124  1  0  0  0
 50125  1  0  0  0
 51 52  1  0  0  0
 51126  1  0  0  0
 51127  1  0  0  0
 52128  1  0  0  0
 52129  1  0  0  0
 53 54  1  0  0  0
 54 55  2  0  0  0
 54130  1  0  0  0
 55 57  1  0  0  0
 55131  1  0  0  0
 56 69  2  0  0  0
 57 58  2  0  0  0
 57132  1  0  0  0
 58133  1  0  0  0
 59 60  1  0  0  0
 59 61  1  0  0  0
 59 62  1  0  0  0
 60134  1  0  0  0
 60135  1  0  0  0
 60136  1  0  0  0
 61137  1  0  0  0
 61138  1  0  0  0
 61139  1  0  0  0
 62140  1  0  0  0
 62141  1  0  0  0
 62142  1  0  0  0
 63 65  1  0  0  0
 63143  1  0  0  0
 63144  1  0  0  0
 63145  1  0  0  0
 64146  1  0  0  0
 65147  1  0  0  0
 68 81  1  0  0  0
 71 73  2  0  0  0
 71 75  1  0  0  0
 71148  1  0  0  0
 72 74  1  0  0  0
 72 76  2  0  0  0
 72149  1  0  0  0
 73 76  1  0  0  0
 73 77  1  0  0  0
 74 75  2  0  0  0
 74 84  1  0  0  0
 75 87  1  0  0  0
 76 88  1  0  0  0
 77 85  1  0  0  0
 77 86  2  0  0  0
 78150  1  0  0  0
 78151  1  0  0  0
 78152  1  0  0  0
 78 82  1  0  0  0
 79 82  1  0  0  0
 79153  1  0  0  0
 79154  1  0  0  0
 79155  1  0  0  0
 80 85  1  0  0  0
 80156  1  0  0  0
 80157  1  0  0  0
 80158  1  0  0  0
 81159  1  0  0  0
 81160  1  0  0  0
 81 83  1  0  0  0
 82 83  1  0  0  0
 82161  1  0  0  0
 83 85  1  0  0  0
 83162  1  0  0  0
 84163  1  0  0  0
M  ISO  4   1 100  68 101  81 101  84 100
M  END
> <chiral flag>
0

> <version>
0

> <s_m_source_file>
/data/baiqing/PycharmProjects/Reinvent-master-3.2/result/LINK_invent/BTK/process_docking_weight1_custom_sum_contain_oxygen_bond_distance_aromatic_linkinvent_7_9_3/rearranged_h_0008.sdf

> <i_m_source_file_index>
87

> <r_mmod_Potential_Energy-OPLS-2005>
271.596160888672

> <r_mmod_Stretch_Energy-OPLS-2005>
146.669082641602

> <r_mmod_Bend_Energy-OPLS-2005>
212.698913574219

> <r_mmod_Torsional_Energy-OPLS-2005>
309.046875

> <r_mmod_Improper_Torsional_Energy-OPLS-2005>
7.26090097427368

> <r_mmod_Van_der_Waal_Energy-OPLS-2005>
167.542587280273

> <r_mmod_Electrostatic_Energy-OPLS-2005>
-409.582153320312

> <r_mmod_Solvation_Energy-OPLS-2005>
-218.777557373047

> <b_mmod_Minimization_Converged-OPLS-2005>
0

> <r_mmod_RMS_Derivative-OPLS-2005>
14.6742334365845

$$$$
87
                    3D
 Structure written by MMmdl.
160168  0  0  1  0            999 V2000
  -30.6579  -14.6596   20.5863 C   0  0  0  0  0  0
  -30.4298  -12.4288   19.4716 C   0  0  0  0  0  0
  -29.5101  -12.5193   18.2344 C   0  0  0  0  0  0
  -28.0342  -12.3389   18.6371 C   0  0  0  0  0  0
  -27.6451  -13.2137   19.8548 C   0  0  2  0  0  0
  -28.6762  -13.0961   20.9903 C   0  0  0  0  0  0
  -25.2547  -13.8159   20.5683 C   0  0  0  0  0  0
  -24.1809  -13.0424   20.9154 C   0  0  0  0  0  0
  -24.6370  -11.6896   20.8699 C   0  0  0  0  0  0
  -23.9041  -10.4286   21.0380 C   0  0  0  0  0  0
  -24.3592   -9.4215   21.9165 C   0  0  0  0  0  0
  -23.6280   -8.2249   22.0747 C   0  0  0  0  0  0
  -22.4271   -8.0274   21.3537 C   0  0  0  0  0  0
  -21.9893   -9.0239   20.4638 C   0  0  0  0  0  0
  -22.7208  -10.2125   20.3036 C   0  0  0  0  0  0
  -21.6861   -6.0728   22.5272 C   0  0  0  0  0  0
  -21.4013   -6.5628   23.8202 C   0  0  0  0  0  0
  -21.3663   -5.6786   24.9168 C   0  0  0  0  0  0
  -21.6048   -4.3050   24.7222 C   0  0  0  0  0  0
  -21.8822   -3.8139   23.4343 C   0  0  0  0  0  0
  -21.9194   -4.6954   22.3400 C   0  0  0  0  0  0
  -22.7844  -13.5227   21.1854 C   0  0  0  0  0  0
  -22.1667   -4.2139   21.0979 F   0  0  0  0  0  0
  -21.5630   -3.4538   25.7739 F   0  0  0  0  0  0
  -29.9980  -13.4557   20.4478 N   0  0  0  0  0  0
  -26.2940  -12.9324   20.3253 N   0  0  0  0  0  0
  -25.9293  -11.6480   20.5700 N   0  0  0  0  0  0
  -22.0498  -12.8208   22.0414 N   0  0  0  0  0  0
  -25.4322  -15.1889   20.4217 N   0  0  0  0  0  0
  -31.7673  -14.8197   20.0662 O   0  0  0  0  0  0
  -21.6643   -6.8867   21.4233 O   0  0  0  0  0  0
  -22.3525  -14.5542   20.6731 O   0  0  0  0  0  0
  -24.6251  -31.8594   23.2020 C   0  0  0  0  0  0
  -25.9095  -32.4781   23.8353 C   0  0  1  0  0  0
  -27.2263  -27.3198   20.1242 C   0  0  0  0  0  0
  -25.5904  -33.8581   24.2275 N   0  0  0  0  0  0
  -23.4196  -30.4809   21.5454 C   0  0  2  0  0  0
  -24.8683  -28.9350   20.1129 C   0  0  0  0  0  0
  -22.7476  -29.4608   22.4952 C   0  0  0  0  0  0
  -18.0275  -28.1379   22.8489 C   0  0  0  0  0  0
  -24.1476  -36.7284   23.2641 C   0  0  0  0  0  0
  -25.9592  -30.7916   21.3728 C   0  0  0  0  0  0
  -26.0366  -29.4184   20.7165 C   0  0  0  0  0  0
  -27.2212  -28.6235   20.7094 C   0  0  0  0  0  0
  -26.0396  -26.8904   19.4911 C   0  0  0  0  0  0
  -24.8717  -27.6774   19.4895 C   0  0  0  0  0  0
  -23.6347  -29.8136   20.1617 C   0  0  0  0  0  0
  -25.4109  -36.3084   24.0332 C   0  0  1  0  0  0
  -20.5877  -28.3672   23.1297 C   0  0  2  0  0  0
  -20.6768  -26.9395   22.5420 C   0  0  0  0  0  0
  -19.5742  -26.6373   21.5219 C   0  0  0  0  0  0
  -18.1917  -26.7923   22.1620 C   0  0  0  0  0  0
  -19.1529  -28.8845   23.2886 C   0  0  0  0  0  0
  -18.9459  -30.1442   23.8907 C   0  0  0  0  0  0
  -17.6459  -30.6584   24.0559 C   0  0  0  0  0  0
  -25.9050  -34.9453   23.5110 C   0  0  0  0  0  0
  -16.5348  -29.9088   23.6325 C   0  0  0  0  0  0
  -16.7265  -28.6498   23.0356 C   0  0  0  0  0  0
  -26.4483  -31.6594   25.0721 C   0  0  0  0  0  0
  -25.3716  -31.3726   26.1447 C   0  0  0  0  0  0
  -27.0320  -30.3018   24.6170 C   0  0  0  0  0  0
  -27.6034  -32.4340   25.7498 C   0  0  0  0  0  0
  -27.5583  -37.1784   24.8461 C   0  0  0  0  0  0
  -21.4187  -29.3030   22.3701 N   0  0  0  0  0  0
  -26.4281  -37.3785   23.9430 N   0  0  0  0  0  0
  -24.6866  -31.0605   22.0973 N   0  0  0  0  0  0
  -23.4195  -28.8149   23.3035 O   0  0  0  0  0  0
  -28.3403  -26.4694   20.1414 O   0  0  0  0  0  0
  -26.5623  -34.8919   22.4679 O   0  0  0  0  0  0
  -23.5415  -32.1384   23.7353 O   0  0  0  0  0  0
  -29.3247  -18.9912   19.3127 C   0  0  0  0  0  0
  -30.2764  -18.1755   21.7713 C   0  0  0  0  0  0
  -29.7020  -20.0220   20.2162 C   0  0  0  0  0  0
  -29.4289  -17.5914   19.6036 C   0  0  0  0  0  0
  -30.1777  -19.5713   21.4740 C   0  0  0  0  0  0
  -29.9402  -17.1227   20.8587 C   0  0  0  0  0  0
  -29.0404  -23.9665   19.9467 C   0  0  0  0  0  0
  -28.9269  -16.6416   18.5296 C   0  0  0  0  0  0
  -30.6468  -20.5755   22.5138 C   0  0  0  0  0  0
  -30.0270  -15.4646   22.7383 C   0  0  0  0  0  0
  -29.7689  -21.5254   19.7257 C   0  0  0  0  0  0
  -28.1332  -25.0747   20.6170 C   0  0  0  0  0  0
  -28.9784  -22.6482   20.3423 N   0  0  0  0  0  0
  -30.0486  -15.6939   21.2811 N   0  0  0  0  0  0
  -29.8096  -24.3086   19.0444 O   0  0  0  0  0  0
  -31.4726  -12.5491   19.1742 H   0  0  0  0  0  0
  -30.3689  -11.4377   19.9237 H   0  0  0  0  0  0
  -29.7915  -11.7646   17.4995 H   0  0  0  0  0  0
  -29.6450  -13.4838   17.7440 H   0  0  0  0  0  0
  -27.8819  -11.2856   18.8761 H   0  0  0  0  0  0
  -27.3808  -12.5573   17.7912 H   0  0  0  0  0  0
  -27.6563  -14.2442   19.5102 H   0  0  0  0  0  0
  -28.6972  -12.0847   21.3975 H   0  0  0  0  0  0
  -28.3526  -13.7384   21.8064 H   0  0  0  0  0  0
  -25.2732   -9.5707   22.4738 H   0  0  0  0  0  0
  -23.9996   -7.4647   22.7474 H   0  0  0  0  0  0
  -21.0824   -8.8740   19.8943 H   0  0  0  0  0  0
  -22.3650  -10.9653   19.6144 H   0  0  0  0  0  0
  -21.2002   -7.6134   23.9701 H   0  0  0  0  0  0
  -21.1486   -6.0518   25.9070 H   0  0  0  0  0  0
  -22.0599   -2.7599   23.2855 H   0  0  0  0  0  0
  -22.4126  -11.9846   22.4748 H   0  0  0  0  0  0
  -21.1133  -13.1241   22.2674 H   0  0  0  0  0  0
  -24.6766  -15.8523   20.5552 H   0  0  0  0  0  0
  -26.3120  -15.6302   20.1875 H   0  0  0  0  0  0
  -26.7162  -32.5459   23.1101 H   0  0  0  0  0  0
  -25.0042  -33.9727   25.0414 H   0  0  0  0  0  0
  -22.7114  -31.2989   21.4008 H   0  0  0  0  0  0
  -23.3762  -35.9589   23.3279 H   0  0  0  0  0  0
  -24.3573  -36.8939   22.2061 H   0  0  0  0  0  0
  -23.7190  -37.6459   23.6688 H   0  0  0  0  0  0
  -26.0864  -31.5545   20.6036 H   0  0  0  0  0  0
  -26.8404  -30.8427   22.0006 H   0  0  0  0  0  0
  -28.1192  -28.9919   21.1848 H   0  0  0  0  0  0
  -26.0034  -25.9302   18.9973 H   0  0  0  0  0  0
  -23.9787  -27.3040   19.0070 H   0  0  0  0  0  0
  -23.7483  -30.5875   19.4013 H   0  0  0  0  0  0
  -22.7562  -29.2381   19.8642 H   0  0  0  0  0  0
  -25.1286  -36.1935   25.0825 H   0  0  0  0  0  0
  -20.9953  -28.3237   24.1423 H   0  0  0  0  0  0
  -20.5660  -26.2281   23.3617 H   0  0  0  0  0  0
  -21.6637  -26.7423   22.1217 H   0  0  0  0  0  0
  -19.6906  -25.6282   21.1246 H   0  0  0  0  0  0
  -19.6696  -27.3191   20.6755 H   0  0  0  0  0  0
  -17.4197  -26.6683   21.4009 H   0  0  0  0  0  0
  -18.0299  -26.0056   22.9002 H   0  0  0  0  0  0
  -19.7936  -30.7248   24.2298 H   0  0  0  0  0  0
  -17.5015  -31.6269   24.5150 H   0  0  0  0  0  0
  -15.5349  -30.2992   23.7650 H   0  0  0  0  0  0
  -15.8659  -28.0818   22.7087 H   0  0  0  0  0  0
  -24.5893  -30.7076   25.7773 H   0  0  0  0  0  0
  -24.8902  -32.2888   26.4875 H   0  0  0  0  0  0
  -25.8032  -30.8897   27.0220 H   0  0  0  0  0  0
  -26.2879  -29.6775   24.1203 H   0  0  0  0  0  0
  -27.4027  -29.7273   25.4669 H   0  0  0  0  0  0
  -27.8747  -30.4307   23.9374 H   0  0  0  0  0  0
  -27.2628  -33.3640   26.2065 H   0  0  0  0  0  0
  -28.3841  -32.6910   25.0326 H   0  0  0  0  0  0
  -28.0697  -31.8476   26.5423 H   0  0  0  0  0  0
  -28.2570  -38.0110   24.7568 H   0  0  0  0  0  0
  -28.1106  -36.2649   24.6213 H   0  0  0  0  0  0
  -27.2308  -37.1348   25.8860 H   0  0  0  0  0  0
  -20.9366  -29.8753   21.6913 H   0  0  0  0  0  0
  -26.0162  -38.2849   24.1487 H   0  0  0  0  0  0
  -28.9597  -19.2875   18.3387 H   0  0  0  0  0  0
  -30.6558  -17.9305   22.7505 H   0  0  0  0  0  0
  -28.8956  -17.1356   17.5582 H   0  0  0  0  0  0
  -27.9109  -16.3243   18.7599 H   0  0  0  0  0  0
  -29.5600  -15.7680   18.4064 H   0  0  0  0  0  0
  -30.9336  -20.0879   23.4461 H   0  0  0  0  0  0
  -29.8597  -21.2918   22.7474 H   0  0  0  0  0  0
  -31.5132  -21.1260   22.1475 H   0  0  0  0  0  0
  -30.9219  -15.8698   23.2097 H   0  0  0  0  0  0
  -30.0081  -14.4137   23.0307 H   0  0  0  0  0  0
  -29.1516  -15.9394   23.1848 H   0  0  0  0  0  0
  -29.5411  -21.5307   18.6586 H   0  0  0  0  0  0
  -30.8207  -21.8115   19.7806 H   0  0  0  0  0  0
  -28.3418  -25.0652   21.6868 H   0  0  0  0  0  0
  -27.0982  -24.7489   20.5219 H   0  0  0  0  0  0
  -28.3319  -22.4073   21.0807 H   0  0  0  0  0  0
  1 25  1  0  0  0
  1 30  2  0  0  0
  1 84  1  0  0  0
  2  3  1  0  0  0
  2 25  1  0  0  0
  2 86  1  0  0  0
  2 87  1  0  0  0
  3  4  1  0  0  0
  3 88  1  0  0  0
  3 89  1  0  0  0
  4  5  1  0  0  0
  4 90  1  0  0  0
  4 91  1  0  0  0
  5  6  1  0  0  0
  5 26  1  0  0  0
  5 92  1  0  0  0
  6 25  1  0  0  0
  6 93  1  0  0  0
  6 94  1  0  0  0
  7  8  2  0  0  0
  7 26  1  0  0  0
  7 29  1  0  0  0
  8  9  1  0  0  0
  8 22  1  0  0  0
  9 10  1  0  0  0
  9 27  2  0  0  0
 10 11  2  0  0  0
 10 15  1  0  0  0
 11 12  1  0  0  0
 11 95  1  0  0  0
 12 13  2  0  0  0
 12 96  1  0  0  0
 13 14  1  0  0  0
 13 31  1  0  0  0
 14 15  2  0  0  0
 14 97  1  0  0  0
 15 98  1  0  0  0
 16 17  2  0  0  0
 16 21  1  0  0  0
 16 31  1  0  0  0
 17 18  1  0  0  0
 17 99  1  0  0  0
 18 19  2  0  0  0
 18100  1  0  0  0
 19 20  1  0  0  0
 19 24  1  0  0  0
 20 21  2  0  0  0
 20101  1  0  0  0
 21 23  1  0  0  0
 22 28  1  0  0  0
 22 32  2  0  0  0
 26 27  1  0  0  0
 28102  1  0  0  0
 28103  1  0  0  0
 29104  1  0  0  0
 29105  1  0  0  0
 33 34  1  0  0  0
 33 66  1  0  0  0
 33 70  2  0  0  0
 34 36  1  0  0  0
 34 59  1  0  0  0
 34106  1  0  0  0
 35 44  2  0  0  0
 35 45  1  0  0  0
 35 68  1  0  0  0
 36 56  1  0  0  0
 36107  1  0  0  0
 37 39  1  0  0  0
 37 47  1  0  0  0
 37 66  1  0  0  0
 37108  1  0  0  0
 38 43  2  0  0  0
 38 46  1  0  0  0
 38 47  1  0  0  0
 39 64  1  0  0  0
 39 67  2  0  0  0
 40 52  1  0  0  0
 40 53  2  0  0  0
 40 58  1  0  0  0
 41109  1  0  0  0
 41110  1  0  0  0
 41111  1  0  0  0
 41 48  1  0  0  0
 42 43  1  0  0  0
 42 66  1  0  0  0
 42112  1  0  0  0
 42113  1  0  0  0
 43 44  1  0  0  0
 44114  1  0  0  0
 45 46  2  0  0  0
 45115  1  0  0  0
 46116  1  0  0  0
 47117  1  0  0  0
 47118  1  0  0  0
 48 56  1  0  0  0
 48 65  1  0  0  0
 48119  1  0  0  0
 49 50  1  0  0  0
 49 53  1  0  0  0
 49 64  1  0  0  0
 49120  1  0  0  0
 50 51  1  0  0  0
 50121  1  0  0  0
 50122  1  0  0  0
 51 52  1  0  0  0
 51123  1  0  0  0
 51124  1  0  0  0
 52125  1  0  0  0
 52126  1  0  0  0
 53 54  1  0  0  0
 54 55  2  0  0  0
 54127  1  0  0  0
 55 57  1  0  0  0
 55128  1  0  0  0
 56 69  2  0  0  0
 57 58  2  0  0  0
 57129  1  0  0  0
 58130  1  0  0  0
 59 60  1  0  0  0
 59 61  1  0  0  0
 59 62  1  0  0  0
 60131  1  0  0  0
 60132  1  0  0  0
 60133  1  0  0  0
 61134  1  0  0  0
 61135  1  0  0  0
 61136  1  0  0  0
 62137  1  0  0  0
 62138  1  0  0  0
 62139  1  0  0  0
 63 65  1  0  0  0
 63140  1  0  0  0
 63141  1  0  0  0
 63142  1  0  0  0
 64143  1  0  0  0
 65144  1  0  0  0
 68 82  1  0  0  0
 71 73  2  0  0  0
 71 74  1  0  0  0
 71145  1  0  0  0
 72 75  2  0  0  0
 72 76  1  0  0  0
 72146  1  0  0  0
 73 75  1  0  0  0
 73 81  1  0  0  0
 74 76  2  0  0  0
 74 78  1  0  0  0
 75 79  1  0  0  0
 76 84  1  0  0  0
 77 82  1  0  0  0
 77 83  1  0  0  0
 77 85  2  0  0  0
 78147  1  0  0  0
 78148  1  0  0  0
 78149  1  0  0  0
 79150  1  0  0  0
 79151  1  0  0  0
 79152  1  0  0  0
 80 84  1  0  0  0
 80153  1  0  0  0
 80154  1  0  0  0
 80155  1  0  0  0
 81 83  1  0  0  0
 81156  1  0  0  0
 81157  1  0  0  0
 82158  1  0  0  0
 82159  1  0  0  0
 83160  1  0  0  0
M  ISO  4   1 100  68 101  82 101  84 100
M  END
> <chiral flag>
0

> <version>
0

> <s_m_source_file>
/data/baiqing/PycharmProjects/Reinvent-master-3.2/result/LINK_invent/BTK/process_docking_weight1_custom_sum_contain_oxygen_bond_distance_aromatic_linkinvent_7_9_3/rearranged_h_0008.sdf

> <i_m_source_file_index>
88

> <r_mmod_Potential_Energy-OPLS-2005>
184.276336669922

> <r_mmod_Stretch_Energy-OPLS-2005>
95.3241806030273

> <r_mmod_Bend_Energy-OPLS-2005>
150.238510131836

> <r_mmod_Torsional_Energy-OPLS-2005>
299.695495605469

> <r_mmod_Improper_Torsional_Energy-OPLS-2005>
4.410719871521

> <r_mmod_Van_der_Waal_Energy-OPLS-2005>
150.642395019531

> <r_mmod_Electrostatic_Energy-OPLS-2005>
-339.009918212891

> <r_mmod_Solvation_Energy-OPLS-2005>
-227.519653320312

> <b_mmod_Minimization_Converged-OPLS-2005>
0

> <r_mmod_RMS_Derivative-OPLS-2005>
1.42166757583618

$$$$
88
                    3D
 Structure written by MMmdl.
148156  0  0  1  0            999 V2000
  -30.5176  -14.9216   20.4281 C   0  0  0  0  0  0
  -30.4477  -12.5652   19.4991 C   0  0  0  0  0  0
  -29.5250  -12.5351   18.2567 C   0  0  0  0  0  0
  -28.0553  -12.3251   18.6691 C   0  0  0  0  0  0
  -27.6371  -13.2419   19.8479 C   0  0  2  0  0  0
  -28.6792  -13.2297   20.9878 C   0  0  0  0  0  0
  -25.2493  -13.8207   20.5705 C   0  0  0  0  0  0
  -24.1796  -13.0439   20.9215 C   0  0  0  0  0  0
  -24.6398  -11.6920   20.8744 C   0  0  0  0  0  0
  -23.9075  -10.4294   21.0403 C   0  0  0  0  0  0
  -24.3624   -9.4208   21.9180 C   0  0  0  0  0  0
  -23.6295   -8.2246   22.0752 C   0  0  0  0  0  0
  -22.4277   -8.0284   21.3545 C   0  0  0  0  0  0
  -21.9912   -9.0258   20.4648 C   0  0  0  0  0  0
  -22.7245  -10.2136   20.3056 C   0  0  0  0  0  0
  -21.6856   -6.0734   22.5277 C   0  0  0  0  0  0
  -21.4019   -6.5638   23.8210 C   0  0  0  0  0  0
  -21.3661   -5.6792   24.9172 C   0  0  0  0  0  0
  -21.6044   -4.3054   24.7225 C   0  0  0  0  0  0
  -21.8819   -3.8145   23.4346 C   0  0  0  0  0  0
  -21.9194   -4.6961   22.3403 C   0  0  0  0  0  0
  -22.7816  -13.5216   21.1871 C   0  0  0  0  0  0
  -22.1661   -4.2146   21.0979 F   0  0  0  0  0  0
  -21.5626   -3.4538   25.7737 F   0  0  0  0  0  0
  -29.9641  -13.6436   20.4061 N   0  0  0  0  0  0
  -26.2918  -12.9425   20.3267 N   0  0  0  0  0  0
  -25.9332  -11.6559   20.5739 N   0  0  0  0  0  0
  -22.0466  -12.8211   22.0433 N   0  0  0  0  0  0
  -25.4175  -15.1936   20.4129 N   0  0  0  0  0  0
  -31.6985  -15.0444   20.0826 O   0  0  0  0  0  0
  -21.6641   -6.8881   21.4240 O   0  0  0  0  0  0
  -22.3500  -14.5517   20.6710 O   0  0  0  0  0  0
  -24.6425  -31.8434   23.1875 C   0  0  0  0  0  0
  -25.9199  -32.4689   23.8266 C   0  0  1  0  0  0
  -27.2234  -27.1404   20.1398 C   0  0  0  0  0  0
  -25.5948  -33.8496   24.2182 N   0  0  0  0  0  0
  -23.4458  -30.4621   21.5326 C   0  0  2  0  0  0
  -24.8955  -28.8891   20.1066 C   0  0  0  0  0  0
  -22.7562  -29.4539   22.4855 C   0  0  0  0  0  0
  -18.0305  -28.1393   22.8473 C   0  0  0  0  0  0
  -24.1494  -36.7257   23.2644 C   0  0  0  0  0  0
  -26.0009  -30.7169   21.3865 C   0  0  0  0  0  0
  -26.0708  -29.3290   20.7265 C   0  0  0  0  0  0
  -27.2304  -28.4685   20.7296 C   0  0  0  0  0  0
  -26.0186  -26.7993   19.4839 C   0  0  0  0  0  0
  -24.8819  -27.6377   19.4725 C   0  0  0  0  0  0
  -23.6716  -29.7904   20.1516 C   0  0  0  0  0  0
  -25.4125  -36.3027   24.0315 C   0  0  1  0  0  0
  -20.5915  -28.3716   23.1234 C   0  0  2  0  0  0
  -20.6786  -26.9419   22.5404 C   0  0  0  0  0  0
  -19.5763  -26.6375   21.5209 C   0  0  0  0  0  0
  -18.1944  -26.7930   22.1619 C   0  0  0  0  0  0
  -19.1560  -28.8874   23.2845 C   0  0  0  0  0  0
  -18.9479  -30.1470   23.8870 C   0  0  0  0  0  0
  -17.6473  -30.6588   24.0558 C   0  0  0  0  0  0
  -25.9073  -34.9404   23.5058 C   0  0  0  0  0  0
  -16.5365  -29.9079   23.6333 C   0  0  0  0  0  0
  -16.7289  -28.6500   23.0351 C   0  0  0  0  0  0
  -26.4526  -31.6561   25.0710 C   0  0  0  0  0  0
  -25.3714  -31.3751   26.1409 C   0  0  0  0  0  0
  -27.0395  -30.2956   24.6298 C   0  0  0  0  0  0
  -27.6057  -32.4331   25.7490 C   0  0  0  0  0  0
  -27.5575  -37.1784   24.8465 C   0  0  0  0  0  0
  -21.4254  -29.3042   22.3605 N   0  0  0  0  0  0
  -26.4288  -37.3738   23.9405 N   0  0  0  0  0  0
  -24.7160  -31.0290   22.0908 N   0  0  0  0  0  0
  -23.4207  -28.8094   23.3008 O   0  0  0  0  0  0
  -28.3004  -26.1863   20.2466 O   0  0  0  0  0  0
  -26.5660  -34.8900   22.4637 O   0  0  0  0  0  0
  -23.5546  -32.1314   23.7096 O   0  0  0  0  0  0
  -30.4549  -18.3469   19.6315 C   0  0  0  0  0  0
  -28.7336  -18.4048   21.2333 C   0  0  0  0  0  0
  -29.6703  -17.5579   20.5323 C   0  0  0  0  0  0
  -29.3450  -20.6234   20.1339 C   0  0  0  0  0  0
  -30.2918  -19.7814   19.4403 C   0  0  0  0  0  0
  -28.5779  -19.8454   21.0637 C   0  0  0  0  0  0
  -28.3300  -24.7246   19.7047 C   0  0  0  0  0  0
  -28.5903  -23.2531   20.4951 C   0  0  0  0  0  0
  -29.6822  -16.0304   20.7165 N   0  0  0  0  0  0
  -29.2343  -22.0487   19.7873 O   0  0  0  0  0  0
  -31.0912  -20.3744   18.5194 F   0  0  0  0  0  0
  -27.6319  -20.4759   21.8018 F   0  0  0  0  0  0
  -31.4821  -12.7262   19.1919 H   0  0  0  0  0  0
  -30.4368  -11.6020   20.0115 H   0  0  0  0  0  0
  -29.8373  -11.7472   17.5700 H   0  0  0  0  0  0
  -29.6208  -13.4740   17.7091 H   0  0  0  0  0  0
  -27.9406  -11.2797   18.9580 H   0  0  0  0  0  0
  -27.3956  -12.4792   17.8145 H   0  0  0  0  0  0
  -27.6123  -14.2528   19.4403 H   0  0  0  0  0  0
  -28.7553  -12.2379   21.4357 H   0  0  0  0  0  0
  -28.3804  -13.9042   21.7915 H   0  0  0  0  0  0
  -25.2768   -9.5681   22.4755 H   0  0  0  0  0  0
  -24.0002   -7.4636   22.7472 H   0  0  0  0  0  0
  -21.0840   -8.8781   19.8958 H   0  0  0  0  0  0
  -22.3701  -10.9674   19.6168 H   0  0  0  0  0  0
  -21.2014   -7.6147   23.9713 H   0  0  0  0  0  0
  -21.1482   -6.0521   25.9074 H   0  0  0  0  0  0
  -22.0596   -2.7606   23.2849 H   0  0  0  0  0  0
  -22.4090  -11.9881   22.4831 H   0  0  0  0  0  0
  -21.1084  -13.1235   22.2640 H   0  0  0  0  0  0
  -24.6444  -15.8424   20.5133 H   0  0  0  0  0  0
  -26.2547  -15.6314   20.0508 H   0  0  0  0  0  0
  -26.7264  -32.5293   23.0993 H   0  0  0  0  0  0
  -25.0067  -33.9610   25.0310 H   0  0  0  0  0  0
  -22.7479  -31.2875   21.3778 H   0  0  0  0  0  0
  -23.3753  -35.9593   23.3301 H   0  0  0  0  0  0
  -24.3576  -36.8894   22.2059 H   0  0  0  0  0  0
  -23.7258  -37.6456   23.6687 H   0  0  0  0  0  0
  -26.1575  -31.4723   20.6154 H   0  0  0  0  0  0
  -26.8708  -30.7654   22.0298 H   0  0  0  0  0  0
  -28.1244  -28.7992   21.2396 H   0  0  0  0  0  0
  -25.9009  -25.8446   18.9988 H   0  0  0  0  0  0
  -23.9822  -27.2945   18.9800 H   0  0  0  0  0  0
  -23.8061  -30.5646   19.3952 H   0  0  0  0  0  0
  -22.7870  -29.2309   19.8423 H   0  0  0  0  0  0
  -25.1315  -36.1852   25.0808 H   0  0  0  0  0  0
  -21.0005  -28.3308   24.1356 H   0  0  0  0  0  0
  -20.5663  -26.2334   23.3626 H   0  0  0  0  0  0
  -21.6655  -26.7411   22.1216 H   0  0  0  0  0  0
  -19.6921  -25.6277   21.1260 H   0  0  0  0  0  0
  -19.6703  -27.3168   20.6725 H   0  0  0  0  0  0
  -17.4212  -26.6668   21.4026 H   0  0  0  0  0  0
  -18.0346  -26.0078   22.9022 H   0  0  0  0  0  0
  -19.7954  -30.7295   24.2226 H   0  0  0  0  0  0
  -17.5026  -31.6263   24.5166 H   0  0  0  0  0  0
  -15.5364  -30.2971   23.7671 H   0  0  0  0  0  0
  -15.8691  -28.0810   22.7075 H   0  0  0  0  0  0
  -24.5896  -30.7095   25.7731 H   0  0  0  0  0  0
  -24.8903  -32.2934   26.4785 H   0  0  0  0  0  0
  -25.8000  -30.8956   27.0218 H   0  0  0  0  0  0
  -26.3012  -29.6668   24.1308 H   0  0  0  0  0  0
  -27.4008  -29.7267   25.4876 H   0  0  0  0  0  0
  -27.8920  -30.4190   23.9616 H   0  0  0  0  0  0
  -27.2650  -33.3649   26.2016 H   0  0  0  0  0  0
  -28.3891  -32.6863   25.0335 H   0  0  0  0  0  0
  -28.0702  -31.8494   26.5448 H   0  0  0  0  0  0
  -28.2591  -38.0081   24.7496 H   0  0  0  0  0  0
  -28.1072  -36.2609   24.6310 H   0  0  0  0  0  0
  -27.2292  -37.1453   25.8868 H   0  0  0  0  0  0
  -20.9463  -29.8759   21.6789 H   0  0  0  0  0  0
  -26.0154  -38.2808   24.1397 H   0  0  0  0  0  0
  -31.1958  -17.8445   19.0268 H   0  0  0  0  0  0
  -28.0706  -17.9337   21.9441 H   0  0  0  0  0  0
  -27.4968  -24.5587   19.0284 H   0  0  0  0  0  0
  -29.1742  -24.7842   19.0179 H   0  0  0  0  0  0
  -27.6430  -22.9274   20.9241 H   0  0  0  0  0  0
  -29.2356  -23.4591   21.3489 H   0  0  0  0  0  0
  -28.8186  -15.6912   21.1131 H   0  0  0  0  0  0
  1 25  1  0  0  0
  1 30  2  0  0  0
  1 79  1  0  0  0
  2  3  1  0  0  0
  2 25  1  0  0  0
  2 83  1  0  0  0
  2 84  1  0  0  0
  3  4  1  0  0  0
  3 85  1  0  0  0
  3 86  1  0  0  0
  4  5  1  0  0  0
  4 87  1  0  0  0
  4 88  1  0  0  0
  5  6  1  0  0  0
  5 26  1  0  0  0
  5 89  1  0  0  0
  6 25  1  0  0  0
  6 90  1  0  0  0
  6 91  1  0  0  0
  7  8  2  0  0  0
  7 26  1  0  0  0
  7 29  1  0  0  0
  8  9  1  0  0  0
  8 22  1  0  0  0
  9 10  1  0  0  0
  9 27  2  0  0  0
 10 11  2  0  0  0
 10 15  1  0  0  0
 11 12  1  0  0  0
 11 92  1  0  0  0
 12 13  2  0  0  0
 12 93  1  0  0  0
 13 14  1  0  0  0
 13 31  1  0  0  0
 14 15  2  0  0  0
 14 94  1  0  0  0
 15 95  1  0  0  0
 16 17  2  0  0  0
 16 21  1  0  0  0
 16 31  1  0  0  0
 17 18  1  0  0  0
 17 96  1  0  0  0
 18 19  2  0  0  0
 18 97  1  0  0  0
 19 20  1  0  0  0
 19 24  1  0  0  0
 20 21  2  0  0  0
 20 98  1  0  0  0
 21 23  1  0  0  0
 22 28  1  0  0  0
 22 32  2  0  0  0
 26 27  1  0  0  0
 28 99  1  0  0  0
 28100  1  0  0  0
 29101  1  0  0  0
 29102  1  0  0  0
 33 34  1  0  0  0
 33 66  1  0  0  0
 33 70  2  0  0  0
 34 36  1  0  0  0
 34 59  1  0  0  0
 34103  1  0  0  0
 35 44  2  0  0  0
 35 45  1  0  0  0
 35 68  1  0  0  0
 36 56  1  0  0  0
 36104  1  0  0  0
 37 39  1  0  0  0
 37 47  1  0  0  0
 37 66  1  0  0  0
 37105  1  0  0  0
 38 43  2  0  0  0
 38 46  1  0  0  0
 38 47  1  0  0  0
 39 64  1  0  0  0
 39 67  2  0  0  0
 40 52  1  0  0  0
 40 53  2  0  0  0
 40 58  1  0  0  0
 41106  1  0  0  0
 41107  1  0  0  0
 41108  1  0  0  0
 41 48  1  0  0  0
 42 43  1  0  0  0
 42 66  1  0  0  0
 42109  1  0  0  0
 42110  1  0  0  0
 43 44  1  0  0  0
 44111  1  0  0  0
 45 46  2  0  0  0
 45112  1  0  0  0
 46113  1  0  0  0
 47114  1  0  0  0
 47115  1  0  0  0
 48 56  1  0  0  0
 48 65  1  0  0  0
 48116  1  0  0  0
 49 50  1  0  0  0
 49 53  1  0  0  0
 49 64  1  0  0  0
 49117  1  0  0  0
 50 51  1  0  0  0
 50118  1  0  0  0
 50119  1  0  0  0
 51 52  1  0  0  0
 51120  1  0  0  0
 51121  1  0  0  0
 52122  1  0  0  0
 52123  1  0  0  0
 53 54  1  0  0  0
 54 55  2  0  0  0
 54124  1  0  0  0
 55 57  1  0  0  0
 55125  1  0  0  0
 56 69  2  0  0  0
 57 58  2  0  0  0
 57126  1  0  0  0
 58127  1  0  0  0
 59 60  1  0  0  0
 59 61  1  0  0  0
 59 62  1  0  0  0
 60128  1  0  0  0
 60129  1  0  0  0
 60130  1  0  0  0
 61131  1  0  0  0
 61132  1  0  0  0
 61133  1  0  0  0
 62134  1  0  0  0
 62135  1  0  0  0
 62136  1  0  0  0
 63 65  1  0  0  0
 63137  1  0  0  0
 63138  1  0  0  0
 63139  1  0  0  0
 64140  1  0  0  0
 65141  1  0  0  0
 68 77  1  0  0  0
 71 73  2  0  0  0
 71 75  1  0  0  0
 71142  1  0  0  0
 72 73  1  0  0  0
 72 76  2  0  0  0
 72143  1  0  0  0
 73 79  1  0  0  0
 74 75  2  0  0  0
 74 76  1  0  0  0
 74 80  1  0  0  0
 75 81  1  0  0  0
 76 82  1  0  0  0
 77 78  1  0  0  0
 77144  1  0  0  0
 77145  1  0  0  0
 78 80  1  0  0  0
 78146  1  0  0  0
 78147  1  0  0  0
 79148  1  0  0  0
M  ISO  4   1 100  68 101  77 101  79 100
M  END
> <chiral flag>
0

> <version>
0

> <s_m_source_file>
/data/baiqing/PycharmProjects/Reinvent-master-3.2/result/LINK_invent/BTK/process_docking_weight1_custom_sum_contain_oxygen_bond_distance_aromatic_linkinvent_7_9_3/rearranged_h_0008.sdf

> <i_m_source_file_index>
89

> <r_mmod_Potential_Energy-OPLS-2005>
519.440002441406

> <r_mmod_Stretch_Energy-OPLS-2005>
230.089874267578

> <r_mmod_Bend_Energy-OPLS-2005>
295.063629150391

> <r_mmod_Torsional_Energy-OPLS-2005>
212.820739746094

> <r_mmod_Improper_Torsional_Energy-OPLS-2005>
3.61271739006042

> <r_mmod_Van_der_Waal_Energy-OPLS-2005>
130.442001342773

> <r_mmod_Electrostatic_Energy-OPLS-2005>
-317.409545898438

> <r_mmod_Solvation_Energy-OPLS-2005>
-214.031356811523

> <b_mmod_Minimization_Converged-OPLS-2005>
0

> <r_mmod_RMS_Derivative-OPLS-2005>
0.467583298683167

$$$$
89
                    3D
 Structure written by MMmdl.
156164  0  0  1  0            999 V2000
  -30.5325  -14.9021   20.4419 C   0  0  0  0  0  0
  -30.4504  -12.5487   19.5180 C   0  0  0  0  0  0
  -29.5332  -12.5318   18.2697 C   0  0  0  0  0  0
  -28.0543  -12.3416   18.6684 C   0  0  0  0  0  0
  -27.6385  -13.2480   19.8585 C   0  0  2  0  0  0
  -28.6827  -13.2260   20.9995 C   0  0  0  0  0  0
  -25.2498  -13.8242   20.5804 C   0  0  0  0  0  0
  -24.1783  -13.0463   20.9230 C   0  0  0  0  0  0
  -24.6401  -11.6944   20.8760 C   0  0  0  0  0  0
  -23.9087  -10.4307   21.0419 C   0  0  0  0  0  0
  -24.3631   -9.4221   21.9199 C   0  0  0  0  0  0
  -23.6291   -8.2263   22.0766 C   0  0  0  0  0  0
  -22.4274   -8.0312   21.3553 C   0  0  0  0  0  0
  -21.9898   -9.0304   20.4678 C   0  0  0  0  0  0
  -22.7250  -10.2180   20.3084 C   0  0  0  0  0  0
  -21.6852   -6.0789   22.5292 C   0  0  0  0  0  0
  -21.4029   -6.5691   23.8241 C   0  0  0  0  0  0
  -21.3624   -5.6815   24.9180 C   0  0  0  0  0  0
  -21.6002   -4.3079   24.7214 C   0  0  0  0  0  0
  -21.8800   -3.8182   23.4331 C   0  0  0  0  0  0
  -21.9212   -4.7018   22.3396 C   0  0  0  0  0  0
  -22.7789  -13.5269   21.1841 C   0  0  0  0  0  0
  -22.1666   -4.2213   21.0972 F   0  0  0  0  0  0
  -21.5585   -3.4558   25.7720 F   0  0  0  0  0  0
  -29.9732  -13.6304   20.4204 N   0  0  0  0  0  0
  -26.2926  -12.9478   20.3344 N   0  0  0  0  0  0
  -25.9336  -11.6605   20.5776 N   0  0  0  0  0  0
  -22.0382  -12.8321   22.0393 N   0  0  0  0  0  0
  -25.4157  -15.1993   20.4421 N   0  0  0  0  0  0
  -31.7136  -15.0297   20.0977 O   0  0  0  0  0  0
  -21.6603   -6.8933   21.4261 O   0  0  0  0  0  0
  -22.3520  -14.5595   20.6689 O   0  0  0  0  0  0
  -24.6370  -31.8453   23.1896 C   0  0  0  0  0  0
  -25.9152  -32.4700   23.8262 C   0  0  1  0  0  0
  -27.2217  -27.1624   20.1697 C   0  0  0  0  0  0
  -25.5894  -33.8504   24.2183 N   0  0  0  0  0  0
  -23.4404  -30.4670   21.5311 C   0  0  2  0  0  0
  -24.8944  -28.8969   20.1144 C   0  0  0  0  0  0
  -22.7536  -29.4547   22.4806 C   0  0  0  0  0  0
  -18.0313  -28.1400   22.8468 C   0  0  0  0  0  0
  -24.1498  -36.7282   23.2632 C   0  0  0  0  0  0
  -25.9908  -30.7400   21.3739 C   0  0  0  0  0  0
  -26.0704  -29.3494   20.7268 C   0  0  0  0  0  0
  -27.2362  -28.4984   20.7358 C   0  0  0  0  0  0
  -26.0210  -26.8125   19.5120 C   0  0  0  0  0  0
  -24.8796  -27.6420   19.4927 C   0  0  0  0  0  0
  -23.6691  -29.7942   20.1515 C   0  0  0  0  0  0
  -25.4117  -36.3019   24.0300 C   0  0  1  0  0  0
  -20.5928  -28.3712   23.1242 C   0  0  2  0  0  0
  -20.6785  -26.9401   22.5414 C   0  0  0  0  0  0
  -19.5755  -26.6365   21.5218 C   0  0  0  0  0  0
  -18.1943  -26.7932   22.1629 C   0  0  0  0  0  0
  -19.1567  -28.8872   23.2865 C   0  0  0  0  0  0
  -18.9475  -30.1475   23.8874 C   0  0  0  0  0  0
  -17.6466  -30.6583   24.0565 C   0  0  0  0  0  0
  -25.9049  -34.9394   23.5047 C   0  0  0  0  0  0
  -16.5365  -29.9083   23.6331 C   0  0  0  0  0  0
  -16.7293  -28.6529   23.0309 C   0  0  0  0  0  0
  -26.4514  -31.6548   25.0683 C   0  0  0  0  0  0
  -25.3718  -31.3745   26.1386 C   0  0  0  0  0  0
  -27.0355  -30.2941   24.6203 C   0  0  0  0  0  0
  -27.6023  -32.4313   25.7493 C   0  0  0  0  0  0
  -27.5567  -37.1787   24.8444 C   0  0  0  0  0  0
  -21.4225  -29.3068   22.3602 N   0  0  0  0  0  0
  -26.4271  -37.3736   23.9402 N   0  0  0  0  0  0
  -24.7095  -31.0380   22.0879 N   0  0  0  0  0  0
  -23.4214  -28.8062   23.2893 O   0  0  0  0  0  0
  -28.2768  -26.1863   20.2658 O   0  0  0  0  0  0
  -26.5655  -34.8887   22.4639 O   0  0  0  0  0  0
  -23.5518  -32.1239   23.7192 O   0  0  0  0  0  0
  -28.2837  -19.6307   21.0426 C   0  0  0  0  0  0
  -30.5111  -18.4227   19.9018 C   0  0  0  0  0  0
  -29.1120  -20.5408   20.3108 C   0  0  0  0  0  0
  -29.6356  -17.5158   20.5890 C   0  0  0  0  0  0
  -28.5175  -18.1955   21.1752 C   0  0  0  0  0  0
  -30.2642  -19.8549   19.7650 C   0  0  0  0  0  0
  -28.2815  -21.9179   18.5270 C   0  0  0  0  0  0
  -26.5891  -17.8973   22.6166 C   0  0  0  0  0  0
  -28.9521  -23.3402   20.4849 C   0  0  0  0  0  0
  -27.9993  -24.6725   20.0714 C   0  0  0  0  0  0
  -29.6914  -15.9956   20.7236 N   0  0  0  0  0  0
  -28.6412  -21.9129   19.9451 N   0  0  0  0  0  0
  -27.6496  -17.3505   21.8426 O   0  0  0  0  0  0
  -31.4057  -20.7560   18.8266 Cl  0  0  0  0  0  0
  -31.4917  -12.6932   19.2290 H   0  0  0  0  0  0
  -30.4243  -11.5912   20.0390 H   0  0  0  0  0  0
  -29.8394  -11.7399   17.5855 H   0  0  0  0  0  0
  -29.6511  -13.4710   17.7252 H   0  0  0  0  0  0
  -27.9170  -11.2938   18.9410 H   0  0  0  0  0  0
  -27.4034  -12.5239   17.8118 H   0  0  0  0  0  0
  -27.6128  -14.2619   19.4586 H   0  0  0  0  0  0
  -28.7538  -12.2331   21.4451 H   0  0  0  0  0  0
  -28.3922  -13.8990   21.8098 H   0  0  0  0  0  0
  -25.2781   -9.5710   22.4781 H   0  0  0  0  0  0
  -24.0007   -7.4655   22.7467 H   0  0  0  0  0  0
  -21.0819   -8.8845   19.8996 H   0  0  0  0  0  0
  -22.3694  -10.9736   19.6205 H   0  0  0  0  0  0
  -21.2025   -7.6186   23.9778 H   0  0  0  0  0  0
  -21.1440   -6.0529   25.9104 H   0  0  0  0  0  0
  -22.0609   -2.7655   23.2794 H   0  0  0  0  0  0
  -22.3934  -11.9994   22.4856 H   0  0  0  0  0  0
  -21.1032  -13.1448   22.2562 H   0  0  0  0  0  0
  -24.6511  -15.8461   20.6018 H   0  0  0  0  0  0
  -26.2919  -15.6699   20.2477 H   0  0  0  0  0  0
  -26.7204  -32.5376   23.0990 H   0  0  0  0  0  0
  -24.9986  -33.9636   25.0287 H   0  0  0  0  0  0
  -22.7404  -31.2903   21.3762 H   0  0  0  0  0  0
  -23.3736  -35.9634   23.3256 H   0  0  0  0  0  0
  -24.3587  -36.8954   22.2050 H   0  0  0  0  0  0
  -23.7280  -37.6474   23.6714 H   0  0  0  0  0  0
  -26.1156  -31.4897   20.5915 H   0  0  0  0  0  0
  -26.8725  -30.8132   21.9984 H   0  0  0  0  0  0
  -28.1298  -28.8427   21.2391 H   0  0  0  0  0  0
  -25.9261  -25.8534   19.0292 H   0  0  0  0  0  0
  -23.9780  -27.2955   19.0077 H   0  0  0  0  0  0
  -23.8039  -30.5635   19.3901 H   0  0  0  0  0  0
  -22.7882  -29.2293   19.8428 H   0  0  0  0  0  0
  -25.1316  -36.1810   25.0790 H   0  0  0  0  0  0
  -21.0055  -28.3294   24.1348 H   0  0  0  0  0  0
  -20.5651  -26.2310   23.3630 H   0  0  0  0  0  0
  -21.6648  -26.7372   22.1212 H   0  0  0  0  0  0
  -19.6898  -25.6267   21.1258 H   0  0  0  0  0  0
  -19.6681  -27.3167   20.6744 H   0  0  0  0  0  0
  -17.4190  -26.6651   21.4062 H   0  0  0  0  0  0
  -18.0347  -26.0103   22.9052 H   0  0  0  0  0  0
  -19.7946  -30.7325   24.2189 H   0  0  0  0  0  0
  -17.5019  -31.6259   24.5158 H   0  0  0  0  0  0
  -15.5368  -30.2975   23.7682 H   0  0  0  0  0  0
  -15.8698  -28.0886   22.6963 H   0  0  0  0  0  0
  -24.5861  -30.7129   25.7726 H   0  0  0  0  0  0
  -24.8971  -32.2951   26.4790 H   0  0  0  0  0  0
  -25.8008  -30.8912   27.0165 H   0  0  0  0  0  0
  -26.2946  -29.6671   24.1222 H   0  0  0  0  0  0
  -27.3992  -29.7220   25.4753 H   0  0  0  0  0  0
  -27.8847  -30.4184   23.9474 H   0  0  0  0  0  0
  -27.2563  -33.3599   26.2047 H   0  0  0  0  0  0
  -28.3869  -32.6871   25.0365 H   0  0  0  0  0  0
  -28.0631  -31.8429   26.5432 H   0  0  0  0  0  0
  -28.2541  -38.0129   24.7504 H   0  0  0  0  0  0
  -28.1093  -36.2636   24.6236 H   0  0  0  0  0  0
  -27.2288  -37.1418   25.8851 H   0  0  0  0  0  0
  -20.9370  -29.8819   21.6850 H   0  0  0  0  0  0
  -26.0105  -38.2774   24.1467 H   0  0  0  0  0  0
  -27.3917  -20.0591   21.4713 H   0  0  0  0  0  0
  -31.3858  -18.0190   19.4150 H   0  0  0  0  0  0
  -28.1639  -20.9169   18.1076 H   0  0  0  0  0  0
  -29.0394  -22.4396   17.9397 H   0  0  0  0  0  0
  -27.3323  -22.4307   18.3724 H   0  0  0  0  0  0
  -25.9755  -17.0798   22.9974 H   0  0  0  0  0  0
  -25.9255  -18.5395   22.0383 H   0  0  0  0  0  0
  -26.9770  -18.4477   23.4745 H   0  0  0  0  0  0
  -28.9820  -23.2717   21.5734 H   0  0  0  0  0  0
  -29.9774  -23.5640   20.1896 H   0  0  0  0  0  0
  -27.0445  -24.4964   20.5700 H   0  0  0  0  0  0
  -27.7993  -24.5840   19.0039 H   0  0  0  0  0  0
  -28.8227  -15.6485   21.1019 H   0  0  0  0  0  0
  1 25  1  0  0  0
  1 30  2  0  0  0
  1 81  1  0  0  0
  2  3  1  0  0  0
  2 25  1  0  0  0
  2 85  1  0  0  0
  2 86  1  0  0  0
  3  4  1  0  0  0
  3 87  1  0  0  0
  3 88  1  0  0  0
  4  5  1  0  0  0
  4 89  1  0  0  0
  4 90  1  0  0  0
  5  6  1  0  0  0
  5 26  1  0  0  0
  5 91  1  0  0  0
  6 25  1  0  0  0
  6 92  1  0  0  0
  6 93  1  0  0  0
  7  8  2  0  0  0
  7 26  1  0  0  0
  7 29  1  0  0  0
  8  9  1  0  0  0
  8 22  1  0  0  0
  9 10  1  0  0  0
  9 27  2  0  0  0
 10 11  2  0  0  0
 10 15  1  0  0  0
 11 12  1  0  0  0
 11 94  1  0  0  0
 12 13  2  0  0  0
 12 95  1  0  0  0
 13 14  1  0  0  0
 13 31  1  0  0  0
 14 15  2  0  0  0
 14 96  1  0  0  0
 15 97  1  0  0  0
 16 17  2  0  0  0
 16 21  1  0  0  0
 16 31  1  0  0  0
 17 18  1  0  0  0
 17 98  1  0  0  0
 18 19  2  0  0  0
 18 99  1  0  0  0
 19 20  1  0  0  0
 19 24  1  0  0  0
 20 21  2  0  0  0
 20100  1  0  0  0
 21 23  1  0  0  0
 22 28  1  0  0  0
 22 32  2  0  0  0
 26 27  1  0  0  0
 28101  1  0  0  0
 28102  1  0  0  0
 29103  1  0  0  0
 29104  1  0  0  0
 33 34  1  0  0  0
 33 66  1  0  0  0
 33 70  2  0  0  0
 34 36  1  0  0  0
 34 59  1  0  0  0
 34105  1  0  0  0
 35 44  2  0  0  0
 35 45  1  0  0  0
 35 68  1  0  0  0
 36 56  1  0  0  0
 36106  1  0  0  0
 37 39  1  0  0  0
 37 47  1  0  0  0
 37 66  1  0  0  0
 37107  1  0  0  0
 38 43  2  0  0  0
 38 46  1  0  0  0
 38 47  1  0  0  0
 39 64  1  0  0  0
 39 67  2  0  0  0
 40 52  1  0  0  0
 40 53  2  0  0  0
 40 58  1  0  0  0
 41108  1  0  0  0
 41109  1  0  0  0
 41110  1  0  0  0
 41 48  1  0  0  0
 42 43  1  0  0  0
 42 66  1  0  0  0
 42111  1  0  0  0
 42112  1  0  0  0
 43 44  1  0  0  0
 44113  1  0  0  0
 45 46  2  0  0  0
 45114  1  0  0  0
 46115  1  0  0  0
 47116  1  0  0  0
 47117  1  0  0  0
 48 56  1  0  0  0
 48 65  1  0  0  0
 48118  1  0  0  0
 49 50  1  0  0  0
 49 53  1  0  0  0
 49 64  1  0  0  0
 49119  1  0  0  0
 50 51  1  0  0  0
 50120  1  0  0  0
 50121  1  0  0  0
 51 52  1  0  0  0
 51122  1  0  0  0
 51123  1  0  0  0
 52124  1  0  0  0
 52125  1  0  0  0
 53 54  1  0  0  0
 54 55  2  0  0  0
 54126  1  0  0  0
 55 57  1  0  0  0
 55127  1  0  0  0
 56 69  2  0  0  0
 57 58  2  0  0  0
 57128  1  0  0  0
 58129  1  0  0  0
 59 60  1  0  0  0
 59 61  1  0  0  0
 59 62  1  0  0  0
 60130  1  0  0  0
 60131  1  0  0  0
 60132  1  0  0  0
 61133  1  0  0  0
 61134  1  0  0  0
 61135  1  0  0  0
 62136  1  0  0  0
 62137  1  0  0  0
 62138  1  0  0  0
 63 65  1  0  0  0
 63139  1  0  0  0
 63140  1  0  0  0
 63141  1  0  0  0
 64142  1  0  0  0
 65143  1  0  0  0
 68 80  1  0  0  0
 71 73  2  0  0  0
 71 75  1  0  0  0
 71144  1  0  0  0
 72 74  1  0  0  0
 72 76  2  0  0  0
 72145  1  0  0  0
 73 76  1  0  0  0
 73 82  1  0  0  0
 74 75  2  0  0  0
 74 81  1  0  0  0
 75 83  1  0  0  0
 76 84  1  0  0  0
 77 82  1  0  0  0
 77146  1  0  0  0
 77147  1  0  0  0
 77148  1  0  0  0
 78 83  1  0  0  0
 78149  1  0  0  0
 78150  1  0  0  0
 78151  1  0  0  0
 79 80  1  0  0  0
 79 82  1  0  0  0
 79152  1  0  0  0
 79153  1  0  0  0
 80154  1  0  0  0
 80155  1  0  0  0
 81156  1  0  0  0
M  ISO  4   1 100  68 101  80 101  81 100
M  END
> <chiral flag>
0

> <version>
0

> <s_m_source_file>
/data/baiqing/PycharmProjects/Reinvent-master-3.2/result/LINK_invent/BTK/process_docking_weight1_custom_sum_contain_oxygen_bond_distance_aromatic_linkinvent_7_9_3/rearranged_h_0008.sdf

> <i_m_source_file_index>
90

> <r_mmod_Potential_Energy-OPLS-2005>
464.415283203125

> <r_mmod_Stretch_Energy-OPLS-2005>
215.027236938477

> <r_mmod_Bend_Energy-OPLS-2005>
274.671173095703

> <r_mmod_Torsional_Energy-OPLS-2005>
245.751235961914

> <r_mmod_Improper_Torsional_Energy-OPLS-2005>
7.24302530288696

> <r_mmod_Van_der_Waal_Energy-OPLS-2005>
135.667144775391

> <r_mmod_Electrostatic_Energy-OPLS-2005>
-362.821960449219

> <r_mmod_Solvation_Energy-OPLS-2005>
-218.621292114258

> <b_mmod_Minimization_Converged-OPLS-2005>
0

> <r_mmod_RMS_Derivative-OPLS-2005>
4.91763687133789

$$$$
90
                    3D
 Structure written by MMmdl.
163171  0  0  1  0            999 V2000
  -30.5309  -14.9236   20.4332 C   0  0  0  0  0  0
  -30.4473  -12.5690   19.4999 C   0  0  0  0  0  0
  -29.5255  -12.5383   18.2576 C   0  0  0  0  0  0
  -28.0561  -12.3279   18.6703 C   0  0  0  0  0  0
  -27.6380  -13.2452   19.8491 C   0  0  2  0  0  0
  -28.6808  -13.2383   20.9886 C   0  0  0  0  0  0
  -25.2493  -13.8215   20.5712 C   0  0  0  0  0  0
  -24.1798  -13.0440   20.9211 C   0  0  0  0  0  0
  -24.6409  -11.6925   20.8744 C   0  0  0  0  0  0
  -23.9088  -10.4296   21.0402 C   0  0  0  0  0  0
  -24.3632   -9.4208   21.9181 C   0  0  0  0  0  0
  -23.6300   -8.2248   22.0753 C   0  0  0  0  0  0
  -22.4281   -8.0287   21.3546 C   0  0  0  0  0  0
  -21.9919   -9.0263   20.4648 C   0  0  0  0  0  0
  -22.7256  -10.2138   20.3054 C   0  0  0  0  0  0
  -21.6857   -6.0739   22.5278 C   0  0  0  0  0  0
  -21.4019   -6.5641   23.8212 C   0  0  0  0  0  0
  -21.3660   -5.6792   24.9173 C   0  0  0  0  0  0
  -21.6043   -4.3055   24.7223 C   0  0  0  0  0  0
  -21.8818   -3.8149   23.4345 C   0  0  0  0  0  0
  -21.9194   -4.6966   22.3402 C   0  0  0  0  0  0
  -22.7816  -13.5212   21.1869 C   0  0  0  0  0  0
  -22.1660   -4.2152   21.0979 F   0  0  0  0  0  0
  -21.5627   -3.4538   25.7736 F   0  0  0  0  0  0
  -29.9655  -13.6504   20.4051 N   0  0  0  0  0  0
  -26.2929  -12.9444   20.3280 N   0  0  0  0  0  0
  -25.9345  -11.6573   20.5744 N   0  0  0  0  0  0
  -22.0467  -12.8202   22.0427 N   0  0  0  0  0  0
  -25.4154  -15.1945   20.4144 N   0  0  0  0  0  0
  -31.7117  -15.0317   20.0842 O   0  0  0  0  0  0
  -21.6642   -6.8885   21.4242 O   0  0  0  0  0  0
  -22.3495  -14.5516   20.6716 O   0  0  0  0  0  0
  -24.6435  -31.8442   23.1891 C   0  0  0  0  0  0
  -25.9209  -32.4694   23.8277 C   0  0  1  0  0  0
  -27.2180  -27.1366   20.1462 C   0  0  0  0  0  0
  -25.5957  -33.8500   24.2193 N   0  0  0  0  0  0
  -23.4472  -30.4642   21.5345 C   0  0  2  0  0  0
  -24.8978  -28.8949   20.1074 C   0  0  0  0  0  0
  -22.7570  -29.4546   22.4857 C   0  0  0  0  0  0
  -18.0305  -28.1396   22.8473 C   0  0  0  0  0  0
  -24.1493  -36.7257   23.2640 C   0  0  0  0  0  0
  -26.0037  -30.7165   21.3904 C   0  0  0  0  0  0
  -26.0744  -29.3285   20.7312 C   0  0  0  0  0  0
  -27.2334  -28.4637   20.7388 C   0  0  0  0  0  0
  -26.0192  -26.8157   19.4679 C   0  0  0  0  0  0
  -24.8834  -27.6518   19.4605 C   0  0  0  0  0  0
  -23.6739  -29.7961   20.1528 C   0  0  0  0  0  0
  -25.4123  -36.3031   24.0315 C   0  0  1  0  0  0
  -20.5918  -28.3724   23.1231 C   0  0  2  0  0  0
  -20.6789  -26.9426   22.5403 C   0  0  0  0  0  0
  -19.5764  -26.6381   21.5210 C   0  0  0  0  0  0
  -18.1945  -26.7933   22.1621 C   0  0  0  0  0  0
  -19.1562  -28.8877   23.2844 C   0  0  0  0  0  0
  -18.9478  -30.1471   23.8873 C   0  0  0  0  0  0
  -17.6475  -30.6590   24.0558 C   0  0  0  0  0  0
  -25.9075  -34.9406   23.5063 C   0  0  0  0  0  0
  -16.5366  -29.9083   23.6333 C   0  0  0  0  0  0
  -16.7290  -28.6503   23.0354 C   0  0  0  0  0  0
  -26.4528  -31.6561   25.0720 C   0  0  0  0  0  0
  -25.3710  -31.3757   26.1413 C   0  0  0  0  0  0
  -27.0393  -30.2953   24.6311 C   0  0  0  0  0  0
  -27.6058  -32.4327   25.7506 C   0  0  0  0  0  0
  -27.5575  -37.1786   24.8463 C   0  0  0  0  0  0
  -21.4262  -29.3049   22.3604 N   0  0  0  0  0  0
  -26.4286  -37.3744   23.9405 N   0  0  0  0  0  0
  -24.7178  -31.0295   22.0930 N   0  0  0  0  0  0
  -23.4211  -28.8091   23.3008 O   0  0  0  0  0  0
  -28.2567  -26.1356   20.2392 O   0  0  0  0  0  0
  -26.5662  -34.8904   22.4642 O   0  0  0  0  0  0
  -23.5554  -32.1326   23.7106 O   0  0  0  0  0  0
  -28.9127  -19.5769   19.1862 C   0  0  0  0  0  0
  -29.6757  -20.0120   21.3616 C   0  0  0  0  0  0
  -29.1962  -18.1628   19.3453 C   0  0  0  0  0  0
  -29.9631  -18.5814   21.5769 C   0  0  0  0  0  0
  -29.1138  -20.5914   20.1768 C   0  0  0  0  0  0
  -29.7275  -17.5712   20.5428 C   0  0  0  0  0  0
  -28.8360  -23.3415   20.4493 C   0  0  0  0  0  0
  -28.8530  -17.2451   18.1833 C   0  0  0  0  0  0
  -30.7454  -19.3439   23.9382 C   0  0  0  0  0  0
  -31.8710  -17.4557   22.8386 C   0  0  0  0  0  0
  -29.4986  -17.2314   23.6983 C   0  0  0  0  0  0
  -27.9646  -24.6425   19.8985 C   0  0  0  0  0  0
  -30.5033  -18.1549   22.9748 C   0  0  0  0  0  0
  -28.6533  -22.0363   19.9220 N   0  0  0  0  0  0
  -29.7123  -16.0430   20.7311 N   0  0  0  0  0  0
  -29.6528  -23.5305   21.3545 O   0  0  0  0  0  0
  -31.4817  -12.7274   19.1914 H   0  0  0  0  0  0
  -30.4361  -11.6066   20.0141 H   0  0  0  0  0  0
  -29.8386  -11.7496   17.5722 H   0  0  0  0  0  0
  -29.6208  -13.4768   17.7093 H   0  0  0  0  0  0
  -27.9429  -11.2826   18.9601 H   0  0  0  0  0  0
  -27.3960  -12.4807   17.8157 H   0  0  0  0  0  0
  -27.6114  -14.2553   19.4400 H   0  0  0  0  0  0
  -28.7579  -12.2492   21.4423 H   0  0  0  0  0  0
  -28.3826  -13.9176   21.7886 H   0  0  0  0  0  0
  -25.2778   -9.5680   22.4755 H   0  0  0  0  0  0
  -24.0007   -7.4638   22.7474 H   0  0  0  0  0  0
  -21.0849   -8.8788   19.8956 H   0  0  0  0  0  0
  -22.3717  -10.9677   19.6163 H   0  0  0  0  0  0
  -21.2013   -7.6149   23.9716 H   0  0  0  0  0  0
  -21.1480   -6.0522   25.9075 H   0  0  0  0  0  0
  -22.0597   -2.7610   23.2846 H   0  0  0  0  0  0
  -22.4089  -11.9869   22.4821 H   0  0  0  0  0  0
  -21.1083  -13.1222   22.2631 H   0  0  0  0  0  0
  -24.6439  -15.8429   20.5279 H   0  0  0  0  0  0
  -26.2578  -15.6415   20.0781 H   0  0  0  0  0  0
  -26.7275  -32.5301   23.1005 H   0  0  0  0  0  0
  -25.0076  -33.9615   25.0321 H   0  0  0  0  0  0
  -22.7498  -31.2903   21.3810 H   0  0  0  0  0  0
  -23.3756  -35.9587   23.3290 H   0  0  0  0  0  0
  -24.3578  -36.8901   22.2057 H   0  0  0  0  0  0
  -23.7250  -37.6451   23.6685 H   0  0  0  0  0  0
  -26.1606  -31.4713   20.6185 H   0  0  0  0  0  0
  -26.8737  -30.7659   22.0334 H   0  0  0  0  0  0
  -28.1250  -28.7867   21.2577 H   0  0  0  0  0  0
  -25.9169  -25.8743   18.9505 H   0  0  0  0  0  0
  -23.9883  -27.3184   18.9535 H   0  0  0  0  0  0
  -23.8099  -30.5719   19.3984 H   0  0  0  0  0  0
  -22.7890  -29.2381   19.8414 H   0  0  0  0  0  0
  -25.1310  -36.1857   25.0806 H   0  0  0  0  0  0
  -21.0008  -28.3316   24.1353 H   0  0  0  0  0  0
  -20.5677  -26.2339   23.3624 H   0  0  0  0  0  0
  -21.6656  -26.7427   22.1206 H   0  0  0  0  0  0
  -19.6926  -25.6286   21.1254 H   0  0  0  0  0  0
  -19.6698  -27.3179   20.6729 H   0  0  0  0  0  0
  -17.4212  -26.6672   21.4027 H   0  0  0  0  0  0
  -18.0346  -26.0081   22.9025 H   0  0  0  0  0  0
  -19.7954  -30.7291   24.2236 H   0  0  0  0  0  0
  -17.5028  -31.6268   24.5164 H   0  0  0  0  0  0
  -15.5366  -30.2978   23.7671 H   0  0  0  0  0  0
  -15.8690  -28.0812   22.7084 H   0  0  0  0  0  0
  -24.5897  -30.7095   25.7736 H   0  0  0  0  0  0
  -24.8893  -32.2942   26.4774 H   0  0  0  0  0  0
  -25.7991  -30.8975   27.0232 H   0  0  0  0  0  0
  -26.3014  -29.6673   24.1306 H   0  0  0  0  0  0
  -27.3982  -29.7253   25.4892 H   0  0  0  0  0  0
  -27.8932  -30.4178   23.9646 H   0  0  0  0  0  0
  -27.2648  -33.3645   26.2031 H   0  0  0  0  0  0
  -28.3897  -32.6860   25.0357 H   0  0  0  0  0  0
  -28.0694  -31.8489   26.5468 H   0  0  0  0  0  0
  -28.2584  -38.0090   24.7505 H   0  0  0  0  0  0
  -28.1080  -36.2619   24.6292 H   0  0  0  0  0  0
  -27.2293  -37.1434   25.8866 H   0  0  0  0  0  0
  -20.9474  -29.8766   21.6785 H   0  0  0  0  0  0
  -26.0151  -38.2811   24.1406 H   0  0  0  0  0  0
  -28.4826  -19.8930   18.2461 H   0  0  0  0  0  0
  -29.8414  -20.7284   22.1487 H   0  0  0  0  0  0
  -28.5786  -17.8062   17.2899 H   0  0  0  0  0  0
  -28.0148  -16.5985   18.4429 H   0  0  0  0  0  0
  -29.7056  -16.6157   17.9270 H   0  0  0  0  0  0
  -31.4673  -20.0561   23.5356 H   0  0  0  0  0  0
  -31.1471  -19.0059   24.8945 H   0  0  0  0  0  0
  -29.8236  -19.8797   24.1686 H   0  0  0  0  0  0
  -32.5915  -18.0962   22.3287 H   0  0  0  0  0  0
  -31.8181  -16.5242   22.2857 H   0  0  0  0  0  0
  -32.2910  -17.2069   23.8140 H   0  0  0  0  0  0
  -28.5221  -17.7086   23.7886 H   0  0  0  0  0  0
  -29.8366  -16.9943   24.7079 H   0  0  0  0  0  0
  -29.3498  -16.2764   23.2020 H   0  0  0  0  0  0
  -26.9535  -24.4241   20.2421 H   0  0  0  0  0  0
  -27.9361  -24.5632   18.8115 H   0  0  0  0  0  0
  -28.0209  -22.0882   19.1345 H   0  0  0  0  0  0
  -28.8113  -15.7198   21.0477 H   0  0  0  0  0  0
  1 25  1  0  0  0
  1 30  2  0  0  0
  1 85  1  0  0  0
  2  3  1  0  0  0
  2 25  1  0  0  0
  2 87  1  0  0  0
  2 88  1  0  0  0
  3  4  1  0  0  0
  3 89  1  0  0  0
  3 90  1  0  0  0
  4  5  1  0  0  0
  4 91  1  0  0  0
  4 92  1  0  0  0
  5  6  1  0  0  0
  5 26  1  0  0  0
  5 93  1  0  0  0
  6 25  1  0  0  0
  6 94  1  0  0  0
  6 95  1  0  0  0
  7  8  2  0  0  0
  7 26  1  0  0  0
  7 29  1  0  0  0
  8  9  1  0  0  0
  8 22  1  0  0  0
  9 10  1  0  0  0
  9 27  2  0  0  0
 10 11  2  0  0  0
 10 15  1  0  0  0
 11 12  1  0  0  0
 11 96  1  0  0  0
 12 13  2  0  0  0
 12 97  1  0  0  0
 13 14  1  0  0  0
 13 31  1  0  0  0
 14 15  2  0  0  0
 14 98  1  0  0  0
 15 99  1  0  0  0
 16 17  2  0  0  0
 16 21  1  0  0  0
 16 31  1  0  0  0
 17 18  1  0  0  0
 17100  1  0  0  0
 18 19  2  0  0  0
 18101  1  0  0  0
 19 20  1  0  0  0
 19 24  1  0  0  0
 20 21  2  0  0  0
 20102  1  0  0  0
 21 23  1  0  0  0
 22 28  1  0  0  0
 22 32  2  0  0  0
 26 27  1  0  0  0
 28103  1  0  0  0
 28104  1  0  0  0
 29105  1  0  0  0
 29106  1  0  0  0
 33 34  1  0  0  0
 33 66  1  0  0  0
 33 70  2  0  0  0
 34 36  1  0  0  0
 34 59  1  0  0  0
 34107  1  0  0  0
 35 44  2  0  0  0
 35 45  1  0  0  0
 35 68  1  0  0  0
 36 56  1  0  0  0
 36108  1  0  0  0
 37 39  1  0  0  0
 37 47  1  0  0  0
 37 66  1  0  0  0
 37109  1  0  0  0
 38 43  2  0  0  0
 38 46  1  0  0  0
 38 47  1  0  0  0
 39 64  1  0  0  0
 39 67  2  0  0  0
 40 52  1  0  0  0
 40 53  2  0  0  0
 40 58  1  0  0  0
 41110  1  0  0  0
 41111  1  0  0  0
 41112  1  0  0  0
 41 48  1  0  0  0
 42 43  1  0  0  0
 42 66  1  0  0  0
 42113  1  0  0  0
 42114  1  0  0  0
 43 44  1  0  0  0
 44115  1  0  0  0
 45 46  2  0  0  0
 45116  1  0  0  0
 46117  1  0  0  0
 47118  1  0  0  0
 47119  1  0  0  0
 48 56  1  0  0  0
 48 65  1  0  0  0
 48120  1  0  0  0
 49 50  1  0  0  0
 49 53  1  0  0  0
 49 64  1  0  0  0
 49121  1  0  0  0
 50 51  1  0  0  0
 50122  1  0  0  0
 50123  1  0  0  0
 51 52  1  0  0  0
 51124  1  0  0  0
 51125  1  0  0  0
 52126  1  0  0  0
 52127  1  0  0  0
 53 54  1  0  0  0
 54 55  2  0  0  0
 54128  1  0  0  0
 55 57  1  0  0  0
 55129  1  0  0  0
 56 69  2  0  0  0
 57 58  2  0  0  0
 57130  1  0  0  0
 58131  1  0  0  0
 59 60  1  0  0  0
 59 61  1  0  0  0
 59 62  1  0  0  0
 60132  1  0  0  0
 60133  1  0  0  0
 60134  1  0  0  0
 61135  1  0  0  0
 61136  1  0  0  0
 61137  1  0  0  0
 62138  1  0  0  0
 62139  1  0  0  0
 62140  1  0  0  0
 63 65  1  0  0  0
 63141  1  0  0  0
 63142  1  0  0  0
 63143  1  0  0  0
 64144  1  0  0  0
 65145  1  0  0  0
 68 82  1  0  0  0
 71 73  2  0  0  0
 71 75  1  0  0  0
 71146  1  0  0  0
 72 74  1  0  0  0
 72 75  2  0  0  0
 72147  1  0  0  0
 73 76  1  0  0  0
 73 78  1  0  0  0
 74 76  2  0  0  0
 74 83  1  0  0  0
 75 84  1  0  0  0
 76 85  1  0  0  0
 77 82  1  0  0  0
 77 84  1  0  0  0
 77 86  2  0  0  0
 78148  1  0  0  0
 78149  1  0  0  0
 78150  1  0  0  0
 79151  1  0  0  0
 79152  1  0  0  0
 79153  1  0  0  0
 79 83  1  0  0  0
 80 83  1  0  0  0
 80154  1  0  0  0
 80155  1  0  0  0
 80156  1  0  0  0
 81 83  1  0  0  0
 81157  1  0  0  0
 81158  1  0  0  0
 81159  1  0  0  0
 82160  1  0  0  0
 82161  1  0  0  0
 84162  1  0  0  0
 85163  1  0  0  0
M  ISO  4   1 100  68 101  82 101  85 100
M  END
> <chiral flag>
0

> <version>
0

> <s_m_source_file>
/data/baiqing/PycharmProjects/Reinvent-master-3.2/result/LINK_invent/BTK/process_docking_weight1_custom_sum_contain_oxygen_bond_distance_aromatic_linkinvent_7_9_3/rearranged_h_0008.sdf

> <i_m_source_file_index>
91

> <r_mmod_Potential_Energy-OPLS-2005>
436.731414794922

> <r_mmod_Stretch_Energy-OPLS-2005>
236.447616577148

> <r_mmod_Bend_Energy-OPLS-2005>
265.189117431641

> <r_mmod_Torsional_Energy-OPLS-2005>
254.563339233398

> <r_mmod_Improper_Torsional_Energy-OPLS-2005>
5.70334911346436

> <r_mmod_Van_der_Waal_Energy-OPLS-2005>
139.612731933594

> <r_mmod_Electrostatic_Energy-OPLS-2005>
-410.26904296875

> <r_mmod_Solvation_Energy-OPLS-2005>
-239.781372070312

> <b_mmod_Minimization_Converged-OPLS-2005>
0

> <r_mmod_RMS_Derivative-OPLS-2005>
0.346451967954636

$$$$
91
                    3D
 Structure written by MMmdl.
151159  0  0  1  0            999 V2000
  -30.5160  -15.0517   20.4055 C   0  0  0  0  0  0
  -30.4391  -12.6619   19.4997 C   0  0  0  0  0  0
  -29.5200  -12.5259   18.2630 C   0  0  0  0  0  0
  -28.0641  -12.2829   18.6967 C   0  0  0  0  0  0
  -27.6196  -13.2500   19.8238 C   0  0  2  0  0  0
  -28.6601  -13.3463   20.9599 C   0  0  0  0  0  0
  -25.2433  -13.8209   20.5684 C   0  0  0  0  0  0
  -24.1767  -13.0443   20.9245 C   0  0  0  0  0  0
  -24.6380  -11.6923   20.8772 C   0  0  0  0  0  0
  -23.9075  -10.4292   21.0424 C   0  0  0  0  0  0
  -24.3618   -9.4204   21.9202 C   0  0  0  0  0  0
  -23.6289   -8.2238   22.0764 C   0  0  0  0  0  0
  -22.4278   -8.0272   21.3539 C   0  0  0  0  0  0
  -21.9921   -9.0252   20.4638 C   0  0  0  0  0  0
  -22.7257  -10.2135   20.3056 C   0  0  0  0  0  0
  -21.6849   -6.0740   22.5279 C   0  0  0  0  0  0
  -21.4011   -6.5640   23.8216 C   0  0  0  0  0  0
  -21.3655   -5.6792   24.9172 C   0  0  0  0  0  0
  -21.6046   -4.3056   24.7226 C   0  0  0  0  0  0
  -21.8815   -3.8149   23.4345 C   0  0  0  0  0  0
  -21.9192   -4.6967   22.3399 C   0  0  0  0  0  0
  -22.7786  -13.5206   21.1901 C   0  0  0  0  0  0
  -22.1661   -4.2149   21.0980 F   0  0  0  0  0  0
  -21.5628   -3.4538   25.7740 F   0  0  0  0  0  0
  -29.9210  -13.7828   20.3456 N   0  0  0  0  0  0
  -26.2839  -12.9429   20.3201 N   0  0  0  0  0  0
  -25.9304  -11.6566   20.5739 N   0  0  0  0  0  0
  -22.0423  -12.8186   22.0429 N   0  0  0  0  0  0
  -25.4082  -15.1932   20.4046 N   0  0  0  0  0  0
  -31.7331  -15.0721   20.1842 O   0  0  0  0  0  0
  -21.6637   -6.8880   21.4238 O   0  0  0  0  0  0
  -22.3480  -14.5513   20.6741 O   0  0  0  0  0  0
  -24.6490  -31.8384   23.1792 C   0  0  0  0  0  0
  -25.9238  -32.4678   23.8207 C   0  0  1  0  0  0
  -27.2203  -27.0669   20.1704 C   0  0  0  0  0  0
  -25.5958  -33.8474   24.2142 N   0  0  0  0  0  0
  -23.4575  -30.4531   21.5263 C   0  0  2  0  0  0
  -24.9093  -28.8673   20.1101 C   0  0  0  0  0  0
  -22.7601  -29.4503   22.4804 C   0  0  0  0  0  0
  -18.0309  -28.1399   22.8469 C   0  0  0  0  0  0
  -24.1486  -36.7255   23.2645 C   0  0  0  0  0  0
  -26.0146  -30.6950   21.3804 C   0  0  0  0  0  0
  -26.0892  -29.2934   20.7339 C   0  0  0  0  0  0
  -27.2446  -28.4123   20.7448 C   0  0  0  0  0  0
  -26.0140  -26.7631   19.4990 C   0  0  0  0  0  0
  -24.8889  -27.6182   19.4743 C   0  0  0  0  0  0
  -23.6903  -29.7802   20.1474 C   0  0  0  0  0  0
  -25.4111  -36.3027   24.0315 C   0  0  1  0  0  0
  -20.5927  -28.3736   23.1205 C   0  0  2  0  0  0
  -20.6790  -26.9429   22.5385 C   0  0  0  0  0  0
  -19.5763  -26.6404   21.5195 C   0  0  0  0  0  0
  -18.1947  -26.7944   22.1608 C   0  0  0  0  0  0
  -19.1564  -28.8880   23.2838 C   0  0  0  0  0  0
  -18.9487  -30.1465   23.8883 C   0  0  0  0  0  0
  -17.6490  -30.6603   24.0559 C   0  0  0  0  0  0
  -25.9075  -34.9406   23.5050 C   0  0  0  0  0  0
  -16.5381  -29.9098   23.6330 C   0  0  0  0  0  0
  -16.7294  -28.6513   23.0352 C   0  0  0  0  0  0
  -26.4547  -31.6539   25.0651 C   0  0  0  0  0  0
  -25.3715  -31.3698   26.1329 C   0  0  0  0  0  0
  -27.0420  -30.2953   24.6192 C   0  0  0  0  0  0
  -27.6074  -32.4285   25.7452 C   0  0  0  0  0  0
  -27.5561  -37.1784   24.8469 C   0  0  0  0  0  0
  -21.4282  -29.3076   22.3580 N   0  0  0  0  0  0
  -26.4273  -37.3741   23.9419 N   0  0  0  0  0  0
  -24.7280  -31.0182   22.0852 N   0  0  0  0  0  0
  -23.4221  -28.8033   23.2960 O   0  0  0  0  0  0
  -28.2484  -26.0319   20.2504 O   0  0  0  0  0  0
  -26.5676  -34.8925   22.4646 O   0  0  0  0  0  0
  -23.5595  -32.1264   23.6998 O   0  0  0  0  0  0
  -30.9685  -20.6061   20.7687 C   0  0  0  0  0  0
  -31.3999  -18.1592   20.8222 C   0  0  0  0  0  0
  -29.1859  -19.0226   20.3662 C   0  0  0  0  0  0
  -31.8393  -19.4997   20.9489 C   0  0  0  0  0  0
  -29.5906  -20.4761   20.4692 C   0  0  0  0  0  0
  -30.0671  -17.8047   20.5291 C   0  0  0  0  0  0
  -29.0079  -23.2185   20.3913 C   0  0  0  0  0  0
  -27.9136  -24.4792   20.1427 C   0  0  0  0  0  0
  -33.3083  -19.7311   21.2837 C   0  0  0  0  0  0
  -28.7467  -21.7924   20.3012 N   0  0  0  0  0  0
  -29.7419  -16.2736   20.4706 N   0  0  0  0  0  0
  -30.1449  -23.5914   20.6868 O   0  0  0  0  0  0
  -33.5661  -21.0014   21.6009 F   0  0  0  0  0  0
  -33.6679  -18.9689   22.3180 F   0  0  0  0  0  0
  -34.0602  -19.3981   20.2342 F   0  0  0  0  0  0
  -31.4640  -12.8395   19.1713 H   0  0  0  0  0  0
  -30.4666  -11.7322   20.0696 H   0  0  0  0  0  0
  -29.8621  -11.7106   17.6247 H   0  0  0  0  0  0
  -29.5758  -13.4326   17.6595 H   0  0  0  0  0  0
  -28.0018  -11.2549   19.0569 H   0  0  0  0  0  0
  -27.3907  -12.3459   17.8414 H   0  0  0  0  0  0
  -27.5620  -14.2315   19.3519 H   0  0  0  0  0  0
  -28.7759  -12.3911   21.4737 H   0  0  0  0  0  0
  -28.3371  -14.0702   21.7098 H   0  0  0  0  0  0
  -25.2754   -9.5687   22.4795 H   0  0  0  0  0  0
  -23.9991   -7.4633   22.7490 H   0  0  0  0  0  0
  -21.0859   -8.8772   19.8936 H   0  0  0  0  0  0
  -22.3716  -10.9673   19.6160 H   0  0  0  0  0  0
  -21.1995   -7.6147   23.9715 H   0  0  0  0  0  0
  -21.1480   -6.0525   25.9082 H   0  0  0  0  0  0
  -22.0595   -2.7609   23.2847 H   0  0  0  0  0  0
  -22.4035  -11.9837   22.4797 H   0  0  0  0  0  0
  -21.1029  -13.1201   22.2610 H   0  0  0  0  0  0
  -24.6284  -15.8361   20.4864 H   0  0  0  0  0  0
  -26.2341  -15.6244   20.0121 H   0  0  0  0  0  0
  -26.7299  -32.5280   23.0916 H   0  0  0  0  0  0
  -25.0046  -33.9552   25.0255 H   0  0  0  0  0  0
  -22.7635  -31.2798   21.3662 H   0  0  0  0  0  0
  -23.3764  -35.9574   23.3288 H   0  0  0  0  0  0
  -24.3563  -36.8921   22.2069 H   0  0  0  0  0  0
  -23.7217  -37.6425   23.6712 H   0  0  0  0  0  0
  -26.1574  -31.4385   20.5956 H   0  0  0  0  0  0
  -26.8902  -30.7695   22.0136 H   0  0  0  0  0  0
  -28.1399  -28.7343   21.2605 H   0  0  0  0  0  0
  -25.9025  -25.8113   19.0044 H   0  0  0  0  0  0
  -23.9922  -27.2873   18.9694 H   0  0  0  0  0  0
  -23.8348  -30.5536   19.3922 H   0  0  0  0  0  0
  -22.8040  -29.2277   19.8336 H   0  0  0  0  0  0
  -25.1293  -36.1850   25.0804 H   0  0  0  0  0  0
  -21.0018  -28.3354   24.1340 H   0  0  0  0  0  0
  -20.5685  -26.2348   23.3600 H   0  0  0  0  0  0
  -21.6650  -26.7428   22.1172 H   0  0  0  0  0  0
  -19.6926  -25.6309   21.1219 H   0  0  0  0  0  0
  -19.6711  -27.3216   20.6719 H   0  0  0  0  0  0
  -17.4203  -26.6686   21.4029 H   0  0  0  0  0  0
  -18.0351  -26.0077   22.8999 H   0  0  0  0  0  0
  -19.7963  -30.7255   24.2280 H   0  0  0  0  0  0
  -17.5055  -31.6281   24.5165 H   0  0  0  0  0  0
  -15.5375  -30.3014   23.7658 H   0  0  0  0  0  0
  -15.8688  -28.0837   22.7091 H   0  0  0  0  0  0
  -24.5960  -30.6976   25.7623 H   0  0  0  0  0  0
  -24.8807  -32.2851   26.4641 H   0  0  0  0  0  0
  -25.7986  -30.8943   27.0171 H   0  0  0  0  0  0
  -26.3022  -29.6650   24.1233 H   0  0  0  0  0  0
  -27.4122  -29.7253   25.4720 H   0  0  0  0  0  0
  -27.8892  -30.4220   23.9444 H   0  0  0  0  0  0
  -27.2734  -33.3697   26.1824 H   0  0  0  0  0  0
  -28.4006  -32.6633   25.0344 H   0  0  0  0  0  0
  -28.0593  -31.8498   26.5515 H   0  0  0  0  0  0
  -28.2546  -38.0110   24.7527 H   0  0  0  0  0  0
  -28.1089  -36.2630   24.6290 H   0  0  0  0  0  0
  -27.2280  -37.1413   25.8871 H   0  0  0  0  0  0
  -20.9492  -29.8828   21.6789 H   0  0  0  0  0  0
  -26.0145  -38.2812   24.1444 H   0  0  0  0  0  0
  -31.4020  -21.5866   20.8784 H   0  0  0  0  0  0
  -32.1396  -17.3902   20.9813 H   0  0  0  0  0  0
  -28.1462  -18.8319   20.1457 H   0  0  0  0  0  0
  -27.0948  -24.2947   20.8392 H   0  0  0  0  0  0
  -27.4986  -24.3072   19.1503 H   0  0  0  0  0  0
  -27.7770  -21.6182   20.0726 H   0  0  0  0  0  0
  -28.7528  -16.0744   20.4858 H   0  0  0  0  0  0
  1 25  1  0  0  0
  1 30  2  0  0  0
  1 81  1  0  0  0
  2  3  1  0  0  0
  2 25  1  0  0  0
  2 86  1  0  0  0
  2 87  1  0  0  0
  3  4  1  0  0  0
  3 88  1  0  0  0
  3 89  1  0  0  0
  4  5  1  0  0  0
  4 90  1  0  0  0
  4 91  1  0  0  0
  5  6  1  0  0  0
  5 26  1  0  0  0
  5 92  1  0  0  0
  6 25  1  0  0  0
  6 93  1  0  0  0
  6 94  1  0  0  0
  7  8  2  0  0  0
  7 26  1  0  0  0
  7 29  1  0  0  0
  8  9  1  0  0  0
  8 22  1  0  0  0
  9 10  1  0  0  0
  9 27  2  0  0  0
 10 11  2  0  0  0
 10 15  1  0  0  0
 11 12  1  0  0  0
 11 95  1  0  0  0
 12 13  2  0  0  0
 12 96  1  0  0  0
 13 14  1  0  0  0
 13 31  1  0  0  0
 14 15  2  0  0  0
 14 97  1  0  0  0
 15 98  1  0  0  0
 16 17  2  0  0  0
 16 21  1  0  0  0
 16 31  1  0  0  0
 17 18  1  0  0  0
 17 99  1  0  0  0
 18 19  2  0  0  0
 18100  1  0  0  0
 19 20  1  0  0  0
 19 24  1  0  0  0
 20 21  2  0  0  0
 20101  1  0  0  0
 21 23  1  0  0  0
 22 28  1  0  0  0
 22 32  2  0  0  0
 26 27  1  0  0  0
 28102  1  0  0  0
 28103  1  0  0  0
 29104  1  0  0  0
 29105  1  0  0  0
 33 34  1  0  0  0
 33 66  1  0  0  0
 33 70  2  0  0  0
 34 36  1  0  0  0
 34 59  1  0  0  0
 34106  1  0  0  0
 35 44  2  0  0  0
 35 45  1  0  0  0
 35 68  1  0  0  0
 36 56  1  0  0  0
 36107  1  0  0  0
 37 39  1  0  0  0
 37 47  1  0  0  0
 37 66  1  0  0  0
 37108  1  0  0  0
 38 43  2  0  0  0
 38 46  1  0  0  0
 38 47  1  0  0  0
 39 64  1  0  0  0
 39 67  2  0  0  0
 40 52  1  0  0  0
 40 53  2  0  0  0
 40 58  1  0  0  0
 41109  1  0  0  0
 41110  1  0  0  0
 41111  1  0  0  0
 41 48  1  0  0  0
 42 43  1  0  0  0
 42 66  1  0  0  0
 42112  1  0  0  0
 42113  1  0  0  0
 43 44  1  0  0  0
 44114  1  0  0  0
 45 46  2  0  0  0
 45115  1  0  0  0
 46116  1  0  0  0
 47117  1  0  0  0
 47118  1  0  0  0
 48 56  1  0  0  0
 48 65  1  0  0  0
 48119  1  0  0  0
 49 50  1  0  0  0
 49 53  1  0  0  0
 49 64  1  0  0  0
 49120  1  0  0  0
 50 51  1  0  0  0
 50121  1  0  0  0
 50122  1  0  0  0
 51 52  1  0  0  0
 51123  1  0  0  0
 51124  1  0  0  0
 52125  1  0  0  0
 52126  1  0  0  0
 53 54  1  0  0  0
 54 55  2  0  0  0
 54127  1  0  0  0
 55 57  1  0  0  0
 55128  1  0  0  0
 56 69  2  0  0  0
 57 58  2  0  0  0
 57129  1  0  0  0
 58130  1  0  0  0
 59 60  1  0  0  0
 59 61  1  0  0  0
 59 62  1  0  0  0
 60131  1  0  0  0
 60132  1  0  0  0
 60133  1  0  0  0
 61134  1  0  0  0
 61135  1  0  0  0
 61136  1  0  0  0
 62137  1  0  0  0
 62138  1  0  0  0
 62139  1  0  0  0
 63 65  1  0  0  0
 63140  1  0  0  0
 63141  1  0  0  0
 63142  1  0  0  0
 64143  1  0  0  0
 65144  1  0  0  0
 68 78  1  0  0  0
 71 74  2  0  0  0
 71 75  1  0  0  0
 71145  1  0  0  0
 72 74  1  0  0  0
 72 76  2  0  0  0
 72146  1  0  0  0
 73 75  2  0  0  0
 73 76  1  0  0  0
 73147  1  0  0  0
 74 79  1  0  0  0
 75 80  1  0  0  0
 76 81  1  0  0  0
 77 78  1  0  0  0
 77 80  1  0  0  0
 77 82  2  0  0  0
 78148  1  0  0  0
 78149  1  0  0  0
 79 83  1  0  0  0
 79 84  1  0  0  0
 79 85  1  0  0  0
 80150  1  0  0  0
 81151  1  0  0  0
M  ISO  4   1 100  68 101  78 101  81 100
M  END
> <chiral flag>
0

> <version>
0

> <s_m_source_file>
/data/baiqing/PycharmProjects/Reinvent-master-3.2/result/LINK_invent/BTK/process_docking_weight1_custom_sum_contain_oxygen_bond_distance_aromatic_linkinvent_7_9_3/rearranged_h_0008.sdf

> <i_m_source_file_index>
92

> <r_mmod_Potential_Energy-OPLS-2005>
650.012390136719

> <r_mmod_Stretch_Energy-OPLS-2005>
345.354370117188

> <r_mmod_Bend_Energy-OPLS-2005>
271.144104003906

> <r_mmod_Torsional_Energy-OPLS-2005>
220.201370239258

> <r_mmod_Improper_Torsional_Energy-OPLS-2005>
5.48326110839844

> <r_mmod_Van_der_Waal_Energy-OPLS-2005>
136.876434326172

> <r_mmod_Electrostatic_Energy-OPLS-2005>
-349.512634277344

> <r_mmod_Solvation_Energy-OPLS-2005>
-248.878784179688

> <b_mmod_Minimization_Converged-OPLS-2005>
0

> <r_mmod_RMS_Derivative-OPLS-2005>
2.54411911964417

$$$$
92
                    3D
 Structure written by MMmdl.
161169  0  0  1  0            999 V2000
  -30.6183  -14.7181   20.4289 C   0  0  0  0  0  0
  -30.4333  -12.4251   19.4771 C   0  0  0  0  0  0
  -29.5098  -12.4656   18.2389 C   0  0  0  0  0  0
  -28.0326  -12.3200   18.6510 C   0  0  0  0  0  0
  -27.6440  -13.2276   19.8489 C   0  0  2  0  0  0
  -28.6885  -13.1582   20.9842 C   0  0  0  0  0  0
  -25.2529  -13.8196   20.5693 C   0  0  0  0  0  0
  -24.1813  -13.0447   20.9205 C   0  0  0  0  0  0
  -24.6393  -11.6923   20.8751 C   0  0  0  0  0  0
  -23.9068  -10.4299   21.0410 C   0  0  0  0  0  0
  -24.3620   -9.4213   21.9185 C   0  0  0  0  0  0
  -23.6296   -8.2247   22.0755 C   0  0  0  0  0  0
  -22.4278   -8.0282   21.3544 C   0  0  0  0  0  0
  -21.9913   -9.0257   20.4647 C   0  0  0  0  0  0
  -22.7241  -10.2138   20.3057 C   0  0  0  0  0  0
  -21.6854   -6.0736   22.5277 C   0  0  0  0  0  0
  -21.4018   -6.5641   23.8210 C   0  0  0  0  0  0
  -21.3661   -5.6794   24.9172 C   0  0  0  0  0  0
  -21.6041   -4.3056   24.7223 C   0  0  0  0  0  0
  -21.8821   -3.8148   23.4345 C   0  0  0  0  0  0
  -21.9194   -4.6964   22.3401 C   0  0  0  0  0  0
  -22.7834  -13.5230   21.1866 C   0  0  0  0  0  0
  -22.1662   -4.2151   21.0979 F   0  0  0  0  0  0
  -21.5627   -3.4540   25.7736 F   0  0  0  0  0  0
  -29.9945  -13.4930   20.4028 N   0  0  0  0  0  0
  -26.2952  -12.9398   20.3283 N   0  0  0  0  0  0
  -25.9323  -11.6546   20.5768 N   0  0  0  0  0  0
  -22.0480  -12.8215   22.0420 N   0  0  0  0  0  0
  -25.4224  -15.1919   20.4103 N   0  0  0  0  0  0
  -31.8192  -14.8006   20.1603 O   0  0  0  0  0  0
  -21.6643   -6.8878   21.4239 O   0  0  0  0  0  0
  -22.3517  -14.5534   20.6712 O   0  0  0  0  0  0
  -24.6301  -31.8562   23.2010 C   0  0  0  0  0  0
  -25.9136  -32.4757   23.8342 C   0  0  1  0  0  0
  -27.2169  -27.2773   20.1246 C   0  0  0  0  0  0
  -25.5933  -33.8559   24.2265 N   0  0  0  0  0  0
  -23.4256  -30.4811   21.5442 C   0  0  2  0  0  0
  -24.8724  -28.9351   20.1075 C   0  0  0  0  0  0
  -22.7494  -29.4605   22.4921 C   0  0  0  0  0  0
  -18.0289  -28.1382   22.8478 C   0  0  0  0  0  0
  -24.1495  -36.7286   23.2641 C   0  0  0  0  0  0
  -25.9714  -30.7739   21.3806 C   0  0  0  0  0  0
  -26.0434  -29.3998   20.7194 C   0  0  0  0  0  0
  -27.2183  -28.5826   20.7192 C   0  0  0  0  0  0
  -26.0246  -26.8859   19.4710 C   0  0  0  0  0  0
  -24.8673  -27.6856   19.4726 C   0  0  0  0  0  0
  -23.6428  -29.8202   20.1584 C   0  0  0  0  0  0
  -25.4120  -36.3073   24.0327 C   0  0  1  0  0  0
  -20.5891  -28.3683   23.1275 C   0  0  2  0  0  0
  -20.6779  -26.9403   22.5409 C   0  0  0  0  0  0
  -19.5755  -26.6376   21.5210 C   0  0  0  0  0  0
  -18.1930  -26.7923   22.1619 C   0  0  0  0  0  0
  -19.1542  -28.8851   23.2866 C   0  0  0  0  0  0
  -18.9466  -30.1452   23.8881 C   0  0  0  0  0  0
  -17.6466  -30.6580   24.0559 C   0  0  0  0  0  0
  -25.9059  -34.9440   23.5098 C   0  0  0  0  0  0
  -16.5356  -29.9077   23.6334 C   0  0  0  0  0  0
  -16.7275  -28.6499   23.0345 C   0  0  0  0  0  0
  -26.4506  -31.6580   25.0727 C   0  0  0  0  0  0
  -25.3729  -31.3723   26.1444 C   0  0  0  0  0  0
  -27.0359  -30.2998   24.6214 C   0  0  0  0  0  0
  -27.6056  -32.4327   25.7500 C   0  0  0  0  0  0
  -27.5583  -37.1797   24.8464 C   0  0  0  0  0  0
  -21.4205  -29.3036   22.3668 N   0  0  0  0  0  0
  -26.4296  -37.3768   23.9408 N   0  0  0  0  0  0
  -24.6946  -31.0544   22.0980 N   0  0  0  0  0  0
  -23.4204  -28.8142   23.3011 O   0  0  0  0  0  0
  -28.3078  -26.3811   20.2027 O   0  0  0  0  0  0
  -26.5631  -34.8909   22.4665 O   0  0  0  0  0  0
  -23.5458  -32.1384   23.7314 O   0  0  0  0  0  0
  -30.5479  -18.7640   18.1820 C   0  0  0  0  0  0
  -30.1738  -19.8972   18.9184 C   0  0  0  0  0  0
  -30.4357  -17.4583   18.7008 C   0  0  0  0  0  0
  -29.5348  -18.4312   20.7589 C   0  0  0  0  0  0
  -29.6477  -19.7937   20.2178 C   0  0  0  0  0  0
  -29.9749  -17.2376   20.0342 C   0  0  0  0  0  0
  -30.7519  -16.3346   17.7266 C   0  0  0  0  0  0
  -28.8847  -18.2107   22.1186 C   0  0  0  0  0  0
  -29.6961  -21.1790   22.2822 C   0  0  0  0  0  0
  -29.0181  -23.7498   20.5278 C   0  0  0  0  0  0
  -28.5970  -22.2149   20.2245 C   0  0  0  0  0  0
  -28.0508  -24.9188   19.9868 C   0  0  0  0  0  0
  -29.8283  -15.8499   20.5670 N   0  0  0  0  0  0
  -29.3444  -21.0601   20.8700 N   0  0  0  0  0  0
  -31.4747  -12.5425   19.1724 H   0  0  0  0  0  0
  -30.3750  -11.4526   19.9689 H   0  0  0  0  0  0
  -29.7801  -11.6685   17.5452 H   0  0  0  0  0  0
  -29.6497  -13.3952   17.6917 H   0  0  0  0  0  0
  -27.8749  -11.2743   18.9171 H   0  0  0  0  0  0
  -27.3800  -12.5162   17.7993 H   0  0  0  0  0  0
  -27.6414  -14.2479   19.4646 H   0  0  0  0  0  0
  -28.7139  -12.1626   21.4303 H   0  0  0  0  0  0
  -28.4308  -13.8473   21.7901 H   0  0  0  0  0  0
  -25.2764   -9.5690   22.4762 H   0  0  0  0  0  0
  -24.0005   -7.4640   22.7477 H   0  0  0  0  0  0
  -21.0845   -8.8773   19.8953 H   0  0  0  0  0  0
  -22.3696  -10.9676   19.6169 H   0  0  0  0  0  0
  -21.2013   -7.6150   23.9713 H   0  0  0  0  0  0
  -21.1480   -6.0525   25.9075 H   0  0  0  0  0  0
  -22.0599   -2.7610   23.2844 H   0  0  0  0  0  0
  -22.4103  -11.9873   22.4800 H   0  0  0  0  0  0
  -21.1098  -13.1237   22.2632 H   0  0  0  0  0  0
  -24.6515  -15.8425   20.5143 H   0  0  0  0  0  0
  -26.2634  -15.6309   20.0586 H   0  0  0  0  0  0
  -26.7200  -32.5419   23.1084 H   0  0  0  0  0  0
  -25.0073  -33.9690   25.0405 H   0  0  0  0  0  0
  -22.7211  -31.3034   21.4016 H   0  0  0  0  0  0
  -23.3754  -35.9622   23.3301 H   0  0  0  0  0  0
  -24.3590  -36.8912   22.2056 H   0  0  0  0  0  0
  -23.7248  -37.6485   23.6669 H   0  0  0  0  0  0
  -26.1117  -31.5376   20.6145 H   0  0  0  0  0  0
  -26.8478  -30.8186   22.0157 H   0  0  0  0  0  0
  -28.1117  -28.9292   21.2193 H   0  0  0  0  0  0
  -25.9501  -25.9366   18.9624 H   0  0  0  0  0  0
  -23.9722  -27.3267   18.9832 H   0  0  0  0  0  0
  -23.7658  -30.5991   19.4047 H   0  0  0  0  0  0
  -22.7615  -29.2539   19.8526 H   0  0  0  0  0  0
  -25.1302  -36.1922   25.0820 H   0  0  0  0  0  0
  -20.9975  -28.3259   24.1399 H   0  0  0  0  0  0
  -20.5677  -26.2291   23.3608 H   0  0  0  0  0  0
  -21.6646  -26.7430   22.1203 H   0  0  0  0  0  0
  -19.6918  -25.6286   21.1239 H   0  0  0  0  0  0
  -19.6699  -27.3185   20.6739 H   0  0  0  0  0  0
  -17.4202  -26.6666   21.4018 H   0  0  0  0  0  0
  -18.0330  -26.0065   22.9018 H   0  0  0  0  0  0
  -19.7944  -30.7267   24.2244 H   0  0  0  0  0  0
  -17.5021  -31.6262   24.5158 H   0  0  0  0  0  0
  -15.5353  -30.2971   23.7668 H   0  0  0  0  0  0
  -15.8678  -28.0816   22.7060 H   0  0  0  0  0  0
  -24.5916  -30.7060   25.7768 H   0  0  0  0  0  0
  -24.8904  -32.2887   26.4851 H   0  0  0  0  0  0
  -25.8041  -30.8911   27.0232 H   0  0  0  0  0  0
  -26.2942  -29.6735   24.1240 H   0  0  0  0  0  0
  -27.4044  -29.7269   25.4734 H   0  0  0  0  0  0
  -27.8820  -30.4269   23.9457 H   0  0  0  0  0  0
  -27.2660  -33.3636   26.2051 H   0  0  0  0  0  0
  -28.3875  -32.6872   25.0331 H   0  0  0  0  0  0
  -28.0717  -31.8473   26.5436 H   0  0  0  0  0  0
  -28.2589  -38.0102   24.7514 H   0  0  0  0  0  0
  -28.1087  -36.2630   24.6287 H   0  0  0  0  0  0
  -27.2299  -37.1443   25.8866 H   0  0  0  0  0  0
  -20.9387  -29.8773   21.6888 H   0  0  0  0  0  0
  -26.0176  -38.2843   24.1403 H   0  0  0  0  0  0
  -30.9186  -18.9126   17.1772 H   0  0  0  0  0  0
  -30.3115  -20.8658   18.4602 H   0  0  0  0  0  0
  -30.7307  -16.6855   16.6946 H   0  0  0  0  0  0
  -30.0063  -15.5469   17.7965 H   0  0  0  0  0  0
  -31.7438  -15.9212   17.9039 H   0  0  0  0  0  0
  -29.6363  -18.1948   22.9073 H   0  0  0  0  0  0
  -28.3362  -17.2704   22.1553 H   0  0  0  0  0  0
  -28.1554  -18.9883   22.3391 H   0  0  0  0  0  0
  -30.4031  -20.4092   22.5932 H   0  0  0  0  0  0
  -28.8091  -21.1137   22.9135 H   0  0  0  0  0  0
  -30.1768  -22.1363   22.4827 H   0  0  0  0  0  0
  -30.0213  -23.9189   20.1366 H   0  0  0  0  0  0
  -29.0930  -23.8867   21.6059 H   0  0  0  0  0  0
  -28.5847  -22.0763   19.1435 H   0  0  0  0  0  0
  -27.5544  -22.1023   20.5255 H   0  0  0  0  0  0
  -27.0782  -24.6865   20.4224 H   0  0  0  0  0  0
  -27.9423  -24.7750   18.9111 H   0  0  0  0  0  0
  -28.9308  -15.6566   20.9830 H   0  0  0  0  0  0
  1 25  1  0  0  0
  1 30  2  0  0  0
  1 83  1  0  0  0
  2  3  1  0  0  0
  2 25  1  0  0  0
  2 85  1  0  0  0
  2 86  1  0  0  0
  3  4  1  0  0  0
  3 87  1  0  0  0
  3 88  1  0  0  0
  4  5  1  0  0  0
  4 89  1  0  0  0
  4 90  1  0  0  0
  5  6  1  0  0  0
  5 26  1  0  0  0
  5 91  1  0  0  0
  6 25  1  0  0  0
  6 92  1  0  0  0
  6 93  1  0  0  0
  7  8  2  0  0  0
  7 26  1  0  0  0
  7 29  1  0  0  0
  8  9  1  0  0  0
  8 22  1  0  0  0
  9 10  1  0  0  0
  9 27  2  0  0  0
 10 11  2  0  0  0
 10 15  1  0  0  0
 11 12  1  0  0  0
 11 94  1  0  0  0
 12 13  2  0  0  0
 12 95  1  0  0  0
 13 14  1  0  0  0
 13 31  1  0  0  0
 14 15  2  0  0  0
 14 96  1  0  0  0
 15 97  1  0  0  0
 16 17  2  0  0  0
 16 21  1  0  0  0
 16 31  1  0  0  0
 17 18  1  0  0  0
 17 98  1  0  0  0
 18 19  2  0  0  0
 18 99  1  0  0  0
 19 20  1  0  0  0
 19 24  1  0  0  0
 20 21  2  0  0  0
 20100  1  0  0  0
 21 23  1  0  0  0
 22 28  1  0  0  0
 22 32  2  0  0  0
 26 27  1  0  0  0
 28101  1  0  0  0
 28102  1  0  0  0
 29103  1  0  0  0
 29104  1  0  0  0
 33 34  1  0  0  0
 33 66  1  0  0  0
 33 70  2  0  0  0
 34 36  1  0  0  0
 34 59  1  0  0  0
 34105  1  0  0  0
 35 44  2  0  0  0
 35 45  1  0  0  0
 35 68  1  0  0  0
 36 56  1  0  0  0
 36106  1  0  0  0
 37 39  1  0  0  0
 37 47  1  0  0  0
 37 66  1  0  0  0
 37107  1  0  0  0
 38 43  2  0  0  0
 38 46  1  0  0  0
 38 47  1  0  0  0
 39 64  1  0  0  0
 39 67  2  0  0  0
 40 52  1  0  0  0
 40 53  2  0  0  0
 40 58  1  0  0  0
 41108  1  0  0  0
 41109  1  0  0  0
 41110  1  0  0  0
 41 48  1  0  0  0
 42 43  1  0  0  0
 42 66  1  0  0  0
 42111  1  0  0  0
 42112  1  0  0  0
 43 44  1  0  0  0
 44113  1  0  0  0
 45 46  2  0  0  0
 45114  1  0  0  0
 46115  1  0  0  0
 47116  1  0  0  0
 47117  1  0  0  0
 48 56  1  0  0  0
 48 65  1  0  0  0
 48118  1  0  0  0
 49 50  1  0  0  0
 49 53  1  0  0  0
 49 64  1  0  0  0
 49119  1  0  0  0
 50 51  1  0  0  0
 50120  1  0  0  0
 50121  1  0  0  0
 51 52  1  0  0  0
 51122  1  0  0  0
 51123  1  0  0  0
 52124  1  0  0  0
 52125  1  0  0  0
 53 54  1  0  0  0
 54 55  2  0  0  0
 54126  1  0  0  0
 55 57  1  0  0  0
 55127  1  0  0  0
 56 69  2  0  0  0
 57 58  2  0  0  0
 57128  1  0  0  0
 58129  1  0  0  0
 59 60  1  0  0  0
 59 61  1  0  0  0
 59 62  1  0  0  0
 60130  1  0  0  0
 60131  1  0  0  0
 60132  1  0  0  0
 61133  1  0  0  0
 61134  1  0  0  0
 61135  1  0  0  0
 62136  1  0  0  0
 62137  1  0  0  0
 62138  1  0  0  0
 63 65  1  0  0  0
 63139  1  0  0  0
 63140  1  0  0  0
 63141  1  0  0  0
 64142  1  0  0  0
 65143  1  0  0  0
 68 82  1  0  0  0
 71 72  2  0  0  0
 71 73  1  0  0  0
 71144  1  0  0  0
 72 75  1  0  0  0
 72145  1  0  0  0
 73 76  2  0  0  0
 73 77  1  0  0  0
 74 75  2  0  0  0
 74 76  1  0  0  0
 74 78  1  0  0  0
 75 84  1  0  0  0
 76 83  1  0  0  0
 77146  1  0  0  0
 77147  1  0  0  0
 77148  1  0  0  0
 78149  1  0  0  0
 78150  1  0  0  0
 78151  1  0  0  0
 79 84  1  0  0  0
 79152  1  0  0  0
 79153  1  0  0  0
 79154  1  0  0  0
 80 81  1  0  0  0
 80 82  1  0  0  0
 80155  1  0  0  0
 80156  1  0  0  0
 81 84  1  0  0  0
 81157  1  0  0  0
 81158  1  0  0  0
 82159  1  0  0  0
 82160  1  0  0  0
 83161  1  0  0  0
M  ISO  4   1 100  68 101  82 101  83 100
M  END
> <chiral flag>
0

> <version>
0

> <s_m_source_file>
/data/baiqing/PycharmProjects/Reinvent-master-3.2/result/LINK_invent/BTK/process_docking_weight1_custom_sum_contain_oxygen_bond_distance_aromatic_linkinvent_7_9_3/rearranged_h_0008.sdf

> <i_m_source_file_index>
93

> <r_mmod_Potential_Energy-OPLS-2005>
162.947998046875

> <r_mmod_Stretch_Energy-OPLS-2005>
123.238662719727

> <r_mmod_Bend_Energy-OPLS-2005>
170.350631713867

> <r_mmod_Torsional_Energy-OPLS-2005>
243.83805847168

> <r_mmod_Improper_Torsional_Energy-OPLS-2005>
5.43829965591431

> <r_mmod_Van_der_Waal_Energy-OPLS-2005>
154.637344360352

> <r_mmod_Electrostatic_Energy-OPLS-2005>
-392.307861328125

> <r_mmod_Solvation_Energy-OPLS-2005>
-221.356582641602

> <b_mmod_Minimization_Converged-OPLS-2005>
0

> <r_mmod_RMS_Derivative-OPLS-2005>
0.712538301944733

$$$$
93
                    3D
 Structure written by MMmdl.
154162  0  0  1  0            999 V2000
  -30.6063  -14.7267   20.3567 C   0  0  0  0  0  0
  -30.4398  -12.4061   19.4749 C   0  0  0  0  0  0
  -29.5114  -12.3780   18.2406 C   0  0  0  0  0  0
  -28.0243  -12.2940   18.6539 C   0  0  0  0  0  0
  -27.6357  -13.2102   19.8498 C   0  0  2  0  0  0
  -28.6939  -13.1773   20.9707 C   0  0  0  0  0  0
  -25.2531  -13.8140   20.5773 C   0  0  0  0  0  0
  -24.1788  -13.0411   20.9249 C   0  0  0  0  0  0
  -24.6352  -11.6883   20.8795 C   0  0  0  0  0  0
  -23.9032  -10.4279   21.0431 C   0  0  0  0  0  0
  -24.3593   -9.4189   21.9189 C   0  0  0  0  0  0
  -23.6274   -8.2223   22.0748 C   0  0  0  0  0  0
  -22.4256   -8.0272   21.3537 C   0  0  0  0  0  0
  -21.9893   -9.0249   20.4637 C   0  0  0  0  0  0
  -22.7218  -10.2130   20.3064 C   0  0  0  0  0  0
  -21.6847   -6.0727   22.5274 C   0  0  0  0  0  0
  -21.4001   -6.5627   23.8207 C   0  0  0  0  0  0
  -21.3664   -5.6780   24.9169 C   0  0  0  0  0  0
  -21.6053   -4.3044   24.7218 C   0  0  0  0  0  0
  -21.8821   -3.8139   23.4339 C   0  0  0  0  0  0
  -21.9187   -4.6956   22.3394 C   0  0  0  0  0  0
  -22.7819  -13.5221   21.1891 C   0  0  0  0  0  0
  -22.1654   -4.2141   21.0974 F   0  0  0  0  0  0
  -21.5644   -3.4527   25.7733 F   0  0  0  0  0  0
  -29.9848  -13.5008   20.3535 N   0  0  0  0  0  0
  -26.2925  -12.9286   20.3384 N   0  0  0  0  0  0
  -25.9279  -11.6457   20.5855 N   0  0  0  0  0  0
  -22.0449  -12.8216   22.0439 N   0  0  0  0  0  0
  -25.4269  -15.1862   20.4218 N   0  0  0  0  0  0
  -31.8352  -14.7939   20.2597 O   0  0  0  0  0  0
  -21.6619   -6.8871   21.4237 O   0  0  0  0  0  0
  -22.3521  -14.5526   20.6733 O   0  0  0  0  0  0
  -24.6255  -31.8590   23.2003 C   0  0  0  0  0  0
  -25.9104  -32.4773   23.8335 C   0  0  1  0  0  0
  -27.2296  -27.3151   20.1209 C   0  0  0  0  0  0
  -25.5925  -33.8573   24.2269 N   0  0  0  0  0  0
  -23.4183  -30.4801   21.5439 C   0  0  2  0  0  0
  -24.8643  -28.9292   20.1112 C   0  0  0  0  0  0
  -22.7468  -29.4614   22.4946 C   0  0  0  0  0  0
  -18.0285  -28.1377   22.8489 C   0  0  0  0  0  0
  -24.1488  -36.7286   23.2640 C   0  0  0  0  0  0
  -25.9576  -30.7896   21.3685 C   0  0  0  0  0  0
  -26.0306  -29.4149   20.7133 C   0  0  0  0  0  0
  -27.2117  -28.6185   20.7074 C   0  0  0  0  0  0
  -26.0352  -26.8710   19.5090 C   0  0  0  0  0  0
  -24.8683  -27.6631   19.5020 C   0  0  0  0  0  0
  -23.6319  -29.8095   20.1598 C   0  0  0  0  0  0
  -25.4115  -36.3079   24.0330 C   0  0  1  0  0  0
  -20.5881  -28.3679   23.1293 C   0  0  2  0  0  0
  -20.6774  -26.9402   22.5416 C   0  0  0  0  0  0
  -19.5754  -26.6380   21.5214 C   0  0  0  0  0  0
  -18.1931  -26.7921   22.1621 C   0  0  0  0  0  0
  -19.1535  -28.8845   23.2886 C   0  0  0  0  0  0
  -18.9457  -30.1449   23.8898 C   0  0  0  0  0  0
  -17.6456  -30.6582   24.0559 C   0  0  0  0  0  0
  -25.9050  -34.9450   23.5100 C   0  0  0  0  0  0
  -16.5349  -29.9078   23.6328 C   0  0  0  0  0  0
  -16.7271  -28.6494   23.0353 C   0  0  0  0  0  0
  -26.4498  -31.6585   25.0703 C   0  0  0  0  0  0
  -25.3744  -31.3718   26.1439 C   0  0  0  0  0  0
  -27.0343  -30.3015   24.6145 C   0  0  0  0  0  0
  -27.6055  -32.4326   25.7475 C   0  0  0  0  0  0
  -27.5579  -37.1801   24.8468 C   0  0  0  0  0  0
  -21.4183  -29.3030   22.3691 N   0  0  0  0  0  0
  -26.4292  -37.3776   23.9409 N   0  0  0  0  0  0
  -24.6861  -31.0599   22.0951 N   0  0  0  0  0  0
  -23.4196  -28.8169   23.3033 O   0  0  0  0  0  0
  -28.3842  -26.5203   20.1893 O   0  0  0  0  0  0
  -26.5618  -34.8919   22.4666 O   0  0  0  0  0  0
  -23.5420  -32.1384   23.7338 O   0  0  0  0  0  0
  -28.7077  -17.5589   21.2588 C   0  0  0  0  0  0
  -28.3906  -18.9352   21.4772 C   0  0  0  0  0  0
  -30.1618  -19.6103   20.0090 C   0  0  0  0  0  0
  -29.7555  -17.1630   20.3886 C   0  0  0  0  0  0
  -29.0730  -20.0032   20.8306 C   0  0  0  0  0  0
  -30.5010  -18.2362   19.8049 C   0  0  0  0  0  0
  -29.6936  -15.7643   18.4006 C   0  0  0  0  0  0
  -28.4170  -23.8918   20.6762 C   0  0  0  0  0  0
  -28.4834  -25.1331   19.6757 C   0  0  0  0  0  0
  -28.9206  -22.4568   20.1665 C   0  0  0  0  0  0
  -29.8464  -15.7858   19.8718 N   0  0  0  0  0  0
  -28.6487  -21.3317   21.0710 O   0  0  0  0  0  0
  -31.5251  -17.9523   18.9639 F   0  0  0  0  0  0
  -31.4779  -12.5345   19.1615 H   0  0  0  0  0  0
  -30.4003  -11.4564   20.0097 H   0  0  0  0  0  0
  -29.7595  -11.5130   17.6239 H   0  0  0  0  0  0
  -29.6931  -13.2328   17.5962 H   0  0  0  0  0  0
  -27.8412  -11.2542   18.9270 H   0  0  0  0  0  0
  -27.3783  -12.4948   17.7988 H   0  0  0  0  0  0
  -27.5978  -14.2250   19.4703 H   0  0  0  0  0  0
  -28.7291  -12.1996   21.4536 H   0  0  0  0  0  0
  -28.4507  -13.9045   21.7475 H   0  0  0  0  0  0
  -25.2740   -9.5661   22.4759 H   0  0  0  0  0  0
  -23.9987   -7.4605   22.7453 H   0  0  0  0  0  0
  -21.0834   -8.8765   19.8933 H   0  0  0  0  0  0
  -22.3681  -10.9666   19.6170 H   0  0  0  0  0  0
  -21.1989   -7.6129   23.9703 H   0  0  0  0  0  0
  -21.1488   -6.0511   25.9070 H   0  0  0  0  0  0
  -22.0603   -2.7604   23.2837 H   0  0  0  0  0  0
  -22.4035  -11.9863   22.4825 H   0  0  0  0  0  0
  -21.1059  -13.1238   22.2623 H   0  0  0  0  0  0
  -24.6684  -15.8471   20.5492 H   0  0  0  0  0  0
  -26.2890  -15.6233   20.1221 H   0  0  0  0  0  0
  -26.7171  -32.5443   23.1082 H   0  0  0  0  0  0
  -25.0089  -33.9720   25.0424 H   0  0  0  0  0  0
  -22.7114  -31.2997   21.3992 H   0  0  0  0  0  0
  -23.3751  -35.9619   23.3309 H   0  0  0  0  0  0
  -24.3572  -36.8898   22.2052 H   0  0  0  0  0  0
  -23.7242  -37.6491   23.6656 H   0  0  0  0  0  0
  -26.0851  -31.5518   20.5987 H   0  0  0  0  0  0
  -26.8396  -30.8407   21.9955 H   0  0  0  0  0  0
  -28.1087  -28.9902   21.1825 H   0  0  0  0  0  0
  -25.9654  -25.8972   19.0514 H   0  0  0  0  0  0
  -23.9706  -27.2812   19.0354 H   0  0  0  0  0  0
  -23.7490  -30.5832   19.4003 H   0  0  0  0  0  0
  -22.7522  -29.2369   19.8609 H   0  0  0  0  0  0
  -25.1298  -36.1928   25.0824 H   0  0  0  0  0  0
  -20.9971  -28.3248   24.1415 H   0  0  0  0  0  0
  -20.5670  -26.2286   23.3614 H   0  0  0  0  0  0
  -21.6645  -26.7432   22.1214 H   0  0  0  0  0  0
  -19.6912  -25.6292   21.1242 H   0  0  0  0  0  0
  -19.6692  -27.3192   20.6747 H   0  0  0  0  0  0
  -17.4205  -26.6677   21.4018 H   0  0  0  0  0  0
  -18.0320  -26.0058   22.9011 H   0  0  0  0  0  0
  -19.7935  -30.7269   24.2263 H   0  0  0  0  0  0
  -17.5011  -31.6261   24.5163 H   0  0  0  0  0  0
  -15.5348  -30.2980   23.7651 H   0  0  0  0  0  0
  -15.8672  -28.0814   22.7064 H   0  0  0  0  0  0
  -24.5902  -30.7087   25.7769 H   0  0  0  0  0  0
  -24.8959  -32.2885   26.4894 H   0  0  0  0  0  0
  -25.8077  -30.8870   27.0196 H   0  0  0  0  0  0
  -26.2909  -29.6761   24.1187 H   0  0  0  0  0  0
  -27.4074  -29.7272   25.4636 H   0  0  0  0  0  0
  -27.8763  -30.4310   23.9340 H   0  0  0  0  0  0
  -27.2653  -33.3616   26.2065 H   0  0  0  0  0  0
  -28.3856  -32.6908   25.0301 H   0  0  0  0  0  0
  -28.0738  -31.8451   26.5384 H   0  0  0  0  0  0
  -28.2608  -38.0087   24.7501 H   0  0  0  0  0  0
  -28.1063  -36.2617   24.6311 H   0  0  0  0  0  0
  -27.2294  -37.1470   25.8871 H   0  0  0  0  0  0
  -20.9360  -29.8746   21.6897 H   0  0  0  0  0  0
  -26.0171  -38.2853   24.1404 H   0  0  0  0  0  0
  -28.0816  -16.8050   21.7138 H   0  0  0  0  0  0
  -27.5587  -19.1723   22.1253 H   0  0  0  0  0  0
  -30.7500  -20.3602   19.5026 H   0  0  0  0  0  0
  -29.4771  -16.7435   17.9740 H   0  0  0  0  0  0
  -28.8564  -15.1529   18.0832 H   0  0  0  0  0  0
  -30.5921  -15.4017   17.8964 H   0  0  0  0  0  0
  -27.3875  -23.7963   21.0206 H   0  0  0  0  0  0
  -28.9972  -24.1443   21.5636 H   0  0  0  0  0  0
  -27.8188  -24.9626   18.8316 H   0  0  0  0  0  0
  -29.4747  -25.0958   19.2240 H   0  0  0  0  0  0
  -29.9920  -22.5113   19.9706 H   0  0  0  0  0  0
  -28.4434  -22.2346   19.2110 H   0  0  0  0  0  0
  1 25  1  0  0  0
  1 30  2  0  0  0
  1 81  1  0  0  0
  2  3  1  0  0  0
  2 25  1  0  0  0
  2 84  1  0  0  0
  2 85  1  0  0  0
  3  4  1  0  0  0
  3 86  1  0  0  0
  3 87  1  0  0  0
  4  5  1  0  0  0
  4 88  1  0  0  0
  4 89  1  0  0  0
  5  6  1  0  0  0
  5 26  1  0  0  0
  5 90  1  0  0  0
  6 25  1  0  0  0
  6 91  1  0  0  0
  6 92  1  0  0  0
  7  8  2  0  0  0
  7 26  1  0  0  0
  7 29  1  0  0  0
  8  9  1  0  0  0
  8 22  1  0  0  0
  9 10  1  0  0  0
  9 27  2  0  0  0
 10 11  2  0  0  0
 10 15  1  0  0  0
 11 12  1  0  0  0
 11 93  1  0  0  0
 12 13  2  0  0  0
 12 94  1  0  0  0
 13 14  1  0  0  0
 13 31  1  0  0  0
 14 15  2  0  0  0
 14 95  1  0  0  0
 15 96  1  0  0  0
 16 17  2  0  0  0
 16 21  1  0  0  0
 16 31  1  0  0  0
 17 18  1  0  0  0
 17 97  1  0  0  0
 18 19  2  0  0  0
 18 98  1  0  0  0
 19 20  1  0  0  0
 19 24  1  0  0  0
 20 21  2  0  0  0
 20 99  1  0  0  0
 21 23  1  0  0  0
 22 28  1  0  0  0
 22 32  2  0  0  0
 26 27  1  0  0  0
 28100  1  0  0  0
 28101  1  0  0  0
 29102  1  0  0  0
 29103  1  0  0  0
 33 34  1  0  0  0
 33 66  1  0  0  0
 33 70  2  0  0  0
 34 36  1  0  0  0
 34 59  1  0  0  0
 34104  1  0  0  0
 35 44  2  0  0  0
 35 45  1  0  0  0
 35 68  1  0  0  0
 36 56  1  0  0  0
 36105  1  0  0  0
 37 39  1  0  0  0
 37 47  1  0  0  0
 37 66  1  0  0  0
 37106  1  0  0  0
 38 43  2  0  0  0
 38 46  1  0  0  0
 38 47  1  0  0  0
 39 64  1  0  0  0
 39 67  2  0  0  0
 40 52  1  0  0  0
 40 53  2  0  0  0
 40 58  1  0  0  0
 41107  1  0  0  0
 41108  1  0  0  0
 41109  1  0  0  0
 41 48  1  0  0  0
 42 43  1  0  0  0
 42 66  1  0  0  0
 42110  1  0  0  0
 42111  1  0  0  0
 43 44  1  0  0  0
 44112  1  0  0  0
 45 46  2  0  0  0
 45113  1  0  0  0
 46114  1  0  0  0
 47115  1  0  0  0
 47116  1  0  0  0
 48 56  1  0  0  0
 48 65  1  0  0  0
 48117  1  0  0  0
 49 50  1  0  0  0
 49 53  1  0  0  0
 49 64  1  0  0  0
 49118  1  0  0  0
 50 51  1  0  0  0
 50119  1  0  0  0
 50120  1  0  0  0
 51 52  1  0  0  0
 51121  1  0  0  0
 51122  1  0  0  0
 52123  1  0  0  0
 52124  1  0  0  0
 53 54  1  0  0  0
 54 55  2  0  0  0
 54125  1  0  0  0
 55 57  1  0  0  0
 55126  1  0  0  0
 56 69  2  0  0  0
 57 58  2  0  0  0
 57127  1  0  0  0
 58128  1  0  0  0
 59 60  1  0  0  0
 59 61  1  0  0  0
 59 62  1  0  0  0
 60129  1  0  0  0
 60130  1  0  0  0
 60131  1  0  0  0
 61132  1  0  0  0
 61133  1  0  0  0
 61134  1  0  0  0
 62135  1  0  0  0
 62136  1  0  0  0
 62137  1  0  0  0
 63 65  1  0  0  0
 63138  1  0  0  0
 63139  1  0  0  0
 63140  1  0  0  0
 64141  1  0  0  0
 65142  1  0  0  0
 68 79  1  0  0  0
 71 72  2  0  0  0
 71 74  1  0  0  0
 71143  1  0  0  0
 72 75  1  0  0  0
 72144  1  0  0  0
 73 75  2  0  0  0
 73 76  1  0  0  0
 73145  1  0  0  0
 74 76  2  0  0  0
 74 81  1  0  0  0
 75 82  1  0  0  0
 76 83  1  0  0  0
 77 81  1  0  0  0
 77146  1  0  0  0
 77147  1  0  0  0
 77148  1  0  0  0
 78 79  1  0  0  0
 78 80  1  0  0  0
 78149  1  0  0  0
 78150  1  0  0  0
 79151  1  0  0  0
 79152  1  0  0  0
 80 82  1  0  0  0
 80153  1  0  0  0
 80154  1  0  0  0
M  ISO  4   1 100  68 101  79 101  81 100
M  END
> <chiral flag>
0

> <version>
0

> <s_m_source_file>
/data/baiqing/PycharmProjects/Reinvent-master-3.2/result/LINK_invent/BTK/process_docking_weight1_custom_sum_contain_oxygen_bond_distance_aromatic_linkinvent_7_9_3/rearranged_h_0008.sdf

> <i_m_source_file_index>
94

> <r_mmod_Potential_Energy-OPLS-2005>
309.552795410156

> <r_mmod_Stretch_Energy-OPLS-2005>
88.2453536987305

> <r_mmod_Bend_Energy-OPLS-2005>
167.276290893555

> <r_mmod_Torsional_Energy-OPLS-2005>
327.139190673828

> <r_mmod_Improper_Torsional_Energy-OPLS-2005>
25.6013622283936

> <r_mmod_Van_der_Waal_Energy-OPLS-2005>
144.744674682617

> <r_mmod_Electrostatic_Energy-OPLS-2005>
-321.322082519531

> <r_mmod_Solvation_Energy-OPLS-2005>
-199.737258911133

> <b_mmod_Minimization_Converged-OPLS-2005>
0

> <r_mmod_RMS_Derivative-OPLS-2005>
0.991896033287048

$$$$
94
                    3D
 Structure written by MMmdl.
155163  0  0  1  0            999 V2000
  -30.3923  -15.3853   20.3718 C   0  0  0  0  0  0
  -30.4363  -12.9051   19.5100 C   0  0  0  0  0  0
  -29.5355  -12.5952   18.2869 C   0  0  0  0  0  0
  -28.0940  -12.2903   18.7294 C   0  0  0  0  0  0
  -27.6036  -13.2815   19.8124 C   0  0  2  0  0  0
  -28.6373  -13.5128   20.9342 C   0  0  0  0  0  0
  -25.2369  -13.8246   20.5769 C   0  0  0  0  0  0
  -24.1732  -13.0425   20.9272 C   0  0  0  0  0  0
  -24.6400  -11.6926   20.8768 C   0  0  0  0  0  0
  -23.9096  -10.4286   21.0407 C   0  0  0  0  0  0
  -24.3640   -9.4201   21.9187 C   0  0  0  0  0  0
  -23.6305   -8.2241   22.0755 C   0  0  0  0  0  0
  -22.4287   -8.0284   21.3543 C   0  0  0  0  0  0
  -21.9931   -9.0257   20.4644 C   0  0  0  0  0  0
  -22.7267  -10.2130   20.3053 C   0  0  0  0  0  0
  -21.6857   -6.0741   22.5282 C   0  0  0  0  0  0
  -21.4013   -6.5642   23.8215 C   0  0  0  0  0  0
  -21.3659   -5.6794   24.9176 C   0  0  0  0  0  0
  -21.6043   -4.3057   24.7225 C   0  0  0  0  0  0
  -21.8819   -3.8150   23.4346 C   0  0  0  0  0  0
  -21.9191   -4.6967   22.3403 C   0  0  0  0  0  0
  -22.7748  -13.5174   21.1913 C   0  0  0  0  0  0
  -22.1662   -4.2153   21.0980 F   0  0  0  0  0  0
  -21.5628   -3.4539   25.7737 F   0  0  0  0  0  0
  -29.8395  -14.0639   20.2819 N   0  0  0  0  0  0
  -26.2793  -12.9530   20.3209 N   0  0  0  0  0  0
  -25.9337  -11.6628   20.5713 N   0  0  0  0  0  0
  -22.0402  -12.8158   22.0465 N   0  0  0  0  0  0
  -25.3986  -15.1985   20.4224 N   0  0  0  0  0  0
  -31.6270  -15.3537   20.2438 O   0  0  0  0  0  0
  -21.6645   -6.8885   21.4244 O   0  0  0  0  0  0
  -22.3429  -14.5478   20.6756 O   0  0  0  0  0  0
  -24.6689  -31.8164   23.1647 C   0  0  0  0  0  0
  -25.9339  -32.4551   23.8132 C   0  0  1  0  0  0
  -27.2196  -26.8481   20.2102 C   0  0  0  0  0  0
  -25.5980  -33.8372   24.2029 N   0  0  0  0  0  0
  -23.4876  -30.4241   21.5159 C   0  0  2  0  0  0
  -24.9413  -28.7885   20.1251 C   0  0  0  0  0  0
  -22.7695  -29.4406   22.4772 C   0  0  0  0  0  0
  -18.0324  -28.1423   22.8465 C   0  0  0  0  0  0
  -24.1488  -36.7186   23.2651 C   0  0  0  0  0  0
  -26.0601  -30.5958   21.4086 C   0  0  0  0  0  0
  -26.1253  -29.1719   20.7679 C   0  0  0  0  0  0
  -27.2559  -28.2237   20.7856 C   0  0  0  0  0  0
  -26.0076  -26.6372   19.5140 C   0  0  0  0  0  0
  -24.9100  -27.5412   19.4795 C   0  0  0  0  0  0
  -23.7335  -29.7296   20.1473 C   0  0  0  0  0  0
  -25.4134  -36.2944   24.0295 C   0  0  1  0  0  0
  -20.5954  -28.3766   23.1179 C   0  0  2  0  0  0
  -20.6803  -26.9441   22.5404 C   0  0  0  0  0  0
  -19.5774  -26.6379   21.5222 C   0  0  0  0  0  0
  -18.1954  -26.7953   22.1623 C   0  0  0  0  0  0
  -19.1589  -28.8915   23.2807 C   0  0  0  0  0  0
  -18.9503  -30.1504   23.8844 C   0  0  0  0  0  0
  -17.6497  -30.6609   24.0561 C   0  0  0  0  0  0
  -25.9107  -34.9333   23.4985 C   0  0  0  0  0  0
  -16.5385  -29.9098   23.6352 C   0  0  0  0  0  0
  -16.7308  -28.6521   23.0363 C   0  0  0  0  0  0
  -26.4565  -31.6528   25.0691 C   0  0  0  0  0  0
  -25.3666  -31.3815   26.1329 C   0  0  0  0  0  0
  -27.0468  -30.2884   24.6474 C   0  0  0  0  0  0
  -27.6049  -32.4348   25.7494 C   0  0  0  0  0  0
  -27.5563  -37.1751   24.8471 C   0  0  0  0  0  0
  -21.4361  -29.3045   22.3521 N   0  0  0  0  0  0
  -26.4271  -37.3691   23.9411 N   0  0  0  0  0  0
  -24.7608  -30.9752   22.0829 N   0  0  0  0  0  0
  -23.4208  -28.7988   23.3050 O   0  0  0  0  0  0
  -28.2443  -25.7384   20.1510 O   0  0  0  0  0  0
  -26.5730  -34.8883   22.4591 O   0  0  0  0  0  0
  -23.5741  -32.1176   23.6686 O   0  0  0  0  0  0
  -30.5357  -19.9707   22.3373 C   0  0  0  0  0  0
  -29.9366  -21.1330   21.7773 C   0  0  0  0  0  0
  -30.4524  -18.6400   21.8394 C   0  0  0  0  0  0
  -29.1503  -21.1064   20.5970 C   0  0  0  0  0  0
  -29.0759  -19.6152   20.0935 C   0  0  0  0  0  0
  -29.7191  -18.2994   20.6699 C   0  0  0  0  0  0
  -30.1982  -22.4534   22.4855 C   0  0  0  0  0  0
  -31.1597  -17.5705   22.6584 C   0  0  0  0  0  0
  -28.2647  -19.4002   18.8332 C   0  0  0  0  0  0
  -28.6534  -22.7186   19.9737 C   0  0  0  0  0  0
  -29.6161  -16.6842   20.3111 N   0  0  0  0  0  0
  -27.9981  -24.0918   20.6580 N   0  0  0  0  0  0
  -31.4417  -13.1421   19.1595 H   0  0  0  0  0  0
  -30.5481  -12.0250   20.1456 H   0  0  0  0  0  0
  -29.9404  -11.7577   17.7166 H   0  0  0  0  0  0
  -29.5342  -13.4534   17.6131 H   0  0  0  0  0  0
  -28.0820  -11.2771   19.1330 H   0  0  0  0  0  0
  -27.4197  -12.2875   17.8724 H   0  0  0  0  0  0
  -27.4967  -14.2308   19.2859 H   0  0  0  0  0  0
  -28.8453  -12.5964   21.4883 H   0  0  0  0  0  0
  -28.2544  -14.2347   21.6575 H   0  0  0  0  0  0
  -25.2779   -9.5678   22.4768 H   0  0  0  0  0  0
  -24.0009   -7.4632   22.7477 H   0  0  0  0  0  0
  -21.0861   -8.8783   19.8947 H   0  0  0  0  0  0
  -22.3729  -10.9674   19.6164 H   0  0  0  0  0  0
  -21.2006   -7.6151   23.9719 H   0  0  0  0  0  0
  -21.1479   -6.0525   25.9080 H   0  0  0  0  0  0
  -22.0596   -2.7611   23.2846 H   0  0  0  0  0  0
  -22.4035  -11.9834   22.4867 H   0  0  0  0  0  0
  -21.1010  -13.1162   22.2651 H   0  0  0  0  0  0
  -24.6281  -15.8468   20.5434 H   0  0  0  0  0  0
  -26.2449  -15.6469   20.0984 H   0  0  0  0  0  0
  -26.7406  -32.5062   23.0839 H   0  0  0  0  0  0
  -25.0067  -33.9437   25.0138 H   0  0  0  0  0  0
  -22.8058  -31.2580   21.3364 H   0  0  0  0  0  0
  -23.3763  -35.9506   23.3287 H   0  0  0  0  0  0
  -24.3556  -36.8857   22.2069 H   0  0  0  0  0  0
  -23.7229  -37.6359   23.6724 H   0  0  0  0  0  0
  -26.2438  -31.3246   20.6177 H   0  0  0  0  0  0
  -26.9198  -30.6643   22.0633 H   0  0  0  0  0  0
  -28.1603  -28.5257   21.2939 H   0  0  0  0  0  0
  -25.8869  -25.6936   19.0009 H   0  0  0  0  0  0
  -24.0148  -27.2424   18.9516 H   0  0  0  0  0  0
  -23.8996  -30.4935   19.3865 H   0  0  0  0  0  0
  -22.8407  -29.1898   19.8268 H   0  0  0  0  0  0
  -25.1332  -36.1732   25.0786 H   0  0  0  0  0  0
  -21.0040  -28.3379   24.1302 H   0  0  0  0  0  0
  -20.5680  -26.2393   23.3655 H   0  0  0  0  0  0
  -21.6667  -26.7406   22.1215 H   0  0  0  0  0  0
  -19.6937  -25.6277   21.1287 H   0  0  0  0  0  0
  -19.6716  -27.3167   20.6736 H   0  0  0  0  0  0
  -17.4225  -26.6699   21.4024 H   0  0  0  0  0  0
  -18.0337  -26.0110   22.9032 H   0  0  0  0  0  0
  -19.7982  -30.7335   24.2187 H   0  0  0  0  0  0
  -17.5052  -31.6283   24.5171 H   0  0  0  0  0  0
  -15.5385  -30.2988   23.7707 H   0  0  0  0  0  0
  -15.8707  -28.0827   22.7107 H   0  0  0  0  0  0
  -24.5879  -30.7128   25.7642 H   0  0  0  0  0  0
  -24.8820  -32.3032   26.4569 H   0  0  0  0  0  0
  -25.7871  -30.9111   27.0228 H   0  0  0  0  0  0
  -26.3155  -29.6543   24.1454 H   0  0  0  0  0  0
  -27.3945  -29.7266   25.5156 H   0  0  0  0  0  0
  -27.9113  -30.4041   23.9935 H   0  0  0  0  0  0
  -27.2622  -33.3717   26.1897 H   0  0  0  0  0  0
  -28.3951  -32.6796   25.0382 H   0  0  0  0  0  0
  -28.0615  -31.8586   26.5548 H   0  0  0  0  0  0
  -28.2568  -38.0060   24.7501 H   0  0  0  0  0  0
  -28.1063  -36.2580   24.6310 H   0  0  0  0  0  0
  -27.2277  -37.1412   25.8875 H   0  0  0  0  0  0
  -20.9633  -29.8716   21.6622 H   0  0  0  0  0  0
  -26.0109  -38.2743   24.1427 H   0  0  0  0  0  0
  -31.1161  -20.1151   23.2382 H   0  0  0  0  0  0
  -30.8300  -22.3265   23.3651 H   0  0  0  0  0  0
  -29.2632  -22.9009   22.8219 H   0  0  0  0  0  0
  -30.7039  -23.1573   21.8241 H   0  0  0  0  0  0
  -31.5408  -17.9637   23.6010 H   0  0  0  0  0  0
  -32.0127  -17.1740   22.1092 H   0  0  0  0  0  0
  -30.4821  -16.7540   22.9090 H   0  0  0  0  0  0
  -27.6550  -20.2702   18.5915 H   0  0  0  0  0  0
  -27.5966  -18.5470   18.9505 H   0  0  0  0  0  0
  -28.9263  -19.2018   17.9899 H   0  0  0  0  0  0
  -28.0230  -22.5104   19.1095 H   0  0  0  0  0  0
  -29.5794  -23.0871   19.5318 H   0  0  0  0  0  0
  -28.6750  -16.4547   20.0296 H   0  0  0  0  0  0
  -26.9893  -23.9726   20.6211 H   0  0  0  0  0  0
  1 25  1  0  0  0
  1 30  2  0  0  0
  1 81  1  0  0  0
  2  3  1  0  0  0
  2 25  1  0  0  0
  2 83  1  0  0  0
  2 84  1  0  0  0
  3  4  1  0  0  0
  3 85  1  0  0  0
  3 86  1  0  0  0
  4  5  1  0  0  0
  4 87  1  0  0  0
  4 88  1  0  0  0
  5  6  1  0  0  0
  5 26  1  0  0  0
  5 89  1  0  0  0
  6 25  1  0  0  0
  6 90  1  0  0  0
  6 91  1  0  0  0
  7  8  2  0  0  0
  7 26  1  0  0  0
  7 29  1  0  0  0
  8  9  1  0  0  0
  8 22  1  0  0  0
  9 10  1  0  0  0
  9 27  2  0  0  0
 10 11  2  0  0  0
 10 15  1  0  0  0
 11 12  1  0  0  0
 11 92  1  0  0  0
 12 13  2  0  0  0
 12 93  1  0  0  0
 13 14  1  0  0  0
 13 31  1  0  0  0
 14 15  2  0  0  0
 14 94  1  0  0  0
 15 95  1  0  0  0
 16 17  2  0  0  0
 16 21  1  0  0  0
 16 31  1  0  0  0
 17 18  1  0  0  0
 17 96  1  0  0  0
 18 19  2  0  0  0
 18 97  1  0  0  0
 19 20  1  0  0  0
 19 24  1  0  0  0
 20 21  2  0  0  0
 20 98  1  0  0  0
 21 23  1  0  0  0
 22 28  1  0  0  0
 22 32  2  0  0  0
 26 27  1  0  0  0
 28 99  1  0  0  0
 28100  1  0  0  0
 29101  1  0  0  0
 29102  1  0  0  0
 33 34  1  0  0  0
 33 66  1  0  0  0
 33 70  2  0  0  0
 34 36  1  0  0  0
 34 59  1  0  0  0
 34103  1  0  0  0
 35 44  2  0  0  0
 35 45  1  0  0  0
 35 68  1  0  0  0
 36 56  1  0  0  0
 36104  1  0  0  0
 37 39  1  0  0  0
 37 47  1  0  0  0
 37 66  1  0  0  0
 37105  1  0  0  0
 38 43  2  0  0  0
 38 46  1  0  0  0
 38 47  1  0  0  0
 39 64  1  0  0  0
 39 67  2  0  0  0
 40 52  1  0  0  0
 40 53  2  0  0  0
 40 58  1  0  0  0
 41106  1  0  0  0
 41107  1  0  0  0
 41108  1  0  0  0
 41 48  1  0  0  0
 42 43  1  0  0  0
 42 66  1  0  0  0
 42109  1  0  0  0
 42110  1  0  0  0
 43 44  1  0  0  0
 44111  1  0  0  0
 45 46  2  0  0  0
 45112  1  0  0  0
 46113  1  0  0  0
 47114  1  0  0  0
 47115  1  0  0  0
 48 56  1  0  0  0
 48 65  1  0  0  0
 48116  1  0  0  0
 49 50  1  0  0  0
 49 53  1  0  0  0
 49 64  1  0  0  0
 49117  1  0  0  0
 50 51  1  0  0  0
 50118  1  0  0  0
 50119  1  0  0  0
 51 52  1  0  0  0
 51120  1  0  0  0
 51121  1  0  0  0
 52122  1  0  0  0
 52123  1  0  0  0
 53 54  1  0  0  0
 54 55  2  0  0  0
 54124  1  0  0  0
 55 57  1  0  0  0
 55125  1  0  0  0
 56 69  2  0  0  0
 57 58  2  0  0  0
 57126  1  0  0  0
 58127  1  0  0  0
 59 60  1  0  0  0
 59 61  1  0  0  0
 59 62  1  0  0  0
 60128  1  0  0  0
 60129  1  0  0  0
 60130  1  0  0  0
 61131  1  0  0  0
 61132  1  0  0  0
 61133  1  0  0  0
 62134  1  0  0  0
 62135  1  0  0  0
 62136  1  0  0  0
 63 65  1  0  0  0
 63137  1  0  0  0
 63138  1  0  0  0
 63139  1  0  0  0
 64140  1  0  0  0
 65141  1  0  0  0
 68 82  1  0  0  0
 71 72  2  0  0  0
 71 73  1  0  0  0
 71142  1  0  0  0
 72 74  1  0  0  0
 72 77  1  0  0  0
 73 76  2  0  0  0
 73 78  1  0  0  0
 74 75  2  0  0  0
 74 80  1  0  0  0
 75 76  1  0  0  0
 75 79  1  0  0  0
 76 81  1  0  0  0
 77143  1  0  0  0
 77144  1  0  0  0
 77145  1  0  0  0
 78146  1  0  0  0
 78147  1  0  0  0
 78148  1  0  0  0
 79149  1  0  0  0
 79150  1  0  0  0
 79151  1  0  0  0
 80 82  1  0  0  0
 80152  1  0  0  0
 80153  1  0  0  0
 81154  1  0  0  0
 82155  1  0  0  0
M  ISO  4   1 100  68 101  81 100  82 101
M  END
> <chiral flag>
0

> <version>
0

> <s_m_source_file>
/data/baiqing/PycharmProjects/Reinvent-master-3.2/result/LINK_invent/BTK/process_docking_weight1_custom_sum_contain_oxygen_bond_distance_aromatic_linkinvent_7_9_3/rearranged_h_0008.sdf

> <i_m_source_file_index>
95

> <r_mmod_Potential_Energy-OPLS-2005>
1526.55334472656

> <r_mmod_Stretch_Energy-OPLS-2005>
720.015502929688

> <r_mmod_Bend_Energy-OPLS-2005>
475.382446289062

> <r_mmod_Torsional_Energy-OPLS-2005>
234.712997436523

> <r_mmod_Improper_Torsional_Energy-OPLS-2005>
8.56316184997559

> <r_mmod_Van_der_Waal_Energy-OPLS-2005>
130.607284545898

> <r_mmod_Electrostatic_Energy-OPLS-2005>
-403.757659912109

> <r_mmod_Solvation_Energy-OPLS-2005>
-219.103744506836

> <b_mmod_Minimization_Converged-OPLS-2005>
0

> <r_mmod_RMS_Derivative-OPLS-2005>
0.886868178844452

$$$$
95
                    3D
 Structure written by MMmdl.
177185  0  0  1  0            999 V2000
  -30.6608  -14.7866   20.5396 C   0  0  0  0  0  0
  -30.4302  -12.5106   19.4775 C   0  0  0  0  0  0
  -29.5028  -12.5082   18.2437 C   0  0  0  0  0  0
  -28.0407  -12.3047   18.6747 C   0  0  0  0  0  0
  -27.6368  -13.2350   19.8478 C   0  0  2  0  0  0
  -28.6823  -13.2291   20.9844 C   0  0  0  0  0  0
  -25.2497  -13.8201   20.5695 C   0  0  0  0  0  0
  -24.1786  -13.0446   20.9214 C   0  0  0  0  0  0
  -24.6384  -11.6926   20.8764 C   0  0  0  0  0  0
  -23.9071  -10.4294   21.0423 C   0  0  0  0  0  0
  -24.3613   -9.4210   21.9197 C   0  0  0  0  0  0
  -23.6287   -8.2238   22.0761 C   0  0  0  0  0  0
  -22.4278   -8.0281   21.3542 C   0  0  0  0  0  0
  -21.9921   -9.0255   20.4642 C   0  0  0  0  0  0
  -22.7243  -10.2134   20.3062 C   0  0  0  0  0  0
  -21.6858   -6.0734   22.5271 C   0  0  0  0  0  0
  -21.4017   -6.5642   23.8199 C   0  0  0  0  0  0
  -21.3653   -5.6795   24.9164 C   0  0  0  0  0  0
  -21.6036   -4.3061   24.7220 C   0  0  0  0  0  0
  -21.8823   -3.8151   23.4342 C   0  0  0  0  0  0
  -21.9193   -4.6962   22.3398 C   0  0  0  0  0  0
  -22.7808  -13.5232   21.1864 C   0  0  0  0  0  0
  -22.1664   -4.2147   21.0975 F   0  0  0  0  0  0
  -21.5617   -3.4550   25.7734 F   0  0  0  0  0  0
  -29.9752  -13.5925   20.3911 N   0  0  0  0  0  0
  -26.2921  -12.9409   20.3322 N   0  0  0  0  0  0
  -25.9326  -11.6554   20.5806 N   0  0  0  0  0  0
  -22.0462  -12.8203   22.0407 N   0  0  0  0  0  0
  -25.4203  -15.1907   20.4028 N   0  0  0  0  0  0
  -31.8461  -14.8273   20.1987 O   0  0  0  0  0  0
  -21.6640   -6.8879   21.4234 O   0  0  0  0  0  0
  -22.3497  -14.5539   20.6706 O   0  0  0  0  0  0
  -24.6358  -31.8517   23.1955 C   0  0  0  0  0  0
  -25.9177  -32.4725   23.8294 C   0  0  1  0  0  0
  -27.1992  -27.2144   20.1401 C   0  0  0  0  0  0
  -25.5937  -33.8531   24.2187 N   0  0  0  0  0  0
  -23.4327  -30.4792   21.5406 C   0  0  2  0  0  0
  -24.8766  -28.9280   20.1000 C   0  0  0  0  0  0
  -22.7524  -29.4575   22.4868 C   0  0  0  0  0  0
  -18.0293  -28.1388   22.8460 C   0  0  0  0  0  0
  -24.1477  -36.7253   23.2647 C   0  0  0  0  0  0
  -25.9850  -30.7509   21.3870 C   0  0  0  0  0  0
  -26.0518  -29.3748   20.7184 C   0  0  0  0  0  0
  -27.2138  -28.5322   20.7247 C   0  0  0  0  0  0
  -26.0078  -26.8593   19.4682 C   0  0  0  0  0  0
  -24.8631  -27.6802   19.4621 C   0  0  0  0  0  0
  -23.6507  -29.8223   20.1534 C   0  0  0  0  0  0
  -25.4113  -36.3039   24.0323 C   0  0  1  0  0  0
  -20.5906  -28.3684   23.1252 C   0  0  2  0  0  0
  -20.6775  -26.9394   22.5403 C   0  0  0  0  0  0
  -19.5740  -26.6368   21.5210 C   0  0  0  0  0  0
  -18.1916  -26.7923   22.1615 C   0  0  0  0  0  0
  -19.1557  -28.8855   23.2846 C   0  0  0  0  0  0
  -18.9480  -30.1449   23.8881 C   0  0  0  0  0  0
  -17.6478  -30.6592   24.0554 C   0  0  0  0  0  0
  -25.9076  -34.9424   23.5063 C   0  0  0  0  0  0
  -16.5367  -29.9080   23.6368 C   0  0  0  0  0  0
  -16.7279  -28.6500   23.0364 C   0  0  0  0  0  0
  -26.4491  -31.6601   25.0754 C   0  0  0  0  0  0
  -25.3657  -31.3813   26.1455 C   0  0  0  0  0  0
  -27.0369  -30.3008   24.6336 C   0  0  0  0  0  0
  -27.6013  -32.4410   25.7514 C   0  0  0  0  0  0
  -27.5559  -37.1780   24.8469 C   0  0  0  0  0  0
  -21.4223  -29.3031   22.3640 N   0  0  0  0  0  0
  -26.4267  -37.3758   23.9414 N   0  0  0  0  0  0
  -24.7030  -31.0458   22.0952 N   0  0  0  0  0  0
  -23.4206  -28.8108   23.2972 O   0  0  0  0  0  0
  -28.2593  -26.2700   20.2527 O   0  0  0  0  0  0
  -26.5653  -34.8908   22.4642 O   0  0  0  0  0  0
  -23.5501  -32.1380   23.7226 O   0  0  0  0  0  0
  -31.8886  -17.4778   23.7350 C   0  0  0  0  0  0
  -31.3115  -16.6560   22.7566 C   0  0  0  0  0  0
  -30.9438  -19.3877   22.6325 C   0  0  0  0  0  0
  -30.2827  -18.6125   21.6320 C   0  0  0  0  0  0
  -31.6982  -18.8613   23.6906 C   0  0  0  0  0  0
  -30.5121  -17.1311   21.6744 C   0  0  0  0  0  0
  -29.5418  -19.5301   20.5966 C   0  0  0  0  0  0
  -31.4402  -20.7888   25.2293 C   0  0  0  0  0  0
  -28.3197  -20.8619   22.2938 C   0  0  0  0  0  0
  -36.5398  -18.4868   24.5970 C   0  0  0  0  0  0
  -36.8745  -20.3680   23.0673 C   0  0  0  0  0  0
  -28.8084  -23.5437   20.7008 C   0  0  0  0  0  0
  -28.6490  -22.0069   20.1328 C   0  0  0  0  0  0
  -33.6706  -19.5969   25.0242 C   0  0  0  0  0  0
  -34.6020  -19.8215   23.8114 C   0  0  0  0  0  0
  -28.0242  -24.7872   19.9791 C   0  0  0  0  0  0
  -29.9968  -15.9810   20.8626 N   0  0  0  0  0  0
  -32.2532  -19.7080   24.6724 N   0  0  0  0  0  0
  -28.9985  -20.7747   20.9947 N   0  0  0  0  0  0
  -36.0447  -19.8136   24.1620 N   0  3  0  0  0  0
  -29.5520  -19.1929   19.4105 O   0  0  0  0  0  0
  -31.4649  -12.6431   19.1570 H   0  0  0  0  0  0
  -30.3979  -11.5461   19.9863 H   0  0  0  0  0  0
  -29.7985  -11.7193   17.5508 H   0  0  0  0  0  0
  -29.6020  -13.4502   17.7023 H   0  0  0  0  0  0
  -27.9370  -11.2630   18.9833 H   0  0  0  0  0  0
  -27.3674  -12.4383   17.8275 H   0  0  0  0  0  0
  -27.6180  -14.2419   19.4319 H   0  0  0  0  0  0
  -28.7364  -12.2507   21.4619 H   0  0  0  0  0  0
  -28.4010  -13.9397   21.7638 H   0  0  0  0  0  0
  -25.2757   -9.5684   22.4783 H   0  0  0  0  0  0
  -23.9995   -7.4640   22.7487 H   0  0  0  0  0  0
  -21.0856   -8.8765   19.8951 H   0  0  0  0  0  0
  -22.3705  -10.9670   19.6169 H   0  0  0  0  0  0
  -21.2016   -7.6156   23.9699 H   0  0  0  0  0  0
  -21.1467   -6.0536   25.9062 H   0  0  0  0  0  0
  -22.0608   -2.7618   23.2846 H   0  0  0  0  0  0
  -22.4093  -11.9864   22.4781 H   0  0  0  0  0  0
  -21.1080  -13.1215   22.2639 H   0  0  0  0  0  0
  -24.6443  -15.8418   20.4616 H   0  0  0  0  0  0
  -26.2594  -15.6143   20.0299 H   0  0  0  0  0  0
  -26.7249  -32.5348   23.1010 H   0  0  0  0  0  0
  -25.0052  -33.9644   25.0319 H   0  0  0  0  0  0
  -22.7324  -31.3048   21.3968 H   0  0  0  0  0  0
  -23.3748  -35.9573   23.3307 H   0  0  0  0  0  0
  -24.3553  -36.8903   22.2058 H   0  0  0  0  0  0
  -23.7210  -37.6448   23.6680 H   0  0  0  0  0  0
  -26.1461  -31.5182   20.6290 H   0  0  0  0  0  0
  -26.8548  -30.7841   22.0310 H   0  0  0  0  0  0
  -28.1084  -28.8606   21.2346 H   0  0  0  0  0  0
  -25.9184  -25.9139   18.9561 H   0  0  0  0  0  0
  -23.9676  -27.3324   18.9649 H   0  0  0  0  0  0
  -23.7695  -30.6071   19.4052 H   0  0  0  0  0  0
  -22.7661  -29.2640   19.8446 H   0  0  0  0  0  0
  -25.1274  -36.1866   25.0811 H   0  0  0  0  0  0
  -20.9995  -28.3263   24.1372 H   0  0  0  0  0  0
  -20.5710  -26.2269   23.3604 H   0  0  0  0  0  0
  -21.6633  -26.7431   22.1163 H   0  0  0  0  0  0
  -19.6917  -25.6276   21.1237 H   0  0  0  0  0  0
  -19.6703  -27.3195   20.6749 H   0  0  0  0  0  0
  -17.4190  -26.6687   21.4013 H   0  0  0  0  0  0
  -18.0302  -26.0061   22.9013 H   0  0  0  0  0  0
  -19.7955  -30.7264   24.2242 H   0  0  0  0  0  0
  -17.5037  -31.6293   24.5114 H   0  0  0  0  0  0
  -15.5365  -30.2966   23.7730 H   0  0  0  0  0  0
  -15.8661  -28.0836   22.7084 H   0  0  0  0  0  0
  -24.5782  -30.7227   25.7760 H   0  0  0  0  0  0
  -24.8906  -32.3026   26.4850 H   0  0  0  0  0  0
  -25.7911  -30.8972   27.0255 H   0  0  0  0  0  0
  -26.3014  -29.6738   24.1293 H   0  0  0  0  0  0
  -27.3935  -29.7306   25.4912 H   0  0  0  0  0  0
  -27.8903  -30.4249   23.9674 H   0  0  0  0  0  0
  -27.2575  -33.3728   26.2011 H   0  0  0  0  0  0
  -28.3822  -32.6988   25.0346 H   0  0  0  0  0  0
  -28.0665  -31.8619   26.5496 H   0  0  0  0  0  0
  -28.2561  -38.0086   24.7536 H   0  0  0  0  0  0
  -28.1064  -36.2627   24.6260 H   0  0  0  0  0  0
  -27.2291  -37.1403   25.8876 H   0  0  0  0  0  0
  -20.9411  -29.8763   21.6855 H   0  0  0  0  0  0
  -26.0136  -38.2824   24.1463 H   0  0  0  0  0  0
  -32.4595  -17.0279   24.5337 H   0  0  0  0  0  0
  -31.4895  -15.5994   22.8934 H   0  0  0  0  0  0
  -30.8924  -20.4666   22.5945 H   0  0  0  0  0  0
  -30.3764  -20.5477   25.2039 H   0  0  0  0  0  0
  -31.5972  -21.7232   24.6880 H   0  0  0  0  0  0
  -31.7040  -20.9635   26.2745 H   0  0  0  0  0  0
  -28.8668  -21.5088   22.9807 H   0  0  0  0  0  0
  -28.1900  -19.8928   22.7809 H   0  0  0  0  0  0
  -27.3187  -21.2771   22.1709 H   0  0  0  0  0  0
  -37.5879  -18.5455   24.8932 H   0  0  0  0  0  0
  -36.4606  -17.7527   23.7940 H   0  0  0  0  0  0
  -35.9894  -18.1086   25.4576 H   0  0  0  0  0  0
  -37.9290  -20.3951   23.3452 H   0  0  0  0  0  0
  -36.5767  -21.3883   22.8236 H   0  0  0  0  0  0
  -36.7824  -19.7642   22.1636 H   0  0  0  0  0  0
  -29.8729  -23.7723   20.7185 H   0  0  0  0  0  0
  -28.5105  -23.5568   21.7499 H   0  0  0  0  0  0
  -29.2251  -21.9362   19.2112 H   0  0  0  0  0  0
  -27.6134  -21.8767   19.8147 H   0  0  0  0  0  0
  -33.8976  -20.3467   25.7847 H   0  0  0  0  0  0
  -33.8444  -18.6306   25.4975 H   0  0  0  0  0  0
  -34.3526  -20.7889   23.3733 H   0  0  0  0  0  0
  -34.4158  -19.0749   23.0391 H   0  0  0  0  0  0
  -26.9781  -24.5619   20.1854 H   0  0  0  0  0  0
  -28.1361  -24.6579   18.9015 H   0  0  0  0  0  0
  -28.9923  -15.9419   20.7768 H   0  0  0  0  0  0
  -36.1583  -20.4422   24.9437 H   0  0  0  0  0  0
  1 25  1  0  0  0
  1 30  2  0  0  0
  1 87  1  0  0  0
  2  3  1  0  0  0
  2 25  1  0  0  0
  2 92  1  0  0  0
  2 93  1  0  0  0
  3  4  1  0  0  0
  3 94  1  0  0  0
  3 95  1  0  0  0
  4  5  1  0  0  0
  4 96  1  0  0  0
  4 97  1  0  0  0
  5  6  1  0  0  0
  5 26  1  0  0  0
  5 98  1  0  0  0
  6 25  1  0  0  0
  6 99  1  0  0  0
  6100  1  0  0  0
  7  8  2  0  0  0
  7 26  1  0  0  0
  7 29  1  0  0  0
  8  9  1  0  0  0
  8 22  1  0  0  0
  9 10  1  0  0  0
  9 27  2  0  0  0
 10 11  2  0  0  0
 10 15  1  0  0  0
 11 12  1  0  0  0
 11101  1  0  0  0
 12 13  2  0  0  0
 12102  1  0  0  0
 13 14  1  0  0  0
 13 31  1  0  0  0
 14 15  2  0  0  0
 14103  1  0  0  0
 15104  1  0  0  0
 16 17  2  0  0  0
 16 21  1  0  0  0
 16 31  1  0  0  0
 17 18  1  0  0  0
 17105  1  0  0  0
 18 19  2  0  0  0
 18106  1  0  0  0
 19 20  1  0  0  0
 19 24  1  0  0  0
 20 21  2  0  0  0
 20107  1  0  0  0
 21 23  1  0  0  0
 22 28  1  0  0  0
 22 32  2  0  0  0
 26 27  1  0  0  0
 28108  1  0  0  0
 28109  1  0  0  0
 29110  1  0  0  0
 29111  1  0  0  0
 33 34  1  0  0  0
 33 66  1  0  0  0
 33 70  2  0  0  0
 34 36  1  0  0  0
 34 59  1  0  0  0
 34112  1  0  0  0
 35 44  2  0  0  0
 35 45  1  0  0  0
 35 68  1  0  0  0
 36 56  1  0  0  0
 36113  1  0  0  0
 37 39  1  0  0  0
 37 47  1  0  0  0
 37 66  1  0  0  0
 37114  1  0  0  0
 38 43  2  0  0  0
 38 46  1  0  0  0
 38 47  1  0  0  0
 39 64  1  0  0  0
 39 67  2  0  0  0
 40 52  1  0  0  0
 40 53  2  0  0  0
 40 58  1  0  0  0
 41115  1  0  0  0
 41116  1  0  0  0
 41117  1  0  0  0
 41 48  1  0  0  0
 42 43  1  0  0  0
 42 66  1  0  0  0
 42118  1  0  0  0
 42119  1  0  0  0
 43 44  1  0  0  0
 44120  1  0  0  0
 45 46  2  0  0  0
 45121  1  0  0  0
 46122  1  0  0  0
 47123  1  0  0  0
 47124  1  0  0  0
 48 56  1  0  0  0
 48 65  1  0  0  0
 48125  1  0  0  0
 49 50  1  0  0  0
 49 53  1  0  0  0
 49 64  1  0  0  0
 49126  1  0  0  0
 50 51  1  0  0  0
 50127  1  0  0  0
 50128  1  0  0  0
 51 52  1  0  0  0
 51129  1  0  0  0
 51130  1  0  0  0
 52131  1  0  0  0
 52132  1  0  0  0
 53 54  1  0  0  0
 54 55  2  0  0  0
 54133  1  0  0  0
 55 57  1  0  0  0
 55134  1  0  0  0
 56 69  2  0  0  0
 57 58  2  0  0  0
 57135  1  0  0  0
 58136  1  0  0  0
 59 60  1  0  0  0
 59 61  1  0  0  0
 59 62  1  0  0  0
 60137  1  0  0  0
 60138  1  0  0  0
 60139  1  0  0  0
 61140  1  0  0  0
 61141  1  0  0  0
 61142  1  0  0  0
 62143  1  0  0  0
 62144  1  0  0  0
 62145  1  0  0  0
 63 65  1  0  0  0
 63146  1  0  0  0
 63147  1  0  0  0
 63148  1  0  0  0
 64149  1  0  0  0
 65150  1  0  0  0
 68 86  1  0  0  0
 71 72  2  0  0  0
 71 75  1  0  0  0
 71151  1  0  0  0
 72 76  1  0  0  0
 72152  1  0  0  0
 73 74  1  0  0  0
 73 75  2  0  0  0
 73153  1  0  0  0
 74 76  2  0  0  0
 74 77  1  0  0  0
 75 88  1  0  0  0
 76 87  1  0  0  0
 77 89  1  0  0  0
 77 91  2  0  0  0
 78 88  1  0  0  0
 78154  1  0  0  0
 78155  1  0  0  0
 78156  1  0  0  0
 79 89  1  0  0  0
 79157  1  0  0  0
 79158  1  0  0  0
 79159  1  0  0  0
 80160  1  0  0  0
 80161  1  0  0  0
 80162  1  0  0  0
 80 90  1  0  0  0
 81 90  1  0  0  0
 81163  1  0  0  0
 81164  1  0  0  0
 81165  1  0  0  0
 82 83  1  0  0  0
 82 86  1  0  0  0
 82166  1  0  0  0
 82167  1  0  0  0
 83 89  1  0  0  0
 83168  1  0  0  0
 83169  1  0  0  0
 84 85  1  0  0  0
 84 88  1  0  0  0
 84170  1  0  0  0
 84171  1  0  0  0
 85 90  1  0  0  0
 85172  1  0  0  0
 85173  1  0  0  0
 86174  1  0  0  0
 86175  1  0  0  0
 87176  1  0  0  0
 90177  1  0  0  0
M  CHG  1  90   1
M  ISO  4   1 100  68 101  86 101  87 100
M  END
> <chiral flag>
0

> <version>
0

> <s_m_source_file>
/data/baiqing/PycharmProjects/Reinvent-master-3.2/result/LINK_invent/BTK/process_docking_weight1_custom_sum_contain_oxygen_bond_distance_aromatic_linkinvent_7_9_3/rearranged_h_0008.sdf

> <i_m_source_file_index>
96

> <r_mmod_Potential_Energy-OPLS-2005>
289.629150390625

> <r_mmod_Stretch_Energy-OPLS-2005>
180.198593139648

> <r_mmod_Bend_Energy-OPLS-2005>
243.701766967773

> <r_mmod_Torsional_Energy-OPLS-2005>
306.644348144531

> <r_mmod_Improper_Torsional_Energy-OPLS-2005>
8.2377462387085

> <r_mmod_Van_der_Waal_Energy-OPLS-2005>
160.466323852539

> <r_mmod_Electrostatic_Energy-OPLS-2005>
-248.460800170898

> <r_mmod_Solvation_Energy-OPLS-2005>
-478.475402832031

> <b_mmod_Minimization_Converged-OPLS-2005>
0

> <r_mmod_RMS_Derivative-OPLS-2005>
3.50300741195679

$$$$
96
                    3D
 Structure written by MMmdl.
144152  0  0  1  0            999 V2000
  -30.3282  -15.6180   20.3483 C   0  0  0  0  0  0
  -30.4174  -13.0453   19.6232 C   0  0  0  0  0  0
  -29.5917  -12.6659   18.3631 C   0  0  0  0  0  0
  -28.1526  -12.3037   18.7694 C   0  0  0  0  0  0
  -27.5947  -13.3142   19.8038 C   0  0  2  0  0  0
  -28.5802  -13.6396   20.9583 C   0  0  0  0  0  0
  -25.2311  -13.8235   20.5782 C   0  0  0  0  0  0
  -24.1666  -13.0391   20.9308 C   0  0  0  0  0  0
  -24.6342  -11.6894   20.8636 C   0  0  0  0  0  0
  -23.9025  -10.4290   21.0404 C   0  0  0  0  0  0
  -24.3560   -9.4223   21.9224 C   0  0  0  0  0  0
  -23.6276   -8.2219   22.0773 C   0  0  0  0  0  0
  -22.4281   -8.0264   21.3517 C   0  0  0  0  0  0
  -21.9906   -9.0228   20.4636 C   0  0  0  0  0  0
  -22.7217  -10.2124   20.3067 C   0  0  0  0  0  0
  -21.6812   -6.0698   22.5275 C   0  0  0  0  0  0
  -21.4055   -6.5617   23.8228 C   0  0  0  0  0  0
  -21.3669   -5.6768   24.9178 C   0  0  0  0  0  0
  -21.6054   -4.3037   24.7244 C   0  0  0  0  0  0
  -21.8775   -3.8093   23.4361 C   0  0  0  0  0  0
  -21.9195   -4.6914   22.3401 C   0  0  0  0  0  0
  -22.7706  -13.5174   21.1905 C   0  0  0  0  0  0
  -22.1632   -4.2092   21.0962 F   0  0  0  0  0  0
  -21.5629   -3.4523   25.7752 F   0  0  0  0  0  0
  -29.7915  -14.2482   20.3480 N   0  0  0  0  0  0
  -26.2682  -12.9568   20.2994 N   0  0  0  0  0  0
  -25.9267  -11.6624   20.5491 N   0  0  0  0  0  0
  -22.0248  -12.8221   22.0432 N   0  0  0  0  0  0
  -25.4038  -15.2009   20.4378 N   0  0  0  0  0  0
  -31.5366  -15.5442   20.0567 O   0  0  0  0  0  0
  -21.6620   -6.8867   21.4266 O   0  0  0  0  0  0
  -22.3439  -14.5440   20.6728 O   0  0  0  0  0  0
  -24.6868  -31.7927   23.1374 C   0  0  0  0  0  0
  -25.9442  -32.4463   23.7942 C   0  0  1  0  0  0
  -27.2846  -26.7045   20.2071 C   0  0  0  0  0  0
  -25.6004  -33.8303   24.1865 N   0  0  0  0  0  0
  -23.5118  -30.3876   21.5042 C   0  0  2  0  0  0
  -24.9828  -28.7192   20.1355 C   0  0  0  0  0  0
  -22.7769  -29.4321   22.4769 C   0  0  0  0  0  0
  -18.0329  -28.1386   22.8452 C   0  0  0  0  0  0
  -24.1515  -36.7160   23.2623 C   0  0  0  0  0  0
  -26.0967  -30.5284   21.4024 C   0  0  0  0  0  0
  -26.1755  -29.0847   20.7668 C   0  0  0  0  0  0
  -27.3056  -28.1106   20.7707 C   0  0  0  0  0  0
  -26.0508  -26.5469   19.5137 C   0  0  0  0  0  0
  -24.9575  -27.4670   19.4888 C   0  0  0  0  0  0
  -23.7612  -29.6552   20.1573 C   0  0  0  0  0  0
  -25.4169  -36.2910   24.0253 C   0  0  1  0  0  0
  -20.5987  -28.3778   23.1177 C   0  0  2  0  0  0
  -20.6812  -26.9451   22.5426 C   0  0  0  0  0  0
  -19.5774  -26.6345   21.5239 C   0  0  0  0  0  0
  -18.1949  -26.7913   22.1608 C   0  0  0  0  0  0
  -19.1593  -28.8919   23.2773 C   0  0  0  0  0  0
  -18.9469  -30.1493   23.8834 C   0  0  0  0  0  0
  -17.6466  -30.6612   24.0525 C   0  0  0  0  0  0
  -25.9163  -34.9317   23.4925 C   0  0  0  0  0  0
  -16.5367  -29.9082   23.6383 C   0  0  0  0  0  0
  -16.7292  -28.6497   23.0403 C   0  0  0  0  0  0
  -26.4649  -31.6461   25.0575 C   0  0  0  0  0  0
  -25.3692  -31.3795   26.1161 C   0  0  0  0  0  0
  -27.0490  -30.2759   24.6399 C   0  0  0  0  0  0
  -27.6127  -32.4254   25.7419 C   0  0  0  0  0  0
  -27.5643  -37.1669   24.8439 C   0  0  0  0  0  0
  -21.4435  -29.3002   22.3485 N   0  0  0  0  0  0
  -26.4281  -37.3676   23.9442 N   0  0  0  0  0  0
  -24.7918  -30.9396   22.0629 N   0  0  0  0  0  0
  -23.4214  -28.8002   23.3166 O   0  0  0  0  0  0
  -28.2700  -25.4817   20.2368 O   0  0  0  0  0  0
  -26.5830  -34.8947   22.4573 O   0  0  0  0  0  0
  -23.5920  -32.1055   23.6334 O   0  0  0  0  0  0
  -31.4683  -20.5706   20.9152 C   0  0  0  0  0  0
  -31.0997  -19.1832   20.7891 C   0  0  0  0  0  0
  -30.6023  -21.7157   20.7285 C   0  0  0  0  0  0
  -28.8925  -20.0353   20.3061 C   0  0  0  0  0  0
  -29.7930  -18.7099   20.4641 C   0  0  0  0  0  0
  -29.1996  -21.6110   20.4106 C   0  0  0  0  0  0
  -29.5929  -16.9929   20.4646 N   0  0  0  0  0  0
  -27.1549  -23.4147   21.6026 O   0  0  0  0  0  0
  -27.0632  -23.2745   19.1245 O   0  0  0  0  0  0
  -27.8944  -23.5023   20.3333 S   0  0  0  0  0  0
  -31.4572  -13.2325   19.3711 H   0  0  0  0  0  0
  -30.4847  -12.1890   20.2907 H   0  0  0  0  0  0
  -30.0828  -11.8471   17.8310 H   0  0  0  0  0  0
  -29.5823  -13.5173   17.6850 H   0  0  0  0  0  0
  -28.1753  -11.3078   19.2162 H   0  0  0  0  0  0
  -27.5111  -12.2162   17.8884 H   0  0  0  0  0  0
  -27.4653  -14.2410   19.2374 H   0  0  0  0  0  0
  -28.7801  -12.7556   21.5620 H   0  0  0  0  0  0
  -28.1262  -14.3569   21.6422 H   0  0  0  0  0  0
  -25.2717   -9.5678   22.4750 H   0  0  0  0  0  0
  -23.9966   -7.4634   22.7514 H   0  0  0  0  0  0
  -21.0811   -8.8743   19.8971 H   0  0  0  0  0  0
  -22.3716  -10.9609   19.6087 H   0  0  0  0  0  0
  -21.2088   -7.6147   23.9708 H   0  0  0  0  0  0
  -21.1547   -6.0514   25.9073 H   0  0  0  0  0  0
  -22.0569   -2.7583   23.2844 H   0  0  0  0  0  0
  -22.3823  -11.9999   22.4980 H   0  0  0  0  0  0
  -21.0857  -13.1383   22.2464 H   0  0  0  0  0  0
  -24.6693  -15.8743   20.6444 H   0  0  0  0  0  0
  -26.2822  -15.6327   20.1674 H   0  0  0  0  0  0
  -26.7521  -32.4959   23.0644 H   0  0  0  0  0  0
  -24.9942  -33.9262   24.9878 H   0  0  0  0  0  0
  -22.8425  -31.2231   21.3025 H   0  0  0  0  0  0
  -23.3855  -35.9400   23.3141 H   0  0  0  0  0  0
  -24.3625  -36.8959   22.2078 H   0  0  0  0  0  0
  -23.7184  -37.6256   23.6803 H   0  0  0  0  0  0
  -26.2950  -31.2405   20.6033 H   0  0  0  0  0  0
  -26.9493  -30.6098   22.0606 H   0  0  0  0  0  0
  -28.2161  -28.4253   21.2650 H   0  0  0  0  0  0
  -25.8863  -25.6132   18.9972 H   0  0  0  0  0  0
  -24.0479  -27.1616   18.9940 H   0  0  0  0  0  0
  -23.9144  -30.3913   19.3700 H   0  0  0  0  0  0
  -22.8691  -29.0968   19.8698 H   0  0  0  0  0  0
  -25.1367  -36.1658   25.0720 H   0  0  0  0  0  0
  -21.0000  -28.3410   24.1310 H   0  0  0  0  0  0
  -20.5674  -26.2400   23.3661 H   0  0  0  0  0  0
  -21.6656  -26.7391   22.1252 H   0  0  0  0  0  0
  -19.6971  -25.6238   21.1283 H   0  0  0  0  0  0
  -19.6758  -27.3148   20.6749 H   0  0  0  0  0  0
  -17.4229  -26.6648   21.3998 H   0  0  0  0  0  0
  -18.0366  -26.0100   22.9051 H   0  0  0  0  0  0
  -19.7961  -30.7284   24.2207 H   0  0  0  0  0  0
  -17.5042  -31.6303   24.5060 H   0  0  0  0  0  0
  -15.5380  -30.2915   23.7763 H   0  0  0  0  0  0
  -15.8674  -28.0738   22.7188 H   0  0  0  0  0  0
  -24.5857  -30.7205   25.7424 H   0  0  0  0  0  0
  -24.8913  -32.3030   26.4427 H   0  0  0  0  0  0
  -25.7812  -30.9011   27.0036 H   0  0  0  0  0  0
  -26.3165  -29.6448   24.1315 H   0  0  0  0  0  0
  -27.3866  -29.7154   25.5133 H   0  0  0  0  0  0
  -27.9222  -30.3882   23.9939 H   0  0  0  0  0  0
  -27.2689  -33.3591   26.1878 H   0  0  0  0  0  0
  -28.4012  -32.6653   25.0285 H   0  0  0  0  0  0
  -28.0706  -31.8380   26.5384 H   0  0  0  0  0  0
  -28.2454  -38.0146   24.7725 H   0  0  0  0  0  0
  -28.1286  -36.2692   24.5938 H   0  0  0  0  0  0
  -27.2384  -37.0956   25.8809 H   0  0  0  0  0  0
  -20.9779  -29.8496   21.6405 H   0  0  0  0  0  0
  -26.0137  -38.2685   24.1537 H   0  0  0  0  0  0
  -32.5015  -20.7718   21.2007 H   0  0  0  0  0  0
  -31.8725  -18.4567   21.0190 H   0  0  0  0  0  0
  -31.0675  -22.6964   20.8537 H   0  0  0  0  0  0
  -27.8415  -19.8419   20.0925 H   0  0  0  0  0  0
  -28.6585  -16.7721   20.7622 H   0  0  0  0  0  0
  1 25  1  0  0  0
  1 30  2  0  0  0
  1 77  1  0  0  0
  2  3  1  0  0  0
  2 25  1  0  0  0
  2 81  1  0  0  0
  2 82  1  0  0  0
  3  4  1  0  0  0
  3 83  1  0  0  0
  3 84  1  0  0  0
  4  5  1  0  0  0
  4 85  1  0  0  0
  4 86  1  0  0  0
  5  6  1  0  0  0
  5 26  1  0  0  0
  5 87  1  0  0  0
  6 25  1  0  0  0
  6 88  1  0  0  0
  6 89  1  0  0  0
  7  8  2  0  0  0
  7 26  1  0  0  0
  7 29  1  0  0  0
  8  9  1  0  0  0
  8 22  1  0  0  0
  9 10  1  0  0  0
  9 27  2  0  0  0
 10 11  2  0  0  0
 10 15  1  0  0  0
 11 12  1  0  0  0
 11 90  1  0  0  0
 12 13  2  0  0  0
 12 91  1  0  0  0
 13 14  1  0  0  0
 13 31  1  0  0  0
 14 15  2  0  0  0
 14 92  1  0  0  0
 15 93  1  0  0  0
 16 17  2  0  0  0
 16 21  1  0  0  0
 16 31  1  0  0  0
 17 18  1  0  0  0
 17 94  1  0  0  0
 18 19  2  0  0  0
 18 95  1  0  0  0
 19 20  1  0  0  0
 19 24  1  0  0  0
 20 21  2  0  0  0
 20 96  1  0  0  0
 21 23  1  0  0  0
 22 28  1  0  0  0
 22 32  2  0  0  0
 26 27  1  0  0  0
 28 97  1  0  0  0
 28 98  1  0  0  0
 29 99  1  0  0  0
 29100  1  0  0  0
 33 34  1  0  0  0
 33 66  1  0  0  0
 33 70  2  0  0  0
 34 36  1  0  0  0
 34 59  1  0  0  0
 34101  1  0  0  0
 35 44  2  0  0  0
 35 45  1  0  0  0
 35 68  1  0  0  0
 36 56  1  0  0  0
 36102  1  0  0  0
 37 39  1  0  0  0
 37 47  1  0  0  0
 37 66  1  0  0  0
 37103  1  0  0  0
 38 43  2  0  0  0
 38 46  1  0  0  0
 38 47  1  0  0  0
 39 64  1  0  0  0
 39 67  2  0  0  0
 40 52  1  0  0  0
 40 53  2  0  0  0
 40 58  1  0  0  0
 41104  1  0  0  0
 41105  1  0  0  0
 41106  1  0  0  0
 41 48  1  0  0  0
 42 43  1  0  0  0
 42 66  1  0  0  0
 42107  1  0  0  0
 42108  1  0  0  0
 43 44  1  0  0  0
 44109  1  0  0  0
 45 46  2  0  0  0
 45110  1  0  0  0
 46111  1  0  0  0
 47112  1  0  0  0
 47113  1  0  0  0
 48 56  1  0  0  0
 48 65  1  0  0  0
 48114  1  0  0  0
 49 50  1  0  0  0
 49 53  1  0  0  0
 49 64  1  0  0  0
 49115  1  0  0  0
 50 51  1  0  0  0
 50116  1  0  0  0
 50117  1  0  0  0
 51 52  1  0  0  0
 51118  1  0  0  0
 51119  1  0  0  0
 52120  1  0  0  0
 52121  1  0  0  0
 53 54  1  0  0  0
 54 55  2  0  0  0
 54122  1  0  0  0
 55 57  1  0  0  0
 55123  1  0  0  0
 56 69  2  0  0  0
 57 58  2  0  0  0
 57124  1  0  0  0
 58125  1  0  0  0
 59 60  1  0  0  0
 59 61  1  0  0  0
 59 62  1  0  0  0
 60126  1  0  0  0
 60127  1  0  0  0
 60128  1  0  0  0
 61129  1  0  0  0
 61130  1  0  0  0
 61131  1  0  0  0
 62132  1  0  0  0
 62133  1  0  0  0
 62134  1  0  0  0
 63 65  1  0  0  0
 63135  1  0  0  0
 63136  1  0  0  0
 63137  1  0  0  0
 64138  1  0  0  0
 65139  1  0  0  0
 68 80  1  0  0  0
 71 72  2  0  0  0
 71 73  1  0  0  0
 71140  1  0  0  0
 72 75  1  0  0  0
 72141  1  0  0  0
 73 76  2  0  0  0
 73142  1  0  0  0
 74 75  2  0  0  0
 74 76  1  0  0  0
 74143  1  0  0  0
 75 77  1  0  0  0
 76 80  1  0  0  0
 77144  1  0  0  0
 78 80  2  0  0  0
 79 80  2  0  0  0
M  ISO  4   1 100  68 101  77 100  80 101
M  END
> <chiral flag>
0

> <version>
0

> <s_m_source_file>
/data/baiqing/PycharmProjects/Reinvent-master-3.2/result/LINK_invent/BTK/process_docking_weight1_custom_sum_contain_oxygen_bond_distance_aromatic_linkinvent_7_9_3/rearranged_h_0008.sdf

> <i_m_source_file_index>
97

> <r_mmod_Potential_Energy-OPLS-2005>
2383.099609375

> <r_mmod_Stretch_Energy-OPLS-2005>
1085.94714355469

> <r_mmod_Bend_Energy-OPLS-2005>
651.411010742188

> <r_mmod_Torsional_Energy-OPLS-2005>
215.241439819336

> <r_mmod_Improper_Torsional_Energy-OPLS-2005>
4.90905618667603

> <r_mmod_Van_der_Waal_Energy-OPLS-2005>
120.68310546875

> <r_mmod_Electrostatic_Energy-OPLS-2005>
-317.241241455078

> <r_mmod_Solvation_Energy-OPLS-2005>
-262.253112792969

> <b_mmod_Minimization_Converged-OPLS-2005>
0

> <r_mmod_RMS_Derivative-OPLS-2005>
16.690845489502

$$$$
