0
                    3D
 Structure written by MMmdl.
150158  0  0  1  0            999 V2000
  -30.2987  -15.5999   20.3302 C   0  0  0  0  0  0
  -30.4325  -13.0510   19.5424 C   0  0  0  0  0  0
  -29.5539  -12.6478   18.3231 C   0  0  0  0  0  0
  -28.1244  -12.2968   18.7642 C   0  0  0  0  0  0
  -27.6004  -13.3023   19.8146 C   0  0  2  0  0  0
  -28.6176  -13.6134   20.9375 C   0  0  0  0  0  0
  -25.2343  -13.8272   20.5777 C   0  0  0  0  0  0
  -24.1725  -13.0430   20.9281 C   0  0  0  0  0  0
  -24.6416  -11.6939   20.8757 C   0  0  0  0  0  0
  -23.9114  -10.4289   21.0395 C   0  0  0  0  0  0
  -24.3650   -9.4203   21.9178 C   0  0  0  0  0  0
  -23.6310   -8.2245   22.0755 C   0  0  0  0  0  0
  -22.4290   -8.0286   21.3545 C   0  0  0  0  0  0
  -21.9937   -9.0261   20.4645 C   0  0  0  0  0  0
  -22.7280  -10.2131   20.3048 C   0  0  0  0  0  0
  -21.6859   -6.0739   22.5280 C   0  0  0  0  0  0
  -21.4018   -6.5642   23.8214 C   0  0  0  0  0  0
  -21.3659   -5.6793   24.9175 C   0  0  0  0  0  0
  -21.6042   -4.3056   24.7225 C   0  0  0  0  0  0
  -21.8818   -3.8148   23.4346 C   0  0  0  0  0  0
  -21.9195   -4.6966   22.3402 C   0  0  0  0  0  0
  -22.7738  -13.5170   21.1913 C   0  0  0  0  0  0
  -22.1662   -4.2152   21.0980 F   0  0  0  0  0  0
  -21.5627   -3.4539   25.7737 F   0  0  0  0  0  0
  -29.8010  -14.2267   20.2922 N   0  0  0  0  0  0
  -26.2789  -12.9593   20.3218 N   0  0  0  0  0  0
  -25.9362  -11.6670   20.5693 N   0  0  0  0  0  0
  -22.0398  -12.8147   22.0463 N   0  0  0  0  0  0
  -25.3931  -15.2011   20.4206 N   0  0  0  0  0  0
  -31.5299  -15.5721   20.1400 O   0  0  0  0  0  0
  -21.6646   -6.8887   21.4244 O   0  0  0  0  0  0
  -22.3414  -14.5465   20.6747 O   0  0  0  0  0  0
  -24.6833  -31.8001   23.1519 C   0  0  0  0  0  0
  -25.9415  -32.4466   23.8065 C   0  0  1  0  0  0
  -27.2275  -26.7102   20.2125 C   0  0  0  0  0  0
  -25.5999  -33.8291   24.1956 N   0  0  0  0  0  0
  -23.5090  -30.4019   21.5058 C   0  0  2  0  0  0
  -24.9672  -28.7453   20.1175 C   0  0  0  0  0  0
  -22.7765  -29.4309   22.4712 C   0  0  0  0  0  0
  -18.0340  -28.1410   22.8456 C   0  0  0  0  0  0
  -24.1493  -36.7152   23.2653 C   0  0  0  0  0  0
  -26.0892  -30.5356   21.4149 C   0  0  0  0  0  0
  -26.1560  -29.1011   20.7656 C   0  0  0  0  0  0
  -27.2716  -28.1112   20.7812 C   0  0  0  0  0  0
  -26.0066  -26.5638   19.5058 C   0  0  0  0  0  0
  -24.9315  -27.5021   19.4633 C   0  0  0  0  0  0
  -23.7624  -29.6987   20.1412 C   0  0  0  0  0  0
  -25.4141  -36.2891   24.0284 C   0  0  1  0  0  0
  -20.5976  -28.3770   23.1138 C   0  0  2  0  0  0
  -20.6801  -26.9430   22.5394 C   0  0  0  0  0  0
  -19.5778  -26.6365   21.5204 C   0  0  0  0  0  0
  -18.1963  -26.7941   22.1611 C   0  0  0  0  0  0
  -19.1607  -28.8914   23.2778 C   0  0  0  0  0  0
  -18.9512  -30.1500   23.8817 C   0  0  0  0  0  0
  -17.6502  -30.6594   24.0544 C   0  0  0  0  0  0
  -25.9123  -34.9283   23.4957 C   0  0  0  0  0  0
  -16.5392  -29.9075   23.6347 C   0  0  0  0  0  0
  -16.7320  -28.6497   23.0366 C   0  0  0  0  0  0
  -26.4598  -31.6499   25.0683 C   0  0  0  0  0  0
  -25.3670  -31.3803   26.1300 C   0  0  0  0  0  0
  -27.0538  -30.2843   24.6573 C   0  0  0  0  0  0
  -27.6046  -32.4364   25.7497 C   0  0  0  0  0  0
  -27.5563  -37.1728   24.8467 C   0  0  0  0  0  0
  -21.4412  -29.3022   22.3462 N   0  0  0  0  0  0
  -26.4266  -37.3653   23.9414 N   0  0  0  0  0  0
  -24.7838  -30.9453   22.0767 N   0  0  0  0  0  0
  -23.4211  -28.7906   23.3051 O   0  0  0  0  0  0
  -28.1795  -25.4852   20.2972 O   0  0  0  0  0  0
  -26.5759  -34.8859   22.4570 O   0  0  0  0  0  0
  -23.5852  -32.1072   23.6476 O   0  0  0  0  0  0
  -28.8504  -21.0451   19.1805 C   0  0  0  0  0  0
  -28.6351  -22.0626   20.2488 C   0  0  0  0  0  0
  -28.8557  -21.1448   21.4104 C   0  0  0  0  0  0
  -29.1904  -19.6332   21.4581 C   0  0  0  0  0  0
  -29.4006  -18.6333   20.3602 C   0  0  0  0  0  0
  -29.1794  -19.5525   19.2116 C   0  0  0  0  0  0
  -28.6608  -21.8346   22.7546 C   0  0  0  0  0  0
  -29.2945  -19.0154   22.8477 C   0  0  0  0  0  0
  -27.8807  -23.7722   20.0980 C   0  0  0  0  0  0
  -29.4735  -16.9113   20.4216 N   0  0  0  0  0  0
  -29.2417  -18.7896   17.6641 Cl  0  0  0  0  0  0
  -31.4281  -13.3124   19.1818 H   0  0  0  0  0  0
  -30.5862  -12.1989   20.2069 H   0  0  0  0  0  0
  -30.0015  -11.8084   17.7892 H   0  0  0  0  0  0
  -29.5202  -13.4782   17.6165 H   0  0  0  0  0  0
  -28.1467  -11.2970   19.1996 H   0  0  0  0  0  0
  -27.4556  -12.2436   17.9046 H   0  0  0  0  0  0
  -27.4705  -14.2288   19.2535 H   0  0  0  0  0  0
  -28.8670  -12.7224   21.5156 H   0  0  0  0  0  0
  -28.1913  -14.3281   21.6430 H   0  0  0  0  0  0
  -25.2790   -9.5677   22.4761 H   0  0  0  0  0  0
  -24.0010   -7.4639   22.7483 H   0  0  0  0  0  0
  -21.0867   -8.8786   19.8955 H   0  0  0  0  0  0
  -22.3737  -10.9671   19.6160 H   0  0  0  0  0  0
  -21.2011   -7.6150   23.9719 H   0  0  0  0  0  0
  -21.1482   -6.0523   25.9078 H   0  0  0  0  0  0
  -22.0595   -2.7611   23.2846 H   0  0  0  0  0  0
  -22.4036  -11.9826   22.4863 H   0  0  0  0  0  0
  -21.1004  -13.1147   22.2654 H   0  0  0  0  0  0
  -24.6156  -15.8439   20.5256 H   0  0  0  0  0  0
  -26.2210  -15.6413   20.0426 H   0  0  0  0  0  0
  -26.7498  -32.4942   23.0778 H   0  0  0  0  0  0
  -25.0073  -33.9330   25.0060 H   0  0  0  0  0  0
  -22.8332  -31.2386   21.3163 H   0  0  0  0  0  0
  -23.3773  -35.9462   23.3257 H   0  0  0  0  0  0
  -24.3568  -36.8875   22.2080 H   0  0  0  0  0  0
  -23.7238  -37.6308   23.6770 H   0  0  0  0  0  0
  -26.2895  -31.2595   20.6240 H   0  0  0  0  0  0
  -26.9411  -30.6047   22.0789 H   0  0  0  0  0  0
  -28.1650  -28.3890   21.3226 H   0  0  0  0  0  0
  -25.8388  -25.6223   19.0031 H   0  0  0  0  0  0
  -24.0344  -27.2213   18.9287 H   0  0  0  0  0  0
  -23.9348  -30.4580   19.3778 H   0  0  0  0  0  0
  -22.8677  -29.1630   19.8193 H   0  0  0  0  0  0
  -25.1349  -36.1647   25.0773 H   0  0  0  0  0  0
  -21.0055  -28.3387   24.1264 H   0  0  0  0  0  0
  -20.5652  -26.2392   23.3654 H   0  0  0  0  0  0
  -21.6663  -26.7367   22.1217 H   0  0  0  0  0  0
  -19.6933  -25.6257   21.1279 H   0  0  0  0  0  0
  -19.6718  -27.3132   20.6699 H   0  0  0  0  0  0
  -17.4231  -26.6685   21.4016 H   0  0  0  0  0  0
  -18.0355  -26.0093   22.9015 H   0  0  0  0  0  0
  -19.7990  -30.7336   24.2146 H   0  0  0  0  0  0
  -17.5055  -31.6266   24.5162 H   0  0  0  0  0  0
  -15.5388  -30.2948   23.7718 H   0  0  0  0  0  0
  -15.8724  -28.0788   22.7122 H   0  0  0  0  0  0
  -24.5882  -30.7124   25.7600 H   0  0  0  0  0  0
  -24.8824  -32.3015   26.4540 H   0  0  0  0  0  0
  -25.7849  -30.9088   27.0203 H   0  0  0  0  0  0
  -26.3257  -29.6453   24.1565 H   0  0  0  0  0  0
  -27.3976  -29.7289   25.5309 H   0  0  0  0  0  0
  -27.9229  -30.3980   24.0094 H   0  0  0  0  0  0
  -27.2591  -33.3745   26.1851 H   0  0  0  0  0  0
  -28.3960  -32.6801   25.0397 H   0  0  0  0  0  0
  -28.0598  -31.8645   26.5591 H   0  0  0  0  0  0
  -28.2534  -38.0066   24.7524 H   0  0  0  0  0  0
  -28.1103  -36.2587   24.6277 H   0  0  0  0  0  0
  -27.2280  -37.1341   25.8869 H   0  0  0  0  0  0
  -20.9710  -29.8693   21.6545 H   0  0  0  0  0  0
  -26.0090  -38.2696   24.1439 H   0  0  0  0  0  0
  -28.6859  -21.4310   18.1853 H   0  0  0  0  0  0
  -28.4373  -22.8955   22.6438 H   0  0  0  0  0  0
  -29.5636  -21.7653   23.3617 H   0  0  0  0  0  0
  -27.8342  -21.3875   23.3068 H   0  0  0  0  0  0
  -28.3506  -19.1031   23.3857 H   0  0  0  0  0  0
  -30.0756  -19.5035   23.4302 H   0  0  0  0  0  0
  -29.5460  -17.9561   22.8152 H   0  0  0  0  0  0
  -26.9704  -23.6490   20.6849 H   0  0  0  0  0  0
  -27.5207  -23.7441   19.0693 H   0  0  0  0  0  0
  -28.5322  -16.5831   20.5769 H   0  0  0  0  0  0
  1 25  1  0  0  0
  1 30  2  0  0  0
  1 80  1  0  0  0
  2  3  1  0  0  0
  2 25  1  0  0  0
  2 82  1  0  0  0
  2 83  1  0  0  0
  3  4  1  0  0  0
  3 84  1  0  0  0
  3 85  1  0  0  0
  4  5  1  0  0  0
  4 86  1  0  0  0
  4 87  1  0  0  0
  5  6  1  0  0  0
  5 26  1  0  0  0
  5 88  1  0  0  0
  6 25  1  0  0  0
  6 89  1  0  0  0
  6 90  1  0  0  0
  7  8  2  0  0  0
  7 26  1  0  0  0
  7 29  1  0  0  0
  8  9  1  0  0  0
  8 22  1  0  0  0
  9 10  1  0  0  0
  9 27  2  0  0  0
 10 11  2  0  0  0
 10 15  1  0  0  0
 11 12  1  0  0  0
 11 91  1  0  0  0
 12 13  2  0  0  0
 12 92  1  0  0  0
 13 14  1  0  0  0
 13 31  1  0  0  0
 14 15  2  0  0  0
 14 93  1  0  0  0
 15 94  1  0  0  0
 16 17  2  0  0  0
 16 21  1  0  0  0
 16 31  1  0  0  0
 17 18  1  0  0  0
 17 95  1  0  0  0
 18 19  2  0  0  0
 18 96  1  0  0  0
 19 20  1  0  0  0
 19 24  1  0  0  0
 20 21  2  0  0  0
 20 97  1  0  0  0
 21 23  1  0  0  0
 22 28  1  0  0  0
 22 32  2  0  0  0
 26 27  1  0  0  0
 28 98  1  0  0  0
 28 99  1  0  0  0
 29100  1  0  0  0
 29101  1  0  0  0
 33 34  1  0  0  0
 33 66  1  0  0  0
 33 70  2  0  0  0
 34 36  1  0  0  0
 34 59  1  0  0  0
 34102  1  0  0  0
 35 44  2  0  0  0
 35 45  1  0  0  0
 35 68  1  0  0  0
 36 56  1  0  0  0
 36103  1  0  0  0
 37 39  1  0  0  0
 37 47  1  0  0  0
 37 66  1  0  0  0
 37104  1  0  0  0
 38 43  2  0  0  0
 38 46  1  0  0  0
 38 47  1  0  0  0
 39 64  1  0  0  0
 39 67  2  0  0  0
 40 52  1  0  0  0
 40 53  2  0  0  0
 40 58  1  0  0  0
 41105  1  0  0  0
 41106  1  0  0  0
 41107  1  0  0  0
 41 48  1  0  0  0
 42 43  1  0  0  0
 42 66  1  0  0  0
 42108  1  0  0  0
 42109  1  0  0  0
 43 44  1  0  0  0
 44110  1  0  0  0
 45 46  2  0  0  0
 45111  1  0  0  0
 46112  1  0  0  0
 47113  1  0  0  0
 47114  1  0  0  0
 48 56  1  0  0  0
 48 65  1  0  0  0
 48115  1  0  0  0
 49 50  1  0  0  0
 49 53  1  0  0  0
 49 64  1  0  0  0
 49116  1  0  0  0
 50 51  1  0  0  0
 50117  1  0  0  0
 50118  1  0  0  0
 51 52  1  0  0  0
 51119  1  0  0  0
 51120  1  0  0  0
 52121  1  0  0  0
 52122  1  0  0  0
 53 54  1  0  0  0
 54 55  2  0  0  0
 54123  1  0  0  0
 55 57  1  0  0  0
 55124  1  0  0  0
 56 69  2  0  0  0
 57 58  2  0  0  0
 57125  1  0  0  0
 58126  1  0  0  0
 59 60  1  0  0  0
 59 61  1  0  0  0
 59 62  1  0  0  0
 60127  1  0  0  0
 60128  1  0  0  0
 60129  1  0  0  0
 61130  1  0  0  0
 61131  1  0  0  0
 61132  1  0  0  0
 62133  1  0  0  0
 62134  1  0  0  0
 62135  1  0  0  0
 63 65  1  0  0  0
 63136  1  0  0  0
 63137  1  0  0  0
 63138  1  0  0  0
 64139  1  0  0  0
 65140  1  0  0  0
 68 79  1  0  0  0
 71 72  2  0  0  0
 71 76  1  0  0  0
 71141  1  0  0  0
 72 73  1  0  0  0
 72 79  1  0  0  0
 73 74  2  0  0  0
 73 77  1  0  0  0
 74 75  1  0  0  0
 74 78  1  0  0  0
 75 76  2  0  0  0
 75 80  1  0  0  0
 76 81  1  0  0  0
 77142  1  0  0  0
 77143  1  0  0  0
 77144  1  0  0  0
 78145  1  0  0  0
 78146  1  0  0  0
 78147  1  0  0  0
 79148  1  0  0  0
 79149  1  0  0  0
 80150  1  0  0  0
M  ISO  4   1 100  68 101  79 101  80 100
M  END
> <chiral flag>
0

> <version>
0

> <s_m_source_file>
/data/baiqing/PycharmProjects/Reinvent-master-3.2/result/LINK_invent/BTK/process_docking_weight1_custom_sum_contain_oxygen_bond_distance_aromatic_linkinvent_7_9_3/rearranged_h_0018.sdf

> <i_m_source_file_index>
1

> <r_mmod_Potential_Energy-OPLS-2005>
2242.86181640625

> <r_mmod_Stretch_Energy-OPLS-2005>
925.987121582031

> <r_mmod_Bend_Energy-OPLS-2005>
643.132385253906

> <r_mmod_Torsional_Energy-OPLS-2005>
261.262512207031

> <r_mmod_Improper_Torsional_Energy-OPLS-2005>
10.1135129928589

> <r_mmod_Van_der_Waal_Energy-OPLS-2005>
133.164199829102

> <r_mmod_Electrostatic_Energy-OPLS-2005>
-389.537384033203

> <r_mmod_Solvation_Energy-OPLS-2005>
-211.866989135742

> <b_mmod_Minimization_Converged-OPLS-2005>
0

> <r_mmod_RMS_Derivative-OPLS-2005>
0.545438408851624

$$$$
1
                    3D
 Structure written by MMmdl.
174182  0  0  1  0            999 V2000
  -30.9261  -14.4050   20.4987 C   0  0  0  0  0  0
  -30.4013  -12.2804   19.4742 C   0  0  0  0  0  0
  -29.5463  -12.4574   18.2102 C   0  0  0  0  0  0
  -28.0405  -12.6365   18.5275 C   0  0  0  0  0  0
  -27.7261  -12.7768   20.0361 C   0  0  2  0  0  0
  -28.7564  -13.2907   21.0493 C   0  0  0  0  0  0
  -25.3014  -13.7437   20.5901 C   0  0  0  0  0  0
  -24.1891  -13.0286   20.9209 C   0  0  0  0  0  0
  -24.5779  -11.6570   20.8922 C   0  0  0  0  0  0
  -23.8509  -10.4149   21.0612 C   0  0  0  0  0  0
  -24.3261   -9.4062   21.9298 C   0  0  0  0  0  0
  -23.6073   -8.2028   22.0776 C   0  0  0  0  0  0
  -22.4082   -8.0063   21.3523 C   0  0  0  0  0  0
  -21.9620   -9.0027   20.4646 C   0  0  0  0  0  0
  -22.6793  -10.1962   20.3156 C   0  0  0  0  0  0
  -21.6721   -6.0627   22.5318 C   0  0  0  0  0  0
  -21.3906   -6.5596   23.8235 C   0  0  0  0  0  0
  -21.3645   -5.6774   24.9222 C   0  0  0  0  0  0
  -21.6027   -4.3042   24.7269 C   0  0  0  0  0  0
  -21.8809   -3.8098   23.4415 C   0  0  0  0  0  0
  -21.9156   -4.6885   22.3441 C   0  0  0  0  0  0
  -22.7979  -13.5424   21.1713 C   0  0  0  0  0  0
  -22.1636   -4.2061   21.1012 F   0  0  0  0  0  0
  -21.5636   -3.4562   25.7810 F   0  0  0  0  0  0
  -30.0671  -13.3746   20.3952 N   0  0  0  0  0  0
  -26.3153  -12.7937   20.4063 N   0  0  0  0  0  0
  -25.8442  -11.5538   20.6070 N   0  0  0  0  0  0
  -22.0497  -12.8538   22.0176 N   0  0  0  0  0  0
  -25.5144  -15.1072   20.4429 N   0  0  0  0  0  0
  -32.0399  -14.4297   19.9948 O   0  0  0  0  0  0
  -21.6449   -6.8703   21.4255 O   0  0  0  0  0  0
  -22.3847  -14.5789   20.6453 O   0  0  0  0  0  0
  -24.6049  -31.8747   23.2157 C   0  0  0  0  0  0
  -25.8966  -32.4864   23.8448 C   0  0  1  0  0  0
  -27.2314  -27.5050   20.0528 C   0  0  0  0  0  0
  -25.5848  -33.8663   24.2390 N   0  0  0  0  0  0
  -23.3880  -30.4998   21.5585 C   0  0  2  0  0  0
  -24.8256  -28.9677   20.1213 C   0  0  0  0  0  0
  -22.7361  -29.4696   22.5049 C   0  0  0  0  0  0
  -18.0270  -28.1362   22.8509 C   0  0  0  0  0  0
  -24.1482  -36.7359   23.2649 C   0  0  0  0  0  0
  -25.9084  -30.8545   21.3581 C   0  0  0  0  0  0
  -25.9815  -29.4899   20.7128 C   0  0  0  0  0  0
  -27.1808  -28.7610   20.6820 C   0  0  0  0  0  0
  -26.0590  -26.9725   19.4669 C   0  0  0  0  0  0
  -24.8555  -27.7029   19.5080 C   0  0  0  0  0  0
  -23.5851  -29.8286   20.1719 C   0  0  0  0  0  0
  -25.4100  -36.3164   24.0360 C   0  0  1  0  0  0
  -20.5847  -28.3623   23.1350 C   0  0  2  0  0  0
  -20.6759  -26.9370   22.5423 C   0  0  0  0  0  0
  -19.5750  -26.6360   21.5224 C   0  0  0  0  0  0
  -18.1924  -26.7905   22.1630 C   0  0  0  0  0  0
  -19.1517  -28.8820   23.2923 C   0  0  0  0  0  0
  -18.9445  -30.1427   23.8925 C   0  0  0  0  0  0
  -17.6453  -30.6574   24.0560 C   0  0  0  0  0  0
  -25.9005  -34.9507   23.5171 C   0  0  0  0  0  0
  -16.5346  -29.9083   23.6319 C   0  0  0  0  0  0
  -16.7261  -28.6496   23.0347 C   0  0  0  0  0  0
  -26.4424  -31.6641   25.0769 C   0  0  0  0  0  0
  -25.3718  -31.3720   26.1548 C   0  0  0  0  0  0
  -27.0224  -30.3103   24.6053 C   0  0  0  0  0  0
  -27.6000  -32.4375   25.7515 C   0  0  0  0  0  0
  -27.5583  -37.1862   24.8480 C   0  0  0  0  0  0
  -21.4101  -29.3029   22.3790 N   0  0  0  0  0  0
  -26.4318  -37.3821   23.9379 N   0  0  0  0  0  0
  -24.6529  -31.0900   22.1036 N   0  0  0  0  0  0
  -23.4194  -28.8247   23.3060 O   0  0  0  0  0  0
  -28.4684  -26.9250   20.0204 O   0  0  0  0  0  0
  -26.5572  -34.8949   22.4741 O   0  0  0  0  0  0
  -23.5268  -32.1456   23.7622 O   0  0  0  0  0  0
  -28.4067  -16.3003   19.8244 C   0  0  0  0  0  0
  -29.6323  -16.4397   20.5178 C   0  0  0  0  0  0
  -29.9077  -17.7558   20.4626 C   0  0  0  0  0  0
  -31.3067  -18.2959   20.4217 C   0  0  0  0  0  0
  -29.6020  -19.5406   23.1944 C   0  0  0  0  0  0
  -27.2694  -20.3928   19.9958 C   0  0  0  0  0  0
  -26.8741  -18.9659   21.9710 C   0  0  0  0  0  0
  -30.9160  -22.9718   22.6323 C   0  0  0  0  0  0
  -29.5262  -24.9975   20.7562 C   0  0  0  0  0  0
  -29.9701  -23.5632   20.4252 C   0  0  0  0  0  0
  -30.0199  -21.1926   21.1860 C   0  0  0  0  0  0
  -28.6486  -25.5781   19.6511 C   0  0  0  0  0  0
  -28.9912  -20.3228   21.9758 C   0  0  1  0  0  0
  -28.0113  -19.5031   21.0415 C   0  0  0  0  0  0
  -27.8055  -17.4715   19.7673 N   0  0  0  0  0  0
  -28.6468  -18.3521   20.3685 N   0  0  0  0  0  0
  -30.5461  -15.5235   21.0715 N   0  0  0  0  0  0
  -29.9383  -22.6248   21.5807 N   0  3  1  0  0  0
  -31.4629  -12.2412   19.2084 H   0  0  0  0  0  0
  -30.1837  -11.3358   19.9735 H   0  0  0  0  0  0
  -29.6992  -11.5959   17.5610 H   0  0  0  0  0  0
  -29.9166  -13.3139   17.6459 H   0  0  0  0  0  0
  -27.5176  -11.7558   18.1462 H   0  0  0  0  0  0
  -27.6310  -13.4792   17.9622 H   0  0  0  0  0  0
  -27.9979  -11.7403   20.2496 H   0  0  0  0  0  0
  -28.4121  -14.2251   21.4863 H   0  0  0  0  0  0
  -28.8630  -12.6158   21.8999 H   0  0  0  0  0  0
  -25.2388   -9.5500   22.4918 H   0  0  0  0  0  0
  -23.9741   -7.4392   22.7500 H   0  0  0  0  0  0
  -21.0516   -8.8525   19.9009 H   0  0  0  0  0  0
  -22.3267  -10.9552   19.6319 H   0  0  0  0  0  0
  -21.1850   -7.6096   23.9711 H   0  0  0  0  0  0
  -21.1530   -6.0520   25.9131 H   0  0  0  0  0  0
  -22.0615   -2.7578   23.2947 H   0  0  0  0  0  0
  -22.4004  -12.0140   22.4630 H   0  0  0  0  0  0
  -21.1258  -13.1861   22.2568 H   0  0  0  0  0  0
  -24.7921  -15.7847   20.6579 H   0  0  0  0  0  0
  -26.3775  -15.5409   20.1592 H   0  0  0  0  0  0
  -26.7058  -32.5610   23.1237 H   0  0  0  0  0  0
  -24.9992  -33.9838   25.0534 H   0  0  0  0  0  0
  -22.6761  -31.3144   21.4231 H   0  0  0  0  0  0
  -23.3723  -35.9721   23.3379 H   0  0  0  0  0  0
  -24.3559  -36.8889   22.2049 H   0  0  0  0  0  0
  -23.7266  -37.6607   23.6600 H   0  0  0  0  0  0
  -26.0073  -31.6167   20.5826 H   0  0  0  0  0  0
  -26.8038  -30.9158   21.9630 H   0  0  0  0  0  0
  -28.0818  -29.1684   21.1213 H   0  0  0  0  0  0
  -26.0447  -26.0304   18.9403 H   0  0  0  0  0  0
  -23.9614  -27.3033   19.0461 H   0  0  0  0  0  0
  -23.6845  -30.5970   19.4047 H   0  0  0  0  0  0
  -22.7108  -29.2373   19.8890 H   0  0  0  0  0  0
  -25.1288  -36.2079   25.0864 H   0  0  0  0  0  0
  -20.9951  -28.3184   24.1471 H   0  0  0  0  0  0
  -20.5664  -26.2243   23.3608 H   0  0  0  0  0  0
  -21.6629  -26.7428   22.1228 H   0  0  0  0  0  0
  -19.6889  -25.6279   21.1252 H   0  0  0  0  0  0
  -19.6669  -27.3176   20.6771 H   0  0  0  0  0  0
  -17.4186  -26.6663   21.4030 H   0  0  0  0  0  0
  -18.0304  -26.0035   22.9020 H   0  0  0  0  0  0
  -19.7913  -30.7228   24.2303 H   0  0  0  0  0  0
  -17.5003  -31.6251   24.5155 H   0  0  0  0  0  0
  -15.5347  -30.2989   23.7607 H   0  0  0  0  0  0
  -15.8658  -28.0809   22.7051 H   0  0  0  0  0  0
  -24.5846  -30.7110   25.7914 H   0  0  0  0  0  0
  -24.8954  -32.2863   26.5096 H   0  0  0  0  0  0
  -25.8100  -30.8832   27.0250 H   0  0  0  0  0  0
  -26.2718  -29.6911   24.1110 H   0  0  0  0  0  0
  -27.4040  -29.7303   25.4464 H   0  0  0  0  0  0
  -27.8549  -30.4480   23.9140 H   0  0  0  0  0  0
  -27.2579  -33.3616   26.2182 H   0  0  0  0  0  0
  -28.3733  -32.7032   25.0303 H   0  0  0  0  0  0
  -28.0737  -31.8458   26.5349 H   0  0  0  0  0  0
  -28.2694  -38.0070   24.7422 H   0  0  0  0  0  0
  -28.0984  -36.2602   24.6450 H   0  0  0  0  0  0
  -27.2278  -37.1706   25.8882 H   0  0  0  0  0  0
  -20.9258  -29.8742   21.6989 H   0  0  0  0  0  0
  -26.0240  -38.2941   24.1264 H   0  0  0  0  0  0
  -27.8689  -15.4501   19.4398 H   0  0  0  0  0  0
  -31.9969  -17.5023   20.1173 H   0  0  0  0  0  0
  -31.6853  -18.6223   21.3805 H   0  0  0  0  0  0
  -31.4492  -19.0213   19.6233 H   0  0  0  0  0  0
  -29.9306  -20.2245   23.9751 H   0  0  0  0  0  0
  -30.4482  -18.9025   22.9599 H   0  0  0  0  0  0
  -28.8884  -18.8935   23.7017 H   0  0  0  0  0  0
  -27.9066  -20.7280   19.1769 H   0  0  0  0  0  0
  -26.8404  -21.2813   20.4546 H   0  0  0  0  0  0
  -26.4391  -19.8686   19.5146 H   0  0  0  0  0  0
  -26.5395  -19.7295   22.6706 H   0  0  0  0  0  0
  -27.1971  -18.1141   22.5717 H   0  0  0  0  0  0
  -25.9716  -18.6657   21.4331 H   0  0  0  0  0  0
  -30.7590  -23.9972   22.9605 H   0  0  0  0  0  0
  -31.9404  -22.8748   22.2770 H   0  0  0  0  0  0
  -30.8039  -22.3490   23.5186 H   0  0  0  0  0  0
  -30.3982  -25.6447   20.8746 H   0  0  0  0  0  0
  -28.9710  -25.0629   21.6939 H   0  0  0  0  0  0
  -30.9636  -23.5960   19.9800 H   0  0  0  0  0  0
  -29.2917  -23.1954   19.6566 H   0  0  0  0  0  0
  -29.7595  -21.1103   20.1368 H   0  0  0  0  0  0
  -31.0544  -20.8408   21.2229 H   0  0  0  0  0  0
  -27.7422  -24.9944   19.5546 H   0  0  0  0  0  0
  -29.1699  -25.5342   18.6968 H   0  0  0  0  0  0
  -28.3423  -21.0429   22.4819 H   0  0  0  0  0  0
  -31.4098  -16.0002   21.2776 H   0  0  0  0  0  0
  -29.0202  -22.7193   21.9886 H   0  0  0  0  0  0
  1 25  1  0  0  0
  1 30  2  0  0  0
  1 87  1  0  0  0
  2  3  1  0  0  0
  2 25  1  0  0  0
  2 89  1  0  0  0
  2 90  1  0  0  0
  3  4  1  0  0  0
  3 91  1  0  0  0
  3 92  1  0  0  0
  4  5  1  0  0  0
  4 93  1  0  0  0
  4 94  1  0  0  0
  5  6  1  0  0  0
  5 26  1  0  0  0
  5 95  1  0  0  0
  6 25  1  0  0  0
  6 96  1  0  0  0
  6 97  1  0  0  0
  7  8  2  0  0  0
  7 26  1  0  0  0
  7 29  1  0  0  0
  8  9  1  0  0  0
  8 22  1  0  0  0
  9 10  1  0  0  0
  9 27  2  0  0  0
 10 11  2  0  0  0
 10 15  1  0  0  0
 11 12  1  0  0  0
 11 98  1  0  0  0
 12 13  2  0  0  0
 12 99  1  0  0  0
 13 14  1  0  0  0
 13 31  1  0  0  0
 14 15  2  0  0  0
 14100  1  0  0  0
 15101  1  0  0  0
 16 17  2  0  0  0
 16 21  1  0  0  0
 16 31  1  0  0  0
 17 18  1  0  0  0
 17102  1  0  0  0
 18 19  2  0  0  0
 18103  1  0  0  0
 19 20  1  0  0  0
 19 24  1  0  0  0
 20 21  2  0  0  0
 20104  1  0  0  0
 21 23  1  0  0  0
 22 28  1  0  0  0
 22 32  2  0  0  0
 26 27  1  0  0  0
 28105  1  0  0  0
 28106  1  0  0  0
 29107  1  0  0  0
 29108  1  0  0  0
 33 34  1  0  0  0
 33 66  1  0  0  0
 33 70  2  0  0  0
 34 36  1  0  0  0
 34 59  1  0  0  0
 34109  1  0  0  0
 35 44  2  0  0  0
 35 45  1  0  0  0
 35 68  1  0  0  0
 36 56  1  0  0  0
 36110  1  0  0  0
 37 39  1  0  0  0
 37 47  1  0  0  0
 37 66  1  0  0  0
 37111  1  0  0  0
 38 43  2  0  0  0
 38 46  1  0  0  0
 38 47  1  0  0  0
 39 64  1  0  0  0
 39 67  2  0  0  0
 40 52  1  0  0  0
 40 53  2  0  0  0
 40 58  1  0  0  0
 41112  1  0  0  0
 41113  1  0  0  0
 41114  1  0  0  0
 41 48  1  0  0  0
 42 43  1  0  0  0
 42 66  1  0  0  0
 42115  1  0  0  0
 42116  1  0  0  0
 43 44  1  0  0  0
 44117  1  0  0  0
 45 46  2  0  0  0
 45118  1  0  0  0
 46119  1  0  0  0
 47120  1  0  0  0
 47121  1  0  0  0
 48 56  1  0  0  0
 48 65  1  0  0  0
 48122  1  0  0  0
 49 50  1  0  0  0
 49 53  1  0  0  0
 49 64  1  0  0  0
 49123  1  0  0  0
 50 51  1  0  0  0
 50124  1  0  0  0
 50125  1  0  0  0
 51 52  1  0  0  0
 51126  1  0  0  0
 51127  1  0  0  0
 52128  1  0  0  0
 52129  1  0  0  0
 53 54  1  0  0  0
 54 55  2  0  0  0
 54130  1  0  0  0
 55 57  1  0  0  0
 55131  1  0  0  0
 56 69  2  0  0  0
 57 58  2  0  0  0
 57132  1  0  0  0
 58133  1  0  0  0
 59 60  1  0  0  0
 59 61  1  0  0  0
 59 62  1  0  0  0
 60134  1  0  0  0
 60135  1  0  0  0
 60136  1  0  0  0
 61137  1  0  0  0
 61138  1  0  0  0
 61139  1  0  0  0
 62140  1  0  0  0
 62141  1  0  0  0
 62142  1  0  0  0
 63 65  1  0  0  0
 63143  1  0  0  0
 63144  1  0  0  0
 63145  1  0  0  0
 64146  1  0  0  0
 65147  1  0  0  0
 68 82  1  0  0  0
 71 72  1  0  0  0
 71 85  2  0  0  0
 71148  1  0  0  0
 72 73  2  0  0  0
 72 87  1  0  0  0
 73 74  1  0  0  0
 73 86  1  0  0  0
 74149  1  0  0  0
 74150  1  0  0  0
 74151  1  0  0  0
 75152  1  0  0  0
 75153  1  0  0  0
 75154  1  0  0  0
 75 83  1  0  0  0
 76155  1  0  0  0
 76156  1  0  0  0
 76157  1  0  0  0
 76 84  1  0  0  0
 77 84  1  0  0  0
 77158  1  0  0  0
 77159  1  0  0  0
 77160  1  0  0  0
 78161  1  0  0  0
 78162  1  0  0  0
 78163  1  0  0  0
 78 88  1  0  0  0
 79 80  1  0  0  0
 79 82  1  0  0  0
 79164  1  0  0  0
 79165  1  0  0  0
 80 88  1  0  0  0
 80166  1  0  0  0
 80167  1  0  0  0
 81 83  1  0  0  0
 81 88  1  0  0  0
 81168  1  0  0  0
 81169  1  0  0  0
 82170  1  0  0  0
 82171  1  0  0  0
 83 84  1  0  0  0
 83172  1  0  0  0
 84 86  1  0  0  0
 85 86  1  0  0  0
 87173  1  0  0  0
 88174  1  0  0  0
M  CHG  1  88   1
M  ISO  4   1 100  68 101  82 101  87 100
M  END
> <chiral flag>
0

> <version>
0

> <s_m_source_file>
/data/baiqing/PycharmProjects/Reinvent-master-3.2/result/LINK_invent/BTK/process_docking_weight1_custom_sum_contain_oxygen_bond_distance_aromatic_linkinvent_7_9_3/rearranged_h_0018.sdf

> <i_m_source_file_index>
2

> <r_mmod_Potential_Energy-OPLS-2005>
251.460968017578

> <r_mmod_Stretch_Energy-OPLS-2005>
41.8863105773926

> <r_mmod_Bend_Energy-OPLS-2005>
272.387664794922

> <r_mmod_Torsional_Energy-OPLS-2005>
422.976806640625

> <r_mmod_Improper_Torsional_Energy-OPLS-2005>
10.2947368621826

> <r_mmod_Van_der_Waal_Energy-OPLS-2005>
166.876571655273

> <r_mmod_Electrostatic_Energy-OPLS-2005>
-310.188842773438

> <r_mmod_Solvation_Energy-OPLS-2005>
-436.218566894531

> <b_mmod_Minimization_Converged-OPLS-2005>
0

> <r_mmod_RMS_Derivative-OPLS-2005>
13.9620389938354

$$$$
2
                    3D
 Structure written by MMmdl.
143150  0  0  1  0            999 V2000
  -30.1636  -16.0165   20.2837 C   0  0  0  0  0  0
  -30.4021  -13.3807   19.5097 C   0  0  0  0  0  0
  -29.5672  -12.7447   18.3499 C   0  0  0  0  0  0
  -28.1808  -12.2975   18.8321 C   0  0  0  0  0  0
  -27.5888  -13.3376   19.8001 C   0  0  2  0  0  0
  -28.5861  -13.8471   20.8777 C   0  0  0  0  0  0
  -25.2337  -13.8308   20.5832 C   0  0  0  0  0  0
  -24.1745  -13.0427   20.9297 C   0  0  0  0  0  0
  -24.6485  -11.6955   20.8763 C   0  0  0  0  0  0
  -23.9183  -10.4297   21.0405 C   0  0  0  0  0  0
  -24.3690   -9.4205   21.9200 C   0  0  0  0  0  0
  -23.6323   -8.2263   22.0773 C   0  0  0  0  0  0
  -22.4301   -8.0322   21.3557 C   0  0  0  0  0  0
  -21.9971   -9.0311   20.4658 C   0  0  0  0  0  0
  -22.7347  -10.2160   20.3056 C   0  0  0  0  0  0
  -21.6865   -6.0767   22.5277 C   0  0  0  0  0  0
  -21.4023   -6.5660   23.8211 C   0  0  0  0  0  0
  -21.3650   -5.6801   24.9170 C   0  0  0  0  0  0
  -21.6034   -4.3069   24.7210 C   0  0  0  0  0  0
  -21.8818   -3.8167   23.4328 C   0  0  0  0  0  0
  -21.9194   -4.6989   22.3390 C   0  0  0  0  0  0
  -22.7748  -13.5156   21.1899 C   0  0  0  0  0  0
  -22.1667   -4.2180   21.0968 F   0  0  0  0  0  0
  -21.5617   -3.4544   25.7721 F   0  0  0  0  0  0
  -29.6793  -14.5908   20.1704 N   0  0  0  0  0  0
  -26.2827  -12.9698   20.3296 N   0  0  0  0  0  0
  -25.9450  -11.6736   20.5678 N   0  0  0  0  0  0
  -22.0376  -12.8144   22.0431 N   0  0  0  0  0  0
  -25.3914  -15.2038   20.4227 N   0  0  0  0  0  0
  -31.4110  -15.8730   20.3150 O   0  0  0  0  0  0
  -21.6650   -6.8922   21.4243 O   0  0  0  0  0  0
  -22.3446  -14.5464   20.6738 O   0  0  0  0  0  0
  -24.7056  -31.7721   23.1279 C   0  0  0  0  0  0
  -25.9532  -32.4316   23.7901 C   0  0  1  0  0  0
  -27.2397  -26.4470   20.2423 C   0  0  0  0  0  0
  -25.6018  -33.8158   24.1777 N   0  0  0  0  0  0
  -23.5424  -30.3631   21.4905 C   0  0  2  0  0  0
  -25.0002  -28.6446   20.1351 C   0  0  0  0  0  0
  -22.7854  -29.4187   22.4644 C   0  0  0  0  0  0
  -18.0371  -28.1416   22.8423 C   0  0  0  0  0  0
  -24.1517  -36.7085   23.2660 C   0  0  0  0  0  0
  -26.1337  -30.4200   21.4327 C   0  0  0  0  0  0
  -26.1981  -28.9547   20.7902 C   0  0  0  0  0  0
  -27.2916  -27.8963   20.7967 C   0  0  0  0  0  0
  -26.0015  -26.4115   19.5305 C   0  0  0  0  0  0
  -24.9557  -27.3989   19.4822 C   0  0  0  0  0  0
  -23.8105  -29.6337   20.1397 C   0  0  0  0  0  0
  -25.4171  -36.2793   24.0256 C   0  0  1  0  0  0
  -20.6014  -28.3800   23.1070 C   0  0  2  0  0  0
  -20.6839  -26.9442   22.5381 C   0  0  0  0  0  0
  -19.5827  -26.6358   21.5191 C   0  0  0  0  0  0
  -18.2003  -26.7940   22.1583 C   0  0  0  0  0  0
  -19.1638  -28.8931   23.2716 C   0  0  0  0  0  0
  -18.9548  -30.1508   23.8772 C   0  0  0  0  0  0
  -17.6539  -30.6592   24.0541 C   0  0  0  0  0  0
  -25.9163  -34.9196   23.4875 C   0  0  0  0  0  0
  -16.5425  -29.9075   23.6350 C   0  0  0  0  0  0
  -16.7348  -28.6498   23.0359 C   0  0  0  0  0  0
  -26.4636  -31.6450   25.0620 C   0  0  0  0  0  0
  -25.3610  -31.3840   26.1159 C   0  0  0  0  0  0
  -27.0610  -30.2754   24.6715 C   0  0  0  0  0  0
  -27.6057  -32.4362   25.7419 C   0  0  0  0  0  0
  -27.5566  -37.1691   24.8469 C   0  0  0  0  0  0
  -21.4482  -29.3015   22.3371 N   0  0  0  0  0  0
  -26.4271  -37.3581   23.9410 N   0  0  0  0  0  0
  -24.8204  -30.8911   22.0685 N   0  0  0  0  0  0
  -23.4189  -28.7845   23.3110 O   0  0  0  0  0  0
  -28.2103  -25.1382   20.2091 O   0  0  0  0  0  0
  -26.5834  -34.8827   22.4520 O   0  0  0  0  0  0
  -23.6030  -32.0923   23.6086 O   0  0  0  0  0  0
  -28.1464  -17.3478   19.4672 C   0  0  0  0  0  0
  -28.8124  -21.3013   19.9737 C   0  0  0  0  0  0
  -29.3809  -19.3622   20.5689 C   0  0  0  0  0  0
  -28.2518  -23.2636   20.5080 C   0  0  0  0  0  0
  -29.4090  -17.4905   20.1879 N   0  0  0  0  0  0
  -31.3491  -13.7206   19.0871 H   0  0  0  0  0  0
  -30.6891  -12.6298   20.2484 H   0  0  0  0  0  0
  -30.1007  -11.9032   17.9056 H   0  0  0  0  0  0
  -29.4507  -13.4882   17.5599 H   0  0  0  0  0  0
  -28.2969  -11.3475   19.3561 H   0  0  0  0  0  0
  -27.5119  -12.1116   17.9905 H   0  0  0  0  0  0
  -27.3888  -14.1854   19.1460 H   0  0  0  0  0  0
  -28.9521  -13.0395   21.5131 H   0  0  0  0  0  0
  -28.0824  -14.5461   21.5462 H   0  0  0  0  0  0
  -25.2818   -9.5670   22.4811 H   0  0  0  0  0  0
  -24.0006   -7.4646   22.7503 H   0  0  0  0  0  0
  -21.0901   -8.8859   19.8964 H   0  0  0  0  0  0
  -22.3825  -10.9720   19.6176 H   0  0  0  0  0  0
  -21.2033   -7.6171   23.9723 H   0  0  0  0  0  0
  -21.1463   -6.0535   25.9069 H   0  0  0  0  0  0
  -22.0599   -2.7631   23.2819 H   0  0  0  0  0  0
  -22.3953  -11.9803   22.4832 H   0  0  0  0  0  0
  -21.0994  -13.1198   22.2586 H   0  0  0  0  0  0
  -24.6180  -15.8537   20.5135 H   0  0  0  0  0  0
  -26.2365  -15.6377   20.0778 H   0  0  0  0  0  0
  -26.7628  -32.4715   23.0604 H   0  0  0  0  0  0
  -25.0022  -33.9142   24.9835 H   0  0  0  0  0  0
  -22.8827  -31.2078   21.2796 H   0  0  0  0  0  0
  -23.3793  -35.9400   23.3237 H   0  0  0  0  0  0
  -24.3589  -36.8852   22.2098 H   0  0  0  0  0  0
  -23.7284  -37.6231   23.6819 H   0  0  0  0  0  0
  -26.3696  -31.1317   20.6405 H   0  0  0  0  0  0
  -26.9701  -30.4928   22.1139 H   0  0  0  0  0  0
  -28.1969  -28.1645   21.3228 H   0  0  0  0  0  0
  -25.7942  -25.4939   18.9988 H   0  0  0  0  0  0
  -24.0597  -27.1443   18.9321 H   0  0  0  0  0  0
  -24.0068  -30.3831   19.3723 H   0  0  0  0  0  0
  -22.9079  -29.1151   19.8100 H   0  0  0  0  0  0
  -25.1403  -36.1503   25.0741 H   0  0  0  0  0  0
  -21.0074  -28.3462   24.1202 H   0  0  0  0  0  0
  -20.5710  -26.2429   23.3662 H   0  0  0  0  0  0
  -21.6702  -26.7377   22.1213 H   0  0  0  0  0  0
  -19.7002  -25.6243   21.1297 H   0  0  0  0  0  0
  -19.6788  -27.3096   20.6667 H   0  0  0  0  0  0
  -17.4282  -26.6659   21.3976 H   0  0  0  0  0  0
  -18.0400  -26.0087   22.8982 H   0  0  0  0  0  0
  -19.8041  -30.7337   24.2090 H   0  0  0  0  0  0
  -17.5110  -31.6270   24.5154 H   0  0  0  0  0  0
  -15.5426  -30.2945   23.7749 H   0  0  0  0  0  0
  -15.8745  -28.0788   22.7127 H   0  0  0  0  0  0
  -24.5835  -30.7168   25.7404 H   0  0  0  0  0  0
  -24.8745  -32.3083   26.4274 H   0  0  0  0  0  0
  -25.7670  -30.9167   27.0138 H   0  0  0  0  0  0
  -26.3378  -29.6279   24.1734 H   0  0  0  0  0  0
  -27.3964  -29.7306   25.5554 H   0  0  0  0  0  0
  -27.9394  -30.3809   24.0341 H   0  0  0  0  0  0
  -27.2609  -33.3796   26.1651 H   0  0  0  0  0  0
  -28.4001  -32.6704   25.0320 H   0  0  0  0  0  0
  -28.0563  -31.8717   26.5586 H   0  0  0  0  0  0
  -28.2518  -38.0043   24.7519 H   0  0  0  0  0  0
  -28.1127  -36.2561   24.6293 H   0  0  0  0  0  0
  -27.2274  -37.1305   25.8866 H   0  0  0  0  0  0
  -20.9828  -29.8607   21.6350 H   0  0  0  0  0  0
  -26.0066  -38.2612   24.1440 H   0  0  0  0  0  0
  -28.1011  -18.0711   18.6522 H   0  0  0  0  0  0
  -27.3084  -17.5390   20.1372 H   0  0  0  0  0  0
  -28.0019  -16.3666   19.0140 H   0  0  0  0  0  0
  -28.0363  -21.0683   19.2450 H   0  0  0  0  0  0
  -29.6673  -21.5348   19.3396 H   0  0  0  0  0  0
  -28.8748  -19.3113   21.5346 H   0  0  0  0  0  0
  -30.4241  -19.5134   20.8524 H   0  0  0  0  0  0
  -27.2187  -23.1099   20.8199 H   0  0  0  0  0  0
  -28.7962  -23.3194   21.4512 H   0  0  0  0  0  0
  1 25  1  0  0  0
  1 30  2  0  0  0
  1 75  1  0  0  0
  2  3  1  0  0  0
  2 25  1  0  0  0
  2 76  1  0  0  0
  2 77  1  0  0  0
  3  4  1  0  0  0
  3 78  1  0  0  0
  3 79  1  0  0  0
  4  5  1  0  0  0
  4 80  1  0  0  0
  4 81  1  0  0  0
  5  6  1  0  0  0
  5 26  1  0  0  0
  5 82  1  0  0  0
  6 25  1  0  0  0
  6 83  1  0  0  0
  6 84  1  0  0  0
  7  8  2  0  0  0
  7 26  1  0  0  0
  7 29  1  0  0  0
  8  9  1  0  0  0
  8 22  1  0  0  0
  9 10  1  0  0  0
  9 27  2  0  0  0
 10 11  2  0  0  0
 10 15  1  0  0  0
 11 12  1  0  0  0
 11 85  1  0  0  0
 12 13  2  0  0  0
 12 86  1  0  0  0
 13 14  1  0  0  0
 13 31  1  0  0  0
 14 15  2  0  0  0
 14 87  1  0  0  0
 15 88  1  0  0  0
 16 17  2  0  0  0
 16 21  1  0  0  0
 16 31  1  0  0  0
 17 18  1  0  0  0
 17 89  1  0  0  0
 18 19  2  0  0  0
 18 90  1  0  0  0
 19 20  1  0  0  0
 19 24  1  0  0  0
 20 21  2  0  0  0
 20 91  1  0  0  0
 21 23  1  0  0  0
 22 28  1  0  0  0
 22 32  2  0  0  0
 26 27  1  0  0  0
 28 92  1  0  0  0
 28 93  1  0  0  0
 29 94  1  0  0  0
 29 95  1  0  0  0
 33 34  1  0  0  0
 33 66  1  0  0  0
 33 70  2  0  0  0
 34 36  1  0  0  0
 34 59  1  0  0  0
 34 96  1  0  0  0
 35 44  2  0  0  0
 35 45  1  0  0  0
 35 68  1  0  0  0
 36 56  1  0  0  0
 36 97  1  0  0  0
 37 39  1  0  0  0
 37 47  1  0  0  0
 37 66  1  0  0  0
 37 98  1  0  0  0
 38 43  2  0  0  0
 38 46  1  0  0  0
 38 47  1  0  0  0
 39 64  1  0  0  0
 39 67  2  0  0  0
 40 52  1  0  0  0
 40 53  2  0  0  0
 40 58  1  0  0  0
 41 99  1  0  0  0
 41100  1  0  0  0
 41101  1  0  0  0
 41 48  1  0  0  0
 42 43  1  0  0  0
 42 66  1  0  0  0
 42102  1  0  0  0
 42103  1  0  0  0
 43 44  1  0  0  0
 44104  1  0  0  0
 45 46  2  0  0  0
 45105  1  0  0  0
 46106  1  0  0  0
 47107  1  0  0  0
 47108  1  0  0  0
 48 56  1  0  0  0
 48 65  1  0  0  0
 48109  1  0  0  0
 49 50  1  0  0  0
 49 53  1  0  0  0
 49 64  1  0  0  0
 49110  1  0  0  0
 50 51  1  0  0  0
 50111  1  0  0  0
 50112  1  0  0  0
 51 52  1  0  0  0
 51113  1  0  0  0
 51114  1  0  0  0
 52115  1  0  0  0
 52116  1  0  0  0
 53 54  1  0  0  0
 54 55  2  0  0  0
 54117  1  0  0  0
 55 57  1  0  0  0
 55118  1  0  0  0
 56 69  2  0  0  0
 57 58  2  0  0  0
 57119  1  0  0  0
 58120  1  0  0  0
 59 60  1  0  0  0
 59 61  1  0  0  0
 59 62  1  0  0  0
 60121  1  0  0  0
 60122  1  0  0  0
 60123  1  0  0  0
 61124  1  0  0  0
 61125  1  0  0  0
 61126  1  0  0  0
 62127  1  0  0  0
 62128  1  0  0  0
 62129  1  0  0  0
 63 65  1  0  0  0
 63130  1  0  0  0
 63131  1  0  0  0
 63132  1  0  0  0
 64133  1  0  0  0
 65134  1  0  0  0
 68 74  1  0  0  0
 71 75  1  0  0  0
 71135  1  0  0  0
 71136  1  0  0  0
 71137  1  0  0  0
 72 73  1  0  0  0
 72 74  1  0  0  0
 72138  1  0  0  0
 72139  1  0  0  0
 73 75  1  0  0  0
 73140  1  0  0  0
 73141  1  0  0  0
 74142  1  0  0  0
 74143  1  0  0  0
M  ISO  4   1 100  68 101  74 101  75 100
M  END
> <chiral flag>
0

> <version>
0

> <s_m_source_file>
/data/baiqing/PycharmProjects/Reinvent-master-3.2/result/LINK_invent/BTK/process_docking_weight1_custom_sum_contain_oxygen_bond_distance_aromatic_linkinvent_7_9_3/rearranged_h_0018.sdf

> <i_m_source_file_index>
3

> <r_mmod_Potential_Energy-OPLS-2005>
4303.49072265625

> <r_mmod_Stretch_Energy-OPLS-2005>
1937.3203125

> <r_mmod_Bend_Energy-OPLS-2005>
891.069641113281

> <r_mmod_Torsional_Energy-OPLS-2005>
308.0107421875

> <r_mmod_Improper_Torsional_Energy-OPLS-2005>
4.89766931533813

> <r_mmod_Van_der_Waal_Energy-OPLS-2005>
112.25927734375

> <r_mmod_Electrostatic_Energy-OPLS-2005>
-274.442291259766

> <r_mmod_Solvation_Energy-OPLS-2005>
-215.008483886719

> <b_mmod_Minimization_Converged-OPLS-2005>
0

> <r_mmod_RMS_Derivative-OPLS-2005>
2.3036835193634

$$$$
3
                    3D
 Structure written by MMmdl.
162170  0  0  1  0            999 V2000
  -30.5516  -14.9742   20.4065 C   0  0  0  0  0  0
  -30.4413  -12.6052   19.4925 C   0  0  0  0  0  0
  -29.5221  -12.5195   18.2537 C   0  0  0  0  0  0
  -28.0577  -12.2975   18.6797 C   0  0  0  0  0  0
  -27.6279  -13.2455   19.8301 C   0  0  2  0  0  0
  -28.6742  -13.3051   20.9653 C   0  0  0  0  0  0
  -25.2443  -13.8195   20.5682 C   0  0  0  0  0  0
  -24.1757  -13.0429   20.9231 C   0  0  0  0  0  0
  -24.6352  -11.6910   20.8718 C   0  0  0  0  0  0
  -23.9013  -10.4290   21.0374 C   0  0  0  0  0  0
  -24.3566   -9.4222   21.9155 C   0  0  0  0  0  0
  -23.6277   -8.2246   22.0740 C   0  0  0  0  0  0
  -22.4272   -8.0247   21.3538 C   0  0  0  0  0  0
  -21.9874   -9.0211   20.4648 C   0  0  0  0  0  0
  -22.7163  -10.2114   20.3042 C   0  0  0  0  0  0
  -21.6857   -6.0687   22.5257 C   0  0  0  0  0  0
  -21.4017   -6.5604   23.8185 C   0  0  0  0  0  0
  -21.3662   -5.6768   24.9149 C   0  0  0  0  0  0
  -21.6057   -4.3027   24.7220 C   0  0  0  0  0  0
  -21.8821   -3.8113   23.4338 C   0  0  0  0  0  0
  -21.9193   -4.6910   22.3383 C   0  0  0  0  0  0
  -22.7784  -13.5216   21.1882 C   0  0  0  0  0  0
  -22.1663   -4.2083   21.0968 F   0  0  0  0  0  0
  -21.5642   -3.4528   25.7743 F   0  0  0  0  0  0
  -29.9421  -13.7197   20.3514 N   0  0  0  0  0  0
  -26.2872  -12.9422   20.3208 N   0  0  0  0  0  0
  -25.9295  -11.6550   20.5703 N   0  0  0  0  0  0
  -22.0407  -12.8239   22.0445 N   0  0  0  0  0  0
  -25.4112  -15.1923   20.4069 N   0  0  0  0  0  0
  -31.7551  -15.0055   20.1423 O   0  0  0  0  0  0
  -21.6651   -6.8835   21.4234 O   0  0  0  0  0  0
  -22.3451  -14.5489   20.6673 O   0  0  0  0  0  0
  -24.6471  -31.8397   23.1854 C   0  0  0  0  0  0
  -25.9215  -32.4687   23.8257 C   0  0  1  0  0  0
  -27.2299  -27.1221   20.1264 C   0  0  0  0  0  0
  -25.5953  -33.8501   24.2173 N   0  0  0  0  0  0
  -23.4520  -30.4565   21.5356 C   0  0  2  0  0  0
  -24.9014  -28.8775   20.1108 C   0  0  0  0  0  0
  -22.7586  -29.4490   22.4876 C   0  0  0  0  0  0
  -18.0299  -28.1396   22.8476 C   0  0  0  0  0  0
  -24.1501  -36.7264   23.2640 C   0  0  0  0  0  0
  -26.0104  -30.7053   21.3876 C   0  0  0  0  0  0
  -26.0820  -29.3156   20.7242 C   0  0  0  0  0  0
  -27.2460  -28.4551   20.7121 C   0  0  0  0  0  0
  -26.0132  -26.7783   19.4975 C   0  0  0  0  0  0
  -24.8795  -27.6208   19.4865 C   0  0  0  0  0  0
  -23.6785  -29.7837   20.1555 C   0  0  0  0  0  0
  -25.4136  -36.3045   24.0319 C   0  0  1  0  0  0
  -20.5912  -28.3706   23.1261 C   0  0  2  0  0  0
  -20.6794  -26.9410   22.5417 C   0  0  0  0  0  0
  -19.5770  -26.6372   21.5226 C   0  0  0  0  0  0
  -18.1942  -26.7934   22.1622 C   0  0  0  0  0  0
  -19.1554  -28.8872   23.2857 C   0  0  0  0  0  0
  -18.9463  -30.1476   23.8862 C   0  0  0  0  0  0
  -17.6457  -30.6600   24.0542 C   0  0  0  0  0  0
  -25.9077  -34.9413   23.5065 C   0  0  0  0  0  0
  -16.5345  -29.9079   23.6342 C   0  0  0  0  0  0
  -16.7282  -28.6505   23.0352 C   0  0  0  0  0  0
  -26.4501  -31.6579   25.0729 C   0  0  0  0  0  0
  -25.3668  -31.3784   26.1424 C   0  0  0  0  0  0
  -27.0344  -30.2967   24.6329 C   0  0  0  0  0  0
  -27.6060  -32.4325   25.7505 C   0  0  0  0  0  0
  -27.5594  -37.1792   24.8457 C   0  0  0  0  0  0
  -21.4266  -29.3037   22.3646 N   0  0  0  0  0  0
  -26.4298  -37.3759   23.9404 N   0  0  0  0  0  0
  -24.7236  -31.0205   22.0921 N   0  0  0  0  0  0
  -23.4223  -28.8031   23.3025 O   0  0  0  0  0  0
  -28.3008  -26.1492   20.1666 O   0  0  0  0  0  0
  -26.5666  -34.8909   22.4644 O   0  0  0  0  0  0
  -23.5580  -32.1290   23.7055 O   0  0  0  0  0  0
  -30.7508  -20.4781   21.3621 C   0  0  0  0  0  0
  -31.4717  -19.3978   21.9219 C   0  0  0  0  0  0
  -29.6161  -20.3117   20.5526 C   0  0  0  0  0  0
  -31.1422  -18.0327   21.6769 C   0  0  0  0  0  0
  -30.0963  -17.6794   20.7693 C   0  0  0  0  0  0
  -29.3304  -18.8686   20.2602 C   0  0  0  0  0  0
  -32.6187  -19.7600   22.8542 C   0  0  0  0  0  0
  -31.9051  -16.9651   22.4680 C   0  0  0  0  0  0
  -29.6852  -23.6805   21.6895 C   0  0  0  0  0  0
  -30.3607  -23.5828   19.2647 C   0  0  0  0  0  0
  -28.7708  -21.6889   20.1075 C   0  0  0  0  0  0
  -28.0923  -24.6172   19.9158 C   0  0  0  0  0  0
  -29.1886  -23.3584   20.2540 C   0  0  0  0  0  0
  -29.7822  -16.1791   20.5240 N   0  0  0  0  0  0
  -27.9775  -18.5298   19.2405 Cl  0  0  0  0  0  0
  -31.4758  -12.7607   19.1789 H   0  0  0  0  0  0
  -30.4390  -11.6641   20.0410 H   0  0  0  0  0  0
  -29.8530  -11.7162   17.5953 H   0  0  0  0  0  0
  -29.5997  -13.4390   17.6715 H   0  0  0  0  0  0
  -27.9673  -11.2608   19.0070 H   0  0  0  0  0  0
  -27.3885  -12.4005   17.8259 H   0  0  0  0  0  0
  -27.5870  -14.2389   19.3823 H   0  0  0  0  0  0
  -28.7770  -12.3425   21.4674 H   0  0  0  0  0  0
  -28.3714  -14.0238   21.7287 H   0  0  0  0  0  0
  -25.2695   -9.5731   22.4716 H   0  0  0  0  0  0
  -23.9983   -7.4651   22.7469 H   0  0  0  0  0  0
  -21.0797   -8.8703   19.8976 H   0  0  0  0  0  0
  -22.3577  -10.9627   19.6148 H   0  0  0  0  0  0
  -21.2028   -7.6110   23.9670 H   0  0  0  0  0  0
  -21.1488   -6.0498   25.9048 H   0  0  0  0  0  0
  -22.0611   -2.7572   23.2855 H   0  0  0  0  0  0
  -22.3996  -11.9929   22.4906 H   0  0  0  0  0  0
  -21.1010  -13.1260   22.2596 H   0  0  0  0  0  0
  -24.6413  -15.8417   20.5182 H   0  0  0  0  0  0
  -26.2435  -15.6300   20.0364 H   0  0  0  0  0  0
  -26.7280  -32.5266   23.0980 H   0  0  0  0  0  0
  -25.0072  -33.9606   25.0302 H   0  0  0  0  0  0
  -22.7575  -31.2847   21.3809 H   0  0  0  0  0  0
  -23.3782  -35.9574   23.3285 H   0  0  0  0  0  0
  -24.3577  -36.8912   22.2053 H   0  0  0  0  0  0
  -23.7233  -37.6451   23.6679 H   0  0  0  0  0  0
  -26.1693  -31.4602   20.6158 H   0  0  0  0  0  0
  -26.8797  -30.7518   22.0322 H   0  0  0  0  0  0
  -28.1490  -28.7860   21.2067 H   0  0  0  0  0  0
  -25.9072  -25.8108   19.0280 H   0  0  0  0  0  0
  -23.9763  -27.2752   19.0027 H   0  0  0  0  0  0
  -23.8164  -30.5593   19.4015 H   0  0  0  0  0  0
  -22.7914  -29.2296   19.8428 H   0  0  0  0  0  0
  -25.1322  -36.1879   25.0810 H   0  0  0  0  0  0
  -20.9990  -28.3282   24.1391 H   0  0  0  0  0  0
  -20.5717  -26.2293   23.3617 H   0  0  0  0  0  0
  -21.6656  -26.7441   22.1191 H   0  0  0  0  0  0
  -19.6926  -25.6275   21.1275 H   0  0  0  0  0  0
  -19.6732  -27.3164   20.6741 H   0  0  0  0  0  0
  -17.4222  -26.6688   21.4011 H   0  0  0  0  0  0
  -18.0323  -26.0083   22.9016 H   0  0  0  0  0  0
  -19.7935  -30.7303   24.2220 H   0  0  0  0  0  0
  -17.5006  -31.6283   24.5135 H   0  0  0  0  0  0
  -15.5340  -30.2957   23.7706 H   0  0  0  0  0  0
  -15.8684  -28.0817   22.7075 H   0  0  0  0  0  0
  -24.5841  -30.7142   25.7734 H   0  0  0  0  0  0
  -24.8851  -32.2965   26.4801 H   0  0  0  0  0  0
  -25.7933  -30.8975   27.0238 H   0  0  0  0  0  0
  -26.2939  -29.6711   24.1328 H   0  0  0  0  0  0
  -27.3920  -29.7265   25.4914 H   0  0  0  0  0  0
  -27.8877  -30.4196   23.9658 H   0  0  0  0  0  0
  -27.2686  -33.3650   26.2038 H   0  0  0  0  0  0
  -28.3884  -32.6837   25.0335 H   0  0  0  0  0  0
  -28.0698  -31.8463   26.5444 H   0  0  0  0  0  0
  -28.2601  -38.0099   24.7526 H   0  0  0  0  0  0
  -28.1098  -36.2638   24.6257 H   0  0  0  0  0  0
  -27.2308  -37.1407   25.8854 H   0  0  0  0  0  0
  -20.9478  -29.8751   21.6819 H   0  0  0  0  0  0
  -26.0182  -38.2835   24.1395 H   0  0  0  0  0  0
  -31.0672  -21.4759   21.6040 H   0  0  0  0  0  0
  -32.8389  -20.8264   22.8347 H   0  0  0  0  0  0
  -33.5334  -19.2371   22.5695 H   0  0  0  0  0  0
  -32.3631  -19.5057   23.8838 H   0  0  0  0  0  0
  -32.7934  -16.6446   21.9243 H   0  0  0  0  0  0
  -31.2927  -16.0959   22.6919 H   0  0  0  0  0  0
  -32.2301  -17.3108   23.4469 H   0  0  0  0  0  0
  -30.7623  -23.5582   21.8090 H   0  0  0  0  0  0
  -29.1837  -23.0680   22.4389 H   0  0  0  0  0  0
  -29.5013  -24.7210   21.9677 H   0  0  0  0  0  0
  -31.2012  -22.9123   19.4528 H   0  0  0  0  0  0
  -30.7494  -24.6027   19.3189 H   0  0  0  0  0  0
  -30.0472  -23.4192   18.2307 H   0  0  0  0  0  0
  -27.8243  -21.5867   20.6411 H   0  0  0  0  0  0
  -28.4942  -21.5307   19.0645 H   0  0  0  0  0  0
  -27.1579  -24.3499   20.4122 H   0  0  0  0  0  0
  -27.8692  -24.5399   18.8489 H   0  0  0  0  0  0
  -28.7926  -16.0009   20.4593 H   0  0  0  0  0  0
  1 25  1  0  0  0
  1 30  2  0  0  0
  1 84  1  0  0  0
  2  3  1  0  0  0
  2 25  1  0  0  0
  2 86  1  0  0  0
  2 87  1  0  0  0
  3  4  1  0  0  0
  3 88  1  0  0  0
  3 89  1  0  0  0
  4  5  1  0  0  0
  4 90  1  0  0  0
  4 91  1  0  0  0
  5  6  1  0  0  0
  5 26  1  0  0  0
  5 92  1  0  0  0
  6 25  1  0  0  0
  6 93  1  0  0  0
  6 94  1  0  0  0
  7  8  2  0  0  0
  7 26  1  0  0  0
  7 29  1  0  0  0
  8  9  1  0  0  0
  8 22  1  0  0  0
  9 10  1  0  0  0
  9 27  2  0  0  0
 10 11  2  0  0  0
 10 15  1  0  0  0
 11 12  1  0  0  0
 11 95  1  0  0  0
 12 13  2  0  0  0
 12 96  1  0  0  0
 13 14  1  0  0  0
 13 31  1  0  0  0
 14 15  2  0  0  0
 14 97  1  0  0  0
 15 98  1  0  0  0
 16 17  2  0  0  0
 16 21  1  0  0  0
 16 31  1  0  0  0
 17 18  1  0  0  0
 17 99  1  0  0  0
 18 19  2  0  0  0
 18100  1  0  0  0
 19 20  1  0  0  0
 19 24  1  0  0  0
 20 21  2  0  0  0
 20101  1  0  0  0
 21 23  1  0  0  0
 22 28  1  0  0  0
 22 32  2  0  0  0
 26 27  1  0  0  0
 28102  1  0  0  0
 28103  1  0  0  0
 29104  1  0  0  0
 29105  1  0  0  0
 33 34  1  0  0  0
 33 66  1  0  0  0
 33 70  2  0  0  0
 34 36  1  0  0  0
 34 59  1  0  0  0
 34106  1  0  0  0
 35 44  2  0  0  0
 35 45  1  0  0  0
 35 68  1  0  0  0
 36 56  1  0  0  0
 36107  1  0  0  0
 37 39  1  0  0  0
 37 47  1  0  0  0
 37 66  1  0  0  0
 37108  1  0  0  0
 38 43  2  0  0  0
 38 46  1  0  0  0
 38 47  1  0  0  0
 39 64  1  0  0  0
 39 67  2  0  0  0
 40 52  1  0  0  0
 40 53  2  0  0  0
 40 58  1  0  0  0
 41109  1  0  0  0
 41110  1  0  0  0
 41111  1  0  0  0
 41 48  1  0  0  0
 42 43  1  0  0  0
 42 66  1  0  0  0
 42112  1  0  0  0
 42113  1  0  0  0
 43 44  1  0  0  0
 44114  1  0  0  0
 45 46  2  0  0  0
 45115  1  0  0  0
 46116  1  0  0  0
 47117  1  0  0  0
 47118  1  0  0  0
 48 56  1  0  0  0
 48 65  1  0  0  0
 48119  1  0  0  0
 49 50  1  0  0  0
 49 53  1  0  0  0
 49 64  1  0  0  0
 49120  1  0  0  0
 50 51  1  0  0  0
 50121  1  0  0  0
 50122  1  0  0  0
 51 52  1  0  0  0
 51123  1  0  0  0
 51124  1  0  0  0
 52125  1  0  0  0
 52126  1  0  0  0
 53 54  1  0  0  0
 54 55  2  0  0  0
 54127  1  0  0  0
 55 57  1  0  0  0
 55128  1  0  0  0
 56 69  2  0  0  0
 57 58  2  0  0  0
 57129  1  0  0  0
 58130  1  0  0  0
 59 60  1  0  0  0
 59 61  1  0  0  0
 59 62  1  0  0  0
 60131  1  0  0  0
 60132  1  0  0  0
 60133  1  0  0  0
 61134  1  0  0  0
 61135  1  0  0  0
 61136  1  0  0  0
 62137  1  0  0  0
 62138  1  0  0  0
 62139  1  0  0  0
 63 65  1  0  0  0
 63140  1  0  0  0
 63141  1  0  0  0
 63142  1  0  0  0
 64143  1  0  0  0
 65144  1  0  0  0
 68 82  1  0  0  0
 71 72  2  0  0  0
 71 73  1  0  0  0
 71145  1  0  0  0
 72 74  1  0  0  0
 72 77  1  0  0  0
 73 76  2  0  0  0
 73 81  1  0  0  0
 74 75  2  0  0  0
 74 78  1  0  0  0
 75 76  1  0  0  0
 75 84  1  0  0  0
 76 85  1  0  0  0
 77146  1  0  0  0
 77147  1  0  0  0
 77148  1  0  0  0
 78149  1  0  0  0
 78150  1  0  0  0
 78151  1  0  0  0
 79152  1  0  0  0
 79153  1  0  0  0
 79154  1  0  0  0
 79 83  1  0  0  0
 80 83  1  0  0  0
 80155  1  0  0  0
 80156  1  0  0  0
 80157  1  0  0  0
 81 83  1  0  0  0
 81158  1  0  0  0
 81159  1  0  0  0
 82 83  1  0  0  0
 82160  1  0  0  0
 82161  1  0  0  0
 84162  1  0  0  0
M  ISO  4   1 100  68 101  82 101  84 100
M  END
> <chiral flag>
0

> <version>
0

> <s_m_source_file>
/data/baiqing/PycharmProjects/Reinvent-master-3.2/result/LINK_invent/BTK/process_docking_weight1_custom_sum_contain_oxygen_bond_distance_aromatic_linkinvent_7_9_3/rearranged_h_0018.sdf

> <i_m_source_file_index>
4

> <r_mmod_Potential_Energy-OPLS-2005>
567.758544921875

> <r_mmod_Stretch_Energy-OPLS-2005>
312.042083740234

> <r_mmod_Bend_Energy-OPLS-2005>
263.912780761719

> <r_mmod_Torsional_Energy-OPLS-2005>
236.798721313477

> <r_mmod_Improper_Torsional_Energy-OPLS-2005>
5.61544179916382

> <r_mmod_Van_der_Waal_Energy-OPLS-2005>
140.049743652344

> <r_mmod_Electrostatic_Energy-OPLS-2005>
-405.359741210938

> <r_mmod_Solvation_Energy-OPLS-2005>
-190.563369750977

> <b_mmod_Minimization_Converged-OPLS-2005>
0

> <r_mmod_RMS_Derivative-OPLS-2005>
4.3553524017334

$$$$
4
                    3D
 Structure written by MMmdl.
171179  0  0  1  0            999 V2000
  -30.7872  -14.3259   20.7212 C   0  0  0  0  0  0
  -30.4163  -12.2986   19.3635 C   0  0  0  0  0  0
  -29.4746  -12.5419   18.1699 C   0  0  0  0  0  0
  -27.9972  -12.4032   18.5863 C   0  0  0  0  0  0
  -27.6653  -13.2015   19.8746 C   0  0  2  0  0  0
  -28.7078  -12.9014   20.9708 C   0  0  0  0  0  0
  -25.2606  -13.8174   20.5626 C   0  0  0  0  0  0
  -24.1849  -13.0465   20.9089 C   0  0  0  0  0  0
  -24.6383  -11.6916   20.8681 C   0  0  0  0  0  0
  -23.9037  -10.4303   21.0379 C   0  0  0  0  0  0
  -24.3600   -9.4217   21.9160 C   0  0  0  0  0  0
  -23.6281   -8.2245   22.0744 C   0  0  0  0  0  0
  -22.4257   -8.0284   21.3549 C   0  0  0  0  0  0
  -21.9892   -9.0234   20.4641 C   0  0  0  0  0  0
  -22.7210  -10.2115   20.3030 C   0  0  0  0  0  0
  -21.6862   -6.0741   22.5265 C   0  0  0  0  0  0
  -21.4014   -6.5641   23.8199 C   0  0  0  0  0  0
  -21.3654   -5.6786   24.9160 C   0  0  0  0  0  0
  -21.6034   -4.3046   24.7205 C   0  0  0  0  0  0
  -21.8834   -3.8152   23.4326 C   0  0  0  0  0  0
  -21.9215   -4.6974   22.3391 C   0  0  0  0  0  0
  -22.7886  -13.5259   21.1808 C   0  0  0  0  0  0
  -22.1706   -4.2172   21.0967 F   0  0  0  0  0  0
  -21.5594   -3.4520   25.7711 F   0  0  0  0  0  0
  -30.0374  -13.2276   20.4365 N   0  0  0  0  0  0
  -26.3055  -12.9331   20.3372 N   0  0  0  0  0  0
  -25.9315  -11.6483   20.5726 N   0  0  0  0  0  0
  -22.0554  -12.8251   22.0381 N   0  0  0  0  0  0
  -25.4328  -15.1898   20.4026 N   0  0  0  0  0  0
  -31.8641  -14.5584   20.1621 O   0  0  0  0  0  0
  -21.6644   -6.8878   21.4225 O   0  0  0  0  0  0
  -22.3554  -14.5566   20.6685 O   0  0  0  0  0  0
  -24.6080  -31.8681   23.2134 C   0  0  0  0  0  0
  -25.8995  -32.4815   23.8422 C   0  0  1  0  0  0
  -27.2419  -27.4687   20.0797 C   0  0  0  0  0  0
  -25.5902  -33.8633   24.2338 N   0  0  0  0  0  0
  -23.3921  -30.4938   21.5506 C   0  0  2  0  0  0
  -24.8357  -28.9556   20.1206 C   0  0  0  0  0  0
  -22.7362  -29.4647   22.4976 C   0  0  0  0  0  0
  -18.0252  -28.1376   22.8478 C   0  0  0  0  0  0
  -24.1460  -36.7350   23.2633 C   0  0  0  0  0  0
  -25.9177  -30.8390   21.3595 C   0  0  0  0  0  0
  -25.9902  -29.4744   20.7130 C   0  0  0  0  0  0
  -27.1890  -28.7360   20.6973 C   0  0  0  0  0  0
  -26.0675  -26.9477   19.4873 C   0  0  0  0  0  0
  -24.8673  -27.6883   19.5111 C   0  0  0  0  0  0
  -23.5969  -29.8224   20.1669 C   0  0  0  0  0  0
  -25.4085  -36.3113   24.0300 C   0  0  1  0  0  0
  -20.5839  -28.3646   23.1333 C   0  0  2  0  0  0
  -20.6764  -26.9381   22.5440 C   0  0  0  0  0  0
  -19.5750  -26.6375   21.5230 C   0  0  0  0  0  0
  -18.1906  -26.7925   22.1606 C   0  0  0  0  0  0
  -19.1496  -28.8811   23.2905 C   0  0  0  0  0  0
  -18.9446  -30.1433   23.8905 C   0  0  0  0  0  0
  -17.6452  -30.6586   24.0560 C   0  0  0  0  0  0
  -25.9012  -34.9473   23.5113 C   0  0  0  0  0  0
  -16.5339  -29.9084   23.6354 C   0  0  0  0  0  0
  -16.7240  -28.6509   23.0339 C   0  0  0  0  0  0
  -26.4443  -31.6591   25.0736 C   0  0  0  0  0  0
  -25.3748  -31.3682   26.1525 C   0  0  0  0  0  0
  -27.0258  -30.3034   24.6096 C   0  0  0  0  0  0
  -27.6002  -32.4334   25.7508 C   0  0  0  0  0  0
  -27.5536  -37.1838   24.8452 C   0  0  0  0  0  0
  -21.4074  -29.3033   22.3761 N   0  0  0  0  0  0
  -26.4260  -37.3791   23.9393 N   0  0  0  0  0  0
  -24.6577  -31.0836   22.0990 N   0  0  0  0  0  0
  -23.4154  -28.8138   23.2970 O   0  0  0  0  0  0
  -28.4579  -26.8255   20.0804 O   0  0  0  0  0  0
  -26.5573  -34.8909   22.4672 O   0  0  0  0  0  0
  -23.5296  -32.1408   23.7566 O   0  0  0  0  0  0
  -29.3506  -16.9824   20.4770 C   0  0  0  0  0  0
  -28.2251  -17.7804   20.8191 C   0  0  0  0  0  0
  -29.3729  -16.0531   21.4840 C   0  0  0  0  0  0
  -30.2726  -17.2267   19.3089 C   0  0  0  0  0  0
  -27.5636  -21.8562   18.9603 C   0  0  0  0  0  0
  -27.8733  -15.5602   23.5116 C   0  0  0  0  0  0
  -31.2305  -15.3776   22.8443 C   0  0  0  0  0  0
  -27.8163  -19.0519   20.1355 C   0  0  0  0  0  0
  -28.5530  -20.2675   20.7376 C   0  0  0  0  0  0
  -29.9519  -24.9918   19.9712 C   0  0  0  0  0  0
  -30.2003  -23.5134   19.6205 C   0  0  0  0  0  0
  -28.5611  -25.5087   19.5670 C   0  0  0  0  0  0
  -28.8205  -21.4237   19.7458 C   0  0  2  0  0  0
  -27.5943  -17.3503   21.9049 N   0  0  0  0  0  0
  -28.3014  -16.2766   22.3236 N   0  0  0  0  0  0
  -30.3341  -15.1169   21.7156 N   0  0  0  0  0  0
  -29.4071  -22.5850   20.4607 N   0  3  0  0  0  0
  -31.4514  -12.4221   19.0445 H   0  0  0  0  0  0
  -30.3401  -11.2680   19.7173 H   0  0  0  0  0  0
  -29.7019  -11.8450   17.3633 H   0  0  0  0  0  0
  -29.6456  -13.5421   17.7667 H   0  0  0  0  0  0
  -27.7810  -11.3443   18.7315 H   0  0  0  0  0  0
  -27.3493  -12.7319   17.7724 H   0  0  0  0  0  0
  -27.7279  -14.2601   19.6217 H   0  0  0  0  0  0
  -28.6821  -11.8429   21.2298 H   0  0  0  0  0  0
  -28.4630  -13.4170   21.8933 H   0  0  0  0  0  0
  -25.2756   -9.5675   22.4734 H   0  0  0  0  0  0
  -23.9995   -7.4634   22.7472 H   0  0  0  0  0  0
  -21.0816   -8.8691   19.8970 H   0  0  0  0  0  0
  -22.3635  -10.9611   19.6107 H   0  0  0  0  0  0
  -21.2000   -7.6145   23.9692 H   0  0  0  0  0  0
  -21.1471   -6.0522   25.9051 H   0  0  0  0  0  0
  -22.0634   -2.7619   23.2805 H   0  0  0  0  0  0
  -22.4171  -11.9896   22.4736 H   0  0  0  0  0  0
  -21.1183  -13.1287   22.2616 H   0  0  0  0  0  0
  -24.6797  -15.8518   20.5621 H   0  0  0  0  0  0
  -26.3262  -15.6442   20.2611 H   0  0  0  0  0  0
  -26.7010  -32.5498   23.1131 H   0  0  0  0  0  0
  -25.0121  -33.9853   25.0529 H   0  0  0  0  0  0
  -22.6737  -31.3064   21.4124 H   0  0  0  0  0  0
  -23.3685  -35.9725   23.3335 H   0  0  0  0  0  0
  -24.3555  -36.8962   22.2045 H   0  0  0  0  0  0
  -23.7246  -37.6569   23.6658 H   0  0  0  0  0  0
  -26.0352  -31.5943   20.5800 H   0  0  0  0  0  0
  -26.8068  -30.8897   21.9762 H   0  0  0  0  0  0
  -28.0836  -29.1412   21.1485 H   0  0  0  0  0  0
  -26.0589  -25.9859   18.9929 H   0  0  0  0  0  0
  -23.9761  -27.2879   19.0539 H   0  0  0  0  0  0
  -23.7046  -30.5989   19.4069 H   0  0  0  0  0  0
  -22.7202  -29.2439   19.8731 H   0  0  0  0  0  0
  -25.1249  -36.1968   25.0779 H   0  0  0  0  0  0
  -20.9947  -28.3231   24.1447 H   0  0  0  0  0  0
  -20.5692  -26.2234   23.3611 H   0  0  0  0  0  0
  -21.6619  -26.7463   22.1177 H   0  0  0  0  0  0
  -19.6927  -25.6303   21.1232 H   0  0  0  0  0  0
  -19.6695  -27.3202   20.6774 H   0  0  0  0  0  0
  -17.4187  -26.6665   21.4002 H   0  0  0  0  0  0
  -18.0278  -26.0062   22.8993 H   0  0  0  0  0  0
  -19.7924  -30.7246   24.2251 H   0  0  0  0  0  0
  -17.5018  -31.6272   24.5165 H   0  0  0  0  0  0
  -15.5349  -30.2985   23.7688 H   0  0  0  0  0  0
  -15.8629  -28.0853   22.7031 H   0  0  0  0  0  0
  -24.5882  -30.7052   25.7877 H   0  0  0  0  0  0
  -24.8997  -32.2840   26.5066 H   0  0  0  0  0  0
  -25.8148  -30.8786   27.0224 H   0  0  0  0  0  0
  -26.2738  -29.6763   24.1281 H   0  0  0  0  0  0
  -27.4136  -29.7295   25.4522 H   0  0  0  0  0  0
  -27.8531  -30.4329   23.9107 H   0  0  0  0  0  0
  -27.2575  -33.3582   26.2163 H   0  0  0  0  0  0
  -28.3775  -32.7011   25.0338 H   0  0  0  0  0  0
  -28.0697  -31.8442   26.5390 H   0  0  0  0  0  0
  -28.2576  -38.0113   24.7490 H   0  0  0  0  0  0
  -28.0992  -36.2660   24.6262 H   0  0  0  0  0  0
  -27.2287  -37.1461   25.8863 H   0  0  0  0  0  0
  -20.9193  -29.8776   21.7026 H   0  0  0  0  0  0
  -26.0135  -38.2845   24.1452 H   0  0  0  0  0  0
  -29.8861  -16.7703   18.3986 H   0  0  0  0  0  0
  -31.2792  -16.8471   19.4638 H   0  0  0  0  0  0
  -30.3944  -18.2894   19.1007 H   0  0  0  0  0  0
  -27.1260  -21.0250   18.4076 H   0  0  0  0  0  0
  -27.7912  -22.6255   18.2212 H   0  0  0  0  0  0
  -26.7921  -22.2475   19.6226 H   0  0  0  0  0  0
  -27.8534  -16.2287   24.3713 H   0  0  0  0  0  0
  -28.5517  -14.7396   23.7381 H   0  0  0  0  0  0
  -26.8785  -15.1455   23.3535 H   0  0  0  0  0  0
  -31.8594  -14.5150   23.0710 H   0  0  0  0  0  0
  -30.6762  -15.6148   23.7523 H   0  0  0  0  0  0
  -31.8763  -16.2250   22.6197 H   0  0  0  0  0  0
  -26.7380  -19.2029   20.1875 H   0  0  0  0  0  0
  -28.0524  -18.9598   19.0755 H   0  0  0  0  0  0
  -29.5295  -19.9295   21.0874 H   0  0  0  0  0  0
  -28.0261  -20.6007   21.6326 H   0  0  0  0  0  0
  -30.7050  -25.6050   19.4738 H   0  0  0  0  0  0
  -30.1158  -25.1524   21.0375 H   0  0  0  0  0  0
  -30.0185  -23.3593   18.5556 H   0  0  0  0  0  0
  -31.2519  -23.2732   19.7783 H   0  0  0  0  0  0
  -28.4518  -25.5089   18.4813 H   0  0  0  0  0  0
  -27.7850  -24.8752   19.9955 H   0  0  0  0  0  0
  -29.5572  -21.0656   19.0242 H   0  0  0  0  0  0
  -28.6605  -23.0919   20.9084 H   0  0  0  0  0  0
  -30.0216  -22.2575   21.1923 H   0  0  0  0  0  0
  1 25  1  0  0  0
  1 30  2  0  0  0
  1 86  1  0  0  0
  2  3  1  0  0  0
  2 25  1  0  0  0
  2 88  1  0  0  0
  2 89  1  0  0  0
  3  4  1  0  0  0
  3 90  1  0  0  0
  3 91  1  0  0  0
  4  5  1  0  0  0
  4 92  1  0  0  0
  4 93  1  0  0  0
  5  6  1  0  0  0
  5 26  1  0  0  0
  5 94  1  0  0  0
  6 25  1  0  0  0
  6 95  1  0  0  0
  6 96  1  0  0  0
  7  8  2  0  0  0
  7 26  1  0  0  0
  7 29  1  0  0  0
  8  9  1  0  0  0
  8 22  1  0  0  0
  9 10  1  0  0  0
  9 27  2  0  0  0
 10 11  2  0  0  0
 10 15  1  0  0  0
 11 12  1  0  0  0
 11 97  1  0  0  0
 12 13  2  0  0  0
 12 98  1  0  0  0
 13 14  1  0  0  0
 13 31  1  0  0  0
 14 15  2  0  0  0
 14 99  1  0  0  0
 15100  1  0  0  0
 16 17  2  0  0  0
 16 21  1  0  0  0
 16 31  1  0  0  0
 17 18  1  0  0  0
 17101  1  0  0  0
 18 19  2  0  0  0
 18102  1  0  0  0
 19 20  1  0  0  0
 19 24  1  0  0  0
 20 21  2  0  0  0
 20103  1  0  0  0
 21 23  1  0  0  0
 22 28  1  0  0  0
 22 32  2  0  0  0
 26 27  1  0  0  0
 28104  1  0  0  0
 28105  1  0  0  0
 29106  1  0  0  0
 29107  1  0  0  0
 33 34  1  0  0  0
 33 66  1  0  0  0
 33 70  2  0  0  0
 34 36  1  0  0  0
 34 59  1  0  0  0
 34108  1  0  0  0
 35 44  2  0  0  0
 35 45  1  0  0  0
 35 68  1  0  0  0
 36 56  1  0  0  0
 36109  1  0  0  0
 37 39  1  0  0  0
 37 47  1  0  0  0
 37 66  1  0  0  0
 37110  1  0  0  0
 38 43  2  0  0  0
 38 46  1  0  0  0
 38 47  1  0  0  0
 39 64  1  0  0  0
 39 67  2  0  0  0
 40 52  1  0  0  0
 40 53  2  0  0  0
 40 58  1  0  0  0
 41111  1  0  0  0
 41112  1  0  0  0
 41113  1  0  0  0
 41 48  1  0  0  0
 42 43  1  0  0  0
 42 66  1  0  0  0
 42114  1  0  0  0
 42115  1  0  0  0
 43 44  1  0  0  0
 44116  1  0  0  0
 45 46  2  0  0  0
 45117  1  0  0  0
 46118  1  0  0  0
 47119  1  0  0  0
 47120  1  0  0  0
 48 56  1  0  0  0
 48 65  1  0  0  0
 48121  1  0  0  0
 49 50  1  0  0  0
 49 53  1  0  0  0
 49 64  1  0  0  0
 49122  1  0  0  0
 50 51  1  0  0  0
 50123  1  0  0  0
 50124  1  0  0  0
 51 52  1  0  0  0
 51125  1  0  0  0
 51126  1  0  0  0
 52127  1  0  0  0
 52128  1  0  0  0
 53 54  1  0  0  0
 54 55  2  0  0  0
 54129  1  0  0  0
 55 57  1  0  0  0
 55130  1  0  0  0
 56 69  2  0  0  0
 57 58  2  0  0  0
 57131  1  0  0  0
 58132  1  0  0  0
 59 60  1  0  0  0
 59 61  1  0  0  0
 59 62  1  0  0  0
 60133  1  0  0  0
 60134  1  0  0  0
 60135  1  0  0  0
 61136  1  0  0  0
 61137  1  0  0  0
 61138  1  0  0  0
 62139  1  0  0  0
 62140  1  0  0  0
 62141  1  0  0  0
 63 65  1  0  0  0
 63142  1  0  0  0
 63143  1  0  0  0
 63144  1  0  0  0
 64145  1  0  0  0
 65146  1  0  0  0
 68 82  1  0  0  0
 71 72  1  0  0  0
 71 73  2  0  0  0
 71 74  1  0  0  0
 72 78  1  0  0  0
 72 84  2  0  0  0
 73 85  1  0  0  0
 73 86  1  0  0  0
 74147  1  0  0  0
 74148  1  0  0  0
 74149  1  0  0  0
 75150  1  0  0  0
 75151  1  0  0  0
 75152  1  0  0  0
 75 83  1  0  0  0
 76 85  1  0  0  0
 76153  1  0  0  0
 76154  1  0  0  0
 76155  1  0  0  0
 77 86  1  0  0  0
 77156  1  0  0  0
 77157  1  0  0  0
 77158  1  0  0  0
 78 79  1  0  0  0
 78159  1  0  0  0
 78160  1  0  0  0
 79 83  1  0  0  0
 79161  1  0  0  0
 79162  1  0  0  0
 80 81  1  0  0  0
 80 82  1  0  0  0
 80163  1  0  0  0
 80164  1  0  0  0
 81 87  1  0  0  0
 81165  1  0  0  0
 81166  1  0  0  0
 82167  1  0  0  0
 82168  1  0  0  0
 83 87  1  0  0  0
 83169  1  0  0  0
 84 85  1  0  0  0
 87170  1  0  0  0
 87171  1  0  0  0
M  CHG  1  87   1
M  ISO  4   1 100  68 101  82 101  86 100
M  END
> <chiral flag>
0

> <version>
0

> <s_m_source_file>
/data/baiqing/PycharmProjects/Reinvent-master-3.2/result/LINK_invent/BTK/process_docking_weight1_custom_sum_contain_oxygen_bond_distance_aromatic_linkinvent_7_9_3/rearranged_h_0018.sdf

> <i_m_source_file_index>
5

> <r_mmod_Potential_Energy-OPLS-2005>
-149.03923034668

> <r_mmod_Stretch_Energy-OPLS-2005>
31.8312187194824

> <r_mmod_Bend_Energy-OPLS-2005>
114.768966674805

> <r_mmod_Torsional_Energy-OPLS-2005>
289.210845947266

> <r_mmod_Improper_Torsional_Energy-OPLS-2005>
4.23759889602661

> <r_mmod_Van_der_Waal_Energy-OPLS-2005>
119.673896789551

> <r_mmod_Electrostatic_Energy-OPLS-2005>
-275.439636230469

> <r_mmod_Solvation_Energy-OPLS-2005>
-445.472198486328

> <b_mmod_Minimization_Converged-OPLS-2005>
0

> <r_mmod_RMS_Derivative-OPLS-2005>
4.92184591293335

$$$$
6
                    3D
 Structure written by MMmdl.
174182  0  0  1  0            999 V2000
  -30.4801  -14.9297   20.5197 C   0  0  0  0  0  0
  -30.4620  -12.6202   19.4292 C   0  0  0  0  0  0
  -29.4980  -12.5701   18.2137 C   0  0  0  0  0  0
  -28.0331  -12.3320   18.6387 C   0  0  0  0  0  0
  -27.6436  -13.1943   19.8634 C   0  0  2  0  0  0
  -28.7198  -13.0243   20.9642 C   0  0  0  0  0  0
  -25.2395  -13.7957   20.5383 C   0  0  0  0  0  0
  -24.1752  -13.0299   20.9170 C   0  0  0  0  0  0
  -24.6372  -11.6798   20.8815 C   0  0  0  0  0  0
  -23.9025  -10.4229   21.0451 C   0  0  0  0  0  0
  -24.3605   -9.4166   21.9220 C   0  0  0  0  0  0
  -23.6297   -8.2196   22.0763 C   0  0  0  0  0  0
  -22.4277   -8.0263   21.3533 C   0  0  0  0  0  0
  -21.9907   -9.0227   20.4639 C   0  0  0  0  0  0
  -22.7231  -10.2093   20.3068 C   0  0  0  0  0  0
  -21.6844   -6.0739   22.5278 C   0  0  0  0  0  0
  -21.3996   -6.5645   23.8206 C   0  0  0  0  0  0
  -21.3638   -5.6793   24.9165 C   0  0  0  0  0  0
  -21.6049   -4.3064   24.7218 C   0  0  0  0  0  0
  -21.8834   -3.8155   23.4337 C   0  0  0  0  0  0
  -21.9212   -4.6967   22.3392 C   0  0  0  0  0  0
  -22.7794  -13.5128   21.1889 C   0  0  0  0  0  0
  -22.1691   -4.2160   21.0963 F   0  0  0  0  0  0
  -21.5620   -3.4540   25.7724 F   0  0  0  0  0  0
  -29.9456  -13.6279   20.4086 N   0  0  0  0  0  0
  -26.2924  -12.9172   20.3352 N   0  0  0  0  0  0
  -25.9312  -11.6361   20.5905 N   0  0  0  0  0  0
  -22.0478  -12.8094   22.0456 N   0  0  0  0  0  0
  -25.3784  -15.1581   20.3179 N   0  0  0  0  0  0
  -31.6511  -15.0483   20.1325 O   0  0  0  0  0  0
  -21.6640   -6.8874   21.4229 O   0  0  0  0  0  0
  -22.3485  -14.5487   20.6846 O   0  0  0  0  0  0
  -24.6398  -31.8507   23.1864 C   0  0  0  0  0  0
  -25.9161  -32.4764   23.8237 C   0  0  1  0  0  0
  -27.2583  -27.2334   20.1415 C   0  0  0  0  0  0
  -25.5917  -33.8556   24.2205 N   0  0  0  0  0  0
  -23.4386  -30.4666   21.5330 C   0  0  2  0  0  0
  -24.8890  -28.8909   20.1210 C   0  0  0  0  0  0
  -22.7540  -29.4589   22.4919 C   0  0  0  0  0  0
  -18.0289  -28.1439   22.8536 C   0  0  0  0  0  0
  -24.1450  -36.7239   23.2651 C   0  0  0  0  0  0
  -25.9839  -30.7595   21.3597 C   0  0  0  0  0  0
  -26.0634  -29.3678   20.7204 C   0  0  0  0  0  0
  -27.2477  -28.5555   20.7099 C   0  0  0  0  0  0
  -26.0558  -26.8185   19.5276 C   0  0  0  0  0  0
  -24.8908  -27.6251   19.5126 C   0  0  0  0  0  0
  -23.6579  -29.7838   20.1543 C   0  0  0  0  0  0
  -25.4089  -36.3069   24.0343 C   0  0  1  0  0  0
  -20.5929  -28.3714   23.1286 C   0  0  2  0  0  0
  -20.6809  -26.9429   22.5440 C   0  0  0  0  0  0
  -19.5756  -26.6425   21.5265 C   0  0  0  0  0  0
  -18.1928  -26.8002   22.1646 C   0  0  0  0  0  0
  -19.1566  -28.8880   23.2900 C   0  0  0  0  0  0
  -18.9520  -30.1500   23.8899 C   0  0  0  0  0  0
  -17.6516  -30.6649   24.0598 C   0  0  0  0  0  0
  -25.9048  -34.9468   23.5117 C   0  0  0  0  0  0
  -16.5387  -29.9156   23.6361 C   0  0  0  0  0  0
  -16.7289  -28.6585   23.0385 C   0  0  0  0  0  0
  -26.4507  -31.6586   25.0631 C   0  0  0  0  0  0
  -25.3698  -31.3784   26.1320 C   0  0  0  0  0  0
  -27.0345  -30.3025   24.6094 C   0  0  0  0  0  0
  -27.6004  -32.4345   25.7438 C   0  0  0  0  0  0
  -27.5555  -37.1771   24.8494 C   0  0  0  0  0  0
  -21.4249  -29.3041   22.3650 N   0  0  0  0  0  0
  -26.4265  -37.3775   23.9442 N   0  0  0  0  0  0
  -24.7070  -31.0434   22.0846 N   0  0  0  0  0  0
  -23.4215  -28.8170   23.3056 O   0  0  0  0  0  0
  -28.4082  -26.4016   20.0003 O   0  0  0  0  0  0
  -26.5634  -34.8968   22.4680 O   0  0  0  0  0  0
  -23.5512  -32.1309   23.7170 O   0  0  0  0  0  0
  -30.5737  -19.9279   21.8745 C   0  0  0  0  0  0
  -30.1607  -20.0384   19.4209 C   0  0  0  0  0  0
  -31.0452  -18.4240   21.5553 C   0  0  0  0  0  0
  -29.6613  -18.5138   19.3956 C   0  0  0  0  0  0
  -29.8687  -20.8387   20.7481 C   0  0  2  0  0  0
  -30.0379  -17.6487   20.6608 C   0  0  1  0  0  0
  -32.6842  -22.5044   20.9298 C   0  0  0  0  0  0
  -29.0230  -15.8103   23.2180 C   0  0  0  0  0  0
  -27.3327  -17.0621   21.7575 C   0  0  0  0  0  0
  -30.0007  -22.8544   22.3678 C   0  0  0  0  0  0
  -31.3873  -22.9606   20.2339 C   0  0  0  0  0  0
  -28.6714  -25.1197   20.7646 C   0  0  0  0  0  0
  -28.5087  -16.0166   21.7828 C   0  0  0  0  0  0
  -28.9031  -23.5668   20.1995 C   0  0  1  0  0  0
  -30.0218  -22.5157   20.8538 C   0  0  1  0  0  0
  -29.6944  -16.1085   20.8418 N   0  0  0  0  0  0
  -27.7154  -22.9720   20.3346 F   0  0  0  0  0  0
  -31.4648  -12.8654   19.0775 H   0  0  0  0  0  0
  -30.5621  -11.6330   19.8828 H   0  0  0  0  0  0
  -29.8120  -11.8014   17.5055 H   0  0  0  0  0  0
  -29.5548  -13.5176   17.6759 H   0  0  0  0  0  0
  -27.9187  -11.2753   18.8813 H   0  0  0  0  0  0
  -27.3569  -12.5247   17.8047 H   0  0  0  0  0  0
  -27.6504  -14.2258   19.5116 H   0  0  0  0  0  0
  -28.8554  -11.9589   21.1592 H   0  0  0  0  0  0
  -28.4559  -13.3779   21.9569 H   0  0  0  0  0  0
  -25.2746   -9.5654   22.4810 H   0  0  0  0  0  0
  -24.0023   -7.4565   22.7443 H   0  0  0  0  0  0
  -21.0864   -8.8731   19.8925 H   0  0  0  0  0  0
  -22.3711  -10.9646   19.6180 H   0  0  0  0  0  0
  -21.1972   -7.6155   23.9702 H   0  0  0  0  0  0
  -21.1439   -6.0524   25.9060 H   0  0  0  0  0  0
  -22.0643   -2.7628   23.2820 H   0  0  0  0  0  0
  -22.4125  -11.9716   22.4762 H   0  0  0  0  0  0
  -21.1109  -13.1086   22.2765 H   0  0  0  0  0  0
  -24.5921  -15.7924   20.3943 H   0  0  0  0  0  0
  -26.2215  -15.6044   19.9852 H   0  0  0  0  0  0
  -26.7228  -32.5381   23.0934 H   0  0  0  0  0  0
  -25.0033  -33.9669   25.0368 H   0  0  0  0  0  0
  -22.7379  -31.2886   21.3768 H   0  0  0  0  0  0
  -23.3764  -35.9523   23.3357 H   0  0  0  0  0  0
  -24.3560  -36.8829   22.2062 H   0  0  0  0  0  0
  -23.7162  -37.6442   23.6638 H   0  0  0  0  0  0
  -26.1112  -31.5097   20.5773 H   0  0  0  0  0  0
  -26.8666  -30.8178   21.9840 H   0  0  0  0  0  0
  -28.1622  -28.9437   21.1383 H   0  0  0  0  0  0
  -26.0273  -25.8544   19.0435 H   0  0  0  0  0  0
  -23.9937  -27.2632   19.0260 H   0  0  0  0  0  0
  -23.7697  -30.5504   19.3855 H   0  0  0  0  0  0
  -22.7765  -29.2095   19.8633 H   0  0  0  0  0  0
  -25.1288  -36.1881   25.0840 H   0  0  0  0  0  0
  -20.9988  -28.3277   24.1401 H   0  0  0  0  0  0
  -20.5765  -26.2289   23.3645 H   0  0  0  0  0  0
  -21.6667  -26.7499   22.1150 H   0  0  0  0  0  0
  -19.6908  -25.6335   21.1249 H   0  0  0  0  0  0
  -19.6708  -27.3280   20.6829 H   0  0  0  0  0  0
  -17.4216  -26.6796   21.4019 H   0  0  0  0  0  0
  -18.0259  -26.0191   22.9057 H   0  0  0  0  0  0
  -19.7984  -30.7349   24.2238 H   0  0  0  0  0  0
  -17.5069  -31.6319   24.5221 H   0  0  0  0  0  0
  -15.5372  -30.3068   23.7730 H   0  0  0  0  0  0
  -15.8687  -28.0910   22.7056 H   0  0  0  0  0  0
  -24.5874  -30.7127   25.7644 H   0  0  0  0  0  0
  -24.8881  -32.2994   26.4615 H   0  0  0  0  0  0
  -25.7987  -30.9043   27.0159 H   0  0  0  0  0  0
  -26.2913  -29.6765   24.1132 H   0  0  0  0  0  0
  -27.4090  -29.7263   25.4558 H   0  0  0  0  0  0
  -27.8756  -30.4343   23.9287 H   0  0  0  0  0  0
  -27.2566  -33.3676   26.1912 H   0  0  0  0  0  0
  -28.3874  -32.6877   25.0319 H   0  0  0  0  0  0
  -28.0585  -31.8539   26.5448 H   0  0  0  0  0  0
  -28.2586  -38.0049   24.7556 H   0  0  0  0  0  0
  -28.1023  -36.2596   24.6290 H   0  0  0  0  0  0
  -27.2303  -37.1407   25.8906 H   0  0  0  0  0  0
  -20.9453  -29.8701   21.6818 H   0  0  0  0  0  0
  -26.0153  -38.2847   24.1473 H   0  0  0  0  0  0
  -31.4342  -20.4284   22.3103 H   0  0  0  0  0  0
  -29.8579  -19.8567   22.6975 H   0  0  0  0  0  0
  -29.7413  -20.5762   18.5720 H   0  0  0  0  0  0
  -31.2410  -20.0386   19.2513 H   0  0  0  0  0  0
  -31.1532  -17.8912   22.5028 H   0  0  0  0  0  0
  -32.0410  -18.4155   21.1117 H   0  0  0  0  0  0
  -29.9675  -18.0270   18.4686 H   0  0  0  0  0  0
  -28.5735  -18.5573   19.3434 H   0  0  0  0  0  0
  -28.8018  -20.6817   20.9040 H   0  0  0  0  0  0
  -29.2720  -18.1060   21.2378 H   0  0  0  0  0  0
  -32.8463  -21.4336   20.8219 H   0  0  0  0  0  0
  -32.6990  -22.7467   21.9929 H   0  0  0  0  0  0
  -33.5469  -22.9972   20.4808 H   0  0  0  0  0  0
  -28.2175  -15.5824   23.9157 H   0  0  0  0  0  0
  -29.5250  -16.7091   23.5763 H   0  0  0  0  0  0
  -29.7468  -14.9960   23.2724 H   0  0  0  0  0  0
  -26.4481  -16.6456   22.2443 H   0  0  0  0  0  0
  -27.0329  -17.3393   20.7434 H   0  0  0  0  0  0
  -27.5222  -17.9819   22.3169 H   0  0  0  0  0  0
  -30.6556  -22.2425   22.9801 H   0  0  0  0  0  0
  -28.9962  -22.7392   22.7757 H   0  0  0  0  0  0
  -30.3348  -23.8680   22.5735 H   0  0  0  0  0  0
  -31.4346  -22.6435   19.1889 H   0  0  0  0  0  0
  -31.4124  -24.0514   20.1971 H   0  0  0  0  0  0
  -29.6225  -25.3869   21.2178 H   0  0  0  0  0  0
  -27.9787  -25.0786   21.6035 H   0  0  0  0  0  0
  -27.8984  -15.1985   21.4761 H   0  0  0  0  0  0
  -29.0754  -23.6064   19.1226 H   0  0  0  0  0  0
  1 25  1  0  0  0
  1 30  2  0  0  0
  1 86  1  0  0  0
  2  3  1  0  0  0
  2 25  1  0  0  0
  2 88  1  0  0  0
  2 89  1  0  0  0
  3  4  1  0  0  0
  3 90  1  0  0  0
  3 91  1  0  0  0
  4  5  1  0  0  0
  4 92  1  0  0  0
  4 93  1  0  0  0
  5  6  1  0  0  0
  5 26  1  0  0  0
  5 94  1  0  0  0
  6 25  1  0  0  0
  6 95  1  0  0  0
  6 96  1  0  0  0
  7  8  2  0  0  0
  7 26  1  0  0  0
  7 29  1  0  0  0
  8  9  1  0  0  0
  8 22  1  0  0  0
  9 10  1  0  0  0
  9 27  2  0  0  0
 10 11  2  0  0  0
 10 15  1  0  0  0
 11 12  1  0  0  0
 11 97  1  0  0  0
 12 13  2  0  0  0
 12 98  1  0  0  0
 13 14  1  0  0  0
 13 31  1  0  0  0
 14 15  2  0  0  0
 14 99  1  0  0  0
 15100  1  0  0  0
 16 17  2  0  0  0
 16 21  1  0  0  0
 16 31  1  0  0  0
 17 18  1  0  0  0
 17101  1  0  0  0
 18 19  2  0  0  0
 18102  1  0  0  0
 19 20  1  0  0  0
 19 24  1  0  0  0
 20 21  2  0  0  0
 20103  1  0  0  0
 21 23  1  0  0  0
 22 28  1  0  0  0
 22 32  2  0  0  0
 26 27  1  0  0  0
 28104  1  0  0  0
 28105  1  0  0  0
 29106  1  0  0  0
 29107  1  0  0  0
 33 34  1  0  0  0
 33 66  1  0  0  0
 33 70  2  0  0  0
 34 36  1  0  0  0
 34 59  1  0  0  0
 34108  1  0  0  0
 35 44  2  0  0  0
 35 45  1  0  0  0
 35 68  1  0  0  0
 36 56  1  0  0  0
 36109  1  0  0  0
 37 39  1  0  0  0
 37 47  1  0  0  0
 37 66  1  0  0  0
 37110  1  0  0  0
 38 43  2  0  0  0
 38 46  1  0  0  0
 38 47  1  0  0  0
 39 64  1  0  0  0
 39 67  2  0  0  0
 40 52  1  0  0  0
 40 53  2  0  0  0
 40 58  1  0  0  0
 41111  1  0  0  0
 41112  1  0  0  0
 41113  1  0  0  0
 41 48  1  0  0  0
 42 43  1  0  0  0
 42 66  1  0  0  0
 42114  1  0  0  0
 42115  1  0  0  0
 43 44  1  0  0  0
 44116  1  0  0  0
 45 46  2  0  0  0
 45117  1  0  0  0
 46118  1  0  0  0
 47119  1  0  0  0
 47120  1  0  0  0
 48 56  1  0  0  0
 48 65  1  0  0  0
 48121  1  0  0  0
 49 50  1  0  0  0
 49 53  1  0  0  0
 49 64  1  0  0  0
 49122  1  0  0  0
 50 51  1  0  0  0
 50123  1  0  0  0
 50124  1  0  0  0
 51 52  1  0  0  0
 51125  1  0  0  0
 51126  1  0  0  0
 52127  1  0  0  0
 52128  1  0  0  0
 53 54  1  0  0  0
 54 55  2  0  0  0
 54129  1  0  0  0
 55 57  1  0  0  0
 55130  1  0  0  0
 56 69  2  0  0  0
 57 58  2  0  0  0
 57131  1  0  0  0
 58132  1  0  0  0
 59 60  1  0  0  0
 59 61  1  0  0  0
 59 62  1  0  0  0
 60133  1  0  0  0
 60134  1  0  0  0
 60135  1  0  0  0
 61136  1  0  0  0
 61137  1  0  0  0
 61138  1  0  0  0
 62139  1  0  0  0
 62140  1  0  0  0
 62141  1  0  0  0
 63 65  1  0  0  0
 63142  1  0  0  0
 63143  1  0  0  0
 63144  1  0  0  0
 64145  1  0  0  0
 65146  1  0  0  0
 68 82  1  0  0  0
 71 73  1  0  0  0
 71147  1  0  0  0
 71148  1  0  0  0
 71 75  1  0  0  0
 72 74  1  0  0  0
 72 75  1  0  0  0
 72149  1  0  0  0
 72150  1  0  0  0
 73 76  1  0  0  0
 73151  1  0  0  0
 73152  1  0  0  0
 74 76  1  0  0  0
 74153  1  0  0  0
 74154  1  0  0  0
 75 85  1  0  0  0
 75155  1  0  0  0
 76 86  1  0  0  0
 76156  1  0  0  0
 77 81  1  0  0  0
 77157  1  0  0  0
 77158  1  0  0  0
 77159  1  0  0  0
 78160  1  0  0  0
 78161  1  0  0  0
 78162  1  0  0  0
 78 83  1  0  0  0
 79 83  1  0  0  0
 79163  1  0  0  0
 79164  1  0  0  0
 79165  1  0  0  0
 80166  1  0  0  0
 80167  1  0  0  0
 80168  1  0  0  0
 80 85  1  0  0  0
 81 85  1  0  0  0
 81169  1  0  0  0
 81170  1  0  0  0
 82 84  1  0  0  0
 82171  1  0  0  0
 82172  1  0  0  0
 83 86  1  0  0  0
 83173  1  0  0  0
 84 85  1  0  0  0
 84 87  1  0  0  0
 84174  1  0  0  0
M  ISO  4   1 100  68 101  82 101  86 100
M  END
> <chiral flag>
0

> <version>
0

> <s_m_source_file>
/data/baiqing/PycharmProjects/Reinvent-master-3.2/result/LINK_invent/BTK/process_docking_weight1_custom_sum_contain_oxygen_bond_distance_aromatic_linkinvent_7_9_3/rearranged_h_0018.sdf

> <i_m_source_file_index>
6

> <r_mmod_Potential_Energy-OPLS-2005>
915.8037109375

> <r_mmod_Stretch_Energy-OPLS-2005>
241.02278137207

> <r_mmod_Bend_Energy-OPLS-2005>
380.259643554688

> <r_mmod_Torsional_Energy-OPLS-2005>
384.750701904297

> <r_mmod_Improper_Torsional_Energy-OPLS-2005>
6.15883159637451

> <r_mmod_Van_der_Waal_Energy-OPLS-2005>
169.780319213867

> <r_mmod_Electrostatic_Energy-OPLS-2005>
-232.109649658203

> <r_mmod_Solvation_Energy-OPLS-2005>
-168.665191650391

> <b_mmod_Minimization_Converged-OPLS-2005>
0

> <r_mmod_RMS_Derivative-OPLS-2005>
7.14265155792236

$$$$
7
                    3D
 Structure written by MMmdl.
162170  0  0  1  0            999 V2000
  -30.7501  -14.4587   20.6276 C   0  0  0  0  0  0
  -30.4132  -12.3194   19.4321 C   0  0  0  0  0  0
  -29.4947  -12.5128   18.2088 C   0  0  0  0  0  0
  -28.0164  -12.3640   18.6155 C   0  0  0  0  0  0
  -27.6577  -13.2093   19.8645 C   0  0  2  0  0  0
  -28.6907  -13.0051   20.9922 C   0  0  0  0  0  0
  -25.2575  -13.8144   20.5645 C   0  0  0  0  0  0
  -24.1841  -13.0424   20.9152 C   0  0  0  0  0  0
  -24.6387  -11.6888   20.8693 C   0  0  0  0  0  0
  -23.9048  -10.4291   21.0377 C   0  0  0  0  0  0
  -24.3611   -9.4220   21.9162 C   0  0  0  0  0  0
  -23.6290   -8.2259   22.0753 C   0  0  0  0  0  0
  -22.4282   -8.0276   21.3540 C   0  0  0  0  0  0
  -21.9897   -9.0246   20.4646 C   0  0  0  0  0  0
  -22.7212  -10.2124   20.3038 C   0  0  0  0  0  0
  -21.6857   -6.0739   22.5271 C   0  0  0  0  0  0
  -21.4010   -6.5644   23.8205 C   0  0  0  0  0  0
  -21.3662   -5.6800   24.9165 C   0  0  0  0  0  0
  -21.6039   -4.3064   24.7221 C   0  0  0  0  0  0
  -21.8817   -3.8151   23.4346 C   0  0  0  0  0  0
  -21.9198   -4.6963   22.3399 C   0  0  0  0  0  0
  -22.7878  -13.5239   21.1837 C   0  0  0  0  0  0
  -22.1668   -4.2142   21.0979 F   0  0  0  0  0  0
  -21.5632   -3.4548   25.7743 F   0  0  0  0  0  0
  -30.0307  -13.3085   20.4585 N   0  0  0  0  0  0
  -26.2998  -12.9325   20.3274 N   0  0  0  0  0  0
  -25.9308  -11.6481   20.5696 N   0  0  0  0  0  0
  -22.0516  -12.8244   22.0397 N   0  0  0  0  0  0
  -25.4294  -15.1865   20.4099 N   0  0  0  0  0  0
  -31.8205  -14.6373   20.0402 O   0  0  0  0  0  0
  -21.6641   -6.8876   21.4239 O   0  0  0  0  0  0
  -22.3581  -14.5551   20.6700 O   0  0  0  0  0  0
  -24.6169  -31.8680   23.2098 C   0  0  0  0  0  0
  -25.9060  -32.4810   23.8396 C   0  0  1  0  0  0
  -27.2353  -27.4268   20.0852 C   0  0  0  0  0  0
  -25.5907  -33.8612   24.2342 N   0  0  0  0  0  0
  -23.4035  -30.4945   21.5487 C   0  0  2  0  0  0
  -24.8472  -28.9559   20.1174 C   0  0  0  0  0  0
  -22.7402  -29.4694   22.4968 C   0  0  0  0  0  0
  -18.0275  -28.1368   22.8493 C   0  0  0  0  0  0
  -24.1483  -36.7313   23.2640 C   0  0  0  0  0  0
  -25.9347  -30.8268   21.3662 C   0  0  0  0  0  0
  -26.0087  -29.4614   20.7134 C   0  0  0  0  0  0
  -27.2012  -28.7016   20.7004 C   0  0  0  0  0  0
  -26.0512  -26.9427   19.4778 C   0  0  0  0  0  0
  -24.8618  -27.6937   19.5031 C   0  0  0  0  0  0
  -23.6114  -29.8244   20.1648 C   0  0  0  0  0  0
  -25.4098  -36.3103   24.0348 C   0  0  1  0  0  0
  -20.5863  -28.3679   23.1282 C   0  0  2  0  0  0
  -20.6745  -26.9406   22.5394 C   0  0  0  0  0  0
  -19.5734  -26.6383   21.5183 C   0  0  0  0  0  0
  -18.1921  -26.7916   22.1612 C   0  0  0  0  0  0
  -19.1521  -28.8838   23.2894 C   0  0  0  0  0  0
  -18.9456  -30.1433   23.8930 C   0  0  0  0  0  0
  -17.6462  -30.6584   24.0561 C   0  0  0  0  0  0
  -25.9033  -34.9466   23.5141 C   0  0  0  0  0  0
  -16.5356  -29.9095   23.6307 C   0  0  0  0  0  0
  -16.7263  -28.6490   23.0367 C   0  0  0  0  0  0
  -26.4490  -31.6589   25.0731 C   0  0  0  0  0  0
  -25.3766  -31.3702   26.1485 C   0  0  0  0  0  0
  -27.0324  -30.3034   24.6113 C   0  0  0  0  0  0
  -27.6057  -32.4312   25.7497 C   0  0  0  0  0  0
  -27.5578  -37.1805   24.8466 C   0  0  0  0  0  0
  -21.4129  -29.3066   22.3700 N   0  0  0  0  0  0
  -26.4290  -37.3778   23.9412 N   0  0  0  0  0  0
  -24.6697  -31.0775   22.0997 N   0  0  0  0  0  0
  -23.4164  -28.8241   23.3019 O   0  0  0  0  0  0
  -28.4168  -26.7021   20.1076 O   0  0  0  0  0  0
  -26.5585  -34.8912   22.4697 O   0  0  0  0  0  0
  -23.5353  -32.1443   23.7487 O   0  0  0  0  0  0
  -29.0725  -17.3014   20.1793 C   0  0  0  0  0  0
  -31.3189  -18.9872   20.4589 C   0  0  0  0  0  0
  -30.1744  -19.4647   19.7502 C   0  0  0  0  0  0
  -30.2113  -16.8090   20.8456 C   0  0  0  0  0  0
  -29.0448  -18.6073   19.6457 C   0  0  0  0  0  0
  -31.3244  -17.6754   21.0117 C   0  0  0  0  0  0
  -32.5708  -19.8471   20.6493 C   0  0  0  0  0  0
  -30.0170  -15.3187   22.8095 C   0  0  0  0  0  0
  -30.1723  -20.8306   19.0274 C   0  0  0  0  0  0
  -29.7122  -24.5987   19.9410 C   0  0  0  0  0  0
  -29.9212  -23.2988   19.1056 C   0  0  0  0  0  0
  -28.4001  -25.3515   19.6178 C   0  0  0  0  0  0
  -30.1953  -15.4657   21.3586 N   0  0  0  0  0  0
  -29.9082  -22.0235   19.8787 N   0  3  0  0  0  0
  -27.5954  -19.1115   18.8491 Cl  0  0  0  0  0  0
  -32.7149  -17.1378   21.8977 Cl  0  0  0  0  0  0
  -31.4609  -12.3965   19.1353 H   0  0  0  0  0  0
  -30.3053  -11.3107   19.8330 H   0  0  0  0  0  0
  -29.7413  -11.7860   17.4330 H   0  0  0  0  0  0
  -29.6649  -13.4968   17.7708 H   0  0  0  0  0  0
  -27.8337  -11.3083   18.8200 H   0  0  0  0  0  0
  -27.3659  -12.6271   17.7802 H   0  0  0  0  0  0
  -27.7001  -14.2553   19.5591 H   0  0  0  0  0  0
  -28.6640  -11.9751   21.3517 H   0  0  0  0  0  0
  -28.4112  -13.6120   21.8483 H   0  0  0  0  0  0
  -25.2738   -9.5729   22.4749 H   0  0  0  0  0  0
  -23.9999   -7.4663   22.7498 H   0  0  0  0  0  0
  -21.0809   -8.8759   19.8965 H   0  0  0  0  0  0
  -22.3632  -10.9678   19.6173 H   0  0  0  0  0  0
  -21.1986   -7.6150   23.9698 H   0  0  0  0  0  0
  -21.1490   -6.0534   25.9070 H   0  0  0  0  0  0
  -22.0586   -2.7614   23.2846 H   0  0  0  0  0  0
  -22.4136  -11.9901   22.4786 H   0  0  0  0  0  0
  -21.1145  -13.1299   22.2593 H   0  0  0  0  0  0
  -24.6625  -15.8405   20.5174 H   0  0  0  0  0  0
  -26.2795  -15.6239   20.0806 H   0  0  0  0  0  0
  -26.7132  -32.5506   23.1150 H   0  0  0  0  0  0
  -25.0038  -33.9767   25.0475 H   0  0  0  0  0  0
  -22.6948  -31.3130   21.4056 H   0  0  0  0  0  0
  -23.3733  -35.9657   23.3308 H   0  0  0  0  0  0
  -24.3584  -36.8919   22.2054 H   0  0  0  0  0  0
  -23.7246  -37.6527   23.6646 H   0  0  0  0  0  0
  -26.0533  -31.5910   20.5969 H   0  0  0  0  0  0
  -26.8217  -30.8761   21.9861 H   0  0  0  0  0  0
  -28.0961  -29.0874   21.1683 H   0  0  0  0  0  0
  -26.0173  -25.9879   18.9749 H   0  0  0  0  0  0
  -23.9664  -27.2962   19.0450 H   0  0  0  0  0  0
  -23.7255  -30.5964   19.4034 H   0  0  0  0  0  0
  -22.7355  -29.2456   19.8668 H   0  0  0  0  0  0
  -25.1267  -36.1970   25.0843 H   0  0  0  0  0  0
  -20.9968  -28.3243   24.1398 H   0  0  0  0  0  0
  -20.5575  -26.2317   23.3597 H   0  0  0  0  0  0
  -21.6626  -26.7402   22.1238 H   0  0  0  0  0  0
  -19.6899  -25.6292   21.1220 H   0  0  0  0  0  0
  -19.6661  -27.3180   20.6697 H   0  0  0  0  0  0
  -17.4171  -26.6653   21.4031 H   0  0  0  0  0  0
  -18.0357  -26.0044   22.9000 H   0  0  0  0  0  0
  -19.7940  -30.7216   24.2335 H   0  0  0  0  0  0
  -17.5034  -31.6268   24.5155 H   0  0  0  0  0  0
  -15.5362  -30.3023   23.7602 H   0  0  0  0  0  0
  -15.8656  -28.0803   22.7113 H   0  0  0  0  0  0
  -24.5933  -30.7058   25.7837 H   0  0  0  0  0  0
  -24.8976  -32.2862   26.4948 H   0  0  0  0  0  0
  -25.8134  -30.8866   27.0229 H   0  0  0  0  0  0
  -26.2878  -29.6793   24.1170 H   0  0  0  0  0  0
  -27.4102  -29.7277   25.4568 H   0  0  0  0  0  0
  -27.8701  -30.4358   23.9267 H   0  0  0  0  0  0
  -27.2665  -33.3582   26.2128 H   0  0  0  0  0  0
  -28.3840  -32.6925   25.0320 H   0  0  0  0  0  0
  -28.0761  -31.8415   26.5371 H   0  0  0  0  0  0
  -28.2588  -38.0104   24.7487 H   0  0  0  0  0  0
  -28.1076  -36.2630   24.6308 H   0  0  0  0  0  0
  -27.2299  -37.1481   25.8871 H   0  0  0  0  0  0
  -20.9295  -29.8829   21.6953 H   0  0  0  0  0  0
  -26.0181  -38.2861   24.1396 H   0  0  0  0  0  0
  -28.2050  -16.6684   20.0724 H   0  0  0  0  0  0
  -32.6092  -20.7467   20.0405 H   0  0  0  0  0  0
  -33.4665  -19.2782   20.3971 H   0  0  0  0  0  0
  -32.6530  -20.1617   21.6912 H   0  0  0  0  0  0
  -28.9791  -15.5111   23.0832 H   0  0  0  0  0  0
  -30.6263  -16.0344   23.3606 H   0  0  0  0  0  0
  -30.2809  -14.3221   23.1699 H   0  0  0  0  0  0
  -29.4460  -20.8207   18.2152 H   0  0  0  0  0  0
  -31.1223  -20.9581   18.5079 H   0  0  0  0  0  0
  -30.5406  -25.2726   19.7158 H   0  0  0  0  0  0
  -29.7801  -24.4064   21.0115 H   0  0  0  0  0  0
  -30.8821  -23.3733   18.5939 H   0  0  0  0  0  0
  -29.1810  -23.2386   18.3062 H   0  0  0  0  0  0
  -27.5669  -24.7950   20.0518 H   0  0  0  0  0  0
  -28.2537  -25.3827   18.5371 H   0  0  0  0  0  0
  -30.6086  -22.0696   20.6007 H   0  0  0  0  0  0
  -29.0121  -21.9105   20.3210 H   0  0  0  0  0  0
  1 25  1  0  0  0
  1 30  2  0  0  0
  1 83  1  0  0  0
  2  3  1  0  0  0
  2 25  1  0  0  0
  2 87  1  0  0  0
  2 88  1  0  0  0
  3  4  1  0  0  0
  3 89  1  0  0  0
  3 90  1  0  0  0
  4  5  1  0  0  0
  4 91  1  0  0  0
  4 92  1  0  0  0
  5  6  1  0  0  0
  5 26  1  0  0  0
  5 93  1  0  0  0
  6 25  1  0  0  0
  6 94  1  0  0  0
  6 95  1  0  0  0
  7  8  2  0  0  0
  7 26  1  0  0  0
  7 29  1  0  0  0
  8  9  1  0  0  0
  8 22  1  0  0  0
  9 10  1  0  0  0
  9 27  2  0  0  0
 10 11  2  0  0  0
 10 15  1  0  0  0
 11 12  1  0  0  0
 11 96  1  0  0  0
 12 13  2  0  0  0
 12 97  1  0  0  0
 13 14  1  0  0  0
 13 31  1  0  0  0
 14 15  2  0  0  0
 14 98  1  0  0  0
 15 99  1  0  0  0
 16 17  2  0  0  0
 16 21  1  0  0  0
 16 31  1  0  0  0
 17 18  1  0  0  0
 17100  1  0  0  0
 18 19  2  0  0  0
 18101  1  0  0  0
 19 20  1  0  0  0
 19 24  1  0  0  0
 20 21  2  0  0  0
 20102  1  0  0  0
 21 23  1  0  0  0
 22 28  1  0  0  0
 22 32  2  0  0  0
 26 27  1  0  0  0
 28103  1  0  0  0
 28104  1  0  0  0
 29105  1  0  0  0
 29106  1  0  0  0
 33 34  1  0  0  0
 33 66  1  0  0  0
 33 70  2  0  0  0
 34 36  1  0  0  0
 34 59  1  0  0  0
 34107  1  0  0  0
 35 44  2  0  0  0
 35 45  1  0  0  0
 35 68  1  0  0  0
 36 56  1  0  0  0
 36108  1  0  0  0
 37 39  1  0  0  0
 37 47  1  0  0  0
 37 66  1  0  0  0
 37109  1  0  0  0
 38 43  2  0  0  0
 38 46  1  0  0  0
 38 47  1  0  0  0
 39 64  1  0  0  0
 39 67  2  0  0  0
 40 52  1  0  0  0
 40 53  2  0  0  0
 40 58  1  0  0  0
 41110  1  0  0  0
 41111  1  0  0  0
 41112  1  0  0  0
 41 48  1  0  0  0
 42 43  1  0  0  0
 42 66  1  0  0  0
 42113  1  0  0  0
 42114  1  0  0  0
 43 44  1  0  0  0
 44115  1  0  0  0
 45 46  2  0  0  0
 45116  1  0  0  0
 46117  1  0  0  0
 47118  1  0  0  0
 47119  1  0  0  0
 48 56  1  0  0  0
 48 65  1  0  0  0
 48120  1  0  0  0
 49 50  1  0  0  0
 49 53  1  0  0  0
 49 64  1  0  0  0
 49121  1  0  0  0
 50 51  1  0  0  0
 50122  1  0  0  0
 50123  1  0  0  0
 51 52  1  0  0  0
 51124  1  0  0  0
 51125  1  0  0  0
 52126  1  0  0  0
 52127  1  0  0  0
 53 54  1  0  0  0
 54 55  2  0  0  0
 54128  1  0  0  0
 55 57  1  0  0  0
 55129  1  0  0  0
 56 69  2  0  0  0
 57 58  2  0  0  0
 57130  1  0  0  0
 58131  1  0  0  0
 59 60  1  0  0  0
 59 61  1  0  0  0
 59 62  1  0  0  0
 60132  1  0  0  0
 60133  1  0  0  0
 60134  1  0  0  0
 61135  1  0  0  0
 61136  1  0  0  0
 61137  1  0  0  0
 62138  1  0  0  0
 62139  1  0  0  0
 62140  1  0  0  0
 63 65  1  0  0  0
 63141  1  0  0  0
 63142  1  0  0  0
 63143  1  0  0  0
 64144  1  0  0  0
 65145  1  0  0  0
 68 82  1  0  0  0
 71 74  2  0  0  0
 71 75  1  0  0  0
 71146  1  0  0  0
 72 73  1  0  0  0
 72 76  2  0  0  0
 72 77  1  0  0  0
 73 75  2  0  0  0
 73 79  1  0  0  0
 74 76  1  0  0  0
 74 83  1  0  0  0
 75 85  1  0  0  0
 76 86  1  0  0  0
 77147  1  0  0  0
 77148  1  0  0  0
 77149  1  0  0  0
 78 83  1  0  0  0
 78150  1  0  0  0
 78151  1  0  0  0
 78152  1  0  0  0
 79 84  1  0  0  0
 79153  1  0  0  0
 79154  1  0  0  0
 80 81  1  0  0  0
 80 82  1  0  0  0
 80155  1  0  0  0
 80156  1  0  0  0
 81 84  1  0  0  0
 81157  1  0  0  0
 81158  1  0  0  0
 82159  1  0  0  0
 82160  1  0  0  0
 84161  1  0  0  0
 84162  1  0  0  0
M  CHG  1  84   1
M  ISO  4   1 100  68 101  82 101  83 100
M  END
> <chiral flag>
0

> <version>
0

> <s_m_source_file>
/data/baiqing/PycharmProjects/Reinvent-master-3.2/result/LINK_invent/BTK/process_docking_weight1_custom_sum_contain_oxygen_bond_distance_aromatic_linkinvent_7_9_3/rearranged_h_0018.sdf

> <i_m_source_file_index>
7

> <r_mmod_Potential_Energy-OPLS-2005>
-74.1769943237305

> <r_mmod_Stretch_Energy-OPLS-2005>
45.8180694580078

> <r_mmod_Bend_Energy-OPLS-2005>
106.089279174805

> <r_mmod_Torsional_Energy-OPLS-2005>
304.685516357422

> <r_mmod_Improper_Torsional_Energy-OPLS-2005>
4.13460779190063

> <r_mmod_Van_der_Waal_Energy-OPLS-2005>
160.220062255859

> <r_mmod_Electrostatic_Energy-OPLS-2005>
-237.653091430664

> <r_mmod_Solvation_Energy-OPLS-2005>
-469.830383300781

> <b_mmod_Minimization_Converged-OPLS-2005>
0

> <r_mmod_RMS_Derivative-OPLS-2005>
2.39380717277527

$$$$
8
                    3D
 Structure written by MMmdl.
164172  0  0  1  0            999 V2000
  -30.7090  -14.5236   20.4406 C   0  0  0  0  0  0
  -30.4088  -12.2993   19.4546 C   0  0  0  0  0  0
  -29.5007  -12.4736   18.2187 C   0  0  0  0  0  0
  -28.0213  -12.3324   18.6300 C   0  0  0  0  0  0
  -27.6469  -13.2160   19.8535 C   0  0  2  0  0  0
  -28.6952  -13.0821   20.9853 C   0  0  0  0  0  0
  -25.2458  -13.8119   20.5793 C   0  0  0  0  0  0
  -24.1745  -13.0327   20.9195 C   0  0  0  0  0  0
  -24.6388  -11.6847   20.8720 C   0  0  0  0  0  0
  -23.9085  -10.4244   21.0389 C   0  0  0  0  0  0
  -24.3633   -9.4177   21.9173 C   0  0  0  0  0  0
  -23.6299   -8.2229   22.0747 C   0  0  0  0  0  0
  -22.4292   -8.0284   21.3538 C   0  0  0  0  0  0
  -21.9917   -9.0261   20.4645 C   0  0  0  0  0  0
  -22.7254  -10.2123   20.3041 C   0  0  0  0  0  0
  -21.6829   -6.0752   22.5311 C   0  0  0  0  0  0
  -21.3997   -6.5645   23.8257 C   0  0  0  0  0  0
  -21.3671   -5.6782   24.9209 C   0  0  0  0  0  0
  -21.6044   -4.3052   24.7234 C   0  0  0  0  0  0
  -21.8814   -3.8159   23.4352 C   0  0  0  0  0  0
  -21.9181   -4.6983   22.3418 C   0  0  0  0  0  0
  -22.7785  -13.5121   21.1895 C   0  0  0  0  0  0
  -22.1655   -4.2179   21.0990 F   0  0  0  0  0  0
  -21.5644   -3.4542   25.7743 F   0  0  0  0  0  0
  -30.0245  -13.3441   20.4148 N   0  0  0  0  0  0
  -26.2934  -12.9345   20.3299 N   0  0  0  0  0  0
  -25.9302  -11.6492   20.5697 N   0  0  0  0  0  0
  -22.0425  -12.8150   22.0484 N   0  0  0  0  0  0
  -25.3997  -15.1846   20.4629 N   0  0  0  0  0  0
  -31.8982  -14.6012   20.1296 O   0  0  0  0  0  0
  -21.6627   -6.8901   21.4275 O   0  0  0  0  0  0
  -22.3453  -14.5409   20.6728 O   0  0  0  0  0  0
  -24.6170  -31.8680   23.2093 C   0  0  0  0  0  0
  -25.9071  -32.4835   23.8377 C   0  0  1  0  0  0
  -27.2457  -27.4490   20.0970 C   0  0  0  0  0  0
  -25.5887  -33.8616   24.2321 N   0  0  0  0  0  0
  -23.4051  -30.4968   21.5461 C   0  0  2  0  0  0
  -24.8561  -28.9632   20.1129 C   0  0  0  0  0  0
  -22.7398  -29.4698   22.4938 C   0  0  0  0  0  0
  -18.0244  -28.1278   22.8509 C   0  0  0  0  0  0
  -24.1484  -36.7341   23.2635 C   0  0  0  0  0  0
  -25.9315  -30.8359   21.3652 C   0  0  0  0  0  0
  -26.0141  -29.4690   20.7203 C   0  0  0  0  0  0
  -27.2120  -28.7183   20.7160 C   0  0  0  0  0  0
  -26.0748  -26.9570   19.4756 C   0  0  0  0  0  0
  -24.8789  -27.7003   19.4958 C   0  0  0  0  0  0
  -23.6213  -29.8350   20.1592 C   0  0  0  0  0  0
  -25.4082  -36.3127   24.0350 C   0  0  1  0  0  0
  -20.5844  -28.3733   23.1310 C   0  0  2  0  0  0
  -20.6737  -26.9471   22.5426 C   0  0  0  0  0  0
  -19.5706  -26.6365   21.5269 C   0  0  0  0  0  0
  -18.1912  -26.7809   22.1753 C   0  0  0  0  0  0
  -19.1485  -28.8813   23.2845 C   0  0  0  0  0  0
  -18.9393  -30.1460   23.8720 C   0  0  0  0  0  0
  -17.6349  -30.6520   24.0446 C   0  0  0  0  0  0
  -25.8996  -34.9487   23.5127 C   0  0  0  0  0  0
  -16.5263  -29.8964   23.6253 C   0  0  0  0  0  0
  -16.7226  -28.6386   23.0308 C   0  0  0  0  0  0
  -26.4483  -31.6605   25.0707 C   0  0  0  0  0  0
  -25.3718  -31.3738   26.1443 C   0  0  0  0  0  0
  -27.0310  -30.3043   24.6065 C   0  0  0  0  0  0
  -27.6058  -32.4308   25.7469 C   0  0  0  0  0  0
  -27.5576  -37.1826   24.8461 C   0  0  0  0  0  0
  -21.4104  -29.3175   22.3743 N   0  0  0  0  0  0
  -26.4278  -37.3810   23.9413 N   0  0  0  0  0  0
  -24.6676  -31.0809   22.0979 N   0  0  0  0  0  0
  -23.4183  -28.8199   23.2906 O   0  0  0  0  0  0
  -28.3854  -26.6733   20.1176 O   0  0  0  0  0  0
  -26.5585  -34.8954   22.4704 O   0  0  0  0  0  0
  -23.5346  -32.1426   23.7499 O   0  0  0  0  0  0
  -27.5837  -20.1743   20.4981 C   0  0  0  0  0  0
  -27.1543  -18.9340   20.0049 C   0  0  0  0  0  0
  -28.1236  -17.9788   19.6104 C   0  0  0  0  0  0
  -29.4743  -18.1284   20.0238 C   0  0  0  0  0  0
  -29.9039  -19.4195   20.4742 C   0  0  0  0  0  0
  -28.9576  -20.4742   20.6126 C   0  0  0  0  0  0
  -25.6479  -18.6927   19.9140 C   0  0  0  0  0  0
  -27.7284  -16.9037   18.6007 C   0  0  0  0  0  0
  -31.3641  -19.7153   20.8502 C   0  0  0  0  0  0
  -30.4479  -16.9350   19.9210 C   0  0  0  0  0  0
  -29.0946  -24.2617   20.3762 C   0  0  0  0  0  0
  -28.4715  -22.9330   20.8693 C   0  0  0  0  0  0
  -28.2040  -25.4412   20.8309 C   0  0  0  0  0  0
  -29.3916  -21.7894   20.8791 N   0  0  0  0  0  0
  -29.9665  -15.6479   20.4814 N   0  0  0  0  0  0
  -31.4632  -12.3458   19.1752 H   0  0  0  0  0  0
  -30.2697  -11.3066   19.8934 H   0  0  0  0  0  0
  -29.7540  -11.7296   17.4583 H   0  0  0  0  0  0
  -29.6782  -13.4488   17.7646 H   0  0  0  0  0  0
  -27.8553  -11.2818   18.8704 H   0  0  0  0  0  0
  -27.3738  -12.5494   17.7820 H   0  0  0  0  0  0
  -27.6548  -14.2452   19.5008 H   0  0  0  0  0  0
  -28.6634  -12.0770   21.4102 H   0  0  0  0  0  0
  -28.4718  -13.7678   21.8065 H   0  0  0  0  0  0
  -25.2781   -9.5641   22.4729 H   0  0  0  0  0  0
  -24.0021   -7.4598   22.7422 H   0  0  0  0  0  0
  -21.0856   -8.8766   19.8926 H   0  0  0  0  0  0
  -22.3728  -10.9666   19.6139 H   0  0  0  0  0  0
  -21.1964   -7.6149   23.9773 H   0  0  0  0  0  0
  -21.1509   -6.0506   25.9114 H   0  0  0  0  0  0
  -22.0568   -2.7625   23.2840 H   0  0  0  0  0  0
  -22.4030  -11.9843   22.4941 H   0  0  0  0  0  0
  -21.1054  -13.1249   22.2662 H   0  0  0  0  0  0
  -24.6109  -15.8065   20.5988 H   0  0  0  0  0  0
  -26.2495  -15.6756   20.2224 H   0  0  0  0  0  0
  -26.7214  -32.5605   23.1220 H   0  0  0  0  0  0
  -25.0071  -33.9760   25.0492 H   0  0  0  0  0  0
  -22.6892  -31.3037   21.4058 H   0  0  0  0  0  0
  -23.3734  -35.9694   23.3293 H   0  0  0  0  0  0
  -24.3600  -36.8943   22.2052 H   0  0  0  0  0  0
  -23.7263  -37.6554   23.6642 H   0  0  0  0  0  0
  -26.0385  -31.5959   20.5896 H   0  0  0  0  0  0
  -26.8191  -30.8983   21.9794 H   0  0  0  0  0  0
  -28.0981  -29.0938   21.2092 H   0  0  0  0  0  0
  -26.0752  -25.9872   18.9903 H   0  0  0  0  0  0
  -23.9913  -27.3025   19.0239 H   0  0  0  0  0  0
  -23.7416  -30.6173   19.4049 H   0  0  0  0  0  0
  -22.7433  -29.2615   19.8553 H   0  0  0  0  0  0
  -25.1268  -36.1979   25.0845 H   0  0  0  0  0  0
  -20.9965  -28.3312   24.1417 H   0  0  0  0  0  0
  -20.5725  -26.2357   23.3678 H   0  0  0  0  0  0
  -21.6590  -26.7524   22.1188 H   0  0  0  0  0  0
  -19.6554  -27.3273   20.6859 H   0  0  0  0  0  0
  -19.7032  -25.6263   21.1282 H   0  0  0  0  0  0
  -17.4023  -26.6418   21.4338 H   0  0  0  0  0  0
  -18.0567  -25.9968   22.9243 H   0  0  0  0  0  0
  -19.7849  -30.7330   24.2025 H   0  0  0  0  0  0
  -17.4869  -31.6249   24.4913 H   0  0  0  0  0  0
  -15.5207  -30.2796   23.7499 H   0  0  0  0  0  0
  -15.8650  -28.0670   22.7058 H   0  0  0  0  0  0
  -24.5892  -30.7088   25.7800 H   0  0  0  0  0  0
  -24.8921  -32.2905   26.4853 H   0  0  0  0  0  0
  -25.8040  -30.8944   27.0215 H   0  0  0  0  0  0
  -26.2858  -29.6800   24.1123 H   0  0  0  0  0  0
  -27.4106  -29.7293   25.4507 H   0  0  0  0  0  0
  -27.8674  -30.4377   23.9205 H   0  0  0  0  0  0
  -27.2677  -33.3589   26.2067 H   0  0  0  0  0  0
  -28.3850  -32.6849   25.0289 H   0  0  0  0  0  0
  -28.0734  -31.8401   26.5350 H   0  0  0  0  0  0
  -28.2588  -38.0131   24.7489 H   0  0  0  0  0  0
  -28.1076  -36.2645   24.6293 H   0  0  0  0  0  0
  -27.2293  -37.1495   25.8871 H   0  0  0  0  0  0
  -20.9118  -29.9290   21.7437 H   0  0  0  0  0  0
  -26.0167  -38.2885   24.1430 H   0  0  0  0  0  0
  -26.8254  -20.8961   20.7457 H   0  0  0  0  0  0
  -25.3518  -17.9891   19.1388 H   0  0  0  0  0  0
  -25.1107  -19.6247   19.7234 H   0  0  0  0  0  0
  -25.2848  -18.3131   20.8697 H   0  0  0  0  0  0
  -28.4871  -16.1501   18.4048 H   0  0  0  0  0  0
  -27.5570  -17.3944   17.6441 H   0  0  0  0  0  0
  -26.8071  -16.4008   18.8446 H   0  0  0  0  0  0
  -32.1055  -19.0531   20.4099 H   0  0  0  0  0  0
  -31.4732  -19.6913   21.9302 H   0  0  0  0  0  0
  -31.6641  -20.7071   20.5270 H   0  0  0  0  0  0
  -30.6700  -16.8025   18.8573 H   0  0  0  0  0  0
  -31.3970  -17.1282   20.4131 H   0  0  0  0  0  0
  -29.1695  -24.2393   19.2851 H   0  0  0  0  0  0
  -30.1105  -24.3938   20.7479 H   0  0  0  0  0  0
  -27.5928  -22.7475   20.2542 H   0  0  0  0  0  0
  -28.1085  -23.0599   21.8863 H   0  0  0  0  0  0
  -28.3808  -25.6338   21.8936 H   0  0  0  0  0  0
  -27.1695  -25.1030   20.7605 H   0  0  0  0  0  0
  -30.3902  -21.9749   20.8720 H   0  0  0  0  0  0
  -28.9849  -15.5789   20.6938 H   0  0  0  0  0  0
  1 25  1  0  0  0
  1 30  2  0  0  0
  1 85  1  0  0  0
  2  3  1  0  0  0
  2 25  1  0  0  0
  2 86  1  0  0  0
  2 87  1  0  0  0
  3  4  1  0  0  0
  3 88  1  0  0  0
  3 89  1  0  0  0
  4  5  1  0  0  0
  4 90  1  0  0  0
  4 91  1  0  0  0
  5  6  1  0  0  0
  5 26  1  0  0  0
  5 92  1  0  0  0
  6 25  1  0  0  0
  6 93  1  0  0  0
  6 94  1  0  0  0
  7  8  2  0  0  0
  7 26  1  0  0  0
  7 29  1  0  0  0
  8  9  1  0  0  0
  8 22  1  0  0  0
  9 10  1  0  0  0
  9 27  2  0  0  0
 10 11  2  0  0  0
 10 15  1  0  0  0
 11 12  1  0  0  0
 11 95  1  0  0  0
 12 13  2  0  0  0
 12 96  1  0  0  0
 13 14  1  0  0  0
 13 31  1  0  0  0
 14 15  2  0  0  0
 14 97  1  0  0  0
 15 98  1  0  0  0
 16 17  2  0  0  0
 16 21  1  0  0  0
 16 31  1  0  0  0
 17 18  1  0  0  0
 17 99  1  0  0  0
 18 19  2  0  0  0
 18100  1  0  0  0
 19 20  1  0  0  0
 19 24  1  0  0  0
 20 21  2  0  0  0
 20101  1  0  0  0
 21 23  1  0  0  0
 22 28  1  0  0  0
 22 32  2  0  0  0
 26 27  1  0  0  0
 28102  1  0  0  0
 28103  1  0  0  0
 29104  1  0  0  0
 29105  1  0  0  0
 33 34  1  0  0  0
 33 66  1  0  0  0
 33 70  2  0  0  0
 34 36  1  0  0  0
 34 59  1  0  0  0
 34106  1  0  0  0
 35 44  2  0  0  0
 35 45  1  0  0  0
 35 68  1  0  0  0
 36 56  1  0  0  0
 36107  1  0  0  0
 37 39  1  0  0  0
 37 47  1  0  0  0
 37 66  1  0  0  0
 37108  1  0  0  0
 38 43  2  0  0  0
 38 46  1  0  0  0
 38 47  1  0  0  0
 39 64  1  0  0  0
 39 67  2  0  0  0
 40 52  1  0  0  0
 40 53  2  0  0  0
 40 58  1  0  0  0
 41109  1  0  0  0
 41110  1  0  0  0
 41111  1  0  0  0
 41 48  1  0  0  0
 42 43  1  0  0  0
 42 66  1  0  0  0
 42112  1  0  0  0
 42113  1  0  0  0
 43 44  1  0  0  0
 44114  1  0  0  0
 45 46  2  0  0  0
 45115  1  0  0  0
 46116  1  0  0  0
 47117  1  0  0  0
 47118  1  0  0  0
 48 56  1  0  0  0
 48 65  1  0  0  0
 48119  1  0  0  0
 49 50  1  0  0  0
 49 53  1  0  0  0
 49 64  1  0  0  0
 49120  1  0  0  0
 50 51  1  0  0  0
 50121  1  0  0  0
 50122  1  0  0  0
 51 52  1  0  0  0
 51123  1  0  0  0
 51124  1  0  0  0
 52125  1  0  0  0
 52126  1  0  0  0
 53 54  1  0  0  0
 54 55  2  0  0  0
 54127  1  0  0  0
 55 57  1  0  0  0
 55128  1  0  0  0
 56 69  2  0  0  0
 57 58  2  0  0  0
 57129  1  0  0  0
 58130  1  0  0  0
 59 60  1  0  0  0
 59 61  1  0  0  0
 59 62  1  0  0  0
 60131  1  0  0  0
 60132  1  0  0  0
 60133  1  0  0  0
 61134  1  0  0  0
 61135  1  0  0  0
 61136  1  0  0  0
 62137  1  0  0  0
 62138  1  0  0  0
 62139  1  0  0  0
 63 65  1  0  0  0
 63140  1  0  0  0
 63141  1  0  0  0
 63142  1  0  0  0
 64143  1  0  0  0
 65144  1  0  0  0
 68 83  1  0  0  0
 71 72  2  0  0  0
 71 76  1  0  0  0
 71145  1  0  0  0
 72 73  1  0  0  0
 72 77  1  0  0  0
 73 74  2  0  0  0
 73 78  1  0  0  0
 74 75  1  0  0  0
 74 80  1  0  0  0
 75 76  2  0  0  0
 75 79  1  0  0  0
 76 84  1  0  0  0
 77146  1  0  0  0
 77147  1  0  0  0
 77148  1  0  0  0
 78149  1  0  0  0
 78150  1  0  0  0
 78151  1  0  0  0
 79152  1  0  0  0
 79153  1  0  0  0
 79154  1  0  0  0
 80 85  1  0  0  0
 80155  1  0  0  0
 80156  1  0  0  0
 81 82  1  0  0  0
 81 83  1  0  0  0
 81157  1  0  0  0
 81158  1  0  0  0
 82 84  1  0  0  0
 82159  1  0  0  0
 82160  1  0  0  0
 83161  1  0  0  0
 83162  1  0  0  0
 84163  1  0  0  0
 85164  1  0  0  0
M  ISO  4   1 100  68 101  83 101  85 100
M  END
> <chiral flag>
0

> <version>
0

> <s_m_source_file>
/data/baiqing/PycharmProjects/Reinvent-master-3.2/result/LINK_invent/BTK/process_docking_weight1_custom_sum_contain_oxygen_bond_distance_aromatic_linkinvent_7_9_3/rearranged_h_0018.sdf

> <i_m_source_file_index>
8

> <r_mmod_Potential_Energy-OPLS-2005>
-30.301965713501

> <r_mmod_Stretch_Energy-OPLS-2005>
43.0917930603027

> <r_mmod_Bend_Energy-OPLS-2005>
114.590682983398

> <r_mmod_Torsional_Energy-OPLS-2005>
265.766052246094

> <r_mmod_Improper_Torsional_Energy-OPLS-2005>
10.3715143203735

> <r_mmod_Van_der_Waal_Energy-OPLS-2005>
174.376266479492

> <r_mmod_Electrostatic_Energy-OPLS-2005>
-455.908752441406

> <r_mmod_Solvation_Energy-OPLS-2005>
-207.270614624023

> <b_mmod_Minimization_Converged-OPLS-2005>
0

> <r_mmod_RMS_Derivative-OPLS-2005>
8.97075462341309

$$$$
9
                    3D
 Structure written by MMmdl.
159167  0  0  1  0            999 V2000
  -30.3749  -15.4720   20.2995 C   0  0  0  0  0  0
  -30.4375  -12.9636   19.4959 C   0  0  0  0  0  0
  -29.5393  -12.5945   18.2863 C   0  0  0  0  0  0
  -28.1041  -12.2751   18.7395 C   0  0  0  0  0  0
  -27.6019  -13.2747   19.8077 C   0  0  2  0  0  0
  -28.6402  -13.5716   20.9104 C   0  0  0  0  0  0
  -25.2380  -13.8187   20.5943 C   0  0  0  0  0  0
  -24.1712  -13.0370   20.9290 C   0  0  0  0  0  0
  -24.6396  -11.6889   20.8744 C   0  0  0  0  0  0
  -23.9098  -10.4268   21.0394 C   0  0  0  0  0  0
  -24.3626   -9.4196   21.9195 C   0  0  0  0  0  0
  -23.6300   -8.2231   22.0755 C   0  0  0  0  0  0
  -22.4285   -8.0294   21.3538 C   0  0  0  0  0  0
  -21.9923   -9.0262   20.4632 C   0  0  0  0  0  0
  -22.7264  -10.2128   20.3054 C   0  0  0  0  0  0
  -21.6851   -6.0755   22.5282 C   0  0  0  0  0  0
  -21.4021   -6.5648   23.8219 C   0  0  0  0  0  0
  -21.3659   -5.6793   24.9177 C   0  0  0  0  0  0
  -21.6046   -4.3058   24.7218 C   0  0  0  0  0  0
  -21.8820   -3.8157   23.4337 C   0  0  0  0  0  0
  -21.9188   -4.6983   22.3400 C   0  0  0  0  0  0
  -22.7729  -13.5125   21.1909 C   0  0  0  0  0  0
  -22.1657   -4.2174   21.0979 F   0  0  0  0  0  0
  -21.5621   -3.4534   25.7724 F   0  0  0  0  0  0
  -29.8232  -14.1393   20.2310 N   0  0  0  0  0  0
  -26.2810  -12.9490   20.3277 N   0  0  0  0  0  0
  -25.9340  -11.6593   20.5694 N   0  0  0  0  0  0
  -22.0359  -12.8125   22.0452 N   0  0  0  0  0  0
  -25.3955  -15.1927   20.4697 N   0  0  0  0  0  0
  -31.6186  -15.4144   20.3011 O   0  0  0  0  0  0
  -21.6633   -6.8907   21.4256 O   0  0  0  0  0  0
  -22.3427  -14.5418   20.6716 O   0  0  0  0  0  0
  -24.6720  -31.8131   23.1616 C   0  0  0  0  0  0
  -25.9351  -32.4535   23.8117 C   0  0  1  0  0  0
  -27.2362  -26.8312   20.2052 C   0  0  0  0  0  0
  -25.5976  -33.8354   24.2019 N   0  0  0  0  0  0
  -23.4931  -30.4178   21.5115 C   0  0  2  0  0  0
  -24.9522  -28.7817   20.1151 C   0  0  0  0  0  0
  -22.7714  -29.4370   22.4741 C   0  0  0  0  0  0
  -18.0329  -28.1412   22.8464 C   0  0  0  0  0  0
  -24.1485  -36.7191   23.2651 C   0  0  0  0  0  0
  -26.0667  -30.5877   21.4060 C   0  0  0  0  0  0
  -26.1362  -29.1650   20.7570 C   0  0  0  0  0  0
  -27.2668  -28.2134   20.7752 C   0  0  0  0  0  0
  -26.0229  -26.6235   19.5084 C   0  0  0  0  0  0
  -24.9273  -27.5328   19.4681 C   0  0  0  0  0  0
  -23.7413  -29.7224   20.1415 C   0  0  0  0  0  0
  -25.4126  -36.2946   24.0298 C   0  0  1  0  0  0
  -20.5958  -28.3756   23.1171 C   0  0  2  0  0  0
  -20.6798  -26.9427   22.5395 C   0  0  0  0  0  0
  -19.5765  -26.6368   21.5214 C   0  0  0  0  0  0
  -18.1954  -26.7941   22.1624 C   0  0  0  0  0  0
  -19.1597  -28.8910   23.2807 C   0  0  0  0  0  0
  -18.9502  -30.1492   23.8844 C   0  0  0  0  0  0
  -17.6497  -30.6600   24.0553 C   0  0  0  0  0  0
  -25.9103  -34.9327   23.4997 C   0  0  0  0  0  0
  -16.5386  -29.9080   23.6346 C   0  0  0  0  0  0
  -16.7314  -28.6503   23.0369 C   0  0  0  0  0  0
  -26.4566  -31.6517   25.0684 C   0  0  0  0  0  0
  -25.3663  -31.3800   26.1328 C   0  0  0  0  0  0
  -27.0479  -30.2874   24.6472 C   0  0  0  0  0  0
  -27.6047  -32.4337   25.7487 C   0  0  0  0  0  0
  -27.5568  -37.1760   24.8469 C   0  0  0  0  0  0
  -21.4373  -29.3035   22.3520 N   0  0  0  0  0  0
  -26.4273  -37.3683   23.9415 N   0  0  0  0  0  0
  -24.7660  -30.9689   22.0799 N   0  0  0  0  0  0
  -23.4222  -28.7969   23.3035 O   0  0  0  0  0  0
  -28.2301  -25.6842   20.3044 O   0  0  0  0  0  0
  -26.5729  -34.8885   22.4602 O   0  0  0  0  0  0
  -23.5761  -32.1143   23.6634 O   0  0  0  0  0  0
  -29.9623  -21.4490   19.7145 C   0  0  0  0  0  0
  -27.9514  -20.9371   20.7712 C   0  0  0  0  0  0
  -29.9742  -19.7630   19.3770 C   0  0  0  0  0  0
  -28.5973  -19.4201   21.2388 C   0  0  0  0  0  0
  -28.7929  -22.3436   20.4972 C   0  0  2  0  0  0
  -29.7410  -18.5018   20.4472 C   0  0  1  0  0  0
  -27.0517  -17.9002   17.4829 C   0  0  0  0  0  0
  -28.0436  -24.0127   20.0592 C   0  0  0  0  0  0
  -27.5118  -17.1094   18.7150 C   0  0  0  0  0  0
  -29.0246  -16.8086   18.7387 C   0  0  0  0  0  0
  -29.6295  -16.8024   20.0906 N   0  0  0  0  0  0
  -31.4318  -13.2190   19.1278 H   0  0  0  0  0  0
  -30.5799  -12.1101   20.1619 H   0  0  0  0  0  0
  -29.9616  -11.7518   17.7371 H   0  0  0  0  0  0
  -29.5174  -13.4317   17.5864 H   0  0  0  0  0  0
  -28.1037  -11.2669   19.1559 H   0  0  0  0  0  0
  -27.4290  -12.2525   17.8836 H   0  0  0  0  0  0
  -27.4739  -14.1955   19.2488 H   0  0  0  0  0  0
  -28.8783  -12.6864   21.5010 H   0  0  0  0  0  0
  -28.2440  -14.3155   21.6032 H   0  0  0  0  0  0
  -25.2778   -9.5661   22.4764 H   0  0  0  0  0  0
  -24.0005   -7.4623   22.7479 H   0  0  0  0  0  0
  -21.0847   -8.8801   19.8944 H   0  0  0  0  0  0
  -22.3758  -10.9670   19.6152 H   0  0  0  0  0  0
  -21.2036   -7.6153   23.9732 H   0  0  0  0  0  0
  -21.1461   -6.0516   25.9077 H   0  0  0  0  0  0
  -22.0596   -2.7622   23.2819 H   0  0  0  0  0  0
  -22.3948  -11.9808   22.4891 H   0  0  0  0  0  0
  -21.0985  -13.1177   22.2629 H   0  0  0  0  0  0
  -24.6241  -15.8387   20.5975 H   0  0  0  0  0  0
  -26.2575  -15.6516   20.2101 H   0  0  0  0  0  0
  -26.7440  -32.5051   23.0845 H   0  0  0  0  0  0
  -25.0059  -33.9405   25.0132 H   0  0  0  0  0  0
  -22.8128  -31.2525   21.3303 H   0  0  0  0  0  0
  -23.3766  -35.9507   23.3266 H   0  0  0  0  0  0
  -24.3571  -36.8878   22.2079 H   0  0  0  0  0  0
  -23.7227  -37.6357   23.6735 H   0  0  0  0  0  0
  -26.2543  -31.3180   20.6183 H   0  0  0  0  0  0
  -26.9256  -30.6547   22.0617 H   0  0  0  0  0  0
  -28.1577  -28.5075   21.3123 H   0  0  0  0  0  0
  -25.8888  -25.6729   19.0102 H   0  0  0  0  0  0
  -24.0350  -27.2319   18.9378 H   0  0  0  0  0  0
  -23.9100  -30.4879   19.3824 H   0  0  0  0  0  0
  -22.8486  -29.1827   19.8182 H   0  0  0  0  0  0
  -25.1332  -36.1732   25.0789 H   0  0  0  0  0  0
  -21.0052  -28.3360   24.1293 H   0  0  0  0  0  0
  -20.5652  -26.2384   23.3646 H   0  0  0  0  0  0
  -21.6668  -26.7371   22.1226 H   0  0  0  0  0  0
  -19.6911  -25.6261   21.1286 H   0  0  0  0  0  0
  -19.6705  -27.3149   20.6720 H   0  0  0  0  0  0
  -17.4221  -26.6691   21.4025 H   0  0  0  0  0  0
  -18.0343  -26.0091   22.9029 H   0  0  0  0  0  0
  -19.7978  -30.7329   24.2189 H   0  0  0  0  0  0
  -17.5044  -31.6274   24.5170 H   0  0  0  0  0  0
  -15.5378  -30.2974   23.7693 H   0  0  0  0  0  0
  -15.8712  -28.0806   22.7104 H   0  0  0  0  0  0
  -24.5849  -30.7142   25.7643 H   0  0  0  0  0  0
  -24.8844  -32.3007   26.4619 H   0  0  0  0  0  0
  -25.7871  -30.9052   27.0199 H   0  0  0  0  0  0
  -26.3162  -29.6524   24.1463 H   0  0  0  0  0  0
  -27.3978  -29.7267   25.5151 H   0  0  0  0  0  0
  -27.9113  -30.4052   23.9922 H   0  0  0  0  0  0
  -27.2620  -33.3689   26.1921 H   0  0  0  0  0  0
  -28.3934  -32.6808   25.0371 H   0  0  0  0  0  0
  -28.0630  -31.8551   26.5517 H   0  0  0  0  0  0
  -28.2574  -38.0069   24.7526 H   0  0  0  0  0  0
  -28.1079  -36.2604   24.6283 H   0  0  0  0  0  0
  -27.2298  -37.1385   25.8875 H   0  0  0  0  0  0
  -20.9647  -29.8754   21.6668 H   0  0  0  0  0  0
  -26.0114  -38.2739   24.1417 H   0  0  0  0  0  0
  -30.1269  -21.9507   18.7603 H   0  0  0  0  0  0
  -30.8879  -21.6388   20.2596 H   0  0  0  0  0  0
  -27.2033  -21.1827   21.5247 H   0  0  0  0  0  0
  -27.3572  -20.7552   19.8740 H   0  0  0  0  0  0
  -30.9189  -19.5606   18.8705 H   0  0  0  0  0  0
  -29.2310  -19.6496   18.5920 H   0  0  0  0  0  0
  -27.7461  -18.7691   21.4357 H   0  0  0  0  0  0
  -29.0109  -19.5831   22.2340 H   0  0  0  0  0  0
  -29.2219  -22.5583   21.4769 H   0  0  0  0  0  0
  -30.6228  -18.5200   21.0892 H   0  0  0  0  0  0
  -27.3748  -18.9397   17.5256 H   0  0  0  0  0  0
  -25.9626  -17.9047   17.4215 H   0  0  0  0  0  0
  -27.4345  -17.4689   16.5571 H   0  0  0  0  0  0
  -27.0251  -23.8875   20.4262 H   0  0  0  0  0  0
  -27.9286  -23.9547   18.9766 H   0  0  0  0  0  0
  -26.9711  -16.1709   18.6957 H   0  0  0  0  0  0
  -27.1851  -17.6286   19.6142 H   0  0  0  0  0  0
  -29.5626  -17.5200   18.1147 H   0  0  0  0  0  0
  -29.1826  -15.8708   18.2009 H   0  0  0  0  0  0
  1 25  1  0  0  0
  1 30  2  0  0  0
  1 81  1  0  0  0
  2  3  1  0  0  0
  2 25  1  0  0  0
  2 82  1  0  0  0
  2 83  1  0  0  0
  3  4  1  0  0  0
  3 84  1  0  0  0
  3 85  1  0  0  0
  4  5  1  0  0  0
  4 86  1  0  0  0
  4 87  1  0  0  0
  5  6  1  0  0  0
  5 26  1  0  0  0
  5 88  1  0  0  0
  6 25  1  0  0  0
  6 89  1  0  0  0
  6 90  1  0  0  0
  7  8  2  0  0  0
  7 26  1  0  0  0
  7 29  1  0  0  0
  8  9  1  0  0  0
  8 22  1  0  0  0
  9 10  1  0  0  0
  9 27  2  0  0  0
 10 11  2  0  0  0
 10 15  1  0  0  0
 11 12  1  0  0  0
 11 91  1  0  0  0
 12 13  2  0  0  0
 12 92  1  0  0  0
 13 14  1  0  0  0
 13 31  1  0  0  0
 14 15  2  0  0  0
 14 93  1  0  0  0
 15 94  1  0  0  0
 16 17  2  0  0  0
 16 21  1  0  0  0
 16 31  1  0  0  0
 17 18  1  0  0  0
 17 95  1  0  0  0
 18 19  2  0  0  0
 18 96  1  0  0  0
 19 20  1  0  0  0
 19 24  1  0  0  0
 20 21  2  0  0  0
 20 97  1  0  0  0
 21 23  1  0  0  0
 22 28  1  0  0  0
 22 32  2  0  0  0
 26 27  1  0  0  0
 28 98  1  0  0  0
 28 99  1  0  0  0
 29100  1  0  0  0
 29101  1  0  0  0
 33 34  1  0  0  0
 33 66  1  0  0  0
 33 70  2  0  0  0
 34 36  1  0  0  0
 34 59  1  0  0  0
 34102  1  0  0  0
 35 44  2  0  0  0
 35 45  1  0  0  0
 35 68  1  0  0  0
 36 56  1  0  0  0
 36103  1  0  0  0
 37 39  1  0  0  0
 37 47  1  0  0  0
 37 66  1  0  0  0
 37104  1  0  0  0
 38 43  2  0  0  0
 38 46  1  0  0  0
 38 47  1  0  0  0
 39 64  1  0  0  0
 39 67  2  0  0  0
 40 52  1  0  0  0
 40 53  2  0  0  0
 40 58  1  0  0  0
 41105  1  0  0  0
 41106  1  0  0  0
 41107  1  0  0  0
 41 48  1  0  0  0
 42 43  1  0  0  0
 42 66  1  0  0  0
 42108  1  0  0  0
 42109  1  0  0  0
 43 44  1  0  0  0
 44110  1  0  0  0
 45 46  2  0  0  0
 45111  1  0  0  0
 46112  1  0  0  0
 47113  1  0  0  0
 47114  1  0  0  0
 48 56  1  0  0  0
 48 65  1  0  0  0
 48115  1  0  0  0
 49 50  1  0  0  0
 49 53  1  0  0  0
 49 64  1  0  0  0
 49116  1  0  0  0
 50 51  1  0  0  0
 50117  1  0  0  0
 50118  1  0  0  0
 51 52  1  0  0  0
 51119  1  0  0  0
 51120  1  0  0  0
 52121  1  0  0  0
 52122  1  0  0  0
 53 54  1  0  0  0
 54 55  2  0  0  0
 54123  1  0  0  0
 55 57  1  0  0  0
 55124  1  0  0  0
 56 69  2  0  0  0
 57 58  2  0  0  0
 57125  1  0  0  0
 58126  1  0  0  0
 59 60  1  0  0  0
 59 61  1  0  0  0
 59 62  1  0  0  0
 60127  1  0  0  0
 60128  1  0  0  0
 60129  1  0  0  0
 61130  1  0  0  0
 61131  1  0  0  0
 61132  1  0  0  0
 62133  1  0  0  0
 62134  1  0  0  0
 62135  1  0  0  0
 63 65  1  0  0  0
 63136  1  0  0  0
 63137  1  0  0  0
 63138  1  0  0  0
 64139  1  0  0  0
 65140  1  0  0  0
 68 78  1  0  0  0
 71 73  1  0  0  0
 71 75  1  0  0  0
 71141  1  0  0  0
 71142  1  0  0  0
 72 74  1  0  0  0
 72 75  1  0  0  0
 72143  1  0  0  0
 72144  1  0  0  0
 73 76  1  0  0  0
 73145  1  0  0  0
 73146  1  0  0  0
 74 76  1  0  0  0
 74147  1  0  0  0
 74148  1  0  0  0
 75 78  1  0  0  0
 75149  1  0  0  0
 76 81  1  0  0  0
 76150  1  0  0  0
 77 79  1  0  0  0
 77151  1  0  0  0
 77152  1  0  0  0
 77153  1  0  0  0
 78154  1  0  0  0
 78155  1  0  0  0
 79 80  1  0  0  0
 79156  1  0  0  0
 79157  1  0  0  0
 80 81  1  0  0  0
 80158  1  0  0  0
 80159  1  0  0  0
M  ISO  4   1 100  68 101  78 101  81 100
M  END
> <chiral flag>
0

> <version>
0

> <s_m_source_file>
/data/baiqing/PycharmProjects/Reinvent-master-3.2/result/LINK_invent/BTK/process_docking_weight1_custom_sum_contain_oxygen_bond_distance_aromatic_linkinvent_7_9_3/rearranged_h_0018.sdf

> <i_m_source_file_index>
9

> <r_mmod_Potential_Energy-OPLS-2005>
2124.1875

> <r_mmod_Stretch_Energy-OPLS-2005>
769.725952148438

> <r_mmod_Bend_Energy-OPLS-2005>
628.220703125

> <r_mmod_Torsional_Energy-OPLS-2005>
370.699462890625

> <r_mmod_Improper_Torsional_Energy-OPLS-2005>
9.67863082885742

> <r_mmod_Van_der_Waal_Energy-OPLS-2005>
117.394889831543

> <r_mmod_Electrostatic_Energy-OPLS-2005>
-257.135925292969

> <r_mmod_Solvation_Energy-OPLS-2005>
-188.627365112305

> <b_mmod_Minimization_Converged-OPLS-2005>
0

> <r_mmod_RMS_Derivative-OPLS-2005>
2.53482246398926

$$$$
10
                    3D
 Structure written by MMmdl.
165173  0  0  1  0            999 V2000
  -30.5292  -14.9718   20.4386 C   0  0  0  0  0  0
  -30.4425  -12.6067   19.4958 C   0  0  0  0  0  0
  -29.5211  -12.5330   18.2559 C   0  0  0  0  0  0
  -28.0569  -12.3101   18.6784 C   0  0  0  0  0  0
  -27.6291  -13.2473   19.8375 C   0  0  2  0  0  0
  -28.6718  -13.2820   20.9745 C   0  0  0  0  0  0
  -25.2468  -13.8210   20.5714 C   0  0  0  0  0  0
  -24.1784  -13.0434   20.9232 C   0  0  0  0  0  0
  -24.6399  -11.6920   20.8762 C   0  0  0  0  0  0
  -23.9084  -10.4290   21.0417 C   0  0  0  0  0  0
  -24.3630   -9.4204   21.9194 C   0  0  0  0  0  0
  -23.6300   -8.2243   22.0761 C   0  0  0  0  0  0
  -22.4284   -8.0285   21.3547 C   0  0  0  0  0  0
  -21.9924   -9.0260   20.4648 C   0  0  0  0  0  0
  -22.7258  -10.2135   20.3062 C   0  0  0  0  0  0
  -21.6853   -6.0740   22.5279 C   0  0  0  0  0  0
  -21.4015   -6.5644   23.8212 C   0  0  0  0  0  0
  -21.3658   -5.6797   24.9174 C   0  0  0  0  0  0
  -21.6042   -4.3059   24.7224 C   0  0  0  0  0  0
  -21.8819   -3.8152   23.4346 C   0  0  0  0  0  0
  -21.9192   -4.6968   22.3403 C   0  0  0  0  0  0
  -22.7805  -13.5209   21.1880 C   0  0  0  0  0  0
  -22.1662   -4.2155   21.0980 F   0  0  0  0  0  0
  -21.5626   -3.4541   25.7737 F   0  0  0  0  0  0
  -29.9432  -13.7058   20.3733 N   0  0  0  0  0  0
  -26.2888  -12.9439   20.3249 N   0  0  0  0  0  0
  -25.9330  -11.6568   20.5746 N   0  0  0  0  0  0
  -22.0447  -12.8197   22.0428 N   0  0  0  0  0  0
  -25.4119  -15.1938   20.4120 N   0  0  0  0  0  0
  -31.7230  -15.0421   20.1290 O   0  0  0  0  0  0
  -21.6642   -6.8886   21.4243 O   0  0  0  0  0  0
  -22.3493  -14.5514   20.6724 O   0  0  0  0  0  0
  -24.6459  -31.8408   23.1863 C   0  0  0  0  0  0
  -25.9222  -32.4675   23.8259 C   0  0  1  0  0  0
  -27.2165  -27.1096   20.1545 C   0  0  0  0  0  0
  -25.5960  -33.8483   24.2170 N   0  0  0  0  0  0
  -23.4515  -30.4598   21.5313 C   0  0  2  0  0  0
  -24.9012  -28.8825   20.1075 C   0  0  0  0  0  0
  -22.7580  -29.4531   22.4840 C   0  0  0  0  0  0
  -18.0307  -28.1389   22.8469 C   0  0  0  0  0  0
  -24.1488  -36.7244   23.2646 C   0  0  0  0  0  0
  -26.0094  -30.7051   21.3912 C   0  0  0  0  0  0
  -26.0786  -29.3148   20.7306 C   0  0  0  0  0  0
  -27.2357  -28.4445   20.7369 C   0  0  0  0  0  0
  -26.0152  -26.7877   19.4851 C   0  0  0  0  0  0
  -24.8841  -27.6333   19.4683 C   0  0  0  0  0  0
  -23.6792  -29.7885   20.1505 C   0  0  0  0  0  0
  -25.4125  -36.3020   24.0312 C   0  0  1  0  0  0
  -20.5923  -28.3721   23.1219 C   0  0  2  0  0  0
  -20.6795  -26.9420   22.5399 C   0  0  0  0  0  0
  -19.5771  -26.6374   21.5207 C   0  0  0  0  0  0
  -18.1949  -26.7925   22.1612 C   0  0  0  0  0  0
  -19.1565  -28.8871   23.2834 C   0  0  0  0  0  0
  -18.9485  -30.1467   23.8860 C   0  0  0  0  0  0
  -17.6483  -30.6588   24.0554 C   0  0  0  0  0  0
  -25.9080  -34.9397   23.5052 C   0  0  0  0  0  0
  -16.5372  -29.9082   23.6335 C   0  0  0  0  0  0
  -16.7292  -28.6499   23.0355 C   0  0  0  0  0  0
  -26.4534  -31.6560   25.0719 C   0  0  0  0  0  0
  -25.3709  -31.3749   26.1406 C   0  0  0  0  0  0
  -27.0434  -30.2956   24.6343 C   0  0  0  0  0  0
  -27.6047  -32.4348   25.7506 C   0  0  0  0  0  0
  -27.5571  -37.1782   24.8467 C   0  0  0  0  0  0
  -21.4271  -29.3042   22.3584 N   0  0  0  0  0  0
  -26.4281  -37.3737   23.9408 N   0  0  0  0  0  0
  -24.7221  -31.0242   22.0909 N   0  0  0  0  0  0
  -23.4205  -28.8092   23.3015 O   0  0  0  0  0  0
  -28.2586  -26.1062   20.2447 O   0  0  0  0  0  0
  -26.5674  -34.8899   22.4636 O   0  0  0  0  0  0
  -23.5573  -32.1299   23.7064 O   0  0  0  0  0  0
  -30.3473  -20.4669   21.6584 C   0  0  0  0  0  0
  -30.9399  -19.4077   22.3695 C   0  0  0  0  0  0
  -29.4188  -20.2425   20.6383 C   0  0  0  0  0  0
  -30.6671  -18.0215   22.1669 C   0  0  0  0  0  0
  -29.2747  -18.7899   20.2898 C   0  0  0  0  0  0
  -29.9370  -17.6298   20.9810 C   0  0  0  0  0  0
  -28.3425  -18.4417   19.1446 C   0  0  0  0  0  0
  -31.1672  -17.8198   24.7057 C   0  0  0  0  0  0
  -32.5232  -16.5247   23.1014 C   0  0  0  0  0  0
  -30.1039  -15.9255   23.6300 C   0  0  0  0  0  0
  -28.6594  -21.5931   20.0316 C   0  0  0  0  0  0
  -28.9160  -23.2201   20.4803 C   0  0  0  0  0  0
  -28.0094  -24.5765   19.9886 C   0  0  0  0  0  0
  -31.1054  -17.0732   23.3404 C   0  0  0  0  0  0
  -29.7200  -16.1384   20.6266 N   0  0  0  0  0  0
  -31.4739  -12.7721   19.1807 H   0  0  0  0  0  0
  -30.4453  -11.6578   20.0346 H   0  0  0  0  0  0
  -29.8445  -11.7322   17.5893 H   0  0  0  0  0  0
  -29.6006  -13.4591   17.6843 H   0  0  0  0  0  0
  -27.9627  -11.2709   18.9961 H   0  0  0  0  0  0
  -27.3898  -12.4286   17.8238 H   0  0  0  0  0  0
  -27.5891  -14.2468   19.4036 H   0  0  0  0  0  0
  -28.7678  -12.3074   21.4553 H   0  0  0  0  0  0
  -28.3634  -13.9816   21.7530 H   0  0  0  0  0  0
  -25.2767   -9.5680   22.4777 H   0  0  0  0  0  0
  -24.0001   -7.4636   22.7485 H   0  0  0  0  0  0
  -21.0854   -8.8783   19.8955 H   0  0  0  0  0  0
  -22.3717  -10.9679   19.6175 H   0  0  0  0  0  0
  -21.2010   -7.6152   23.9718 H   0  0  0  0  0  0
  -21.1478   -6.0527   25.9077 H   0  0  0  0  0  0
  -22.0599   -2.7614   23.2844 H   0  0  0  0  0  0
  -22.4061  -11.9856   22.4811 H   0  0  0  0  0  0
  -21.1065  -13.1225   22.2628 H   0  0  0  0  0  0
  -24.6376  -15.8399   20.5201 H   0  0  0  0  0  0
  -26.2455  -15.6349   20.0490 H   0  0  0  0  0  0
  -26.7288  -32.5267   23.0985 H   0  0  0  0  0  0
  -25.0079  -33.9588   25.0298 H   0  0  0  0  0  0
  -22.7556  -31.2866   21.3752 H   0  0  0  0  0  0
  -23.3758  -35.9567   23.3296 H   0  0  0  0  0  0
  -24.3577  -36.8897   22.2066 H   0  0  0  0  0  0
  -23.7239  -37.6431   23.6698 H   0  0  0  0  0  0
  -26.1731  -31.4598   20.6211 H   0  0  0  0  0  0
  -26.8764  -30.7522   22.0385 H   0  0  0  0  0  0
  -28.1299  -28.7681   21.2507 H   0  0  0  0  0  0
  -25.9162  -25.8340   18.9890 H   0  0  0  0  0  0
  -23.9871  -27.2982   18.9660 H   0  0  0  0  0  0
  -23.8181  -30.5632   19.3952 H   0  0  0  0  0  0
  -22.7932  -29.2329   19.8383 H   0  0  0  0  0  0
  -25.1314  -36.1842   25.0804 H   0  0  0  0  0  0
  -21.0010  -28.3318   24.1343 H   0  0  0  0  0  0
  -20.5689  -26.2336   23.3623 H   0  0  0  0  0  0
  -21.6662  -26.7426   22.1200 H   0  0  0  0  0  0
  -19.6938  -25.6279   21.1255 H   0  0  0  0  0  0
  -19.6710  -27.3164   20.6721 H   0  0  0  0  0  0
  -17.4222  -26.6662   21.4015 H   0  0  0  0  0  0
  -18.0352  -26.0067   22.9008 H   0  0  0  0  0  0
  -19.7967  -30.7286   24.2213 H   0  0  0  0  0  0
  -17.5046  -31.6268   24.5159 H   0  0  0  0  0  0
  -15.5375  -30.2980   23.7684 H   0  0  0  0  0  0
  -15.8688  -28.0816   22.7090 H   0  0  0  0  0  0
  -24.5891  -30.7098   25.7723 H   0  0  0  0  0  0
  -24.8895  -32.2930   26.4778 H   0  0  0  0  0  0
  -25.7983  -30.8953   27.0221 H   0  0  0  0  0  0
  -26.3081  -29.6643   24.1342 H   0  0  0  0  0  0
  -27.4034  -29.7289   25.4942 H   0  0  0  0  0  0
  -27.8982  -30.4198   23.9693 H   0  0  0  0  0  0
  -27.2628  -33.3678   26.1996 H   0  0  0  0  0  0
  -28.3895  -32.6868   25.0363 H   0  0  0  0  0  0
  -28.0672  -31.8540   26.5495 H   0  0  0  0  0  0
  -28.2576  -38.0089   24.7519 H   0  0  0  0  0  0
  -28.1078  -36.2618   24.6286 H   0  0  0  0  0  0
  -27.2290  -37.1422   25.8870 H   0  0  0  0  0  0
  -20.9491  -29.8742   21.6746 H   0  0  0  0  0  0
  -26.0142  -38.2801   24.1414 H   0  0  0  0  0  0
  -30.5755  -21.4798   21.9595 H   0  0  0  0  0  0
  -31.5863  -19.7320   23.1667 H   0  0  0  0  0  0
  -28.0947  -19.3117   18.5384 H   0  0  0  0  0  0
  -27.4137  -18.0230   19.5317 H   0  0  0  0  0  0
  -28.8023  -17.7044   18.4864 H   0  0  0  0  0  0
  -31.9878  -18.5328   24.7740 H   0  0  0  0  0  0
  -31.3408  -17.1365   25.5379 H   0  0  0  0  0  0
  -30.2352  -18.3459   24.9183 H   0  0  0  0  0  0
  -33.2466  -17.3348   23.0015 H   0  0  0  0  0  0
  -32.5972  -15.9239   22.2032 H   0  0  0  0  0  0
  -32.8512  -15.8965   23.9308 H   0  0  0  0  0  0
  -29.0732  -16.2815   23.6151 H   0  0  0  0  0  0
  -30.2687  -15.4747   24.6093 H   0  0  0  0  0  0
  -30.1871  -15.0834   22.9587 H   0  0  0  0  0  0
  -27.5957  -21.4012   20.1758 H   0  0  0  0  0  0
  -28.8013  -21.5498   18.9517 H   0  0  0  0  0  0
  -29.9543  -23.4399   20.2320 H   0  0  0  0  0  0
  -28.8858  -23.2367   21.5700 H   0  0  0  0  0  0
  -27.0048  -24.3777   20.3625 H   0  0  0  0  0  0
  -27.9230  -24.4936   18.9050 H   0  0  0  0  0  0
  -28.7427  -15.8976   20.5826 H   0  0  0  0  0  0
  1 25  1  0  0  0
  1 30  2  0  0  0
  1 85  1  0  0  0
  2  3  1  0  0  0
  2 25  1  0  0  0
  2 86  1  0  0  0
  2 87  1  0  0  0
  3  4  1  0  0  0
  3 88  1  0  0  0
  3 89  1  0  0  0
  4  5  1  0  0  0
  4 90  1  0  0  0
  4 91  1  0  0  0
  5  6  1  0  0  0
  5 26  1  0  0  0
  5 92  1  0  0  0
  6 25  1  0  0  0
  6 93  1  0  0  0
  6 94  1  0  0  0
  7  8  2  0  0  0
  7 26  1  0  0  0
  7 29  1  0  0  0
  8  9  1  0  0  0
  8 22  1  0  0  0
  9 10  1  0  0  0
  9 27  2  0  0  0
 10 11  2  0  0  0
 10 15  1  0  0  0
 11 12  1  0  0  0
 11 95  1  0  0  0
 12 13  2  0  0  0
 12 96  1  0  0  0
 13 14  1  0  0  0
 13 31  1  0  0  0
 14 15  2  0  0  0
 14 97  1  0  0  0
 15 98  1  0  0  0
 16 17  2  0  0  0
 16 21  1  0  0  0
 16 31  1  0  0  0
 17 18  1  0  0  0
 17 99  1  0  0  0
 18 19  2  0  0  0
 18100  1  0  0  0
 19 20  1  0  0  0
 19 24  1  0  0  0
 20 21  2  0  0  0
 20101  1  0  0  0
 21 23  1  0  0  0
 22 28  1  0  0  0
 22 32  2  0  0  0
 26 27  1  0  0  0
 28102  1  0  0  0
 28103  1  0  0  0
 29104  1  0  0  0
 29105  1  0  0  0
 33 34  1  0  0  0
 33 66  1  0  0  0
 33 70  2  0  0  0
 34 36  1  0  0  0
 34 59  1  0  0  0
 34106  1  0  0  0
 35 44  2  0  0  0
 35 45  1  0  0  0
 35 68  1  0  0  0
 36 56  1  0  0  0
 36107  1  0  0  0
 37 39  1  0  0  0
 37 47  1  0  0  0
 37 66  1  0  0  0
 37108  1  0  0  0
 38 43  2  0  0  0
 38 46  1  0  0  0
 38 47  1  0  0  0
 39 64  1  0  0  0
 39 67  2  0  0  0
 40 52  1  0  0  0
 40 53  2  0  0  0
 40 58  1  0  0  0
 41109  1  0  0  0
 41110  1  0  0  0
 41111  1  0  0  0
 41 48  1  0  0  0
 42 43  1  0  0  0
 42 66  1  0  0  0
 42112  1  0  0  0
 42113  1  0  0  0
 43 44  1  0  0  0
 44114  1  0  0  0
 45 46  2  0  0  0
 45115  1  0  0  0
 46116  1  0  0  0
 47117  1  0  0  0
 47118  1  0  0  0
 48 56  1  0  0  0
 48 65  1  0  0  0
 48119  1  0  0  0
 49 50  1  0  0  0
 49 53  1  0  0  0
 49 64  1  0  0  0
 49120  1  0  0  0
 50 51  1  0  0  0
 50121  1  0  0  0
 50122  1  0  0  0
 51 52  1  0  0  0
 51123  1  0  0  0
 51124  1  0  0  0
 52125  1  0  0  0
 52126  1  0  0  0
 53 54  1  0  0  0
 54 55  2  0  0  0
 54127  1  0  0  0
 55 57  1  0  0  0
 55128  1  0  0  0
 56 69  2  0  0  0
 57 58  2  0  0  0
 57129  1  0  0  0
 58130  1  0  0  0
 59 60  1  0  0  0
 59 61  1  0  0  0
 59 62  1  0  0  0
 60131  1  0  0  0
 60132  1  0  0  0
 60133  1  0  0  0
 61134  1  0  0  0
 61135  1  0  0  0
 61136  1  0  0  0
 62137  1  0  0  0
 62138  1  0  0  0
 62139  1  0  0  0
 63 65  1  0  0  0
 63140  1  0  0  0
 63141  1  0  0  0
 63142  1  0  0  0
 64143  1  0  0  0
 65144  1  0  0  0
 68 83  1  0  0  0
 71 72  2  0  0  0
 71 73  1  0  0  0
 71145  1  0  0  0
 72 74  1  0  0  0
 72146  1  0  0  0
 73 75  2  0  0  0
 73 81  1  0  0  0
 74 76  2  0  0  0
 74 84  1  0  0  0
 75 76  1  0  0  0
 75 77  1  0  0  0
 76 85  1  0  0  0
 77147  1  0  0  0
 77148  1  0  0  0
 77149  1  0  0  0
 78150  1  0  0  0
 78151  1  0  0  0
 78152  1  0  0  0
 78 84  1  0  0  0
 79 84  1  0  0  0
 79153  1  0  0  0
 79154  1  0  0  0
 79155  1  0  0  0
 80 84  1  0  0  0
 80156  1  0  0  0
 80157  1  0  0  0
 80158  1  0  0  0
 81 82  1  0  0  0
 81159  1  0  0  0
 81160  1  0  0  0
 82 83  1  0  0  0
 82161  1  0  0  0
 82162  1  0  0  0
 83163  1  0  0  0
 83164  1  0  0  0
 85165  1  0  0  0
M  ISO  4   1 100  68 101  83 101  85 100
M  END
> <chiral flag>
0

> <version>
0

> <s_m_source_file>
/data/baiqing/PycharmProjects/Reinvent-master-3.2/result/LINK_invent/BTK/process_docking_weight1_custom_sum_contain_oxygen_bond_distance_aromatic_linkinvent_7_9_3/rearranged_h_0018.sdf

> <i_m_source_file_index>
10

> <r_mmod_Potential_Energy-OPLS-2005>
600.93896484375

> <r_mmod_Stretch_Energy-OPLS-2005>
306.269714355469

> <r_mmod_Bend_Energy-OPLS-2005>
277.131896972656

> <r_mmod_Torsional_Energy-OPLS-2005>
248.888305664062

> <r_mmod_Improper_Torsional_Energy-OPLS-2005>
6.30542087554932

> <r_mmod_Van_der_Waal_Energy-OPLS-2005>
147.264877319336

> <r_mmod_Electrostatic_Energy-OPLS-2005>
-401.061676025391

> <r_mmod_Solvation_Energy-OPLS-2005>
-197.496429443359

> <b_mmod_Minimization_Converged-OPLS-2005>
0

> <r_mmod_RMS_Derivative-OPLS-2005>
0.598768591880798

$$$$
11
                    3D
 Structure written by MMmdl.
150158  0  0  1  0            999 V2000
  -30.2618  -15.7684   20.3207 C   0  0  0  0  0  0
  -30.4130  -13.1816   19.5375 C   0  0  0  0  0  0
  -29.5530  -12.6879   18.3356 C   0  0  0  0  0  0
  -28.1387  -12.3012   18.7887 C   0  0  0  0  0  0
  -27.5907  -13.3213   19.8098 C   0  0  2  0  0  0
  -28.5992  -13.7163   20.9180 C   0  0  0  0  0  0
  -25.2302  -13.8303   20.5819 C   0  0  0  0  0  0
  -24.1705  -13.0435   20.9302 C   0  0  0  0  0  0
  -24.6424  -11.6952   20.8767 C   0  0  0  0  0  0
  -23.9129  -10.4294   21.0393 C   0  0  0  0  0  0
  -24.3660   -9.4207   21.9178 C   0  0  0  0  0  0
  -23.6317   -8.2249   22.0753 C   0  0  0  0  0  0
  -22.4296   -8.0290   21.3545 C   0  0  0  0  0  0
  -21.9947   -9.0266   20.4643 C   0  0  0  0  0  0
  -22.7294  -10.2136   20.3047 C   0  0  0  0  0  0
  -21.6860   -6.0743   22.5279 C   0  0  0  0  0  0
  -21.4020   -6.5645   23.8213 C   0  0  0  0  0  0
  -21.3660   -5.6796   24.9174 C   0  0  0  0  0  0
  -21.6043   -4.3058   24.7224 C   0  0  0  0  0  0
  -21.8819   -3.8152   23.4344 C   0  0  0  0  0  0
  -21.9195   -4.6970   22.3402 C   0  0  0  0  0  0
  -22.7713  -13.5155   21.1928 C   0  0  0  0  0  0
  -22.1662   -4.2155   21.0979 F   0  0  0  0  0  0
  -21.5626   -3.4541   25.7735 F   0  0  0  0  0  0
  -29.7495  -14.3806   20.2490 N   0  0  0  0  0  0
  -26.2764  -12.9661   20.3257 N   0  0  0  0  0  0
  -25.9376  -11.6716   20.5698 N   0  0  0  0  0  0
  -22.0381  -12.8128   22.0478 N   0  0  0  0  0  0
  -25.3871  -15.2047   20.4259 N   0  0  0  0  0  0
  -31.4981  -15.6573   20.1864 O   0  0  0  0  0  0
  -21.6650   -6.8892   21.4243 O   0  0  0  0  0  0
  -22.3386  -14.5452   20.6761 O   0  0  0  0  0  0
  -24.6935  -31.7887   23.1430 C   0  0  0  0  0  0
  -25.9469  -32.4409   23.8014 C   0  0  1  0  0  0
  -27.2296  -26.6030   20.2253 C   0  0  0  0  0  0
  -25.6008  -33.8238   24.1895 N   0  0  0  0  0  0
  -23.5240  -30.3863   21.4993 C   0  0  2  0  0  0
  -24.9825  -28.7060   20.1210 C   0  0  0  0  0  0
  -22.7813  -29.4256   22.4683 C   0  0  0  0  0  0
  -18.0345  -28.1430   22.8455 C   0  0  0  0  0  0
  -24.1491  -36.7119   23.2656 C   0  0  0  0  0  0
  -26.1090  -30.4891   21.4223 C   0  0  0  0  0  0
  -26.1737  -29.0426   20.7746 C   0  0  0  0  0  0
  -27.2777  -28.0225   20.7903 C   0  0  0  0  0  0
  -26.0042  -26.5011   19.5120 C   0  0  0  0  0  0
  -24.9432  -27.4626   19.4650 C   0  0  0  0  0  0
  -23.7835  -29.6737   20.1389 C   0  0  0  0  0  0
  -25.4146  -36.2859   24.0276 C   0  0  1  0  0  0
  -20.5988  -28.3791   23.1125 C   0  0  2  0  0  0
  -20.6805  -26.9440   22.5407 C   0  0  0  0  0  0
  -19.5780  -26.6372   21.5220 C   0  0  0  0  0  0
  -18.1964  -26.7956   22.1621 C   0  0  0  0  0  0
  -19.1616  -28.8937   23.2767 C   0  0  0  0  0  0
  -18.9519  -30.1520   23.8815 C   0  0  0  0  0  0
  -17.6507  -30.6609   24.0549 C   0  0  0  0  0  0
  -25.9135  -34.9253   23.4929 C   0  0  0  0  0  0
  -16.5396  -29.9090   23.6356 C   0  0  0  0  0  0
  -16.7325  -28.6513   23.0373 C   0  0  0  0  0  0
  -26.4614  -31.6485   25.0678 C   0  0  0  0  0  0
  -25.3654  -31.3834   26.1277 C   0  0  0  0  0  0
  -27.0566  -30.2813   24.6649 C   0  0  0  0  0  0
  -27.6042  -32.4369   25.7503 C   0  0  0  0  0  0
  -27.5555  -37.1719   24.8471 C   0  0  0  0  0  0
  -21.4451  -29.3017   22.3432 N   0  0  0  0  0  0
  -26.4261  -37.3633   23.9411 N   0  0  0  0  0  0
  -24.7999  -30.9238   22.0735 N   0  0  0  0  0  0
  -23.4213  -28.7875   23.3073 O   0  0  0  0  0  0
  -28.1774  -25.3372   20.2992 O   0  0  0  0  0  0
  -26.5785  -34.8852   22.4554 O   0  0  0  0  0  0
  -23.5935  -32.1004   23.6326 O   0  0  0  0  0  0
  -31.1911  -20.8938   20.7830 C   0  0  0  0  0  0
  -30.3099  -22.0151   20.6251 C   0  0  0  0  0  0
  -28.9293  -21.8974   20.3264 C   0  0  0  0  0  0
  -28.6785  -20.2737   20.2232 C   0  0  0  0  0  0
  -29.6256  -18.9395   20.3804 C   0  0  0  0  0  0
  -30.9064  -19.4915   20.6827 C   0  0  0  0  0  0
  -30.8974  -23.4059   20.7972 C   0  0  0  0  0  0
  -27.2397  -19.9165   19.9153 C   0  0  0  0  0  0
  -27.9613  -23.5456   20.1654 C   0  0  0  0  0  0
  -29.4980  -17.1716   20.3274 N   0  0  0  0  0  0
  -32.2508  -18.4578   20.9977 Cl  0  0  0  0  0  0
  -31.3953  -13.4595   19.1544 H   0  0  0  0  0  0
  -30.6081  -12.3655   20.2354 H   0  0  0  0  0  0
  -30.0349  -11.8448   17.8387 H   0  0  0  0  0  0
  -29.4885  -13.4855   17.5941 H   0  0  0  0  0  0
  -28.1933  -11.3163   19.2544 H   0  0  0  0  0  0
  -27.4695  -12.2037   17.9328 H   0  0  0  0  0  0
  -27.4327  -14.2220   19.2145 H   0  0  0  0  0  0
  -28.8924  -12.8600   21.5271 H   0  0  0  0  0  0
  -28.1396  -14.4323   21.6009 H   0  0  0  0  0  0
  -25.2798   -9.5680   22.4765 H   0  0  0  0  0  0
  -24.0016   -7.4642   22.7480 H   0  0  0  0  0  0
  -21.0876   -8.8797   19.8950 H   0  0  0  0  0  0
  -22.3753  -10.9678   19.6159 H   0  0  0  0  0  0
  -21.2015   -7.6153   23.9719 H   0  0  0  0  0  0
  -21.1480   -6.0524   25.9077 H   0  0  0  0  0  0
  -22.0595   -2.7614   23.2843 H   0  0  0  0  0  0
  -22.4028  -11.9806   22.4874 H   0  0  0  0  0  0
  -21.0984  -13.1116   22.2672 H   0  0  0  0  0  0
  -24.6124  -15.8500   20.5364 H   0  0  0  0  0  0
  -26.2255  -15.6484   20.0767 H   0  0  0  0  0  0
  -26.7559  -32.4859   23.0730 H   0  0  0  0  0  0
  -25.0060  -33.9255   24.9987 H   0  0  0  0  0  0
  -22.8545  -31.2259   21.3011 H   0  0  0  0  0  0
  -23.3775  -35.9425   23.3266 H   0  0  0  0  0  0
  -24.3553  -36.8839   22.2080 H   0  0  0  0  0  0
  -23.7229  -37.6272   23.6774 H   0  0  0  0  0  0
  -26.3224  -31.2071   20.6294 H   0  0  0  0  0  0
  -26.9558  -30.5617   22.0922 H   0  0  0  0  0  0
  -28.1719  -28.2902   21.3353 H   0  0  0  0  0  0
  -25.8201  -25.5650   19.0041 H   0  0  0  0  0  0
  -24.0471  -27.1943   18.9221 H   0  0  0  0  0  0
  -23.9668  -30.4294   19.3742 H   0  0  0  0  0  0
  -22.8860  -29.1455   19.8124 H   0  0  0  0  0  0
  -25.1361  -36.1604   25.0765 H   0  0  0  0  0  0
  -21.0067  -28.3423   24.1254 H   0  0  0  0  0  0
  -20.5659  -26.2417   23.3679 H   0  0  0  0  0  0
  -21.6665  -26.7367   22.1230 H   0  0  0  0  0  0
  -19.6929  -25.6262   21.1300 H   0  0  0  0  0  0
  -19.6723  -27.3139   20.6717 H   0  0  0  0  0  0
  -17.4234  -26.6705   21.4023 H   0  0  0  0  0  0
  -18.0343  -26.0118   22.9035 H   0  0  0  0  0  0
  -19.7993  -30.7361   24.2144 H   0  0  0  0  0  0
  -17.5056  -31.6279   24.5170 H   0  0  0  0  0  0
  -15.5392  -30.2965   23.7729 H   0  0  0  0  0  0
  -15.8726  -28.0804   22.7136 H   0  0  0  0  0  0
  -24.5868  -30.7151   25.7582 H   0  0  0  0  0  0
  -24.8810  -32.3065   26.4467 H   0  0  0  0  0  0
  -25.7810  -30.9155   27.0210 H   0  0  0  0  0  0
  -26.3307  -29.6395   24.1646 H   0  0  0  0  0  0
  -27.3964  -29.7299   25.5427 H   0  0  0  0  0  0
  -27.9297  -30.3923   24.0217 H   0  0  0  0  0  0
  -27.2569  -33.3756   26.1835 H   0  0  0  0  0  0
  -28.3979  -32.6794   25.0423 H   0  0  0  0  0  0
  -28.0571  -31.8662   26.5621 H   0  0  0  0  0  0
  -28.2546  -38.0037   24.7510 H   0  0  0  0  0  0
  -28.1075  -36.2559   24.6309 H   0  0  0  0  0  0
  -27.2269  -37.1368   25.8873 H   0  0  0  0  0  0
  -20.9780  -29.8651   21.6464 H   0  0  0  0  0  0
  -26.0077  -38.2676   24.1427 H   0  0  0  0  0  0
  -32.2191  -21.1277   21.0200 H   0  0  0  0  0  0
  -31.9540  -23.3739   21.0648 H   0  0  0  0  0  0
  -30.3766  -23.9481   21.5868 H   0  0  0  0  0  0
  -30.8077  -23.9763   19.8722 H   0  0  0  0  0  0
  -26.6450  -20.8025   19.6919 H   0  0  0  0  0  0
  -26.7867  -19.4085   20.7671 H   0  0  0  0  0  0
  -27.1894  -19.2504   19.0539 H   0  0  0  0  0  0
  -27.1178  -23.3715   20.8334 H   0  0  0  0  0  0
  -27.5228  -23.4474   19.1725 H   0  0  0  0  0  0
  -28.5196  -16.9286   20.2942 H   0  0  0  0  0  0
  1 25  1  0  0  0
  1 30  2  0  0  0
  1 80  1  0  0  0
  2  3  1  0  0  0
  2 25  1  0  0  0
  2 82  1  0  0  0
  2 83  1  0  0  0
  3  4  1  0  0  0
  3 84  1  0  0  0
  3 85  1  0  0  0
  4  5  1  0  0  0
  4 86  1  0  0  0
  4 87  1  0  0  0
  5  6  1  0  0  0
  5 26  1  0  0  0
  5 88  1  0  0  0
  6 25  1  0  0  0
  6 89  1  0  0  0
  6 90  1  0  0  0
  7  8  2  0  0  0
  7 26  1  0  0  0
  7 29  1  0  0  0
  8  9  1  0  0  0
  8 22  1  0  0  0
  9 10  1  0  0  0
  9 27  2  0  0  0
 10 11  2  0  0  0
 10 15  1  0  0  0
 11 12  1  0  0  0
 11 91  1  0  0  0
 12 13  2  0  0  0
 12 92  1  0  0  0
 13 14  1  0  0  0
 13 31  1  0  0  0
 14 15  2  0  0  0
 14 93  1  0  0  0
 15 94  1  0  0  0
 16 17  2  0  0  0
 16 21  1  0  0  0
 16 31  1  0  0  0
 17 18  1  0  0  0
 17 95  1  0  0  0
 18 19  2  0  0  0
 18 96  1  0  0  0
 19 20  1  0  0  0
 19 24  1  0  0  0
 20 21  2  0  0  0
 20 97  1  0  0  0
 21 23  1  0  0  0
 22 28  1  0  0  0
 22 32  2  0  0  0
 26 27  1  0  0  0
 28 98  1  0  0  0
 28 99  1  0  0  0
 29100  1  0  0  0
 29101  1  0  0  0
 33 34  1  0  0  0
 33 66  1  0  0  0
 33 70  2  0  0  0
 34 36  1  0  0  0
 34 59  1  0  0  0
 34102  1  0  0  0
 35 44  2  0  0  0
 35 45  1  0  0  0
 35 68  1  0  0  0
 36 56  1  0  0  0
 36103  1  0  0  0
 37 39  1  0  0  0
 37 47  1  0  0  0
 37 66  1  0  0  0
 37104  1  0  0  0
 38 43  2  0  0  0
 38 46  1  0  0  0
 38 47  1  0  0  0
 39 64  1  0  0  0
 39 67  2  0  0  0
 40 52  1  0  0  0
 40 53  2  0  0  0
 40 58  1  0  0  0
 41105  1  0  0  0
 41106  1  0  0  0
 41107  1  0  0  0
 41 48  1  0  0  0
 42 43  1  0  0  0
 42 66  1  0  0  0
 42108  1  0  0  0
 42109  1  0  0  0
 43 44  1  0  0  0
 44110  1  0  0  0
 45 46  2  0  0  0
 45111  1  0  0  0
 46112  1  0  0  0
 47113  1  0  0  0
 47114  1  0  0  0
 48 56  1  0  0  0
 48 65  1  0  0  0
 48115  1  0  0  0
 49 50  1  0  0  0
 49 53  1  0  0  0
 49 64  1  0  0  0
 49116  1  0  0  0
 50 51  1  0  0  0
 50117  1  0  0  0
 50118  1  0  0  0
 51 52  1  0  0  0
 51119  1  0  0  0
 51120  1  0  0  0
 52121  1  0  0  0
 52122  1  0  0  0
 53 54  1  0  0  0
 54 55  2  0  0  0
 54123  1  0  0  0
 55 57  1  0  0  0
 55124  1  0  0  0
 56 69  2  0  0  0
 57 58  2  0  0  0
 57125  1  0  0  0
 58126  1  0  0  0
 59 60  1  0  0  0
 59 61  1  0  0  0
 59 62  1  0  0  0
 60127  1  0  0  0
 60128  1  0  0  0
 60129  1  0  0  0
 61130  1  0  0  0
 61131  1  0  0  0
 61132  1  0  0  0
 62133  1  0  0  0
 62134  1  0  0  0
 62135  1  0  0  0
 63 65  1  0  0  0
 63136  1  0  0  0
 63137  1  0  0  0
 63138  1  0  0  0
 64139  1  0  0  0
 65140  1  0  0  0
 68 79  1  0  0  0
 71 72  2  0  0  0
 71 76  1  0  0  0
 71141  1  0  0  0
 72 73  1  0  0  0
 72 77  1  0  0  0
 73 74  2  0  0  0
 73 79  1  0  0  0
 74 75  1  0  0  0
 74 78  1  0  0  0
 75 76  2  0  0  0
 75 80  1  0  0  0
 76 81  1  0  0  0
 77142  1  0  0  0
 77143  1  0  0  0
 77144  1  0  0  0
 78145  1  0  0  0
 78146  1  0  0  0
 78147  1  0  0  0
 79148  1  0  0  0
 79149  1  0  0  0
 80150  1  0  0  0
M  ISO  4   1 100  68 101  79 101  80 100
M  END
> <chiral flag>
0

> <version>
0

> <s_m_source_file>
/data/baiqing/PycharmProjects/Reinvent-master-3.2/result/LINK_invent/BTK/process_docking_weight1_custom_sum_contain_oxygen_bond_distance_aromatic_linkinvent_7_9_3/rearranged_h_0018.sdf

> <i_m_source_file_index>
11

> <r_mmod_Potential_Energy-OPLS-2005>
2809.70263671875

> <r_mmod_Stretch_Energy-OPLS-2005>
1276.33813476562

> <r_mmod_Bend_Energy-OPLS-2005>
642.190612792969

> <r_mmod_Torsional_Energy-OPLS-2005>
223.007965087891

> <r_mmod_Improper_Torsional_Energy-OPLS-2005>
4.76329135894775

> <r_mmod_Van_der_Waal_Energy-OPLS-2005>
130.050735473633

> <r_mmod_Electrostatic_Energy-OPLS-2005>
-363.146301269531

> <r_mmod_Solvation_Energy-OPLS-2005>
-215.980377197266

> <b_mmod_Minimization_Converged-OPLS-2005>
0

> <r_mmod_RMS_Derivative-OPLS-2005>
0.336018562316895

$$$$
12
                    3D
 Structure written by MMmdl.
151158  0  0  1  0            999 V2000
  -29.9547  -16.4257   20.2677 C   0  0  0  0  0  0
  -30.3554  -13.6782   19.5604 C   0  0  0  0  0  0
  -29.5872  -12.9102   18.4110 C   0  0  0  0  0  0
  -28.2199  -12.3851   18.8587 C   0  0  0  0  0  0
  -27.5725  -13.4073   19.8051 C   0  0  2  0  0  0
  -28.5204  -14.0405   20.8757 C   0  0  0  0  0  0
  -25.2162  -13.8447   20.5897 C   0  0  0  0  0  0
  -24.1660  -13.0438   20.9303 C   0  0  0  0  0  0
  -24.6490  -11.6992   20.8689 C   0  0  0  0  0  0
  -23.9179  -10.4294   21.0322 C   0  0  0  0  0  0
  -24.3705   -9.4217   21.9111 C   0  0  0  0  0  0
  -23.6366   -8.2247   22.0726 C   0  0  0  0  0  0
  -22.4338   -8.0286   21.3538 C   0  0  0  0  0  0
  -21.9978   -9.0238   20.4615 C   0  0  0  0  0  0
  -22.7321  -10.2110   20.3006 C   0  0  0  0  0  0
  -21.6857   -6.0736   22.5253 C   0  0  0  0  0  0
  -21.4017   -6.5623   23.8195 C   0  0  0  0  0  0
  -21.3687   -5.6785   24.9147 C   0  0  0  0  0  0
  -21.6054   -4.3037   24.7213 C   0  0  0  0  0  0
  -21.8826   -3.8139   23.4334 C   0  0  0  0  0  0
  -21.9206   -4.6956   22.3388 C   0  0  0  0  0  0
  -22.7639  -13.5072   21.1921 C   0  0  0  0  0  0
  -22.1672   -4.2154   21.0976 F   0  0  0  0  0  0
  -21.5659   -3.4523   25.7728 F   0  0  0  0  0  0
  -29.5790  -14.9041   20.2123 N   0  0  0  0  0  0
  -26.2745  -12.9962   20.3310 N   0  0  0  0  0  0
  -25.9484  -11.6918   20.5578 N   0  0  0  0  0  0
  -22.0361  -12.8008   22.0497 N   0  0  0  0  0  0
  -25.3586  -15.2227   20.4389 N   0  0  0  0  0  0
  -31.2052  -16.2465   20.2051 O   0  0  0  0  0  0
  -21.6668   -6.8897   21.4229 O   0  0  0  0  0  0
  -22.3236  -14.5329   20.6737 O   0  0  0  0  0  0
  -24.7342  -31.7423   23.1147 C   0  0  0  0  0  0
  -25.9648  -32.4218   23.7926 C   0  0  1  0  0  0
  -27.2336  -26.1925   20.2655 C   0  0  0  0  0  0
  -25.6018  -33.8082   24.1774 N   0  0  0  0  0  0
  -23.5836  -30.3231   21.4822 C   0  0  2  0  0  0
  -25.0386  -28.5539   20.1399 C   0  0  0  0  0  0
  -22.8012  -29.3993   22.4618 C   0  0  0  0  0  0
  -18.0373  -28.1433   22.8446 C   0  0  0  0  0  0
  -24.1477  -36.7060   23.2669 C   0  0  0  0  0  0
  -26.1810  -30.3027   21.4543 C   0  0  0  0  0  0
  -26.2350  -28.8109   20.8167 C   0  0  0  0  0  0
  -27.2926  -27.6781   20.8266 C   0  0  0  0  0  0
  -26.0013  -26.2715   19.5224 C   0  0  0  0  0  0
  -24.9916  -27.3151   19.4652 C   0  0  0  0  0  0
  -23.8705  -29.5818   20.1365 C   0  0  0  0  0  0
  -25.4135  -36.2788   24.0286 C   0  0  1  0  0  0
  -20.6041  -28.3821   23.1060 C   0  0  2  0  0  0
  -20.6809  -26.9433   22.5404 C   0  0  0  0  0  0
  -19.5776  -26.6362   21.5221 C   0  0  0  0  0  0
  -18.1962  -26.7958   22.1601 C   0  0  0  0  0  0
  -19.1652  -28.8960   23.2726 C   0  0  0  0  0  0
  -18.9538  -30.1528   23.8805 C   0  0  0  0  0  0
  -17.6513  -30.6604   24.0544 C   0  0  0  0  0  0
  -25.9138  -34.9168   23.4901 C   0  0  0  0  0  0
  -16.5408  -29.9084   23.6322 C   0  0  0  0  0  0
  -16.7351  -28.6499   23.0370 C   0  0  0  0  0  0
  -26.4651  -31.6474   25.0753 C   0  0  0  0  0  0
  -25.3632  -31.3928   26.1330 C   0  0  0  0  0  0
  -27.0649  -30.2767   24.6996 C   0  0  0  0  0  0
  -27.6032  -32.4460   25.7581 C   0  0  0  0  0  0
  -27.5543  -37.1698   24.8464 C   0  0  0  0  0  0
  -21.4625  -29.2994   22.3363 N   0  0  0  0  0  0
  -26.4244  -37.3589   23.9418 N   0  0  0  0  0  0
  -24.8644  -30.8360   22.0696 N   0  0  0  0  0  0
  -23.4213  -28.7644   23.3171 O   0  0  0  0  0  0
  -28.1384  -24.7499   20.3527 O   0  0  0  0  0  0
  -26.5826  -34.8825   22.4549 O   0  0  0  0  0  0
  -23.6245  -32.0747   23.5729 O   0  0  0  0  0  0
  -27.7394  -17.4001   18.1423 C   0  0  0  0  0  0
  -30.4940  -21.0712   20.2886 C   0  0  0  0  0  0
  -29.3265  -19.8357   22.8261 C   0  0  0  0  0  0
  -28.7232  -18.4751   18.6534 C   0  0  0  0  0  0
  -28.1407  -22.7282   20.1798 C   0  0  0  0  0  0
  -29.0746  -18.4106   20.1539 C   0  0  2  0  0  0
  -29.0328  -20.6674   20.5125 C   0  0  1  0  0  0
  -28.7167  -20.7395   21.9101 O   0  0  0  0  0  0
  -31.2733  -14.0574   19.1102 H   0  0  0  0  0  0
  -30.7032  -12.9831   20.3243 H   0  0  0  0  0  0
  -30.1991  -12.0939   18.0226 H   0  0  0  0  0  0
  -29.4399  -13.6024   17.5803 H   0  0  0  0  0  0
  -28.3555  -11.4362   19.3782 H   0  0  0  0  0  0
  -27.5787  -12.1859   17.9988 H   0  0  0  0  0  0
  -27.3332  -14.2281   19.1284 H   0  0  0  0  0  0
  -28.9416  -13.2821   21.5362 H   0  0  0  0  0  0
  -27.9487  -14.7021   21.5267 H   0  0  0  0  0  0
  -25.2876   -9.5660   22.4653 H   0  0  0  0  0  0
  -24.0072   -7.4644   22.7443 H   0  0  0  0  0  0
  -21.0919   -8.8720   19.8927 H   0  0  0  0  0  0
  -22.3752  -10.9621   19.6092 H   0  0  0  0  0  0
  -21.1952   -7.6132   23.9671 H   0  0  0  0  0  0
  -21.1539   -6.0523   25.9064 H   0  0  0  0  0  0
  -22.0588   -2.7601   23.2809 H   0  0  0  0  0  0
  -22.4130  -11.9750   22.4917 H   0  0  0  0  0  0
  -21.0925  -13.0854   22.2673 H   0  0  0  0  0  0
  -24.5788  -15.8618   20.5527 H   0  0  0  0  0  0
  -26.2026  -15.6765   20.1140 H   0  0  0  0  0  0
  -26.7842  -32.4613   23.0744 H   0  0  0  0  0  0
  -25.0125  -33.9077   24.9908 H   0  0  0  0  0  0
  -22.9393  -31.1722   21.2502 H   0  0  0  0  0  0
  -23.3787  -35.9333   23.3235 H   0  0  0  0  0  0
  -24.3545  -36.8832   22.2101 H   0  0  0  0  0  0
  -23.7159  -37.6177   23.6821 H   0  0  0  0  0  0
  -26.4242  -30.9766   20.6311 H   0  0  0  0  0  0
  -27.0222  -30.3943   22.1286 H   0  0  0  0  0  0
  -28.1898  -27.9046   21.3835 H   0  0  0  0  0  0
  -25.7409  -25.3734   18.9799 H   0  0  0  0  0  0
  -24.1085  -27.1050   18.8791 H   0  0  0  0  0  0
  -24.1177  -30.3257   19.3778 H   0  0  0  0  0  0
  -22.9600  -29.1003   19.7753 H   0  0  0  0  0  0
  -25.1345  -36.1548   25.0779 H   0  0  0  0  0  0
  -21.0104  -28.3437   24.1189 H   0  0  0  0  0  0
  -20.5599  -26.2453   23.3710 H   0  0  0  0  0  0
  -21.6658  -26.7265   22.1246 H   0  0  0  0  0  0
  -19.6900  -25.6248   21.1302 H   0  0  0  0  0  0
  -19.6715  -27.3124   20.6713 H   0  0  0  0  0  0
  -17.4239  -26.6758   21.3993 H   0  0  0  0  0  0
  -18.0280  -26.0132   22.9002 H   0  0  0  0  0  0
  -19.8008  -30.7363   24.2166 H   0  0  0  0  0  0
  -17.5047  -31.6248   24.5179 H   0  0  0  0  0  0
  -15.5396  -30.2936   23.7695 H   0  0  0  0  0  0
  -15.8761  -28.0761   22.7152 H   0  0  0  0  0  0
  -24.5884  -30.7172   25.7702 H   0  0  0  0  0  0
  -24.8729  -32.3169   26.4415 H   0  0  0  0  0  0
  -25.7757  -30.9386   27.0351 H   0  0  0  0  0  0
  -26.3420  -29.6242   24.2101 H   0  0  0  0  0  0
  -27.3990  -29.7433   25.5910 H   0  0  0  0  0  0
  -27.9441  -30.3807   24.0641 H   0  0  0  0  0  0
  -27.2535  -33.3921   26.1738 H   0  0  0  0  0  0
  -28.4028  -32.6776   25.0533 H   0  0  0  0  0  0
  -28.0491  -31.8889   26.5835 H   0  0  0  0  0  0
  -28.2508  -38.0046   24.7518 H   0  0  0  0  0  0
  -28.1100  -36.2561   24.6284 H   0  0  0  0  0  0
  -27.2274  -37.1319   25.8876 H   0  0  0  0  0  0
  -21.0061  -29.8710   21.6407 H   0  0  0  0  0  0
  -26.0052  -38.2637   24.1427 H   0  0  0  0  0  0
  -27.6027  -17.4899   17.0651 H   0  0  0  0  0  0
  -26.7590  -17.4962   18.6112 H   0  0  0  0  0  0
  -28.0972  -16.3888   18.3148 H   0  0  0  0  0  0
  -30.6754  -21.2052   19.2215 H   0  0  0  0  0  0
  -31.2061  -20.3377   20.6626 H   0  0  0  0  0  0
  -30.7015  -22.0275   20.7739 H   0  0  0  0  0  0
  -29.0422  -18.7995   22.6572 H   0  0  0  0  0  0
  -28.9844  -20.0692   23.8348 H   0  0  0  0  0  0
  -30.4126  -19.9095   22.8236 H   0  0  0  0  0  0
  -28.2797  -19.4473   18.4352 H   0  0  0  0  0  0
  -29.6446  -18.4429   18.0743 H   0  0  0  0  0  0
  -27.1253  -22.5469   20.5309 H   0  0  0  0  0  0
  -28.0498  -22.6942   19.0934 H   0  0  0  0  0  0
  -28.1380  -18.1620   20.6537 H   0  0  0  0  0  0
  1 25  1  0  0  0
  1 30  2  0  0  0
  1 76  1  0  0  0
  2  3  1  0  0  0
  2 25  1  0  0  0
  2 79  1  0  0  0
  2 80  1  0  0  0
  3  4  1  0  0  0
  3 81  1  0  0  0
  3 82  1  0  0  0
  4  5  1  0  0  0
  4 83  1  0  0  0
  4 84  1  0  0  0
  5  6  1  0  0  0
  5 26  1  0  0  0
  5 85  1  0  0  0
  6 25  1  0  0  0
  6 86  1  0  0  0
  6 87  1  0  0  0
  7  8  2  0  0  0
  7 26  1  0  0  0
  7 29  1  0  0  0
  8  9  1  0  0  0
  8 22  1  0  0  0
  9 10  1  0  0  0
  9 27  2  0  0  0
 10 11  2  0  0  0
 10 15  1  0  0  0
 11 12  1  0  0  0
 11 88  1  0  0  0
 12 13  2  0  0  0
 12 89  1  0  0  0
 13 14  1  0  0  0
 13 31  1  0  0  0
 14 15  2  0  0  0
 14 90  1  0  0  0
 15 91  1  0  0  0
 16 17  2  0  0  0
 16 21  1  0  0  0
 16 31  1  0  0  0
 17 18  1  0  0  0
 17 92  1  0  0  0
 18 19  2  0  0  0
 18 93  1  0  0  0
 19 20  1  0  0  0
 19 24  1  0  0  0
 20 21  2  0  0  0
 20 94  1  0  0  0
 21 23  1  0  0  0
 22 28  1  0  0  0
 22 32  2  0  0  0
 26 27  1  0  0  0
 28 95  1  0  0  0
 28 96  1  0  0  0
 29 97  1  0  0  0
 29 98  1  0  0  0
 33 34  1  0  0  0
 33 66  1  0  0  0
 33 70  2  0  0  0
 34 36  1  0  0  0
 34 59  1  0  0  0
 34 99  1  0  0  0
 35 44  2  0  0  0
 35 45  1  0  0  0
 35 68  1  0  0  0
 36 56  1  0  0  0
 36100  1  0  0  0
 37 39  1  0  0  0
 37 47  1  0  0  0
 37 66  1  0  0  0
 37101  1  0  0  0
 38 43  2  0  0  0
 38 46  1  0  0  0
 38 47  1  0  0  0
 39 64  1  0  0  0
 39 67  2  0  0  0
 40 52  1  0  0  0
 40 53  2  0  0  0
 40 58  1  0  0  0
 41102  1  0  0  0
 41103  1  0  0  0
 41104  1  0  0  0
 41 48  1  0  0  0
 42 43  1  0  0  0
 42 66  1  0  0  0
 42105  1  0  0  0
 42106  1  0  0  0
 43 44  1  0  0  0
 44107  1  0  0  0
 45 46  2  0  0  0
 45108  1  0  0  0
 46109  1  0  0  0
 47110  1  0  0  0
 47111  1  0  0  0
 48 56  1  0  0  0
 48 65  1  0  0  0
 48112  1  0  0  0
 49 50  1  0  0  0
 49 53  1  0  0  0
 49 64  1  0  0  0
 49113  1  0  0  0
 50 51  1  0  0  0
 50114  1  0  0  0
 50115  1  0  0  0
 51 52  1  0  0  0
 51116  1  0  0  0
 51117  1  0  0  0
 52118  1  0  0  0
 52119  1  0  0  0
 53 54  1  0  0  0
 54 55  2  0  0  0
 54120  1  0  0  0
 55 57  1  0  0  0
 55121  1  0  0  0
 56 69  2  0  0  0
 57 58  2  0  0  0
 57122  1  0  0  0
 58123  1  0  0  0
 59 60  1  0  0  0
 59 61  1  0  0  0
 59 62  1  0  0  0
 60124  1  0  0  0
 60125  1  0  0  0
 60126  1  0  0  0
 61127  1  0  0  0
 61128  1  0  0  0
 61129  1  0  0  0
 62130  1  0  0  0
 62131  1  0  0  0
 62132  1  0  0  0
 63 65  1  0  0  0
 63133  1  0  0  0
 63134  1  0  0  0
 63135  1  0  0  0
 64136  1  0  0  0
 65137  1  0  0  0
 68 75  1  0  0  0
 71 74  1  0  0  0
 71138  1  0  0  0
 71139  1  0  0  0
 71140  1  0  0  0
 72141  1  0  0  0
 72142  1  0  0  0
 72143  1  0  0  0
 72 77  1  0  0  0
 73 78  1  0  0  0
 73144  1  0  0  0
 73145  1  0  0  0
 73146  1  0  0  0
 74147  1  0  0  0
 74148  1  0  0  0
 74 76  1  0  0  0
 75 77  1  0  0  0
 75149  1  0  0  0
 75150  1  0  0  0
 76 77  1  0  0  0
 76151  1  0  0  0
 77 78  1  0  0  0
M  ISO  4   1 100  68 101  75 101  76 100
M  END
> <chiral flag>
0

> <version>
0

> <s_m_source_file>
/data/baiqing/PycharmProjects/Reinvent-master-3.2/result/LINK_invent/BTK/process_docking_weight1_custom_sum_contain_oxygen_bond_distance_aromatic_linkinvent_7_9_3/rearranged_h_0018.sdf

> <i_m_source_file_index>
12

> <r_mmod_Potential_Energy-OPLS-2005>
6230.3447265625

> <r_mmod_Stretch_Energy-OPLS-2005>
2899.7705078125

> <r_mmod_Bend_Energy-OPLS-2005>
1049.04541015625

> <r_mmod_Torsional_Energy-OPLS-2005>
205.105178833008

> <r_mmod_Improper_Torsional_Energy-OPLS-2005>
5.731369972229

> <r_mmod_Van_der_Waal_Energy-OPLS-2005>
113.643661499023

> <r_mmod_Electrostatic_Energy-OPLS-2005>
-263.834930419922

> <r_mmod_Solvation_Energy-OPLS-2005>
-197.61149597168

> <b_mmod_Minimization_Converged-OPLS-2005>
0

> <r_mmod_RMS_Derivative-OPLS-2005>
5.24517488479614

$$$$
13
                    3D
 Structure written by MMmdl.
156164  0  0  1  0            999 V2000
  -30.3095  -15.5810   20.3449 C   0  0  0  0  0  0
  -30.4356  -13.0388   19.5459 C   0  0  0  0  0  0
  -29.5561  -12.6582   18.3215 C   0  0  0  0  0  0
  -28.1225  -12.3111   18.7531 C   0  0  0  0  0  0
  -27.6012  -13.3046   19.8167 C   0  0  2  0  0  0
  -28.6195  -13.6028   20.9427 C   0  0  0  0  0  0
  -25.2334  -13.8278   20.5787 C   0  0  0  0  0  0
  -24.1725  -13.0431   20.9291 C   0  0  0  0  0  0
  -24.6423  -11.6941   20.8766 C   0  0  0  0  0  0
  -23.9116  -10.4293   21.0394 C   0  0  0  0  0  0
  -24.3656   -9.4202   21.9164 C   0  0  0  0  0  0
  -23.6322   -8.2241   22.0744 C   0  0  0  0  0  0
  -22.4301   -8.0276   21.3544 C   0  0  0  0  0  0
  -21.9947   -9.0246   20.4641 C   0  0  0  0  0  0
  -22.7280  -10.2129   20.3048 C   0  0  0  0  0  0
  -21.6861   -6.0732   22.5275 C   0  0  0  0  0  0
  -21.4005   -6.5630   23.8206 C   0  0  0  0  0  0
  -21.3678   -5.6788   24.9171 C   0  0  0  0  0  0
  -21.6061   -4.3053   24.7220 C   0  0  0  0  0  0
  -21.8813   -3.8141   23.4339 C   0  0  0  0  0  0
  -21.9197   -4.6962   22.3402 C   0  0  0  0  0  0
  -22.7731  -13.5149   21.1910 C   0  0  0  0  0  0
  -22.1659   -4.2156   21.0979 F   0  0  0  0  0  0
  -21.5654   -3.4533   25.7730 F   0  0  0  0  0  0
  -29.8091  -14.2106   20.3038 N   0  0  0  0  0  0
  -26.2791  -12.9610   20.3214 N   0  0  0  0  0  0
  -25.9369  -11.6687   20.5681 N   0  0  0  0  0  0
  -22.0402  -12.8147   22.0481 N   0  0  0  0  0  0
  -25.3885  -15.2021   20.4200 N   0  0  0  0  0  0
  -31.5401  -15.5550   20.1504 O   0  0  0  0  0  0
  -21.6648   -6.8886   21.4242 O   0  0  0  0  0  0
  -22.3404  -14.5442   20.6740 O   0  0  0  0  0  0
  -24.6843  -31.8007   23.1533 C   0  0  0  0  0  0
  -25.9419  -32.4458   23.8100 C   0  0  1  0  0  0
  -27.2289  -26.7006   20.1869 C   0  0  0  0  0  0
  -25.5996  -33.8297   24.1967 N   0  0  0  0  0  0
  -23.5106  -30.4056   21.5078 C   0  0  2  0  0  0
  -24.9699  -28.7611   20.1105 C   0  0  0  0  0  0
  -22.7770  -29.4319   22.4708 C   0  0  0  0  0  0
  -18.0335  -28.1413   22.8454 C   0  0  0  0  0  0
  -24.1496  -36.7154   23.2658 C   0  0  0  0  0  0
  -26.0951  -30.5288   21.4277 C   0  0  0  0  0  0
  -26.1588  -29.0990   20.7654 C   0  0  0  0  0  0
  -27.2654  -28.0956   20.7805 C   0  0  0  0  0  0
  -25.9991  -26.5876   19.4795 C   0  0  0  0  0  0
  -24.9293  -27.5276   19.4490 C   0  0  0  0  0  0
  -23.7648  -29.7111   20.1405 C   0  0  0  0  0  0
  -25.4147  -36.2899   24.0285 C   0  0  1  0  0  0
  -20.5971  -28.3786   23.1128 C   0  0  2  0  0  0
  -20.6800  -26.9436   22.5405 C   0  0  0  0  0  0
  -19.5786  -26.6355   21.5219 C   0  0  0  0  0  0
  -18.1963  -26.7933   22.1613 C   0  0  0  0  0  0
  -19.1599  -28.8920   23.2776 C   0  0  0  0  0  0
  -18.9509  -30.1507   23.8816 C   0  0  0  0  0  0
  -17.6498  -30.6596   24.0544 C   0  0  0  0  0  0
  -25.9134  -34.9282   23.4975 C   0  0  0  0  0  0
  -16.5389  -29.9077   23.6356 C   0  0  0  0  0  0
  -16.7315  -28.6499   23.0378 C   0  0  0  0  0  0
  -26.4578  -31.6512   25.0736 C   0  0  0  0  0  0
  -25.3632  -31.3830   26.1342 C   0  0  0  0  0  0
  -27.0528  -30.2841   24.6698 C   0  0  0  0  0  0
  -27.6032  -32.4389   25.7540 C   0  0  0  0  0  0
  -27.5568  -37.1735   24.8458 C   0  0  0  0  0  0
  -21.4413  -29.3032   22.3448 N   0  0  0  0  0  0
  -26.4276  -37.3664   23.9398 N   0  0  0  0  0  0
  -24.7867  -30.9438   22.0813 N   0  0  0  0  0  0
  -23.4214  -28.7927   23.3059 O   0  0  0  0  0  0
  -28.1676  -25.4593   20.3531 O   0  0  0  0  0  0
  -26.5783  -34.8852   22.4598 O   0  0  0  0  0  0
  -23.5855  -32.1120   23.6456 O   0  0  0  0  0  0
  -30.0009  -21.2560   20.0650 C   0  0  0  0  0  0
  -27.8521  -20.9043   20.4678 C   0  0  0  0  0  0
  -28.7463  -22.0642   20.2187 C   0  0  0  0  0  0
  -30.2893  -19.7432   20.1343 C   0  0  0  0  0  0
  -28.1084  -19.3992   20.5504 C   0  0  0  0  0  0
  -29.3591  -18.6028   20.3723 C   0  0  0  0  0  0
  -31.7298  -19.3266   19.9066 C   0  0  0  0  0  0
  -26.8703  -18.5658   20.8318 C   0  0  0  0  0  0
  -29.4974  -24.1745   18.7926 C   0  0  0  0  0  0
  -27.1068  -23.5958   18.8073 C   0  0  0  0  0  0
  -28.3202  -23.8179   19.7158 C   0  0  0  0  0  0
  -29.4798  -16.8862   20.4306 N   0  0  0  0  0  0
  -31.4329  -13.2991   19.1894 H   0  0  0  0  0  0
  -30.5827  -12.1771   20.2002 H   0  0  0  0  0  0
  -29.9980  -11.8249   17.7743 H   0  0  0  0  0  0
  -29.5318  -13.5024   17.6308 H   0  0  0  0  0  0
  -28.1326  -11.3031   19.1686 H   0  0  0  0  0  0
  -27.4600  -12.2830   17.8876 H   0  0  0  0  0  0
  -27.4736  -14.2380   19.2667 H   0  0  0  0  0  0
  -28.8596  -12.7068   21.5179 H   0  0  0  0  0  0
  -28.1954  -14.3193   21.6472 H   0  0  0  0  0  0
  -25.2807   -9.5673   22.4733 H   0  0  0  0  0  0
  -24.0035   -7.4632   22.7473 H   0  0  0  0  0  0
  -21.0871   -8.8746   19.8949 H   0  0  0  0  0  0
  -22.3713  -10.9654   19.6158 H   0  0  0  0  0  0
  -21.1961   -7.6132   23.9704 H   0  0  0  0  0  0
  -21.1527   -6.0520   25.9080 H   0  0  0  0  0  0
  -22.0585   -2.7602   23.2829 H   0  0  0  0  0  0
  -22.4044  -11.9831   22.4908 H   0  0  0  0  0  0
  -21.0994  -13.1128   22.2661 H   0  0  0  0  0  0
  -24.6045  -15.8366   20.5108 H   0  0  0  0  0  0
  -26.2022  -15.6352   20.0050 H   0  0  0  0  0  0
  -26.7512  -32.4918   23.0825 H   0  0  0  0  0  0
  -25.0025  -33.9369   25.0032 H   0  0  0  0  0  0
  -22.8365  -31.2440   21.3194 H   0  0  0  0  0  0
  -23.3779  -35.9463   23.3288 H   0  0  0  0  0  0
  -24.3559  -36.8852   22.2078 H   0  0  0  0  0  0
  -23.7234  -37.6308   23.6770 H   0  0  0  0  0  0
  -26.3137  -31.2597   20.6487 H   0  0  0  0  0  0
  -26.9390  -30.5796   22.1027 H   0  0  0  0  0  0
  -28.1474  -28.3557   21.3489 H   0  0  0  0  0  0
  -25.7493  -25.6730   18.9810 H   0  0  0  0  0  0
  -24.0287  -27.2526   18.9168 H   0  0  0  0  0  0
  -23.9349  -30.4750   19.3815 H   0  0  0  0  0  0
  -22.8705  -29.1759   19.8158 H   0  0  0  0  0  0
  -25.1359  -36.1683   25.0773 H   0  0  0  0  0  0
  -21.0058  -28.3414   24.1256 H   0  0  0  0  0  0
  -20.5651  -26.2418   23.3684 H   0  0  0  0  0  0
  -21.6665  -26.7370   22.1240 H   0  0  0  0  0  0
  -19.6954  -25.6247   21.1306 H   0  0  0  0  0  0
  -19.6724  -27.3115   20.6709 H   0  0  0  0  0  0
  -17.4236  -26.6687   21.4008 H   0  0  0  0  0  0
  -18.0346  -26.0085   22.9013 H   0  0  0  0  0  0
  -19.7988  -30.7348   24.2141 H   0  0  0  0  0  0
  -17.5050  -31.6261   24.5175 H   0  0  0  0  0  0
  -15.5390  -30.2958   23.7717 H   0  0  0  0  0  0
  -15.8714  -28.0788   22.7151 H   0  0  0  0  0  0
  -24.5839  -30.7167   25.7626 H   0  0  0  0  0  0
  -24.8787  -32.3041   26.4592 H   0  0  0  0  0  0
  -25.7789  -30.9096   27.0244 H   0  0  0  0  0  0
  -26.3264  -29.6425   24.1700 H   0  0  0  0  0  0
  -27.3915  -29.7338   25.5485 H   0  0  0  0  0  0
  -27.9261  -30.3943   24.0272 H   0  0  0  0  0  0
  -27.2569  -33.3754   26.1931 H   0  0  0  0  0  0
  -28.3911  -32.6858   25.0412 H   0  0  0  0  0  0
  -28.0628  -31.8653   26.5596 H   0  0  0  0  0  0
  -28.2558  -38.0057   24.7501 H   0  0  0  0  0  0
  -28.1094  -36.2583   24.6291 H   0  0  0  0  0  0
  -27.2294  -37.1371   25.8862 H   0  0  0  0  0  0
  -20.9727  -29.8699   21.6513 H   0  0  0  0  0  0
  -26.0112  -38.2714   24.1390 H   0  0  0  0  0  0
  -30.8610  -21.8584   19.8119 H   0  0  0  0  0  0
  -26.8144  -21.1925   20.5581 H   0  0  0  0  0  0
  -32.3318  -20.1354   19.4928 H   0  0  0  0  0  0
  -31.7857  -18.4855   19.2142 H   0  0  0  0  0  0
  -32.1815  -19.0132   20.8481 H   0  0  0  0  0  0
  -26.0874  -19.1533   21.3114 H   0  0  0  0  0  0
  -27.1007  -17.7330   21.4981 H   0  0  0  0  0  0
  -26.4698  -18.1623   19.9010 H   0  0  0  0  0  0
  -29.6723  -23.4009   18.0434 H   0  0  0  0  0  0
  -30.4146  -24.2880   19.3703 H   0  0  0  0  0  0
  -29.3351  -25.1107   18.2583 H   0  0  0  0  0  0
  -27.2117  -22.6744   18.2326 H   0  0  0  0  0  0
  -27.0111  -24.3794   18.0586 H   0  0  0  0  0  0
  -26.1901  -23.5111   19.3874 H   0  0  0  0  0  0
  -28.5453  -16.5350   20.5741 H   0  0  0  0  0  0
  1 25  1  0  0  0
  1 30  2  0  0  0
  1 82  1  0  0  0
  2  3  1  0  0  0
  2 25  1  0  0  0
  2 83  1  0  0  0
  2 84  1  0  0  0
  3  4  1  0  0  0
  3 85  1  0  0  0
  3 86  1  0  0  0
  4  5  1  0  0  0
  4 87  1  0  0  0
  4 88  1  0  0  0
  5  6  1  0  0  0
  5 26  1  0  0  0
  5 89  1  0  0  0
  6 25  1  0  0  0
  6 90  1  0  0  0
  6 91  1  0  0  0
  7  8  2  0  0  0
  7 26  1  0  0  0
  7 29  1  0  0  0
  8  9  1  0  0  0
  8 22  1  0  0  0
  9 10  1  0  0  0
  9 27  2  0  0  0
 10 11  2  0  0  0
 10 15  1  0  0  0
 11 12  1  0  0  0
 11 92  1  0  0  0
 12 13  2  0  0  0
 12 93  1  0  0  0
 13 14  1  0  0  0
 13 31  1  0  0  0
 14 15  2  0  0  0
 14 94  1  0  0  0
 15 95  1  0  0  0
 16 17  2  0  0  0
 16 21  1  0  0  0
 16 31  1  0  0  0
 17 18  1  0  0  0
 17 96  1  0  0  0
 18 19  2  0  0  0
 18 97  1  0  0  0
 19 20  1  0  0  0
 19 24  1  0  0  0
 20 21  2  0  0  0
 20 98  1  0  0  0
 21 23  1  0  0  0
 22 28  1  0  0  0
 22 32  2  0  0  0
 26 27  1  0  0  0
 28 99  1  0  0  0
 28100  1  0  0  0
 29101  1  0  0  0
 29102  1  0  0  0
 33 34  1  0  0  0
 33 66  1  0  0  0
 33 70  2  0  0  0
 34 36  1  0  0  0
 34 59  1  0  0  0
 34103  1  0  0  0
 35 44  2  0  0  0
 35 45  1  0  0  0
 35 68  1  0  0  0
 36 56  1  0  0  0
 36104  1  0  0  0
 37 39  1  0  0  0
 37 47  1  0  0  0
 37 66  1  0  0  0
 37105  1  0  0  0
 38 43  2  0  0  0
 38 46  1  0  0  0
 38 47  1  0  0  0
 39 64  1  0  0  0
 39 67  2  0  0  0
 40 52  1  0  0  0
 40 53  2  0  0  0
 40 58  1  0  0  0
 41106  1  0  0  0
 41107  1  0  0  0
 41108  1  0  0  0
 41 48  1  0  0  0
 42 43  1  0  0  0
 42 66  1  0  0  0
 42109  1  0  0  0
 42110  1  0  0  0
 43 44  1  0  0  0
 44111  1  0  0  0
 45 46  2  0  0  0
 45112  1  0  0  0
 46113  1  0  0  0
 47114  1  0  0  0
 47115  1  0  0  0
 48 56  1  0  0  0
 48 65  1  0  0  0
 48116  1  0  0  0
 49 50  1  0  0  0
 49 53  1  0  0  0
 49 64  1  0  0  0
 49117  1  0  0  0
 50 51  1  0  0  0
 50118  1  0  0  0
 50119  1  0  0  0
 51 52  1  0  0  0
 51120  1  0  0  0
 51121  1  0  0  0
 52122  1  0  0  0
 52123  1  0  0  0
 53 54  1  0  0  0
 54 55  2  0  0  0
 54124  1  0  0  0
 55 57  1  0  0  0
 55125  1  0  0  0
 56 69  2  0  0  0
 57 58  2  0  0  0
 57126  1  0  0  0
 58127  1  0  0  0
 59 60  1  0  0  0
 59 61  1  0  0  0
 59 62  1  0  0  0
 60128  1  0  0  0
 60129  1  0  0  0
 60130  1  0  0  0
 61131  1  0  0  0
 61132  1  0  0  0
 61133  1  0  0  0
 62134  1  0  0  0
 62135  1  0  0  0
 62136  1  0  0  0
 63 65  1  0  0  0
 63137  1  0  0  0
 63138  1  0  0  0
 63139  1  0  0  0
 64140  1  0  0  0
 65141  1  0  0  0
 68 81  1  0  0  0
 71 73  2  0  0  0
 71 74  1  0  0  0
 71142  1  0  0  0
 72 73  1  0  0  0
 72 75  2  0  0  0
 72143  1  0  0  0
 73 81  1  0  0  0
 74 76  2  0  0  0
 74 77  1  0  0  0
 75 76  1  0  0  0
 75 78  1  0  0  0
 76 82  1  0  0  0
 77144  1  0  0  0
 77145  1  0  0  0
 77146  1  0  0  0
 78147  1  0  0  0
 78148  1  0  0  0
 78149  1  0  0  0
 79150  1  0  0  0
 79151  1  0  0  0
 79152  1  0  0  0
 79 81  1  0  0  0
 80 81  1  0  0  0
 80153  1  0  0  0
 80154  1  0  0  0
 80155  1  0  0  0
 82156  1  0  0  0
M  ISO  4   1 100  68 101  81 101  82 100
M  END
> <chiral flag>
0

> <version>
0

> <s_m_source_file>
/data/baiqing/PycharmProjects/Reinvent-master-3.2/result/LINK_invent/BTK/process_docking_weight1_custom_sum_contain_oxygen_bond_distance_aromatic_linkinvent_7_9_3/rearranged_h_0018.sdf

> <i_m_source_file_index>
13

> <r_mmod_Potential_Energy-OPLS-2005>
2271.67114257812

> <r_mmod_Stretch_Energy-OPLS-2005>
939.078735351562

> <r_mmod_Bend_Energy-OPLS-2005>
704.692504882812

> <r_mmod_Torsional_Energy-OPLS-2005>
238.393981933594

> <r_mmod_Improper_Torsional_Energy-OPLS-2005>
9.78270149230957

> <r_mmod_Van_der_Waal_Energy-OPLS-2005>
136.070129394531

> <r_mmod_Electrostatic_Energy-OPLS-2005>
-418.858978271484

> <r_mmod_Solvation_Energy-OPLS-2005>
-202.431243896484

> <b_mmod_Minimization_Converged-OPLS-2005>
0

> <r_mmod_RMS_Derivative-OPLS-2005>
2.3819899559021

$$$$
14
                    3D
 Structure written by MMmdl.
153161  0  0  1  0            999 V2000
  -30.3611  -15.3893   20.3406 C   0  0  0  0  0  0
  -30.4272  -12.8859   19.5800 C   0  0  0  0  0  0
  -29.5426  -12.6170   18.3331 C   0  0  0  0  0  0
  -28.1053  -12.2981   18.7617 C   0  0  0  0  0  0
  -27.6021  -13.2885   19.8338 C   0  0  2  0  0  0
  -28.6149  -13.5125   20.9816 C   0  0  0  0  0  0
  -25.2321  -13.8284   20.5768 C   0  0  0  0  0  0
  -24.1688  -13.0415   20.9301 C   0  0  0  0  0  0
  -24.6391  -11.6941   20.8801 C   0  0  0  0  0  0
  -23.9101  -10.4286   21.0402 C   0  0  0  0  0  0
  -24.3651   -9.4218   21.9174 C   0  0  0  0  0  0
  -23.6310   -8.2261   22.0750 C   0  0  0  0  0  0
  -22.4291   -8.0288   21.3529 C   0  0  0  0  0  0
  -21.9919   -9.0278   20.4659 C   0  0  0  0  0  0
  -22.7268  -10.2162   20.3056 C   0  0  0  0  0  0
  -21.6866   -6.0770   22.5286 C   0  0  0  0  0  0
  -21.4037   -6.5659   23.8238 C   0  0  0  0  0  0
  -21.3664   -5.6789   24.9190 C   0  0  0  0  0  0
  -21.6046   -4.3049   24.7227 C   0  0  0  0  0  0
  -21.8808   -3.8153   23.4333 C   0  0  0  0  0  0
  -21.9205   -4.6987   22.3392 C   0  0  0  0  0  0
  -22.7723  -13.5181   21.1965 C   0  0  0  0  0  0
  -22.1653   -4.2151   21.0985 F   0  0  0  0  0  0
  -21.5607   -3.4540   25.7737 F   0  0  0  0  0  0
  -29.8511  -14.0427   20.3745 N   0  0  0  0  0  0
  -26.2731  -12.9563   20.3220 N   0  0  0  0  0  0
  -25.9316  -11.6669   20.5727 N   0  0  0  0  0  0
  -22.0392  -12.8167   22.0551 N   0  0  0  0  0  0
  -25.3787  -15.2024   20.4156 N   0  0  0  0  0  0
  -31.5617  -15.3948   20.0159 O   0  0  0  0  0  0
  -21.6630   -6.8903   21.4237 O   0  0  0  0  0  0
  -22.3396  -14.5463   20.6817 O   0  0  0  0  0  0
  -24.6682  -31.8122   23.1615 C   0  0  0  0  0  0
  -25.9305  -32.4523   23.8139 C   0  0  1  0  0  0
  -27.2156  -26.8225   20.2023 C   0  0  0  0  0  0
  -25.5949  -33.8350   24.2026 N   0  0  0  0  0  0
  -23.4922  -30.4220   21.5111 C   0  0  2  0  0  0
  -24.9455  -28.7844   20.1102 C   0  0  0  0  0  0
  -22.7698  -29.4396   22.4709 C   0  0  0  0  0  0
  -18.0346  -28.1373   22.8486 C   0  0  0  0  0  0
  -24.1503  -36.7215   23.2655 C   0  0  0  0  0  0
  -26.0648  -30.5856   21.4065 C   0  0  0  0  0  0
  -26.1299  -29.1610   20.7553 C   0  0  0  0  0  0
  -27.2546  -28.2034   20.7710 C   0  0  0  0  0  0
  -25.9998  -26.6178   19.5099 C   0  0  0  0  0  0
  -24.9100  -27.5342   19.4667 C   0  0  0  0  0  0
  -23.7419  -29.7315   20.1386 C   0  0  0  0  0  0
  -25.4142  -36.2931   24.0292 C   0  0  1  0  0  0
  -20.5973  -28.3756   23.1136 C   0  0  2  0  0  0
  -20.6820  -26.9436   22.5373 C   0  0  0  0  0  0
  -19.5782  -26.6363   21.5190 C   0  0  0  0  0  0
  -18.1976  -26.7908   22.1636 C   0  0  0  0  0  0
  -19.1611  -28.8892   23.2801 C   0  0  0  0  0  0
  -18.9519  -30.1471   23.8848 C   0  0  0  0  0  0
  -17.6508  -30.6581   24.0565 C   0  0  0  0  0  0
  -25.9099  -34.9308   23.4983 C   0  0  0  0  0  0
  -16.5402  -29.9082   23.6323 C   0  0  0  0  0  0
  -16.7319  -28.6489   23.0371 C   0  0  0  0  0  0
  -26.4533  -31.6510   25.0701 C   0  0  0  0  0  0
  -25.3660  -31.3852   26.1370 C   0  0  0  0  0  0
  -27.0427  -30.2843   24.6531 C   0  0  0  0  0  0
  -27.6011  -32.4345   25.7519 C   0  0  0  0  0  0
  -27.5565  -37.1769   24.8474 C   0  0  0  0  0  0
  -21.4369  -29.3032   22.3451 N   0  0  0  0  0  0
  -26.4281  -37.3670   23.9389 N   0  0  0  0  0  0
  -24.7650  -30.9700   22.0803 N   0  0  0  0  0  0
  -23.4196  -28.7986   23.3009 O   0  0  0  0  0  0
  -28.2063  -25.6727   20.3015 O   0  0  0  0  0  0
  -26.5746  -34.8866   22.4601 O   0  0  0  0  0  0
  -23.5707  -32.1144   23.6624 O   0  0  0  0  0  0
  -29.2278  -19.3742   21.0218 C   0  0  0  0  0  0
  -29.0386  -20.6895   20.2248 C   0  0  0  0  0  0
  -29.4876  -18.1458   20.2603 C   0  0  0  0  0  0
  -30.4681  -22.8992   20.2611 C   0  0  0  0  0  0
  -28.8251  -22.5166   22.1159 C   0  0  0  0  0  0
  -29.3556  -18.0480   17.6856 C   0  0  0  0  0  0
  -28.0480  -23.9910   20.0680 C   0  0  0  0  0  0
  -29.0132  -22.4780   20.5768 C   0  0  0  0  0  0
  -29.1795  -20.1480   18.9817 N   0  0  0  0  0  0
  -29.3739  -18.7359   18.9831 N   0  0  0  0  0  0
  -29.5913  -16.6556   20.6104 N   0  0  0  0  0  0
  -31.4491  -13.0859   19.2637 H   0  0  0  0  0  0
  -30.5026  -11.9892   20.1970 H   0  0  0  0  0  0
  -29.9461  -11.7976   17.7420 H   0  0  0  0  0  0
  -29.5458  -13.5030   17.6954 H   0  0  0  0  0  0
  -28.1113  -11.2897   19.1743 H   0  0  0  0  0  0
  -27.4350  -12.2736   17.9012 H   0  0  0  0  0  0
  -27.5009  -14.2391   19.3097 H   0  0  0  0  0  0
  -28.7924  -12.5970   21.5477 H   0  0  0  0  0  0
  -28.2158  -14.2380   21.6935 H   0  0  0  0  0  0
  -25.2796   -9.5667   22.4786 H   0  0  0  0  0  0
  -23.9998   -7.4632   22.7480 H   0  0  0  0  0  0
  -21.0834   -8.8854   19.8958 H   0  0  0  0  0  0
  -22.3723  -10.9738   19.6196 H   0  0  0  0  0  0
  -21.2034   -7.6161   23.9755 H   0  0  0  0  0  0
  -21.1486   -6.0513   25.9105 H   0  0  0  0  0  0
  -22.0569   -2.7604   23.2857 H   0  0  0  0  0  0
  -22.4009  -11.9847   22.4935 H   0  0  0  0  0  0
  -21.1010  -13.1179   22.2780 H   0  0  0  0  0  0
  -24.5759  -15.8193   20.5057 H   0  0  0  0  0  0
  -26.1920  -15.6693   20.0323 H   0  0  0  0  0  0
  -26.7409  -32.5040   23.0899 H   0  0  0  0  0  0
  -25.0000  -33.9425   25.0102 H   0  0  0  0  0  0
  -22.8104  -31.2547   21.3319 H   0  0  0  0  0  0
  -23.3716  -35.9595   23.3308 H   0  0  0  0  0  0
  -24.3569  -36.8858   22.2070 H   0  0  0  0  0  0
  -23.7316  -37.6435   23.6702 H   0  0  0  0  0  0
  -26.2467  -31.3180   20.6186 H   0  0  0  0  0  0
  -26.9219  -30.6574   22.0633 H   0  0  0  0  0  0
  -28.1508  -28.4904   21.3023 H   0  0  0  0  0  0
  -25.8553  -25.6643   19.0243 H   0  0  0  0  0  0
  -24.0090  -27.2359   18.9470 H   0  0  0  0  0  0
  -23.9172  -30.5029   19.3883 H   0  0  0  0  0  0
  -22.8479  -29.2049   19.8019 H   0  0  0  0  0  0
  -25.1340  -36.1755   25.0784 H   0  0  0  0  0  0
  -21.0075  -28.3375   24.1241 H   0  0  0  0  0  0
  -20.5671  -26.2393   23.3628 H   0  0  0  0  0  0
  -21.6682  -26.7362   22.1188 H   0  0  0  0  0  0
  -19.6947  -25.6254   21.1257 H   0  0  0  0  0  0
  -19.6700  -27.3142   20.6692 H   0  0  0  0  0  0
  -17.4222  -26.6601   21.4070 H   0  0  0  0  0  0
  -18.0432  -26.0062   22.9061 H   0  0  0  0  0  0
  -19.8004  -30.7300   24.2178 H   0  0  0  0  0  0
  -17.5065  -31.6236   24.5219 H   0  0  0  0  0  0
  -15.5397  -30.2977   23.7634 H   0  0  0  0  0  0
  -15.8732  -28.0775   22.7099 H   0  0  0  0  0  0
  -24.5709  -30.7380   25.7657 H   0  0  0  0  0  0
  -24.9042  -32.3124   26.4790 H   0  0  0  0  0  0
  -25.7823  -30.8950   27.0183 H   0  0  0  0  0  0
  -26.3077  -29.6479   24.1595 H   0  0  0  0  0  0
  -27.3941  -29.7282   25.5239 H   0  0  0  0  0  0
  -27.9043  -30.3954   23.9945 H   0  0  0  0  0  0
  -27.2504  -33.3621   26.2080 H   0  0  0  0  0  0
  -28.3827  -32.6971   25.0368 H   0  0  0  0  0  0
  -28.0698  -31.8534   26.5486 H   0  0  0  0  0  0
  -28.2584  -38.0054   24.7407 H   0  0  0  0  0  0
  -28.1037  -36.2561   24.6409 H   0  0  0  0  0  0
  -27.2266  -37.1549   25.8876 H   0  0  0  0  0  0
  -20.9594  -29.8736   21.6615 H   0  0  0  0  0  0
  -26.0124  -38.2729   24.1347 H   0  0  0  0  0  0
  -29.1942  -19.3611   22.1048 H   0  0  0  0  0  0
  -31.1961  -22.3544   20.8655 H   0  0  0  0  0  0
  -30.6354  -23.9613   20.4481 H   0  0  0  0  0  0
  -30.7186  -22.7256   19.2144 H   0  0  0  0  0  0
  -29.5937  -21.9487   22.6457 H   0  0  0  0  0  0
  -27.8609  -22.0973   22.4109 H   0  0  0  0  0  0
  -28.8590  -23.5337   22.5115 H   0  0  0  0  0  0
  -29.4820  -16.9712   17.7980 H   0  0  0  0  0  0
  -30.1558  -18.4096   17.0377 H   0  0  0  0  0  0
  -28.4019  -18.2084   17.1724 H   0  0  0  0  0  0
  -27.0335  -23.7980   20.4214 H   0  0  0  0  0  0
  -27.9647  -23.9033   18.9826 H   0  0  0  0  0  0
  -28.8353  -16.4026   21.2259 H   0  0  0  0  0  0
  1 25  1  0  0  0
  1 30  2  0  0  0
  1 81  1  0  0  0
  2  3  1  0  0  0
  2 25  1  0  0  0
  2 82  1  0  0  0
  2 83  1  0  0  0
  3  4  1  0  0  0
  3 84  1  0  0  0
  3 85  1  0  0  0
  4  5  1  0  0  0
  4 86  1  0  0  0
  4 87  1  0  0  0
  5  6  1  0  0  0
  5 26  1  0  0  0
  5 88  1  0  0  0
  6 25  1  0  0  0
  6 89  1  0  0  0
  6 90  1  0  0  0
  7  8  2  0  0  0
  7 26  1  0  0  0
  7 29  1  0  0  0
  8  9  1  0  0  0
  8 22  1  0  0  0
  9 10  1  0  0  0
  9 27  2  0  0  0
 10 11  2  0  0  0
 10 15  1  0  0  0
 11 12  1  0  0  0
 11 91  1  0  0  0
 12 13  2  0  0  0
 12 92  1  0  0  0
 13 14  1  0  0  0
 13 31  1  0  0  0
 14 15  2  0  0  0
 14 93  1  0  0  0
 15 94  1  0  0  0
 16 17  2  0  0  0
 16 21  1  0  0  0
 16 31  1  0  0  0
 17 18  1  0  0  0
 17 95  1  0  0  0
 18 19  2  0  0  0
 18 96  1  0  0  0
 19 20  1  0  0  0
 19 24  1  0  0  0
 20 21  2  0  0  0
 20 97  1  0  0  0
 21 23  1  0  0  0
 22 28  1  0  0  0
 22 32  2  0  0  0
 26 27  1  0  0  0
 28 98  1  0  0  0
 28 99  1  0  0  0
 29100  1  0  0  0
 29101  1  0  0  0
 33 34  1  0  0  0
 33 66  1  0  0  0
 33 70  2  0  0  0
 34 36  1  0  0  0
 34 59  1  0  0  0
 34102  1  0  0  0
 35 44  2  0  0  0
 35 45  1  0  0  0
 35 68  1  0  0  0
 36 56  1  0  0  0
 36103  1  0  0  0
 37 39  1  0  0  0
 37 47  1  0  0  0
 37 66  1  0  0  0
 37104  1  0  0  0
 38 43  2  0  0  0
 38 46  1  0  0  0
 38 47  1  0  0  0
 39 64  1  0  0  0
 39 67  2  0  0  0
 40 52  1  0  0  0
 40 53  2  0  0  0
 40 58  1  0  0  0
 41105  1  0  0  0
 41106  1  0  0  0
 41107  1  0  0  0
 41 48  1  0  0  0
 42 43  1  0  0  0
 42 66  1  0  0  0
 42108  1  0  0  0
 42109  1  0  0  0
 43 44  1  0  0  0
 44110  1  0  0  0
 45 46  2  0  0  0
 45111  1  0  0  0
 46112  1  0  0  0
 47113  1  0  0  0
 47114  1  0  0  0
 48 56  1  0  0  0
 48 65  1  0  0  0
 48115  1  0  0  0
 49 50  1  0  0  0
 49 53  1  0  0  0
 49 64  1  0  0  0
 49116  1  0  0  0
 50 51  1  0  0  0
 50117  1  0  0  0
 50118  1  0  0  0
 51 52  1  0  0  0
 51119  1  0  0  0
 51120  1  0  0  0
 52121  1  0  0  0
 52122  1  0  0  0
 53 54  1  0  0  0
 54 55  2  0  0  0
 54123  1  0  0  0
 55 57  1  0  0  0
 55124  1  0  0  0
 56 69  2  0  0  0
 57 58  2  0  0  0
 57125  1  0  0  0
 58126  1  0  0  0
 59 60  1  0  0  0
 59 61  1  0  0  0
 59 62  1  0  0  0
 60127  1  0  0  0
 60128  1  0  0  0
 60129  1  0  0  0
 61130  1  0  0  0
 61131  1  0  0  0
 61132  1  0  0  0
 62133  1  0  0  0
 62134  1  0  0  0
 62135  1  0  0  0
 63 65  1  0  0  0
 63136  1  0  0  0
 63137  1  0  0  0
 63138  1  0  0  0
 64139  1  0  0  0
 65140  1  0  0  0
 68 77  1  0  0  0
 71 72  1  0  0  0
 71 73  2  0  0  0
 71141  1  0  0  0
 72 78  1  0  0  0
 72 79  2  0  0  0
 73 80  1  0  0  0
 73 81  1  0  0  0
 74142  1  0  0  0
 74143  1  0  0  0
 74144  1  0  0  0
 74 78  1  0  0  0
 75 78  1  0  0  0
 75145  1  0  0  0
 75146  1  0  0  0
 75147  1  0  0  0
 76 80  1  0  0  0
 76148  1  0  0  0
 76149  1  0  0  0
 76150  1  0  0  0
 77 78  1  0  0  0
 77151  1  0  0  0
 77152  1  0  0  0
 79 80  1  0  0  0
 81153  1  0  0  0
M  ISO  4   1 100  68 101  77 101  81 100
M  END
> <chiral flag>
0

> <version>
0

> <s_m_source_file>
/data/baiqing/PycharmProjects/Reinvent-master-3.2/result/LINK_invent/BTK/process_docking_weight1_custom_sum_contain_oxygen_bond_distance_aromatic_linkinvent_7_9_3/rearranged_h_0018.sdf

> <i_m_source_file_index>
14

> <r_mmod_Potential_Energy-OPLS-2005>
1537.68322753906

> <r_mmod_Stretch_Energy-OPLS-2005>
724.656494140625

> <r_mmod_Bend_Energy-OPLS-2005>
520.632446289062

> <r_mmod_Torsional_Energy-OPLS-2005>
232.671966552734

> <r_mmod_Improper_Torsional_Energy-OPLS-2005>
5.21533441543579

> <r_mmod_Van_der_Waal_Energy-OPLS-2005>
100.194969177246

> <r_mmod_Electrostatic_Energy-OPLS-2005>
-438.980529785156

> <r_mmod_Solvation_Energy-OPLS-2005>
-223.924133300781

> <b_mmod_Minimization_Converged-OPLS-2005>
0

> <r_mmod_RMS_Derivative-OPLS-2005>
7.59982919692993

$$$$
15
                    3D
 Structure written by MMmdl.
152160  0  0  1  0            999 V2000
  -30.4306  -15.1934   20.4020 C   0  0  0  0  0  0
  -30.4466  -12.7500   19.5384 C   0  0  0  0  0  0
  -29.5398  -12.5712   18.2923 C   0  0  0  0  0  0
  -28.0830  -12.3005   18.7098 C   0  0  0  0  0  0
  -27.6176  -13.2643   19.8291 C   0  0  2  0  0  0
  -28.6486  -13.3851   20.9734 C   0  0  0  0  0  0
  -25.2384  -13.8224   20.5673 C   0  0  0  0  0  0
  -24.1751  -13.0436   20.9262 C   0  0  0  0  0  0
  -24.6397  -11.6935   20.8759 C   0  0  0  0  0  0
  -23.9089  -10.4294   21.0403 C   0  0  0  0  0  0
  -24.3629   -9.4199   21.9177 C   0  0  0  0  0  0
  -23.6303   -8.2238   22.0746 C   0  0  0  0  0  0
  -22.4280   -8.0276   21.3539 C   0  0  0  0  0  0
  -21.9919   -9.0250   20.4639 C   0  0  0  0  0  0
  -22.7254  -10.2129   20.3048 C   0  0  0  0  0  0
  -21.6849   -6.0732   22.5282 C   0  0  0  0  0  0
  -21.4019   -6.5636   23.8222 C   0  0  0  0  0  0
  -21.3663   -5.6782   24.9178 C   0  0  0  0  0  0
  -21.6039   -4.3048   24.7223 C   0  0  0  0  0  0
  -21.8821   -3.8143   23.4342 C   0  0  0  0  0  0
  -21.9194   -4.6967   22.3406 C   0  0  0  0  0  0
  -22.7770  -13.5193   21.1918 C   0  0  0  0  0  0
  -22.1659   -4.2159   21.0976 F   0  0  0  0  0  0
  -21.5630   -3.4528   25.7731 F   0  0  0  0  0  0
  -29.9010  -13.8767   20.3763 N   0  0  0  0  0  0
  -26.2821  -12.9490   20.3180 N   0  0  0  0  0  0
  -25.9325  -11.6612   20.5703 N   0  0  0  0  0  0
  -22.0420  -12.8172   22.0468 N   0  0  0  0  0  0
  -25.3983  -15.1944   20.3982 N   0  0  0  0  0  0
  -31.6375  -15.2468   20.1165 O   0  0  0  0  0  0
  -21.6638   -6.8878   21.4244 O   0  0  0  0  0  0
  -22.3442  -14.5490   20.6753 O   0  0  0  0  0  0
  -24.6543  -31.8293   23.1737 C   0  0  0  0  0  0
  -25.9274  -32.4587   23.8163 C   0  0  1  0  0  0
  -27.2198  -26.9698   20.1933 C   0  0  0  0  0  0
  -25.5977  -33.8403   24.2095 N   0  0  0  0  0  0
  -23.4642  -30.4388   21.5235 C   0  0  2  0  0  0
  -24.9185  -28.8306   20.1117 C   0  0  0  0  0  0
  -22.7617  -29.4441   22.4822 C   0  0  0  0  0  0
  -18.0305  -28.1335   22.8430 C   0  0  0  0  0  0
  -24.1502  -36.7216   23.2650 C   0  0  0  0  0  0
  -26.0301  -30.6473   21.3986 C   0  0  0  0  0  0
  -26.1008  -29.2419   20.7429 C   0  0  0  0  0  0
  -27.2443  -28.3310   20.7611 C   0  0  0  0  0  0
  -26.0139  -26.7002   19.5074 C   0  0  0  0  0  0
  -24.8981  -27.5770   19.4764 C   0  0  0  0  0  0
  -23.7007  -29.7538   20.1495 C   0  0  0  0  0  0
  -25.4134  -36.2964   24.0306 C   0  0  1  0  0  0
  -20.5914  -28.3673   23.1185 C   0  0  2  0  0  0
  -20.6758  -26.9350   22.5397 C   0  0  0  0  0  0
  -19.5766  -26.6316   21.5168 C   0  0  0  0  0  0
  -18.1939  -26.7862   22.1570 C   0  0  0  0  0  0
  -19.1563  -28.8823   23.2776 C   0  0  0  0  0  0
  -18.9491  -30.1415   23.8800 C   0  0  0  0  0  0
  -17.6486  -30.6536   24.0506 C   0  0  0  0  0  0
  -25.9091  -34.9343   23.5021 C   0  0  0  0  0  0
  -16.5375  -29.9014   23.6313 C   0  0  0  0  0  0
  -16.7293  -28.6434   23.0337 C   0  0  0  0  0  0
  -26.4558  -31.6503   25.0666 C   0  0  0  0  0  0
  -25.3701  -31.3756   26.1335 C   0  0  0  0  0  0
  -27.0471  -30.2861   24.6404 C   0  0  0  0  0  0
  -27.6030  -32.4341   25.7465 C   0  0  0  0  0  0
  -27.5575  -37.1767   24.8472 C   0  0  0  0  0  0
  -21.4293  -29.2998   22.3570 N   0  0  0  0  0  0
  -26.4292  -37.3686   23.9402 N   0  0  0  0  0  0
  -24.7360  -30.9987   22.0853 N   0  0  0  0  0  0
  -23.4201  -28.7998   23.3017 O   0  0  0  0  0  0
  -28.2379  -25.8955   20.2911 O   0  0  0  0  0  0
  -26.5694  -34.8878   22.4611 O   0  0  0  0  0  0
  -23.5642  -32.1271   23.6874 O   0  0  0  0  0  0
  -30.0778  -20.3288   19.8163 C   0  0  0  0  0  0
  -29.0564  -21.1565   20.4515 C   0  0  0  0  0  0
  -28.2531  -20.2115   21.2081 C   0  0  0  0  0  0
  -28.4497  -18.7289   21.2192 C   0  0  0  0  0  0
  -29.5122  -17.9860   20.5385 C   0  0  0  0  0  0
  -27.1910  -20.8258   22.1144 C   0  0  0  0  0  0
  -27.4962  -17.8738   22.0555 C   0  0  0  0  0  0
  -29.0784  -22.9013   20.5444 C   0  0  0  0  0  0
  -28.0177  -24.2785   20.1520 C   0  0  0  0  0  0
  -30.2873  -18.9187   19.8532 N   0  0  0  0  0  0
  -29.5896  -16.3799   20.6169 N   0  0  0  0  0  0
  -31.4697  -12.9506   19.2175 H   0  0  0  0  0  0
  -30.4987  -11.8259   20.1170 H   0  0  0  0  0  0
  -29.9092  -11.7621   17.6606 H   0  0  0  0  0  0
  -29.5801  -13.4765   17.6872 H   0  0  0  0  0  0
  -28.0269  -11.2714   19.0675 H   0  0  0  0  0  0
  -27.4196  -12.3582   17.8463 H   0  0  0  0  0  0
  -27.5498  -14.2419   19.3508 H   0  0  0  0  0  0
  -28.7876  -12.4285   21.4806 H   0  0  0  0  0  0
  -28.2951  -14.0855   21.7311 H   0  0  0  0  0  0
  -25.2770   -9.5676   22.4755 H   0  0  0  0  0  0
  -24.0012   -7.4619   22.7454 H   0  0  0  0  0  0
  -21.0854   -8.8773   19.8928 H   0  0  0  0  0  0
  -22.3716  -10.9670   19.6153 H   0  0  0  0  0  0
  -21.2015   -7.6145   23.9734 H   0  0  0  0  0  0
  -21.1478   -6.0507   25.9088 H   0  0  0  0  0  0
  -22.0596   -2.7612   23.2839 H   0  0  0  0  0  0
  -22.4048  -11.9849   22.4889 H   0  0  0  0  0  0
  -21.1026  -13.1177   22.2657 H   0  0  0  0  0  0
  -24.6000  -15.8171   20.4515 H   0  0  0  0  0  0
  -26.1903  -15.6113   19.9290 H   0  0  0  0  0  0
  -26.7330  -32.5156   23.0870 H   0  0  0  0  0  0
  -25.0064  -33.9469   25.0205 H   0  0  0  0  0  0
  -22.7691  -31.2655   21.3582 H   0  0  0  0  0  0
  -23.3752  -35.9557   23.3319 H   0  0  0  0  0  0
  -24.3569  -36.8857   22.2062 H   0  0  0  0  0  0
  -23.7289  -37.6419   23.6708 H   0  0  0  0  0  0
  -26.2068  -31.3940   20.6239 H   0  0  0  0  0  0
  -26.8900  -30.7028   22.0541 H   0  0  0  0  0  0
  -28.1345  -28.6416   21.2916 H   0  0  0  0  0  0
  -25.8999  -25.7419   19.0212 H   0  0  0  0  0  0
  -23.9978  -27.2481   18.9755 H   0  0  0  0  0  0
  -23.8483  -30.5260   19.3944 H   0  0  0  0  0  0
  -22.8099  -29.2073   19.8321 H   0  0  0  0  0  0
  -25.1328  -36.1769   25.0795 H   0  0  0  0  0  0
  -20.9986  -28.3270   24.1319 H   0  0  0  0  0  0
  -20.5567  -26.2286   23.3631 H   0  0  0  0  0  0
  -21.6633  -26.7283   22.1259 H   0  0  0  0  0  0
  -19.6920  -25.6222   21.1216 H   0  0  0  0  0  0
  -19.6713  -27.3097   20.6666 H   0  0  0  0  0  0
  -17.4202  -26.6579   21.3979 H   0  0  0  0  0  0
  -18.0339  -25.9991   22.8966 H   0  0  0  0  0  0
  -19.7990  -30.7202   24.2154 H   0  0  0  0  0  0
  -17.5064  -31.6217   24.5104 H   0  0  0  0  0  0
  -15.5374  -30.2873   23.7701 H   0  0  0  0  0  0
  -15.8693  -28.0721   22.7106 H   0  0  0  0  0  0
  -24.5882  -30.7096   25.7672 H   0  0  0  0  0  0
  -24.8882  -32.2957   26.4643 H   0  0  0  0  0  0
  -25.7925  -30.9011   27.0197 H   0  0  0  0  0  0
  -26.3156  -29.6498   24.1404 H   0  0  0  0  0  0
  -27.3996  -29.7244   25.5067 H   0  0  0  0  0  0
  -27.9082  -30.4017   23.9812 H   0  0  0  0  0  0
  -27.2572  -33.3697   26.1872 H   0  0  0  0  0  0
  -28.3900  -32.6832   25.0340 H   0  0  0  0  0  0
  -28.0619  -31.8599   26.5528 H   0  0  0  0  0  0
  -28.2586  -38.0062   24.7452 H   0  0  0  0  0  0
  -28.1086  -36.2580   24.6382 H   0  0  0  0  0  0
  -27.2282  -37.1485   25.8875 H   0  0  0  0  0  0
  -20.9522  -29.8763   21.6779 H   0  0  0  0  0  0
  -26.0153  -38.2761   24.1372 H   0  0  0  0  0  0
  -30.8495  -20.8478   19.2655 H   0  0  0  0  0  0
  -27.1416  -21.9087   22.0162 H   0  0  0  0  0  0
  -27.4183  -20.6113   23.1593 H   0  0  0  0  0  0
  -26.1924  -20.4531   21.8887 H   0  0  0  0  0  0
  -26.5310  -18.3383   22.2436 H   0  0  0  0  0  0
  -27.9528  -17.6323   23.0164 H   0  0  0  0  0  0
  -27.2613  -16.9363   21.5548 H   0  0  0  0  0  0
  -30.0180  -23.1523   20.0537 H   0  0  0  0  0  0
  -29.2995  -23.0571   21.5997 H   0  0  0  0  0  0
  -27.0870  -24.0903   20.6887 H   0  0  0  0  0  0
  -27.7513  -24.1405   19.1034 H   0  0  0  0  0  0
  -28.6998  -16.0276   20.9289 H   0  0  0  0  0  0
  1 25  1  0  0  0
  1 30  2  0  0  0
  1 81  1  0  0  0
  2  3  1  0  0  0
  2 25  1  0  0  0
  2 82  1  0  0  0
  2 83  1  0  0  0
  3  4  1  0  0  0
  3 84  1  0  0  0
  3 85  1  0  0  0
  4  5  1  0  0  0
  4 86  1  0  0  0
  4 87  1  0  0  0
  5  6  1  0  0  0
  5 26  1  0  0  0
  5 88  1  0  0  0
  6 25  1  0  0  0
  6 89  1  0  0  0
  6 90  1  0  0  0
  7  8  2  0  0  0
  7 26  1  0  0  0
  7 29  1  0  0  0
  8  9  1  0  0  0
  8 22  1  0  0  0
  9 10  1  0  0  0
  9 27  2  0  0  0
 10 11  2  0  0  0
 10 15  1  0  0  0
 11 12  1  0  0  0
 11 91  1  0  0  0
 12 13  2  0  0  0
 12 92  1  0  0  0
 13 14  1  0  0  0
 13 31  1  0  0  0
 14 15  2  0  0  0
 14 93  1  0  0  0
 15 94  1  0  0  0
 16 17  2  0  0  0
 16 21  1  0  0  0
 16 31  1  0  0  0
 17 18  1  0  0  0
 17 95  1  0  0  0
 18 19  2  0  0  0
 18 96  1  0  0  0
 19 20  1  0  0  0
 19 24  1  0  0  0
 20 21  2  0  0  0
 20 97  1  0  0  0
 21 23  1  0  0  0
 22 28  1  0  0  0
 22 32  2  0  0  0
 26 27  1  0  0  0
 28 98  1  0  0  0
 28 99  1  0  0  0
 29100  1  0  0  0
 29101  1  0  0  0
 33 34  1  0  0  0
 33 66  1  0  0  0
 33 70  2  0  0  0
 34 36  1  0  0  0
 34 59  1  0  0  0
 34102  1  0  0  0
 35 44  2  0  0  0
 35 45  1  0  0  0
 35 68  1  0  0  0
 36 56  1  0  0  0
 36103  1  0  0  0
 37 39  1  0  0  0
 37 47  1  0  0  0
 37 66  1  0  0  0
 37104  1  0  0  0
 38 43  2  0  0  0
 38 46  1  0  0  0
 38 47  1  0  0  0
 39 64  1  0  0  0
 39 67  2  0  0  0
 40 52  1  0  0  0
 40 53  2  0  0  0
 40 58  1  0  0  0
 41105  1  0  0  0
 41106  1  0  0  0
 41107  1  0  0  0
 41 48  1  0  0  0
 42 43  1  0  0  0
 42 66  1  0  0  0
 42108  1  0  0  0
 42109  1  0  0  0
 43 44  1  0  0  0
 44110  1  0  0  0
 45 46  2  0  0  0
 45111  1  0  0  0
 46112  1  0  0  0
 47113  1  0  0  0
 47114  1  0  0  0
 48 56  1  0  0  0
 48 65  1  0  0  0
 48115  1  0  0  0
 49 50  1  0  0  0
 49 53  1  0  0  0
 49 64  1  0  0  0
 49116  1  0  0  0
 50 51  1  0  0  0
 50117  1  0  0  0
 50118  1  0  0  0
 51 52  1  0  0  0
 51119  1  0  0  0
 51120  1  0  0  0
 52121  1  0  0  0
 52122  1  0  0  0
 53 54  1  0  0  0
 54 55  2  0  0  0
 54123  1  0  0  0
 55 57  1  0  0  0
 55124  1  0  0  0
 56 69  2  0  0  0
 57 58  2  0  0  0
 57125  1  0  0  0
 58126  1  0  0  0
 59 60  1  0  0  0
 59 61  1  0  0  0
 59 62  1  0  0  0
 60127  1  0  0  0
 60128  1  0  0  0
 60129  1  0  0  0
 61130  1  0  0  0
 61131  1  0  0  0
 61132  1  0  0  0
 62133  1  0  0  0
 62134  1  0  0  0
 62135  1  0  0  0
 63 65  1  0  0  0
 63136  1  0  0  0
 63137  1  0  0  0
 63138  1  0  0  0
 64139  1  0  0  0
 65140  1  0  0  0
 68 79  1  0  0  0
 71 72  2  0  0  0
 71 80  1  0  0  0
 71141  1  0  0  0
 72 73  1  0  0  0
 72 78  1  0  0  0
 73 74  2  0  0  0
 73 76  1  0  0  0
 74 75  1  0  0  0
 74 77  1  0  0  0
 75 80  2  0  0  0
 75 81  1  0  0  0
 76142  1  0  0  0
 76143  1  0  0  0
 76144  1  0  0  0
 77145  1  0  0  0
 77146  1  0  0  0
 77147  1  0  0  0
 78 79  1  0  0  0
 78148  1  0  0  0
 78149  1  0  0  0
 79150  1  0  0  0
 79151  1  0  0  0
 81152  1  0  0  0
M  ISO  4   1 100  68 101  79 101  81 100
M  END
> <chiral flag>
0

> <version>
0

> <s_m_source_file>
/data/baiqing/PycharmProjects/Reinvent-master-3.2/result/LINK_invent/BTK/process_docking_weight1_custom_sum_contain_oxygen_bond_distance_aromatic_linkinvent_7_9_3/rearranged_h_0018.sdf

> <i_m_source_file_index>
15

> <r_mmod_Potential_Energy-OPLS-2005>
884.942321777344

> <r_mmod_Stretch_Energy-OPLS-2005>
478.114074707031

> <r_mmod_Bend_Energy-OPLS-2005>
414.563385009766

> <r_mmod_Torsional_Energy-OPLS-2005>
210.677719116211

> <r_mmod_Improper_Torsional_Energy-OPLS-2005>
6.46240711212158

> <r_mmod_Van_der_Waal_Energy-OPLS-2005>
134.140197753906

> <r_mmod_Electrostatic_Energy-OPLS-2005>
-512.313110351562

> <r_mmod_Solvation_Energy-OPLS-2005>
-237.38166809082

> <b_mmod_Minimization_Converged-OPLS-2005>
0

> <r_mmod_RMS_Derivative-OPLS-2005>
2.91486716270447

$$$$
16
                    3D
 Structure written by MMmdl.
147155  0  0  1  0            999 V2000
  -30.2617  -15.7705   20.3202 C   0  0  0  0  0  0
  -30.4125  -13.1837   19.5368 C   0  0  0  0  0  0
  -29.5526  -12.6880   18.3354 C   0  0  0  0  0  0
  -28.1387  -12.3009   18.7893 C   0  0  0  0  0  0
  -27.5905  -13.3215   19.8096 C   0  0  2  0  0  0
  -28.5986  -13.7181   20.9178 C   0  0  0  0  0  0
  -25.2303  -13.8303   20.5824 C   0  0  0  0  0  0
  -24.1706  -13.0435   20.9303 C   0  0  0  0  0  0
  -24.6427  -11.6953   20.8766 C   0  0  0  0  0  0
  -23.9133  -10.4294   21.0395 C   0  0  0  0  0  0
  -24.3664   -9.4205   21.9176 C   0  0  0  0  0  0
  -23.6320   -8.2249   22.0751 C   0  0  0  0  0  0
  -22.4298   -8.0292   21.3547 C   0  0  0  0  0  0
  -21.9950   -9.0268   20.4643 C   0  0  0  0  0  0
  -22.7299  -10.2137   20.3047 C   0  0  0  0  0  0
  -21.6862   -6.0746   22.5279 C   0  0  0  0  0  0
  -21.4018   -6.5646   23.8214 C   0  0  0  0  0  0
  -21.3656   -5.6797   24.9174 C   0  0  0  0  0  0
  -21.6043   -4.3060   24.7224 C   0  0  0  0  0  0
  -21.8819   -3.8154   23.4346 C   0  0  0  0  0  0
  -21.9196   -4.6971   22.3401 C   0  0  0  0  0  0
  -22.7714  -13.5154   21.1931 C   0  0  0  0  0  0
  -22.1664   -4.2158   21.0979 F   0  0  0  0  0  0
  -21.5624   -3.4541   25.7734 F   0  0  0  0  0  0
  -29.7487  -14.3827   20.2486 N   0  0  0  0  0  0
  -26.2766  -12.9662   20.3258 N   0  0  0  0  0  0
  -25.9377  -11.6717   20.5697 N   0  0  0  0  0  0
  -22.0385  -12.8123   22.0481 N   0  0  0  0  0  0
  -25.3873  -15.2046   20.4269 N   0  0  0  0  0  0
  -31.4978  -15.6590   20.1860 O   0  0  0  0  0  0
  -21.6650   -6.8894   21.4243 O   0  0  0  0  0  0
  -22.3384  -14.5452   20.6767 O   0  0  0  0  0  0
  -24.6935  -31.7888   23.1424 C   0  0  0  0  0  0
  -25.9467  -32.4412   23.8011 C   0  0  1  0  0  0
  -27.2305  -26.6028   20.2254 C   0  0  0  0  0  0
  -25.6007  -33.8241   24.1895 N   0  0  0  0  0  0
  -23.5242  -30.3862   21.4986 C   0  0  2  0  0  0
  -24.9826  -28.7054   20.1208 C   0  0  0  0  0  0
  -22.7810  -29.4263   22.4681 C   0  0  0  0  0  0
  -18.0346  -28.1436   22.8455 C   0  0  0  0  0  0
  -24.1485  -36.7117   23.2659 C   0  0  0  0  0  0
  -26.1093  -30.4886   21.4221 C   0  0  0  0  0  0
  -26.1737  -29.0424   20.7743 C   0  0  0  0  0  0
  -27.2776  -28.0222   20.7906 C   0  0  0  0  0  0
  -26.0054  -26.5009   19.5115 C   0  0  0  0  0  0
  -24.9439  -27.4619   19.4648 C   0  0  0  0  0  0
  -23.7833  -29.6730   20.1387 C   0  0  0  0  0  0
  -25.4145  -36.2861   24.0276 C   0  0  1  0  0  0
  -20.5987  -28.3800   23.1123 C   0  0  2  0  0  0
  -20.6806  -26.9450   22.5406 C   0  0  0  0  0  0
  -19.5780  -26.6377   21.5221 C   0  0  0  0  0  0
  -18.1964  -26.7965   22.1621 C   0  0  0  0  0  0
  -19.1616  -28.8945   23.2767 C   0  0  0  0  0  0
  -18.9521  -30.1525   23.8819 C   0  0  0  0  0  0
  -17.6510  -30.6617   24.0554 C   0  0  0  0  0  0
  -25.9132  -34.9255   23.4928 C   0  0  0  0  0  0
  -16.5397  -29.9100   23.6359 C   0  0  0  0  0  0
  -16.7325  -28.6520   23.0378 C   0  0  0  0  0  0
  -26.4614  -31.6485   25.0673 C   0  0  0  0  0  0
  -25.3648  -31.3835   26.1264 C   0  0  0  0  0  0
  -27.0565  -30.2813   24.6646 C   0  0  0  0  0  0
  -27.6046  -32.4368   25.7496 C   0  0  0  0  0  0
  -27.5546  -37.1728   24.8480 C   0  0  0  0  0  0
  -21.4449  -29.3026   22.3429 N   0  0  0  0  0  0
  -26.4265  -37.3631   23.9403 N   0  0  0  0  0  0
  -24.8003  -30.9237   22.0730 N   0  0  0  0  0  0
  -23.4207  -28.7887   23.3076 O   0  0  0  0  0  0
  -28.1793  -25.3376   20.2993 O   0  0  0  0  0  0
  -26.5785  -34.8854   22.4554 O   0  0  0  0  0  0
  -23.5933  -32.1011   23.6313 O   0  0  0  0  0  0
  -31.1959  -20.8967   20.7838 C   0  0  0  0  0  0
  -30.3157  -22.0189   20.6272 C   0  0  0  0  0  0
  -28.9348  -21.8991   20.3277 C   0  0  0  0  0  0
  -29.6289  -18.9422   20.3801 C   0  0  0  0  0  0
  -30.9095  -19.4945   20.6820 C   0  0  0  0  0  0
  -28.6835  -20.2765   20.2240 C   0  0  0  0  0  0
  -30.9023  -23.4099   20.8024 C   0  0  0  0  0  0
  -27.9646  -23.5448   20.1691 C   0  0  0  0  0  0
  -29.4999  -17.1736   20.3270 N   0  0  0  0  0  0
  -32.2545  -18.4599   20.9949 Cl  0  0  0  0  0  0
  -27.0416  -19.8801   19.8719 Cl  0  0  0  0  0  0
  -31.3944  -13.4627   19.1532 H   0  0  0  0  0  0
  -30.6081  -12.3679   20.2349 H   0  0  0  0  0  0
  -30.0349  -11.8440   17.8405 H   0  0  0  0  0  0
  -29.4879  -13.4840   17.5920 H   0  0  0  0  0  0
  -28.1942  -11.3164   19.2559 H   0  0  0  0  0  0
  -27.4693  -12.2019   17.9339 H   0  0  0  0  0  0
  -27.4321  -14.2221   19.2141 H   0  0  0  0  0  0
  -28.8922  -12.8625   21.5281 H   0  0  0  0  0  0
  -28.1378  -14.4339   21.6002 H   0  0  0  0  0  0
  -25.2802   -9.5676   22.4763 H   0  0  0  0  0  0
  -24.0019   -7.4640   22.7477 H   0  0  0  0  0  0
  -21.0880   -8.8802   19.8949 H   0  0  0  0  0  0
  -22.3761  -10.9681   19.6158 H   0  0  0  0  0  0
  -21.2013   -7.6155   23.9721 H   0  0  0  0  0  0
  -21.1473   -6.0525   25.9077 H   0  0  0  0  0  0
  -22.0599   -2.7616   23.2843 H   0  0  0  0  0  0
  -22.4034  -11.9800   22.4873 H   0  0  0  0  0  0
  -21.0987  -13.1104   22.2675 H   0  0  0  0  0  0
  -24.6139  -15.8505   20.5428 H   0  0  0  0  0  0
  -26.2256  -15.6501   20.0798 H   0  0  0  0  0  0
  -26.7559  -32.4860   23.0728 H   0  0  0  0  0  0
  -25.0057  -33.9262   24.9986 H   0  0  0  0  0  0
  -22.8553  -31.2263   21.2996 H   0  0  0  0  0  0
  -23.3760  -35.9435   23.3306 H   0  0  0  0  0  0
  -24.3535  -36.8797   22.2075 H   0  0  0  0  0  0
  -23.7237  -37.6289   23.6750 H   0  0  0  0  0  0
  -26.3239  -31.2066   20.6295 H   0  0  0  0  0  0
  -26.9560  -30.5597   22.0922 H   0  0  0  0  0  0
  -28.1706  -28.2902   21.3369 H   0  0  0  0  0  0
  -25.8229  -25.5653   19.0021 H   0  0  0  0  0  0
  -24.0478  -27.1937   18.9222 H   0  0  0  0  0  0
  -23.9665  -30.4284   19.3735 H   0  0  0  0  0  0
  -22.8859  -29.1444   19.8122 H   0  0  0  0  0  0
  -25.1364  -36.1612   25.0768 H   0  0  0  0  0  0
  -21.0069  -28.3434   24.1249 H   0  0  0  0  0  0
  -20.5662  -26.2430   23.3680 H   0  0  0  0  0  0
  -21.6667  -26.7380   22.1228 H   0  0  0  0  0  0
  -19.6935  -25.6267   21.1302 H   0  0  0  0  0  0
  -19.6725  -27.3146   20.6720 H   0  0  0  0  0  0
  -17.4234  -26.6712   21.4024 H   0  0  0  0  0  0
  -18.0345  -26.0131   22.9037 H   0  0  0  0  0  0
  -19.7997  -30.7363   24.2151 H   0  0  0  0  0  0
  -17.5063  -31.6288   24.5174 H   0  0  0  0  0  0
  -15.5397  -30.2980   23.7733 H   0  0  0  0  0  0
  -15.8723  -28.0814   22.7146 H   0  0  0  0  0  0
  -24.5862  -30.7158   25.7556 H   0  0  0  0  0  0
  -24.8808  -32.3069   26.4455 H   0  0  0  0  0  0
  -25.7798  -30.9146   27.0193 H   0  0  0  0  0  0
  -26.3305  -29.6393   24.1650 H   0  0  0  0  0  0
  -27.3968  -29.7303   25.5422 H   0  0  0  0  0  0
  -27.9293  -30.3922   24.0210 H   0  0  0  0  0  0
  -27.2579  -33.3759   26.1823 H   0  0  0  0  0  0
  -28.3986  -32.6788   25.0416 H   0  0  0  0  0  0
  -28.0568  -31.8660   26.5616 H   0  0  0  0  0  0
  -28.2574  -38.0010   24.7476 H   0  0  0  0  0  0
  -28.1029  -36.2532   24.6378 H   0  0  0  0  0  0
  -27.2252  -37.1449   25.8881 H   0  0  0  0  0  0
  -20.9781  -29.8644   21.6448 H   0  0  0  0  0  0
  -26.0082  -38.2679   24.1396 H   0  0  0  0  0  0
  -32.2244  -21.1290   21.0219 H   0  0  0  0  0  0
  -31.9699  -23.3796   21.0222 H   0  0  0  0  0  0
  -30.4131  -23.9316   21.6257 H   0  0  0  0  0  0
  -30.7695  -24.0001   19.8949 H   0  0  0  0  0  0
  -27.1274  -23.3707   20.8449 H   0  0  0  0  0  0
  -27.5173  -23.4432   19.1803 H   0  0  0  0  0  0
  -28.5196  -16.9383   20.2929 H   0  0  0  0  0  0
  1 25  1  0  0  0
  1 30  2  0  0  0
  1 79  1  0  0  0
  2  3  1  0  0  0
  2 25  1  0  0  0
  2 82  1  0  0  0
  2 83  1  0  0  0
  3  4  1  0  0  0
  3 84  1  0  0  0
  3 85  1  0  0  0
  4  5  1  0  0  0
  4 86  1  0  0  0
  4 87  1  0  0  0
  5  6  1  0  0  0
  5 26  1  0  0  0
  5 88  1  0  0  0
  6 25  1  0  0  0
  6 89  1  0  0  0
  6 90  1  0  0  0
  7  8  2  0  0  0
  7 26  1  0  0  0
  7 29  1  0  0  0
  8  9  1  0  0  0
  8 22  1  0  0  0
  9 10  1  0  0  0
  9 27  2  0  0  0
 10 11  2  0  0  0
 10 15  1  0  0  0
 11 12  1  0  0  0
 11 91  1  0  0  0
 12 13  2  0  0  0
 12 92  1  0  0  0
 13 14  1  0  0  0
 13 31  1  0  0  0
 14 15  2  0  0  0
 14 93  1  0  0  0
 15 94  1  0  0  0
 16 17  2  0  0  0
 16 21  1  0  0  0
 16 31  1  0  0  0
 17 18  1  0  0  0
 17 95  1  0  0  0
 18 19  2  0  0  0
 18 96  1  0  0  0
 19 20  1  0  0  0
 19 24  1  0  0  0
 20 21  2  0  0  0
 20 97  1  0  0  0
 21 23  1  0  0  0
 22 28  1  0  0  0
 22 32  2  0  0  0
 26 27  1  0  0  0
 28 98  1  0  0  0
 28 99  1  0  0  0
 29100  1  0  0  0
 29101  1  0  0  0
 33 34  1  0  0  0
 33 66  1  0  0  0
 33 70  2  0  0  0
 34 36  1  0  0  0
 34 59  1  0  0  0
 34102  1  0  0  0
 35 44  2  0  0  0
 35 45  1  0  0  0
 35 68  1  0  0  0
 36 56  1  0  0  0
 36103  1  0  0  0
 37 39  1  0  0  0
 37 47  1  0  0  0
 37 66  1  0  0  0
 37104  1  0  0  0
 38 43  2  0  0  0
 38 46  1  0  0  0
 38 47  1  0  0  0
 39 64  1  0  0  0
 39 67  2  0  0  0
 40 52  1  0  0  0
 40 53  2  0  0  0
 40 58  1  0  0  0
 41105  1  0  0  0
 41106  1  0  0  0
 41107  1  0  0  0
 41 48  1  0  0  0
 42 43  1  0  0  0
 42 66  1  0  0  0
 42108  1  0  0  0
 42109  1  0  0  0
 43 44  1  0  0  0
 44110  1  0  0  0
 45 46  2  0  0  0
 45111  1  0  0  0
 46112  1  0  0  0
 47113  1  0  0  0
 47114  1  0  0  0
 48 56  1  0  0  0
 48 65  1  0  0  0
 48115  1  0  0  0
 49 50  1  0  0  0
 49 53  1  0  0  0
 49 64  1  0  0  0
 49116  1  0  0  0
 50 51  1  0  0  0
 50117  1  0  0  0
 50118  1  0  0  0
 51 52  1  0  0  0
 51119  1  0  0  0
 51120  1  0  0  0
 52121  1  0  0  0
 52122  1  0  0  0
 53 54  1  0  0  0
 54 55  2  0  0  0
 54123  1  0  0  0
 55 57  1  0  0  0
 55124  1  0  0  0
 56 69  2  0  0  0
 57 58  2  0  0  0
 57125  1  0  0  0
 58126  1  0  0  0
 59 60  1  0  0  0
 59 61  1  0  0  0
 59 62  1  0  0  0
 60127  1  0  0  0
 60128  1  0  0  0
 60129  1  0  0  0
 61130  1  0  0  0
 61131  1  0  0  0
 61132  1  0  0  0
 62133  1  0  0  0
 62134  1  0  0  0
 62135  1  0  0  0
 63 65  1  0  0  0
 63136  1  0  0  0
 63137  1  0  0  0
 63138  1  0  0  0
 64139  1  0  0  0
 65140  1  0  0  0
 68 78  1  0  0  0
 71 72  2  0  0  0
 71 75  1  0  0  0
 71141  1  0  0  0
 72 73  1  0  0  0
 72 77  1  0  0  0
 73 76  2  0  0  0
 73 78  1  0  0  0
 74 75  2  0  0  0
 74 76  1  0  0  0
 74 79  1  0  0  0
 75 80  1  0  0  0
 76 81  1  0  0  0
 77142  1  0  0  0
 77143  1  0  0  0
 77144  1  0  0  0
 78145  1  0  0  0
 78146  1  0  0  0
 79147  1  0  0  0
M  ISO  4   1 100  68 101  78 101  79 100
M  END
> <chiral flag>
0

> <version>
0

> <s_m_source_file>
/data/baiqing/PycharmProjects/Reinvent-master-3.2/result/LINK_invent/BTK/process_docking_weight1_custom_sum_contain_oxygen_bond_distance_aromatic_linkinvent_7_9_3/rearranged_h_0018.sdf

> <i_m_source_file_index>
16

> <r_mmod_Potential_Energy-OPLS-2005>
2797.55078125

> <r_mmod_Stretch_Energy-OPLS-2005>
1274.02966308594

> <r_mmod_Bend_Energy-OPLS-2005>
642.465393066406

> <r_mmod_Torsional_Energy-OPLS-2005>
223.142623901367

> <r_mmod_Improper_Torsional_Energy-OPLS-2005>
4.74051332473755

> <r_mmod_Van_der_Waal_Energy-OPLS-2005>
129.346237182617

> <r_mmod_Electrostatic_Energy-OPLS-2005>
-376.920959472656

> <r_mmod_Solvation_Energy-OPLS-2005>
-214.045867919922

> <b_mmod_Minimization_Converged-OPLS-2005>
0

> <r_mmod_RMS_Derivative-OPLS-2005>
0.530400216579437

$$$$
17
                    3D
 Structure written by MMmdl.
145153  0  0  1  0            999 V2000
  -30.2731  -15.5937   20.2960 C   0  0  0  0  0  0
  -30.4428  -13.0331   19.5516 C   0  0  0  0  0  0
  -29.5616  -12.6481   18.3259 C   0  0  0  0  0  0
  -28.1263  -12.2967   18.7525 C   0  0  0  0  0  0
  -27.6000  -13.2937   19.8080 C   0  0  2  0  0  0
  -28.6157  -13.6032   20.9300 C   0  0  0  0  0  0
  -25.2373  -13.8247   20.5762 C   0  0  0  0  0  0
  -24.1740  -13.0425   20.9266 C   0  0  0  0  0  0
  -24.6418  -11.6925   20.8740 C   0  0  0  0  0  0
  -23.9113  -10.4281   21.0388 C   0  0  0  0  0  0
  -24.3658   -9.4199   21.9173 C   0  0  0  0  0  0
  -23.6318   -8.2245   22.0755 C   0  0  0  0  0  0
  -22.4293   -8.0288   21.3552 C   0  0  0  0  0  0
  -21.9936   -9.0254   20.4645 C   0  0  0  0  0  0
  -22.7278  -10.2126   20.3042 C   0  0  0  0  0  0
  -21.6858   -6.0740   22.5276 C   0  0  0  0  0  0
  -21.4015   -6.5640   23.8210 C   0  0  0  0  0  0
  -21.3673   -5.6792   24.9176 C   0  0  0  0  0  0
  -21.6055   -4.3058   24.7222 C   0  0  0  0  0  0
  -21.8816   -3.8149   23.4337 C   0  0  0  0  0  0
  -21.9189   -4.6965   22.3396 C   0  0  0  0  0  0
  -22.7754  -13.5178   21.1899 C   0  0  0  0  0  0
  -22.1662   -4.2153   21.0972 F   0  0  0  0  0  0
  -21.5635   -3.4541   25.7735 F   0  0  0  0  0  0
  -29.8164  -14.2045   20.3061 N   0  0  0  0  0  0
  -26.2797  -12.9537   20.3181 N   0  0  0  0  0  0
  -25.9358  -11.6629   20.5662 N   0  0  0  0  0  0
  -22.0414  -12.8168   22.0461 N   0  0  0  0  0  0
  -25.4003  -15.1989   20.4221 N   0  0  0  0  0  0
  -31.5102  -15.5762   20.1468 O   0  0  0  0  0  0
  -21.6656   -6.8887   21.4241 O   0  0  0  0  0  0
  -22.3426  -14.5473   20.6726 O   0  0  0  0  0  0
  -24.6815  -31.8033   23.1533 C   0  0  0  0  0  0
  -25.9405  -32.4483   23.8083 C   0  0  1  0  0  0
  -27.2298  -26.7273   20.2081 C   0  0  0  0  0  0
  -25.6001  -33.8308   24.1981 N   0  0  0  0  0  0
  -23.5073  -30.4054   21.5068 C   0  0  2  0  0  0
  -24.9660  -28.7529   20.1179 C   0  0  0  0  0  0
  -22.7759  -29.4333   22.4715 C   0  0  0  0  0  0
  -18.0341  -28.1420   22.8466 C   0  0  0  0  0  0
  -24.1502  -36.7163   23.2644 C   0  0  0  0  0  0
  -26.0868  -30.5448   21.4144 C   0  0  0  0  0  0
  -26.1556  -29.1118   20.7636 C   0  0  0  0  0  0
  -27.2741  -28.1266   20.7771 C   0  0  0  0  0  0
  -26.0075  -26.5749   19.5053 C   0  0  0  0  0  0
  -24.9301  -27.5097   19.4651 C   0  0  0  0  0  0
  -23.7607  -29.7046   20.1417 C   0  0  0  0  0  0
  -25.4149  -36.2905   24.0283 C   0  0  1  0  0  0
  -20.5975  -28.3783   23.1142 C   0  0  2  0  0  0
  -20.6815  -26.9451   22.5385 C   0  0  0  0  0  0
  -19.5777  -26.6375   21.5216 C   0  0  0  0  0  0
  -18.1969  -26.7942   22.1642 C   0  0  0  0  0  0
  -19.1608  -28.8929   23.2782 C   0  0  0  0  0  0
  -18.9510  -30.1514   23.8823 C   0  0  0  0  0  0
  -17.6498  -30.6609   24.0549 C   0  0  0  0  0  0
  -25.9125  -34.9291   23.4964 C   0  0  0  0  0  0
  -16.5390  -29.9088   23.6345 C   0  0  0  0  0  0
  -16.7319  -28.6505   23.0370 C   0  0  0  0  0  0
  -26.4593  -31.6498   25.0688 C   0  0  0  0  0  0
  -25.3682  -31.3826   26.1329 C   0  0  0  0  0  0
  -27.0481  -30.2823   24.6558 C   0  0  0  0  0  0
  -27.6068  -32.4329   25.7490 C   0  0  0  0  0  0
  -27.5575  -37.1733   24.8461 C   0  0  0  0  0  0
  -21.4409  -29.3039   22.3468 N   0  0  0  0  0  0
  -26.4277  -37.3665   23.9411 N   0  0  0  0  0  0
  -24.7818  -30.9496   22.0779 N   0  0  0  0  0  0
  -23.4207  -28.7932   23.3053 O   0  0  0  0  0  0
  -28.1832  -25.5072   20.2855 O   0  0  0  0  0  0
  -26.5756  -34.8861   22.4572 O   0  0  0  0  0  0
  -23.5834  -32.1100   23.6488 O   0  0  0  0  0  0
  -30.0031  -21.6160   20.4307 C   0  0  0  0  0  0
  -30.3382  -20.0997   20.4524 C   0  0  0  0  0  0
  -28.6945  -22.1552   20.2609 C   0  0  0  0  0  0
  -29.3767  -19.0590   20.3032 C   0  0  0  0  0  0
  -28.6138  -17.0259   18.8278 C   0  0  0  0  0  0
  -27.8442  -23.8092   20.1099 C   0  0  0  0  0  0
  -29.3078  -17.1952   20.1932 C   0  0  1  0  0  0
  -27.9487  -20.3664   20.1353 S   0  0  0  0  0  0
  -31.9811  -19.7164   20.6508 Cl  0  0  0  0  0  0
  -31.4412  -13.2931   19.1990 H   0  0  0  0  0  0
  -30.5868  -12.1741   20.2094 H   0  0  0  0  0  0
  -30.0058  -11.8136   17.7822 H   0  0  0  0  0  0
  -29.5348  -13.4880   17.6308 H   0  0  0  0  0  0
  -28.1373  -11.2901   19.1715 H   0  0  0  0  0  0
  -27.4647  -12.2630   17.8856 H   0  0  0  0  0  0
  -27.4614  -14.2153   19.2486 H   0  0  0  0  0  0
  -28.8530  -12.7119   21.5123 H   0  0  0  0  0  0
  -28.1863  -14.3221   21.6292 H   0  0  0  0  0  0
  -25.2799   -9.5675   22.4758 H   0  0  0  0  0  0
  -24.0023   -7.4638   22.7485 H   0  0  0  0  0  0
  -21.0864   -8.8769   19.8951 H   0  0  0  0  0  0
  -22.3730  -10.9666   19.6157 H   0  0  0  0  0  0
  -21.2003   -7.6143   23.9719 H   0  0  0  0  0  0
  -21.1512   -6.0521   25.9082 H   0  0  0  0  0  0
  -22.0579   -2.7606   23.2834 H   0  0  0  0  0  0
  -22.4055  -11.9850   22.4867 H   0  0  0  0  0  0
  -21.1015  -13.1156   22.2642 H   0  0  0  0  0  0
  -24.6279  -15.8460   20.5374 H   0  0  0  0  0  0
  -26.2456  -15.6443   20.0900 H   0  0  0  0  0  0
  -26.7483  -32.4966   23.0795 H   0  0  0  0  0  0
  -25.0074  -33.9354   25.0082 H   0  0  0  0  0  0
  -22.8312  -31.2419   21.3181 H   0  0  0  0  0  0
  -23.3793  -35.9460   23.3228 H   0  0  0  0  0  0
  -24.3582  -36.8899   22.2075 H   0  0  0  0  0  0
  -23.7226  -37.6307   23.6766 H   0  0  0  0  0  0
  -26.2850  -31.2733   20.6270 H   0  0  0  0  0  0
  -26.9382  -30.6129   22.0792 H   0  0  0  0  0  0
  -28.1687  -28.4069   21.3148 H   0  0  0  0  0  0
  -25.8399  -25.6332   19.0027 H   0  0  0  0  0  0
  -24.0320  -27.2275   18.9323 H   0  0  0  0  0  0
  -23.9324  -30.4653   19.3792 H   0  0  0  0  0  0
  -22.8666  -29.1683   19.8188 H   0  0  0  0  0  0
  -25.1350  -36.1677   25.0773 H   0  0  0  0  0  0
  -21.0054  -28.3404   24.1268 H   0  0  0  0  0  0
  -20.5704  -26.2403   23.3642 H   0  0  0  0  0  0
  -21.6670  -26.7416   22.1175 H   0  0  0  0  0  0
  -19.6931  -25.6267   21.1294 H   0  0  0  0  0  0
  -19.6703  -27.3142   20.6710 H   0  0  0  0  0  0
  -17.4221  -26.6657   21.4070 H   0  0  0  0  0  0
  -18.0399  -26.0114   22.9074 H   0  0  0  0  0  0
  -19.7984  -30.7354   24.2159 H   0  0  0  0  0  0
  -17.5046  -31.6284   24.5163 H   0  0  0  0  0  0
  -15.5386  -30.2966   23.7708 H   0  0  0  0  0  0
  -15.8720  -28.0792   22.7131 H   0  0  0  0  0  0
  -24.5723  -30.7389   25.7575 H   0  0  0  0  0  0
  -24.9077  -32.3083   26.4791 H   0  0  0  0  0  0
  -25.7834  -30.8851   27.0104 H   0  0  0  0  0  0
  -26.3164  -29.6467   24.1564 H   0  0  0  0  0  0
  -27.3915  -29.7249   25.5284 H   0  0  0  0  0  0
  -27.9163  -30.3933   24.0061 H   0  0  0  0  0  0
  -27.2631  -33.3685   26.1917 H   0  0  0  0  0  0
  -28.3956  -32.6803   25.0371 H   0  0  0  0  0  0
  -28.0658  -31.8559   26.5531 H   0  0  0  0  0  0
  -28.2530  -38.0085   24.7541 H   0  0  0  0  0  0
  -28.1130  -36.2606   24.6249 H   0  0  0  0  0  0
  -27.2286  -37.1317   25.8858 H   0  0  0  0  0  0
  -20.9709  -29.8698   21.6543 H   0  0  0  0  0  0
  -26.0107  -38.2710   24.1436 H   0  0  0  0  0  0
  -30.8347  -22.2969   20.5417 H   0  0  0  0  0  0
  -27.6259  -17.4867   18.8289 H   0  0  0  0  0  0
  -28.4854  -15.9905   18.5208 H   0  0  0  0  0  0
  -29.1995  -17.5092   18.0462 H   0  0  0  0  0  0
  -26.9725  -23.7071   20.7553 H   0  0  0  0  0  0
  -27.4102  -23.7822   19.1101 H   0  0  0  0  0  0
  -28.5550  -16.9533   20.9437 H   0  0  0  0  0  0
  1 25  1  0  0  0
  1 30  2  0  0  0
  1 77  1  0  0  0
  2  3  1  0  0  0
  2 25  1  0  0  0
  2 80  1  0  0  0
  2 81  1  0  0  0
  3  4  1  0  0  0
  3 82  1  0  0  0
  3 83  1  0  0  0
  4  5  1  0  0  0
  4 84  1  0  0  0
  4 85  1  0  0  0
  5  6  1  0  0  0
  5 26  1  0  0  0
  5 86  1  0  0  0
  6 25  1  0  0  0
  6 87  1  0  0  0
  6 88  1  0  0  0
  7  8  2  0  0  0
  7 26  1  0  0  0
  7 29  1  0  0  0
  8  9  1  0  0  0
  8 22  1  0  0  0
  9 10  1  0  0  0
  9 27  2  0  0  0
 10 11  2  0  0  0
 10 15  1  0  0  0
 11 12  1  0  0  0
 11 89  1  0  0  0
 12 13  2  0  0  0
 12 90  1  0  0  0
 13 14  1  0  0  0
 13 31  1  0  0  0
 14 15  2  0  0  0
 14 91  1  0  0  0
 15 92  1  0  0  0
 16 17  2  0  0  0
 16 21  1  0  0  0
 16 31  1  0  0  0
 17 18  1  0  0  0
 17 93  1  0  0  0
 18 19  2  0  0  0
 18 94  1  0  0  0
 19 20  1  0  0  0
 19 24  1  0  0  0
 20 21  2  0  0  0
 20 95  1  0  0  0
 21 23  1  0  0  0
 22 28  1  0  0  0
 22 32  2  0  0  0
 26 27  1  0  0  0
 28 96  1  0  0  0
 28 97  1  0  0  0
 29 98  1  0  0  0
 29 99  1  0  0  0
 33 34  1  0  0  0
 33 66  1  0  0  0
 33 70  2  0  0  0
 34 36  1  0  0  0
 34 59  1  0  0  0
 34100  1  0  0  0
 35 44  2  0  0  0
 35 45  1  0  0  0
 35 68  1  0  0  0
 36 56  1  0  0  0
 36101  1  0  0  0
 37 39  1  0  0  0
 37 47  1  0  0  0
 37 66  1  0  0  0
 37102  1  0  0  0
 38 43  2  0  0  0
 38 46  1  0  0  0
 38 47  1  0  0  0
 39 64  1  0  0  0
 39 67  2  0  0  0
 40 52  1  0  0  0
 40 53  2  0  0  0
 40 58  1  0  0  0
 41103  1  0  0  0
 41104  1  0  0  0
 41105  1  0  0  0
 41 48  1  0  0  0
 42 43  1  0  0  0
 42 66  1  0  0  0
 42106  1  0  0  0
 42107  1  0  0  0
 43 44  1  0  0  0
 44108  1  0  0  0
 45 46  2  0  0  0
 45109  1  0  0  0
 46110  1  0  0  0
 47111  1  0  0  0
 47112  1  0  0  0
 48 56  1  0  0  0
 48 65  1  0  0  0
 48113  1  0  0  0
 49 50  1  0  0  0
 49 53  1  0  0  0
 49 64  1  0  0  0
 49114  1  0  0  0
 50 51  1  0  0  0
 50115  1  0  0  0
 50116  1  0  0  0
 51 52  1  0  0  0
 51117  1  0  0  0
 51118  1  0  0  0
 52119  1  0  0  0
 52120  1  0  0  0
 53 54  1  0  0  0
 54 55  2  0  0  0
 54121  1  0  0  0
 55 57  1  0  0  0
 55122  1  0  0  0
 56 69  2  0  0  0
 57 58  2  0  0  0
 57123  1  0  0  0
 58124  1  0  0  0
 59 60  1  0  0  0
 59 61  1  0  0  0
 59 62  1  0  0  0
 60125  1  0  0  0
 60126  1  0  0  0
 60127  1  0  0  0
 61128  1  0  0  0
 61129  1  0  0  0
 61130  1  0  0  0
 62131  1  0  0  0
 62132  1  0  0  0
 62133  1  0  0  0
 63 65  1  0  0  0
 63134  1  0  0  0
 63135  1  0  0  0
 63136  1  0  0  0
 64137  1  0  0  0
 65138  1  0  0  0
 68 76  1  0  0  0
 71 72  1  0  0  0
 71 73  2  0  0  0
 71139  1  0  0  0
 72 74  2  0  0  0
 72 79  1  0  0  0
 73 76  1  0  0  0
 73 78  1  0  0  0
 74 77  1  0  0  0
 74 78  1  0  0  0
 75140  1  0  0  0
 75141  1  0  0  0
 75142  1  0  0  0
 75 77  1  0  0  0
 76143  1  0  0  0
 76144  1  0  0  0
 77145  1  0  0  0
M  ISO  4   1 100  68 101  76 101  77 100
M  END
> <chiral flag>
0

> <version>
0

> <s_m_source_file>
/data/baiqing/PycharmProjects/Reinvent-master-3.2/result/LINK_invent/BTK/process_docking_weight1_custom_sum_contain_oxygen_bond_distance_aromatic_linkinvent_7_9_3/rearranged_h_0018.sdf

> <i_m_source_file_index>
17

> <r_mmod_Potential_Energy-OPLS-2005>
2341.67553710938

> <r_mmod_Stretch_Energy-OPLS-2005>
982.915649414062

> <r_mmod_Bend_Energy-OPLS-2005>
707.737976074219

> <r_mmod_Torsional_Energy-OPLS-2005>
193.638687133789

> <r_mmod_Improper_Torsional_Energy-OPLS-2005>
5.54952764511108

> <r_mmod_Van_der_Waal_Energy-OPLS-2005>
101.624992370605

> <r_mmod_Electrostatic_Energy-OPLS-2005>
-303.573150634766

> <r_mmod_Solvation_Energy-OPLS-2005>
-197.632202148438

> <b_mmod_Minimization_Converged-OPLS-2005>
0

> <r_mmod_RMS_Derivative-OPLS-2005>
1.2386120557785

$$$$
18
                    3D
 Structure written by MMmdl.
163171  0  0  1  0            999 V2000
  -30.7163  -14.4945   20.5745 C   0  0  0  0  0  0
  -30.4245  -12.3245   19.4320 C   0  0  0  0  0  0
  -29.5013  -12.5087   18.2108 C   0  0  0  0  0  0
  -28.0224  -12.3683   18.6190 C   0  0  0  0  0  0
  -27.6626  -13.2140   19.8713 C   0  0  2  0  0  0
  -28.7046  -13.0194   20.9960 C   0  0  0  0  0  0
  -25.2601  -13.8182   20.5677 C   0  0  0  0  0  0
  -24.1851  -13.0452   20.9161 C   0  0  0  0  0  0
  -24.6415  -11.6921   20.8714 C   0  0  0  0  0  0
  -23.9083  -10.4296   21.0384 C   0  0  0  0  0  0
  -24.3634   -9.4213   21.9166 C   0  0  0  0  0  0
  -23.6300   -8.2256   22.0752 C   0  0  0  0  0  0
  -22.4278   -8.0294   21.3544 C   0  0  0  0  0  0
  -21.9916   -9.0271   20.4647 C   0  0  0  0  0  0
  -22.7255  -10.2143   20.3037 C   0  0  0  0  0  0
  -21.6865   -6.0744   22.5273 C   0  0  0  0  0  0
  -21.4027   -6.5645   23.8207 C   0  0  0  0  0  0
  -21.3651   -5.6794   24.9164 C   0  0  0  0  0  0
  -21.6038   -4.3054   24.7214 C   0  0  0  0  0  0
  -21.8826   -3.8152   23.4336 C   0  0  0  0  0  0
  -21.9197   -4.6971   22.3396 C   0  0  0  0  0  0
  -22.7866  -13.5245   21.1808 C   0  0  0  0  0  0
  -22.1663   -4.2159   21.0970 F   0  0  0  0  0  0
  -21.5614   -3.4534   25.7723 F   0  0  0  0  0  0
  -30.0324  -13.3232   20.4396 N   0  0  0  0  0  0
  -26.3039  -12.9361   20.3349 N   0  0  0  0  0  0
  -25.9344  -11.6516   20.5745 N   0  0  0  0  0  0
  -22.0509  -12.8249   22.0372 N   0  0  0  0  0  0
  -25.4336  -15.1901   20.4087 N   0  0  0  0  0  0
  -31.8428  -14.6596   20.0995 O   0  0  0  0  0  0
  -21.6648   -6.8889   21.4234 O   0  0  0  0  0  0
  -22.3544  -14.5543   20.6645 O   0  0  0  0  0  0
  -24.6188  -31.8671   23.2096 C   0  0  0  0  0  0
  -25.9070  -32.4817   23.8392 C   0  0  1  0  0  0
  -27.2237  -27.3999   20.0907 C   0  0  0  0  0  0
  -25.5910  -33.8616   24.2327 N   0  0  0  0  0  0
  -23.4067  -30.4947   21.5519 C   0  0  2  0  0  0
  -24.8492  -28.9630   20.1125 C   0  0  0  0  0  0
  -22.7430  -29.4668   22.4977 C   0  0  0  0  0  0
  -18.0279  -28.1387   22.8491 C   0  0  0  0  0  0
  -24.1489  -36.7312   23.2637 C   0  0  0  0  0  0
  -25.9414  -30.8219   21.3687 C   0  0  0  0  0  0
  -26.0156  -29.4567   20.7102 C   0  0  0  0  0  0
  -27.2049  -28.6843   20.6945 C   0  0  0  0  0  0
  -26.0319  -26.9392   19.4791 C   0  0  0  0  0  0
  -24.8544  -27.7048   19.4936 C   0  0  0  0  0  0
  -23.6151  -29.8348   20.1646 C   0  0  0  0  0  0
  -25.4111  -36.3111   24.0339 C   0  0  1  0  0  0
  -20.5872  -28.3680   23.1304 C   0  0  2  0  0  0
  -20.6772  -26.9415   22.5410 C   0  0  0  0  0  0
  -19.5746  -26.6392   21.5213 C   0  0  0  0  0  0
  -18.1926  -26.7931   22.1627 C   0  0  0  0  0  0
  -19.1528  -28.8848   23.2898 C   0  0  0  0  0  0
  -18.9455  -30.1452   23.8913 C   0  0  0  0  0  0
  -17.6456  -30.6590   24.0566 C   0  0  0  0  0  0
  -25.9040  -34.9476   23.5133 C   0  0  0  0  0  0
  -16.5347  -29.9092   23.6324 C   0  0  0  0  0  0
  -16.7266  -28.6509   23.0345 C   0  0  0  0  0  0
  -26.4480  -31.6597   25.0728 C   0  0  0  0  0  0
  -25.3730  -31.3708   26.1465 C   0  0  0  0  0  0
  -27.0313  -30.3031   24.6123 C   0  0  0  0  0  0
  -27.6057  -32.4311   25.7488 C   0  0  0  0  0  0
  -27.5585  -37.1812   24.8467 C   0  0  0  0  0  0
  -21.4156  -29.3046   22.3710 N   0  0  0  0  0  0
  -26.4296  -37.3794   23.9408 N   0  0  0  0  0  0
  -24.6745  -31.0752   22.1012 N   0  0  0  0  0  0
  -23.4189  -28.8199   23.3020 O   0  0  0  0  0  0
  -28.3754  -26.6212   20.1280 O   0  0  0  0  0  0
  -26.5604  -34.8928   22.4695 O   0  0  0  0  0  0
  -23.5371  -32.1437   23.7475 O   0  0  0  0  0  0
  -31.6940  -23.7222   20.7775 C   0  0  0  0  0  0
  -30.6811  -24.6675   20.5401 C   0  0  0  0  0  0
  -31.4816  -22.3349   20.6517 C   0  0  0  0  0  0
  -29.3898  -24.2272   20.1527 C   0  0  0  0  0  0
  -29.1668  -22.8130   20.0291 C   0  0  0  0  0  0
  -30.1851  -21.8447   20.3042 C   0  0  0  0  0  0
  -31.0479  -26.1352   20.6942 C   0  0  0  0  0  0
  -32.7172  -21.4654   20.8379 C   0  0  0  0  0  0
  -27.7918  -22.3100   19.5885 C   0  0  0  0  0  0
  -28.2289  -25.2087   19.8342 C   0  0  0  0  0  0
  -29.8115  -18.0405   20.6841 C   0  0  0  0  0  0
  -30.5866  -16.8831   21.3888 C   0  0  0  0  0  0
  -30.5175  -19.4236   20.8230 C   0  0  0  0  0  0
  -30.0533  -15.5197   21.1515 N   0  0  0  0  0  0
  -29.8259  -20.4984   20.1575 O   0  0  0  0  0  0
  -31.4699  -12.4193   19.1325 H   0  0  0  0  0  0
  -30.3252  -11.3192   19.8438 H   0  0  0  0  0  0
  -29.7493  -11.7788   17.4394 H   0  0  0  0  0  0
  -29.6687  -13.4924   17.7681 H   0  0  0  0  0  0
  -27.8330  -11.3129   18.8167 H   0  0  0  0  0  0
  -27.3760  -12.6399   17.7829 H   0  0  0  0  0  0
  -27.7022  -14.2597   19.5654 H   0  0  0  0  0  0
  -28.6872  -11.9902   21.3593 H   0  0  0  0  0  0
  -28.4615  -13.6398   21.8592 H   0  0  0  0  0  0
  -25.2782   -9.5691   22.4734 H   0  0  0  0  0  0
  -24.0006   -7.4652   22.7483 H   0  0  0  0  0  0
  -21.0840   -8.8799   19.8964 H   0  0  0  0  0  0
  -22.3717  -10.9679   19.6140 H   0  0  0  0  0  0
  -21.2040   -7.6155   23.9716 H   0  0  0  0  0  0
  -21.1453   -6.0517   25.9067 H   0  0  0  0  0  0
  -22.0616   -2.7618   23.2830 H   0  0  0  0  0  0
  -22.4135  -11.9923   22.4769 H   0  0  0  0  0  0
  -21.1126  -13.1279   22.2568 H   0  0  0  0  0  0
  -24.6717  -15.8513   20.5154 H   0  0  0  0  0  0
  -26.2920  -15.6257   20.0946 H   0  0  0  0  0  0
  -26.7140  -32.5513   23.1153 H   0  0  0  0  0  0
  -25.0056  -33.9773   25.0465 H   0  0  0  0  0  0
  -22.6971  -31.3136   21.4161 H   0  0  0  0  0  0
  -23.3751  -35.9646   23.3314 H   0  0  0  0  0  0
  -24.3580  -36.8909   22.2048 H   0  0  0  0  0  0
  -23.7244  -37.6523   23.6638 H   0  0  0  0  0  0
  -26.0628  -31.5896   20.6032 H   0  0  0  0  0  0
  -26.8266  -30.8689   21.9914 H   0  0  0  0  0  0
  -28.1028  -29.0606   21.1645 H   0  0  0  0  0  0
  -25.9758  -25.9815   18.9840 H   0  0  0  0  0  0
  -23.9589  -27.3192   19.0262 H   0  0  0  0  0  0
  -23.7287  -30.6140   19.4097 H   0  0  0  0  0  0
  -22.7359  -29.2617   19.8642 H   0  0  0  0  0  0
  -25.1287  -36.1981   25.0833 H   0  0  0  0  0  0
  -20.9969  -28.3254   24.1422 H   0  0  0  0  0  0
  -20.5684  -26.2292   23.3602 H   0  0  0  0  0  0
  -21.6641  -26.7464   22.1195 H   0  0  0  0  0  0
  -19.6910  -25.6305   21.1236 H   0  0  0  0  0  0
  -19.6682  -27.3209   20.6748 H   0  0  0  0  0  0
  -17.4196  -26.6681   21.4028 H   0  0  0  0  0  0
  -18.0328  -26.0071   22.9022 H   0  0  0  0  0  0
  -19.7931  -30.7264   24.2291 H   0  0  0  0  0  0
  -17.5011  -31.6269   24.5172 H   0  0  0  0  0  0
  -15.5349  -30.3003   23.7637 H   0  0  0  0  0  0
  -15.8664  -28.0834   22.7051 H   0  0  0  0  0  0
  -24.5909  -30.7053   25.7792 H   0  0  0  0  0  0
  -24.8909  -32.2864   26.4901 H   0  0  0  0  0  0
  -25.8066  -30.8878   27.0231 H   0  0  0  0  0  0
  -26.2867  -29.6795   24.1159 H   0  0  0  0  0  0
  -27.4055  -29.7266   25.4593 H   0  0  0  0  0  0
  -27.8717  -30.4341   23.9301 H   0  0  0  0  0  0
  -27.2685  -33.3607   26.2085 H   0  0  0  0  0  0
  -28.3853  -32.6877   25.0302 H   0  0  0  0  0  0
  -28.0741  -31.8419   26.5381 H   0  0  0  0  0  0
  -28.2614  -38.0098   24.7508 H   0  0  0  0  0  0
  -28.1071  -36.2633   24.6303 H   0  0  0  0  0  0
  -27.2301  -37.1477   25.8868 H   0  0  0  0  0  0
  -20.9320  -29.8776   21.6936 H   0  0  0  0  0  0
  -26.0195  -38.2878   24.1387 H   0  0  0  0  0  0
  -32.6793  -24.0794   21.0451 H   0  0  0  0  0  0
  -32.1062  -26.2646   20.9242 H   0  0  0  0  0  0
  -30.4837  -26.5901   21.5087 H   0  0  0  0  0  0
  -30.8505  -26.6856   19.7744 H   0  0  0  0  0  0
  -32.6340  -20.8188   21.7101 H   0  0  0  0  0  0
  -33.6120  -22.0694   20.9894 H   0  0  0  0  0  0
  -32.9070  -20.8707   19.9445 H   0  0  0  0  0  0
  -27.0920  -22.3382   20.4236 H   0  0  0  0  0  0
  -27.8129  -21.2888   19.2102 H   0  0  0  0  0  0
  -27.3845  -22.9121   18.7777 H   0  0  0  0  0  0
  -27.3620  -24.8373   20.3839 H   0  0  0  0  0  0
  -28.0200  -25.1122   18.7683 H   0  0  0  0  0  0
  -28.8013  -18.1059   21.0890 H   0  0  0  0  0  0
  -29.7047  -17.8084   19.6238 H   0  0  0  0  0  0
  -30.5794  -17.0573   22.4659 H   0  0  0  0  0  0
  -31.6376  -16.9345   21.0986 H   0  0  0  0  0  0
  -31.5011  -19.2919   20.3813 H   0  0  0  0  0  0
  -30.6398  -19.6669   21.8792 H   0  0  0  0  0  0
  -29.1246  -15.3168   21.4923 H   0  0  0  0  0  0
  1 25  1  0  0  0
  1 30  2  0  0  0
  1 84  1  0  0  0
  2  3  1  0  0  0
  2 25  1  0  0  0
  2 86  1  0  0  0
  2 87  1  0  0  0
  3  4  1  0  0  0
  3 88  1  0  0  0
  3 89  1  0  0  0
  4  5  1  0  0  0
  4 90  1  0  0  0
  4 91  1  0  0  0
  5  6  1  0  0  0
  5 26  1  0  0  0
  5 92  1  0  0  0
  6 25  1  0  0  0
  6 93  1  0  0  0
  6 94  1  0  0  0
  7  8  2  0  0  0
  7 26  1  0  0  0
  7 29  1  0  0  0
  8  9  1  0  0  0
  8 22  1  0  0  0
  9 10  1  0  0  0
  9 27  2  0  0  0
 10 11  2  0  0  0
 10 15  1  0  0  0
 11 12  1  0  0  0
 11 95  1  0  0  0
 12 13  2  0  0  0
 12 96  1  0  0  0
 13 14  1  0  0  0
 13 31  1  0  0  0
 14 15  2  0  0  0
 14 97  1  0  0  0
 15 98  1  0  0  0
 16 17  2  0  0  0
 16 21  1  0  0  0
 16 31  1  0  0  0
 17 18  1  0  0  0
 17 99  1  0  0  0
 18 19  2  0  0  0
 18100  1  0  0  0
 19 20  1  0  0  0
 19 24  1  0  0  0
 20 21  2  0  0  0
 20101  1  0  0  0
 21 23  1  0  0  0
 22 28  1  0  0  0
 22 32  2  0  0  0
 26 27  1  0  0  0
 28102  1  0  0  0
 28103  1  0  0  0
 29104  1  0  0  0
 29105  1  0  0  0
 33 34  1  0  0  0
 33 66  1  0  0  0
 33 70  2  0  0  0
 34 36  1  0  0  0
 34 59  1  0  0  0
 34106  1  0  0  0
 35 44  2  0  0  0
 35 45  1  0  0  0
 35 68  1  0  0  0
 36 56  1  0  0  0
 36107  1  0  0  0
 37 39  1  0  0  0
 37 47  1  0  0  0
 37 66  1  0  0  0
 37108  1  0  0  0
 38 43  2  0  0  0
 38 46  1  0  0  0
 38 47  1  0  0  0
 39 64  1  0  0  0
 39 67  2  0  0  0
 40 52  1  0  0  0
 40 53  2  0  0  0
 40 58  1  0  0  0
 41109  1  0  0  0
 41110  1  0  0  0
 41111  1  0  0  0
 41 48  1  0  0  0
 42 43  1  0  0  0
 42 66  1  0  0  0
 42112  1  0  0  0
 42113  1  0  0  0
 43 44  1  0  0  0
 44114  1  0  0  0
 45 46  2  0  0  0
 45115  1  0  0  0
 46116  1  0  0  0
 47117  1  0  0  0
 47118  1  0  0  0
 48 56  1  0  0  0
 48 65  1  0  0  0
 48119  1  0  0  0
 49 50  1  0  0  0
 49 53  1  0  0  0
 49 64  1  0  0  0
 49120  1  0  0  0
 50 51  1  0  0  0
 50121  1  0  0  0
 50122  1  0  0  0
 51 52  1  0  0  0
 51123  1  0  0  0
 51124  1  0  0  0
 52125  1  0  0  0
 52126  1  0  0  0
 53 54  1  0  0  0
 54 55  2  0  0  0
 54127  1  0  0  0
 55 57  1  0  0  0
 55128  1  0  0  0
 56 69  2  0  0  0
 57 58  2  0  0  0
 57129  1  0  0  0
 58130  1  0  0  0
 59 60  1  0  0  0
 59 61  1  0  0  0
 59 62  1  0  0  0
 60131  1  0  0  0
 60132  1  0  0  0
 60133  1  0  0  0
 61134  1  0  0  0
 61135  1  0  0  0
 61136  1  0  0  0
 62137  1  0  0  0
 62138  1  0  0  0
 62139  1  0  0  0
 63 65  1  0  0  0
 63140  1  0  0  0
 63141  1  0  0  0
 63142  1  0  0  0
 64143  1  0  0  0
 65144  1  0  0  0
 68 80  1  0  0  0
 71 72  2  0  0  0
 71 73  1  0  0  0
 71145  1  0  0  0
 72 74  1  0  0  0
 72 77  1  0  0  0
 73 76  2  0  0  0
 73 78  1  0  0  0
 74 75  2  0  0  0
 74 80  1  0  0  0
 75 76  1  0  0  0
 75 79  1  0  0  0
 76 85  1  0  0  0
 77146  1  0  0  0
 77147  1  0  0  0
 77148  1  0  0  0
 78149  1  0  0  0
 78150  1  0  0  0
 78151  1  0  0  0
 79152  1  0  0  0
 79153  1  0  0  0
 79154  1  0  0  0
 80155  1  0  0  0
 80156  1  0  0  0
 81 82  1  0  0  0
 81 83  1  0  0  0
 81157  1  0  0  0
 81158  1  0  0  0
 82 84  1  0  0  0
 82159  1  0  0  0
 82160  1  0  0  0
 83 85  1  0  0  0
 83161  1  0  0  0
 83162  1  0  0  0
 84163  1  0  0  0
M  ISO  4   1 100  68 101  80 101  84 100
M  END
> <chiral flag>
0

> <version>
0

> <s_m_source_file>
/data/baiqing/PycharmProjects/Reinvent-master-3.2/result/LINK_invent/BTK/process_docking_weight1_custom_sum_contain_oxygen_bond_distance_aromatic_linkinvent_7_9_3/rearranged_h_0018.sdf

> <i_m_source_file_index>
18

> <r_mmod_Potential_Energy-OPLS-2005>
-17.2729549407959

> <r_mmod_Stretch_Energy-OPLS-2005>
52.5741577148438

> <r_mmod_Bend_Energy-OPLS-2005>
127.596740722656

> <r_mmod_Torsional_Energy-OPLS-2005>
200.838638305664

> <r_mmod_Improper_Torsional_Energy-OPLS-2005>
2.88036036491394

> <r_mmod_Van_der_Waal_Energy-OPLS-2005>
177.53515625

> <r_mmod_Electrostatic_Energy-OPLS-2005>
-385.598785400391

> <r_mmod_Solvation_Energy-OPLS-2005>
-211.21305847168

> <b_mmod_Minimization_Converged-OPLS-2005>
0

> <r_mmod_RMS_Derivative-OPLS-2005>
1.29730141162872

$$$$
19
                    3D
 Structure written by MMmdl.
147155  0  0  1  0            999 V2000
  -30.4114  -15.3284   20.3544 C   0  0  0  0  0  0
  -30.4360  -12.8470   19.5456 C   0  0  0  0  0  0
  -29.5419  -12.5934   18.3037 C   0  0  0  0  0  0
  -28.0922  -12.3052   18.7268 C   0  0  0  0  0  0
  -27.6107  -13.2829   19.8269 C   0  0  2  0  0  0
  -28.6382  -13.4802   20.9643 C   0  0  0  0  0  0
  -25.2375  -13.8260   20.5758 C   0  0  0  0  0  0
  -24.1736  -13.0438   20.9262 C   0  0  0  0  0  0
  -24.6403  -11.6939   20.8761 C   0  0  0  0  0  0
  -23.9100  -10.4294   21.0401 C   0  0  0  0  0  0
  -24.3643   -9.4207   21.9181 C   0  0  0  0  0  0
  -23.6308   -8.2246   22.0752 C   0  0  0  0  0  0
  -22.4289   -8.0286   21.3544 C   0  0  0  0  0  0
  -21.9932   -9.0260   20.4645 C   0  0  0  0  0  0
  -22.7269  -10.2135   20.3051 C   0  0  0  0  0  0
  -21.6857   -6.0741   22.5279 C   0  0  0  0  0  0
  -21.4018   -6.5643   23.8213 C   0  0  0  0  0  0
  -21.3659   -5.6795   24.9174 C   0  0  0  0  0  0
  -21.6042   -4.3058   24.7224 C   0  0  0  0  0  0
  -21.8818   -3.8150   23.4345 C   0  0  0  0  0  0
  -21.9194   -4.6967   22.3401 C   0  0  0  0  0  0
  -22.7750  -13.5182   21.1904 C   0  0  0  0  0  0
  -22.1662   -4.2153   21.0979 F   0  0  0  0  0  0
  -21.5626   -3.4540   25.7735 F   0  0  0  0  0  0
  -29.8681  -14.0031   20.3443 N   0  0  0  0  0  0
  -26.2811  -12.9550   20.3232 N   0  0  0  0  0  0
  -25.9342  -11.6646   20.5722 N   0  0  0  0  0  0
  -22.0413  -12.8164   22.0460 N   0  0  0  0  0  0
  -25.3993  -15.1998   20.4193 N   0  0  0  0  0  0
  -31.6215  -15.3268   20.0816 O   0  0  0  0  0  0
  -21.6647   -6.8886   21.4242 O   0  0  0  0  0  0
  -22.3425  -14.5479   20.6740 O   0  0  0  0  0  0
  -24.6663  -31.8186   23.1667 C   0  0  0  0  0  0
  -25.9325  -32.4562   23.8146 C   0  0  1  0  0  0
  -27.2221  -26.8839   20.1876 C   0  0  0  0  0  0
  -25.5975  -33.8380   24.2045 N   0  0  0  0  0  0
  -23.4840  -30.4276   21.5160 C   0  0  2  0  0  0
  -24.9405  -28.8080   20.1079 C   0  0  0  0  0  0
  -22.7686  -29.4408   22.4760 C   0  0  0  0  0  0
  -18.0325  -28.1415   22.8464 C   0  0  0  0  0  0
  -24.1493  -36.7198   23.2648 C   0  0  0  0  0  0
  -26.0550  -30.6091   21.4061 C   0  0  0  0  0  0
  -26.1225  -29.1947   20.7508 C   0  0  0  0  0  0
  -27.2526  -28.2525   20.7703 C   0  0  0  0  0  0
  -26.0169  -26.6679   19.4791 C   0  0  0  0  0  0
  -24.9163  -27.5667   19.4510 C   0  0  0  0  0  0
  -23.7271  -29.7397   20.1431 C   0  0  0  0  0  0
  -25.4136  -36.2953   24.0294 C   0  0  1  0  0  0
  -20.5952  -28.3759   23.1179 C   0  0  2  0  0  0
  -20.6799  -26.9435   22.5404 C   0  0  0  0  0  0
  -19.5773  -26.6377   21.5215 C   0  0  0  0  0  0
  -18.1956  -26.7945   22.1623 C   0  0  0  0  0  0
  -19.1588  -28.8909   23.2807 C   0  0  0  0  0  0
  -18.9497  -30.1498   23.8843 C   0  0  0  0  0  0
  -17.6489  -30.6600   24.0555 C   0  0  0  0  0  0
  -25.9104  -34.9337   23.4995 C   0  0  0  0  0  0
  -16.5380  -29.9086   23.6347 C   0  0  0  0  0  0
  -16.7306  -28.6509   23.0361 C   0  0  0  0  0  0
  -26.4562  -31.6530   25.0696 C   0  0  0  0  0  0
  -25.3672  -31.3800   26.1340 C   0  0  0  0  0  0
  -27.0472  -30.2890   24.6474 C   0  0  0  0  0  0
  -27.6042  -32.4354   25.7502 C   0  0  0  0  0  0
  -27.5568  -37.1755   24.8464 C   0  0  0  0  0  0
  -21.4350  -29.3037   22.3517 N   0  0  0  0  0  0
  -26.4276  -37.3695   23.9408 N   0  0  0  0  0  0
  -24.7566  -30.9802   22.0829 N   0  0  0  0  0  0
  -23.4212  -28.7984   23.3023 O   0  0  0  0  0  0
  -28.2006  -25.7468   20.3205 O   0  0  0  0  0  0
  -26.5724  -34.8881   22.4597 O   0  0  0  0  0  0
  -23.5723  -32.1179   23.6732 O   0  0  0  0  0  0
  -28.7366  -22.5129   21.9254 C   0  0  0  0  0  0
  -29.0455  -21.3063   22.6139 C   0  0  0  0  0  0
  -28.6289  -22.5966   20.5226 C   0  0  0  0  0  0
  -29.2632  -19.8356   20.6059 C   0  0  0  0  0  0
  -29.2929  -20.0405   22.0082 C   0  0  0  0  0  0
  -28.9125  -21.1892   19.9116 C   0  0  0  0  0  0
  -29.7504  -18.2370   20.0009 C   0  0  0  0  0  0
  -28.0587  -24.1429   19.8720 C   0  0  0  0  0  0
  -29.6410  -16.6087   20.4700 N   0  0  0  0  0  0
  -29.6784  -18.7229   23.0572 Cl  0  0  0  0  0  0
  -28.8223  -21.1168   18.1898 Cl  0  0  0  0  0  0
  -31.4556  -13.0492   19.2159 H   0  0  0  0  0  0
  -30.5069  -11.9479   20.1600 H   0  0  0  0  0  0
  -29.9337  -11.7642   17.7131 H   0  0  0  0  0  0
  -29.5656  -13.4709   17.6557 H   0  0  0  0  0  0
  -28.0567  -11.2831   19.1060 H   0  0  0  0  0  0
  -27.4260  -12.3360   17.8636 H   0  0  0  0  0  0
  -27.5197  -14.2446   19.3203 H   0  0  0  0  0  0
  -28.8157  -12.5528   21.5109 H   0  0  0  0  0  0
  -28.2633  -14.2019   21.6915 H   0  0  0  0  0  0
  -25.2785   -9.5681   22.4762 H   0  0  0  0  0  0
  -24.0011   -7.4638   22.7475 H   0  0  0  0  0  0
  -21.0861   -8.8785   19.8952 H   0  0  0  0  0  0
  -22.3727  -10.9675   19.6162 H   0  0  0  0  0  0
  -21.2015   -7.6153   23.9717 H   0  0  0  0  0  0
  -21.1481   -6.0526   25.9077 H   0  0  0  0  0  0
  -22.0596   -2.7612   23.2845 H   0  0  0  0  0  0
  -22.4056  -11.9843   22.4861 H   0  0  0  0  0  0
  -21.1017  -13.1154   22.2653 H   0  0  0  0  0  0
  -24.6259  -15.8463   20.5317 H   0  0  0  0  0  0
  -26.2350  -15.6426   20.0610 H   0  0  0  0  0  0
  -26.7393  -32.5088   23.0857 H   0  0  0  0  0  0
  -25.0057  -33.9450   25.0153 H   0  0  0  0  0  0
  -22.7995  -31.2604   21.3414 H   0  0  0  0  0  0
  -23.3768  -35.9514   23.3271 H   0  0  0  0  0  0
  -24.3567  -36.8888   22.2070 H   0  0  0  0  0  0
  -23.7238  -37.6367   23.6734 H   0  0  0  0  0  0
  -26.2409  -31.3473   20.6249 H   0  0  0  0  0  0
  -26.9128  -30.6679   22.0638 H   0  0  0  0  0  0
  -28.1392  -28.5421   21.3167 H   0  0  0  0  0  0
  -25.8802  -25.7243   18.9727 H   0  0  0  0  0  0
  -24.0212  -27.2662   18.9237 H   0  0  0  0  0  0
  -23.8847  -30.5072   19.3846 H   0  0  0  0  0  0
  -22.8365  -29.1952   19.8247 H   0  0  0  0  0  0
  -25.1338  -36.1739   25.0786 H   0  0  0  0  0  0
  -21.0042  -28.3372   24.1302 H   0  0  0  0  0  0
  -20.5678  -26.2378   23.3650 H   0  0  0  0  0  0
  -21.6662  -26.7405   22.1212 H   0  0  0  0  0  0
  -19.6931  -25.6273   21.1281 H   0  0  0  0  0  0
  -19.6714  -27.3158   20.6723 H   0  0  0  0  0  0
  -17.4226  -26.6687   21.4027 H   0  0  0  0  0  0
  -18.0348  -26.0102   22.9034 H   0  0  0  0  0  0
  -19.7972  -30.7332   24.2186 H   0  0  0  0  0  0
  -17.5039  -31.6274   24.5169 H   0  0  0  0  0  0
  -15.5377  -30.2970   23.7703 H   0  0  0  0  0  0
  -15.8708  -28.0812   22.7103 H   0  0  0  0  0  0
  -24.5869  -30.7135   25.7644 H   0  0  0  0  0  0
  -24.8843  -32.3011   26.4618 H   0  0  0  0  0  0
  -25.7885  -30.9061   27.0214 H   0  0  0  0  0  0
  -26.3156  -29.6545   24.1461 H   0  0  0  0  0  0
  -27.3960  -29.7281   25.5154 H   0  0  0  0  0  0
  -27.9112  -30.4058   23.9929 H   0  0  0  0  0  0
  -27.2599  -33.3703   26.1938 H   0  0  0  0  0  0
  -28.3926  -32.6841   25.0385 H   0  0  0  0  0  0
  -28.0629  -31.8577   26.5536 H   0  0  0  0  0  0
  -28.2562  -38.0073   24.7517 H   0  0  0  0  0  0
  -28.1088  -36.2600   24.6286 H   0  0  0  0  0  0
  -27.2284  -37.1388   25.8866 H   0  0  0  0  0  0
  -20.9614  -29.8716   21.6631 H   0  0  0  0  0  0
  -26.0118  -38.2749   24.1420 H   0  0  0  0  0  0
  -28.5477  -23.4035   22.5079 H   0  0  0  0  0  0
  -29.0959  -21.3555   23.6925 H   0  0  0  0  0  0
  -30.8188  -18.3659   19.8267 H   0  0  0  0  0  0
  -29.3298  -18.2237   18.9955 H   0  0  0  0  0  0
  -28.3865  -24.1311   18.8326 H   0  0  0  0  0  0
  -26.9842  -23.9766   19.8115 H   0  0  0  0  0  0
  -28.7000  -16.3994   20.7688 H   0  0  0  0  0  0
  1 25  1  0  0  0
  1 30  2  0  0  0
  1 79  1  0  0  0
  2  3  1  0  0  0
  2 25  1  0  0  0
  2 82  1  0  0  0
  2 83  1  0  0  0
  3  4  1  0  0  0
  3 84  1  0  0  0
  3 85  1  0  0  0
  4  5  1  0  0  0
  4 86  1  0  0  0
  4 87  1  0  0  0
  5  6  1  0  0  0
  5 26  1  0  0  0
  5 88  1  0  0  0
  6 25  1  0  0  0
  6 89  1  0  0  0
  6 90  1  0  0  0
  7  8  2  0  0  0
  7 26  1  0  0  0
  7 29  1  0  0  0
  8  9  1  0  0  0
  8 22  1  0  0  0
  9 10  1  0  0  0
  9 27  2  0  0  0
 10 11  2  0  0  0
 10 15  1  0  0  0
 11 12  1  0  0  0
 11 91  1  0  0  0
 12 13  2  0  0  0
 12 92  1  0  0  0
 13 14  1  0  0  0
 13 31  1  0  0  0
 14 15  2  0  0  0
 14 93  1  0  0  0
 15 94  1  0  0  0
 16 17  2  0  0  0
 16 21  1  0  0  0
 16 31  1  0  0  0
 17 18  1  0  0  0
 17 95  1  0  0  0
 18 19  2  0  0  0
 18 96  1  0  0  0
 19 20  1  0  0  0
 19 24  1  0  0  0
 20 21  2  0  0  0
 20 97  1  0  0  0
 21 23  1  0  0  0
 22 28  1  0  0  0
 22 32  2  0  0  0
 26 27  1  0  0  0
 28 98  1  0  0  0
 28 99  1  0  0  0
 29100  1  0  0  0
 29101  1  0  0  0
 33 34  1  0  0  0
 33 66  1  0  0  0
 33 70  2  0  0  0
 34 36  1  0  0  0
 34 59  1  0  0  0
 34102  1  0  0  0
 35 44  2  0  0  0
 35 45  1  0  0  0
 35 68  1  0  0  0
 36 56  1  0  0  0
 36103  1  0  0  0
 37 39  1  0  0  0
 37 47  1  0  0  0
 37 66  1  0  0  0
 37104  1  0  0  0
 38 43  2  0  0  0
 38 46  1  0  0  0
 38 47  1  0  0  0
 39 64  1  0  0  0
 39 67  2  0  0  0
 40 52  1  0  0  0
 40 53  2  0  0  0
 40 58  1  0  0  0
 41105  1  0  0  0
 41106  1  0  0  0
 41107  1  0  0  0
 41 48  1  0  0  0
 42 43  1  0  0  0
 42 66  1  0  0  0
 42108  1  0  0  0
 42109  1  0  0  0
 43 44  1  0  0  0
 44110  1  0  0  0
 45 46  2  0  0  0
 45111  1  0  0  0
 46112  1  0  0  0
 47113  1  0  0  0
 47114  1  0  0  0
 48 56  1  0  0  0
 48 65  1  0  0  0
 48115  1  0  0  0
 49 50  1  0  0  0
 49 53  1  0  0  0
 49 64  1  0  0  0
 49116  1  0  0  0
 50 51  1  0  0  0
 50117  1  0  0  0
 50118  1  0  0  0
 51 52  1  0  0  0
 51119  1  0  0  0
 51120  1  0  0  0
 52121  1  0  0  0
 52122  1  0  0  0
 53 54  1  0  0  0
 54 55  2  0  0  0
 54123  1  0  0  0
 55 57  1  0  0  0
 55124  1  0  0  0
 56 69  2  0  0  0
 57 58  2  0  0  0
 57125  1  0  0  0
 58126  1  0  0  0
 59 60  1  0  0  0
 59 61  1  0  0  0
 59 62  1  0  0  0
 60127  1  0  0  0
 60128  1  0  0  0
 60129  1  0  0  0
 61130  1  0  0  0
 61131  1  0  0  0
 61132  1  0  0  0
 62133  1  0  0  0
 62134  1  0  0  0
 62135  1  0  0  0
 63 65  1  0  0  0
 63136  1  0  0  0
 63137  1  0  0  0
 63138  1  0  0  0
 64139  1  0  0  0
 65140  1  0  0  0
 68 78  1  0  0  0
 71 72  2  0  0  0
 71 73  1  0  0  0
 71141  1  0  0  0
 72 75  1  0  0  0
 72142  1  0  0  0
 73 76  2  0  0  0
 73 78  1  0  0  0
 74 75  2  0  0  0
 74 76  1  0  0  0
 74 77  1  0  0  0
 75 80  1  0  0  0
 76 81  1  0  0  0
 77 79  1  0  0  0
 77143  1  0  0  0
 77144  1  0  0  0
 78145  1  0  0  0
 78146  1  0  0  0
 79147  1  0  0  0
M  ISO  4   1 100  68 101  78 101  79 100
M  END
> <chiral flag>
0

> <version>
0

> <s_m_source_file>
/data/baiqing/PycharmProjects/Reinvent-master-3.2/result/LINK_invent/BTK/process_docking_weight1_custom_sum_contain_oxygen_bond_distance_aromatic_linkinvent_7_9_3/rearranged_h_0018.sdf

> <i_m_source_file_index>
19

> <r_mmod_Potential_Energy-OPLS-2005>
1394.13317871094

> <r_mmod_Stretch_Energy-OPLS-2005>
650.93212890625

> <r_mmod_Bend_Energy-OPLS-2005>
441.346954345703

> <r_mmod_Torsional_Energy-OPLS-2005>
217.115234375

> <r_mmod_Improper_Torsional_Energy-OPLS-2005>
5.82798719406128

> <r_mmod_Van_der_Waal_Energy-OPLS-2005>
120.699028015137

> <r_mmod_Electrostatic_Energy-OPLS-2005>
-360.034423828125

> <r_mmod_Solvation_Energy-OPLS-2005>
-212.776290893555

> <b_mmod_Minimization_Converged-OPLS-2005>
0

> <r_mmod_RMS_Derivative-OPLS-2005>
0.302627563476562

$$$$
20
                    3D
 Structure written by MMmdl.
153161  0  0  1  0            999 V2000
  -30.4399  -15.3313   20.3845 C   0  0  0  0  0  0
  -30.4456  -12.8696   19.5178 C   0  0  0  0  0  0
  -29.5354  -12.5770   18.2963 C   0  0  0  0  0  0
  -28.0958  -12.2739   18.7441 C   0  0  0  0  0  0
  -27.6107  -13.2727   19.8215 C   0  0  2  0  0  0
  -28.6473  -13.4890   20.9461 C   0  0  0  0  0  0
  -25.2373  -13.8222   20.5723 C   0  0  0  0  0  0
  -24.1716  -13.0430   20.9236 C   0  0  0  0  0  0
  -24.6344  -11.6912   20.8752 C   0  0  0  0  0  0
  -23.9026  -10.4278   21.0372 C   0  0  0  0  0  0
  -24.3574   -9.4215   21.9173 C   0  0  0  0  0  0
  -23.6256   -8.2251   22.0752 C   0  0  0  0  0  0
  -22.4270   -8.0250   21.3513 C   0  0  0  0  0  0
  -21.9875   -9.0217   20.4635 C   0  0  0  0  0  0
  -22.7177  -10.2107   20.3041 C   0  0  0  0  0  0
  -21.6852   -6.0693   22.5243 C   0  0  0  0  0  0
  -21.4011   -6.5606   23.8168 C   0  0  0  0  0  0
  -21.3676   -5.6774   24.9148 C   0  0  0  0  0  0
  -21.6047   -4.3034   24.7219 C   0  0  0  0  0  0
  -21.8822   -3.8107   23.4347 C   0  0  0  0  0  0
  -21.9186   -4.6912   22.3387 C   0  0  0  0  0  0
  -22.7737  -13.5183   21.1881 C   0  0  0  0  0  0
  -22.1658   -4.2077   21.0970 F   0  0  0  0  0  0
  -21.5646   -3.4539   25.7755 F   0  0  0  0  0  0
  -29.8642  -14.0230   20.3026 N   0  0  0  0  0  0
  -26.2824  -12.9492   20.3256 N   0  0  0  0  0  0
  -25.9298  -11.6604   20.5741 N   0  0  0  0  0  0
  -22.0385  -12.8185   22.0450 N   0  0  0  0  0  0
  -25.3995  -15.1954   20.4102 N   0  0  0  0  0  0
  -31.6674  -15.2915   20.2156 O   0  0  0  0  0  0
  -21.6650   -6.8836   21.4207 O   0  0  0  0  0  0
  -22.3420  -14.5477   20.6695 O   0  0  0  0  0  0
  -24.6688  -31.8193   23.1645 C   0  0  0  0  0  0
  -25.9369  -32.4540   23.8130 C   0  0  1  0  0  0
  -27.2326  -26.8942   20.2013 C   0  0  0  0  0  0
  -25.6005  -33.8356   24.2024 N   0  0  0  0  0  0
  -23.4823  -30.4281   21.5137 C   0  0  2  0  0  0
  -24.9351  -28.7969   20.1252 C   0  0  0  0  0  0
  -22.7683  -29.4431   22.4753 C   0  0  0  0  0  0
  -18.0322  -28.1386   22.8446 C   0  0  0  0  0  0
  -24.1505  -36.7169   23.2653 C   0  0  0  0  0  0
  -26.0525  -30.6180   21.3975 C   0  0  0  0  0  0
  -26.1227  -29.1995   20.7509 C   0  0  0  0  0  0
  -27.2638  -28.2723   20.7565 C   0  0  0  0  0  0
  -26.0115  -26.6459   19.5347 C   0  0  0  0  0  0
  -24.9061  -27.5387   19.5007 C   0  0  0  0  0  0
  -23.7264  -29.7331   20.1461 C   0  0  0  0  0  0
  -25.4142  -36.2906   24.0287 C   0  0  1  0  0  0
  -20.5958  -28.3743   23.1152 C   0  0  2  0  0  0
  -20.6793  -26.9421   22.5383 C   0  0  0  0  0  0
  -19.5771  -26.6360   21.5187 C   0  0  0  0  0  0
  -18.1951  -26.7923   22.1594 C   0  0  0  0  0  0
  -19.1586  -28.8882   23.2787 C   0  0  0  0  0  0
  -18.9508  -30.1470   23.8829 C   0  0  0  0  0  0
  -17.6505  -30.6581   24.0540 C   0  0  0  0  0  0
  -25.9118  -34.9304   23.4964 C   0  0  0  0  0  0
  -16.5389  -29.9074   23.6333 C   0  0  0  0  0  0
  -16.7306  -28.6497   23.0355 C   0  0  0  0  0  0
  -26.4606  -31.6506   25.0669 C   0  0  0  0  0  0
  -25.3722  -31.3764   26.1321 C   0  0  0  0  0  0
  -27.0505  -30.2862   24.6426 C   0  0  0  0  0  0
  -27.6065  -32.4374   25.7469 C   0  0  0  0  0  0
  -27.5565  -37.1721   24.8469 C   0  0  0  0  0  0
  -21.4349  -29.3052   22.3507 N   0  0  0  0  0  0
  -26.4255  -37.3666   23.9430 N   0  0  0  0  0  0
  -24.7549  -30.9842   22.0773 N   0  0  0  0  0  0
  -23.4223  -28.8001   23.2996 O   0  0  0  0  0  0
  -28.2764  -25.8158   20.1732 O   0  0  0  0  0  0
  -26.5741  -34.8852   22.4572 O   0  0  0  0  0  0
  -23.5766  -32.1188   23.6725 O   0  0  0  0  0  0
  -31.0243  -19.9666   22.0534 C   0  0  0  0  0  0
  -30.3533  -21.1101   21.5405 C   0  0  0  0  0  0
  -30.8206  -18.6113   21.6697 C   0  0  0  0  0  0
  -29.3452  -21.0223   20.5424 C   0  0  0  0  0  0
  -29.8841  -18.2345   20.6630 C   0  0  0  0  0  0
  -29.1663  -19.5209   20.1376 C   0  0  0  0  0  0
  -30.8089  -22.4559   22.0928 C   0  0  0  0  0  0
  -31.6426  -17.5751   22.4258 C   0  0  0  0  0  0
  -28.7437  -22.5704   19.9058 C   0  0  0  0  0  0
  -28.2203  -24.1941   20.5813 C   0  0  0  0  0  0
  -29.6855  -16.6291   20.3772 N   0  0  0  0  0  0
  -28.0188  -19.2359   18.8808 Cl  0  0  0  0  0  0
  -31.4491  -13.1021   19.1606 H   0  0  0  0  0  0
  -30.5599  -11.9892   20.1534 H   0  0  0  0  0  0
  -29.9363  -11.7428   17.7193 H   0  0  0  0  0  0
  -29.5280  -13.4419   17.6335 H   0  0  0  0  0  0
  -28.0827  -11.2638   19.1540 H   0  0  0  0  0  0
  -27.4164  -12.2603   17.8901 H   0  0  0  0  0  0
  -27.5147  -14.2260   19.3001 H   0  0  0  0  0  0
  -28.8379  -12.5625   21.4912 H   0  0  0  0  0  0
  -28.2729  -14.2079   21.6781 H   0  0  0  0  0  0
  -25.2704   -9.5720   22.4758 H   0  0  0  0  0  0
  -23.9936   -7.4672   22.7512 H   0  0  0  0  0  0
  -21.0790   -8.8717   19.8971 H   0  0  0  0  0  0
  -22.3587  -10.9630   19.6163 H   0  0  0  0  0  0
  -21.2001   -7.6118   23.9630 H   0  0  0  0  0  0
  -21.1509   -6.0533   25.9036 H   0  0  0  0  0  0
  -22.0588   -2.7560   23.2877 H   0  0  0  0  0  0
  -22.4017  -11.9894   22.4904 H   0  0  0  0  0  0
  -21.0982  -13.1181   22.2636 H   0  0  0  0  0  0
  -24.6217  -15.8397   20.5073 H   0  0  0  0  0  0
  -26.2415  -15.6346   20.0658 H   0  0  0  0  0  0
  -26.7439  -32.5044   23.0849 H   0  0  0  0  0  0
  -25.0052  -33.9407   25.0102 H   0  0  0  0  0  0
  -22.7997  -31.2607   21.3364 H   0  0  0  0  0  0
  -23.3751  -35.9514   23.3265 H   0  0  0  0  0  0
  -24.3587  -36.8879   22.2080 H   0  0  0  0  0  0
  -23.7284  -37.6336   23.6769 H   0  0  0  0  0  0
  -26.2387  -31.3590   20.6183 H   0  0  0  0  0  0
  -26.9107  -30.6753   22.0552 H   0  0  0  0  0  0
  -28.1719  -28.5885   21.2522 H   0  0  0  0  0  0
  -25.8984  -25.6943   19.0368 H   0  0  0  0  0  0
  -24.0017  -27.2193   18.9997 H   0  0  0  0  0  0
  -23.8915  -30.4987   19.3877 H   0  0  0  0  0  0
  -22.8368  -29.1906   19.8212 H   0  0  0  0  0  0
  -25.1346  -36.1663   25.0771 H   0  0  0  0  0  0
  -21.0030  -28.3367   24.1277 H   0  0  0  0  0  0
  -20.5649  -26.2381   23.3645 H   0  0  0  0  0  0
  -21.6660  -26.7375   22.1206 H   0  0  0  0  0  0
  -19.6953  -25.6259   21.1257 H   0  0  0  0  0  0
  -19.6698  -27.3130   20.6694 H   0  0  0  0  0  0
  -17.4218  -26.6648   21.3998 H   0  0  0  0  0  0
  -18.0348  -26.0067   22.9000 H   0  0  0  0  0  0
  -19.8008  -30.7269   24.2172 H   0  0  0  0  0  0
  -17.5086  -31.6263   24.5147 H   0  0  0  0  0  0
  -15.5393  -30.2968   23.7696 H   0  0  0  0  0  0
  -15.8707  -28.0797   22.7107 H   0  0  0  0  0  0
  -24.5936  -30.7076   25.7636 H   0  0  0  0  0  0
  -24.8851  -32.2956   26.4581 H   0  0  0  0  0  0
  -25.7953  -30.9059   27.0208 H   0  0  0  0  0  0
  -26.3160  -29.6515   24.1444 H   0  0  0  0  0  0
  -27.4007  -29.7255   25.5100 H   0  0  0  0  0  0
  -27.9126  -30.3993   23.9851 H   0  0  0  0  0  0
  -27.2624  -33.3782   26.1810 H   0  0  0  0  0  0
  -28.3998  -32.6773   25.0375 H   0  0  0  0  0  0
  -28.0603  -31.8656   26.5580 H   0  0  0  0  0  0
  -28.2514  -38.0077   24.7540 H   0  0  0  0  0  0
  -28.1117  -36.2586   24.6249 H   0  0  0  0  0  0
  -27.2287  -37.1310   25.8873 H   0  0  0  0  0  0
  -20.9606  -29.8752   21.6634 H   0  0  0  0  0  0
  -26.0066  -38.2694   24.1489 H   0  0  0  0  0  0
  -31.7714  -20.1485   22.8171 H   0  0  0  0  0  0
  -30.8828  -23.2183   21.3180 H   0  0  0  0  0  0
  -31.8045  -22.3796   22.5358 H   0  0  0  0  0  0
  -30.1340  -22.8064   22.8741 H   0  0  0  0  0  0
  -32.1716  -18.0127   23.2738 H   0  0  0  0  0  0
  -32.3960  -17.1314   21.7744 H   0  0  0  0  0  0
  -31.0058  -16.7892   22.8310 H   0  0  0  0  0  0
  -27.9381  -22.2844   19.2296 H   0  0  0  0  0  0
  -29.5500  -22.8370   19.2222 H   0  0  0  0  0  0
  -28.7713  -24.2421   21.5188 H   0  0  0  0  0  0
  -27.1934  -24.0419   20.9124 H   0  0  0  0  0  0
  -28.7189  -16.4315   20.1752 H   0  0  0  0  0  0
  1 25  1  0  0  0
  1 30  2  0  0  0
  1 81  1  0  0  0
  2  3  1  0  0  0
  2 25  1  0  0  0
  2 83  1  0  0  0
  2 84  1  0  0  0
  3  4  1  0  0  0
  3 85  1  0  0  0
  3 86  1  0  0  0
  4  5  1  0  0  0
  4 87  1  0  0  0
  4 88  1  0  0  0
  5  6  1  0  0  0
  5 26  1  0  0  0
  5 89  1  0  0  0
  6 25  1  0  0  0
  6 90  1  0  0  0
  6 91  1  0  0  0
  7  8  2  0  0  0
  7 26  1  0  0  0
  7 29  1  0  0  0
  8  9  1  0  0  0
  8 22  1  0  0  0
  9 10  1  0  0  0
  9 27  2  0  0  0
 10 11  2  0  0  0
 10 15  1  0  0  0
 11 12  1  0  0  0
 11 92  1  0  0  0
 12 13  2  0  0  0
 12 93  1  0  0  0
 13 14  1  0  0  0
 13 31  1  0  0  0
 14 15  2  0  0  0
 14 94  1  0  0  0
 15 95  1  0  0  0
 16 17  2  0  0  0
 16 21  1  0  0  0
 16 31  1  0  0  0
 17 18  1  0  0  0
 17 96  1  0  0  0
 18 19  2  0  0  0
 18 97  1  0  0  0
 19 20  1  0  0  0
 19 24  1  0  0  0
 20 21  2  0  0  0
 20 98  1  0  0  0
 21 23  1  0  0  0
 22 28  1  0  0  0
 22 32  2  0  0  0
 26 27  1  0  0  0
 28 99  1  0  0  0
 28100  1  0  0  0
 29101  1  0  0  0
 29102  1  0  0  0
 33 34  1  0  0  0
 33 66  1  0  0  0
 33 70  2  0  0  0
 34 36  1  0  0  0
 34 59  1  0  0  0
 34103  1  0  0  0
 35 44  2  0  0  0
 35 45  1  0  0  0
 35 68  1  0  0  0
 36 56  1  0  0  0
 36104  1  0  0  0
 37 39  1  0  0  0
 37 47  1  0  0  0
 37 66  1  0  0  0
 37105  1  0  0  0
 38 43  2  0  0  0
 38 46  1  0  0  0
 38 47  1  0  0  0
 39 64  1  0  0  0
 39 67  2  0  0  0
 40 52  1  0  0  0
 40 53  2  0  0  0
 40 58  1  0  0  0
 41106  1  0  0  0
 41107  1  0  0  0
 41108  1  0  0  0
 41 48  1  0  0  0
 42 43  1  0  0  0
 42 66  1  0  0  0
 42109  1  0  0  0
 42110  1  0  0  0
 43 44  1  0  0  0
 44111  1  0  0  0
 45 46  2  0  0  0
 45112  1  0  0  0
 46113  1  0  0  0
 47114  1  0  0  0
 47115  1  0  0  0
 48 56  1  0  0  0
 48 65  1  0  0  0
 48116  1  0  0  0
 49 50  1  0  0  0
 49 53  1  0  0  0
 49 64  1  0  0  0
 49117  1  0  0  0
 50 51  1  0  0  0
 50118  1  0  0  0
 50119  1  0  0  0
 51 52  1  0  0  0
 51120  1  0  0  0
 51121  1  0  0  0
 52122  1  0  0  0
 52123  1  0  0  0
 53 54  1  0  0  0
 54 55  2  0  0  0
 54124  1  0  0  0
 55 57  1  0  0  0
 55125  1  0  0  0
 56 69  2  0  0  0
 57 58  2  0  0  0
 57126  1  0  0  0
 58127  1  0  0  0
 59 60  1  0  0  0
 59 61  1  0  0  0
 59 62  1  0  0  0
 60128  1  0  0  0
 60129  1  0  0  0
 60130  1  0  0  0
 61131  1  0  0  0
 61132  1  0  0  0
 61133  1  0  0  0
 62134  1  0  0  0
 62135  1  0  0  0
 62136  1  0  0  0
 63 65  1  0  0  0
 63137  1  0  0  0
 63138  1  0  0  0
 63139  1  0  0  0
 64140  1  0  0  0
 65141  1  0  0  0
 68 80  1  0  0  0
 71 72  2  0  0  0
 71 73  1  0  0  0
 71142  1  0  0  0
 72 74  1  0  0  0
 72 77  1  0  0  0
 73 75  2  0  0  0
 73 78  1  0  0  0
 74 76  2  0  0  0
 74 79  1  0  0  0
 75 76  1  0  0  0
 75 81  1  0  0  0
 76 82  1  0  0  0
 77143  1  0  0  0
 77144  1  0  0  0
 77145  1  0  0  0
 78146  1  0  0  0
 78147  1  0  0  0
 78148  1  0  0  0
 79 80  1  0  0  0
 79149  1  0  0  0
 79150  1  0  0  0
 80151  1  0  0  0
 80152  1  0  0  0
 81153  1  0  0  0
M  ISO  4   1 100  68 101  80 101  81 100
M  END
> <chiral flag>
0

> <version>
0

> <s_m_source_file>
/data/baiqing/PycharmProjects/Reinvent-master-3.2/result/LINK_invent/BTK/process_docking_weight1_custom_sum_contain_oxygen_bond_distance_aromatic_linkinvent_7_9_3/rearranged_h_0018.sdf

> <i_m_source_file_index>
20

> <r_mmod_Potential_Energy-OPLS-2005>
1426.76599121094

> <r_mmod_Stretch_Energy-OPLS-2005>
669.035766601562

> <r_mmod_Bend_Energy-OPLS-2005>
459.253173828125

> <r_mmod_Torsional_Energy-OPLS-2005>
247.703872680664

> <r_mmod_Improper_Torsional_Energy-OPLS-2005>
7.90390110015869

> <r_mmod_Van_der_Waal_Energy-OPLS-2005>
129.676391601562

> <r_mmod_Electrostatic_Energy-OPLS-2005>
-394.192474365234

> <r_mmod_Solvation_Energy-OPLS-2005>
-200.994903564453

> <b_mmod_Minimization_Converged-OPLS-2005>
0

> <r_mmod_RMS_Derivative-OPLS-2005>
3.72698783874512

$$$$
21
                    3D
 Structure written by MMmdl.
150158  0  0  1  0            999 V2000
  -30.3026  -15.5951   20.3318 C   0  0  0  0  0  0
  -30.4333  -13.0487   19.5367 C   0  0  0  0  0  0
  -29.5519  -12.6450   18.3199 C   0  0  0  0  0  0
  -28.1204  -12.3003   18.7610 C   0  0  0  0  0  0
  -27.5998  -13.3035   19.8152 C   0  0  2  0  0  0
  -28.6204  -13.6103   20.9357 C   0  0  0  0  0  0
  -25.2334  -13.8279   20.5785 C   0  0  0  0  0  0
  -24.1719  -13.0435   20.9288 C   0  0  0  0  0  0
  -24.6417  -11.6945   20.8770 C   0  0  0  0  0  0
  -23.9118  -10.4294   21.0404 C   0  0  0  0  0  0
  -24.3651   -9.4206   21.9186 C   0  0  0  0  0  0
  -23.6310   -8.2248   22.0760 C   0  0  0  0  0  0
  -22.4290   -8.0292   21.3550 C   0  0  0  0  0  0
  -21.9936   -9.0269   20.4651 C   0  0  0  0  0  0
  -22.7283  -10.2139   20.3057 C   0  0  0  0  0  0
  -21.6858   -6.0744   22.5279 C   0  0  0  0  0  0
  -21.4022   -6.5644   23.8215 C   0  0  0  0  0  0
  -21.3661   -5.6796   24.9175 C   0  0  0  0  0  0
  -21.6041   -4.3058   24.7224 C   0  0  0  0  0  0
  -21.8817   -3.8152   23.4345 C   0  0  0  0  0  0
  -21.9193   -4.6970   22.3403 C   0  0  0  0  0  0
  -22.7729  -13.5169   21.1924 C   0  0  0  0  0  0
  -22.1660   -4.2155   21.0980 F   0  0  0  0  0  0
  -21.5623   -3.4541   25.7736 F   0  0  0  0  0  0
  -29.8011  -14.2240   20.2851 N   0  0  0  0  0  0
  -26.2787  -12.9604   20.3234 N   0  0  0  0  0  0
  -25.9363  -11.6681   20.5705 N   0  0  0  0  0  0
  -22.0392  -12.8148   22.0476 N   0  0  0  0  0  0
  -25.3906  -15.2020   20.4217 N   0  0  0  0  0  0
  -31.5375  -15.5652   20.1677 O   0  0  0  0  0  0
  -21.6647   -6.8890   21.4244 O   0  0  0  0  0  0
  -22.3403  -14.5468   20.6761 O   0  0  0  0  0  0
  -24.6838  -31.8004   23.1526 C   0  0  0  0  0  0
  -25.9417  -32.4472   23.8072 C   0  0  1  0  0  0
  -27.2285  -26.7122   20.2097 C   0  0  0  0  0  0
  -25.5995  -33.8296   24.1956 N   0  0  0  0  0  0
  -23.5098  -30.4030   21.5061 C   0  0  2  0  0  0
  -24.9678  -28.7466   20.1176 C   0  0  0  0  0  0
  -22.7767  -29.4319   22.4711 C   0  0  0  0  0  0
  -18.0338  -28.1423   22.8452 C   0  0  0  0  0  0
  -24.1496  -36.7158   23.2654 C   0  0  0  0  0  0
  -26.0906  -30.5363   21.4160 C   0  0  0  0  0  0
  -26.1573  -29.1024   20.7649 C   0  0  0  0  0  0
  -27.2735  -28.1131   20.7786 C   0  0  0  0  0  0
  -26.0058  -26.5650   19.5061 C   0  0  0  0  0  0
  -24.9307  -27.5028   19.4650 C   0  0  0  0  0  0
  -23.7639  -29.7013   20.1410 C   0  0  0  0  0  0
  -25.4147  -36.2898   24.0281 C   0  0  1  0  0  0
  -20.5974  -28.3783   23.1139 C   0  0  2  0  0  0
  -20.6804  -26.9441   22.5403 C   0  0  0  0  0  0
  -19.5781  -26.6371   21.5215 C   0  0  0  0  0  0
  -18.1964  -26.7949   22.1618 C   0  0  0  0  0  0
  -19.1604  -28.8927   23.2778 C   0  0  0  0  0  0
  -18.9510  -30.1510   23.8826 C   0  0  0  0  0  0
  -17.6500  -30.6604   24.0551 C   0  0  0  0  0  0
  -25.9123  -34.9287   23.4954 C   0  0  0  0  0  0
  -16.5389  -29.9087   23.6350 C   0  0  0  0  0  0
  -16.7318  -28.6510   23.0364 C   0  0  0  0  0  0
  -26.4591  -31.6506   25.0695 C   0  0  0  0  0  0
  -25.3656  -31.3820   26.1308 C   0  0  0  0  0  0
  -27.0522  -30.2844   24.6592 C   0  0  0  0  0  0
  -27.6039  -32.4366   25.7516 C   0  0  0  0  0  0
  -27.5560  -37.1743   24.8470 C   0  0  0  0  0  0
  -21.4415  -29.3032   22.3460 N   0  0  0  0  0  0
  -26.4276  -37.3655   23.9397 N   0  0  0  0  0  0
  -24.7847  -30.9457   22.0775 N   0  0  0  0  0  0
  -23.4210  -28.7917   23.3053 O   0  0  0  0  0  0
  -28.1836  -25.4896   20.2805 O   0  0  0  0  0  0
  -26.5764  -34.8860   22.4570 O   0  0  0  0  0  0
  -23.5858  -32.1072   23.6485 O   0  0  0  0  0  0
  -28.4470  -20.9673   19.2128 C   0  0  0  0  0  0
  -29.5808  -19.7166   21.2979 C   0  0  0  0  0  0
  -28.6230  -22.0637   20.2063 C   0  0  0  0  0  0
  -28.7705  -19.4721   19.2339 C   0  0  0  0  0  0
  -29.2462  -21.2226   21.2763 C   0  0  0  0  0  0
  -29.3938  -18.6270   20.2889 C   0  0  0  0  0  0
  -28.3509  -18.7063   17.9929 C   0  0  0  0  0  0
  -29.5411  -21.9780   22.5579 C   0  0  0  0  0  0
  -27.8657  -23.7757   20.1361 C   0  0  0  0  0  0
  -29.4741  -16.9080   20.3736 N   0  0  0  0  0  0
  -31.4271  -13.3134   19.1734 H   0  0  0  0  0  0
  -30.5911  -12.1969   20.2006 H   0  0  0  0  0  0
  -29.9955  -11.8020   17.7883 H   0  0  0  0  0  0
  -29.5217  -13.4735   17.6105 H   0  0  0  0  0  0
  -28.1373  -11.2981   19.1910 H   0  0  0  0  0  0
  -27.4511  -12.2566   17.9010 H   0  0  0  0  0  0
  -27.4698  -14.2327   19.2587 H   0  0  0  0  0  0
  -28.8705  -12.7174   21.5109 H   0  0  0  0  0  0
  -28.1974  -14.3241   21.6444 H   0  0  0  0  0  0
  -25.2792   -9.5674   22.4770 H   0  0  0  0  0  0
  -24.0010   -7.4637   22.7481 H   0  0  0  0  0  0
  -21.0866   -8.8803   19.8955 H   0  0  0  0  0  0
  -22.3747  -10.9685   19.6169 H   0  0  0  0  0  0
  -21.2023   -7.6155   23.9719 H   0  0  0  0  0  0
  -21.1481   -6.0527   25.9077 H   0  0  0  0  0  0
  -22.0592   -2.7614   23.2844 H   0  0  0  0  0  0
  -22.4033  -11.9827   22.4876 H   0  0  0  0  0  0
  -21.1004  -13.1149   22.2685 H   0  0  0  0  0  0
  -24.6126  -15.8437   20.5309 H   0  0  0  0  0  0
  -26.2203  -15.6467   20.0545 H   0  0  0  0  0  0
  -26.7500  -32.4945   23.0787 H   0  0  0  0  0  0
  -25.0049  -33.9334   25.0045 H   0  0  0  0  0  0
  -22.8352  -31.2406   21.3170 H   0  0  0  0  0  0
  -23.3765  -35.9482   23.3293 H   0  0  0  0  0  0
  -24.3557  -36.8842   22.2073 H   0  0  0  0  0  0
  -23.7257  -37.6332   23.6746 H   0  0  0  0  0  0
  -26.2929  -31.2625   20.6277 H   0  0  0  0  0  0
  -26.9416  -30.6031   22.0814 H   0  0  0  0  0  0
  -28.1686  -28.3902   21.3176 H   0  0  0  0  0  0
  -25.8384  -25.6243   19.0015 H   0  0  0  0  0  0
  -24.0331  -27.2213   18.9315 H   0  0  0  0  0  0
  -23.9402  -30.4625   19.3802 H   0  0  0  0  0  0
  -22.8685  -29.1691   19.8152 H   0  0  0  0  0  0
  -25.1359  -36.1665   25.0773 H   0  0  0  0  0  0
  -21.0055  -28.3409   24.1265 H   0  0  0  0  0  0
  -20.5667  -26.2407   23.3665 H   0  0  0  0  0  0
  -21.6665  -26.7385   22.1223 H   0  0  0  0  0  0
  -19.6938  -25.6262   21.1293 H   0  0  0  0  0  0
  -19.6724  -27.3140   20.6711 H   0  0  0  0  0  0
  -17.4232  -26.6687   21.4025 H   0  0  0  0  0  0
  -18.0358  -26.0112   22.9035 H   0  0  0  0  0  0
  -19.7984  -30.7345   24.2167 H   0  0  0  0  0  0
  -17.5048  -31.6274   24.5168 H   0  0  0  0  0  0
  -15.5386  -30.2966   23.7716 H   0  0  0  0  0  0
  -15.8718  -28.0806   22.7119 H   0  0  0  0  0  0
  -24.5866  -30.7144   25.7605 H   0  0  0  0  0  0
  -24.8818  -32.3042   26.4537 H   0  0  0  0  0  0
  -25.7833  -30.9112   27.0217 H   0  0  0  0  0  0
  -26.3235  -29.6458   24.1592 H   0  0  0  0  0  0
  -27.3952  -29.7293   25.5333 H   0  0  0  0  0  0
  -27.9215  -30.3966   24.0113 H   0  0  0  0  0  0
  -27.2572  -33.3730   26.1899 H   0  0  0  0  0  0
  -28.3951  -32.6828   25.0423 H   0  0  0  0  0  0
  -28.0594  -31.8629   26.5596 H   0  0  0  0  0  0
  -28.2567  -38.0045   24.7483 H   0  0  0  0  0  0
  -28.1064  -36.2565   24.6344 H   0  0  0  0  0  0
  -27.2268  -37.1437   25.8871 H   0  0  0  0  0  0
  -20.9719  -29.8688   21.6526 H   0  0  0  0  0  0
  -26.0106  -38.2707   24.1387 H   0  0  0  0  0  0
  -27.9415  -21.2998   18.3168 H   0  0  0  0  0  0
  -29.9821  -19.3575   22.2354 H   0  0  0  0  0  0
  -28.2553  -19.3627   17.1277 H   0  0  0  0  0  0
  -27.3912  -18.2161   18.1581 H   0  0  0  0  0  0
  -29.0867  -17.9410   17.7423 H   0  0  0  0  0  0
  -30.0234  -21.3488   23.3063 H   0  0  0  0  0  0
  -28.6188  -22.3681   22.9895 H   0  0  0  0  0  0
  -30.2032  -22.8203   22.3545 H   0  0  0  0  0  0
  -27.0349  -23.6586   20.8318 H   0  0  0  0  0  0
  -27.3841  -23.7399   19.1590 H   0  0  0  0  0  0
  -28.5240  -16.5699   20.4124 H   0  0  0  0  0  0
  1 25  1  0  0  0
  1 30  2  0  0  0
  1 80  1  0  0  0
  2  3  1  0  0  0
  2 25  1  0  0  0
  2 81  1  0  0  0
  2 82  1  0  0  0
  3  4  1  0  0  0
  3 83  1  0  0  0
  3 84  1  0  0  0
  4  5  1  0  0  0
  4 85  1  0  0  0
  4 86  1  0  0  0
  5  6  1  0  0  0
  5 26  1  0  0  0
  5 87  1  0  0  0
  6 25  1  0  0  0
  6 88  1  0  0  0
  6 89  1  0  0  0
  7  8  2  0  0  0
  7 26  1  0  0  0
  7 29  1  0  0  0
  8  9  1  0  0  0
  8 22  1  0  0  0
  9 10  1  0  0  0
  9 27  2  0  0  0
 10 11  2  0  0  0
 10 15  1  0  0  0
 11 12  1  0  0  0
 11 90  1  0  0  0
 12 13  2  0  0  0
 12 91  1  0  0  0
 13 14  1  0  0  0
 13 31  1  0  0  0
 14 15  2  0  0  0
 14 92  1  0  0  0
 15 93  1  0  0  0
 16 17  2  0  0  0
 16 21  1  0  0  0
 16 31  1  0  0  0
 17 18  1  0  0  0
 17 94  1  0  0  0
 18 19  2  0  0  0
 18 95  1  0  0  0
 19 20  1  0  0  0
 19 24  1  0  0  0
 20 21  2  0  0  0
 20 96  1  0  0  0
 21 23  1  0  0  0
 22 28  1  0  0  0
 22 32  2  0  0  0
 26 27  1  0  0  0
 28 97  1  0  0  0
 28 98  1  0  0  0
 29 99  1  0  0  0
 29100  1  0  0  0
 33 34  1  0  0  0
 33 66  1  0  0  0
 33 70  2  0  0  0
 34 36  1  0  0  0
 34 59  1  0  0  0
 34101  1  0  0  0
 35 44  2  0  0  0
 35 45  1  0  0  0
 35 68  1  0  0  0
 36 56  1  0  0  0
 36102  1  0  0  0
 37 39  1  0  0  0
 37 47  1  0  0  0
 37 66  1  0  0  0
 37103  1  0  0  0
 38 43  2  0  0  0
 38 46  1  0  0  0
 38 47  1  0  0  0
 39 64  1  0  0  0
 39 67  2  0  0  0
 40 52  1  0  0  0
 40 53  2  0  0  0
 40 58  1  0  0  0
 41104  1  0  0  0
 41105  1  0  0  0
 41106  1  0  0  0
 41 48  1  0  0  0
 42 43  1  0  0  0
 42 66  1  0  0  0
 42107  1  0  0  0
 42108  1  0  0  0
 43 44  1  0  0  0
 44109  1  0  0  0
 45 46  2  0  0  0
 45110  1  0  0  0
 46111  1  0  0  0
 47112  1  0  0  0
 47113  1  0  0  0
 48 56  1  0  0  0
 48 65  1  0  0  0
 48114  1  0  0  0
 49 50  1  0  0  0
 49 53  1  0  0  0
 49 64  1  0  0  0
 49115  1  0  0  0
 50 51  1  0  0  0
 50116  1  0  0  0
 50117  1  0  0  0
 51 52  1  0  0  0
 51118  1  0  0  0
 51119  1  0  0  0
 52120  1  0  0  0
 52121  1  0  0  0
 53 54  1  0  0  0
 54 55  2  0  0  0
 54122  1  0  0  0
 55 57  1  0  0  0
 55123  1  0  0  0
 56 69  2  0  0  0
 57 58  2  0  0  0
 57124  1  0  0  0
 58125  1  0  0  0
 59 60  1  0  0  0
 59 61  1  0  0  0
 59 62  1  0  0  0
 60126  1  0  0  0
 60127  1  0  0  0
 60128  1  0  0  0
 61129  1  0  0  0
 61130  1  0  0  0
 61131  1  0  0  0
 62132  1  0  0  0
 62133  1  0  0  0
 62134  1  0  0  0
 63 65  1  0  0  0
 63135  1  0  0  0
 63136  1  0  0  0
 63137  1  0  0  0
 64138  1  0  0  0
 65139  1  0  0  0
 68 79  1  0  0  0
 71 73  2  0  0  0
 71 74  1  0  0  0
 71140  1  0  0  0
 72 75  2  0  0  0
 72 76  1  0  0  0
 72141  1  0  0  0
 73 75  1  0  0  0
 73 79  1  0  0  0
 74 76  2  0  0  0
 74 77  1  0  0  0
 75 78  1  0  0  0
 76 80  1  0  0  0
 77142  1  0  0  0
 77143  1  0  0  0
 77144  1  0  0  0
 78145  1  0  0  0
 78146  1  0  0  0
 78147  1  0  0  0
 79148  1  0  0  0
 79149  1  0  0  0
 80150  1  0  0  0
M  ISO  4   1 100  68 101  79 101  80 100
M  END
> <chiral flag>
0

> <version>
0

> <s_m_source_file>
/data/baiqing/PycharmProjects/Reinvent-master-3.2/result/LINK_invent/BTK/process_docking_weight1_custom_sum_contain_oxygen_bond_distance_aromatic_linkinvent_7_9_3/rearranged_h_0018.sdf

> <i_m_source_file_index>
21

> <r_mmod_Potential_Energy-OPLS-2005>
2262.70751953125

> <r_mmod_Stretch_Energy-OPLS-2005>
917.577331542969

> <r_mmod_Bend_Energy-OPLS-2005>
655.342224121094

> <r_mmod_Torsional_Energy-OPLS-2005>
258.717437744141

> <r_mmod_Improper_Torsional_Energy-OPLS-2005>
10.176064491272

> <r_mmod_Van_der_Waal_Energy-OPLS-2005>
130.060333251953

> <r_mmod_Electrostatic_Energy-OPLS-2005>
-361.068634033203

> <r_mmod_Solvation_Energy-OPLS-2005>
-211.298919677734

> <b_mmod_Minimization_Converged-OPLS-2005>
0

> <r_mmod_RMS_Derivative-OPLS-2005>
0.497664153575897

$$$$
22
                    3D
 Structure written by MMmdl.
150158  0  0  1  0            999 V2000
  -30.4122  -15.3266   20.3748 C   0  0  0  0  0  0
  -30.4405  -12.8603   19.5089 C   0  0  0  0  0  0
  -29.5359  -12.5813   18.2821 C   0  0  0  0  0  0
  -28.0889  -12.2904   18.7190 C   0  0  0  0  0  0
  -27.6063  -13.2761   19.8118 C   0  0  2  0  0  0
  -28.6427  -13.4837   20.9359 C   0  0  0  0  0  0
  -25.2381  -13.8237   20.5749 C   0  0  0  0  0  0
  -24.1739  -13.0426   20.9267 C   0  0  0  0  0  0
  -24.6398  -11.6925   20.8761 C   0  0  0  0  0  0
  -23.9086  -10.4287   21.0395 C   0  0  0  0  0  0
  -24.3628   -9.4204   21.9177 C   0  0  0  0  0  0
  -23.6298   -8.2241   22.0750 C   0  0  0  0  0  0
  -22.4280   -8.0279   21.3539 C   0  0  0  0  0  0
  -21.9916   -9.0253   20.4642 C   0  0  0  0  0  0
  -22.7251  -10.2130   20.3048 C   0  0  0  0  0  0
  -21.6858   -6.0730   22.5279 C   0  0  0  0  0  0
  -21.4017   -6.5631   23.8213 C   0  0  0  0  0  0
  -21.3661   -5.6785   24.9175 C   0  0  0  0  0  0
  -21.6047   -4.3048   24.7225 C   0  0  0  0  0  0
  -21.8816   -3.8140   23.4346 C   0  0  0  0  0  0
  -21.9192   -4.6956   22.3401 C   0  0  0  0  0  0
  -22.7753  -13.5181   21.1908 C   0  0  0  0  0  0
  -22.1659   -4.2141   21.0976 F   0  0  0  0  0  0
  -21.5631   -3.4532   25.7737 F   0  0  0  0  0  0
  -29.8546  -14.0146   20.2878 N   0  0  0  0  0  0
  -26.2805  -12.9512   20.3194 N   0  0  0  0  0  0
  -25.9335  -11.6617   20.5708 N   0  0  0  0  0  0
  -22.0403  -12.8180   22.0468 N   0  0  0  0  0  0
  -25.3997  -15.1976   20.4185 N   0  0  0  0  0  0
  -31.6457  -15.3098   20.2415 O   0  0  0  0  0  0
  -21.6642   -6.8877   21.4240 O   0  0  0  0  0  0
  -22.3432  -14.5476   20.6739 O   0  0  0  0  0  0
  -24.6664  -31.8200   23.1675 C   0  0  0  0  0  0
  -25.9332  -32.4571   23.8153 C   0  0  1  0  0  0
  -27.2196  -26.8905   20.2027 C   0  0  0  0  0  0
  -25.5984  -33.8384   24.2063 N   0  0  0  0  0  0
  -23.4829  -30.4292   21.5181 C   0  0  2  0  0  0
  -24.9353  -28.8024   20.1224 C   0  0  0  0  0  0
  -22.7682  -29.4420   22.4785 C   0  0  0  0  0  0
  -18.0325  -28.1407   22.8466 C   0  0  0  0  0  0
  -24.1495  -36.7202   23.2648 C   0  0  0  0  0  0
  -26.0537  -30.6163   21.4005 C   0  0  0  0  0  0
  -26.1216  -29.1993   20.7521 C   0  0  0  0  0  0
  -27.2602  -28.2678   20.7588 C   0  0  0  0  0  0
  -26.0000  -26.6488   19.5322 C   0  0  0  0  0  0
  -24.9010  -27.5479   19.4910 C   0  0  0  0  0  0
  -23.7251  -29.7378   20.1477 C   0  0  0  0  0  0
  -25.4140  -36.2962   24.0297 C   0  0  1  0  0  0
  -20.5951  -28.3753   23.1185 C   0  0  2  0  0  0
  -20.6804  -26.9433   22.5402 C   0  0  0  0  0  0
  -19.5776  -26.6375   21.5215 C   0  0  0  0  0  0
  -18.1958  -26.7940   22.1623 C   0  0  0  0  0  0
  -19.1588  -28.8903   23.2810 C   0  0  0  0  0  0
  -18.9493  -30.1492   23.8847 C   0  0  0  0  0  0
  -17.6486  -30.6596   24.0550 C   0  0  0  0  0  0
  -25.9103  -34.9339   23.5005 C   0  0  0  0  0  0
  -16.5376  -29.9083   23.6339 C   0  0  0  0  0  0
  -16.7306  -28.6501   23.0363 C   0  0  0  0  0  0
  -26.4569  -31.6522   25.0690 C   0  0  0  0  0  0
  -25.3688  -31.3777   26.1342 C   0  0  0  0  0  0
  -27.0469  -30.2887   24.6435 C   0  0  0  0  0  0
  -27.6061  -32.4336   25.7494 C   0  0  0  0  0  0
  -27.5571  -37.1767   24.8473 C   0  0  0  0  0  0
  -21.4350  -29.3039   22.3533 N   0  0  0  0  0  0
  -26.4291  -37.3696   23.9400 N   0  0  0  0  0  0
  -24.7563  -30.9833   22.0825 N   0  0  0  0  0  0
  -23.4212  -28.7989   23.3039 O   0  0  0  0  0  0
  -28.2425  -25.7927   20.1949 O   0  0  0  0  0  0
  -26.5714  -34.8880   22.4601 O   0  0  0  0  0  0
  -23.5727  -32.1185   23.6746 O   0  0  0  0  0  0
  -30.4951  -19.8327   22.3967 C   0  0  0  0  0  0
  -29.9418  -21.0045   21.8112 C   0  0  0  0  0  0
  -29.2002  -20.9792   20.6000 C   0  0  0  0  0  0
  -29.7374  -18.1951   20.6771 C   0  0  0  0  0  0
  -29.1316  -19.5058   20.0809 C   0  0  0  0  0  0
  -30.4143  -18.5128   21.8839 C   0  0  0  0  0  0
  -30.2026  -22.3161   22.5333 C   0  0  0  0  0  0
  -28.7370  -22.5599   19.9304 C   0  0  0  0  0  0
  -28.1044  -24.1659   20.5553 C   0  0  0  0  0  0
  -29.6317  -16.6037   20.2966 N   0  0  0  0  0  0
  -28.4501  -19.3419   18.9219 F   0  0  0  0  0  0
  -31.1365  -17.2824   22.8626 Cl  0  0  0  0  0  0
  -31.4497  -13.0879   19.1642 H   0  0  0  0  0  0
  -30.5380  -11.9723   20.1355 H   0  0  0  0  0  0
  -29.9308  -11.7471   17.7000 H   0  0  0  0  0  0
  -29.5486  -13.4502   17.6220 H   0  0  0  0  0  0
  -28.0620  -11.2725   19.1094 H   0  0  0  0  0  0
  -27.4175  -12.3067   17.8595 H   0  0  0  0  0  0
  -27.5071  -14.2319   19.2956 H   0  0  0  0  0  0
  -28.8359  -12.5606   21.4842 H   0  0  0  0  0  0
  -28.2720  -14.2083   21.6632 H   0  0  0  0  0  0
  -25.2766   -9.5684   22.4760 H   0  0  0  0  0  0
  -24.0004   -7.4631   22.7471 H   0  0  0  0  0  0
  -21.0846   -8.8765   19.8950 H   0  0  0  0  0  0
  -22.3697  -10.9664   19.6158 H   0  0  0  0  0  0
  -21.2011   -7.6142   23.9715 H   0  0  0  0  0  0
  -21.1489   -6.0516   25.9079 H   0  0  0  0  0  0
  -22.0596   -2.7604   23.2845 H   0  0  0  0  0  0
  -22.4031  -11.9860   22.4881 H   0  0  0  0  0  0
  -21.1010  -13.1189   22.2649 H   0  0  0  0  0  0
  -24.6259  -15.8439   20.5307 H   0  0  0  0  0  0
  -26.2409  -15.6442   20.0793 H   0  0  0  0  0  0
  -26.7401  -32.5099   23.0865 H   0  0  0  0  0  0
  -25.0084  -33.9456   25.0184 H   0  0  0  0  0  0
  -22.7979  -31.2611   21.3426 H   0  0  0  0  0  0
  -23.3761  -35.9529   23.3305 H   0  0  0  0  0  0
  -24.3559  -36.8854   22.2061 H   0  0  0  0  0  0
  -23.7250  -37.6389   23.6708 H   0  0  0  0  0  0
  -26.2339  -31.3516   20.6150 H   0  0  0  0  0  0
  -26.9140  -30.6788   22.0548 H   0  0  0  0  0  0
  -28.1658  -28.5796   21.2598 H   0  0  0  0  0  0
  -25.8761  -25.6924   19.0439 H   0  0  0  0  0  0
  -24.0010  -27.2371   18.9779 H   0  0  0  0  0  0
  -23.8865  -30.5027   19.3871 H   0  0  0  0  0  0
  -22.8337  -29.1954   19.8281 H   0  0  0  0  0  0
  -25.1341  -36.1762   25.0791 H   0  0  0  0  0  0
  -21.0037  -28.3359   24.1308 H   0  0  0  0  0  0
  -20.5688  -26.2368   23.3642 H   0  0  0  0  0  0
  -21.6664  -26.7408   22.1202 H   0  0  0  0  0  0
  -19.6935  -25.6272   21.1279 H   0  0  0  0  0  0
  -19.6719  -27.3154   20.6719 H   0  0  0  0  0  0
  -17.4229  -26.6677   21.4027 H   0  0  0  0  0  0
  -18.0354  -26.0096   22.9032 H   0  0  0  0  0  0
  -19.7966  -30.7323   24.2197 H   0  0  0  0  0  0
  -17.5032  -31.6270   24.5160 H   0  0  0  0  0  0
  -15.5374  -30.2965   23.7694 H   0  0  0  0  0  0
  -15.8705  -28.0799   22.7113 H   0  0  0  0  0  0
  -24.5882  -30.7120   25.7640 H   0  0  0  0  0  0
  -24.8861  -32.2976   26.4649 H   0  0  0  0  0  0
  -25.7906  -30.9011   27.0200 H   0  0  0  0  0  0
  -26.3136  -29.6557   24.1429 H   0  0  0  0  0  0
  -27.3983  -29.7259   25.5093 H   0  0  0  0  0  0
  -27.9084  -30.4066   23.9862 H   0  0  0  0  0  0
  -27.2635  -33.3685   26.1942 H   0  0  0  0  0  0
  -28.3938  -32.6823   25.0368 H   0  0  0  0  0  0
  -28.0662  -31.8549   26.5517 H   0  0  0  0  0  0
  -28.2594  -38.0055   24.7486 H   0  0  0  0  0  0
  -28.1064  -36.2579   24.6354 H   0  0  0  0  0  0
  -27.2278  -37.1471   25.8875 H   0  0  0  0  0  0
  -20.9620  -29.8714   21.6640 H   0  0  0  0  0  0
  -26.0141  -38.2763   24.1380 H   0  0  0  0  0  0
  -31.0323  -19.9462   23.3279 H   0  0  0  0  0  0
  -30.9733  -22.2076   23.2972 H   0  0  0  0  0  0
  -29.2982  -22.6602   23.0344 H   0  0  0  0  0  0
  -30.5527  -23.0886   21.8494 H   0  0  0  0  0  0
  -28.0693  -22.3019   19.1084 H   0  0  0  0  0  0
  -29.6565  -22.8468   19.4203 H   0  0  0  0  0  0
  -28.4580  -24.1910   21.5827 H   0  0  0  0  0  0
  -27.0327  -24.0099   20.6792 H   0  0  0  0  0  0
  -28.6993  -16.3884   19.9811 H   0  0  0  0  0  0
  1 25  1  0  0  0
  1 30  2  0  0  0
  1 80  1  0  0  0
  2  3  1  0  0  0
  2 25  1  0  0  0
  2 83  1  0  0  0
  2 84  1  0  0  0
  3  4  1  0  0  0
  3 85  1  0  0  0
  3 86  1  0  0  0
  4  5  1  0  0  0
  4 87  1  0  0  0
  4 88  1  0  0  0
  5  6  1  0  0  0
  5 26  1  0  0  0
  5 89  1  0  0  0
  6 25  1  0  0  0
  6 90  1  0  0  0
  6 91  1  0  0  0
  7  8  2  0  0  0
  7 26  1  0  0  0
  7 29  1  0  0  0
  8  9  1  0  0  0
  8 22  1  0  0  0
  9 10  1  0  0  0
  9 27  2  0  0  0
 10 11  2  0  0  0
 10 15  1  0  0  0
 11 12  1  0  0  0
 11 92  1  0  0  0
 12 13  2  0  0  0
 12 93  1  0  0  0
 13 14  1  0  0  0
 13 31  1  0  0  0
 14 15  2  0  0  0
 14 94  1  0  0  0
 15 95  1  0  0  0
 16 17  2  0  0  0
 16 21  1  0  0  0
 16 31  1  0  0  0
 17 18  1  0  0  0
 17 96  1  0  0  0
 18 19  2  0  0  0
 18 97  1  0  0  0
 19 20  1  0  0  0
 19 24  1  0  0  0
 20 21  2  0  0  0
 20 98  1  0  0  0
 21 23  1  0  0  0
 22 28  1  0  0  0
 22 32  2  0  0  0
 26 27  1  0  0  0
 28 99  1  0  0  0
 28100  1  0  0  0
 29101  1  0  0  0
 29102  1  0  0  0
 33 34  1  0  0  0
 33 66  1  0  0  0
 33 70  2  0  0  0
 34 36  1  0  0  0
 34 59  1  0  0  0
 34103  1  0  0  0
 35 44  2  0  0  0
 35 45  1  0  0  0
 35 68  1  0  0  0
 36 56  1  0  0  0
 36104  1  0  0  0
 37 39  1  0  0  0
 37 47  1  0  0  0
 37 66  1  0  0  0
 37105  1  0  0  0
 38 43  2  0  0  0
 38 46  1  0  0  0
 38 47  1  0  0  0
 39 64  1  0  0  0
 39 67  2  0  0  0
 40 52  1  0  0  0
 40 53  2  0  0  0
 40 58  1  0  0  0
 41106  1  0  0  0
 41107  1  0  0  0
 41108  1  0  0  0
 41 48  1  0  0  0
 42 43  1  0  0  0
 42 66  1  0  0  0
 42109  1  0  0  0
 42110  1  0  0  0
 43 44  1  0  0  0
 44111  1  0  0  0
 45 46  2  0  0  0
 45112  1  0  0  0
 46113  1  0  0  0
 47114  1  0  0  0
 47115  1  0  0  0
 48 56  1  0  0  0
 48 65  1  0  0  0
 48116  1  0  0  0
 49 50  1  0  0  0
 49 53  1  0  0  0
 49 64  1  0  0  0
 49117  1  0  0  0
 50 51  1  0  0  0
 50118  1  0  0  0
 50119  1  0  0  0
 51 52  1  0  0  0
 51120  1  0  0  0
 51121  1  0  0  0
 52122  1  0  0  0
 52123  1  0  0  0
 53 54  1  0  0  0
 54 55  2  0  0  0
 54124  1  0  0  0
 55 57  1  0  0  0
 55125  1  0  0  0
 56 69  2  0  0  0
 57 58  2  0  0  0
 57126  1  0  0  0
 58127  1  0  0  0
 59 60  1  0  0  0
 59 61  1  0  0  0
 59 62  1  0  0  0
 60128  1  0  0  0
 60129  1  0  0  0
 60130  1  0  0  0
 61131  1  0  0  0
 61132  1  0  0  0
 61133  1  0  0  0
 62134  1  0  0  0
 62135  1  0  0  0
 62136  1  0  0  0
 63 65  1  0  0  0
 63137  1  0  0  0
 63138  1  0  0  0
 63139  1  0  0  0
 64140  1  0  0  0
 65141  1  0  0  0
 68 79  1  0  0  0
 71 72  2  0  0  0
 71 76  1  0  0  0
 71142  1  0  0  0
 72 73  1  0  0  0
 72 77  1  0  0  0
 73 75  2  0  0  0
 73 78  1  0  0  0
 74 75  1  0  0  0
 74 76  2  0  0  0
 74 80  1  0  0  0
 75 81  1  0  0  0
 76 82  1  0  0  0
 77143  1  0  0  0
 77144  1  0  0  0
 77145  1  0  0  0
 78 79  1  0  0  0
 78146  1  0  0  0
 78147  1  0  0  0
 79148  1  0  0  0
 79149  1  0  0  0
 80150  1  0  0  0
M  ISO  4   1 100  68 101  79 101  80 100
M  END
> <chiral flag>
0

> <version>
0

> <s_m_source_file>
/data/baiqing/PycharmProjects/Reinvent-master-3.2/result/LINK_invent/BTK/process_docking_weight1_custom_sum_contain_oxygen_bond_distance_aromatic_linkinvent_7_9_3/rearranged_h_0018.sdf

> <i_m_source_file_index>
22

> <r_mmod_Potential_Energy-OPLS-2005>
1405.77624511719

> <r_mmod_Stretch_Energy-OPLS-2005>
659.337707519531

> <r_mmod_Bend_Energy-OPLS-2005>
448.852111816406

> <r_mmod_Torsional_Energy-OPLS-2005>
253.745193481445

> <r_mmod_Improper_Torsional_Energy-OPLS-2005>
9.31422138214111

> <r_mmod_Van_der_Waal_Energy-OPLS-2005>
129.086944580078

> <r_mmod_Electrostatic_Energy-OPLS-2005>
-405.034942626953

> <r_mmod_Solvation_Energy-OPLS-2005>
-205.887847900391

> <b_mmod_Minimization_Converged-OPLS-2005>
0

> <r_mmod_RMS_Derivative-OPLS-2005>
0.92641806602478

$$$$
23
                    3D
 Structure written by MMmdl.
167175  0  0  1  0            999 V2000
  -30.6587  -14.5958   20.5122 C   0  0  0  0  0  0
  -30.4273  -12.3616   19.4592 C   0  0  0  0  0  0
  -29.5067  -12.5043   18.2273 C   0  0  0  0  0  0
  -28.0260  -12.3579   18.6308 C   0  0  0  0  0  0
  -27.6544  -13.2213   19.8661 C   0  0  2  0  0  0
  -28.6979  -13.0737   20.9963 C   0  0  0  0  0  0
  -25.2561  -13.8186   20.5681 C   0  0  0  0  0  0
  -24.1825  -13.0453   20.9184 C   0  0  0  0  0  0
  -24.6399  -11.6922   20.8740 C   0  0  0  0  0  0
  -23.9072  -10.4300   21.0406 C   0  0  0  0  0  0
  -24.3622   -9.4209   21.9183 C   0  0  0  0  0  0
  -23.6291   -8.2248   22.0750 C   0  0  0  0  0  0
  -22.4273   -8.0286   21.3545 C   0  0  0  0  0  0
  -21.9917   -9.0259   20.4639 C   0  0  0  0  0  0
  -22.7250  -10.2135   20.3049 C   0  0  0  0  0  0
  -21.6847   -6.0737   22.5276 C   0  0  0  0  0  0
  -21.4019   -6.5642   23.8213 C   0  0  0  0  0  0
  -21.3662   -5.6793   24.9174 C   0  0  0  0  0  0
  -21.6045   -4.3056   24.7223 C   0  0  0  0  0  0
  -21.8816   -3.8149   23.4342 C   0  0  0  0  0  0
  -21.9193   -4.6966   22.3400 C   0  0  0  0  0  0
  -22.7840  -13.5241   21.1848 C   0  0  0  0  0  0
  -22.1656   -4.2150   21.0977 F   0  0  0  0  0  0
  -21.5634   -3.4540   25.7736 F   0  0  0  0  0  0
  -30.0191  -13.3879   20.4375 N   0  0  0  0  0  0
  -26.2998  -12.9381   20.3337 N   0  0  0  0  0  0
  -25.9333  -11.6531   20.5764 N   0  0  0  0  0  0
  -22.0486  -12.8223   22.0407 N   0  0  0  0  0  0
  -25.4283  -15.1901   20.4079 N   0  0  0  0  0  0
  -31.8170  -14.7118   20.1020 O   0  0  0  0  0  0
  -21.6641   -6.8880   21.4238 O   0  0  0  0  0  0
  -22.3522  -14.5545   20.6690 O   0  0  0  0  0  0
  -24.6246  -31.8626   23.2069 C   0  0  0  0  0  0
  -25.9109  -32.4787   23.8387 C   0  0  1  0  0  0
  -27.2204  -27.3584   20.1097 C   0  0  0  0  0  0
  -25.5951  -33.8590   24.2318 N   0  0  0  0  0  0
  -23.4161  -30.4889   21.5489 C   0  0  2  0  0  0
  -24.8622  -28.9525   20.1107 C   0  0  0  0  0  0
  -22.7464  -29.4647   22.4959 C   0  0  0  0  0  0
  -18.0286  -28.1379   22.8489 C   0  0  0  0  0  0
  -24.1488  -36.7293   23.2638 C   0  0  0  0  0  0
  -25.9551  -30.8051   21.3735 C   0  0  0  0  0  0
  -26.0308  -29.4373   20.7140 C   0  0  0  0  0  0
  -27.2183  -28.6503   20.7070 C   0  0  0  0  0  0
  -26.0372  -26.9243   19.4765 C   0  0  0  0  0  0
  -24.8646  -27.6986   19.4829 C   0  0  0  0  0  0
  -23.6281  -29.8277   20.1630 C   0  0  0  0  0  0
  -25.4112  -36.3088   24.0336 C   0  0  1  0  0  0
  -20.5886  -28.3684   23.1287 C   0  0  2  0  0  0
  -20.6778  -26.9411   22.5408 C   0  0  0  0  0  0
  -19.5752  -26.6381   21.5214 C   0  0  0  0  0  0
  -18.1931  -26.7928   22.1622 C   0  0  0  0  0  0
  -19.1537  -28.8848   23.2883 C   0  0  0  0  0  0
  -18.9458  -30.1454   23.8899 C   0  0  0  0  0  0
  -17.6455  -30.6583   24.0561 C   0  0  0  0  0  0
  -25.9047  -34.9456   23.5123 C   0  0  0  0  0  0
  -16.5347  -29.9077   23.6334 C   0  0  0  0  0  0
  -16.7272  -28.6492   23.0356 C   0  0  0  0  0  0
  -26.4508  -31.6577   25.0736 C   0  0  0  0  0  0
  -25.3766  -31.3685   26.1474 C   0  0  0  0  0  0
  -27.0347  -30.3010   24.6158 C   0  0  0  0  0  0
  -27.6075  -32.4304   25.7508 C   0  0  0  0  0  0
  -27.5579  -37.1804   24.8469 C   0  0  0  0  0  0
  -21.4183  -29.3045   22.3691 N   0  0  0  0  0  0
  -26.4292  -37.3779   23.9409 N   0  0  0  0  0  0
  -24.6838  -31.0672   22.1006 N   0  0  0  0  0  0
  -23.4195  -28.8183   23.3029 O   0  0  0  0  0  0
  -28.3046  -26.4823   20.1432 O   0  0  0  0  0  0
  -26.5592  -34.8916   22.4671 O   0  0  0  0  0  0
  -23.5422  -32.1413   23.7422 O   0  0  0  0  0  0
  -29.6760  -23.3644   21.5156 C   0  0  0  0  0  0
  -28.7165  -23.9104   20.6267 C   0  0  0  0  0  0
  -28.2612  -23.0522   19.5820 C   0  0  0  0  0  0
  -29.7269  -21.1852   20.3434 C   0  0  0  0  0  0
  -28.7880  -21.7266   19.4237 C   0  0  0  0  0  0
  -30.1622  -22.0377   21.3875 C   0  0  0  0  0  0
  -27.1535  -23.5339   18.6593 C   0  0  0  0  0  0
  -28.1310  -20.5680   16.0286 C   0  0  0  0  0  0
  -29.6564  -17.0072   18.6408 C   0  0  0  0  0  0
  -30.3829  -19.7807   20.1272 C   0  0  0  0  0  0
  -28.0595  -25.2925   20.9668 C   0  0  0  0  0  0
  -29.9229  -15.9188   20.9604 C   0  0  0  0  0  0
  -28.9565  -21.2370   17.1295 C   0  0  0  0  0  0
  -30.1997  -17.2161   20.0752 C   0  0  2  0  0  0
  -29.6915  -18.5368   20.6327 N   0  3  0  0  0  0
  -28.3664  -20.9276   18.3893 O   0  0  0  0  0  0
  -31.0721  -21.5843   22.2827 F   0  0  0  0  0  0
  -31.4734  -12.4566   19.1637 H   0  0  0  0  0  0
  -30.3335  -11.3668   19.8977 H   0  0  0  0  0  0
  -29.7639  -11.7580   17.4755 H   0  0  0  0  0  0
  -29.6653  -13.4767   17.7585 H   0  0  0  0  0  0
  -27.8462  -11.3046   18.8474 H   0  0  0  0  0  0
  -27.3786  -12.6083   17.7893 H   0  0  0  0  0  0
  -27.6748  -14.2577   19.5304 H   0  0  0  0  0  0
  -28.6940  -12.0553   21.3871 H   0  0  0  0  0  0
  -28.4549  -13.7157   21.8440 H   0  0  0  0  0  0
  -25.2767   -9.5678   22.4760 H   0  0  0  0  0  0
  -23.9993   -7.4638   22.7477 H   0  0  0  0  0  0
  -21.0849   -8.8783   19.8944 H   0  0  0  0  0  0
  -22.3718  -10.9673   19.6150 H   0  0  0  0  0  0
  -21.2010   -7.6151   23.9717 H   0  0  0  0  0  0
  -21.1490   -6.0523   25.9078 H   0  0  0  0  0  0
  -22.0592   -2.7611   23.2839 H   0  0  0  0  0  0
  -22.4103  -11.9868   22.4764 H   0  0  0  0  0  0
  -21.1109  -13.1246   22.2643 H   0  0  0  0  0  0
  -24.6596  -15.8442   20.5039 H   0  0  0  0  0  0
  -26.2797  -15.6247   20.0785 H   0  0  0  0  0  0
  -26.7182  -32.5469   23.1145 H   0  0  0  0  0  0
  -25.0170  -33.9741   25.0513 H   0  0  0  0  0  0
  -22.7092  -31.3095   21.4097 H   0  0  0  0  0  0
  -23.3758  -35.9619   23.3298 H   0  0  0  0  0  0
  -24.3590  -36.8910   22.2056 H   0  0  0  0  0  0
  -23.7232  -37.6493   23.6654 H   0  0  0  0  0  0
  -26.0837  -31.5715   20.6080 H   0  0  0  0  0  0
  -26.8372  -30.8507   22.0011 H   0  0  0  0  0  0
  -28.1155  -29.0144   21.1886 H   0  0  0  0  0  0
  -26.0045  -25.9654   18.9887 H   0  0  0  0  0  0
  -23.9705  -27.3209   19.0056 H   0  0  0  0  0  0
  -23.7435  -30.6059   19.4080 H   0  0  0  0  0  0
  -22.7495  -29.2555   19.8610 H   0  0  0  0  0  0
  -25.1290  -36.1950   25.0831 H   0  0  0  0  0  0
  -20.9976  -28.3251   24.1407 H   0  0  0  0  0  0
  -20.5686  -26.2293   23.3605 H   0  0  0  0  0  0
  -21.6643  -26.7449   22.1187 H   0  0  0  0  0  0
  -19.6909  -25.6290   21.1247 H   0  0  0  0  0  0
  -19.6691  -27.3189   20.6743 H   0  0  0  0  0  0
  -17.4205  -26.6690   21.4018 H   0  0  0  0  0  0
  -18.0320  -26.0059   22.9004 H   0  0  0  0  0  0
  -19.7931  -30.7274   24.2261 H   0  0  0  0  0  0
  -17.5005  -31.6265   24.5160 H   0  0  0  0  0  0
  -15.5346  -30.2974   23.7656 H   0  0  0  0  0  0
  -15.8673  -28.0807   22.7078 H   0  0  0  0  0  0
  -24.5950  -30.7018   25.7808 H   0  0  0  0  0  0
  -24.8948  -32.2833   26.4932 H   0  0  0  0  0  0
  -25.8120  -30.8850   27.0227 H   0  0  0  0  0  0
  -26.2904  -29.6758   24.1207 H   0  0  0  0  0  0
  -27.4090  -29.7259   25.4638 H   0  0  0  0  0  0
  -27.8757  -30.4309   23.9344 H   0  0  0  0  0  0
  -27.2693  -33.3611   26.2078 H   0  0  0  0  0  0
  -28.3893  -32.6846   25.0337 H   0  0  0  0  0  0
  -28.0729  -31.8428   26.5432 H   0  0  0  0  0  0
  -28.2592  -38.0106   24.7519 H   0  0  0  0  0  0
  -28.1080  -36.2637   24.6291 H   0  0  0  0  0  0
  -27.2297  -37.1442   25.8872 H   0  0  0  0  0  0
  -20.9359  -29.8768   21.6904 H   0  0  0  0  0  0
  -26.0178  -38.2858   24.1405 H   0  0  0  0  0  0
  -30.0260  -23.9587   22.3472 H   0  0  0  0  0  0
  -26.2633  -23.7691   19.2409 H   0  0  0  0  0  0
  -26.8486  -22.7873   17.9282 H   0  0  0  0  0  0
  -27.4732  -24.4223   18.1151 H   0  0  0  0  0  0
  -28.5582  -20.7712   15.0460 H   0  0  0  0  0  0
  -27.1059  -20.9394   16.0285 H   0  0  0  0  0  0
  -28.0964  -19.4865   16.1609 H   0  0  0  0  0  0
  -30.0624  -16.1044   18.1838 H   0  0  0  0  0  0
  -29.9148  -17.8278   17.9723 H   0  0  0  0  0  0
  -28.5698  -16.9117   18.6361 H   0  0  0  0  0  0
  -31.3845  -19.8000   20.5577 H   0  0  0  0  0  0
  -30.5531  -19.6788   19.0575 H   0  0  0  0  0  0
  -28.3798  -25.5686   21.9720 H   0  0  0  0  0  0
  -26.9923  -25.0998   21.0802 H   0  0  0  0  0  0
  -28.8484  -15.7560   21.0062 H   0  0  0  0  0  0
  -30.2411  -16.1109   21.9851 H   0  0  0  0  0  0
  -29.0003  -22.3129   16.9528 H   0  0  0  0  0  0
  -29.9832  -20.8705   17.1000 H   0  0  0  0  0  0
  -31.2850  -17.3173   20.0095 H   0  0  0  0  0  0
  -28.7071  -18.6187   20.4371 H   0  0  0  0  0  0
  -29.7987  -18.5361   21.6344 H   0  0  0  0  0  0
  1 25  1  0  0  0
  1 30  2  0  0  0
  1 82  1  0  0  0
  2  3  1  0  0  0
  2 25  1  0  0  0
  2 88  1  0  0  0
  2 89  1  0  0  0
  3  4  1  0  0  0
  3 90  1  0  0  0
  3 91  1  0  0  0
  4  5  1  0  0  0
  4 92  1  0  0  0
  4 93  1  0  0  0
  5  6  1  0  0  0
  5 26  1  0  0  0
  5 94  1  0  0  0
  6 25  1  0  0  0
  6 95  1  0  0  0
  6 96  1  0  0  0
  7  8  2  0  0  0
  7 26  1  0  0  0
  7 29  1  0  0  0
  8  9  1  0  0  0
  8 22  1  0  0  0
  9 10  1  0  0  0
  9 27  2  0  0  0
 10 11  2  0  0  0
 10 15  1  0  0  0
 11 12  1  0  0  0
 11 97  1  0  0  0
 12 13  2  0  0  0
 12 98  1  0  0  0
 13 14  1  0  0  0
 13 31  1  0  0  0
 14 15  2  0  0  0
 14 99  1  0  0  0
 15100  1  0  0  0
 16 17  2  0  0  0
 16 21  1  0  0  0
 16 31  1  0  0  0
 17 18  1  0  0  0
 17101  1  0  0  0
 18 19  2  0  0  0
 18102  1  0  0  0
 19 20  1  0  0  0
 19 24  1  0  0  0
 20 21  2  0  0  0
 20103  1  0  0  0
 21 23  1  0  0  0
 22 28  1  0  0  0
 22 32  2  0  0  0
 26 27  1  0  0  0
 28104  1  0  0  0
 28105  1  0  0  0
 29106  1  0  0  0
 29107  1  0  0  0
 33 34  1  0  0  0
 33 66  1  0  0  0
 33 70  2  0  0  0
 34 36  1  0  0  0
 34 59  1  0  0  0
 34108  1  0  0  0
 35 44  2  0  0  0
 35 45  1  0  0  0
 35 68  1  0  0  0
 36 56  1  0  0  0
 36109  1  0  0  0
 37 39  1  0  0  0
 37 47  1  0  0  0
 37 66  1  0  0  0
 37110  1  0  0  0
 38 43  2  0  0  0
 38 46  1  0  0  0
 38 47  1  0  0  0
 39 64  1  0  0  0
 39 67  2  0  0  0
 40 52  1  0  0  0
 40 53  2  0  0  0
 40 58  1  0  0  0
 41111  1  0  0  0
 41112  1  0  0  0
 41113  1  0  0  0
 41 48  1  0  0  0
 42 43  1  0  0  0
 42 66  1  0  0  0
 42114  1  0  0  0
 42115  1  0  0  0
 43 44  1  0  0  0
 44116  1  0  0  0
 45 46  2  0  0  0
 45117  1  0  0  0
 46118  1  0  0  0
 47119  1  0  0  0
 47120  1  0  0  0
 48 56  1  0  0  0
 48 65  1  0  0  0
 48121  1  0  0  0
 49 50  1  0  0  0
 49 53  1  0  0  0
 49 64  1  0  0  0
 49122  1  0  0  0
 50 51  1  0  0  0
 50123  1  0  0  0
 50124  1  0  0  0
 51 52  1  0  0  0
 51125  1  0  0  0
 51126  1  0  0  0
 52127  1  0  0  0
 52128  1  0  0  0
 53 54  1  0  0  0
 54 55  2  0  0  0
 54129  1  0  0  0
 55 57  1  0  0  0
 55130  1  0  0  0
 56 69  2  0  0  0
 57 58  2  0  0  0
 57131  1  0  0  0
 58132  1  0  0  0
 59 60  1  0  0  0
 59 61  1  0  0  0
 59 62  1  0  0  0
 60133  1  0  0  0
 60134  1  0  0  0
 60135  1  0  0  0
 61136  1  0  0  0
 61137  1  0  0  0
 61138  1  0  0  0
 62139  1  0  0  0
 62140  1  0  0  0
 62141  1  0  0  0
 63 65  1  0  0  0
 63142  1  0  0  0
 63143  1  0  0  0
 63144  1  0  0  0
 64145  1  0  0  0
 65146  1  0  0  0
 68 81  1  0  0  0
 71 72  2  0  0  0
 71 76  1  0  0  0
 71147  1  0  0  0
 72 73  1  0  0  0
 72 81  1  0  0  0
 73 75  2  0  0  0
 73 77  1  0  0  0
 74 75  1  0  0  0
 74 76  2  0  0  0
 74 80  1  0  0  0
 75 86  1  0  0  0
 76 87  1  0  0  0
 77148  1  0  0  0
 77149  1  0  0  0
 77150  1  0  0  0
 78 83  1  0  0  0
 78151  1  0  0  0
 78152  1  0  0  0
 78153  1  0  0  0
 79154  1  0  0  0
 79155  1  0  0  0
 79156  1  0  0  0
 79 84  1  0  0  0
 80 85  1  0  0  0
 80157  1  0  0  0
 80158  1  0  0  0
 81159  1  0  0  0
 81160  1  0  0  0
 82 84  1  0  0  0
 82161  1  0  0  0
 82162  1  0  0  0
 83 86  1  0  0  0
 83163  1  0  0  0
 83164  1  0  0  0
 84 85  1  0  0  0
 84165  1  0  0  0
 85166  1  0  0  0
 85167  1  0  0  0
M  CHG  1  85   1
M  ISO  4   1 100  68 101  81 101  82 100
M  END
> <chiral flag>
0

> <version>
0

> <s_m_source_file>
/data/baiqing/PycharmProjects/Reinvent-master-3.2/result/LINK_invent/BTK/process_docking_weight1_custom_sum_contain_oxygen_bond_distance_aromatic_linkinvent_7_9_3/rearranged_h_0018.sdf

> <i_m_source_file_index>
23

> <r_mmod_Potential_Energy-OPLS-2005>
-129.180419921875

> <r_mmod_Stretch_Energy-OPLS-2005>
69.7848281860352

> <r_mmod_Bend_Energy-OPLS-2005>
122.91333770752

> <r_mmod_Torsional_Energy-OPLS-2005>
233.400268554688

> <r_mmod_Improper_Torsional_Energy-OPLS-2005>
5.0099081993103

> <r_mmod_Van_der_Waal_Energy-OPLS-2005>
138.485549926758

> <r_mmod_Electrostatic_Energy-OPLS-2005>
-304.055786132812

> <r_mmod_Solvation_Energy-OPLS-2005>
-432.206787109375

> <b_mmod_Minimization_Converged-OPLS-2005>
0

> <r_mmod_RMS_Derivative-OPLS-2005>
1.09253251552582

$$$$
24
                    3D
 Structure written by MMmdl.
174182  0  0  1  0            999 V2000
  -30.6274  -14.7203   20.4546 C   0  0  0  0  0  0
  -30.4284  -12.4368   19.4672 C   0  0  0  0  0  0
  -29.5052  -12.4990   18.2308 C   0  0  0  0  0  0
  -28.0319  -12.3229   18.6479 C   0  0  0  0  0  0
  -27.6402  -13.2272   19.8477 C   0  0  2  0  0  0
  -28.6875  -13.1643   20.9818 C   0  0  0  0  0  0
  -25.2490  -13.8182   20.5666 C   0  0  0  0  0  0
  -24.1796  -13.0435   20.9218 C   0  0  0  0  0  0
  -24.6385  -11.6912   20.8762 C   0  0  0  0  0  0
  -23.9060  -10.4286   21.0418 C   0  0  0  0  0  0
  -24.3606   -9.4200   21.9192 C   0  0  0  0  0  0
  -23.6290   -8.2238   22.0754 C   0  0  0  0  0  0
  -22.4276   -8.0278   21.3546 C   0  0  0  0  0  0
  -21.9913   -9.0248   20.4644 C   0  0  0  0  0  0
  -22.7235  -10.2129   20.3061 C   0  0  0  0  0  0
  -21.6849   -6.0730   22.5280 C   0  0  0  0  0  0
  -21.4011   -6.5627   23.8215 C   0  0  0  0  0  0
  -21.3667   -5.6784   24.9182 C   0  0  0  0  0  0
  -21.6046   -4.3048   24.7232 C   0  0  0  0  0  0
  -21.8819   -3.8139   23.4354 C   0  0  0  0  0  0
  -21.9192   -4.6955   22.3403 C   0  0  0  0  0  0
  -22.7818  -13.5219   21.1885 C   0  0  0  0  0  0
  -22.1660   -4.2131   21.0987 F   0  0  0  0  0  0
  -21.5634   -3.4540   25.7751 F   0  0  0  0  0  0
  -29.9896  -13.5027   20.3941 N   0  0  0  0  0  0
  -26.2923  -12.9384   20.3274 N   0  0  0  0  0  0
  -25.9311  -11.6532   20.5765 N   0  0  0  0  0  0
  -22.0467  -12.8194   22.0430 N   0  0  0  0  0  0
  -25.4133  -15.1895   20.3989 N   0  0  0  0  0  0
  -31.8221  -14.7947   20.1556 O   0  0  0  0  0  0
  -21.6649   -6.8872   21.4238 O   0  0  0  0  0  0
  -22.3508  -14.5533   20.6748 O   0  0  0  0  0  0
  -24.6271  -31.8523   23.1971 C   0  0  0  0  0  0
  -25.9100  -32.4740   23.8299 C   0  0  1  0  0  0
  -27.2296  -27.2756   20.1123 C   0  0  0  0  0  0
  -25.5911  -33.8543   24.2216 N   0  0  0  0  0  0
  -23.4237  -30.4721   21.5387 C   0  0  2  0  0  0
  -24.8729  -28.9157   20.1054 C   0  0  0  0  0  0
  -22.7486  -29.4553   22.4900 C   0  0  0  0  0  0
  -18.0283  -28.1382   22.8464 C   0  0  0  0  0  0
  -24.1494  -36.7304   23.2636 C   0  0  0  0  0  0
  -25.9657  -30.7679   21.3747 C   0  0  0  0  0  0
  -26.0392  -29.3905   20.7166 C   0  0  0  0  0  0
  -27.2143  -28.5782   20.7142 C   0  0  0  0  0  0
  -26.0408  -26.8593   19.4750 C   0  0  0  0  0  0
  -24.8755  -27.6569   19.4795 C   0  0  0  0  0  0
  -23.6414  -29.8030   20.1543 C   0  0  0  0  0  0
  -25.4115  -36.3056   24.0304 C   0  0  1  0  0  0
  -20.5881  -28.3677   23.1280 C   0  0  2  0  0  0
  -20.6765  -26.9406   22.5411 C   0  0  0  0  0  0
  -19.5744  -26.6380   21.5210 C   0  0  0  0  0  0
  -18.1917  -26.7921   22.1606 C   0  0  0  0  0  0
  -19.1536  -28.8849   23.2867 C   0  0  0  0  0  0
  -18.9469  -30.1455   23.8884 C   0  0  0  0  0  0
  -17.6466  -30.6588   24.0555 C   0  0  0  0  0  0
  -25.9059  -34.9428   23.5063 C   0  0  0  0  0  0
  -16.5353  -29.9086   23.6330 C   0  0  0  0  0  0
  -16.7274  -28.6511   23.0333 C   0  0  0  0  0  0
  -26.4489  -31.6580   25.0695 C   0  0  0  0  0  0
  -25.3731  -31.3730   26.1431 C   0  0  0  0  0  0
  -27.0343  -30.2995   24.6191 C   0  0  0  0  0  0
  -27.6024  -32.4344   25.7483 C   0  0  0  0  0  0
  -27.5577  -37.1795   24.8456 C   0  0  0  0  0  0
  -21.4194  -29.3016   22.3662 N   0  0  0  0  0  0
  -26.4288  -37.3762   23.9406 N   0  0  0  0  0  0
  -24.6912  -31.0499   22.0941 N   0  0  0  0  0  0
  -23.4199  -28.8098   23.2987 O   0  0  0  0  0  0
  -28.3627  -26.4410   20.1983 O   0  0  0  0  0  0
  -26.5672  -34.8918   22.4662 O   0  0  0  0  0  0
  -23.5438  -32.1326   23.7309 O   0  0  0  0  0  0
  -30.9255  -20.0730   20.9540 C   0  0  0  0  0  0
  -31.4866  -17.6927   21.0501 C   0  0  0  0  0  0
  -31.8788  -19.0462   21.1808 C   0  0  0  0  0  0
  -29.5944  -19.8013   20.5708 C   0  0  0  0  0  0
  -29.2413  -18.3892   20.4161 C   0  0  0  0  0  0
  -30.1851  -17.3048   20.6652 C   0  0  0  0  0  0
  -27.7966  -17.7572   18.4471 C   0  0  0  0  0  0
  -26.6784  -23.4223   20.3757 C   0  0  0  0  0  0
  -33.5201  -18.8952   23.0779 C   0  0  0  0  0  0
  -33.6669  -20.8629   21.5444 C   0  0  0  0  0  0
  -34.3348  -18.6178   20.7188 C   0  0  0  0  0  0
  -27.8393  -18.0046   19.9613 C   0  0  0  0  0  0
  -28.5848  -21.0443   20.4930 C   0  0  0  0  0  0
  -28.4976  -25.0733   19.5991 C   0  0  0  0  0  0
  -28.1976  -23.6982   20.4057 C   0  0  2  0  0  0
  -33.3245  -19.3585   21.6211 C   0  0  0  0  0  0
  -29.8439  -15.8562   20.6060 N   0  0  0  0  0  0
  -29.0198  -22.4397   20.0103 N   0  3  0  0  0  0
  -31.4702  -12.5500   19.1644 H   0  0  0  0  0  0
  -30.3619  -11.4613   19.9510 H   0  0  0  0  0  0
  -29.7832  -11.7301   17.5090 H   0  0  0  0  0  0
  -29.6295  -13.4562   17.7222 H   0  0  0  0  0  0
  -27.8891  -11.2747   18.9145 H   0  0  0  0  0  0
  -27.3725  -12.5115   17.8003 H   0  0  0  0  0  0
  -27.6331  -14.2470   19.4614 H   0  0  0  0  0  0
  -28.7172  -12.1710   21.4317 H   0  0  0  0  0  0
  -28.4292  -13.8550   21.7862 H   0  0  0  0  0  0
  -25.2747   -9.5690   22.4771 H   0  0  0  0  0  0
  -24.0000   -7.4634   22.7467 H   0  0  0  0  0  0
  -21.0849   -8.8764   19.8939 H   0  0  0  0  0  0
  -22.3691  -10.9675   19.6172 H   0  0  0  0  0  0
  -21.1998   -7.6137   23.9710 H   0  0  0  0  0  0
  -21.1492   -6.0522   25.9082 H   0  0  0  0  0  0
  -22.0591   -2.7596   23.2868 H   0  0  0  0  0  0
  -22.4094  -11.9845   22.4787 H   0  0  0  0  0  0
  -21.1092  -13.1214   22.2661 H   0  0  0  0  0  0
  -24.6274  -15.8259   20.4723 H   0  0  0  0  0  0
  -26.2280  -15.6134   19.9780 H   0  0  0  0  0  0
  -26.7147  -32.5381   23.1024 H   0  0  0  0  0  0
  -24.9995  -33.9692   25.0307 H   0  0  0  0  0  0
  -22.7193  -31.2936   21.3924 H   0  0  0  0  0  0
  -23.3745  -35.9646   23.3286 H   0  0  0  0  0  0
  -24.3576  -36.8975   22.2056 H   0  0  0  0  0  0
  -23.7273  -37.6499   23.6703 H   0  0  0  0  0  0
  -26.1020  -31.5321   20.6082 H   0  0  0  0  0  0
  -26.8429  -30.8166   22.0072 H   0  0  0  0  0  0
  -28.1077  -28.9326   21.2108 H   0  0  0  0  0  0
  -25.9781  -25.8970   18.9919 H   0  0  0  0  0  0
  -23.9785  -27.2853   19.0024 H   0  0  0  0  0  0
  -23.7689  -30.5813   19.4017 H   0  0  0  0  0  0
  -22.7590  -29.2397   19.8473 H   0  0  0  0  0  0
  -25.1297  -36.1882   25.0795 H   0  0  0  0  0  0
  -20.9946  -28.3271   24.1416 H   0  0  0  0  0  0
  -20.5664  -26.2307   23.3615 H   0  0  0  0  0  0
  -21.6633  -26.7431   22.1205 H   0  0  0  0  0  0
  -19.6927  -25.6292   21.1239 H   0  0  0  0  0  0
  -19.6694  -27.3175   20.6728 H   0  0  0  0  0  0
  -17.4186  -26.6665   21.4013 H   0  0  0  0  0  0
  -18.0318  -26.0069   22.9024 H   0  0  0  0  0  0
  -19.7953  -30.7254   24.2255 H   0  0  0  0  0  0
  -17.5034  -31.6266   24.5164 H   0  0  0  0  0  0
  -15.5359  -30.2978   23.7685 H   0  0  0  0  0  0
  -15.8671  -28.0848   22.7024 H   0  0  0  0  0  0
  -24.5892  -30.7094   25.7770 H   0  0  0  0  0  0
  -24.8937  -32.2902   26.4851 H   0  0  0  0  0  0
  -25.8044  -30.8908   27.0212 H   0  0  0  0  0  0
  -26.2914  -29.6738   24.1229 H   0  0  0  0  0  0
  -27.4035  -29.7272   25.4715 H   0  0  0  0  0  0
  -27.8791  -30.4268   23.9417 H   0  0  0  0  0  0
  -27.2587  -33.3645   26.2018 H   0  0  0  0  0  0
  -28.3838  -32.6909   25.0323 H   0  0  0  0  0  0
  -28.0672  -31.8503   26.5441 H   0  0  0  0  0  0
  -28.2549  -38.0136   24.7517 H   0  0  0  0  0  0
  -28.1117  -36.2660   24.6235 H   0  0  0  0  0  0
  -27.2312  -37.1372   25.8866 H   0  0  0  0  0  0
  -20.9378  -29.8814   21.6934 H   0  0  0  0  0  0
  -26.0164  -38.2832   24.1426 H   0  0  0  0  0  0
  -31.1990  -21.1049   21.1077 H   0  0  0  0  0  0
  -32.2130  -16.9312   21.2844 H   0  0  0  0  0  0
  -26.8000  -17.4541   18.1261 H   0  0  0  0  0  0
  -28.4908  -16.9678   18.1535 H   0  0  0  0  0  0
  -28.0684  -18.6580   17.8945 H   0  0  0  0  0  0
  -26.1246  -24.2861   20.7461 H   0  0  0  0  0  0
  -26.3935  -22.5793   21.0046 H   0  0  0  0  0  0
  -26.3288  -23.2154   19.3633 H   0  0  0  0  0  0
  -32.8420  -19.4160   23.7544 H   0  0  0  0  0  0
  -34.5359  -19.0875   23.4246 H   0  0  0  0  0  0
  -33.3409  -17.8257   23.1939 H   0  0  0  0  0  0
  -33.0518  -21.4594   22.2186 H   0  0  0  0  0  0
  -33.5413  -21.2518   20.5324 H   0  0  0  0  0  0
  -34.7026  -21.0483   21.8316 H   0  0  0  0  0  0
  -34.2615  -17.5343   20.8058 H   0  0  0  0  0  0
  -35.3622  -18.8772   20.9782 H   0  0  0  0  0  0
  -34.1886  -18.8737   19.6691 H   0  0  0  0  0  0
  -27.1093  -18.7615   20.2391 H   0  0  0  0  0  0
  -27.5171  -17.1120   20.4967 H   0  0  0  0  0  0
  -28.1952  -21.1598   21.5049 H   0  0  0  0  0  0
  -27.7334  -20.7748   19.8721 H   0  0  0  0  0  0
  -27.9985  -25.0457   18.6310 H   0  0  0  0  0  0
  -29.5551  -25.0297   19.3410 H   0  0  0  0  0  0
  -28.4710  -23.8902   21.4431 H   0  0  0  0  0  0
  -28.8598  -15.6482   20.6663 H   0  0  0  0  0  0
  -29.0780  -22.3852   19.0050 H   0  0  0  0  0  0
  -29.9608  -22.5886   20.3362 H   0  0  0  0  0  0
  1 25  1  0  0  0
  1 30  2  0  0  0
  1 87  1  0  0  0
  2  3  1  0  0  0
  2 25  1  0  0  0
  2 89  1  0  0  0
  2 90  1  0  0  0
  3  4  1  0  0  0
  3 91  1  0  0  0
  3 92  1  0  0  0
  4  5  1  0  0  0
  4 93  1  0  0  0
  4 94  1  0  0  0
  5  6  1  0  0  0
  5 26  1  0  0  0
  5 95  1  0  0  0
  6 25  1  0  0  0
  6 96  1  0  0  0
  6 97  1  0  0  0
  7  8  2  0  0  0
  7 26  1  0  0  0
  7 29  1  0  0  0
  8  9  1  0  0  0
  8 22  1  0  0  0
  9 10  1  0  0  0
  9 27  2  0  0  0
 10 11  2  0  0  0
 10 15  1  0  0  0
 11 12  1  0  0  0
 11 98  1  0  0  0
 12 13  2  0  0  0
 12 99  1  0  0  0
 13 14  1  0  0  0
 13 31  1  0  0  0
 14 15  2  0  0  0
 14100  1  0  0  0
 15101  1  0  0  0
 16 17  2  0  0  0
 16 21  1  0  0  0
 16 31  1  0  0  0
 17 18  1  0  0  0
 17102  1  0  0  0
 18 19  2  0  0  0
 18103  1  0  0  0
 19 20  1  0  0  0
 19 24  1  0  0  0
 20 21  2  0  0  0
 20104  1  0  0  0
 21 23  1  0  0  0
 22 28  1  0  0  0
 22 32  2  0  0  0
 26 27  1  0  0  0
 28105  1  0  0  0
 28106  1  0  0  0
 29107  1  0  0  0
 29108  1  0  0  0
 33 34  1  0  0  0
 33 66  1  0  0  0
 33 70  2  0  0  0
 34 36  1  0  0  0
 34 59  1  0  0  0
 34109  1  0  0  0
 35 44  2  0  0  0
 35 45  1  0  0  0
 35 68  1  0  0  0
 36 56  1  0  0  0
 36110  1  0  0  0
 37 39  1  0  0  0
 37 47  1  0  0  0
 37 66  1  0  0  0
 37111  1  0  0  0
 38 43  2  0  0  0
 38 46  1  0  0  0
 38 47  1  0  0  0
 39 64  1  0  0  0
 39 67  2  0  0  0
 40 52  1  0  0  0
 40 53  2  0  0  0
 40 58  1  0  0  0
 41112  1  0  0  0
 41113  1  0  0  0
 41114  1  0  0  0
 41 48  1  0  0  0
 42 43  1  0  0  0
 42 66  1  0  0  0
 42115  1  0  0  0
 42116  1  0  0  0
 43 44  1  0  0  0
 44117  1  0  0  0
 45 46  2  0  0  0
 45118  1  0  0  0
 46119  1  0  0  0
 47120  1  0  0  0
 47121  1  0  0  0
 48 56  1  0  0  0
 48 65  1  0  0  0
 48122  1  0  0  0
 49 50  1  0  0  0
 49 53  1  0  0  0
 49 64  1  0  0  0
 49123  1  0  0  0
 50 51  1  0  0  0
 50124  1  0  0  0
 50125  1  0  0  0
 51 52  1  0  0  0
 51126  1  0  0  0
 51127  1  0  0  0
 52128  1  0  0  0
 52129  1  0  0  0
 53 54  1  0  0  0
 54 55  2  0  0  0
 54130  1  0  0  0
 55 57  1  0  0  0
 55131  1  0  0  0
 56 69  2  0  0  0
 57 58  2  0  0  0
 57132  1  0  0  0
 58133  1  0  0  0
 59 60  1  0  0  0
 59 61  1  0  0  0
 59 62  1  0  0  0
 60134  1  0  0  0
 60135  1  0  0  0
 60136  1  0  0  0
 61137  1  0  0  0
 61138  1  0  0  0
 61139  1  0  0  0
 62140  1  0  0  0
 62141  1  0  0  0
 62142  1  0  0  0
 63 65  1  0  0  0
 63143  1  0  0  0
 63144  1  0  0  0
 63145  1  0  0  0
 64146  1  0  0  0
 65147  1  0  0  0
 68 84  1  0  0  0
 71 73  2  0  0  0
 71 74  1  0  0  0
 71148  1  0  0  0
 72 73  1  0  0  0
 72 76  2  0  0  0
 72149  1  0  0  0
 73 86  1  0  0  0
 74 75  2  0  0  0
 74 83  1  0  0  0
 75 76  1  0  0  0
 75 82  1  0  0  0
 76 87  1  0  0  0
 77 82  1  0  0  0
 77150  1  0  0  0
 77151  1  0  0  0
 77152  1  0  0  0
 78153  1  0  0  0
 78154  1  0  0  0
 78155  1  0  0  0
 78 85  1  0  0  0
 79156  1  0  0  0
 79157  1  0  0  0
 79158  1  0  0  0
 79 86  1  0  0  0
 80 86  1  0  0  0
 80159  1  0  0  0
 80160  1  0  0  0
 80161  1  0  0  0
 81 86  1  0  0  0
 81162  1  0  0  0
 81163  1  0  0  0
 81164  1  0  0  0
 82165  1  0  0  0
 82166  1  0  0  0
 83 88  1  0  0  0
 83167  1  0  0  0
 83168  1  0  0  0
 84 85  1  0  0  0
 84169  1  0  0  0
 84170  1  0  0  0
 85 88  1  0  0  0
 85171  1  0  0  0
 87172  1  0  0  0
 88173  1  0  0  0
 88174  1  0  0  0
M  CHG  1  88   1
M  ISO  4   1 100  68 101  84 101  87 100
M  END
> <chiral flag>
0

> <version>
0

> <s_m_source_file>
/data/baiqing/PycharmProjects/Reinvent-master-3.2/result/LINK_invent/BTK/process_docking_weight1_custom_sum_contain_oxygen_bond_distance_aromatic_linkinvent_7_9_3/rearranged_h_0018.sdf

> <i_m_source_file_index>
24

> <r_mmod_Potential_Energy-OPLS-2005>
-1.52770268917084

> <r_mmod_Stretch_Energy-OPLS-2005>
126.686088562012

> <r_mmod_Bend_Energy-OPLS-2005>
184.656921386719

> <r_mmod_Torsional_Energy-OPLS-2005>
217.980499267578

> <r_mmod_Improper_Torsional_Energy-OPLS-2005>
6.83468818664551

> <r_mmod_Van_der_Waal_Energy-OPLS-2005>
140.928329467773

> <r_mmod_Electrostatic_Energy-OPLS-2005>
-311.510498046875

> <r_mmod_Solvation_Energy-OPLS-2005>
-441.6455078125

> <b_mmod_Minimization_Converged-OPLS-2005>
0

> <r_mmod_RMS_Derivative-OPLS-2005>
2.35452175140381

$$$$
25
                    3D
 Structure written by MMmdl.
156164  0  0  1  0            999 V2000
  -30.4913  -15.6493   20.4131 C   0  0  0  0  0  0
  -30.4363  -13.0776   19.6690 C   0  0  0  0  0  0
  -29.6035  -12.7105   18.4072 C   0  0  0  0  0  0
  -28.1683  -12.3552   18.8053 C   0  0  0  0  0  0
  -27.6232  -13.3528   19.8531 C   0  0  2  0  0  0
  -28.6180  -13.7465   20.9952 C   0  0  0  0  0  0
  -25.2400  -13.8394   20.5751 C   0  0  0  0  0  0
  -24.1773  -13.0469   20.9213 C   0  0  0  0  0  0
  -24.6546  -11.7020   20.8716 C   0  0  0  0  0  0
  -23.9219  -10.4337   21.0366 C   0  0  0  0  0  0
  -24.3727   -9.4239   21.9148 C   0  0  0  0  0  0
  -23.6351   -8.2293   22.0757 C   0  0  0  0  0  0
  -22.4335   -8.0318   21.3549 C   0  0  0  0  0  0
  -22.0000   -9.0317   20.4644 C   0  0  0  0  0  0
  -22.7383  -10.2172   20.3032 C   0  0  0  0  0  0
  -21.6892   -6.0738   22.5270 C   0  0  0  0  0  0
  -21.4055   -6.5644   23.8200 C   0  0  0  0  0  0
  -21.3654   -5.6797   24.9154 C   0  0  0  0  0  0
  -21.6050   -4.3052   24.7212 C   0  0  0  0  0  0
  -21.8818   -3.8143   23.4339 C   0  0  0  0  0  0
  -21.9200   -4.6963   22.3395 C   0  0  0  0  0  0
  -22.7770  -13.5192   21.1807 C   0  0  0  0  0  0
  -22.1658   -4.2154   21.0977 F   0  0  0  0  0  0
  -21.5621   -3.4526   25.7730 F   0  0  0  0  0  0
  -29.8615  -14.3131   20.4085 N   0  0  0  0  0  0
  -26.2949  -12.9815   20.3371 N   0  0  0  0  0  0
  -25.9548  -11.6833   20.5738 N   0  0  0  0  0  0
  -22.0432  -12.8186   22.0396 N   0  0  0  0  0  0
  -25.3949  -15.2113   20.4183 N   0  0  0  0  0  0
  -31.6346  -15.4612   19.9546 O   0  0  0  0  0  0
  -21.6683   -6.8916   21.4264 O   0  0  0  0  0  0
  -22.3429  -14.5436   20.6610 O   0  0  0  0  0  0
  -24.6823  -31.7957   23.1523 C   0  0  0  0  0  0
  -25.9419  -32.4419   23.8068 C   0  0  1  0  0  0
  -27.2483  -26.7205   20.2338 C   0  0  0  0  0  0
  -25.5994  -33.8246   24.1955 N   0  0  0  0  0  0
  -23.5123  -30.3990   21.4989 C   0  0  2  0  0  0
  -24.9786  -28.7428   20.1176 C   0  0  0  0  0  0
  -22.7772  -29.4293   22.4652 C   0  0  0  0  0  0
  -18.0323  -28.1410   22.8430 C   0  0  0  0  0  0
  -24.1507  -36.7160   23.2668 C   0  0  0  0  0  0
  -26.0920  -30.5379   21.4115 C   0  0  0  0  0  0
  -26.1618  -29.1062   20.7694 C   0  0  0  0  0  0
  -27.2781  -28.1218   20.7991 C   0  0  0  0  0  0
  -26.0359  -26.5640   19.5097 C   0  0  0  0  0  0
  -24.9542  -27.4959   19.4644 C   0  0  0  0  0  0
  -23.7697  -29.6892   20.1353 C   0  0  0  0  0  0
  -25.4150  -36.2854   24.0278 C   0  0  1  0  0  0
  -20.5962  -28.3750   23.1111 C   0  0  2  0  0  0
  -20.6770  -26.9408   22.5386 C   0  0  0  0  0  0
  -19.5760  -26.6354   21.5185 C   0  0  0  0  0  0
  -18.1947  -26.7939   22.1598 C   0  0  0  0  0  0
  -19.1602  -28.8920   23.2740 C   0  0  0  0  0  0
  -18.9512  -30.1499   23.8791 C   0  0  0  0  0  0
  -17.6491  -30.6579   24.0551 C   0  0  0  0  0  0
  -25.9115  -34.9239   23.4948 C   0  0  0  0  0  0
  -16.5386  -29.9070   23.6333 C   0  0  0  0  0  0
  -16.7315  -28.6500   23.0339 C   0  0  0  0  0  0
  -26.4616  -31.6471   25.0707 C   0  0  0  0  0  0
  -25.3716  -31.3772   26.1360 C   0  0  0  0  0  0
  -27.0540  -30.2803   24.6614 C   0  0  0  0  0  0
  -27.6049  -32.4345   25.7525 C   0  0  0  0  0  0
  -27.5531  -37.1753   24.8483 C   0  0  0  0  0  0
  -21.4402  -29.3031   22.3456 N   0  0  0  0  0  0
  -26.4278  -37.3603   23.9374 N   0  0  0  0  0  0
  -24.7864  -30.9434   22.0752 N   0  0  0  0  0  0
  -23.4225  -28.7854   23.2961 O   0  0  0  0  0  0
  -28.2076  -25.5094   20.3731 O   0  0  0  0  0  0
  -26.5757  -34.8817   22.4556 O   0  0  0  0  0  0
  -23.5864  -32.1007   23.6494 O   0  0  0  0  0  0
  -29.8415  -21.3345   19.8457 C   0  0  0  0  0  0
  -28.6905  -22.0947   20.4143 C   0  0  0  0  0  0
  -28.0386  -20.9293   21.1061 C   0  0  0  0  0  0
  -29.6091  -18.6959   20.6127 C   0  0  0  0  0  0
  -30.2596  -19.8639   19.9288 C   0  0  0  0  0  0
  -28.4578  -19.4462   21.1988 C   0  0  0  0  0  0
  -26.7386  -21.2768   21.8446 C   0  0  0  0  0  0
  -32.7670  -18.7922   23.5072 C   0  0  0  0  0  0
  -28.0133  -23.8053   20.0495 C   0  0  0  0  0  0
  -31.3878  -18.1605   23.1530 C   0  0  0  0  0  0
  -31.4226  -17.3569   21.8047 C   0  0  0  0  0  0
  -30.1673  -17.0947   20.9776 N   0  0  0  0  0  0
  -31.7183  -19.5112   19.0638 Cl  0  0  0  0  0  0
  -27.4393  -18.4271   22.1565 Cl  0  0  0  0  0  0
  -31.4701  -13.2213   19.3523 H   0  0  0  0  0  0
  -30.4978  -12.2313   20.3561 H   0  0  0  0  0  0
  -30.0840  -11.8878   17.8747 H   0  0  0  0  0  0
  -29.5961  -13.5594   17.7236 H   0  0  0  0  0  0
  -28.1875  -11.3523   19.2333 H   0  0  0  0  0  0
  -27.5271  -12.3195   17.9217 H   0  0  0  0  0  0
  -27.4775  -14.2673   19.2768 H   0  0  0  0  0  0
  -28.8297  -12.9235   21.6767 H   0  0  0  0  0  0
  -28.1638  -14.5291   21.6066 H   0  0  0  0  0  0
  -25.2893   -9.5681   22.4692 H   0  0  0  0  0  0
  -24.0055   -7.4715   22.7500 H   0  0  0  0  0  0
  -21.0909   -8.8853   19.8971 H   0  0  0  0  0  0
  -22.3862  -10.9684   19.6105 H   0  0  0  0  0  0
  -21.2079   -7.6154   23.9717 H   0  0  0  0  0  0
  -21.1470   -6.0513   25.9065 H   0  0  0  0  0  0
  -22.0601   -2.7617   23.2837 H   0  0  0  0  0  0
  -22.4080  -11.9933   22.4894 H   0  0  0  0  0  0
  -21.1006  -13.1160   22.2452 H   0  0  0  0  0  0
  -24.6316  -15.8657   20.5467 H   0  0  0  0  0  0
  -26.2626  -15.6675   20.1638 H   0  0  0  0  0  0
  -26.7530  -32.4896   23.0792 H   0  0  0  0  0  0
  -25.0030  -33.9289   25.0047 H   0  0  0  0  0  0
  -22.8380  -31.2340   21.3014 H   0  0  0  0  0  0
  -23.3706  -35.9557   23.3360 H   0  0  0  0  0  0
  -24.3581  -36.8787   22.2075 H   0  0  0  0  0  0
  -23.7348  -37.6390   23.6730 H   0  0  0  0  0  0
  -26.2876  -31.2607   20.6155 H   0  0  0  0  0  0
  -26.9474  -30.6140   22.0722 H   0  0  0  0  0  0
  -28.1639  -28.4006   21.3551 H   0  0  0  0  0  0
  -25.8802  -25.6200   19.0065 H   0  0  0  0  0  0
  -24.0573  -27.2050   18.9313 H   0  0  0  0  0  0
  -23.9422  -30.4453   19.3685 H   0  0  0  0  0  0
  -22.8788  -29.1458   19.8087 H   0  0  0  0  0  0
  -25.1367  -36.1625   25.0774 H   0  0  0  0  0  0
  -21.0054  -28.3392   24.1228 H   0  0  0  0  0  0
  -20.5551  -26.2415   23.3656 H   0  0  0  0  0  0
  -21.6631  -26.7287   22.1257 H   0  0  0  0  0  0
  -19.6909  -25.6242   21.1266 H   0  0  0  0  0  0
  -19.6708  -27.3113   20.6675 H   0  0  0  0  0  0
  -17.4204  -26.6644   21.4019 H   0  0  0  0  0  0
  -18.0361  -26.0103   22.9024 H   0  0  0  0  0  0
  -19.8000  -30.7329   24.2120 H   0  0  0  0  0  0
  -17.5055  -31.6250   24.5167 H   0  0  0  0  0  0
  -15.5385  -30.2933   23.7723 H   0  0  0  0  0  0
  -15.8718  -28.0798   22.7085 H   0  0  0  0  0  0
  -24.5925  -30.7076   25.7711 H   0  0  0  0  0  0
  -24.8893  -32.2978   26.4634 H   0  0  0  0  0  0
  -25.7961  -30.9069   27.0237 H   0  0  0  0  0  0
  -26.3273  -29.6410   24.1599 H   0  0  0  0  0  0
  -27.3938  -29.7260   25.5370 H   0  0  0  0  0  0
  -27.9256  -30.3904   24.0159 H   0  0  0  0  0  0
  -27.2570  -33.3701   26.1897 H   0  0  0  0  0  0
  -28.3968  -32.6802   25.0449 H   0  0  0  0  0  0
  -28.0589  -31.8612   26.5613 H   0  0  0  0  0  0
  -28.2598  -37.9986   24.7341 H   0  0  0  0  0  0
  -28.0954  -36.2486   24.6529 H   0  0  0  0  0  0
  -27.2222  -37.1666   25.8885 H   0  0  0  0  0  0
  -20.9718  -29.8801   21.6602 H   0  0  0  0  0  0
  -26.0089  -38.2674   24.1276 H   0  0  0  0  0  0
  -30.5045  -21.9361   19.2388 H   0  0  0  0  0  0
  -25.8803  -20.7510   21.4188 H   0  0  0  0  0  0
  -26.5003  -22.3385   21.8259 H   0  0  0  0  0  0
  -26.7956  -21.0073   22.9034 H   0  0  0  0  0  0
  -32.9113  -19.7651   23.0276 H   0  0  0  0  0  0
  -33.6125  -18.1654   23.2087 H   0  0  0  0  0  0
  -32.8776  -18.9689   24.5813 H   0  0  0  0  0  0
  -26.9383  -23.6814   20.1621 H   0  0  0  0  0  0
  -28.1291  -23.8200   18.9668 H   0  0  0  0  0  0
  -30.6378  -18.9476   23.1993 H   0  0  0  0  0  0
  -31.1347  -17.4700   23.9665 H   0  0  0  0  0  0
  -32.1464  -17.8377   21.1417 H   0  0  0  0  0  0
  -31.9316  -16.4413   22.1259 H   0  0  0  0  0  0
  1 25  1  0  0  0
  1 30  2  0  0  0
  1 82  1  0  0  0
  2  3  1  0  0  0
  2 25  1  0  0  0
  2 85  1  0  0  0
  2 86  1  0  0  0
  3  4  1  0  0  0
  3 87  1  0  0  0
  3 88  1  0  0  0
  4  5  1  0  0  0
  4 89  1  0  0  0
  4 90  1  0  0  0
  5  6  1  0  0  0
  5 26  1  0  0  0
  5 91  1  0  0  0
  6 25  1  0  0  0
  6 92  1  0  0  0
  6 93  1  0  0  0
  7  8  2  0  0  0
  7 26  1  0  0  0
  7 29  1  0  0  0
  8  9  1  0  0  0
  8 22  1  0  0  0
  9 10  1  0  0  0
  9 27  2  0  0  0
 10 11  2  0  0  0
 10 15  1  0  0  0
 11 12  1  0  0  0
 11 94  1  0  0  0
 12 13  2  0  0  0
 12 95  1  0  0  0
 13 14  1  0  0  0
 13 31  1  0  0  0
 14 15  2  0  0  0
 14 96  1  0  0  0
 15 97  1  0  0  0
 16 17  2  0  0  0
 16 21  1  0  0  0
 16 31  1  0  0  0
 17 18  1  0  0  0
 17 98  1  0  0  0
 18 19  2  0  0  0
 18 99  1  0  0  0
 19 20  1  0  0  0
 19 24  1  0  0  0
 20 21  2  0  0  0
 20100  1  0  0  0
 21 23  1  0  0  0
 22 28  1  0  0  0
 22 32  2  0  0  0
 26 27  1  0  0  0
 28101  1  0  0  0
 28102  1  0  0  0
 29103  1  0  0  0
 29104  1  0  0  0
 33 34  1  0  0  0
 33 66  1  0  0  0
 33 70  2  0  0  0
 34 36  1  0  0  0
 34 59  1  0  0  0
 34105  1  0  0  0
 35 44  2  0  0  0
 35 45  1  0  0  0
 35 68  1  0  0  0
 36 56  1  0  0  0
 36106  1  0  0  0
 37 39  1  0  0  0
 37 47  1  0  0  0
 37 66  1  0  0  0
 37107  1  0  0  0
 38 43  2  0  0  0
 38 46  1  0  0  0
 38 47  1  0  0  0
 39 64  1  0  0  0
 39 67  2  0  0  0
 40 52  1  0  0  0
 40 53  2  0  0  0
 40 58  1  0  0  0
 41108  1  0  0  0
 41109  1  0  0  0
 41110  1  0  0  0
 41 48  1  0  0  0
 42 43  1  0  0  0
 42 66  1  0  0  0
 42111  1  0  0  0
 42112  1  0  0  0
 43 44  1  0  0  0
 44113  1  0  0  0
 45 46  2  0  0  0
 45114  1  0  0  0
 46115  1  0  0  0
 47116  1  0  0  0
 47117  1  0  0  0
 48 56  1  0  0  0
 48 65  1  0  0  0
 48118  1  0  0  0
 49 50  1  0  0  0
 49 53  1  0  0  0
 49 64  1  0  0  0
 49119  1  0  0  0
 50 51  1  0  0  0
 50120  1  0  0  0
 50121  1  0  0  0
 51 52  1  0  0  0
 51122  1  0  0  0
 51123  1  0  0  0
 52124  1  0  0  0
 52125  1  0  0  0
 53 54  1  0  0  0
 54 55  2  0  0  0
 54126  1  0  0  0
 55 57  1  0  0  0
 55127  1  0  0  0
 56 69  2  0  0  0
 57 58  2  0  0  0
 57128  1  0  0  0
 58129  1  0  0  0
 59 60  1  0  0  0
 59 61  1  0  0  0
 59 62  1  0  0  0
 60130  1  0  0  0
 60131  1  0  0  0
 60132  1  0  0  0
 61133  1  0  0  0
 61134  1  0  0  0
 61135  1  0  0  0
 62136  1  0  0  0
 62137  1  0  0  0
 62138  1  0  0  0
 63 65  1  0  0  0
 63139  1  0  0  0
 63140  1  0  0  0
 63141  1  0  0  0
 64142  1  0  0  0
 65143  1  0  0  0
 68 79  1  0  0  0
 71 72  2  0  0  0
 71 75  1  0  0  0
 71144  1  0  0  0
 72 73  1  0  0  0
 72 79  1  0  0  0
 73 76  2  0  0  0
 73 77  1  0  0  0
 74 75  2  0  0  0
 74 76  1  0  0  0
 74 82  1  0  0  0
 75 83  1  0  0  0
 76 84  1  0  0  0
 77145  1  0  0  0
 77146  1  0  0  0
 77147  1  0  0  0
 78 80  1  0  0  0
 78148  1  0  0  0
 78149  1  0  0  0
 78150  1  0  0  0
 79151  1  0  0  0
 79152  1  0  0  0
 80 81  1  0  0  0
 80153  1  0  0  0
 80154  1  0  0  0
 81 82  1  0  0  0
 81155  1  0  0  0
 81156  1  0  0  0
M  ISO  4   1 100  68 101  79 101  82 100
M  END
> <chiral flag>
0

> <version>
0

> <s_m_source_file>
/data/baiqing/PycharmProjects/Reinvent-master-3.2/result/LINK_invent/BTK/process_docking_weight1_custom_sum_contain_oxygen_bond_distance_aromatic_linkinvent_7_9_3/rearranged_h_0018.sdf

> <i_m_source_file_index>
25

> <r_mmod_Potential_Energy-OPLS-2005>
2616.92993164062

> <r_mmod_Stretch_Energy-OPLS-2005>
993.161376953125

> <r_mmod_Bend_Energy-OPLS-2005>
771.868591308594

> <r_mmod_Torsional_Energy-OPLS-2005>
313.661590576172

> <r_mmod_Improper_Torsional_Energy-OPLS-2005>
14.9949398040771

> <r_mmod_Van_der_Waal_Energy-OPLS-2005>
146.207901000977

> <r_mmod_Electrostatic_Energy-OPLS-2005>
-323.590515136719

> <r_mmod_Solvation_Energy-OPLS-2005>
-187.927490234375

> <b_mmod_Minimization_Converged-OPLS-2005>
0

> <r_mmod_RMS_Derivative-OPLS-2005>
8.65815544128418

$$$$
26
                    3D
 Structure written by MMmdl.
159167  0  0  1  0            999 V2000
  -30.5948  -14.6639   20.4849 C   0  0  0  0  0  0
  -30.4418  -12.3993   19.4653 C   0  0  0  0  0  0
  -29.5168  -12.4973   18.2317 C   0  0  0  0  0  0
  -28.0340  -12.3472   18.6368 C   0  0  0  0  0  0
  -27.6523  -13.2182   19.8639 C   0  0  2  0  0  0
  -28.6950  -13.0739   20.9945 C   0  0  0  0  0  0
  -25.2536  -13.8165   20.5702 C   0  0  0  0  0  0
  -24.1814  -13.0445   20.9210 C   0  0  0  0  0  0
  -24.6383  -11.6916   20.8735 C   0  0  0  0  0  0
  -23.9060  -10.4297   21.0413 C   0  0  0  0  0  0
  -24.3614   -9.4194   21.9166 C   0  0  0  0  0  0
  -23.6284   -8.2240   22.0740 C   0  0  0  0  0  0
  -22.4246   -8.0285   21.3568 C   0  0  0  0  0  0
  -21.9883   -9.0269   20.4679 C   0  0  0  0  0  0
  -22.7230  -10.2135   20.3075 C   0  0  0  0  0  0
  -21.6853   -6.0715   22.5261 C   0  0  0  0  0  0
  -21.4032   -6.5628   23.8196 C   0  0  0  0  0  0
  -21.3656   -5.6787   24.9160 C   0  0  0  0  0  0
  -21.6036   -4.3046   24.7222 C   0  0  0  0  0  0
  -21.8815   -3.8134   23.4356 C   0  0  0  0  0  0
  -21.9203   -4.6954   22.3395 C   0  0  0  0  0  0
  -22.7841  -13.5239   21.1868 C   0  0  0  0  0  0
  -22.1655   -4.2137   21.0974 F   0  0  0  0  0  0
  -21.5619   -3.4531   25.7735 F   0  0  0  0  0  0
  -30.0118  -13.4246   20.4346 N   0  0  0  0  0  0
  -26.2961  -12.9349   20.3304 N   0  0  0  0  0  0
  -25.9302  -11.6500   20.5741 N   0  0  0  0  0  0
  -22.0523  -12.8234   22.0478 N   0  0  0  0  0  0
  -25.4228  -15.1882   20.4069 N   0  0  0  0  0  0
  -31.7458  -14.8506   20.0807 O   0  0  0  0  0  0
  -21.6638   -6.8872   21.4227 O   0  0  0  0  0  0
  -22.3518  -14.5535   20.6716 O   0  0  0  0  0  0
  -24.6256  -31.8584   23.2004 C   0  0  0  0  0  0
  -25.9104  -32.4760   23.8325 C   0  0  1  0  0  0
  -27.2366  -27.3226   20.1179 C   0  0  0  0  0  0
  -25.5913  -33.8549   24.2249 N   0  0  0  0  0  0
  -23.4187  -30.4781   21.5431 C   0  0  2  0  0  0
  -24.8679  -28.9202   20.1209 C   0  0  0  0  0  0
  -22.7455  -29.4603   22.4946 C   0  0  0  0  0  0
  -18.0299  -28.1400   22.8465 C   0  0  0  0  0  0
  -24.1481  -36.7278   23.2640 C   0  0  0  0  0  0
  -25.9587  -30.7856   21.3733 C   0  0  0  0  0  0
  -26.0360  -29.4116   20.7193 C   0  0  0  0  0  0
  -27.2240  -28.6242   20.7049 C   0  0  0  0  0  0
  -26.0454  -26.8682   19.5157 C   0  0  0  0  0  0
  -24.8728  -27.6517   19.5149 C   0  0  0  0  0  0
  -23.6353  -29.8023   20.1621 C   0  0  0  0  0  0
  -25.4105  -36.3050   24.0319 C   0  0  1  0  0  0
  -20.5881  -28.3687   23.1286 C   0  0  2  0  0  0
  -20.6773  -26.9403   22.5433 C   0  0  0  0  0  0
  -19.5778  -26.6397   21.5201 C   0  0  0  0  0  0
  -18.1941  -26.7950   22.1579 C   0  0  0  0  0  0
  -19.1543  -28.8861   23.2874 C   0  0  0  0  0  0
  -18.9475  -30.1451   23.8917 C   0  0  0  0  0  0
  -17.6476  -30.6581   24.0589 C   0  0  0  0  0  0
  -25.9043  -34.9430   23.5086 C   0  0  0  0  0  0
  -16.5369  -29.9088   23.6336 C   0  0  0  0  0  0
  -16.7280  -28.6514   23.0329 C   0  0  0  0  0  0
  -26.4510  -31.6599   25.0706 C   0  0  0  0  0  0
  -25.3774  -31.3802   26.1476 C   0  0  0  0  0  0
  -27.0349  -30.3008   24.6194 C   0  0  0  0  0  0
  -27.6060  -32.4374   25.7446 C   0  0  0  0  0  0
  -27.5572  -37.1780   24.8445 C   0  0  0  0  0  0
  -21.4169  -29.3030   22.3672 N   0  0  0  0  0  0
  -26.4277  -37.3753   23.9401 N   0  0  0  0  0  0
  -24.6860  -31.0578   22.0957 N   0  0  0  0  0  0
  -23.4177  -28.8174   23.3049 O   0  0  0  0  0  0
  -28.3847  -26.5247   20.0547 O   0  0  0  0  0  0
  -26.5631  -34.8920   22.4658 O   0  0  0  0  0  0
  -23.5419  -32.1394   23.7329 O   0  0  0  0  0  0
  -29.7882  -19.4468   21.5242 C   0  0  0  0  0  0
  -29.1432  -19.9929   20.3811 C   0  0  0  0  0  0
  -28.8968  -19.0693   19.3130 C   0  0  0  0  0  0
  -29.7732  -17.1236   20.6275 C   0  0  0  0  0  0
  -30.0868  -18.0560   21.6515 C   0  0  0  0  0  0
  -29.1939  -17.6641   19.4443 C   0  0  0  0  0  0
  -28.2191  -19.5777   18.0423 C   0  0  0  0  0  0
  -29.3215  -25.2703   21.8147 C   0  0  0  0  0  0
  -28.5381  -21.4644   20.4081 C   0  0  0  0  0  0
  -28.8377  -23.9729   19.6359 C   0  0  0  0  0  0
  -28.3778  -25.1524   20.6138 C   0  0  2  0  0  0
  -29.7751  -15.6807   20.8943 N   0  0  0  0  0  0
  -29.4210  -22.6749   20.2095 N   0  3  0  0  0  0
  -30.7644  -17.4954   23.1403 Cl  0  0  0  0  0  0
  -28.7564  -16.5587   18.1810 Cl  0  0  0  0  0  0
  -31.4863  -12.5196   19.1735 H   0  0  0  0  0  0
  -30.3710  -11.4111   19.9187 H   0  0  0  0  0  0
  -29.7783  -11.7271   17.5031 H   0  0  0  0  0  0
  -29.6700  -13.4523   17.7310 H   0  0  0  0  0  0
  -27.8584  -11.2958   18.8631 H   0  0  0  0  0  0
  -27.3905  -12.5898   17.7906 H   0  0  0  0  0  0
  -27.6656  -14.2521   19.5230 H   0  0  0  0  0  0
  -28.7091  -12.0491   21.3648 H   0  0  0  0  0  0
  -28.4344  -13.6967   21.8521 H   0  0  0  0  0  0
  -25.2759   -9.5636   22.4730 H   0  0  0  0  0  0
  -23.9990   -7.4614   22.7437 H   0  0  0  0  0  0
  -21.0804   -8.8815   19.9004 H   0  0  0  0  0  0
  -22.3690  -10.9675   19.6199 H   0  0  0  0  0  0
  -21.2025   -7.6133   23.9692 H   0  0  0  0  0  0
  -21.1473   -6.0516   25.9056 H   0  0  0  0  0  0
  -22.0599   -2.7604   23.2858 H   0  0  0  0  0  0
  -22.4169  -11.9930   22.4861 H   0  0  0  0  0  0
  -21.1175  -13.1263   22.2776 H   0  0  0  0  0  0
  -24.6534  -15.8378   20.5241 H   0  0  0  0  0  0
  -26.2377  -15.6151   19.9853 H   0  0  0  0  0  0
  -26.7164  -32.5427   23.1064 H   0  0  0  0  0  0
  -25.0075  -33.9702   25.0403 H   0  0  0  0  0  0
  -22.7120  -31.2972   21.3925 H   0  0  0  0  0  0
  -23.3722  -35.9631   23.3325 H   0  0  0  0  0  0
  -24.3574  -36.8887   22.2048 H   0  0  0  0  0  0
  -23.7282  -37.6498   23.6677 H   0  0  0  0  0  0
  -26.0956  -31.5491   20.6072 H   0  0  0  0  0  0
  -26.8355  -30.8330   22.0058 H   0  0  0  0  0  0
  -28.1272  -29.0023   21.1635 H   0  0  0  0  0  0
  -26.0215  -25.8998   19.0339 H   0  0  0  0  0  0
  -23.9758  -27.2655   19.0499 H   0  0  0  0  0  0
  -23.7566  -30.5738   19.4005 H   0  0  0  0  0  0
  -22.7552  -29.2301   19.8601 H   0  0  0  0  0  0
  -25.1295  -36.1879   25.0817 H   0  0  0  0  0  0
  -20.9975  -28.3291   24.1402 H   0  0  0  0  0  0
  -20.5622  -26.2305   23.3637 H   0  0  0  0  0  0
  -21.6657  -26.7408   22.1277 H   0  0  0  0  0  0
  -19.6938  -25.6314   21.1219 H   0  0  0  0  0  0
  -19.6743  -27.3214   20.6739 H   0  0  0  0  0  0
  -17.4224  -26.6713   21.3964 H   0  0  0  0  0  0
  -18.0311  -26.0088   22.8961 H   0  0  0  0  0  0
  -19.7957  -30.7247   24.2296 H   0  0  0  0  0  0
  -17.5041  -31.6249   24.5215 H   0  0  0  0  0  0
  -15.5372  -30.2986   23.7679 H   0  0  0  0  0  0
  -15.8674  -28.0840   22.7026 H   0  0  0  0  0  0
  -24.5829  -30.7284   25.7842 H   0  0  0  0  0  0
  -24.9134  -32.3022   26.4986 H   0  0  0  0  0  0
  -25.8111  -30.8893   27.0196 H   0  0  0  0  0  0
  -26.2920  -29.6735   24.1252 H   0  0  0  0  0  0
  -27.4064  -29.7305   25.4721 H   0  0  0  0  0  0
  -27.8793  -30.4278   23.9413 H   0  0  0  0  0  0
  -27.2604  -33.3584   26.2161 H   0  0  0  0  0  0
  -28.3762  -32.7114   25.0220 H   0  0  0  0  0  0
  -28.0877  -31.8464   26.5249 H   0  0  0  0  0  0
  -28.2609  -38.0051   24.7440 H   0  0  0  0  0  0
  -28.1048  -36.2588   24.6300 H   0  0  0  0  0  0
  -27.2320  -37.1485   25.8860 H   0  0  0  0  0  0
  -20.9355  -29.8717   21.6844 H   0  0  0  0  0  0
  -26.0140  -38.2819   24.1425 H   0  0  0  0  0  0
  -29.9945  -20.0867   22.3707 H   0  0  0  0  0  0
  -28.6450  -20.5314   17.7306 H   0  0  0  0  0  0
  -27.1504  -19.7138   18.2139 H   0  0  0  0  0  0
  -28.3300  -18.9032   17.1944 H   0  0  0  0  0  0
  -29.2886  -24.3813   22.4428 H   0  0  0  0  0  0
  -29.0384  -26.1147   22.4412 H   0  0  0  0  0  0
  -30.3511  -25.4316   21.4936 H   0  0  0  0  0  0
  -28.0418  -21.5884   21.3715 H   0  0  0  0  0  0
  -27.7244  -21.5266   19.6879 H   0  0  0  0  0  0
  -29.6368  -24.3842   19.0175 H   0  0  0  0  0  0
  -28.0372  -23.7337   18.9355 H   0  0  0  0  0  0
  -27.3855  -24.9180   21.0002 H   0  0  0  0  0  0
  -28.9026  -15.3415   21.2704 H   0  0  0  0  0  0
  -30.1252  -22.3810   19.5508 H   0  0  0  0  0  0
  -29.9100  -22.8666   21.0683 H   0  0  0  0  0  0
  1 25  1  0  0  0
  1 30  2  0  0  0
  1 82  1  0  0  0
  2  3  1  0  0  0
  2 25  1  0  0  0
  2 86  1  0  0  0
  2 87  1  0  0  0
  3  4  1  0  0  0
  3 88  1  0  0  0
  3 89  1  0  0  0
  4  5  1  0  0  0
  4 90  1  0  0  0
  4 91  1  0  0  0
  5  6  1  0  0  0
  5 26  1  0  0  0
  5 92  1  0  0  0
  6 25  1  0  0  0
  6 93  1  0  0  0
  6 94  1  0  0  0
  7  8  2  0  0  0
  7 26  1  0  0  0
  7 29  1  0  0  0
  8  9  1  0  0  0
  8 22  1  0  0  0
  9 10  1  0  0  0
  9 27  2  0  0  0
 10 11  2  0  0  0
 10 15  1  0  0  0
 11 12  1  0  0  0
 11 95  1  0  0  0
 12 13  2  0  0  0
 12 96  1  0  0  0
 13 14  1  0  0  0
 13 31  1  0  0  0
 14 15  2  0  0  0
 14 97  1  0  0  0
 15 98  1  0  0  0
 16 17  2  0  0  0
 16 21  1  0  0  0
 16 31  1  0  0  0
 17 18  1  0  0  0
 17 99  1  0  0  0
 18 19  2  0  0  0
 18100  1  0  0  0
 19 20  1  0  0  0
 19 24  1  0  0  0
 20 21  2  0  0  0
 20101  1  0  0  0
 21 23  1  0  0  0
 22 28  1  0  0  0
 22 32  2  0  0  0
 26 27  1  0  0  0
 28102  1  0  0  0
 28103  1  0  0  0
 29104  1  0  0  0
 29105  1  0  0  0
 33 34  1  0  0  0
 33 66  1  0  0  0
 33 70  2  0  0  0
 34 36  1  0  0  0
 34 59  1  0  0  0
 34106  1  0  0  0
 35 44  2  0  0  0
 35 45  1  0  0  0
 35 68  1  0  0  0
 36 56  1  0  0  0
 36107  1  0  0  0
 37 39  1  0  0  0
 37 47  1  0  0  0
 37 66  1  0  0  0
 37108  1  0  0  0
 38 43  2  0  0  0
 38 46  1  0  0  0
 38 47  1  0  0  0
 39 64  1  0  0  0
 39 67  2  0  0  0
 40 52  1  0  0  0
 40 53  2  0  0  0
 40 58  1  0  0  0
 41109  1  0  0  0
 41110  1  0  0  0
 41111  1  0  0  0
 41 48  1  0  0  0
 42 43  1  0  0  0
 42 66  1  0  0  0
 42112  1  0  0  0
 42113  1  0  0  0
 43 44  1  0  0  0
 44114  1  0  0  0
 45 46  2  0  0  0
 45115  1  0  0  0
 46116  1  0  0  0
 47117  1  0  0  0
 47118  1  0  0  0
 48 56  1  0  0  0
 48 65  1  0  0  0
 48119  1  0  0  0
 49 50  1  0  0  0
 49 53  1  0  0  0
 49 64  1  0  0  0
 49120  1  0  0  0
 50 51  1  0  0  0
 50121  1  0  0  0
 50122  1  0  0  0
 51 52  1  0  0  0
 51123  1  0  0  0
 51124  1  0  0  0
 52125  1  0  0  0
 52126  1  0  0  0
 53 54  1  0  0  0
 54 55  2  0  0  0
 54127  1  0  0  0
 55 57  1  0  0  0
 55128  1  0  0  0
 56 69  2  0  0  0
 57 58  2  0  0  0
 57129  1  0  0  0
 58130  1  0  0  0
 59 60  1  0  0  0
 59 61  1  0  0  0
 59 62  1  0  0  0
 60131  1  0  0  0
 60132  1  0  0  0
 60133  1  0  0  0
 61134  1  0  0  0
 61135  1  0  0  0
 61136  1  0  0  0
 62137  1  0  0  0
 62138  1  0  0  0
 62139  1  0  0  0
 63 65  1  0  0  0
 63140  1  0  0  0
 63141  1  0  0  0
 63142  1  0  0  0
 64143  1  0  0  0
 65144  1  0  0  0
 68 81  1  0  0  0
 71 72  2  0  0  0
 71 75  1  0  0  0
 71145  1  0  0  0
 72 73  1  0  0  0
 72 79  1  0  0  0
 73 76  2  0  0  0
 73 77  1  0  0  0
 74 75  2  0  0  0
 74 76  1  0  0  0
 74 82  1  0  0  0
 75 84  1  0  0  0
 76 85  1  0  0  0
 77146  1  0  0  0
 77147  1  0  0  0
 77148  1  0  0  0
 78149  1  0  0  0
 78150  1  0  0  0
 78151  1  0  0  0
 78 81  1  0  0  0
 79 83  1  0  0  0
 79152  1  0  0  0
 79153  1  0  0  0
 80 81  1  0  0  0
 80 83  1  0  0  0
 80154  1  0  0  0
 80155  1  0  0  0
 81156  1  0  0  0
 82157  1  0  0  0
 83158  1  0  0  0
 83159  1  0  0  0
M  CHG  1  83   1
M  ISO  4   1 100  68 101  81 101  82 100
M  END
> <chiral flag>
0

> <version>
0

> <s_m_source_file>
/data/baiqing/PycharmProjects/Reinvent-master-3.2/result/LINK_invent/BTK/process_docking_weight1_custom_sum_contain_oxygen_bond_distance_aromatic_linkinvent_7_9_3/rearranged_h_0018.sdf

> <i_m_source_file_index>
26

> <r_mmod_Potential_Energy-OPLS-2005>
-120.987953186035

> <r_mmod_Stretch_Energy-OPLS-2005>
85.3097534179688

> <r_mmod_Bend_Energy-OPLS-2005>
144.290100097656

> <r_mmod_Torsional_Energy-OPLS-2005>
281.889739990234

> <r_mmod_Improper_Torsional_Energy-OPLS-2005>
7.49986553192139

> <r_mmod_Van_der_Waal_Energy-OPLS-2005>
132.710021972656

> <r_mmod_Electrostatic_Energy-OPLS-2005>
-345.821563720703

> <r_mmod_Solvation_Energy-OPLS-2005>
-476.211791992188

> <b_mmod_Minimization_Converged-OPLS-2005>
0

> <r_mmod_RMS_Derivative-OPLS-2005>
3.96979403495789

$$$$
27
                    3D
 Structure written by MMmdl.
165173  0  0  1  0            999 V2000
  -30.6508  -14.5471   20.4552 C   0  0  0  0  0  0
  -30.4250  -12.3257   19.4270 C   0  0  0  0  0  0
  -29.4915  -12.4764   18.2058 C   0  0  0  0  0  0
  -28.0111  -12.3469   18.6207 C   0  0  0  0  0  0
  -27.6521  -13.2092   19.8603 C   0  0  2  0  0  0
  -28.7010  -13.0325   20.9820 C   0  0  0  0  0  0
  -25.2557  -13.8170   20.5676 C   0  0  0  0  0  0
  -24.1818  -13.0427   20.9186 C   0  0  0  0  0  0
  -24.6379  -11.6902   20.8734 C   0  0  0  0  0  0
  -23.9045  -10.4281   21.0388 C   0  0  0  0  0  0
  -24.3605   -9.4197   21.9164 C   0  0  0  0  0  0
  -23.6283   -8.2230   22.0740 C   0  0  0  0  0  0
  -22.4265   -8.0269   21.3531 C   0  0  0  0  0  0
  -21.9897   -9.0237   20.4629 C   0  0  0  0  0  0
  -22.7217  -10.2119   20.3038 C   0  0  0  0  0  0
  -21.6850   -6.0724   22.5266 C   0  0  0  0  0  0
  -21.4006   -6.5631   23.8198 C   0  0  0  0  0  0
  -21.3659   -5.6784   24.9167 C   0  0  0  0  0  0
  -21.6045   -4.3045   24.7217 C   0  0  0  0  0  0
  -21.8830   -3.8138   23.4338 C   0  0  0  0  0  0
  -21.9192   -4.6951   22.3391 C   0  0  0  0  0  0
  -22.7843  -13.5218   21.1851 C   0  0  0  0  0  0
  -22.1665   -4.2134   21.0969 F   0  0  0  0  0  0
  -21.5635   -3.4533   25.7739 F   0  0  0  0  0  0
  -30.0210  -13.3402   20.4137 N   0  0  0  0  0  0
  -26.2974  -12.9327   20.3321 N   0  0  0  0  0  0
  -25.9297  -11.6483   20.5747 N   0  0  0  0  0  0
  -22.0512  -12.8192   22.0423 N   0  0  0  0  0  0
  -25.4275  -15.1884   20.4096 N   0  0  0  0  0  0
  -31.8405  -14.6739   20.1579 O   0  0  0  0  0  0
  -21.6636   -6.8866   21.4231 O   0  0  0  0  0  0
  -22.3499  -14.5510   20.6701 O   0  0  0  0  0  0
  -24.6147  -31.8673   23.2073 C   0  0  0  0  0  0
  -25.9028  -32.4827   23.8361 C   0  0  1  0  0  0
  -27.2263  -27.4050   20.0796 C   0  0  0  0  0  0
  -25.5856  -33.8626   24.2283 N   0  0  0  0  0  0
  -23.4034  -30.4860   21.5536 C   0  0  2  0  0  0
  -24.8433  -28.9456   20.1186 C   0  0  0  0  0  0
  -22.7418  -29.4612   22.5021 C   0  0  0  0  0  0
  -18.0265  -28.1358   22.8492 C   0  0  0  0  0  0
  -24.1470  -36.7318   23.2623 C   0  0  0  0  0  0
  -25.9337  -30.8198   21.3641 C   0  0  0  0  0  0
  -26.0054  -29.4514   20.7080 C   0  0  0  0  0  0
  -27.1974  -28.6870   20.6851 C   0  0  0  0  0  0
  -26.0365  -26.9136   19.4940 C   0  0  0  0  0  0
  -24.8507  -27.6741   19.5181 C   0  0  0  0  0  0
  -23.6114  -29.8202   20.1686 C   0  0  0  0  0  0
  -25.4101  -36.3106   24.0303 C   0  0  1  0  0  0
  -20.5851  -28.3626   23.1345 C   0  0  2  0  0  0
  -20.6768  -26.9373   22.5418 C   0  0  0  0  0  0
  -19.5748  -26.6370   21.5202 C   0  0  0  0  0  0
  -18.1920  -26.7902   22.1620 C   0  0  0  0  0  0
  -19.1518  -28.8819   23.2896 C   0  0  0  0  0  0
  -18.9462  -30.1433   23.8892 C   0  0  0  0  0  0
  -17.6469  -30.6580   24.0558 C   0  0  0  0  0  0
  -25.9026  -34.9478   23.5099 C   0  0  0  0  0  0
  -16.5354  -29.9073   23.6328 C   0  0  0  0  0  0
  -16.7258  -28.6487   23.0349 C   0  0  0  0  0  0
  -26.4426  -31.6642   25.0725 C   0  0  0  0  0  0
  -25.3672  -31.3808   26.1474 C   0  0  0  0  0  0
  -27.0238  -30.3068   24.6129 C   0  0  0  0  0  0
  -27.5984  -32.4373   25.7534 C   0  0  0  0  0  0
  -27.5575  -37.1815   24.8450 C   0  0  0  0  0  0
  -21.4146  -29.3000   22.3783 N   0  0  0  0  0  0
  -26.4288  -37.3794   23.9391 N   0  0  0  0  0  0
  -24.6696  -31.0718   22.1008 N   0  0  0  0  0  0
  -23.4202  -28.8139   23.3040 O   0  0  0  0  0  0
  -28.4134  -26.6926   20.0930 O   0  0  0  0  0  0
  -26.5633  -34.8933   22.4695 O   0  0  0  0  0  0
  -23.5335  -32.1460   23.7457 O   0  0  0  0  0  0
  -30.3768  -19.6435   19.2448 C   0  0  0  0  0  0
  -30.8365  -18.5652   18.4601 C   0  0  0  0  0  0
  -29.7024  -19.4303   20.4642 C   0  0  0  0  0  0
  -30.0328  -16.9752   20.1697 C   0  0  0  0  0  0
  -30.6392  -17.2353   18.9106 C   0  0  0  0  0  0
  -29.5363  -18.0824   20.9220 C   0  0  0  0  0  0
  -30.8557  -18.2901   15.9123 C   0  0  0  0  0  0
  -33.0470  -18.4609   17.2103 C   0  0  0  0  0  0
  -29.2779  -20.6692   21.2934 C   0  0  0  0  0  0
  -28.1035  -24.1756   20.3126 C   0  0  0  0  0  0
  -28.9001  -22.8636   20.0033 C   0  0  0  0  0  0
  -28.5372  -25.4014   19.4556 C   0  0  0  0  0  0
  -31.5654  -18.8704   17.1491 C   0  0  0  0  0  0
  -29.8490  -15.6232   20.6571 N   0  0  0  0  0  0
  -28.3337  -21.6358   20.6477 N   0  3  0  0  0  0
  -31.0092  -16.2076   18.1086 F   0  0  0  0  0  0
  -28.7463  -17.7581   22.4297 Cl  0  0  0  0  0  0
  -31.4650  -12.4365   19.1164 H   0  0  0  0  0  0
  -30.3469  -11.3255   19.8558 H   0  0  0  0  0  0
  -29.7282  -11.7207   17.4548 H   0  0  0  0  0  0
  -29.6579  -13.4425   17.7271 H   0  0  0  0  0  0
  -27.8205  -11.2946   18.8351 H   0  0  0  0  0  0
  -27.3616  -12.6056   17.7836 H   0  0  0  0  0  0
  -27.6782  -14.2480   19.5306 H   0  0  0  0  0  0
  -28.6879  -12.0061   21.3525 H   0  0  0  0  0  0
  -28.4743  -13.6667   21.8403 H   0  0  0  0  0  0
  -25.2756   -9.5672   22.4732 H   0  0  0  0  0  0
  -23.9989   -7.4626   22.7464 H   0  0  0  0  0  0
  -21.0831   -8.8748   19.8938 H   0  0  0  0  0  0
  -22.3671  -10.9653   19.6149 H   0  0  0  0  0  0
  -21.1999   -7.6136   23.9695 H   0  0  0  0  0  0
  -21.1470   -6.0516   25.9068 H   0  0  0  0  0  0
  -22.0614   -2.7596   23.2843 H   0  0  0  0  0  0
  -22.4153  -11.9864   22.4808 H   0  0  0  0  0  0
  -21.1123  -13.1177   22.2653 H   0  0  0  0  0  0
  -24.6644  -15.8453   20.5299 H   0  0  0  0  0  0
  -26.2776  -15.6273   20.0814 H   0  0  0  0  0  0
  -26.7121  -32.5502   23.1135 H   0  0  0  0  0  0
  -24.9881  -33.9786   25.0341 H   0  0  0  0  0  0
  -22.6905  -31.3012   21.4174 H   0  0  0  0  0  0
  -23.3720  -35.9662   23.3283 H   0  0  0  0  0  0
  -24.3553  -36.8971   22.2042 H   0  0  0  0  0  0
  -23.7242  -37.6508   23.6698 H   0  0  0  0  0  0
  -26.0481  -31.5893   20.5992 H   0  0  0  0  0  0
  -26.8201  -30.8706   21.9836 H   0  0  0  0  0  0
  -28.0988  -29.0768   21.1351 H   0  0  0  0  0  0
  -25.9960  -25.9439   19.0223 H   0  0  0  0  0  0
  -23.9468  -27.2751   19.0761 H   0  0  0  0  0  0
  -23.7270  -30.5988   19.4135 H   0  0  0  0  0  0
  -22.7335  -29.2455   19.8696 H   0  0  0  0  0  0
  -25.1293  -36.1961   25.0796 H   0  0  0  0  0  0
  -20.9924  -28.3222   24.1470 H   0  0  0  0  0  0
  -20.5692  -26.2228   23.3601 H   0  0  0  0  0  0
  -21.6639  -26.7454   22.1194 H   0  0  0  0  0  0
  -19.6910  -25.6277   21.1237 H   0  0  0  0  0  0
  -19.6704  -27.3180   20.6736 H   0  0  0  0  0  0
  -17.4182  -26.6615   21.4030 H   0  0  0  0  0  0
  -18.0332  -26.0052   22.9041 H   0  0  0  0  0  0
  -19.7953  -30.7224   24.2275 H   0  0  0  0  0  0
  -17.5034  -31.6270   24.5144 H   0  0  0  0  0  0
  -15.5348  -30.2980   23.7669 H   0  0  0  0  0  0
  -15.8642  -28.0821   22.7067 H   0  0  0  0  0  0
  -24.5797  -30.7206   25.7821 H   0  0  0  0  0  0
  -24.8884  -32.2982   26.4921 H   0  0  0  0  0  0
  -25.7961  -30.8977   27.0261 H   0  0  0  0  0  0
  -26.2807  -29.6904   24.1048 H   0  0  0  0  0  0
  -27.3822  -29.7248   25.4627 H   0  0  0  0  0  0
  -27.8730  -30.4329   23.9401 H   0  0  0  0  0  0
  -27.2559  -33.3671   26.2108 H   0  0  0  0  0  0
  -28.3812  -32.6961   25.0385 H   0  0  0  0  0  0
  -28.0607  -31.8488   26.5469 H   0  0  0  0  0  0
  -28.2577  -38.0135   24.7518 H   0  0  0  0  0  0
  -28.1091  -36.2658   24.6259 H   0  0  0  0  0  0
  -27.2284  -37.1430   25.8854 H   0  0  0  0  0  0
  -20.9316  -29.8737   21.7023 H   0  0  0  0  0  0
  -26.0167  -38.2861   24.1442 H   0  0  0  0  0  0
  -30.5567  -20.6548   18.9098 H   0  0  0  0  0  0
  -29.8344  -18.6606   15.8326 H   0  0  0  0  0  0
  -30.8102  -17.2023   15.9305 H   0  0  0  0  0  0
  -31.3764  -18.5727   14.9969 H   0  0  0  0  0  0
  -33.5471  -18.9294   18.0594 H   0  0  0  0  0  0
  -33.5799  -18.7733   16.3110 H   0  0  0  0  0  0
  -33.1631  -17.3804   17.3078 H   0  0  0  0  0  0
  -30.1712  -21.1851   21.6465 H   0  0  0  0  0  0
  -28.7754  -20.3451   22.2031 H   0  0  0  0  0  0
  -28.2392  -24.4214   21.3670 H   0  0  0  0  0  0
  -27.0338  -24.0104   20.1741 H   0  0  0  0  0  0
  -29.9336  -23.0142   20.3211 H   0  0  0  0  0  0
  -28.9359  -22.7000   18.9242 H   0  0  0  0  0  0
  -28.0624  -25.3824   18.4733 H   0  0  0  0  0  0
  -29.6011  -25.2990   19.2384 H   0  0  0  0  0  0
  -31.5576  -19.9538   17.0179 H   0  0  0  0  0  0
  -28.9542  -15.4373   21.0831 H   0  0  0  0  0  0
  -27.7466  -21.9579   21.3982 H   0  0  0  0  0  0
  -27.7310  -21.1468   20.0060 H   0  0  0  0  0  0
  1 25  1  0  0  0
  1 30  2  0  0  0
  1 84  1  0  0  0
  2  3  1  0  0  0
  2 25  1  0  0  0
  2 88  1  0  0  0
  2 89  1  0  0  0
  3  4  1  0  0  0
  3 90  1  0  0  0
  3 91  1  0  0  0
  4  5  1  0  0  0
  4 92  1  0  0  0
  4 93  1  0  0  0
  5  6  1  0  0  0
  5 26  1  0  0  0
  5 94  1  0  0  0
  6 25  1  0  0  0
  6 95  1  0  0  0
  6 96  1  0  0  0
  7  8  2  0  0  0
  7 26  1  0  0  0
  7 29  1  0  0  0
  8  9  1  0  0  0
  8 22  1  0  0  0
  9 10  1  0  0  0
  9 27  2  0  0  0
 10 11  2  0  0  0
 10 15  1  0  0  0
 11 12  1  0  0  0
 11 97  1  0  0  0
 12 13  2  0  0  0
 12 98  1  0  0  0
 13 14  1  0  0  0
 13 31  1  0  0  0
 14 15  2  0  0  0
 14 99  1  0  0  0
 15100  1  0  0  0
 16 17  2  0  0  0
 16 21  1  0  0  0
 16 31  1  0  0  0
 17 18  1  0  0  0
 17101  1  0  0  0
 18 19  2  0  0  0
 18102  1  0  0  0
 19 20  1  0  0  0
 19 24  1  0  0  0
 20 21  2  0  0  0
 20103  1  0  0  0
 21 23  1  0  0  0
 22 28  1  0  0  0
 22 32  2  0  0  0
 26 27  1  0  0  0
 28104  1  0  0  0
 28105  1  0  0  0
 29106  1  0  0  0
 29107  1  0  0  0
 33 34  1  0  0  0
 33 66  1  0  0  0
 33 70  2  0  0  0
 34 36  1  0  0  0
 34 59  1  0  0  0
 34108  1  0  0  0
 35 44  2  0  0  0
 35 45  1  0  0  0
 35 68  1  0  0  0
 36 56  1  0  0  0
 36109  1  0  0  0
 37 39  1  0  0  0
 37 47  1  0  0  0
 37 66  1  0  0  0
 37110  1  0  0  0
 38 43  2  0  0  0
 38 46  1  0  0  0
 38 47  1  0  0  0
 39 64  1  0  0  0
 39 67  2  0  0  0
 40 52  1  0  0  0
 40 53  2  0  0  0
 40 58  1  0  0  0
 41111  1  0  0  0
 41112  1  0  0  0
 41113  1  0  0  0
 41 48  1  0  0  0
 42 43  1  0  0  0
 42 66  1  0  0  0
 42114  1  0  0  0
 42115  1  0  0  0
 43 44  1  0  0  0
 44116  1  0  0  0
 45 46  2  0  0  0
 45117  1  0  0  0
 46118  1  0  0  0
 47119  1  0  0  0
 47120  1  0  0  0
 48 56  1  0  0  0
 48 65  1  0  0  0
 48121  1  0  0  0
 49 50  1  0  0  0
 49 53  1  0  0  0
 49 64  1  0  0  0
 49122  1  0  0  0
 50 51  1  0  0  0
 50123  1  0  0  0
 50124  1  0  0  0
 51 52  1  0  0  0
 51125  1  0  0  0
 51126  1  0  0  0
 52127  1  0  0  0
 52128  1  0  0  0
 53 54  1  0  0  0
 54 55  2  0  0  0
 54129  1  0  0  0
 55 57  1  0  0  0
 55130  1  0  0  0
 56 69  2  0  0  0
 57 58  2  0  0  0
 57131  1  0  0  0
 58132  1  0  0  0
 59 60  1  0  0  0
 59 61  1  0  0  0
 59 62  1  0  0  0
 60133  1  0  0  0
 60134  1  0  0  0
 60135  1  0  0  0
 61136  1  0  0  0
 61137  1  0  0  0
 61138  1  0  0  0
 62139  1  0  0  0
 62140  1  0  0  0
 62141  1  0  0  0
 63 65  1  0  0  0
 63142  1  0  0  0
 63143  1  0  0  0
 63144  1  0  0  0
 64145  1  0  0  0
 65146  1  0  0  0
 68 82  1  0  0  0
 71 72  2  0  0  0
 71 73  1  0  0  0
 71147  1  0  0  0
 72 75  1  0  0  0
 72 83  1  0  0  0
 73 76  2  0  0  0
 73 79  1  0  0  0
 74 75  2  0  0  0
 74 76  1  0  0  0
 74 84  1  0  0  0
 75 86  1  0  0  0
 76 87  1  0  0  0
 77148  1  0  0  0
 77149  1  0  0  0
 77150  1  0  0  0
 77 83  1  0  0  0
 78 83  1  0  0  0
 78151  1  0  0  0
 78152  1  0  0  0
 78153  1  0  0  0
 79 85  1  0  0  0
 79154  1  0  0  0
 79155  1  0  0  0
 80 81  1  0  0  0
 80 82  1  0  0  0
 80156  1  0  0  0
 80157  1  0  0  0
 81 85  1  0  0  0
 81158  1  0  0  0
 81159  1  0  0  0
 82160  1  0  0  0
 82161  1  0  0  0
 83162  1  0  0  0
 84163  1  0  0  0
 85164  1  0  0  0
 85165  1  0  0  0
M  CHG  1  85   1
M  ISO  4   1 100  68 101  82 101  84 100
M  END
> <chiral flag>
0

> <version>
0

> <s_m_source_file>
/data/baiqing/PycharmProjects/Reinvent-master-3.2/result/LINK_invent/BTK/process_docking_weight1_custom_sum_contain_oxygen_bond_distance_aromatic_linkinvent_7_9_3/rearranged_h_0018.sdf

> <i_m_source_file_index>
27

> <r_mmod_Potential_Energy-OPLS-2005>
-257.501159667969

> <r_mmod_Stretch_Energy-OPLS-2005>
49.6122627258301

> <r_mmod_Bend_Energy-OPLS-2005>
117.271385192871

> <r_mmod_Torsional_Energy-OPLS-2005>
236.039306640625

> <r_mmod_Improper_Torsional_Energy-OPLS-2005>
4.92382907867432

> <r_mmod_Van_der_Waal_Energy-OPLS-2005>
149.934844970703

> <r_mmod_Electrostatic_Energy-OPLS-2005>
-343.858459472656

> <r_mmod_Solvation_Energy-OPLS-2005>
-496.285705566406

> <b_mmod_Minimization_Converged-OPLS-2005>
0

> <r_mmod_RMS_Derivative-OPLS-2005>
3.00446557998657

$$$$
28
                    3D
 Structure written by MMmdl.
150158  0  0  1  0            999 V2000
  -30.3033  -15.5961   20.3223 C   0  0  0  0  0  0
  -30.4378  -13.0458   19.5427 C   0  0  0  0  0  0
  -29.5597  -12.6426   18.3232 C   0  0  0  0  0  0
  -28.1234  -12.3060   18.7575 C   0  0  0  0  0  0
  -27.6040  -13.3047   19.8180 C   0  0  2  0  0  0
  -28.6249  -13.6064   20.9394 C   0  0  0  0  0  0
  -25.2363  -13.8290   20.5783 C   0  0  0  0  0  0
  -24.1737  -13.0459   20.9282 C   0  0  0  0  0  0
  -24.6424  -11.6966   20.8778 C   0  0  0  0  0  0
  -23.9122  -10.4319   21.0425 C   0  0  0  0  0  0
  -24.3650   -9.4228   21.9206 C   0  0  0  0  0  0
  -23.6306   -8.2274   22.0788 C   0  0  0  0  0  0
  -22.4283   -8.0319   21.3577 C   0  0  0  0  0  0
  -21.9927   -9.0304   20.4685 C   0  0  0  0  0  0
  -22.7283  -10.2168   20.3087 C   0  0  0  0  0  0
  -21.6858   -6.0757   22.5287 C   0  0  0  0  0  0
  -21.4027   -6.5652   23.8222 C   0  0  0  0  0  0
  -21.3657   -5.6800   24.9178 C   0  0  0  0  0  0
  -21.6035   -4.3063   24.7222 C   0  0  0  0  0  0
  -21.8818   -3.8164   23.4343 C   0  0  0  0  0  0
  -21.9191   -4.6988   22.3406 C   0  0  0  0  0  0
  -22.7743  -13.5218   21.1897 C   0  0  0  0  0  0
  -22.1659   -4.2172   21.0985 F   0  0  0  0  0  0
  -21.5612   -3.4547   25.7730 F   0  0  0  0  0  0
  -29.8054  -14.2228   20.2892 N   0  0  0  0  0  0
  -26.2815  -12.9611   20.3231 N   0  0  0  0  0  0
  -25.9369  -11.6691   20.5700 N   0  0  0  0  0  0
  -22.0361  -12.8241   22.0442 N   0  0  0  0  0  0
  -25.3953  -15.2030   20.4214 N   0  0  0  0  0  0
  -31.5365  -15.5662   20.1430 O   0  0  0  0  0  0
  -21.6648   -6.8912   21.4255 O   0  0  0  0  0  0
  -22.3435  -14.5513   20.6715 O   0  0  0  0  0  0
  -24.6851  -31.8005   23.1533 C   0  0  0  0  0  0
  -25.9426  -32.4471   23.8086 C   0  0  1  0  0  0
  -27.2286  -26.7104   20.2093 C   0  0  0  0  0  0
  -25.6004  -33.8296   24.1971 N   0  0  0  0  0  0
  -23.5109  -30.4036   21.5070 C   0  0  2  0  0  0
  -24.9689  -28.7469   20.1171 C   0  0  0  0  0  0
  -22.7771  -29.4328   22.4718 C   0  0  0  0  0  0
  -18.0335  -28.1425   22.8453 C   0  0  0  0  0  0
  -24.1493  -36.7152   23.2659 C   0  0  0  0  0  0
  -26.0923  -30.5340   21.4188 C   0  0  0  0  0  0
  -26.1586  -29.1013   20.7651 C   0  0  0  0  0  0
  -27.2744  -28.1114   20.7784 C   0  0  0  0  0  0
  -26.0055  -26.5644   19.5060 C   0  0  0  0  0  0
  -24.9318  -27.5036   19.4643 C   0  0  0  0  0  0
  -23.7643  -29.7011   20.1418 C   0  0  0  0  0  0
  -25.4146  -36.2901   24.0285 C   0  0  1  0  0  0
  -20.5971  -28.3791   23.1130 C   0  0  2  0  0  0
  -20.6803  -26.9447   22.5402 C   0  0  0  0  0  0
  -19.5778  -26.6370   21.5218 C   0  0  0  0  0  0
  -18.1961  -26.7948   22.1620 C   0  0  0  0  0  0
  -19.1602  -28.8929   23.2775 C   0  0  0  0  0  0
  -18.9512  -30.1511   23.8825 C   0  0  0  0  0  0
  -17.6501  -30.6609   24.0544 C   0  0  0  0  0  0
  -25.9120  -34.9287   23.4964 C   0  0  0  0  0  0
  -16.5388  -29.9090   23.6351 C   0  0  0  0  0  0
  -16.7315  -28.6511   23.0373 C   0  0  0  0  0  0
  -26.4580  -31.6509   25.0716 C   0  0  0  0  0  0
  -25.3641  -31.3837   26.1336 C   0  0  0  0  0  0
  -27.0513  -30.2845   24.6637 C   0  0  0  0  0  0
  -27.6022  -32.4375   25.7538 C   0  0  0  0  0  0
  -27.5558  -37.1745   24.8469 C   0  0  0  0  0  0
  -21.4420  -29.3045   22.3456 N   0  0  0  0  0  0
  -26.4277  -37.3661   23.9392 N   0  0  0  0  0  0
  -24.7859  -30.9452   22.0785 N   0  0  0  0  0  0
  -23.4205  -28.7928   23.3063 O   0  0  0  0  0  0
  -28.1859  -25.4891   20.2745 O   0  0  0  0  0  0
  -26.5764  -34.8855   22.4580 O   0  0  0  0  0  0
  -23.5872  -32.1079   23.6487 O   0  0  0  0  0  0
  -29.3425  -19.6656   21.3652 C   0  0  0  0  0  0
  -29.0202  -21.1672   21.3484 C   0  0  0  0  0  0
  -28.6390  -22.0624   20.2142 C   0  0  0  0  0  0
  -29.0518  -19.5327   19.1516 C   0  0  0  0  0  0
  -29.4079  -18.6332   20.2911 C   0  0  0  0  0  0
  -28.7079  -21.0370   19.1261 C   0  0  0  0  0  0
  -29.0505  -21.8408   22.7083 C   0  0  0  0  0  0
  -28.9971  -18.8199   17.8043 C   0  0  0  0  0  0
  -27.8673  -23.7715   20.1589 C   0  0  0  0  0  0
  -29.4792  -16.9111   20.3799 N   0  0  0  0  0  0
  -28.2650  -21.6802   17.5786 Cl  0  0  0  0  0  0
  -31.4356  -13.3052   19.1848 H   0  0  0  0  0  0
  -30.5911  -12.1928   20.2068 H   0  0  0  0  0  0
  -30.0037  -11.7965   17.7970 H   0  0  0  0  0  0
  -29.5394  -13.4699   17.6108 H   0  0  0  0  0  0
  -28.1307  -11.2988   19.1770 H   0  0  0  0  0  0
  -27.4581  -12.2766   17.8935 H   0  0  0  0  0  0
  -27.4768  -14.2386   19.2691 H   0  0  0  0  0  0
  -28.8747  -12.7094   21.5074 H   0  0  0  0  0  0
  -28.2060  -14.3161   21.6540 H   0  0  0  0  0  0
  -25.2791   -9.5679   22.4784 H   0  0  0  0  0  0
  -24.0006   -7.4655   22.7498 H   0  0  0  0  0  0
  -21.0859   -8.8857   19.8978 H   0  0  0  0  0  0
  -22.3767  -10.9725   19.6203 H   0  0  0  0  0  0
  -21.2036   -7.6165   23.9728 H   0  0  0  0  0  0
  -21.1468   -6.0530   25.9074 H   0  0  0  0  0  0
  -22.0584   -2.7628   23.2838 H   0  0  0  0  0  0
  -22.3946  -11.9936   22.4910 H   0  0  0  0  0  0
  -21.0981  -13.1316   22.2606 H   0  0  0  0  0  0
  -24.6187  -15.8453   20.5355 H   0  0  0  0  0  0
  -26.2241  -15.6462   20.0517 H   0  0  0  0  0  0
  -26.7510  -32.4930   23.0802 H   0  0  0  0  0  0
  -25.0044  -33.9336   25.0048 H   0  0  0  0  0  0
  -22.8380  -31.2422   21.3180 H   0  0  0  0  0  0
  -23.3766  -35.9474   23.3314 H   0  0  0  0  0  0
  -24.3550  -36.8819   22.2074 H   0  0  0  0  0  0
  -23.7248  -37.6329   23.6734 H   0  0  0  0  0  0
  -26.2996  -31.2621   20.6336 H   0  0  0  0  0  0
  -26.9405  -30.5940   22.0877 H   0  0  0  0  0  0
  -28.1702  -28.3875   21.3175 H   0  0  0  0  0  0
  -25.8368  -25.6243   19.0005 H   0  0  0  0  0  0
  -24.0346  -27.2225   18.9298 H   0  0  0  0  0  0
  -23.9385  -30.4622   19.3809 H   0  0  0  0  0  0
  -22.8670  -29.1707   19.8183 H   0  0  0  0  0  0
  -25.1356  -36.1677   25.0782 H   0  0  0  0  0  0
  -21.0050  -28.3424   24.1256 H   0  0  0  0  0  0
  -20.5681  -26.2414   23.3672 H   0  0  0  0  0  0
  -21.6665  -26.7406   22.1222 H   0  0  0  0  0  0
  -19.6943  -25.6260   21.1305 H   0  0  0  0  0  0
  -19.6716  -27.3128   20.6711 H   0  0  0  0  0  0
  -17.4234  -26.6686   21.4029 H   0  0  0  0  0  0
  -18.0358  -26.0114   22.9038 H   0  0  0  0  0  0
  -19.7984  -30.7347   24.2177 H   0  0  0  0  0  0
  -17.5047  -31.6280   24.5152 H   0  0  0  0  0  0
  -15.5385  -30.2967   23.7717 H   0  0  0  0  0  0
  -15.8717  -28.0798   22.7146 H   0  0  0  0  0  0
  -24.5799  -30.7229   25.7618 H   0  0  0  0  0  0
  -24.8872  -32.3079   26.4619 H   0  0  0  0  0  0
  -25.7811  -30.9063   27.0213 H   0  0  0  0  0  0
  -26.3241  -29.6455   24.1626 H   0  0  0  0  0  0
  -27.3904  -29.7297   25.5392 H   0  0  0  0  0  0
  -27.9230  -30.3949   24.0189 H   0  0  0  0  0  0
  -27.2534  -33.3706   26.1973 H   0  0  0  0  0  0
  -28.3909  -32.6911   25.0441 H   0  0  0  0  0  0
  -28.0616  -31.8624   26.5584 H   0  0  0  0  0  0
  -28.2584  -38.0028   24.7482 H   0  0  0  0  0  0
  -28.1046  -36.2561   24.6351 H   0  0  0  0  0  0
  -27.2272  -37.1450   25.8871 H   0  0  0  0  0  0
  -20.9726  -29.8680   21.6503 H   0  0  0  0  0  0
  -26.0113  -38.2719   24.1370 H   0  0  0  0  0  0
  -29.5215  -19.2595   22.3514 H   0  0  0  0  0  0
  -29.7968  -21.3695   23.3516 H   0  0  0  0  0  0
  -28.0755  -21.7704   23.1954 H   0  0  0  0  0  0
  -29.3168  -22.8970   22.6214 H   0  0  0  0  0  0
  -29.2995  -17.7750   17.8668 H   0  0  0  0  0  0
  -29.6704  -19.3019   17.0941 H   0  0  0  0  0  0
  -27.9878  -18.8482   17.3930 H   0  0  0  0  0  0
  -27.0960  -23.6596   20.9202 H   0  0  0  0  0  0
  -27.3014  -23.7284   19.2294 H   0  0  0  0  0  0
  -28.5316  -16.5810   20.4912 H   0  0  0  0  0  0
  1 25  1  0  0  0
  1 30  2  0  0  0
  1 80  1  0  0  0
  2  3  1  0  0  0
  2 25  1  0  0  0
  2 82  1  0  0  0
  2 83  1  0  0  0
  3  4  1  0  0  0
  3 84  1  0  0  0
  3 85  1  0  0  0
  4  5  1  0  0  0
  4 86  1  0  0  0
  4 87  1  0  0  0
  5  6  1  0  0  0
  5 26  1  0  0  0
  5 88  1  0  0  0
  6 25  1  0  0  0
  6 89  1  0  0  0
  6 90  1  0  0  0
  7  8  2  0  0  0
  7 26  1  0  0  0
  7 29  1  0  0  0
  8  9  1  0  0  0
  8 22  1  0  0  0
  9 10  1  0  0  0
  9 27  2  0  0  0
 10 11  2  0  0  0
 10 15  1  0  0  0
 11 12  1  0  0  0
 11 91  1  0  0  0
 12 13  2  0  0  0
 12 92  1  0  0  0
 13 14  1  0  0  0
 13 31  1  0  0  0
 14 15  2  0  0  0
 14 93  1  0  0  0
 15 94  1  0  0  0
 16 17  2  0  0  0
 16 21  1  0  0  0
 16 31  1  0  0  0
 17 18  1  0  0  0
 17 95  1  0  0  0
 18 19  2  0  0  0
 18 96  1  0  0  0
 19 20  1  0  0  0
 19 24  1  0  0  0
 20 21  2  0  0  0
 20 97  1  0  0  0
 21 23  1  0  0  0
 22 28  1  0  0  0
 22 32  2  0  0  0
 26 27  1  0  0  0
 28 98  1  0  0  0
 28 99  1  0  0  0
 29100  1  0  0  0
 29101  1  0  0  0
 33 34  1  0  0  0
 33 66  1  0  0  0
 33 70  2  0  0  0
 34 36  1  0  0  0
 34 59  1  0  0  0
 34102  1  0  0  0
 35 44  2  0  0  0
 35 45  1  0  0  0
 35 68  1  0  0  0
 36 56  1  0  0  0
 36103  1  0  0  0
 37 39  1  0  0  0
 37 47  1  0  0  0
 37 66  1  0  0  0
 37104  1  0  0  0
 38 43  2  0  0  0
 38 46  1  0  0  0
 38 47  1  0  0  0
 39 64  1  0  0  0
 39 67  2  0  0  0
 40 52  1  0  0  0
 40 53  2  0  0  0
 40 58  1  0  0  0
 41105  1  0  0  0
 41106  1  0  0  0
 41107  1  0  0  0
 41 48  1  0  0  0
 42 43  1  0  0  0
 42 66  1  0  0  0
 42108  1  0  0  0
 42109  1  0  0  0
 43 44  1  0  0  0
 44110  1  0  0  0
 45 46  2  0  0  0
 45111  1  0  0  0
 46112  1  0  0  0
 47113  1  0  0  0
 47114  1  0  0  0
 48 56  1  0  0  0
 48 65  1  0  0  0
 48115  1  0  0  0
 49 50  1  0  0  0
 49 53  1  0  0  0
 49 64  1  0  0  0
 49116  1  0  0  0
 50 51  1  0  0  0
 50117  1  0  0  0
 50118  1  0  0  0
 51 52  1  0  0  0
 51119  1  0  0  0
 51120  1  0  0  0
 52121  1  0  0  0
 52122  1  0  0  0
 53 54  1  0  0  0
 54 55  2  0  0  0
 54123  1  0  0  0
 55 57  1  0  0  0
 55124  1  0  0  0
 56 69  2  0  0  0
 57 58  2  0  0  0
 57125  1  0  0  0
 58126  1  0  0  0
 59 60  1  0  0  0
 59 61  1  0  0  0
 59 62  1  0  0  0
 60127  1  0  0  0
 60128  1  0  0  0
 60129  1  0  0  0
 61130  1  0  0  0
 61131  1  0  0  0
 61132  1  0  0  0
 62133  1  0  0  0
 62134  1  0  0  0
 62135  1  0  0  0
 63 65  1  0  0  0
 63136  1  0  0  0
 63137  1  0  0  0
 63138  1  0  0  0
 64139  1  0  0  0
 65140  1  0  0  0
 68 79  1  0  0  0
 71 72  2  0  0  0
 71 75  1  0  0  0
 71141  1  0  0  0
 72 73  1  0  0  0
 72 77  1  0  0  0
 73 76  2  0  0  0
 73 79  1  0  0  0
 74 75  2  0  0  0
 74 76  1  0  0  0
 74 78  1  0  0  0
 75 80  1  0  0  0
 76 81  1  0  0  0
 77142  1  0  0  0
 77143  1  0  0  0
 77144  1  0  0  0
 78145  1  0  0  0
 78146  1  0  0  0
 78147  1  0  0  0
 79148  1  0  0  0
 79149  1  0  0  0
 80150  1  0  0  0
M  ISO  4   1 100  68 101  79 101  80 100
M  END
> <chiral flag>
0

> <version>
0

> <s_m_source_file>
/data/baiqing/PycharmProjects/Reinvent-master-3.2/result/LINK_invent/BTK/process_docking_weight1_custom_sum_contain_oxygen_bond_distance_aromatic_linkinvent_7_9_3/rearranged_h_0018.sdf

> <i_m_source_file_index>
28

> <r_mmod_Potential_Energy-OPLS-2005>
2296.1015625

> <r_mmod_Stretch_Energy-OPLS-2005>
930.632019042969

> <r_mmod_Bend_Energy-OPLS-2005>
644.466430664062

> <r_mmod_Torsional_Energy-OPLS-2005>
264.852722167969

> <r_mmod_Improper_Torsional_Energy-OPLS-2005>
10.1216259002686

> <r_mmod_Van_der_Waal_Energy-OPLS-2005>
132.983001708984

> <r_mmod_Electrostatic_Energy-OPLS-2005>
-339.216369628906

> <r_mmod_Solvation_Energy-OPLS-2005>
-210.724578857422

> <b_mmod_Minimization_Converged-OPLS-2005>
0

> <r_mmod_RMS_Derivative-OPLS-2005>
2.3817024230957

$$$$
29
                    3D
 Structure written by MMmdl.
153161  0  0  1  0            999 V2000
  -30.4376  -15.1912   20.3759 C   0  0  0  0  0  0
  -30.4488  -12.7534   19.5125 C   0  0  0  0  0  0
  -29.5360  -12.5692   18.2741 C   0  0  0  0  0  0
  -28.0790  -12.3058   18.6990 C   0  0  0  0  0  0
  -27.6178  -13.2639   19.8259 C   0  0  2  0  0  0
  -28.6577  -13.3921   20.9593 C   0  0  0  0  0  0
  -25.2402  -13.8163   20.5734 C   0  0  0  0  0  0
  -24.1749  -13.0383   20.9262 C   0  0  0  0  0  0
  -24.6404  -11.6887   20.8760 C   0  0  0  0  0  0
  -23.9091  -10.4265   21.0408 C   0  0  0  0  0  0
  -24.3634   -9.4182   21.9188 C   0  0  0  0  0  0
  -23.6299   -8.2224   22.0757 C   0  0  0  0  0  0
  -22.4279   -8.0272   21.3544 C   0  0  0  0  0  0
  -21.9921   -9.0247   20.4645 C   0  0  0  0  0  0
  -22.7262  -10.2118   20.3056 C   0  0  0  0  0  0
  -21.6850   -6.0734   22.5280 C   0  0  0  0  0  0
  -21.4011   -6.5638   23.8213 C   0  0  0  0  0  0
  -21.3659   -5.6791   24.9176 C   0  0  0  0  0  0
  -21.6045   -4.3054   24.7226 C   0  0  0  0  0  0
  -21.8817   -3.8146   23.4346 C   0  0  0  0  0  0
  -21.9188   -4.6961   22.3402 C   0  0  0  0  0  0
  -22.7772  -13.5162   21.1909 C   0  0  0  0  0  0
  -22.1659   -4.2149   21.0980 F   0  0  0  0  0  0
  -21.5630   -3.4537   25.7737 F   0  0  0  0  0  0
  -29.9005  -13.8809   20.3405 N   0  0  0  0  0  0
  -26.2844  -12.9450   20.3210 N   0  0  0  0  0  0
  -25.9342  -11.6565   20.5715 N   0  0  0  0  0  0
  -22.0418  -12.8158   22.0465 N   0  0  0  0  0  0
  -25.3972  -15.1869   20.4160 N   0  0  0  0  0  0
  -31.6585  -15.2417   20.1707 O   0  0  0  0  0  0
  -21.6633   -6.8876   21.4244 O   0  0  0  0  0  0
  -22.3456  -14.5466   20.6747 O   0  0  0  0  0  0
  -24.6576  -31.8286   23.1739 C   0  0  0  0  0  0
  -25.9277  -32.4616   23.8190 C   0  0  1  0  0  0
  -27.2286  -26.9865   20.1761 C   0  0  0  0  0  0
  -25.5965  -33.8429   24.2097 N   0  0  0  0  0  0
  -23.4699  -30.4403   21.5225 C   0  0  2  0  0  0
  -24.9242  -28.8345   20.1129 C   0  0  0  0  0  0
  -22.7639  -29.4465   22.4807 C   0  0  0  0  0  0
  -18.0314  -28.1406   22.8465 C   0  0  0  0  0  0
  -24.1494  -36.7220   23.2646 C   0  0  0  0  0  0
  -26.0353  -30.6542   21.3947 C   0  0  0  0  0  0
  -26.1062  -29.2494   20.7389 C   0  0  0  0  0  0
  -27.2543  -28.3459   20.7445 C   0  0  0  0  0  0
  -26.0157  -26.7054   19.5092 C   0  0  0  0  0  0
  -24.9005  -27.5812   19.4790 C   0  0  0  0  0  0
  -23.7066  -29.7552   20.1484 C   0  0  0  0  0  0
  -25.4133  -36.2986   24.0303 C   0  0  1  0  0  0
  -20.5935  -28.3744   23.1203 C   0  0  2  0  0  0
  -20.6795  -26.9432   22.5404 C   0  0  0  0  0  0
  -19.5772  -26.6377   21.5213 C   0  0  0  0  0  0
  -18.1952  -26.7940   22.1619 C   0  0  0  0  0  0
  -19.1573  -28.8894   23.2822 C   0  0  0  0  0  0
  -18.9486  -30.1487   23.8856 C   0  0  0  0  0  0
  -17.6480  -30.6597   24.0554 C   0  0  0  0  0  0
  -25.9092  -34.9367   23.5018 C   0  0  0  0  0  0
  -16.5372  -29.9084   23.6342 C   0  0  0  0  0  0
  -16.7298  -28.6505   23.0360 C   0  0  0  0  0  0
  -26.4545  -31.6545   25.0700 C   0  0  0  0  0  0
  -25.3682  -31.3778   26.1362 C   0  0  0  0  0  0
  -27.0436  -30.2921   24.6394 C   0  0  0  0  0  0
  -27.6046  -32.4346   25.7500 C   0  0  0  0  0  0
  -27.5572  -37.1768   24.8465 C   0  0  0  0  0  0
  -21.4314  -29.3043   22.3557 N   0  0  0  0  0  0
  -26.4283  -37.3716   23.9406 N   0  0  0  0  0  0
  -24.7417  -31.0000   22.0845 N   0  0  0  0  0  0
  -23.4210  -28.8036   23.3031 O   0  0  0  0  0  0
  -28.2603  -25.9287   20.2477 O   0  0  0  0  0  0
  -26.5702  -34.8892   22.4614 O   0  0  0  0  0  0
  -23.5659  -32.1232   23.6867 O   0  0  0  0  0  0
  -30.3224  -20.4430   20.8109 C   0  0  0  0  0  0
  -28.2415  -20.2579   19.8617 C   0  0  0  0  0  0
  -29.1893  -21.2380   20.3457 C   0  0  0  0  0  0
  -30.4996  -18.9676   20.8226 C   0  0  0  0  0  0
  -28.3917  -18.7767   19.8569 C   0  0  0  0  0  0
  -29.5389  -17.9880   20.3429 C   0  0  0  0  0  0
  -31.7883  -18.4306   21.4155 C   0  0  0  0  0  0
  -29.1714  -22.9762   20.3896 C   0  0  0  0  0  0
  -28.0476  -24.3174   20.1198 C   0  0  0  0  0  0
  -27.1790  -18.0533   19.2830 C   0  0  0  0  0  0
  -29.5764  -16.3800   20.4199 N   0  0  0  0  0  0
  -26.2321  -17.9748   20.2157 F   0  0  0  0  0  0
  -27.4429  -16.8349   18.8103 F   0  0  0  0  0  0
  -31.4698  -12.9581   19.1876 H   0  0  0  0  0  0
  -30.5024  -11.8328   20.0957 H   0  0  0  0  0  0
  -29.9012  -11.7532   17.6493 H   0  0  0  0  0  0
  -29.5777  -13.4689   17.6581 H   0  0  0  0  0  0
  -28.0198  -11.2749   19.0501 H   0  0  0  0  0  0
  -27.4107  -12.3747   17.8395 H   0  0  0  0  0  0
  -27.5440  -14.2417   19.3504 H   0  0  0  0  0  0
  -28.8067  -12.4417   21.4737 H   0  0  0  0  0  0
  -28.3135  -14.1018   21.7129 H   0  0  0  0  0  0
  -25.2777   -9.5658   22.4768 H   0  0  0  0  0  0
  -24.0000   -7.4614   22.7481 H   0  0  0  0  0  0
  -21.0848   -8.8775   19.8955 H   0  0  0  0  0  0
  -22.3726  -10.9662   19.6167 H   0  0  0  0  0  0
  -21.2006   -7.6147   23.9718 H   0  0  0  0  0  0
  -21.1486   -6.0521   25.9080 H   0  0  0  0  0  0
  -22.0598   -2.7609   23.2844 H   0  0  0  0  0  0
  -22.4038  -11.9828   22.4869 H   0  0  0  0  0  0
  -21.1033  -13.1187   22.2659 H   0  0  0  0  0  0
  -24.6201  -15.8258   20.5362 H   0  0  0  0  0  0
  -26.2171  -15.6367   20.0346 H   0  0  0  0  0  0
  -26.7345  -32.5172   23.0910 H   0  0  0  0  0  0
  -25.0063  -33.9517   25.0213 H   0  0  0  0  0  0
  -22.7804  -31.2703   21.3538 H   0  0  0  0  0  0
  -23.3767  -35.9539   23.3283 H   0  0  0  0  0  0
  -24.3570  -36.8890   22.2065 H   0  0  0  0  0  0
  -23.7238  -37.6397   23.6716 H   0  0  0  0  0  0
  -26.2081  -31.3995   20.6172 H   0  0  0  0  0  0
  -26.8983  -30.7104   22.0467 H   0  0  0  0  0  0
  -28.1522  -28.6629   21.2562 H   0  0  0  0  0  0
  -25.9008  -25.7453   19.0278 H   0  0  0  0  0  0
  -24.0004  -27.2565   18.9753 H   0  0  0  0  0  0
  -23.8566  -30.5238   19.3893 H   0  0  0  0  0  0
  -22.8179  -29.2054   19.8333 H   0  0  0  0  0  0
  -25.1330  -36.1788   25.0795 H   0  0  0  0  0  0
  -21.0022  -28.3347   24.1328 H   0  0  0  0  0  0
  -20.5677  -26.2363   23.3637 H   0  0  0  0  0  0
  -21.6660  -26.7419   22.1210 H   0  0  0  0  0  0
  -19.6933  -25.6275   21.1274 H   0  0  0  0  0  0
  -19.6713  -27.3159   20.6720 H   0  0  0  0  0  0
  -17.4221  -26.6677   21.4024 H   0  0  0  0  0  0
  -18.0352  -26.0095   22.9028 H   0  0  0  0  0  0
  -19.7962  -30.7312   24.2210 H   0  0  0  0  0  0
  -17.5033  -31.6274   24.5162 H   0  0  0  0  0  0
  -15.5370  -30.2973   23.7695 H   0  0  0  0  0  0
  -15.8697  -28.0812   22.7101 H   0  0  0  0  0  0
  -24.5872  -30.7124   25.7664 H   0  0  0  0  0  0
  -24.8861  -32.2974   26.4689 H   0  0  0  0  0  0
  -25.7920  -30.9002   27.0205 H   0  0  0  0  0  0
  -26.3089  -29.6606   24.1386 H   0  0  0  0  0  0
  -27.3975  -29.7275   25.5029 H   0  0  0  0  0  0
  -27.9028  -30.4120   23.9792 H   0  0  0  0  0  0
  -27.2618  -33.3681   26.1975 H   0  0  0  0  0  0
  -28.3909  -32.6853   25.0367 H   0  0  0  0  0  0
  -28.0657  -31.8541   26.5499 H   0  0  0  0  0  0
  -28.2573  -38.0079   24.7515 H   0  0  0  0  0  0
  -28.1085  -36.2606   24.6290 H   0  0  0  0  0  0
  -27.2290  -37.1409   25.8867 H   0  0  0  0  0  0
  -20.9561  -29.8730   21.6688 H   0  0  0  0  0  0
  -26.0135  -38.2777   24.1411 H   0  0  0  0  0  0
  -31.1461  -21.0205   21.2076 H   0  0  0  0  0  0
  -27.3194  -20.6567   19.4616 H   0  0  0  0  0  0
  -32.3480  -19.2035   21.9427 H   0  0  0  0  0  0
  -32.4258  -18.0263   20.6293 H   0  0  0  0  0  0
  -31.5788  -17.6320   22.1278 H   0  0  0  0  0  0
  -30.0137  -23.2236   19.7437 H   0  0  0  0  0  0
  -29.5532  -23.1759   21.3907 H   0  0  0  0  0  0
  -27.1897  -24.1089   20.7590 H   0  0  0  0  0  0
  -27.6725  -24.1740   19.1065 H   0  0  0  0  0  0
  -26.7567  -18.6118   18.4464 H   0  0  0  0  0  0
  -28.6313  -16.0293   20.4287 H   0  0  0  0  0  0
  1 25  1  0  0  0
  1 30  2  0  0  0
  1 81  1  0  0  0
  2  3  1  0  0  0
  2 25  1  0  0  0
  2 84  1  0  0  0
  2 85  1  0  0  0
  3  4  1  0  0  0
  3 86  1  0  0  0
  3 87  1  0  0  0
  4  5  1  0  0  0
  4 88  1  0  0  0
  4 89  1  0  0  0
  5  6  1  0  0  0
  5 26  1  0  0  0
  5 90  1  0  0  0
  6 25  1  0  0  0
  6 91  1  0  0  0
  6 92  1  0  0  0
  7  8  2  0  0  0
  7 26  1  0  0  0
  7 29  1  0  0  0
  8  9  1  0  0  0
  8 22  1  0  0  0
  9 10  1  0  0  0
  9 27  2  0  0  0
 10 11  2  0  0  0
 10 15  1  0  0  0
 11 12  1  0  0  0
 11 93  1  0  0  0
 12 13  2  0  0  0
 12 94  1  0  0  0
 13 14  1  0  0  0
 13 31  1  0  0  0
 14 15  2  0  0  0
 14 95  1  0  0  0
 15 96  1  0  0  0
 16 17  2  0  0  0
 16 21  1  0  0  0
 16 31  1  0  0  0
 17 18  1  0  0  0
 17 97  1  0  0  0
 18 19  2  0  0  0
 18 98  1  0  0  0
 19 20  1  0  0  0
 19 24  1  0  0  0
 20 21  2  0  0  0
 20 99  1  0  0  0
 21 23  1  0  0  0
 22 28  1  0  0  0
 22 32  2  0  0  0
 26 27  1  0  0  0
 28100  1  0  0  0
 28101  1  0  0  0
 29102  1  0  0  0
 29103  1  0  0  0
 33 34  1  0  0  0
 33 66  1  0  0  0
 33 70  2  0  0  0
 34 36  1  0  0  0
 34 59  1  0  0  0
 34104  1  0  0  0
 35 44  2  0  0  0
 35 45  1  0  0  0
 35 68  1  0  0  0
 36 56  1  0  0  0
 36105  1  0  0  0
 37 39  1  0  0  0
 37 47  1  0  0  0
 37 66  1  0  0  0
 37106  1  0  0  0
 38 43  2  0  0  0
 38 46  1  0  0  0
 38 47  1  0  0  0
 39 64  1  0  0  0
 39 67  2  0  0  0
 40 52  1  0  0  0
 40 53  2  0  0  0
 40 58  1  0  0  0
 41107  1  0  0  0
 41108  1  0  0  0
 41109  1  0  0  0
 41 48  1  0  0  0
 42 43  1  0  0  0
 42 66  1  0  0  0
 42110  1  0  0  0
 42111  1  0  0  0
 43 44  1  0  0  0
 44112  1  0  0  0
 45 46  2  0  0  0
 45113  1  0  0  0
 46114  1  0  0  0
 47115  1  0  0  0
 47116  1  0  0  0
 48 56  1  0  0  0
 48 65  1  0  0  0
 48117  1  0  0  0
 49 50  1  0  0  0
 49 53  1  0  0  0
 49 64  1  0  0  0
 49118  1  0  0  0
 50 51  1  0  0  0
 50119  1  0  0  0
 50120  1  0  0  0
 51 52  1  0  0  0
 51121  1  0  0  0
 51122  1  0  0  0
 52123  1  0  0  0
 52124  1  0  0  0
 53 54  1  0  0  0
 54 55  2  0  0  0
 54125  1  0  0  0
 55 57  1  0  0  0
 55126  1  0  0  0
 56 69  2  0  0  0
 57 58  2  0  0  0
 57127  1  0  0  0
 58128  1  0  0  0
 59 60  1  0  0  0
 59 61  1  0  0  0
 59 62  1  0  0  0
 60129  1  0  0  0
 60130  1  0  0  0
 60131  1  0  0  0
 61132  1  0  0  0
 61133  1  0  0  0
 61134  1  0  0  0
 62135  1  0  0  0
 62136  1  0  0  0
 62137  1  0  0  0
 63 65  1  0  0  0
 63138  1  0  0  0
 63139  1  0  0  0
 63140  1  0  0  0
 64141  1  0  0  0
 65142  1  0  0  0
 68 79  1  0  0  0
 71 73  2  0  0  0
 71 74  1  0  0  0
 71143  1  0  0  0
 72 73  1  0  0  0
 72 75  2  0  0  0
 72144  1  0  0  0
 73 78  1  0  0  0
 74 76  2  0  0  0
 74 77  1  0  0  0
 75 76  1  0  0  0
 75 80  1  0  0  0
 76 81  1  0  0  0
 77145  1  0  0  0
 77146  1  0  0  0
 77147  1  0  0  0
 78 79  1  0  0  0
 78148  1  0  0  0
 78149  1  0  0  0
 79150  1  0  0  0
 79151  1  0  0  0
 80 82  1  0  0  0
 80 83  1  0  0  0
 80152  1  0  0  0
 81153  1  0  0  0
M  ISO  4   1 100  68 101  79 101  81 100
M  END
> <chiral flag>
0

> <version>
0

> <s_m_source_file>
/data/baiqing/PycharmProjects/Reinvent-master-3.2/result/LINK_invent/BTK/process_docking_weight1_custom_sum_contain_oxygen_bond_distance_aromatic_linkinvent_7_9_3/rearranged_h_0018.sdf

> <i_m_source_file_index>
29

> <r_mmod_Potential_Energy-OPLS-2005>
1033.64331054688

> <r_mmod_Stretch_Energy-OPLS-2005>
454.293395996094

> <r_mmod_Bend_Energy-OPLS-2005>
416.834197998047

> <r_mmod_Torsional_Energy-OPLS-2005>
218.70133972168

> <r_mmod_Improper_Torsional_Energy-OPLS-2005>
5.42056035995483

> <r_mmod_Van_der_Waal_Energy-OPLS-2005>
126.752548217773

> <r_mmod_Electrostatic_Energy-OPLS-2005>
-366.118865966797

> <r_mmod_Solvation_Energy-OPLS-2005>
-201.775634765625

> <b_mmod_Minimization_Converged-OPLS-2005>
0

> <r_mmod_RMS_Derivative-OPLS-2005>
0.560110032558441

$$$$
30
                    3D
 Structure written by MMmdl.
154162  0  0  1  0            999 V2000
  -30.1731  -15.8159   20.2381 C   0  0  0  0  0  0
  -30.4014  -13.2028   19.5515 C   0  0  0  0  0  0
  -29.5423  -12.6961   18.3494 C   0  0  0  0  0  0
  -28.1305  -12.2976   18.8001 C   0  0  0  0  0  0
  -27.5789  -13.3265   19.8099 C   0  0  2  0  0  0
  -28.5791  -13.7297   20.9222 C   0  0  0  0  0  0
  -25.2229  -13.8326   20.5886 C   0  0  0  0  0  0
  -24.1651  -13.0442   20.9290 C   0  0  0  0  0  0
  -24.6383  -11.6968   20.8739 C   0  0  0  0  0  0
  -23.9109  -10.4308   21.0346 C   0  0  0  0  0  0
  -24.3632   -9.4248   21.9152 C   0  0  0  0  0  0
  -23.6326   -8.2265   22.0738 C   0  0  0  0  0  0
  -22.4316   -8.0288   21.3531 C   0  0  0  0  0  0
  -21.9935   -9.0256   20.4627 C   0  0  0  0  0  0
  -22.7254  -10.2149   20.3024 C   0  0  0  0  0  0
  -21.6869   -6.0756   22.5256 C   0  0  0  0  0  0
  -21.4065   -6.5660   23.8205 C   0  0  0  0  0  0
  -21.3672   -5.6798   24.9154 C   0  0  0  0  0  0
  -21.6025   -4.3061   24.7181 C   0  0  0  0  0  0
  -21.8815   -3.8167   23.4313 C   0  0  0  0  0  0
  -21.9204   -4.6973   22.3377 C   0  0  0  0  0  0
  -22.7639  -13.5151   21.1889 C   0  0  0  0  0  0
  -22.1656   -4.2180   21.0950 F   0  0  0  0  0  0
  -21.5590   -3.4540   25.7691 F   0  0  0  0  0  0
  -29.7291  -14.4008   20.2626 N   0  0  0  0  0  0
  -26.2693  -12.9690   20.3320 N   0  0  0  0  0  0
  -25.9331  -11.6749   20.5719 N   0  0  0  0  0  0
  -22.0361  -12.8137   22.0466 N   0  0  0  0  0  0
  -25.3865  -15.2090   20.4452 N   0  0  0  0  0  0
  -31.4063  -15.7633   20.0118 O   0  0  0  0  0  0
  -21.6683   -6.8895   21.4229 O   0  0  0  0  0  0
  -22.3336  -14.5449   20.6709 O   0  0  0  0  0  0
  -24.7046  -31.7830   23.1341 C   0  0  0  0  0  0
  -25.9498  -32.4422   23.7917 C   0  0  1  0  0  0
  -27.1463  -26.5049   20.1377 C   0  0  0  0  0  0
  -25.6004  -33.8245   24.1848 N   0  0  0  0  0  0
  -23.5352  -30.3958   21.4907 C   0  0  2  0  0  0
  -24.9614  -28.7062   20.1027 C   0  0  0  0  0  0
  -22.7879  -29.4315   22.4558 C   0  0  0  0  0  0
  -18.0414  -28.1581   22.8552 C   0  0  0  0  0  0
  -24.1410  -36.7098   23.2635 C   0  0  0  0  0  0
  -26.1251  -30.4339   21.4288 C   0  0  0  0  0  0
  -26.1564  -28.9852   20.7730 C   0  0  0  0  0  0
  -27.2266  -27.9128   20.7671 C   0  0  0  0  0  0
  -25.9584  -26.5373   19.3537 C   0  0  0  0  0  0
  -24.9083  -27.5155   19.3719 C   0  0  0  0  0  0
  -23.7859  -29.7087   20.1264 C   0  0  0  0  0  0
  -25.4086  -36.2857   24.0265 C   0  0  1  0  0  0
  -20.6076  -28.3934   23.1133 C   0  0  2  0  0  0
  -20.6903  -26.9603   22.5467 C   0  0  0  0  0  0
  -19.5838  -26.6505   21.5317 C   0  0  0  0  0  0
  -18.2024  -26.8157   22.1696 C   0  0  0  0  0  0
  -19.1714  -28.9081   23.2833 C   0  0  0  0  0  0
  -18.9610  -30.1631   23.8922 C   0  0  0  0  0  0
  -17.6614  -30.6754   24.0676 C   0  0  0  0  0  0
  -25.9136  -34.9275   23.4911 C   0  0  0  0  0  0
  -16.5461  -29.9313   23.6401 C   0  0  0  0  0  0
  -16.7386  -28.6715   23.0433 C   0  0  0  0  0  0
  -26.4565  -31.6545   25.0637 C   0  0  0  0  0  0
  -25.3453  -31.4066   26.1109 C   0  0  0  0  0  0
  -27.0473  -30.2860   24.6703 C   0  0  0  0  0  0
  -27.6026  -32.4398   25.7431 C   0  0  0  0  0  0
  -27.5515  -37.1695   24.8444 C   0  0  0  0  0  0
  -21.4496  -29.3147   22.3372 N   0  0  0  0  0  0
  -26.4148  -37.3681   23.9522 N   0  0  0  0  0  0
  -24.8175  -30.9117   22.0706 N   0  0  0  0  0  0
  -23.4287  -28.7862   23.2880 O   0  0  0  0  0  0
  -28.0289  -25.1544   20.1221 O   0  0  0  0  0  0
  -26.5787  -34.8890   22.4568 O   0  0  0  0  0  0
  -23.6039  -32.0979   23.6185 O   0  0  0  0  0  0
  -28.8032  -20.8190   18.7417 C   0  0  0  0  0  0
  -28.5194  -21.5074   19.9468 C   0  0  0  0  0  0
  -28.7688  -20.0899   20.6968 C   0  0  0  0  0  0
  -29.1963  -18.7718   20.0406 C   0  0  0  0  0  0
  -27.3306  -18.6751   17.0962 C   0  0  0  0  0  0
  -26.9607  -23.2846   21.4904 C   0  0  0  0  0  0
  -26.6063  -23.1631   19.0252 C   0  0  0  0  0  0
  -28.8219  -18.5862   17.5114 C   0  0  0  0  0  0
  -27.6954  -23.3234   20.1296 C   0  0  0  0  0  0
  -29.0205  -19.3597   18.7502 N   0  0  0  0  0  0
  -29.3622  -17.1872   20.3812 N   0  0  0  0  0  0
  -28.3686  -20.0280   22.3802 Cl  0  0  0  0  0  0
  -31.3833  -13.4874   19.1678 H   0  0  0  0  0  0
  -30.6107  -12.3953   20.2574 H   0  0  0  0  0  0
  -30.0289  -11.8552   17.8534 H   0  0  0  0  0  0
  -29.4622  -13.4927   17.6092 H   0  0  0  0  0  0
  -28.1816  -11.3173   19.2772 H   0  0  0  0  0  0
  -27.4682  -12.1918   17.9414 H   0  0  0  0  0  0
  -27.4104  -14.2223   19.2063 H   0  0  0  0  0  0
  -28.8782  -12.8789   21.5307 H   0  0  0  0  0  0
  -28.1152  -14.4421   21.6037 H   0  0  0  0  0  0
  -25.2751   -9.5753   22.4744 H   0  0  0  0  0  0
  -24.0017   -7.4677   22.7482 H   0  0  0  0  0  0
  -21.0840   -8.8763   19.8966 H   0  0  0  0  0  0
  -22.3656  -10.9668   19.6136 H   0  0  0  0  0  0
  -21.2138   -7.6188   23.9721 H   0  0  0  0  0  0
  -21.1469   -6.0536   25.9058 H   0  0  0  0  0  0
  -22.0595   -2.7634   23.2784 H   0  0  0  0  0  0
  -22.4015  -11.9795   22.4782 H   0  0  0  0  0  0
  -21.0963  -13.1125   22.2686 H   0  0  0  0  0  0
  -24.6090  -15.8544   20.5404 H   0  0  0  0  0  0
  -26.2595  -15.6646   20.2102 H   0  0  0  0  0  0
  -26.7618  -32.4833   23.0612 H   0  0  0  0  0  0
  -25.0008  -33.9262   24.9936 H   0  0  0  0  0  0
  -22.8739  -31.2483   21.3012 H   0  0  0  0  0  0
  -23.3706  -35.9356   23.3163 H   0  0  0  0  0  0
  -24.3520  -36.8937   22.2079 H   0  0  0  0  0  0
  -23.7065  -37.6219   23.6809 H   0  0  0  0  0  0
  -26.3641  -31.1458   20.6354 H   0  0  0  0  0  0
  -26.9719  -30.4882   22.0996 H   0  0  0  0  0  0
  -28.1152  -28.1321   21.3372 H   0  0  0  0  0  0
  -25.8096  -25.7289   18.6616 H   0  0  0  0  0  0
  -24.0379  -27.3455   18.7555 H   0  0  0  0  0  0
  -24.0220  -30.4786   19.3868 H   0  0  0  0  0  0
  -22.8801  -29.2230   19.7614 H   0  0  0  0  0  0
  -25.1301  -36.1501   25.0734 H   0  0  0  0  0  0
  -21.0219  -28.3550   24.1239 H   0  0  0  0  0  0
  -20.5944  -26.2563   23.3732 H   0  0  0  0  0  0
  -21.6713  -26.7662   22.1132 H   0  0  0  0  0  0
  -19.7018  -25.6415   21.1435 H   0  0  0  0  0  0
  -19.6793  -27.3273   20.6824 H   0  0  0  0  0  0
  -17.4323  -26.7001   21.4015 H   0  0  0  0  0  0
  -18.0249  -26.0379   22.9137 H   0  0  0  0  0  0
  -19.8064  -30.7497   24.2275 H   0  0  0  0  0  0
  -17.5181  -31.6455   24.5314 H   0  0  0  0  0  0
  -15.5497  -30.3289   23.7745 H   0  0  0  0  0  0
  -15.8744  -28.1089   22.7136 H   0  0  0  0  0  0
  -24.5676  -30.7414   25.7368 H   0  0  0  0  0  0
  -24.8500  -32.3332   26.4044 H   0  0  0  0  0  0
  -25.7335  -30.9557   27.0211 H   0  0  0  0  0  0
  -26.3179  -29.6387   24.1846 H   0  0  0  0  0  0
  -27.3973  -29.7485   25.5514 H   0  0  0  0  0  0
  -27.9133  -30.4027   24.0194 H   0  0  0  0  0  0
  -27.2705  -33.3905   26.1618 H   0  0  0  0  0  0
  -28.3977  -32.6638   25.0292 H   0  0  0  0  0  0
  -28.0439  -31.8712   26.5606 H   0  0  0  0  0  0
  -28.2442  -38.0103   24.7737 H   0  0  0  0  0  0
  -28.1131  -36.2687   24.5945 H   0  0  0  0  0  0
  -27.2329  -37.0932   25.8855 H   0  0  0  0  0  0
  -20.9756  -29.8810   21.6485 H   0  0  0  0  0  0
  -25.9911  -38.2653   24.1763 H   0  0  0  0  0  0
  -28.6989  -21.2291   17.7389 H   0  0  0  0  0  0
  -26.9941  -17.8376   16.4849 H   0  0  0  0  0  0
  -27.1305  -19.5953   16.5418 H   0  0  0  0  0  0
  -26.6868  -18.6938   17.9769 H   0  0  0  0  0  0
  -26.2994  -22.4211   21.5880 H   0  0  0  0  0  0
  -26.3464  -24.1756   21.6328 H   0  0  0  0  0  0
  -27.6746  -23.2463   22.3152 H   0  0  0  0  0  0
  -26.2093  -22.1436   18.9792 H   0  0  0  0  0  0
  -26.9943  -23.3709   18.0243 H   0  0  0  0  0  0
  -25.7152  -23.7633   19.2102 H   0  0  0  0  0  0
  -29.4668  -18.9649   16.7140 H   0  0  0  0  0  0
  -29.0936  -17.5354   17.6560 H   0  0  0  0  0  0
  -28.5353  -16.9116   20.8896 H   0  0  0  0  0  0
  1 25  1  0  0  0
  1 30  2  0  0  0
  1 81  1  0  0  0
  2  3  1  0  0  0
  2 25  1  0  0  0
  2 83  1  0  0  0
  2 84  1  0  0  0
  3  4  1  0  0  0
  3 85  1  0  0  0
  3 86  1  0  0  0
  4  5  1  0  0  0
  4 87  1  0  0  0
  4 88  1  0  0  0
  5  6  1  0  0  0
  5 26  1  0  0  0
  5 89  1  0  0  0
  6 25  1  0  0  0
  6 90  1  0  0  0
  6 91  1  0  0  0
  7  8  2  0  0  0
  7 26  1  0  0  0
  7 29  1  0  0  0
  8  9  1  0  0  0
  8 22  1  0  0  0
  9 10  1  0  0  0
  9 27  2  0  0  0
 10 11  2  0  0  0
 10 15  1  0  0  0
 11 12  1  0  0  0
 11 92  1  0  0  0
 12 13  2  0  0  0
 12 93  1  0  0  0
 13 14  1  0  0  0
 13 31  1  0  0  0
 14 15  2  0  0  0
 14 94  1  0  0  0
 15 95  1  0  0  0
 16 17  2  0  0  0
 16 21  1  0  0  0
 16 31  1  0  0  0
 17 18  1  0  0  0
 17 96  1  0  0  0
 18 19  2  0  0  0
 18 97  1  0  0  0
 19 20  1  0  0  0
 19 24  1  0  0  0
 20 21  2  0  0  0
 20 98  1  0  0  0
 21 23  1  0  0  0
 22 28  1  0  0  0
 22 32  2  0  0  0
 26 27  1  0  0  0
 28 99  1  0  0  0
 28100  1  0  0  0
 29101  1  0  0  0
 29102  1  0  0  0
 33 34  1  0  0  0
 33 66  1  0  0  0
 33 70  2  0  0  0
 34 36  1  0  0  0
 34 59  1  0  0  0
 34103  1  0  0  0
 35 44  2  0  0  0
 35 45  1  0  0  0
 35 68  1  0  0  0
 36 56  1  0  0  0
 36104  1  0  0  0
 37 39  1  0  0  0
 37 47  1  0  0  0
 37 66  1  0  0  0
 37105  1  0  0  0
 38 43  2  0  0  0
 38 46  1  0  0  0
 38 47  1  0  0  0
 39 64  1  0  0  0
 39 67  2  0  0  0
 40 52  1  0  0  0
 40 53  2  0  0  0
 40 58  1  0  0  0
 41106  1  0  0  0
 41107  1  0  0  0
 41108  1  0  0  0
 41 48  1  0  0  0
 42 43  1  0  0  0
 42 66  1  0  0  0
 42109  1  0  0  0
 42110  1  0  0  0
 43 44  1  0  0  0
 44111  1  0  0  0
 45 46  2  0  0  0
 45112  1  0  0  0
 46113  1  0  0  0
 47114  1  0  0  0
 47115  1  0  0  0
 48 56  1  0  0  0
 48 65  1  0  0  0
 48116  1  0  0  0
 49 50  1  0  0  0
 49 53  1  0  0  0
 49 64  1  0  0  0
 49117  1  0  0  0
 50 51  1  0  0  0
 50118  1  0  0  0
 50119  1  0  0  0
 51 52  1  0  0  0
 51120  1  0  0  0
 51121  1  0  0  0
 52122  1  0  0  0
 52123  1  0  0  0
 53 54  1  0  0  0
 54 55  2  0  0  0
 54124  1  0  0  0
 55 57  1  0  0  0
 55125  1  0  0  0
 56 69  2  0  0  0
 57 58  2  0  0  0
 57126  1  0  0  0
 58127  1  0  0  0
 59 60  1  0  0  0
 59 61  1  0  0  0
 59 62  1  0  0  0
 60128  1  0  0  0
 60129  1  0  0  0
 60130  1  0  0  0
 61131  1  0  0  0
 61132  1  0  0  0
 61133  1  0  0  0
 62134  1  0  0  0
 62135  1  0  0  0
 62136  1  0  0  0
 63 65  1  0  0  0
 63137  1  0  0  0
 63138  1  0  0  0
 63139  1  0  0  0
 64140  1  0  0  0
 65141  1  0  0  0
 68 79  1  0  0  0
 71 72  2  0  0  0
 71 80  1  0  0  0
 71142  1  0  0  0
 72 73  1  0  0  0
 72 79  1  0  0  0
 73 74  2  0  0  0
 73 82  1  0  0  0
 74 80  1  0  0  0
 74 81  1  0  0  0
 75 78  1  0  0  0
 75143  1  0  0  0
 75144  1  0  0  0
 75145  1  0  0  0
 76146  1  0  0  0
 76147  1  0  0  0
 76148  1  0  0  0
 76 79  1  0  0  0
 77 79  1  0  0  0
 77149  1  0  0  0
 77150  1  0  0  0
 77151  1  0  0  0
 78 80  1  0  0  0
 78152  1  0  0  0
 78153  1  0  0  0
 81154  1  0  0  0
M  ISO  4   1 100  68 101  79 101  81 100
M  END
> <chiral flag>
0

> <version>
0

> <s_m_source_file>
/data/baiqing/PycharmProjects/Reinvent-master-3.2/result/LINK_invent/BTK/process_docking_weight1_custom_sum_contain_oxygen_bond_distance_aromatic_linkinvent_7_9_3/rearranged_h_0018.sdf

> <i_m_source_file_index>
30

> <r_mmod_Potential_Energy-OPLS-2005>
3213.25708007812

> <r_mmod_Stretch_Energy-OPLS-2005>
1347.58386230469

> <r_mmod_Bend_Energy-OPLS-2005>
772.257568359375

> <r_mmod_Torsional_Energy-OPLS-2005>
297.203308105469

> <r_mmod_Improper_Torsional_Energy-OPLS-2005>
14.1356363296509

> <r_mmod_Van_der_Waal_Energy-OPLS-2005>
106.369758605957

> <r_mmod_Electrostatic_Energy-OPLS-2005>
-401.878143310547

> <r_mmod_Solvation_Energy-OPLS-2005>
-209.827499389648

> <b_mmod_Minimization_Converged-OPLS-2005>
0

> <r_mmod_RMS_Derivative-OPLS-2005>
11.8303899765015

$$$$
31
                    3D
 Structure written by MMmdl.
170177  0  0  1  0            999 V2000
  -30.6613  -14.7395   20.5618 C   0  0  0  0  0  0
  -30.4094  -12.4719   19.4875 C   0  0  0  0  0  0
  -29.5085  -12.5642   18.2375 C   0  0  0  0  0  0
  -28.0279  -12.3742   18.6252 C   0  0  0  0  0  0
  -27.6335  -13.2432   19.8447 C   0  0  2  0  0  0
  -28.6627  -13.1331   20.9814 C   0  0  0  0  0  0
  -25.2470  -13.8267   20.5741 C   0  0  0  0  0  0
  -24.1785  -13.0508   20.9256 C   0  0  0  0  0  0
  -24.6401  -11.6975   20.8781 C   0  0  0  0  0  0
  -23.9117  -10.4324   21.0451 C   0  0  0  0  0  0
  -24.3645   -9.4234   21.9248 C   0  0  0  0  0  0
  -23.6324   -8.2260   22.0788 C   0  0  0  0  0  0
  -22.4317   -8.0315   21.3571 C   0  0  0  0  0  0
  -21.9964   -9.0294   20.4684 C   0  0  0  0  0  0
  -22.7286  -10.2161   20.3121 C   0  0  0  0  0  0
  -21.6864   -6.0755   22.5271 C   0  0  0  0  0  0
  -21.4026   -6.5652   23.8210 C   0  0  0  0  0  0
  -21.3661   -5.6793   24.9165 C   0  0  0  0  0  0
  -21.6036   -4.3067   24.7209 C   0  0  0  0  0  0
  -21.8828   -3.8158   23.4332 C   0  0  0  0  0  0
  -21.9210   -4.6971   22.3394 C   0  0  0  0  0  0
  -22.7786  -13.5260   21.1887 C   0  0  0  0  0  0
  -22.1669   -4.2166   21.0981 F   0  0  0  0  0  0
  -21.5619   -3.4551   25.7725 F   0  0  0  0  0  0
  -29.9814  -13.5295   20.4508 N   0  0  0  0  0  0
  -26.2865  -12.9494   20.3183 N   0  0  0  0  0  0
  -25.9315  -11.6621   20.5679 N   0  0  0  0  0  0
  -22.0397  -12.8263   22.0388 N   0  0  0  0  0  0
  -25.4213  -15.2014   20.4262 N   0  0  0  0  0  0
  -31.7608  -14.7968   19.9971 O   0  0  0  0  0  0
  -21.6700   -6.8909   21.4238 O   0  0  0  0  0  0
  -22.3494  -14.5555   20.6689 O   0  0  0  0  0  0
  -24.6273  -31.8558   23.2003 C   0  0  0  0  0  0
  -25.9132  -32.4734   23.8324 C   0  0  1  0  0  0
  -27.2202  -27.2622   20.1101 C   0  0  0  0  0  0
  -25.5927  -33.8545   24.2239 N   0  0  0  0  0  0
  -23.4256  -30.4777   21.5416 C   0  0  2  0  0  0
  -24.8786  -28.9283   20.1012 C   0  0  0  0  0  0
  -22.7507  -29.4583   22.4892 C   0  0  0  0  0  0
  -18.0295  -28.1414   22.8455 C   0  0  0  0  0  0
  -24.1498  -36.7265   23.2619 C   0  0  0  0  0  0
  -25.9732  -30.7582   21.3934 C   0  0  0  0  0  0
  -26.0442  -29.3822   20.7320 C   0  0  0  0  0  0
  -27.2082  -28.5511   20.7439 C   0  0  0  0  0  0
  -26.0655  -26.9203   19.3837 C   0  0  0  0  0  0
  -24.8928  -27.7021   19.4209 C   0  0  0  0  0  0
  -23.6445  -29.8065   20.1580 C   0  0  0  0  0  0
  -25.4121  -36.3040   24.0296 C   0  0  1  0  0  0
  -20.5900  -28.3700   23.1253 C   0  0  2  0  0  0
  -20.6782  -26.9412   22.5403 C   0  0  0  0  0  0
  -19.5761  -26.6388   21.5216 C   0  0  0  0  0  0
  -18.1929  -26.7959   22.1614 C   0  0  0  0  0  0
  -19.1552  -28.8882   23.2844 C   0  0  0  0  0  0
  -18.9474  -30.1487   23.8864 C   0  0  0  0  0  0
  -17.6468  -30.6591   24.0574 C   0  0  0  0  0  0
  -25.9050  -34.9409   23.5059 C   0  0  0  0  0  0
  -16.5350  -29.9091   23.6344 C   0  0  0  0  0  0
  -16.7283  -28.6530   23.0343 C   0  0  0  0  0  0
  -26.4517  -31.6573   25.0715 C   0  0  0  0  0  0
  -25.3696  -31.3775   26.1409 C   0  0  0  0  0  0
  -27.0374  -30.2953   24.6246 C   0  0  0  0  0  0
  -27.6042  -32.4345   25.7498 C   0  0  0  0  0  0
  -27.5577  -37.1770   24.8448 C   0  0  0  0  0  0
  -21.4220  -29.3045   22.3642 N   0  0  0  0  0  0
  -26.4293  -37.3741   23.9385 N   0  0  0  0  0  0
  -24.6928  -31.0509   22.0996 N   0  0  0  0  0  0
  -23.4216  -28.8085   23.2952 O   0  0  0  0  0  0
  -28.3047  -26.3636   20.2158 O   0  0  0  0  0  0
  -26.5645  -34.8872   22.4645 O   0  0  0  0  0  0
  -23.5432  -32.1437   23.7280 O   0  0  0  0  0  0
  -28.9647  -21.2438   20.2455 C   0  0  0  0  0  0
  -29.4645  -17.2459   20.5982 C   0  0  0  0  0  0
  -29.4247  -15.7491   22.6575 C   0  0  0  0  0  0
  -31.5786  -16.7165   21.9442 C   0  0  0  0  0  0
  -25.2468  -24.2308   20.6389 C   0  0  0  0  0  0
  -26.1136  -22.6692   18.8591 C   0  0  0  0  0  0
  -25.8809  -21.9522   21.2357 C   0  0  0  0  0  0
  -29.0825  -22.4387   22.3833 C   0  0  0  0  0  0
  -28.7950  -19.7774   20.9048 C   0  0  0  0  0  0
  -28.3146  -24.9179   19.7546 C   0  0  0  0  0  0
  -27.7783  -23.6344   20.6262 C   0  0  1  0  0  0
  -30.2605  -16.0898   21.4012 C   0  0  0  0  0  0
  -26.2948  -23.1361   20.3246 C   0  0  0  0  0  0
  -29.7560  -18.5897   20.8064 N   0  0  0  0  0  0
  -28.6910  -22.4152   20.9617 N   0  0  0  0  0  0
  -29.2061  -21.2945   19.0375 O   0  0  0  0  0  0
  -28.4880  -16.9320   19.9147 O   0  0  0  0  0  0
  -31.4583  -12.5454   19.2024 H   0  0  0  0  0  0
  -30.3167  -11.4857   19.9456 H   0  0  0  0  0  0
  -29.8059  -11.8233   17.4959 H   0  0  0  0  0  0
  -29.6346  -13.5422   17.7677 H   0  0  0  0  0  0
  -27.8657  -11.3190   18.8430 H   0  0  0  0  0  0
  -27.3866  -12.6121   17.7756 H   0  0  0  0  0  0
  -27.6426  -14.2767   19.4975 H   0  0  0  0  0  0
  -28.6981  -12.1154   21.3733 H   0  0  0  0  0  0
  -28.2968  -13.7303   21.8033 H   0  0  0  0  0  0
  -25.2807   -9.5707   22.4838 H   0  0  0  0  0  0
  -24.0049   -7.4640   22.7494 H   0  0  0  0  0  0
  -21.0922   -8.8832   19.8966 H   0  0  0  0  0  0
  -22.3795  -10.9718   19.6236 H   0  0  0  0  0  0
  -21.2023   -7.6159   23.9715 H   0  0  0  0  0  0
  -21.1480   -6.0532   25.9061 H   0  0  0  0  0  0
  -22.0614   -2.7633   23.2832 H   0  0  0  0  0  0
  -22.3958  -11.9941   22.4862 H   0  0  0  0  0  0
  -21.0998  -13.1290   22.2477 H   0  0  0  0  0  0
  -24.6630  -15.8618   20.5558 H   0  0  0  0  0  0
  -26.2951  -15.6465   20.1625 H   0  0  0  0  0  0
  -26.7140  -32.5380   23.1022 H   0  0  0  0  0  0
  -25.0080  -33.9687   25.0376 H   0  0  0  0  0  0
  -22.7159  -31.2935   21.3911 H   0  0  0  0  0  0
  -23.3750  -35.9613   23.3301 H   0  0  0  0  0  0
  -24.3551  -36.8909   22.2025 H   0  0  0  0  0  0
  -23.7285  -37.6454   23.6696 H   0  0  0  0  0  0
  -26.1208  -31.5181   20.6253 H   0  0  0  0  0  0
  -26.8470  -30.8061   22.0301 H   0  0  0  0  0  0
  -28.0892  -28.8784   21.2796 H   0  0  0  0  0  0
  -26.0567  -26.0200   18.7919 H   0  0  0  0  0  0
  -24.0113  -27.3659   18.8935 H   0  0  0  0  0  0
  -23.7558  -30.5835   19.4013 H   0  0  0  0  0  0
  -22.7693  -29.2282   19.8521 H   0  0  0  0  0  0
  -25.1308  -36.1867   25.0788 H   0  0  0  0  0  0
  -20.9974  -28.3312   24.1387 H   0  0  0  0  0  0
  -20.5731  -26.2290   23.3620 H   0  0  0  0  0  0
  -21.6638  -26.7454   22.1180 H   0  0  0  0  0  0
  -19.6938  -25.6305   21.1255 H   0  0  0  0  0  0
  -19.6736  -27.3190   20.6749 H   0  0  0  0  0  0
  -17.4216  -26.6691   21.4008 H   0  0  0  0  0  0
  -18.0317  -26.0116   22.9025 H   0  0  0  0  0  0
  -19.7956  -30.7317   24.2193 H   0  0  0  0  0  0
  -17.5032  -31.6271   24.5193 H   0  0  0  0  0  0
  -15.5365  -30.2998   23.7707 H   0  0  0  0  0  0
  -15.8676  -28.0869   22.7055 H   0  0  0  0  0  0
  -24.5858  -30.7146   25.7730 H   0  0  0  0  0  0
  -24.8889  -32.2974   26.4753 H   0  0  0  0  0  0
  -25.7945  -30.8992   27.0242 H   0  0  0  0  0  0
  -26.2984  -29.6654   24.1266 H   0  0  0  0  0  0
  -27.4011  -29.7253   25.4810 H   0  0  0  0  0  0
  -27.8901  -30.4165   23.9548 H   0  0  0  0  0  0
  -27.2622  -33.3653   26.2049 H   0  0  0  0  0  0
  -28.3887  -32.6906   25.0358 H   0  0  0  0  0  0
  -28.0704  -31.8497   26.5446 H   0  0  0  0  0  0
  -28.2553  -38.0098   24.7500 H   0  0  0  0  0  0
  -28.1109  -36.2610   24.6303 H   0  0  0  0  0  0
  -27.2260  -37.1440   25.8837 H   0  0  0  0  0  0
  -20.9428  -29.8716   21.6792 H   0  0  0  0  0  0
  -26.0159  -38.2788   24.1453 H   0  0  0  0  0  0
  -29.6436  -14.7513   23.0320 H   0  0  0  0  0  0
  -28.3527  -15.8352   22.4682 H   0  0  0  0  0  0
  -29.6318  -16.4184   23.4900 H   0  0  0  0  0  0
  -31.3902  -17.5294   22.6484 H   0  0  0  0  0  0
  -32.2033  -17.1220   21.1453 H   0  0  0  0  0  0
  -32.1785  -15.9767   22.4735 H   0  0  0  0  0  0
  -24.3814  -23.8578   21.1880 H   0  0  0  0  0  0
  -24.8165  -24.6499   19.7334 H   0  0  0  0  0  0
  -25.6575  -25.0359   21.2467 H   0  0  0  0  0  0
  -25.0939  -22.3288   18.6755 H   0  0  0  0  0  0
  -26.7625  -21.8355   18.6011 H   0  0  0  0  0  0
  -26.3132  -23.4623   18.1388 H   0  0  0  0  0  0
  -24.8197  -21.7199   21.1475 H   0  0  0  0  0  0
  -26.0671  -22.1749   22.2851 H   0  0  0  0  0  0
  -26.3816  -21.0229   20.9900 H   0  0  0  0  0  0
  -29.5755  -23.3803   22.6265 H   0  0  0  0  0  0
  -29.7913  -21.6575   22.6584 H   0  0  0  0  0  0
  -28.2148  -22.3478   23.0389 H   0  0  0  0  0  0
  -27.8513  -19.4157   20.4962 H   0  0  0  0  0  0
  -28.5808  -19.8983   21.9671 H   0  0  0  0  0  0
  -27.9076  -24.8798   18.7462 H   0  0  0  0  0  0
  -29.3733  -24.7288   19.5793 H   0  0  0  0  0  0
  -27.6659  -24.1275   21.5922 H   0  0  0  0  0  0
  -30.6469  -18.7563   21.2559 H   0  0  0  0  0  0
  1 25  1  0  0  0
  1 30  2  0  0  0
  1 82  1  0  0  0
  2  3  1  0  0  0
  2 25  1  0  0  0
  2 88  1  0  0  0
  2 89  1  0  0  0
  3  4  1  0  0  0
  3 90  1  0  0  0
  3 91  1  0  0  0
  4  5  1  0  0  0
  4 92  1  0  0  0
  4 93  1  0  0  0
  5  6  1  0  0  0
  5 26  1  0  0  0
  5 94  1  0  0  0
  6 25  1  0  0  0
  6 95  1  0  0  0
  6 96  1  0  0  0
  7  8  2  0  0  0
  7 26  1  0  0  0
  7 29  1  0  0  0
  8  9  1  0  0  0
  8 22  1  0  0  0
  9 10  1  0  0  0
  9 27  2  0  0  0
 10 11  2  0  0  0
 10 15  1  0  0  0
 11 12  1  0  0  0
 11 97  1  0  0  0
 12 13  2  0  0  0
 12 98  1  0  0  0
 13 14  1  0  0  0
 13 31  1  0  0  0
 14 15  2  0  0  0
 14 99  1  0  0  0
 15100  1  0  0  0
 16 17  2  0  0  0
 16 21  1  0  0  0
 16 31  1  0  0  0
 17 18  1  0  0  0
 17101  1  0  0  0
 18 19  2  0  0  0
 18102  1  0  0  0
 19 20  1  0  0  0
 19 24  1  0  0  0
 20 21  2  0  0  0
 20103  1  0  0  0
 21 23  1  0  0  0
 22 28  1  0  0  0
 22 32  2  0  0  0
 26 27  1  0  0  0
 28104  1  0  0  0
 28105  1  0  0  0
 29106  1  0  0  0
 29107  1  0  0  0
 33 34  1  0  0  0
 33 66  1  0  0  0
 33 70  2  0  0  0
 34 36  1  0  0  0
 34 59  1  0  0  0
 34108  1  0  0  0
 35 44  2  0  0  0
 35 45  1  0  0  0
 35 68  1  0  0  0
 36 56  1  0  0  0
 36109  1  0  0  0
 37 39  1  0  0  0
 37 47  1  0  0  0
 37 66  1  0  0  0
 37110  1  0  0  0
 38 43  2  0  0  0
 38 46  1  0  0  0
 38 47  1  0  0  0
 39 64  1  0  0  0
 39 67  2  0  0  0
 40 52  1  0  0  0
 40 53  2  0  0  0
 40 58  1  0  0  0
 41111  1  0  0  0
 41112  1  0  0  0
 41113  1  0  0  0
 41 48  1  0  0  0
 42 43  1  0  0  0
 42 66  1  0  0  0
 42114  1  0  0  0
 42115  1  0  0  0
 43 44  1  0  0  0
 44116  1  0  0  0
 45 46  2  0  0  0
 45117  1  0  0  0
 46118  1  0  0  0
 47119  1  0  0  0
 47120  1  0  0  0
 48 56  1  0  0  0
 48 65  1  0  0  0
 48121  1  0  0  0
 49 50  1  0  0  0
 49 53  1  0  0  0
 49 64  1  0  0  0
 49122  1  0  0  0
 50 51  1  0  0  0
 50123  1  0  0  0
 50124  1  0  0  0
 51 52  1  0  0  0
 51125  1  0  0  0
 51126  1  0  0  0
 52127  1  0  0  0
 52128  1  0  0  0
 53 54  1  0  0  0
 54 55  2  0  0  0
 54129  1  0  0  0
 55 57  1  0  0  0
 55130  1  0  0  0
 56 69  2  0  0  0
 57 58  2  0  0  0
 57131  1  0  0  0
 58132  1  0  0  0
 59 60  1  0  0  0
 59 61  1  0  0  0
 59 62  1  0  0  0
 60133  1  0  0  0
 60134  1  0  0  0
 60135  1  0  0  0
 61136  1  0  0  0
 61137  1  0  0  0
 61138  1  0  0  0
 62139  1  0  0  0
 62140  1  0  0  0
 62141  1  0  0  0
 63 65  1  0  0  0
 63142  1  0  0  0
 63143  1  0  0  0
 63144  1  0  0  0
 64145  1  0  0  0
 65146  1  0  0  0
 68 80  1  0  0  0
 71 79  1  0  0  0
 71 85  1  0  0  0
 71 86  2  0  0  0
 72 82  1  0  0  0
 72 84  1  0  0  0
 72 87  2  0  0  0
 73147  1  0  0  0
 73148  1  0  0  0
 73149  1  0  0  0
 73 82  1  0  0  0
 74 82  1  0  0  0
 74150  1  0  0  0
 74151  1  0  0  0
 74152  1  0  0  0
 75153  1  0  0  0
 75154  1  0  0  0
 75155  1  0  0  0
 75 83  1  0  0  0
 76 83  1  0  0  0
 76156  1  0  0  0
 76157  1  0  0  0
 76158  1  0  0  0
 77 83  1  0  0  0
 77159  1  0  0  0
 77160  1  0  0  0
 77161  1  0  0  0
 78 85  1  0  0  0
 78162  1  0  0  0
 78163  1  0  0  0
 78164  1  0  0  0
 79 84  1  0  0  0
 79165  1  0  0  0
 79166  1  0  0  0
 80167  1  0  0  0
 80168  1  0  0  0
 80 81  1  0  0  0
 81 83  1  0  0  0
 81 85  1  0  0  0
 81169  1  0  0  0
 84170  1  0  0  0
M  ISO  4   1 100  68 101  80 101  82 100
M  END
> <chiral flag>
0

> <version>
0

> <s_m_source_file>
/data/baiqing/PycharmProjects/Reinvent-master-3.2/result/LINK_invent/BTK/process_docking_weight1_custom_sum_contain_oxygen_bond_distance_aromatic_linkinvent_7_9_3/rearranged_h_0018.sdf

> <i_m_source_file_index>
31

> <r_mmod_Potential_Energy-OPLS-2005>
402.697631835938

> <r_mmod_Stretch_Energy-OPLS-2005>
168.794387817383

> <r_mmod_Bend_Energy-OPLS-2005>
270.977966308594

> <r_mmod_Torsional_Energy-OPLS-2005>
317.781372070312

> <r_mmod_Improper_Torsional_Energy-OPLS-2005>
7.30031156539917

> <r_mmod_Van_der_Waal_Energy-OPLS-2005>
156.708221435547

> <r_mmod_Electrostatic_Energy-OPLS-2005>
-380.792846679688

> <r_mmod_Solvation_Energy-OPLS-2005>
-221.264297485352

> <b_mmod_Minimization_Converged-OPLS-2005>
0

> <r_mmod_RMS_Derivative-OPLS-2005>
5.43405485153198

$$$$
32
                    3D
 Structure written by MMmdl.
186194  0  0  1  0            999 V2000
  -30.7123  -14.5273   20.5895 C   0  0  0  0  0  0
  -30.4202  -12.3445   19.4495 C   0  0  0  0  0  0
  -29.5041  -12.5181   18.2209 C   0  0  0  0  0  0
  -28.0240  -12.3716   18.6253 C   0  0  0  0  0  0
  -27.6588  -13.2201   19.8747 C   0  0  2  0  0  0
  -28.6989  -13.0375   21.0029 C   0  0  0  0  0  0
  -25.2565  -13.8180   20.5691 C   0  0  0  0  0  0
  -24.1836  -13.0447   20.9190 C   0  0  0  0  0  0
  -24.6405  -11.6914   20.8727 C   0  0  0  0  0  0
  -23.9071  -10.4299   21.0395 C   0  0  0  0  0  0
  -24.3617   -9.4219   21.9184 C   0  0  0  0  0  0
  -23.6296   -8.2255   22.0758 C   0  0  0  0  0  0
  -22.4282   -8.0287   21.3544 C   0  0  0  0  0  0
  -21.9922   -9.0252   20.4638 C   0  0  0  0  0  0
  -22.7248  -10.2131   20.3041 C   0  0  0  0  0  0
  -21.6858   -6.0743   22.5281 C   0  0  0  0  0  0
  -21.4011   -6.5638   23.8213 C   0  0  0  0  0  0
  -21.3661   -5.6790   24.9174 C   0  0  0  0  0  0
  -21.6054   -4.3054   24.7218 C   0  0  0  0  0  0
  -21.8819   -3.8149   23.4336 C   0  0  0  0  0  0
  -21.9193   -4.6972   22.3401 C   0  0  0  0  0  0
  -22.7860  -13.5239   21.1843 C   0  0  0  0  0  0
  -22.1665   -4.2154   21.0979 F   0  0  0  0  0  0
  -21.5632   -3.4538   25.7727 F   0  0  0  0  0  0
  -30.0258  -13.3521   20.4537 N   0  0  0  0  0  0
  -26.3014  -12.9377   20.3359 N   0  0  0  0  0  0
  -25.9337  -11.6522   20.5762 N   0  0  0  0  0  0
  -22.0474  -12.8226   22.0366 N   0  0  0  0  0  0
  -25.4259  -15.1908   20.4117 N   0  0  0  0  0  0
  -31.8220  -14.6613   20.0655 O   0  0  0  0  0  0
  -21.6651   -6.8882   21.4241 O   0  0  0  0  0  0
  -22.3568  -14.5562   20.6707 O   0  0  0  0  0  0
  -24.6214  -31.8640   23.2028 C   0  0  0  0  0  0
  -25.9087  -32.4794   23.8339 C   0  0  1  0  0  0
  -27.2338  -27.3884   20.1215 C   0  0  0  0  0  0
  -25.5939  -33.8589   24.2297 N   0  0  0  0  0  0
  -23.4120  -30.4877   21.5406 C   0  0  2  0  0  0
  -24.8626  -28.9489   20.1067 C   0  0  0  0  0  0
  -22.7439  -29.4660   22.4918 C   0  0  0  0  0  0
  -18.0294  -28.1420   22.8515 C   0  0  0  0  0  0
  -24.1478  -36.7267   23.2635 C   0  0  0  0  0  0
  -25.9425  -30.8236   21.3543 C   0  0  0  0  0  0
  -26.0239  -29.4512   20.7067 C   0  0  0  0  0  0
  -27.2184  -28.6806   20.7087 C   0  0  0  0  0  0
  -26.0591  -26.9203   19.4953 C   0  0  0  0  0  0
  -24.8766  -27.6848   19.4914 C   0  0  0  0  0  0
  -23.6243  -29.8176   20.1561 C   0  0  0  0  0  0
  -25.4105  -36.3087   24.0351 C   0  0  1  0  0  0
  -20.5896  -28.3701   23.1294 C   0  0  2  0  0  0
  -20.6790  -26.9432   22.5410 C   0  0  0  0  0  0
  -19.5761  -26.6433   21.5219 C   0  0  0  0  0  0
  -18.1938  -26.7981   22.1626 C   0  0  0  0  0  0
  -19.1554  -28.8877   23.2916 C   0  0  0  0  0  0
  -18.9480  -30.1487   23.8928 C   0  0  0  0  0  0
  -17.6487  -30.6623   24.0595 C   0  0  0  0  0  0
  -25.9057  -34.9461   23.5127 C   0  0  0  0  0  0
  -16.5369  -29.9137   23.6349 C   0  0  0  0  0  0
  -16.7291  -28.6554   23.0364 C   0  0  0  0  0  0
  -26.4514  -31.6570   25.0663 C   0  0  0  0  0  0
  -25.3771  -31.3694   26.1396 C   0  0  0  0  0  0
  -27.0342  -30.3024   24.6013 C   0  0  0  0  0  0
  -27.6089  -32.4270   25.7453 C   0  0  0  0  0  0
  -27.5570  -37.1788   24.8477 C   0  0  0  0  0  0
  -21.4166  -29.3070   22.3664 N   0  0  0  0  0  0
  -26.4278  -37.3782   23.9430 N   0  0  0  0  0  0
  -24.6771  -31.0732   22.0923 N   0  0  0  0  0  0
  -23.4206  -28.8216   23.2972 O   0  0  0  0  0  0
  -28.3359  -26.5471   20.1700 O   0  0  0  0  0  0
  -26.5588  -34.8933   22.4662 O   0  0  0  0  0  0
  -23.5403  -32.1381   23.7441 O   0  0  0  0  0  0
  -30.3108  -24.1275   20.9441 C   0  0  0  0  0  0
  -28.9132  -24.0952   20.7958 C   0  0  0  0  0  0
  -31.1435  -22.9843   20.8299 C   0  0  0  0  0  0
  -28.2978  -22.8252   20.5314 C   0  0  0  0  0  0
  -29.1055  -21.6489   20.3342 C   0  0  0  0  0  0
  -30.5251  -21.7590   20.4228 C   0  0  0  0  0  0
  -26.7763  -22.7098   20.4209 C   0  0  0  0  0  0
  -31.0975  -16.1048   22.5161 C   0  0  0  0  0  0
  -30.9925  -21.4958   17.6418 C   0  0  0  0  0  0
  -31.8726  -19.1797   18.1388 C   0  0  0  0  0  0
  -32.9145  -24.1685   22.2798 C   0  0  0  0  0  0
  -33.3293  -23.7727   19.8480 C   0  0  0  0  0  0
  -33.4415  -21.9014   21.5254 C   0  0  0  0  0  0
  -28.4788  -20.2694   19.9452 C   0  0  0  0  0  0
  -28.1538  -25.4284   21.0866 C   0  0  0  0  0  0
  -28.5760  -19.0777   20.9602 C   0  0  0  0  0  0
  -30.0401  -17.0368   20.3677 C   0  0  0  0  0  0
  -30.1505  -15.7934   21.3330 C   0  0  1  0  0  0
  -31.7737  -20.6217   18.6478 C   0  0  0  0  0  0
  -32.6700  -23.1809   21.1070 C   0  0  0  0  0  0
  -31.2883  -20.6413   20.0388 N   0  0  0  0  0  0
  -29.9007  -18.3930   21.0066 N   0  3  0  0  0  0
  -31.4682  -12.4266   19.1546 H   0  0  0  0  0  0
  -30.3134  -11.3414   19.8655 H   0  0  0  0  0  0
  -29.7570  -11.7816   17.4565 H   0  0  0  0  0  0
  -29.6708  -13.4983   17.7703 H   0  0  0  0  0  0
  -27.8388  -11.3162   18.8273 H   0  0  0  0  0  0
  -27.3771  -12.6366   17.7888 H   0  0  0  0  0  0
  -27.6924  -14.2649   19.5655 H   0  0  0  0  0  0
  -28.6877  -12.0085   21.3640 H   0  0  0  0  0  0
  -28.4425  -13.6385   21.8734 H   0  0  0  0  0  0
  -25.2757   -9.5711   22.4761 H   0  0  0  0  0  0
  -24.0004   -7.4659   22.7478 H   0  0  0  0  0  0
  -21.0868   -8.8772   19.8938 H   0  0  0  0  0  0
  -22.3717  -10.9665   19.6144 H   0  0  0  0  0  0
  -21.1995   -7.6141   23.9714 H   0  0  0  0  0  0
  -21.1486   -6.0517   25.9076 H   0  0  0  0  0  0
  -22.0593   -2.7613   23.2828 H   0  0  0  0  0  0
  -22.4054  -11.9857   22.4724 H   0  0  0  0  0  0
  -21.1092  -13.1266   22.2543 H   0  0  0  0  0  0
  -24.6505  -15.8361   20.5093 H   0  0  0  0  0  0
  -26.2713  -15.6303   20.0729 H   0  0  0  0  0  0
  -26.7153  -32.5495   23.1112 H   0  0  0  0  0  0
  -25.0159  -33.9744   25.0488 H   0  0  0  0  0  0
  -22.7063  -31.3074   21.3955 H   0  0  0  0  0  0
  -23.3773  -35.9561   23.3306 H   0  0  0  0  0  0
  -24.3588  -36.8869   22.2046 H   0  0  0  0  0  0
  -23.7186  -37.6464   23.6624 H   0  0  0  0  0  0
  -26.0483  -31.5849   20.5794 H   0  0  0  0  0  0
  -26.8327  -30.8847   21.9674 H   0  0  0  0  0  0
  -28.1110  -29.0601   21.1861 H   0  0  0  0  0  0
  -26.0554  -25.9439   19.0309 H   0  0  0  0  0  0
  -23.9842  -27.2956   19.0221 H   0  0  0  0  0  0
  -23.7295  -30.5875   19.3915 H   0  0  0  0  0  0
  -22.7487  -29.2355   19.8639 H   0  0  0  0  0  0
  -25.1282  -36.1937   25.0846 H   0  0  0  0  0  0
  -21.0030  -28.3285   24.1396 H   0  0  0  0  0  0
  -20.5695  -26.2315   23.3608 H   0  0  0  0  0  0
  -21.6648  -26.7480   22.1168 H   0  0  0  0  0  0
  -19.6914  -25.6355   21.1213 H   0  0  0  0  0  0
  -19.6705  -27.3266   20.6767 H   0  0  0  0  0  0
  -17.4210  -26.6780   21.4012 H   0  0  0  0  0  0
  -18.0319  -26.0114   22.9014 H   0  0  0  0  0  0
  -19.7970  -30.7307   24.2274 H   0  0  0  0  0  0
  -17.5054  -31.6295   24.5223 H   0  0  0  0  0  0
  -15.5368  -30.3050   23.7678 H   0  0  0  0  0  0
  -15.8700  -28.0894   22.7036 H   0  0  0  0  0  0
  -24.6011  -30.6963   25.7747 H   0  0  0  0  0  0
  -24.8882  -32.2837   26.4743 H   0  0  0  0  0  0
  -25.8130  -30.8964   27.0203 H   0  0  0  0  0  0
  -26.2872  -29.6770   24.1103 H   0  0  0  0  0  0
  -27.4192  -29.7268   25.4440 H   0  0  0  0  0  0
  -27.8676  -30.4379   23.9117 H   0  0  0  0  0  0
  -27.2743  -33.3610   26.1976 H   0  0  0  0  0  0
  -28.3953  -32.6736   25.0309 H   0  0  0  0  0  0
  -28.0665  -31.8376   26.5411 H   0  0  0  0  0  0
  -28.2580  -38.0093   24.7541 H   0  0  0  0  0  0
  -28.1077  -36.2627   24.6282 H   0  0  0  0  0  0
  -27.2306  -37.1406   25.8887 H   0  0  0  0  0  0
  -20.9322  -29.8793   21.6896 H   0  0  0  0  0  0
  -26.0175  -38.2858   24.1457 H   0  0  0  0  0  0
  -30.7371  -25.0924   21.1689 H   0  0  0  0  0  0
  -26.2165  -23.5089   20.8943 H   0  0  0  0  0  0
  -26.4103  -21.8083   20.9105 H   0  0  0  0  0  0
  -26.4764  -22.6827   19.3722 H   0  0  0  0  0  0
  -30.6650  -16.8259   23.2084 H   0  0  0  0  0  0
  -32.0512  -16.5056   22.1669 H   0  0  0  0  0  0
  -31.3235  -15.2095   23.0968 H   0  0  0  0  0  0
  -31.4755  -21.4760   16.6637 H   0  0  0  0  0  0
  -30.9513  -22.5435   17.9405 H   0  0  0  0  0  0
  -29.9711  -21.1496   17.4982 H   0  0  0  0  0  0
  -32.3271  -19.1504   17.1485 H   0  0  0  0  0  0
  -30.8919  -18.7130   18.0532 H   0  0  0  0  0  0
  -32.4938  -18.5619   18.7897 H   0  0  0  0  0  0
  -32.5883  -25.1851   22.0754 H   0  0  0  0  0  0
  -33.9776  -24.2554   22.5115 H   0  0  0  0  0  0
  -32.4171  -23.8347   23.1913 H   0  0  0  0  0  0
  -32.8634  -24.7156   19.5628 H   0  0  0  0  0  0
  -33.2370  -23.1053   18.9931 H   0  0  0  0  0  0
  -34.3917  -23.9616   20.0075 H   0  0  0  0  0  0
  -32.9260  -21.3614   22.3222 H   0  0  0  0  0  0
  -34.4369  -22.1416   21.9025 H   0  0  0  0  0  0
  -33.6316  -21.2158   20.7031 H   0  0  0  0  0  0
  -28.9141  -19.9422   19.0042 H   0  0  0  0  0  0
  -27.4315  -20.3838   19.6815 H   0  0  0  0  0  0
  -28.5447  -25.7836   22.0415 H   0  0  0  0  0  0
  -27.1053  -25.2677   21.3088 H   0  0  0  0  0  0
  -27.8110  -18.3359   20.7241 H   0  0  0  0  0  0
  -28.3280  -19.4414   21.9575 H   0  0  0  0  0  0
  -29.2517  -16.8785   19.6319 H   0  0  0  0  0  0
  -30.9595  -17.0842   19.7869 H   0  0  0  0  0  0
  -29.1621  -15.6002   21.7423 H   0  0  0  0  0  0
  -32.7938  -21.0049   18.6671 H   0  0  0  0  0  0
  -32.1210  -20.6570   20.6260 H   0  0  0  0  0  0
  -30.2182  -18.3478   21.9605 H   0  0  0  0  0  0
  -30.5258  -19.0503   20.5358 H   0  0  0  0  0  0
  1 25  1  0  0  0
  1 30  2  0  0  0
  1 88  1  0  0  0
  2  3  1  0  0  0
  2 25  1  0  0  0
  2 93  1  0  0  0
  2 94  1  0  0  0
  3  4  1  0  0  0
  3 95  1  0  0  0
  3 96  1  0  0  0
  4  5  1  0  0  0
  4 97  1  0  0  0
  4 98  1  0  0  0
  5  6  1  0  0  0
  5 26  1  0  0  0
  5 99  1  0  0  0
  6 25  1  0  0  0
  6100  1  0  0  0
  6101  1  0  0  0
  7  8  2  0  0  0
  7 26  1  0  0  0
  7 29  1  0  0  0
  8  9  1  0  0  0
  8 22  1  0  0  0
  9 10  1  0  0  0
  9 27  2  0  0  0
 10 11  2  0  0  0
 10 15  1  0  0  0
 11 12  1  0  0  0
 11102  1  0  0  0
 12 13  2  0  0  0
 12103  1  0  0  0
 13 14  1  0  0  0
 13 31  1  0  0  0
 14 15  2  0  0  0
 14104  1  0  0  0
 15105  1  0  0  0
 16 17  2  0  0  0
 16 21  1  0  0  0
 16 31  1  0  0  0
 17 18  1  0  0  0
 17106  1  0  0  0
 18 19  2  0  0  0
 18107  1  0  0  0
 19 20  1  0  0  0
 19 24  1  0  0  0
 20 21  2  0  0  0
 20108  1  0  0  0
 21 23  1  0  0  0
 22 28  1  0  0  0
 22 32  2  0  0  0
 26 27  1  0  0  0
 28109  1  0  0  0
 28110  1  0  0  0
 29111  1  0  0  0
 29112  1  0  0  0
 33 34  1  0  0  0
 33 66  1  0  0  0
 33 70  2  0  0  0
 34 36  1  0  0  0
 34 59  1  0  0  0
 34113  1  0  0  0
 35 44  2  0  0  0
 35 45  1  0  0  0
 35 68  1  0  0  0
 36 56  1  0  0  0
 36114  1  0  0  0
 37 39  1  0  0  0
 37 47  1  0  0  0
 37 66  1  0  0  0
 37115  1  0  0  0
 38 43  2  0  0  0
 38 46  1  0  0  0
 38 47  1  0  0  0
 39 64  1  0  0  0
 39 67  2  0  0  0
 40 52  1  0  0  0
 40 53  2  0  0  0
 40 58  1  0  0  0
 41116  1  0  0  0
 41117  1  0  0  0
 41118  1  0  0  0
 41 48  1  0  0  0
 42 43  1  0  0  0
 42 66  1  0  0  0
 42119  1  0  0  0
 42120  1  0  0  0
 43 44  1  0  0  0
 44121  1  0  0  0
 45 46  2  0  0  0
 45122  1  0  0  0
 46123  1  0  0  0
 47124  1  0  0  0
 47125  1  0  0  0
 48 56  1  0  0  0
 48 65  1  0  0  0
 48126  1  0  0  0
 49 50  1  0  0  0
 49 53  1  0  0  0
 49 64  1  0  0  0
 49127  1  0  0  0
 50 51  1  0  0  0
 50128  1  0  0  0
 50129  1  0  0  0
 51 52  1  0  0  0
 51130  1  0  0  0
 51131  1  0  0  0
 52132  1  0  0  0
 52133  1  0  0  0
 53 54  1  0  0  0
 54 55  2  0  0  0
 54134  1  0  0  0
 55 57  1  0  0  0
 55135  1  0  0  0
 56 69  2  0  0  0
 57 58  2  0  0  0
 57136  1  0  0  0
 58137  1  0  0  0
 59 60  1  0  0  0
 59 61  1  0  0  0
 59 62  1  0  0  0
 60138  1  0  0  0
 60139  1  0  0  0
 60140  1  0  0  0
 61141  1  0  0  0
 61142  1  0  0  0
 61143  1  0  0  0
 62144  1  0  0  0
 62145  1  0  0  0
 62146  1  0  0  0
 63 65  1  0  0  0
 63147  1  0  0  0
 63148  1  0  0  0
 63149  1  0  0  0
 64150  1  0  0  0
 65151  1  0  0  0
 68 85  1  0  0  0
 71 72  2  0  0  0
 71 73  1  0  0  0
 71152  1  0  0  0
 72 74  1  0  0  0
 72 85  1  0  0  0
 73 76  2  0  0  0
 73 90  1  0  0  0
 74 75  2  0  0  0
 74 77  1  0  0  0
 75 76  1  0  0  0
 75 84  1  0  0  0
 76 91  1  0  0  0
 77153  1  0  0  0
 77154  1  0  0  0
 77155  1  0  0  0
 78156  1  0  0  0
 78157  1  0  0  0
 78158  1  0  0  0
 78 88  1  0  0  0
 79159  1  0  0  0
 79160  1  0  0  0
 79161  1  0  0  0
 79 89  1  0  0  0
 80 89  1  0  0  0
 80162  1  0  0  0
 80163  1  0  0  0
 80164  1  0  0  0
 81165  1  0  0  0
 81166  1  0  0  0
 81167  1  0  0  0
 81 90  1  0  0  0
 82 90  1  0  0  0
 82168  1  0  0  0
 82169  1  0  0  0
 82170  1  0  0  0
 83 90  1  0  0  0
 83171  1  0  0  0
 83172  1  0  0  0
 83173  1  0  0  0
 84 86  1  0  0  0
 84174  1  0  0  0
 84175  1  0  0  0
 85176  1  0  0  0
 85177  1  0  0  0
 86 92  1  0  0  0
 86178  1  0  0  0
 86179  1  0  0  0
 87 88  1  0  0  0
 87 92  1  0  0  0
 87180  1  0  0  0
 87181  1  0  0  0
 88182  1  0  0  0
 89 91  1  0  0  0
 89183  1  0  0  0
 91184  1  0  0  0
 92185  1  0  0  0
 92186  1  0  0  0
M  CHG  1  92   1
M  ISO  4   1 100  68 101  85 101  88 100
M  END
> <chiral flag>
0

> <version>
0

> <s_m_source_file>
/data/baiqing/PycharmProjects/Reinvent-master-3.2/result/LINK_invent/BTK/process_docking_weight1_custom_sum_contain_oxygen_bond_distance_aromatic_linkinvent_7_9_3/rearranged_h_0018.sdf

> <i_m_source_file_index>
32

> <r_mmod_Potential_Energy-OPLS-2005>
-84.4959716796875

> <r_mmod_Stretch_Energy-OPLS-2005>
71.8860931396484

> <r_mmod_Bend_Energy-OPLS-2005>
154.294235229492

> <r_mmod_Torsional_Energy-OPLS-2005>
278.978637695312

> <r_mmod_Improper_Torsional_Energy-OPLS-2005>
9.45551300048828

> <r_mmod_Van_der_Waal_Energy-OPLS-2005>
178.085388183594

> <r_mmod_Electrostatic_Energy-OPLS-2005>
-407.527557373047

> <r_mmod_Solvation_Energy-OPLS-2005>
-393.484191894531

> <b_mmod_Minimization_Converged-OPLS-2005>
0

> <r_mmod_RMS_Derivative-OPLS-2005>
3.01491594314575

$$$$
33
                    3D
 Structure written by MMmdl.
147155  0  0  1  0            999 V2000
  -30.4078  -15.3354   20.3686 C   0  0  0  0  0  0
  -30.4395  -12.8661   19.5109 C   0  0  0  0  0  0
  -29.5352  -12.5865   18.2834 C   0  0  0  0  0  0
  -28.0891  -12.2941   18.7206 C   0  0  0  0  0  0
  -27.6065  -13.2782   19.8141 C   0  0  2  0  0  0
  -28.6418  -13.4848   20.9390 C   0  0  0  0  0  0
  -25.2377  -13.8244   20.5752 C   0  0  0  0  0  0
  -24.1737  -13.0429   20.9269 C   0  0  0  0  0  0
  -24.6400  -11.6929   20.8766 C   0  0  0  0  0  0
  -23.9095  -10.4289   21.0408 C   0  0  0  0  0  0
  -24.3638   -9.4202   21.9186 C   0  0  0  0  0  0
  -23.6304   -8.2241   22.0755 C   0  0  0  0  0  0
  -22.4286   -8.0282   21.3545 C   0  0  0  0  0  0
  -21.9928   -9.0257   20.4646 C   0  0  0  0  0  0
  -22.7266  -10.2132   20.3055 C   0  0  0  0  0  0
  -21.6856   -6.0738   22.5279 C   0  0  0  0  0  0
  -21.4016   -6.5641   23.8212 C   0  0  0  0  0  0
  -21.3660   -5.6793   24.9174 C   0  0  0  0  0  0
  -21.6044   -4.3056   24.7224 C   0  0  0  0  0  0
  -21.8819   -3.8148   23.4345 C   0  0  0  0  0  0
  -21.9193   -4.6965   22.3402 C   0  0  0  0  0  0
  -22.7754  -13.5180   21.1912 C   0  0  0  0  0  0
  -22.1661   -4.2150   21.0979 F   0  0  0  0  0  0
  -21.5628   -3.4539   25.7737 F   0  0  0  0  0  0
  -29.8545  -14.0189   20.2942 N   0  0  0  0  0  0
  -26.2802  -12.9523   20.3201 N   0  0  0  0  0  0
  -25.9335  -11.6626   20.5711 N   0  0  0  0  0  0
  -22.0413  -12.8161   22.0465 N   0  0  0  0  0  0
  -25.3991  -15.1980   20.4184 N   0  0  0  0  0  0
  -31.6417  -15.3236   20.2418 O   0  0  0  0  0  0
  -21.6644   -6.8883   21.4242 O   0  0  0  0  0  0
  -22.3433  -14.5480   20.6750 O   0  0  0  0  0  0
  -24.6674  -31.8194   23.1666 C   0  0  0  0  0  0
  -25.9334  -32.4568   23.8149 C   0  0  1  0  0  0
  -27.2191  -26.8821   20.2001 C   0  0  0  0  0  0
  -25.5983  -33.8383   24.2050 N   0  0  0  0  0  0
  -23.4842  -30.4289   21.5177 C   0  0  2  0  0  0
  -24.9374  -28.8023   20.1220 C   0  0  0  0  0  0
  -22.7686  -29.4423   22.4779 C   0  0  0  0  0  0
  -18.0326  -28.1412   22.8465 C   0  0  0  0  0  0
  -24.1493  -36.7197   23.2647 C   0  0  0  0  0  0
  -26.0562  -30.6123   21.4024 C   0  0  0  0  0  0
  -26.1247  -29.1948   20.7532 C   0  0  0  0  0  0
  -27.2627  -28.2600   20.7591 C   0  0  0  0  0  0
  -25.9991  -26.6496   19.5266 C   0  0  0  0  0  0
  -24.9018  -27.5503   19.4874 C   0  0  0  0  0  0
  -23.7274  -29.7380   20.1478 C   0  0  0  0  0  0
  -25.4136  -36.2954   24.0296 C   0  0  1  0  0  0
  -20.5952  -28.3760   23.1181 C   0  0  2  0  0  0
  -20.6801  -26.9438   22.5401 C   0  0  0  0  0  0
  -19.5775  -26.6377   21.5215 C   0  0  0  0  0  0
  -18.1957  -26.7944   22.1623 C   0  0  0  0  0  0
  -19.1588  -28.8908   23.2808 C   0  0  0  0  0  0
  -18.9497  -30.1496   23.8846 C   0  0  0  0  0  0
  -17.6489  -30.6600   24.0554 C   0  0  0  0  0  0
  -25.9106  -34.9339   23.4998 C   0  0  0  0  0  0
  -16.5380  -29.9085   23.6345 C   0  0  0  0  0  0
  -16.7307  -28.6506   23.0363 C   0  0  0  0  0  0
  -26.4568  -31.6529   25.0695 C   0  0  0  0  0  0
  -25.3681  -31.3791   26.1341 C   0  0  0  0  0  0
  -27.0473  -30.2891   24.6458 C   0  0  0  0  0  0
  -27.6049  -32.4349   25.7504 C   0  0  0  0  0  0
  -27.5570  -37.1753   24.8463 C   0  0  0  0  0  0
  -21.4352  -29.3043   22.3525 N   0  0  0  0  0  0
  -26.4275  -37.3698   23.9412 N   0  0  0  0  0  0
  -24.7579  -30.9816   22.0824 N   0  0  0  0  0  0
  -23.4211  -28.8000   23.3044 O   0  0  0  0  0  0
  -28.2255  -25.7646   20.1868 O   0  0  0  0  0  0
  -26.5723  -34.8883   22.4598 O   0  0  0  0  0  0
  -23.5733  -32.1183   23.6732 O   0  0  0  0  0  0
  -28.9352  -21.1879   17.9825 C   0  0  0  0  0  0
  -28.6029  -22.5905   20.0126 C   0  0  0  0  0  0
  -29.2545  -19.8309   20.0533 C   0  0  0  0  0  0
  -28.6467  -22.4300   18.6117 C   0  0  0  0  0  0
  -28.9239  -21.2197   20.6872 C   0  0  0  0  0  0
  -29.2181  -19.9591   18.6427 C   0  0  0  0  0  0
  -29.8044  -18.2739   20.7108 C   0  0  0  0  0  0
  -28.0110  -24.1574   20.5946 C   0  0  0  0  0  0
  -29.6272  -16.6153   20.3942 N   0  0  0  0  0  0
  -28.3671  -23.4963   17.8232 F   0  0  0  0  0  0
  -28.9070  -21.2398   22.4134 Cl  0  0  0  0  0  0
  -29.6019  -18.4487   17.5439 Br  0  0  0  0  0  0
  -31.4486  -13.0961   19.1663 H   0  0  0  0  0  0
  -30.5377  -11.9764   20.1350 H   0  0  0  0  0  0
  -29.9289  -11.7527   17.7005 H   0  0  0  0  0  0
  -29.5460  -13.4550   17.6230 H   0  0  0  0  0  0
  -28.0623  -11.2758   19.1102 H   0  0  0  0  0  0
  -27.4172  -12.3117   17.8617 H   0  0  0  0  0  0
  -27.5087  -14.2352   19.3000 H   0  0  0  0  0  0
  -28.8351  -12.5599   21.4844 H   0  0  0  0  0  0
  -28.2697  -14.2056   21.6689 H   0  0  0  0  0  0
  -25.2779   -9.5676   22.4767 H   0  0  0  0  0  0
  -24.0008   -7.4633   22.7477 H   0  0  0  0  0  0
  -21.0859   -8.8782   19.8951 H   0  0  0  0  0  0
  -22.3725  -10.9673   19.6167 H   0  0  0  0  0  0
  -21.2010   -7.6149   23.9716 H   0  0  0  0  0  0
  -21.1482   -6.0524   25.9077 H   0  0  0  0  0  0
  -22.0597   -2.7610   23.2845 H   0  0  0  0  0  0
  -22.4048  -11.9832   22.4856 H   0  0  0  0  0  0
  -21.1023  -13.1165   22.2667 H   0  0  0  0  0  0
  -24.6250  -15.8438   20.5297 H   0  0  0  0  0  0
  -26.2326  -15.6404   20.0560 H   0  0  0  0  0  0
  -26.7406  -32.5095   23.0864 H   0  0  0  0  0  0
  -25.0069  -33.9453   25.0160 H   0  0  0  0  0  0
  -22.8000  -31.2615   21.3415 H   0  0  0  0  0  0
  -23.3774  -35.9507   23.3261 H   0  0  0  0  0  0
  -24.3572  -36.8896   22.2072 H   0  0  0  0  0  0
  -23.7229  -37.6360   23.6740 H   0  0  0  0  0  0
  -26.2384  -31.3480   20.6180 H   0  0  0  0  0  0
  -26.9155  -30.6747   22.0582 H   0  0  0  0  0  0
  -28.1683  -28.5680   21.2623 H   0  0  0  0  0  0
  -25.8719  -25.6966   19.0327 H   0  0  0  0  0  0
  -24.0016  -27.2430   18.9731 H   0  0  0  0  0  0
  -23.8902  -30.5027   19.3875 H   0  0  0  0  0  0
  -22.8355  -29.1961   19.8282 H   0  0  0  0  0  0
  -25.1335  -36.1741   25.0786 H   0  0  0  0  0  0
  -21.0038  -28.3369   24.1305 H   0  0  0  0  0  0
  -20.5681  -26.2380   23.3646 H   0  0  0  0  0  0
  -21.6664  -26.7410   22.1209 H   0  0  0  0  0  0
  -19.6934  -25.6275   21.1279 H   0  0  0  0  0  0
  -19.6713  -27.3158   20.6722 H   0  0  0  0  0  0
  -17.4226  -26.6685   21.4028 H   0  0  0  0  0  0
  -18.0352  -26.0099   22.9033 H   0  0  0  0  0  0
  -19.7972  -30.7327   24.2192 H   0  0  0  0  0  0
  -17.5040  -31.6274   24.5166 H   0  0  0  0  0  0
  -15.5377  -30.2970   23.7698 H   0  0  0  0  0  0
  -15.8708  -28.0807   22.7109 H   0  0  0  0  0  0
  -24.5881  -30.7124   25.7646 H   0  0  0  0  0  0
  -24.8852  -32.2996   26.4630 H   0  0  0  0  0  0
  -25.7901  -30.9045   27.0209 H   0  0  0  0  0  0
  -26.3152  -29.6554   24.1442 H   0  0  0  0  0  0
  -27.3968  -29.7272   25.5130 H   0  0  0  0  0  0
  -27.9105  -30.4063   23.9904 H   0  0  0  0  0  0
  -27.2609  -33.3697   26.1943 H   0  0  0  0  0  0
  -28.3934  -32.6835   25.0389 H   0  0  0  0  0  0
  -28.0635  -31.8570   26.5537 H   0  0  0  0  0  0
  -28.2555  -38.0080   24.7530 H   0  0  0  0  0  0
  -28.1100  -36.2607   24.6266 H   0  0  0  0  0  0
  -27.2290  -37.1362   25.8866 H   0  0  0  0  0  0
  -20.9618  -29.8722   21.6636 H   0  0  0  0  0  0
  -26.0117  -38.2750   24.1434 H   0  0  0  0  0  0
  -28.9364  -21.1775   16.9028 H   0  0  0  0  0  0
  -29.5241  -18.3462   21.7616 H   0  0  0  0  0  0
  -30.8875  -18.3978   20.7286 H   0  0  0  0  0  0
  -28.2499  -24.1372   21.6576 H   0  0  0  0  0  0
  -26.9290  -24.0282   20.5740 H   0  0  0  0  0  0
  -28.6463  -16.3901   20.3275 H   0  0  0  0  0  0
  1 25  1  0  0  0
  1 30  2  0  0  0
  1 79  1  0  0  0
  2  3  1  0  0  0
  2 25  1  0  0  0
  2 83  1  0  0  0
  2 84  1  0  0  0
  3  4  1  0  0  0
  3 85  1  0  0  0
  3 86  1  0  0  0
  4  5  1  0  0  0
  4 87  1  0  0  0
  4 88  1  0  0  0
  5  6  1  0  0  0
  5 26  1  0  0  0
  5 89  1  0  0  0
  6 25  1  0  0  0
  6 90  1  0  0  0
  6 91  1  0  0  0
  7  8  2  0  0  0
  7 26  1  0  0  0
  7 29  1  0  0  0
  8  9  1  0  0  0
  8 22  1  0  0  0
  9 10  1  0  0  0
  9 27  2  0  0  0
 10 11  2  0  0  0
 10 15  1  0  0  0
 11 12  1  0  0  0
 11 92  1  0  0  0
 12 13  2  0  0  0
 12 93  1  0  0  0
 13 14  1  0  0  0
 13 31  1  0  0  0
 14 15  2  0  0  0
 14 94  1  0  0  0
 15 95  1  0  0  0
 16 17  2  0  0  0
 16 21  1  0  0  0
 16 31  1  0  0  0
 17 18  1  0  0  0
 17 96  1  0  0  0
 18 19  2  0  0  0
 18 97  1  0  0  0
 19 20  1  0  0  0
 19 24  1  0  0  0
 20 21  2  0  0  0
 20 98  1  0  0  0
 21 23  1  0  0  0
 22 28  1  0  0  0
 22 32  2  0  0  0
 26 27  1  0  0  0
 28 99  1  0  0  0
 28100  1  0  0  0
 29101  1  0  0  0
 29102  1  0  0  0
 33 34  1  0  0  0
 33 66  1  0  0  0
 33 70  2  0  0  0
 34 36  1  0  0  0
 34 59  1  0  0  0
 34103  1  0  0  0
 35 44  2  0  0  0
 35 45  1  0  0  0
 35 68  1  0  0  0
 36 56  1  0  0  0
 36104  1  0  0  0
 37 39  1  0  0  0
 37 47  1  0  0  0
 37 66  1  0  0  0
 37105  1  0  0  0
 38 43  2  0  0  0
 38 46  1  0  0  0
 38 47  1  0  0  0
 39 64  1  0  0  0
 39 67  2  0  0  0
 40 52  1  0  0  0
 40 53  2  0  0  0
 40 58  1  0  0  0
 41106  1  0  0  0
 41107  1  0  0  0
 41108  1  0  0  0
 41 48  1  0  0  0
 42 43  1  0  0  0
 42 66  1  0  0  0
 42109  1  0  0  0
 42110  1  0  0  0
 43 44  1  0  0  0
 44111  1  0  0  0
 45 46  2  0  0  0
 45112  1  0  0  0
 46113  1  0  0  0
 47114  1  0  0  0
 47115  1  0  0  0
 48 56  1  0  0  0
 48 65  1  0  0  0
 48116  1  0  0  0
 49 50  1  0  0  0
 49 53  1  0  0  0
 49 64  1  0  0  0
 49117  1  0  0  0
 50 51  1  0  0  0
 50118  1  0  0  0
 50119  1  0  0  0
 51 52  1  0  0  0
 51120  1  0  0  0
 51121  1  0  0  0
 52122  1  0  0  0
 52123  1  0  0  0
 53 54  1  0  0  0
 54 55  2  0  0  0
 54124  1  0  0  0
 55 57  1  0  0  0
 55125  1  0  0  0
 56 69  2  0  0  0
 57 58  2  0  0  0
 57126  1  0  0  0
 58127  1  0  0  0
 59 60  1  0  0  0
 59 61  1  0  0  0
 59 62  1  0  0  0
 60128  1  0  0  0
 60129  1  0  0  0
 60130  1  0  0  0
 61131  1  0  0  0
 61132  1  0  0  0
 61133  1  0  0  0
 62134  1  0  0  0
 62135  1  0  0  0
 62136  1  0  0  0
 63 65  1  0  0  0
 63137  1  0  0  0
 63138  1  0  0  0
 63139  1  0  0  0
 64140  1  0  0  0
 65141  1  0  0  0
 68 78  1  0  0  0
 71 74  2  0  0  0
 71 76  1  0  0  0
 71142  1  0  0  0
 72 74  1  0  0  0
 72 75  2  0  0  0
 72 78  1  0  0  0
 73 75  1  0  0  0
 73 76  2  0  0  0
 73 77  1  0  0  0
 74 80  1  0  0  0
 75 81  1  0  0  0
 76 82  1  0  0  0
 77 79  1  0  0  0
 77143  1  0  0  0
 77144  1  0  0  0
 78145  1  0  0  0
 78146  1  0  0  0
 79147  1  0  0  0
M  ISO  4   1 100  68 101  78 101  79 100
M  END
> <chiral flag>
0

> <version>
0

> <s_m_source_file>
/data/baiqing/PycharmProjects/Reinvent-master-3.2/result/LINK_invent/BTK/process_docking_weight1_custom_sum_contain_oxygen_bond_distance_aromatic_linkinvent_7_9_3/rearranged_h_0018.sdf

> <i_m_source_file_index>
33

> <r_mmod_Potential_Energy-OPLS-2005>
1406.47326660156

> <r_mmod_Stretch_Energy-OPLS-2005>
650.61376953125

> <r_mmod_Bend_Energy-OPLS-2005>
452.692138671875

> <r_mmod_Torsional_Energy-OPLS-2005>
237.125411987305

> <r_mmod_Improper_Torsional_Energy-OPLS-2005>
5.89646816253662

> <r_mmod_Van_der_Waal_Energy-OPLS-2005>
116.676849365234

> <r_mmod_Electrostatic_Energy-OPLS-2005>
-369.434875488281

> <r_mmod_Solvation_Energy-OPLS-2005>
-217.465240478516

> <b_mmod_Minimization_Converged-OPLS-2005>
0

> <r_mmod_RMS_Derivative-OPLS-2005>
0.08195810765028

$$$$
34
                    3D
 Structure written by MMmdl.
185193  0  0  1  0            999 V2000
  -30.7075  -14.5093   20.5349 C   0  0  0  0  0  0
  -30.4170  -12.3225   19.4420 C   0  0  0  0  0  0
  -29.5022  -12.5127   18.2148 C   0  0  0  0  0  0
  -28.0226  -12.3689   18.6259 C   0  0  0  0  0  0
  -27.6614  -13.2208   19.8746 C   0  0  2  0  0  0
  -28.7019  -13.0435   21.0057 C   0  0  0  0  0  0
  -25.2578  -13.8189   20.5673 C   0  0  0  0  0  0
  -24.1835  -13.0436   20.9153 C   0  0  0  0  0  0
  -24.6424  -11.6924   20.8721 C   0  0  0  0  0  0
  -23.9070  -10.4304   21.0403 C   0  0  0  0  0  0
  -24.3617   -9.4215   21.9170 C   0  0  0  0  0  0
  -23.6290   -8.2242   22.0748 C   0  0  0  0  0  0
  -22.4276   -8.0273   21.3546 C   0  0  0  0  0  0
  -21.9918   -9.0246   20.4649 C   0  0  0  0  0  0
  -22.7249  -10.2132   20.3048 C   0  0  0  0  0  0
  -21.6860   -6.0730   22.5277 C   0  0  0  0  0  0
  -21.4025   -6.5628   23.8212 C   0  0  0  0  0  0
  -21.3653   -5.6789   24.9164 C   0  0  0  0  0  0
  -21.6031   -4.3050   24.7240 C   0  0  0  0  0  0
  -21.8816   -3.8143   23.4354 C   0  0  0  0  0  0
  -21.9197   -4.6944   22.3416 C   0  0  0  0  0  0
  -22.7871  -13.5227   21.1856 C   0  0  0  0  0  0
  -22.1659   -4.2128   21.0992 F   0  0  0  0  0  0
  -21.5637   -3.4536   25.7752 F   0  0  0  0  0  0
  -30.0330  -13.3300   20.4467 N   0  0  0  0  0  0
  -26.3029  -12.9391   20.3341 N   0  0  0  0  0  0
  -25.9358  -11.6532   20.5720 N   0  0  0  0  0  0
  -22.0516  -12.8198   22.0410 N   0  0  0  0  0  0
  -25.4311  -15.1900   20.4144 N   0  0  0  0  0  0
  -31.8572  -14.6383   20.1051 O   0  0  0  0  0  0
  -21.6634   -6.8864   21.4248 O   0  0  0  0  0  0
  -22.3542  -14.5522   20.6699 O   0  0  0  0  0  0
  -24.6132  -31.8683   23.2108 C   0  0  0  0  0  0
  -25.9028  -32.4816   23.8422 C   0  0  1  0  0  0
  -27.2397  -27.4112   20.1073 C   0  0  0  0  0  0
  -25.5915  -33.8631   24.2338 N   0  0  0  0  0  0
  -23.4052  -30.4882   21.5517 C   0  0  2  0  0  0
  -24.8539  -28.9570   20.1112 C   0  0  0  0  0  0
  -22.7402  -29.4633   22.4975 C   0  0  0  0  0  0
  -18.0269  -28.1397   22.8504 C   0  0  0  0  0  0
  -24.1500  -36.7312   23.2634 C   0  0  0  0  0  0
  -25.9338  -30.8268   21.3681 C   0  0  0  0  0  0
  -26.0104  -29.4600   20.7154 C   0  0  0  0  0  0
  -27.1969  -28.6908   20.7151 C   0  0  0  0  0  0
  -26.0634  -26.9321   19.4856 C   0  0  0  0  0  0
  -24.8768  -27.6947   19.4926 C   0  0  0  0  0  0
  -23.6168  -29.8271   20.1643 C   0  0  0  0  0  0
  -25.4120  -36.3104   24.0320 C   0  0  1  0  0  0
  -20.5851  -28.3686   23.1335 C   0  0  2  0  0  0
  -20.6764  -26.9421   22.5444 C   0  0  0  0  0  0
  -19.5749  -26.6399   21.5245 C   0  0  0  0  0  0
  -18.1922  -26.7949   22.1637 C   0  0  0  0  0  0
  -19.1510  -28.8859   23.2922 C   0  0  0  0  0  0
  -18.9437  -30.1469   23.8931 C   0  0  0  0  0  0
  -17.6436  -30.6600   24.0587 C   0  0  0  0  0  0
  -25.9048  -34.9470   23.5120 C   0  0  0  0  0  0
  -16.5329  -29.9106   23.6332 C   0  0  0  0  0  0
  -16.7260  -28.6528   23.0343 C   0  0  0  0  0  0
  -26.4485  -31.6591   25.0739 C   0  0  0  0  0  0
  -25.3743  -31.3714   26.1474 C   0  0  0  0  0  0
  -27.0322  -30.3029   24.6104 C   0  0  0  0  0  0
  -27.6067  -32.4322   25.7494 C   0  0  0  0  0  0
  -27.5577  -37.1794   24.8453 C   0  0  0  0  0  0
  -21.4120  -29.3037   22.3711 N   0  0  0  0  0  0
  -26.4305  -37.3776   23.9386 N   0  0  0  0  0  0
  -24.6693  -31.0746   22.1037 N   0  0  0  0  0  0
  -23.4159  -28.8171   23.3024 O   0  0  0  0  0  0
  -28.4243  -26.6954   20.1767 O   0  0  0  0  0  0
  -26.5590  -34.8917   22.4674 O   0  0  0  0  0  0
  -23.5302  -32.1472   23.7453 O   0  0  0  0  0  0
  -30.0944  -19.3800   20.9867 C   0  0  0  0  0  0
  -30.6055  -17.2657   19.2807 C   0  0  0  0  0  0
  -30.5078  -19.6837   19.6620 C   0  0  0  0  0  0
  -29.9556  -18.0501   21.4667 C   0  0  0  0  0  0
  -30.8285  -18.5811   18.7903 C   0  0  0  0  0  0
  -30.2014  -16.9590   20.5952 C   0  0  0  0  0  0
  -28.2130  -18.3698   23.3007 C   0  0  0  0  0  0
  -29.7471  -23.5254   17.1875 C   0  0  0  0  0  0
  -28.0668  -21.6316   17.0856 C   0  0  0  0  0  0
  -31.8414  -19.9762   16.7438 C   0  0  0  0  0  0
  -30.4052  -18.0059   16.3642 C   0  0  0  0  0  0
  -32.7297  -17.7673   17.3093 C   0  0  0  0  0  0
  -27.6123  -21.6504   19.9548 C   0  0  0  0  0  0
  -29.6035  -17.8420   22.9349 C   0  0  0  0  0  0
  -30.6673  -21.1732   19.2671 C   0  0  0  0  0  0
  -28.6290  -25.4565   19.4669 C   0  0  0  0  0  0
  -28.5185  -22.8792   17.8778 C   0  0  0  0  0  0
  -31.4311  -18.6166   17.3464 C   0  0  0  0  0  0
  -28.6055  -22.7241   19.4505 C   0  0  1  0  0  0
  -28.2307  -24.1072   20.1729 C   0  0  0  0  0  0
  -30.0118  -15.5805   20.9884 N   0  0  0  0  0  0
  -29.9161  -22.2398   19.9594 N   0  0  0  0  0  0
  -28.7434  -24.1095   21.4051 F   0  0  0  0  0  0
  -26.9035  -24.1511   20.3007 F   0  0  0  0  0  0
  -31.4648  -12.4005   19.1499 H   0  0  0  0  0  0
  -30.3015  -11.3213   19.8570 H   0  0  0  0  0  0
  -29.7495  -11.7804   17.4442 H   0  0  0  0  0  0
  -29.6761  -13.4935   17.7683 H   0  0  0  0  0  0
  -27.8431  -11.3132   18.8308 H   0  0  0  0  0  0
  -27.3714  -12.6281   17.7901 H   0  0  0  0  0  0
  -27.6917  -14.2629   19.5550 H   0  0  0  0  0  0
  -28.6773  -12.0242   21.3938 H   0  0  0  0  0  0
  -28.4654  -13.6903   21.8526 H   0  0  0  0  0  0
  -25.2756   -9.5660   22.4743 H   0  0  0  0  0  0
  -23.9989   -7.4631   22.7465 H   0  0  0  0  0  0
  -21.0847   -8.8786   19.8946 H   0  0  0  0  0  0
  -22.3724  -10.9670   19.6147 H   0  0  0  0  0  0
  -21.2023   -7.6138   23.9713 H   0  0  0  0  0  0
  -21.1475   -6.0514   25.9069 H   0  0  0  0  0  0
  -22.0612   -2.7602   23.2879 H   0  0  0  0  0  0
  -22.4143  -11.9860   22.4794 H   0  0  0  0  0  0
  -21.1146  -13.1231   22.2613 H   0  0  0  0  0  0
  -24.6724  -15.8513   20.5302 H   0  0  0  0  0  0
  -26.2904  -15.6335   20.1143 H   0  0  0  0  0  0
  -26.7103  -32.5530   23.1190 H   0  0  0  0  0  0
  -25.0088  -33.9865   25.0485 H   0  0  0  0  0  0
  -22.6949  -31.3051   21.4122 H   0  0  0  0  0  0
  -23.3760  -35.9647   23.3309 H   0  0  0  0  0  0
  -24.3596  -36.8926   22.2048 H   0  0  0  0  0  0
  -23.7269  -37.6519   23.6662 H   0  0  0  0  0  0
  -26.0365  -31.5951   20.6007 H   0  0  0  0  0  0
  -26.8237  -30.8871   21.9814 H   0  0  0  0  0  0
  -28.0854  -29.0733   21.1953 H   0  0  0  0  0  0
  -26.0384  -25.9688   19.0008 H   0  0  0  0  0  0
  -23.9858  -27.3031   19.0238 H   0  0  0  0  0  0
  -23.7279  -30.6118   19.4148 H   0  0  0  0  0  0
  -22.7414  -29.2504   19.8617 H   0  0  0  0  0  0
  -25.1297  -36.1977   25.0811 H   0  0  0  0  0  0
  -20.9952  -28.3268   24.1453 H   0  0  0  0  0  0
  -20.5711  -26.2286   23.3621 H   0  0  0  0  0  0
  -21.6633  -26.7489   22.1207 H   0  0  0  0  0  0
  -19.6924  -25.6316   21.1276 H   0  0  0  0  0  0
  -19.6708  -27.3212   20.6786 H   0  0  0  0  0  0
  -17.4192  -26.6723   21.4034 H   0  0  0  0  0  0
  -18.0297  -26.0094   22.9037 H   0  0  0  0  0  0
  -19.7912  -30.7291   24.2287 H   0  0  0  0  0  0
  -17.4996  -31.6284   24.5186 H   0  0  0  0  0  0
  -15.5339  -30.3023   23.7646 H   0  0  0  0  0  0
  -15.8658  -28.0885   22.7005 H   0  0  0  0  0  0
  -24.5918  -30.7068   25.7795 H   0  0  0  0  0  0
  -24.8939  -32.2880   26.4910 H   0  0  0  0  0  0
  -25.8087  -30.8883   27.0233 H   0  0  0  0  0  0
  -26.2882  -29.6771   24.1154 H   0  0  0  0  0  0
  -27.4104  -29.7266   25.4566 H   0  0  0  0  0  0
  -27.8711  -30.4371   23.9266 H   0  0  0  0  0  0
  -27.2701  -33.3618   26.2102 H   0  0  0  0  0  0
  -28.3849  -32.6885   25.0291 H   0  0  0  0  0  0
  -28.0754  -31.8427   26.5377 H   0  0  0  0  0  0
  -28.2564  -38.0110   24.7475 H   0  0  0  0  0  0
  -28.1102  -36.2627   24.6316 H   0  0  0  0  0  0
  -27.2286  -37.1472   25.8857 H   0  0  0  0  0  0
  -20.9242  -29.8728   21.6922 H   0  0  0  0  0  0
  -26.0185  -38.2847   24.1417 H   0  0  0  0  0  0
  -29.9096  -20.1968   21.6711 H   0  0  0  0  0  0
  -30.7781  -16.4371   18.6153 H   0  0  0  0  0  0
  -28.1221  -19.4329   23.0776 H   0  0  0  0  0  0
  -28.0216  -18.2316   24.3666 H   0  0  0  0  0  0
  -27.4292  -17.8524   22.7514 H   0  0  0  0  0  0
  -30.3867  -22.7922   16.6991 H   0  0  0  0  0  0
  -30.3914  -24.0747   17.8651 H   0  0  0  0  0  0
  -29.4223  -24.2176   16.4104 H   0  0  0  0  0  0
  -28.1698  -21.8039   16.0166 H   0  0  0  0  0  0
  -27.0152  -21.4087   17.2562 H   0  0  0  0  0  0
  -28.6334  -20.7337   17.3293 H   0  0  0  0  0  0
  -30.9775  -20.5567   16.4287 H   0  0  0  0  0  0
  -32.4153  -19.8405   15.8255 H   0  0  0  0  0  0
  -32.4809  -20.5548   17.4093 H   0  0  0  0  0  0
  -29.4556  -18.5411   16.4007 H   0  0  0  0  0  0
  -30.1900  -16.9574   16.5698 H   0  0  0  0  0  0
  -30.7656  -18.0549   15.3350 H   0  0  0  0  0  0
  -33.4746  -18.1551   18.0059 H   0  0  0  0  0  0
  -33.1892  -17.7763   16.3206 H   0  0  0  0  0  0
  -32.5773  -16.7154   17.5484 H   0  0  0  0  0  0
  -26.5981  -21.8497   19.6064 H   0  0  0  0  0  0
  -27.5750  -21.6273   21.0435 H   0  0  0  0  0  0
  -27.8640  -20.6492   19.6137 H   0  0  0  0  0  0
  -30.3594  -18.3564   23.5308 H   0  0  0  0  0  0
  -29.6803  -16.7945   23.2263 H   0  0  0  0  0  0
  -30.4927  -21.2997   18.2195 H   0  0  0  0  0  0
  -31.7178  -21.4142   19.4259 H   0  0  0  0  0  0
  -28.2014  -25.5452   18.4688 H   0  0  0  0  0  0
  -29.7064  -25.4417   19.3300 H   0  0  0  0  0  0
  -27.6988  -23.5777   17.7049 H   0  0  0  0  0  0
  -29.1650  -15.3746   21.4965 H   0  0  0  0  0  0
  -30.5287  -23.0352   20.0917 H   0  0  0  0  0  0
  1 25  1  0  0  0
  1 30  2  0  0  0
  1 91  1  0  0  0
  2  3  1  0  0  0
  2 25  1  0  0  0
  2 95  1  0  0  0
  2 96  1  0  0  0
  3  4  1  0  0  0
  3 97  1  0  0  0
  3 98  1  0  0  0
  4  5  1  0  0  0
  4 99  1  0  0  0
  4100  1  0  0  0
  5  6  1  0  0  0
  5 26  1  0  0  0
  5101  1  0  0  0
  6 25  1  0  0  0
  6102  1  0  0  0
  6103  1  0  0  0
  7  8  2  0  0  0
  7 26  1  0  0  0
  7 29  1  0  0  0
  8  9  1  0  0  0
  8 22  1  0  0  0
  9 10  1  0  0  0
  9 27  2  0  0  0
 10 11  2  0  0  0
 10 15  1  0  0  0
 11 12  1  0  0  0
 11104  1  0  0  0
 12 13  2  0  0  0
 12105  1  0  0  0
 13 14  1  0  0  0
 13 31  1  0  0  0
 14 15  2  0  0  0
 14106  1  0  0  0
 15107  1  0  0  0
 16 17  2  0  0  0
 16 21  1  0  0  0
 16 31  1  0  0  0
 17 18  1  0  0  0
 17108  1  0  0  0
 18 19  2  0  0  0
 18109  1  0  0  0
 19 20  1  0  0  0
 19 24  1  0  0  0
 20 21  2  0  0  0
 20110  1  0  0  0
 21 23  1  0  0  0
 22 28  1  0  0  0
 22 32  2  0  0  0
 26 27  1  0  0  0
 28111  1  0  0  0
 28112  1  0  0  0
 29113  1  0  0  0
 29114  1  0  0  0
 33 34  1  0  0  0
 33 66  1  0  0  0
 33 70  2  0  0  0
 34 36  1  0  0  0
 34 59  1  0  0  0
 34115  1  0  0  0
 35 44  2  0  0  0
 35 45  1  0  0  0
 35 68  1  0  0  0
 36 56  1  0  0  0
 36116  1  0  0  0
 37 39  1  0  0  0
 37 47  1  0  0  0
 37 66  1  0  0  0
 37117  1  0  0  0
 38 43  2  0  0  0
 38 46  1  0  0  0
 38 47  1  0  0  0
 39 64  1  0  0  0
 39 67  2  0  0  0
 40 52  1  0  0  0
 40 53  2  0  0  0
 40 58  1  0  0  0
 41118  1  0  0  0
 41119  1  0  0  0
 41120  1  0  0  0
 41 48  1  0  0  0
 42 43  1  0  0  0
 42 66  1  0  0  0
 42121  1  0  0  0
 42122  1  0  0  0
 43 44  1  0  0  0
 44123  1  0  0  0
 45 46  2  0  0  0
 45124  1  0  0  0
 46125  1  0  0  0
 47126  1  0  0  0
 47127  1  0  0  0
 48 56  1  0  0  0
 48 65  1  0  0  0
 48128  1  0  0  0
 49 50  1  0  0  0
 49 53  1  0  0  0
 49 64  1  0  0  0
 49129  1  0  0  0
 50 51  1  0  0  0
 50130  1  0  0  0
 50131  1  0  0  0
 51 52  1  0  0  0
 51132  1  0  0  0
 51133  1  0  0  0
 52134  1  0  0  0
 52135  1  0  0  0
 53 54  1  0  0  0
 54 55  2  0  0  0
 54136  1  0  0  0
 55 57  1  0  0  0
 55137  1  0  0  0
 56 69  2  0  0  0
 57 58  2  0  0  0
 57138  1  0  0  0
 58139  1  0  0  0
 59 60  1  0  0  0
 59 61  1  0  0  0
 59 62  1  0  0  0
 60140  1  0  0  0
 60141  1  0  0  0
 60142  1  0  0  0
 61143  1  0  0  0
 61144  1  0  0  0
 61145  1  0  0  0
 62146  1  0  0  0
 62147  1  0  0  0
 62148  1  0  0  0
 63 65  1  0  0  0
 63149  1  0  0  0
 63150  1  0  0  0
 63151  1  0  0  0
 64152  1  0  0  0
 65153  1  0  0  0
 68 86  1  0  0  0
 71 73  2  0  0  0
 71 74  1  0  0  0
 71154  1  0  0  0
 72 75  2  0  0  0
 72 76  1  0  0  0
 72155  1  0  0  0
 73 75  1  0  0  0
 73 85  1  0  0  0
 74 76  2  0  0  0
 74 84  1  0  0  0
 75 88  1  0  0  0
 76 91  1  0  0  0
 77 84  1  0  0  0
 77156  1  0  0  0
 77157  1  0  0  0
 77158  1  0  0  0
 78159  1  0  0  0
 78160  1  0  0  0
 78161  1  0  0  0
 78 87  1  0  0  0
 79 87  1  0  0  0
 79162  1  0  0  0
 79163  1  0  0  0
 79164  1  0  0  0
 80165  1  0  0  0
 80166  1  0  0  0
 80167  1  0  0  0
 80 88  1  0  0  0
 81 88  1  0  0  0
 81168  1  0  0  0
 81169  1  0  0  0
 81170  1  0  0  0
 82 88  1  0  0  0
 82171  1  0  0  0
 82172  1  0  0  0
 82173  1  0  0  0
 83174  1  0  0  0
 83175  1  0  0  0
 83176  1  0  0  0
 83 89  1  0  0  0
 84177  1  0  0  0
 84178  1  0  0  0
 85 92  1  0  0  0
 85179  1  0  0  0
 85180  1  0  0  0
 86 90  1  0  0  0
 86181  1  0  0  0
 86182  1  0  0  0
 87 89  1  0  0  0
 87183  1  0  0  0
 89 90  1  0  0  0
 89 92  1  0  0  0
 90 93  1  0  0  0
 90 94  1  0  0  0
 91184  1  0  0  0
 92185  1  0  0  0
M  ISO  4   1 100  68 101  86 101  91 100
M  END
> <chiral flag>
0

> <version>
0

> <s_m_source_file>
/data/baiqing/PycharmProjects/Reinvent-master-3.2/result/LINK_invent/BTK/process_docking_weight1_custom_sum_contain_oxygen_bond_distance_aromatic_linkinvent_7_9_3/rearranged_h_0018.sdf

> <i_m_source_file_index>
34

> <r_mmod_Potential_Energy-OPLS-2005>
110.75838470459

> <r_mmod_Stretch_Energy-OPLS-2005>
67.6786956787109

> <r_mmod_Bend_Energy-OPLS-2005>
187.962417602539

> <r_mmod_Torsional_Energy-OPLS-2005>
293.248443603516

> <r_mmod_Improper_Torsional_Energy-OPLS-2005>
3.80044603347778

> <r_mmod_Van_der_Waal_Energy-OPLS-2005>
187.063674926758

> <r_mmod_Electrostatic_Energy-OPLS-2005>
-458.247222900391

> <r_mmod_Solvation_Energy-OPLS-2005>
-190.162643432617

> <b_mmod_Minimization_Converged-OPLS-2005>
0

> <r_mmod_RMS_Derivative-OPLS-2005>
4.23074865341187

$$$$
35
                    3D
 Structure written by MMmdl.
164172  0  0  1  0            999 V2000
  -30.6578  -14.5659   20.5004 C   0  0  0  0  0  0
  -30.4199  -12.3459   19.4521 C   0  0  0  0  0  0
  -29.4980  -12.5003   18.2240 C   0  0  0  0  0  0
  -28.0207  -12.3464   18.6382 C   0  0  0  0  0  0
  -27.6507  -13.2175   19.8698 C   0  0  2  0  0  0
  -28.6923  -13.0609   21.0002 C   0  0  0  0  0  0
  -25.2512  -13.8175   20.5708 C   0  0  0  0  0  0
  -24.1789  -13.0437   20.9202 C   0  0  0  0  0  0
  -24.6356  -11.6914   20.8753 C   0  0  0  0  0  0
  -23.9042  -10.4278   21.0410 C   0  0  0  0  0  0
  -24.3599   -9.4198   21.9200 C   0  0  0  0  0  0
  -23.6273   -8.2238   22.0764 C   0  0  0  0  0  0
  -22.4262   -8.0270   21.3542 C   0  0  0  0  0  0
  -21.9907   -9.0237   20.4645 C   0  0  0  0  0  0
  -22.7233  -10.2111   20.3053 C   0  0  0  0  0  0
  -21.6843   -6.0725   22.5262 C   0  0  0  0  0  0
  -21.4010   -6.5622   23.8189 C   0  0  0  0  0  0
  -21.3662   -5.6774   24.9159 C   0  0  0  0  0  0
  -21.6039   -4.3038   24.7199 C   0  0  0  0  0  0
  -21.8818   -3.8125   23.4316 C   0  0  0  0  0  0
  -21.9201   -4.6952   22.3386 C   0  0  0  0  0  0
  -22.7806  -13.5222   21.1878 C   0  0  0  0  0  0
  -22.1651   -4.2139   21.0951 F   0  0  0  0  0  0
  -21.5657   -3.4525   25.7716 F   0  0  0  0  0  0
  -30.0132  -13.3655   20.4351 N   0  0  0  0  0  0
  -26.2946  -12.9367   20.3370 N   0  0  0  0  0  0
  -25.9295  -11.6518   20.5799 N   0  0  0  0  0  0
  -22.0427  -12.8188   22.0405 N   0  0  0  0  0  0
  -25.4237  -15.1898   20.4123 N   0  0  0  0  0  0
  -31.8233  -14.7049   20.1190 O   0  0  0  0  0  0
  -21.6626   -6.8865   21.4223 O   0  0  0  0  0  0
  -22.3494  -14.5554   20.6762 O   0  0  0  0  0  0
  -24.6246  -31.8607   23.2029 C   0  0  0  0  0  0
  -25.9121  -32.4780   23.8331 C   0  0  1  0  0  0
  -27.2153  -27.3503   20.1193 C   0  0  0  0  0  0
  -25.5969  -33.8578   24.2287 N   0  0  0  0  0  0
  -23.4080  -30.4854   21.5455 C   0  0  2  0  0  0
  -24.8534  -28.9382   20.1135 C   0  0  0  0  0  0
  -22.7416  -29.4634   22.4942 C   0  0  0  0  0  0
  -18.0283  -28.1368   22.8452 C   0  0  0  0  0  0
  -24.1488  -36.7239   23.2647 C   0  0  0  0  0  0
  -25.9446  -30.8035   21.3633 C   0  0  0  0  0  0
  -26.0201  -29.4330   20.7074 C   0  0  0  0  0  0
  -27.2087  -28.6536   20.6923 C   0  0  0  0  0  0
  -26.0297  -26.8882   19.5147 C   0  0  0  0  0  0
  -24.8572  -27.6692   19.5067 C   0  0  0  0  0  0
  -23.6199  -29.8152   20.1613 C   0  0  0  0  0  0
  -25.4110  -36.3052   24.0335 C   0  0  1  0  0  0
  -20.5878  -28.3651   23.1297 C   0  0  2  0  0  0
  -20.6778  -26.9369   22.5431 C   0  0  0  0  0  0
  -19.5794  -26.6347   21.5191 C   0  0  0  0  0  0
  -18.1936  -26.7935   22.1537 C   0  0  0  0  0  0
  -19.1543  -28.8814   23.2882 C   0  0  0  0  0  0
  -18.9469  -30.1414   23.8887 C   0  0  0  0  0  0
  -17.6482  -30.6560   24.0546 C   0  0  0  0  0  0
  -25.9047  -34.9448   23.5093 C   0  0  0  0  0  0
  -16.5361  -29.9054   23.6354 C   0  0  0  0  0  0
  -16.7275  -28.6485   23.0330 C   0  0  0  0  0  0
  -26.4503  -31.6583   25.0689 C   0  0  0  0  0  0
  -25.3745  -31.3688   26.1413 C   0  0  0  0  0  0
  -27.0377  -30.3032   24.6089 C   0  0  0  0  0  0
  -27.6032  -32.4330   25.7502 C   0  0  0  0  0  0
  -27.5572  -37.1775   24.8460 C   0  0  0  0  0  0
  -21.4150  -29.3007   22.3683 N   0  0  0  0  0  0
  -26.4265  -37.3763   23.9418 N   0  0  0  0  0  0
  -24.6765  -31.0659   22.0958 N   0  0  0  0  0  0
  -23.4185  -28.8218   23.3017 O   0  0  0  0  0  0
  -28.3562  -26.5547   20.1204 O   0  0  0  0  0  0
  -26.5571  -34.8917   22.4631 O   0  0  0  0  0  0
  -23.5427  -32.1397   23.7402 O   0  0  0  0  0  0
  -29.1219  -19.3914   20.5327 C   0  0  0  0  0  0
  -29.4664  -18.1971   21.2449 C   0  0  0  0  0  0
  -29.0980  -18.1003   22.6113 C   0  0  0  0  0  0
  -27.8622  -20.2371   22.4332 C   0  0  0  0  0  0
  -28.3385  -20.4433   21.1093 C   0  0  0  0  0  0
  -28.2700  -19.0980   23.1854 C   0  0  0  0  0  0
  -29.5931  -16.9415   23.4792 C   0  0  0  0  0  0
  -26.9033  -21.2574   23.0508 C   0  0  0  0  0  0
  -28.9679  -22.0196   18.2107 C   0  0  0  0  0  0
  -30.2824  -17.0694   20.5466 C   0  0  0  0  0  0
  -28.1370  -24.0418   19.4559 C   0  0  0  0  0  0
  -28.2657  -25.1540   20.5633 C   0  0  0  0  0  0
  -28.7532  -22.5772   19.6371 C   0  0  1  0  0  0
  -27.9185  -21.6392   20.4341 N   0  0  0  0  0  0
  -29.8891  -15.6502   20.7826 N   0  0  0  0  0  0
  -27.7506  -18.9114   24.8309 Cl  0  0  0  0  0  0
  -31.4667  -12.4372   19.1606 H   0  0  0  0  0  0
  -30.3183  -11.3490   19.8838 H   0  0  0  0  0  0
  -29.7523  -11.7590   17.4648 H   0  0  0  0  0  0
  -29.6501  -13.4776   17.7629 H   0  0  0  0  0  0
  -27.8594  -11.2934   18.8756 H   0  0  0  0  0  0
  -27.3612  -12.5720   17.8010 H   0  0  0  0  0  0
  -27.6703  -14.2561   19.5349 H   0  0  0  0  0  0
  -28.6798  -12.0403   21.3878 H   0  0  0  0  0  0
  -28.4543  -13.7054   21.8478 H   0  0  0  0  0  0
  -25.2737   -9.5677   22.4793 H   0  0  0  0  0  0
  -23.9969   -7.4624   22.7491 H   0  0  0  0  0  0
  -21.0844   -8.8750   19.8934 H   0  0  0  0  0  0
  -22.3701  -10.9654   19.6149 H   0  0  0  0  0  0
  -21.1966   -7.6120   23.9699 H   0  0  0  0  0  0
  -21.1503   -6.0497   25.9068 H   0  0  0  0  0  0
  -22.0605   -2.7595   23.2812 H   0  0  0  0  0  0
  -22.3990  -11.9759   22.4675 H   0  0  0  0  0  0
  -21.1088  -13.1243   22.2675 H   0  0  0  0  0  0
  -24.6562  -15.8463   20.5093 H   0  0  0  0  0  0
  -26.2818  -15.6320   20.1063 H   0  0  0  0  0  0
  -26.7174  -32.5451   23.1062 H   0  0  0  0  0  0
  -25.0306  -33.9761   25.0558 H   0  0  0  0  0  0
  -22.7003  -31.3045   21.3995 H   0  0  0  0  0  0
  -23.3807  -35.9527   23.3283 H   0  0  0  0  0  0
  -24.3570  -36.8856   22.2062 H   0  0  0  0  0  0
  -23.7198  -37.6412   23.6679 H   0  0  0  0  0  0
  -26.0699  -31.5715   20.6003 H   0  0  0  0  0  0
  -26.8290  -30.8489   21.9877 H   0  0  0  0  0  0
  -28.1124  -29.0358   21.1453 H   0  0  0  0  0  0
  -26.0022  -25.9156   19.0463 H   0  0  0  0  0  0
  -23.9607  -27.2833   19.0432 H   0  0  0  0  0  0
  -23.7295  -30.5894   19.4002 H   0  0  0  0  0  0
  -22.7411  -29.2401   19.8645 H   0  0  0  0  0  0
  -25.1297  -36.1866   25.0825 H   0  0  0  0  0  0
  -20.9941  -28.3225   24.1440 H   0  0  0  0  0  0
  -20.5601  -26.2272   23.3632 H   0  0  0  0  0  0
  -21.6654  -26.7375   22.1259 H   0  0  0  0  0  0
  -19.6965  -25.6259   21.1221 H   0  0  0  0  0  0
  -19.6800  -27.3177   20.6747 H   0  0  0  0  0  0
  -17.4250  -26.6752   21.3874 H   0  0  0  0  0  0
  -18.0233  -26.0011   22.8841 H   0  0  0  0  0  0
  -19.7962  -30.7198   24.2246 H   0  0  0  0  0  0
  -17.5059  -31.6258   24.5139 H   0  0  0  0  0  0
  -15.5368  -30.2951   23.7719 H   0  0  0  0  0  0
  -15.8655  -28.0819   22.7043 H   0  0  0  0  0  0
  -24.6184  -30.6660   25.7856 H   0  0  0  0  0  0
  -24.8624  -32.2805   26.4508 H   0  0  0  0  0  0
  -25.8139  -30.9280   27.0378 H   0  0  0  0  0  0
  -26.2943  -29.6762   24.1148 H   0  0  0  0  0  0
  -27.4190  -29.7250   25.4522 H   0  0  0  0  0  0
  -27.8735  -30.4362   23.9220 H   0  0  0  0  0  0
  -27.2632  -33.3697   26.1942 H   0  0  0  0  0  0
  -28.3965  -32.6764   25.0416 H   0  0  0  0  0  0
  -28.0571  -31.8542   26.5561 H   0  0  0  0  0  0
  -28.2562  -38.0097   24.7489 H   0  0  0  0  0  0
  -28.1081  -36.2611   24.6274 H   0  0  0  0  0  0
  -27.2292  -37.1381   25.8867 H   0  0  0  0  0  0
  -20.9312  -29.8764   21.6939 H   0  0  0  0  0  0
  -26.0137  -38.2823   24.1469 H   0  0  0  0  0  0
  -29.4440  -19.4637   19.5092 H   0  0  0  0  0  0
  -30.5682  -16.5819   23.1528 H   0  0  0  0  0  0
  -28.8897  -16.1081   23.4532 H   0  0  0  0  0  0
  -29.7408  -17.2316   24.5186 H   0  0  0  0  0  0
  -26.0990  -21.4967   22.3550 H   0  0  0  0  0  0
  -27.4392  -22.1738   23.3004 H   0  0  0  0  0  0
  -26.4066  -20.9072   23.9528 H   0  0  0  0  0  0
  -29.5906  -22.6839   17.6093 H   0  0  0  0  0  0
  -28.0211  -21.9095   17.6780 H   0  0  0  0  0  0
  -29.4698  -21.0583   18.1791 H   0  0  0  0  0  0
  -31.3265  -17.2005   20.8296 H   0  0  0  0  0  0
  -30.2525  -17.2357   19.4693 H   0  0  0  0  0  0
  -28.6363  -24.4873   18.5938 H   0  0  0  0  0  0
  -27.0940  -23.9532   19.1514 H   0  0  0  0  0  0
  -29.1926  -24.9635   21.1041 H   0  0  0  0  0  0
  -27.4753  -25.0322   21.3056 H   0  0  0  0  0  0
  -29.7330  -22.6612   20.1121 H   0  0  0  0  0  0
  -27.1405  -22.0989   20.9003 H   0  0  0  0  0  0
  -28.9302  -15.4801   21.0386 H   0  0  0  0  0  0
  1 25  1  0  0  0
  1 30  2  0  0  0
  1 85  1  0  0  0
  2  3  1  0  0  0
  2 25  1  0  0  0
  2 87  1  0  0  0
  2 88  1  0  0  0
  3  4  1  0  0  0
  3 89  1  0  0  0
  3 90  1  0  0  0
  4  5  1  0  0  0
  4 91  1  0  0  0
  4 92  1  0  0  0
  5  6  1  0  0  0
  5 26  1  0  0  0
  5 93  1  0  0  0
  6 25  1  0  0  0
  6 94  1  0  0  0
  6 95  1  0  0  0
  7  8  2  0  0  0
  7 26  1  0  0  0
  7 29  1  0  0  0
  8  9  1  0  0  0
  8 22  1  0  0  0
  9 10  1  0  0  0
  9 27  2  0  0  0
 10 11  2  0  0  0
 10 15  1  0  0  0
 11 12  1  0  0  0
 11 96  1  0  0  0
 12 13  2  0  0  0
 12 97  1  0  0  0
 13 14  1  0  0  0
 13 31  1  0  0  0
 14 15  2  0  0  0
 14 98  1  0  0  0
 15 99  1  0  0  0
 16 17  2  0  0  0
 16 21  1  0  0  0
 16 31  1  0  0  0
 17 18  1  0  0  0
 17100  1  0  0  0
 18 19  2  0  0  0
 18101  1  0  0  0
 19 20  1  0  0  0
 19 24  1  0  0  0
 20 21  2  0  0  0
 20102  1  0  0  0
 21 23  1  0  0  0
 22 28  1  0  0  0
 22 32  2  0  0  0
 26 27  1  0  0  0
 28103  1  0  0  0
 28104  1  0  0  0
 29105  1  0  0  0
 29106  1  0  0  0
 33 34  1  0  0  0
 33 66  1  0  0  0
 33 70  2  0  0  0
 34 36  1  0  0  0
 34 59  1  0  0  0
 34107  1  0  0  0
 35 44  2  0  0  0
 35 45  1  0  0  0
 35 68  1  0  0  0
 36 56  1  0  0  0
 36108  1  0  0  0
 37 39  1  0  0  0
 37 47  1  0  0  0
 37 66  1  0  0  0
 37109  1  0  0  0
 38 43  2  0  0  0
 38 46  1  0  0  0
 38 47  1  0  0  0
 39 64  1  0  0  0
 39 67  2  0  0  0
 40 52  1  0  0  0
 40 53  2  0  0  0
 40 58  1  0  0  0
 41110  1  0  0  0
 41111  1  0  0  0
 41112  1  0  0  0
 41 48  1  0  0  0
 42 43  1  0  0  0
 42 66  1  0  0  0
 42113  1  0  0  0
 42114  1  0  0  0
 43 44  1  0  0  0
 44115  1  0  0  0
 45 46  2  0  0  0
 45116  1  0  0  0
 46117  1  0  0  0
 47118  1  0  0  0
 47119  1  0  0  0
 48 56  1  0  0  0
 48 65  1  0  0  0
 48120  1  0  0  0
 49 50  1  0  0  0
 49 53  1  0  0  0
 49 64  1  0  0  0
 49121  1  0  0  0
 50 51  1  0  0  0
 50122  1  0  0  0
 50123  1  0  0  0
 51 52  1  0  0  0
 51124  1  0  0  0
 51125  1  0  0  0
 52126  1  0  0  0
 52127  1  0  0  0
 53 54  1  0  0  0
 54 55  2  0  0  0
 54128  1  0  0  0
 55 57  1  0  0  0
 55129  1  0  0  0
 56 69  2  0  0  0
 57 58  2  0  0  0
 57130  1  0  0  0
 58131  1  0  0  0
 59 60  1  0  0  0
 59 61  1  0  0  0
 59 62  1  0  0  0
 60132  1  0  0  0
 60133  1  0  0  0
 60134  1  0  0  0
 61135  1  0  0  0
 61136  1  0  0  0
 61137  1  0  0  0
 62138  1  0  0  0
 62139  1  0  0  0
 62140  1  0  0  0
 63 65  1  0  0  0
 63141  1  0  0  0
 63142  1  0  0  0
 63143  1  0  0  0
 64144  1  0  0  0
 65145  1  0  0  0
 68 82  1  0  0  0
 71 72  2  0  0  0
 71 75  1  0  0  0
 71146  1  0  0  0
 72 73  1  0  0  0
 72 80  1  0  0  0
 73 76  2  0  0  0
 73 77  1  0  0  0
 74 75  2  0  0  0
 74 76  1  0  0  0
 74 78  1  0  0  0
 75 84  1  0  0  0
 76 86  1  0  0  0
 77147  1  0  0  0
 77148  1  0  0  0
 77149  1  0  0  0
 78150  1  0  0  0
 78151  1  0  0  0
 78152  1  0  0  0
 79153  1  0  0  0
 79154  1  0  0  0
 79155  1  0  0  0
 79 83  1  0  0  0
 80 85  1  0  0  0
 80156  1  0  0  0
 80157  1  0  0  0
 81 82  1  0  0  0
 81 83  1  0  0  0
 81158  1  0  0  0
 81159  1  0  0  0
 82160  1  0  0  0
 82161  1  0  0  0
 83 84  1  0  0  0
 83162  1  0  0  0
 84163  1  0  0  0
 85164  1  0  0  0
M  ISO  4   1 100  68 101  82 101  85 100
M  END
> <chiral flag>
0

> <version>
0

> <s_m_source_file>
/data/baiqing/PycharmProjects/Reinvent-master-3.2/result/LINK_invent/BTK/process_docking_weight1_custom_sum_contain_oxygen_bond_distance_aromatic_linkinvent_7_9_3/rearranged_h_0018.sdf

> <i_m_source_file_index>
35

> <r_mmod_Potential_Energy-OPLS-2005>
-10.1130275726318

> <r_mmod_Stretch_Energy-OPLS-2005>
68.00634765625

> <r_mmod_Bend_Energy-OPLS-2005>
144.032028198242

> <r_mmod_Torsional_Energy-OPLS-2005>
232.451782226562

> <r_mmod_Improper_Torsional_Energy-OPLS-2005>
7.92247438430786

> <r_mmod_Van_der_Waal_Energy-OPLS-2005>
155.702163696289

> <r_mmod_Electrostatic_Energy-OPLS-2005>
-447.102691650391

> <r_mmod_Solvation_Energy-OPLS-2005>
-202.697830200195

> <b_mmod_Minimization_Converged-OPLS-2005>
0

> <r_mmod_RMS_Derivative-OPLS-2005>
4.19943141937256

$$$$
36
                    3D
 Structure written by MMmdl.
160168  0  0  1  0            999 V2000
  -28.4494  -14.2461   19.6816 C   0  0  0  0  0  0
  -30.3579  -12.7143   19.2197 C   0  0  0  0  0  0
  -29.3796  -12.0316   18.2942 C   0  0  0  0  0  0
  -28.1759  -11.5322   19.1651 C   0  0  0  0  0  0
  -28.1821  -11.9661   20.8186 C   0  0  2  0  0  0
  -29.2893  -12.7415   21.3179 C   0  0  0  0  0  0
  -26.4107  -14.3771   21.6373 C   0  0  0  0  0  0
  -24.5165  -13.6494   20.4793 C   0  0  0  0  0  0
  -24.7957  -11.9951   20.3320 C   0  0  0  0  0  0
  -23.9691  -10.6616   20.6912 C   0  0  0  0  0  0
  -24.4001   -9.6341   21.6350 C   0  0  0  0  0  0
  -23.6807   -8.4337   21.9492 C   0  0  0  0  0  0
  -22.4541   -8.1551   21.3082 C   0  0  0  0  0  0
  -21.9958   -9.1362   20.4020 C   0  0  0  0  0  0
  -22.7147  -10.3346   20.1151 C   0  0  0  0  0  0
  -21.7391   -6.1370   22.5184 C   0  0  0  0  0  0
  -21.4431   -6.6061   23.8184 C   0  0  0  0  0  0
  -21.3819   -5.7074   24.9059 C   0  0  0  0  0  0
  -21.6057   -4.3329   24.7050 C   0  0  0  0  0  0
  -21.8800   -3.8536   23.4120 C   0  0  0  0  0  0
  -21.9374   -4.7487   22.3253 C   0  0  0  0  0  0
  -22.9232  -13.7850   20.6556 C   0  0  0  0  0  0
  -22.1707   -4.2587   21.0834 F   0  0  0  0  0  0
  -21.5533   -3.4709   25.7502 F   0  0  0  0  0  0
  -29.4784  -13.4458   20.1538 N   0  0  0  0  0  0
  -27.0707  -12.6496   21.4582 N   0  0  0  0  0  0
  -26.1267  -11.6458   20.7624 N   0  0  0  0  0  0
  -22.2476  -12.9857   21.5203 N   0  0  0  0  0  0
  -27.0718  -15.5251   21.9486 N   0  0  0  0  0  0
  -29.2664  -15.1869   19.3939 O   0  0  0  0  0  0
  -21.7201   -6.9769   21.4202 O   0  0  0  0  0  0
  -22.3077  -14.7321   20.2036 O   0  0  0  0  0  0
  -24.6434  -31.8481   23.1943 C   0  0  0  0  0  0
  -25.9225  -32.4698   23.8299 C   0  0  1  0  0  0
  -27.0659  -27.1085   20.1269 C   0  0  0  0  0  0
  -25.5988  -33.8505   24.2221 N   0  0  0  0  0  0
  -23.4360  -30.4865   21.5421 C   0  0  2  0  0  0
  -24.8509  -28.9296   20.0937 C   0  0  0  0  0  0
  -22.7542  -29.4603   22.4834 C   0  0  0  0  0  0
  -18.0311  -28.1387   22.8490 C   0  0  0  0  0  0
  -24.1502  -36.7248   23.2641 C   0  0  0  0  0  0
  -25.9962  -30.7152   21.3911 C   0  0  0  0  0  0
  -26.0357  -29.3313   20.7223 C   0  0  0  0  0  0
  -27.1608  -28.4260   20.7284 C   0  0  0  0  0  0
  -25.8756  -26.8204   19.4483 C   0  0  0  0  0  0
  -24.7826  -27.6954   19.4431 C   0  0  0  0  0  0
  -23.6479  -29.8484   20.1489 C   0  0  0  0  0  0
  -25.4129  -36.3028   24.0321 C   0  0  1  0  0  0
  -20.5924  -28.3709   23.1234 C   0  0  2  0  0  0
  -20.6791  -26.9414   22.5394 C   0  0  0  0  0  0
  -19.5755  -26.6386   21.5209 C   0  0  0  0  0  0
  -18.1940  -26.7929   22.1633 C   0  0  0  0  0  0
  -19.1569  -28.8862   23.2864 C   0  0  0  0  0  0
  -18.9477  -30.1454   23.8893 C   0  0  0  0  0  0
  -17.6473  -30.6578   24.0562 C   0  0  0  0  0  0
  -25.9080  -34.9404   23.5074 C   0  0  0  0  0  0
  -16.5365  -29.9074   23.6328 C   0  0  0  0  0  0
  -16.7294  -28.6495   23.0350 C   0  0  0  0  0  0
  -26.4548  -31.6547   25.0720 C   0  0  0  0  0  0
  -25.3746  -31.3706   26.1419 C   0  0  0  0  0  0
  -27.0415  -30.2953   24.6268 C   0  0  0  0  0  0
  -27.6080  -32.4310   25.7497 C   0  0  0  0  0  0
  -27.5581  -37.1782   24.8467 C   0  0  0  0  0  0
  -21.4236  -29.3063   22.3612 N   0  0  0  0  0  0
  -26.4293  -37.3738   23.9409 N   0  0  0  0  0  0
  -24.7135  -31.0377   22.0974 N   0  0  0  0  0  0
  -23.4239  -28.8118   23.2915 O   0  0  0  0  0  0
  -28.0084  -26.0485   20.2238 O   0  0  0  0  0  0
  -26.5644  -34.8896   22.4638 O   0  0  0  0  0  0
  -23.5556  -32.1371   23.7197 O   0  0  0  0  0  0
  -24.3775  -15.8097   21.9269 C   0  0  0  0  0  0
  -26.5124  -13.8346   19.6398 C   0  0  0  0  0  0
  -25.0372  -16.2459   20.4809 C   0  0  0  0  0  0
  -25.0457  -13.0293   22.4402 C   0  0  0  0  0  0
  -24.3431  -14.4636   22.8665 C   0  0  0  0  0  0
  -25.9067  -15.3603   19.4077 C   0  0  0  0  0  0
  -25.2626  -11.9812   23.5498 C   0  0  0  0  0  0
  -24.9443  -17.8832   20.2399 C   0  0  0  0  0  0
  -26.8563  -21.7262   19.8156 C   0  0  0  0  0  0
  -26.9321  -23.2998   20.4295 C   0  0  0  0  0  0
  -26.0207  -20.4348   20.5089 C   0  0  0  0  0  0
  -27.7478  -24.5910   19.7287 C   0  0  0  0  0  0
  -26.1206  -18.9228   20.0380 N   0  3  0  0  0  0
  -23.7412  -14.5438   24.0762 F   0  0  0  0  0  0
  -26.4209  -16.1733   17.9713 Cl  0  0  0  0  0  0
  -31.0099  -13.3967   18.6678 H   0  0  0  0  0  0
  -31.0077  -11.9805   19.6967 H   0  0  0  0  0  0
  -29.8614  -11.2049   17.7728 H   0  0  0  0  0  0
  -29.0337  -12.7186   17.5211 H   0  0  0  0  0  0
  -28.2484  -10.4454   19.1679 H   0  0  0  0  0  0
  -27.2503  -11.6793   18.6071 H   0  0  0  0  0  0
  -28.2908  -11.0151   21.3527 H   0  0  0  0  0  0
  -30.1276  -12.1055   21.6028 H   0  0  0  0  0  0
  -29.1119  -13.3992   22.1728 H   0  0  0  0  0  0
  -25.3542   -9.7336   22.1259 H   0  0  0  0  0  0
  -24.1073   -7.7222   22.6410 H   0  0  0  0  0  0
  -21.0647   -8.9602   19.8814 H   0  0  0  0  0  0
  -22.2907  -11.0217   19.3971 H   0  0  0  0  0  0
  -21.2553   -7.6570   23.9802 H   0  0  0  0  0  0
  -21.1615   -6.0769   25.8980 H   0  0  0  0  0  0
  -22.0400   -2.7990   23.2513 H   0  0  0  0  0  0
  -22.7174  -12.2265   21.9928 H   0  0  0  0  0  0
  -21.2640  -13.1425   21.6887 H   0  0  0  0  0  0
  -26.4747  -16.2880   22.2334 H   0  0  0  0  0  0
  -27.8947  -15.4615   22.5380 H   0  0  0  0  0  0
  -26.7263  -32.5274   23.0989 H   0  0  0  0  0  0
  -25.0136  -33.9627   25.0368 H   0  0  0  0  0  0
  -22.7388  -31.3156   21.4067 H   0  0  0  0  0  0
  -23.3768  -35.9576   23.3293 H   0  0  0  0  0  0
  -24.3599  -36.8881   22.2058 H   0  0  0  0  0  0
  -23.7258  -37.6446   23.6675 H   0  0  0  0  0  0
  -26.1619  -31.4730   20.6235 H   0  0  0  0  0  0
  -26.8683  -30.7510   22.0323 H   0  0  0  0  0  0
  -28.0626  -28.7012   21.2572 H   0  0  0  0  0  0
  -25.7157  -25.8736   18.9582 H   0  0  0  0  0  0
  -23.8702  -27.3924   18.9494 H   0  0  0  0  0  0
  -23.8021  -30.6352   19.4090 H   0  0  0  0  0  0
  -22.7524  -29.3127   19.8278 H   0  0  0  0  0  0
  -25.1316  -36.1862   25.0813 H   0  0  0  0  0  0
  -21.0039  -28.3283   24.1344 H   0  0  0  0  0  0
  -20.5686  -26.2308   23.3602 H   0  0  0  0  0  0
  -21.6646  -26.7413   22.1176 H   0  0  0  0  0  0
  -19.6901  -25.6300   21.1218 H   0  0  0  0  0  0
  -19.6675  -27.3209   20.6746 H   0  0  0  0  0  0
  -17.4200  -26.6680   21.4039 H   0  0  0  0  0  0
  -18.0338  -26.0072   22.9033 H   0  0  0  0  0  0
  -19.7945  -30.7276   24.2260 H   0  0  0  0  0  0
  -17.5016  -31.6254   24.5167 H   0  0  0  0  0  0
  -15.5359  -30.2968   23.7642 H   0  0  0  0  0  0
  -15.8700  -28.0805   22.7060 H   0  0  0  0  0  0
  -24.5953  -30.7015   25.7746 H   0  0  0  0  0  0
  -24.8899  -32.2867   26.4795 H   0  0  0  0  0  0
  -25.8057  -30.8926   27.0220 H   0  0  0  0  0  0
  -26.3023  -29.6667   24.1281 H   0  0  0  0  0  0
  -27.4061  -29.7251   25.4819 H   0  0  0  0  0  0
  -27.8919  -30.4210   23.9566 H   0  0  0  0  0  0
  -27.2667  -33.3608   26.2052 H   0  0  0  0  0  0
  -28.3889  -32.6868   25.0327 H   0  0  0  0  0  0
  -28.0742  -31.8452   26.5420 H   0  0  0  0  0  0
  -28.2578  -38.0097   24.7520 H   0  0  0  0  0  0
  -28.1102  -36.2624   24.6289 H   0  0  0  0  0  0
  -27.2299  -37.1415   25.8871 H   0  0  0  0  0  0
  -20.9408  -29.8842   21.6874 H   0  0  0  0  0  0
  -26.0160  -38.2806   24.1413 H   0  0  0  0  0  0
  -23.8726  -16.6242   22.4265 H   0  0  0  0  0  0
  -26.1254  -11.3326   23.4008 H   0  0  0  0  0  0
  -24.3695  -11.3700   23.6786 H   0  0  0  0  0  0
  -25.4194  -12.4966   24.4973 H   0  0  0  0  0  0
  -24.4232  -18.2716   21.1149 H   0  0  0  0  0  0
  -24.2413  -18.0377   19.4217 H   0  0  0  0  0  0
  -27.8854  -21.3952   19.6700 H   0  0  0  0  0  0
  -26.4618  -21.8209   18.8025 H   0  0  0  0  0  0
  -27.3316  -23.2058   21.4392 H   0  0  0  0  0  0
  -25.9030  -23.6282   20.5709 H   0  0  0  0  0  0
  -24.9619  -20.6965   20.5101 H   0  0  0  0  0  0
  -26.3038  -20.4096   21.5625 H   0  0  0  0  0  0
  -28.7656  -24.2140   19.6270 H   0  0  0  0  0  0
  -27.4221  -24.6554   18.6915 H   0  0  0  0  0  0
  -26.3077  -18.9304   19.0488 H   0  0  0  0  0  0
  -26.9431  -18.5342   20.4712 H   0  0  0  0  0  0
  1 25  1  0  0  0
  1 30  2  0  0  0
  1 72  1  0  0  0
  2  3  1  0  0  0
  2 25  1  0  0  0
  2 86  1  0  0  0
  2 87  1  0  0  0
  3  4  1  0  0  0
  3 88  1  0  0  0
  3 89  1  0  0  0
  4  5  1  0  0  0
  4 90  1  0  0  0
  4 91  1  0  0  0
  5  6  1  0  0  0
  5 26  1  0  0  0
  5 92  1  0  0  0
  6 25  1  0  0  0
  6 93  1  0  0  0
  6 94  1  0  0  0
  7  8  2  0  0  0
  7 26  1  0  0  0
  7 29  1  0  0  0
  8  9  1  0  0  0
  8 22  1  0  0  0
  9 10  1  0  0  0
  9 27  2  0  0  0
 10 11  2  0  0  0
 10 15  1  0  0  0
 11 12  1  0  0  0
 11 95  1  0  0  0
 12 13  2  0  0  0
 12 96  1  0  0  0
 13 14  1  0  0  0
 13 31  1  0  0  0
 14 15  2  0  0  0
 14 97  1  0  0  0
 15 98  1  0  0  0
 16 17  2  0  0  0
 16 21  1  0  0  0
 16 31  1  0  0  0
 17 18  1  0  0  0
 17 99  1  0  0  0
 18 19  2  0  0  0
 18100  1  0  0  0
 19 20  1  0  0  0
 19 24  1  0  0  0
 20 21  2  0  0  0
 20101  1  0  0  0
 21 23  1  0  0  0
 22 28  1  0  0  0
 22 32  2  0  0  0
 26 27  1  0  0  0
 28102  1  0  0  0
 28103  1  0  0  0
 29104  1  0  0  0
 29105  1  0  0  0
 33 34  1  0  0  0
 33 66  1  0  0  0
 33 70  2  0  0  0
 34 36  1  0  0  0
 34 59  1  0  0  0
 34106  1  0  0  0
 35 44  2  0  0  0
 35 45  1  0  0  0
 35 68  1  0  0  0
 36 56  1  0  0  0
 36107  1  0  0  0
 37 39  1  0  0  0
 37 47  1  0  0  0
 37 66  1  0  0  0
 37108  1  0  0  0
 38 43  2  0  0  0
 38 46  1  0  0  0
 38 47  1  0  0  0
 39 64  1  0  0  0
 39 67  2  0  0  0
 40 52  1  0  0  0
 40 53  2  0  0  0
 40 58  1  0  0  0
 41109  1  0  0  0
 41110  1  0  0  0
 41111  1  0  0  0
 41 48  1  0  0  0
 42 43  1  0  0  0
 42 66  1  0  0  0
 42112  1  0  0  0
 42113  1  0  0  0
 43 44  1  0  0  0
 44114  1  0  0  0
 45 46  2  0  0  0
 45115  1  0  0  0
 46116  1  0  0  0
 47117  1  0  0  0
 47118  1  0  0  0
 48 56  1  0  0  0
 48 65  1  0  0  0
 48119  1  0  0  0
 49 50  1  0  0  0
 49 53  1  0  0  0
 49 64  1  0  0  0
 49120  1  0  0  0
 50 51  1  0  0  0
 50121  1  0  0  0
 50122  1  0  0  0
 51 52  1  0  0  0
 51123  1  0  0  0
 51124  1  0  0  0
 52125  1  0  0  0
 52126  1  0  0  0
 53 54  1  0  0  0
 54 55  2  0  0  0
 54127  1  0  0  0
 55 57  1  0  0  0
 55128  1  0  0  0
 56 69  2  0  0  0
 57 58  2  0  0  0
 57129  1  0  0  0
 58130  1  0  0  0
 59 60  1  0  0  0
 59 61  1  0  0  0
 59 62  1  0  0  0
 60131  1  0  0  0
 60132  1  0  0  0
 60133  1  0  0  0
 61134  1  0  0  0
 61135  1  0  0  0
 61136  1  0  0  0
 62137  1  0  0  0
 62138  1  0  0  0
 62139  1  0  0  0
 63 65  1  0  0  0
 63140  1  0  0  0
 63141  1  0  0  0
 63142  1  0  0  0
 64143  1  0  0  0
 65144  1  0  0  0
 68 82  1  0  0  0
 71 73  2  0  0  0
 71 75  1  0  0  0
 71145  1  0  0  0
 72 74  1  0  0  0
 72 76  2  0  0  0
 73 76  1  0  0  0
 73 78  1  0  0  0
 74 75  2  0  0  0
 74 77  1  0  0  0
 75 84  1  0  0  0
 76 85  1  0  0  0
 77146  1  0  0  0
 77147  1  0  0  0
 77148  1  0  0  0
 78 83  1  0  0  0
 78149  1  0  0  0
 78150  1  0  0  0
 79 80  1  0  0  0
 79 81  1  0  0  0
 79151  1  0  0  0
 79152  1  0  0  0
 80 82  1  0  0  0
 80153  1  0  0  0
 80154  1  0  0  0
 81 83  1  0  0  0
 81155  1  0  0  0
 81156  1  0  0  0
 82157  1  0  0  0
 82158  1  0  0  0
 83159  1  0  0  0
 83160  1  0  0  0
M  CHG  1  83   1
M  ISO  4   1 100  68 101  72 100  82 101
M  END
> <chiral flag>
0

> <version>
0

> <s_m_source_file>
/data/baiqing/PycharmProjects/Reinvent-master-3.2/result/LINK_invent/BTK/process_docking_weight1_custom_sum_contain_oxygen_bond_distance_aromatic_linkinvent_7_9_3/rearranged_h_0018.sdf

> <i_m_source_file_index>
36

> <r_mmod_Potential_Energy-OPLS-2005>
19189.20703125

> <r_mmod_Stretch_Energy-OPLS-2005>
10956.3798828125

> <r_mmod_Bend_Energy-OPLS-2005>
944.533813476562

> <r_mmod_Torsional_Energy-OPLS-2005>
520.441101074219

> <r_mmod_Improper_Torsional_Energy-OPLS-2005>
94.2268981933594

> <r_mmod_Van_der_Waal_Energy-OPLS-2005>
4173.99609375

> <r_mmod_Electrostatic_Energy-OPLS-2005>
-307.702850341797

> <r_mmod_Solvation_Energy-OPLS-2005>
-430.899810791016

> <b_mmod_Minimization_Converged-OPLS-2005>
0

> <r_mmod_RMS_Derivative-OPLS-2005>
11.8094034194946

$$$$
37
                    3D
 Structure written by MMmdl.
185193  0  0  1  0            999 V2000
  -30.6915  -14.4503   20.5907 C   0  0  0  0  0  0
  -30.4297  -12.2981   19.4051 C   0  0  0  0  0  0
  -29.4922  -12.4943   18.1935 C   0  0  0  0  0  0
  -28.0106  -12.3664   18.6057 C   0  0  0  0  0  0
  -27.6671  -13.1950   19.8732 C   0  0  2  0  0  0
  -28.7088  -12.9445   20.9867 C   0  0  0  0  0  0
  -25.2665  -13.8171   20.5671 C   0  0  0  0  0  0
  -24.1878  -13.0456   20.9181 C   0  0  0  0  0  0
  -24.6410  -11.6919   20.8694 C   0  0  0  0  0  0
  -23.9047  -10.4311   21.0355 C   0  0  0  0  0  0
  -24.3595   -9.4235   21.9150 C   0  0  0  0  0  0
  -23.6278   -8.2268   22.0742 C   0  0  0  0  0  0
  -22.4265   -8.0276   21.3539 C   0  0  0  0  0  0
  -21.9884   -9.0248   20.4632 C   0  0  0  0  0  0
  -22.7207  -10.2131   20.3028 C   0  0  0  0  0  0
  -21.6852   -6.0734   22.5276 C   0  0  0  0  0  0
  -21.4013   -6.5640   23.8203 C   0  0  0  0  0  0
  -21.3648   -5.6786   24.9165 C   0  0  0  0  0  0
  -21.6046   -4.3055   24.7214 C   0  0  0  0  0  0
  -21.8823   -3.8148   23.4334 C   0  0  0  0  0  0
  -21.9197   -4.6968   22.3387 C   0  0  0  0  0  0
  -22.7934  -13.5254   21.1834 C   0  0  0  0  0  0
  -22.1676   -4.2153   21.0971 F   0  0  0  0  0  0
  -21.5608   -3.4530   25.7725 F   0  0  0  0  0  0
  -30.0389  -13.2681   20.4411 N   0  0  0  0  0  0
  -26.3065  -12.9288   20.3349 N   0  0  0  0  0  0
  -25.9333  -11.6467   20.5758 N   0  0  0  0  0  0
  -22.0552  -12.8237   22.0373 N   0  0  0  0  0  0
  -25.4477  -15.1872   20.4072 N   0  0  0  0  0  0
  -31.8134  -14.6612   20.1241 O   0  0  0  0  0  0
  -21.6647   -6.8876   21.4230 O   0  0  0  0  0  0
  -22.3601  -14.5564   20.6678 O   0  0  0  0  0  0
  -24.6140  -31.8709   23.2152 C   0  0  0  0  0  0
  -25.9057  -32.4834   23.8422 C   0  0  1  0  0  0
  -27.2051  -27.4208   20.1060 C   0  0  0  0  0  0
  -25.5951  -33.8630   24.2352 N   0  0  0  0  0  0
  -23.4040  -30.4990   21.5562 C   0  0  2  0  0  0
  -24.8492  -28.9797   20.1066 C   0  0  0  0  0  0
  -22.7421  -29.4672   22.4974 C   0  0  0  0  0  0
  -18.0259  -28.1362   22.8485 C   0  0  0  0  0  0
  -24.1482  -36.7291   23.2650 C   0  0  0  0  0  0
  -25.9352  -30.8301   21.3779 C   0  0  0  0  0  0
  -26.0133  -29.4705   20.7130 C   0  0  0  0  0  0
  -27.2012  -28.7000   20.7073 C   0  0  0  0  0  0
  -26.0261  -26.9556   19.4840 C   0  0  0  0  0  0
  -24.8500  -27.7200   19.4895 C   0  0  0  0  0  0
  -23.6112  -29.8475   20.1642 C   0  0  0  0  0  0
  -25.4124  -36.3086   24.0304 C   0  0  1  0  0  0
  -20.5855  -28.3641   23.1284 C   0  0  2  0  0  0
  -20.6785  -26.9370   22.5398 C   0  0  0  0  0  0
  -19.5757  -26.6368   21.5212 C   0  0  0  0  0  0
  -18.1913  -26.7899   22.1608 C   0  0  0  0  0  0
  -19.1517  -28.8824   23.2871 C   0  0  0  0  0  0
  -18.9477  -30.1448   23.8877 C   0  0  0  0  0  0
  -17.6484  -30.6593   24.0541 C   0  0  0  0  0  0
  -25.9047  -34.9463   23.5102 C   0  0  0  0  0  0
  -16.5365  -29.9088   23.6321 C   0  0  0  0  0  0
  -16.7245  -28.6487   23.0347 C   0  0  0  0  0  0
  -26.4507  -31.6657   25.0772 C   0  0  0  0  0  0
  -25.3751  -31.3735   26.1483 C   0  0  0  0  0  0
  -27.0419  -30.3106   24.6201 C   0  0  0  0  0  0
  -27.6076  -32.4437   25.7511 C   0  0  0  0  0  0
  -27.5572  -37.1768   24.8455 C   0  0  0  0  0  0
  -21.4158  -29.3000   22.3682 N   0  0  0  0  0  0
  -26.4306  -37.3766   23.9397 N   0  0  0  0  0  0
  -24.6691  -31.0794   22.1073 N   0  0  0  0  0  0
  -23.4183  -28.8200   23.3018 O   0  0  0  0  0  0
  -28.3182  -26.6127   20.1438 O   0  0  0  0  0  0
  -26.5604  -34.8919   22.4667 O   0  0  0  0  0  0
  -23.5350  -32.1555   23.7515 O   0  0  0  0  0  0
  -29.6943  -21.0019   21.0142 C   0  0  0  0  0  0
  -31.6025  -21.2785   23.0171 C   0  0  0  0  0  0
  -30.7612  -20.0754   21.0670 C   0  0  0  0  0  0
  -29.5764  -22.0860   21.9151 C   0  0  0  0  0  0
  -31.7438  -20.2350   22.0764 C   0  0  0  0  0  0
  -30.5167  -22.1801   22.9777 C   0  0  0  0  0  0
  -32.9532  -19.3217   22.2016 C   0  0  0  0  0  0
  -27.1578  -22.3875   18.8879 C   0  0  0  0  0  0
  -29.8024  -24.0832   19.7973 C   0  0  0  0  0  0
  -29.2036  -23.7385   26.0829 C   0  0  0  0  0  0
  -28.8858  -21.4303   25.1732 C   0  0  0  0  0  0
  -31.0822  -22.1066   26.2152 C   0  0  0  0  0  0
  -30.8583  -19.0466   19.9298 C   0  0  0  0  0  0
  -28.3911  -23.0574   21.7307 C   0  0  0  0  0  0
  -27.2993  -23.7997   19.4908 C   0  0  0  0  0  0
  -31.0700  -17.5379   20.2385 C   0  0  0  0  0  0
  -30.1303  -16.8812   21.2761 C   0  0  0  0  0  0
  -28.2230  -25.5304   21.0990 C   0  0  0  0  0  0
  -28.4399  -24.0846   20.5247 C   0  0  2  0  0  0
  -29.9028  -22.5867   25.3364 C   0  0  0  0  0  0
  -30.3609  -23.1022   24.0322 N   0  0  0  0  0  0
  -29.9487  -15.4183   21.1622 N   0  0  0  0  0  0
  -31.4707  -12.4102   19.0930 H   0  0  0  0  0  0
  -30.3444  -11.2805   19.7951 H   0  0  0  0  0  0
  -29.7256  -11.7676   17.4148 H   0  0  0  0  0  0
  -29.6650  -13.4762   17.7490 H   0  0  0  0  0  0
  -27.8013  -11.3121   18.7844 H   0  0  0  0  0  0
  -27.3661  -12.6593   17.7766 H   0  0  0  0  0  0
  -27.7230  -14.2486   19.5977 H   0  0  0  0  0  0
  -28.6909  -11.8954   21.2859 H   0  0  0  0  0  0
  -28.4718  -13.5007   21.8950 H   0  0  0  0  0  0
  -25.2724   -9.5734   22.4736 H   0  0  0  0  0  0
  -23.9991   -7.4661   22.7461 H   0  0  0  0  0  0
  -21.0819   -8.8734   19.8938 H   0  0  0  0  0  0
  -22.3617  -10.9663   19.6144 H   0  0  0  0  0  0
  -21.2017   -7.6141   23.9706 H   0  0  0  0  0  0
  -21.1466   -6.0518   25.9063 H   0  0  0  0  0  0
  -22.0618   -2.7620   23.2827 H   0  0  0  0  0  0
  -22.4147  -11.9892   22.4752 H   0  0  0  0  0  0
  -21.1172  -13.1280   22.2548 H   0  0  0  0  0  0
  -24.6991  -15.8588   20.5355 H   0  0  0  0  0  0
  -26.3048  -15.6104   20.0729 H   0  0  0  0  0  0
  -26.7119  -32.5561   23.1189 H   0  0  0  0  0  0
  -25.0042  -33.9777   25.0444 H   0  0  0  0  0  0
  -22.6894  -31.3157   21.4242 H   0  0  0  0  0  0
  -23.3733  -35.9629   23.3341 H   0  0  0  0  0  0
  -24.3543  -36.8934   22.2054 H   0  0  0  0  0  0
  -23.7251  -37.6497   23.6700 H   0  0  0  0  0  0
  -26.0566  -31.6051   20.6183 H   0  0  0  0  0  0
  -26.8144  -30.8717   22.0095 H   0  0  0  0  0  0
  -28.1001  -29.0611   21.1879 H   0  0  0  0  0  0
  -25.9857  -26.0021   18.9924 H   0  0  0  0  0  0
  -23.9545  -27.3381   19.0133 H   0  0  0  0  0  0
  -23.7150  -30.6302   19.4101 H   0  0  0  0  0  0
  -22.7330  -29.2709   19.8676 H   0  0  0  0  0  0
  -25.1274  -36.1949   25.0792 H   0  0  0  0  0  0
  -20.9946  -28.3266   24.1423 H   0  0  0  0  0  0
  -20.5768  -26.2244   23.3590 H   0  0  0  0  0  0
  -21.6638  -26.7478   22.1148 H   0  0  0  0  0  0
  -19.6939  -25.6283   21.1253 H   0  0  0  0  0  0
  -19.6741  -27.3161   20.6725 H   0  0  0  0  0  0
  -17.4200  -26.6654   21.3983 H   0  0  0  0  0  0
  -18.0306  -26.0032   22.9007 H   0  0  0  0  0  0
  -19.7968  -30.7233   24.2263 H   0  0  0  0  0  0
  -17.5045  -31.6270   24.5163 H   0  0  0  0  0  0
  -15.5358  -30.2978   23.7694 H   0  0  0  0  0  0
  -15.8635  -28.0826   22.7069 H   0  0  0  0  0  0
  -24.5868  -30.7194   25.7739 H   0  0  0  0  0  0
  -24.8980  -32.2881   26.5012 H   0  0  0  0  0  0
  -25.8016  -30.8780   27.0210 H   0  0  0  0  0  0
  -26.2978  -29.6732   24.1390 H   0  0  0  0  0  0
  -27.4341  -29.7476   25.4691 H   0  0  0  0  0  0
  -27.8736  -30.4425   23.9264 H   0  0  0  0  0  0
  -27.2682  -33.3730   26.2095 H   0  0  0  0  0  0
  -28.3833  -32.7056   25.0310 H   0  0  0  0  0  0
  -28.0818  -31.8612   26.5415 H   0  0  0  0  0  0
  -28.2542  -38.0093   24.7550 H   0  0  0  0  0  0
  -28.1103  -36.2625   24.6253 H   0  0  0  0  0  0
  -27.2260  -37.1367   25.8840 H   0  0  0  0  0  0
  -20.9345  -29.8751   21.6914 H   0  0  0  0  0  0
  -26.0182  -38.2828   24.1482 H   0  0  0  0  0  0
  -28.9566  -20.9002   20.2389 H   0  0  0  0  0  0
  -32.3531  -21.3815   23.7840 H   0  0  0  0  0  0
  -33.7432  -19.7832   22.7992 H   0  0  0  0  0  0
  -33.3808  -19.0883   21.2291 H   0  0  0  0  0  0
  -32.6609  -18.3925   22.6903 H   0  0  0  0  0  0
  -26.4006  -22.3780   18.0995 H   0  0  0  0  0  0
  -26.8255  -21.6566   19.6250 H   0  0  0  0  0  0
  -28.0842  -22.0402   18.4388 H   0  0  0  0  0  0
  -30.0830  -23.1057   19.4027 H   0  0  0  0  0  0
  -30.6041  -24.4117   20.4614 H   0  0  0  0  0  0
  -29.7840  -24.7675   18.9481 H   0  0  0  0  0  0
  -28.8141  -23.4108   27.0510 H   0  0  0  0  0  0
  -28.3586  -24.1314   25.5142 H   0  0  0  0  0  0
  -29.8802  -24.5743   26.2837 H   0  0  0  0  0  0
  -28.5139  -21.0848   26.1387 H   0  0  0  0  0  0
  -29.3231  -20.5568   24.6861 H   0  0  0  0  0  0
  -28.0189  -21.7333   24.5851 H   0  0  0  0  0  0
  -30.7301  -21.7022   27.1675 H   0  0  0  0  0  0
  -31.7776  -22.9137   26.4587 H   0  0  0  0  0  0
  -31.6605  -21.3023   25.7664 H   0  0  0  0  0  0
  -31.6524  -19.3794   19.2607 H   0  0  0  0  0  0
  -29.9467  -19.1309   19.3347 H   0  0  0  0  0  0
  -28.2295  -23.5958   22.6642 H   0  0  0  0  0  0
  -27.4945  -22.4439   21.6543 H   0  0  0  0  0  0
  -26.3401  -24.0458   19.9475 H   0  0  0  0  0  0
  -27.4324  -24.4769   18.6448 H   0  0  0  0  0  0
  -32.0984  -17.3493   20.5459 H   0  0  0  0  0  0
  -30.9636  -17.0304   19.2773 H   0  0  0  0  0  0
  -29.1374  -17.3240   21.1827 H   0  0  0  0  0  0
  -30.4719  -17.1175   22.2852 H   0  0  0  0  0  0
  -28.9809  -25.7194   21.8615 H   0  0  0  0  0  0
  -27.2758  -25.5672   21.6423 H   0  0  0  0  0  0
  -29.8658  -23.9444   23.7577 H   0  0  0  0  0  0
  -29.0618  -15.0805   21.4973 H   0  0  0  0  0  0
  1 25  1  0  0  0
  1 30  2  0  0  0
  1 92  1  0  0  0
  2  3  1  0  0  0
  2 25  1  0  0  0
  2 93  1  0  0  0
  2 94  1  0  0  0
  3  4  1  0  0  0
  3 95  1  0  0  0
  3 96  1  0  0  0
  4  5  1  0  0  0
  4 97  1  0  0  0
  4 98  1  0  0  0
  5  6  1  0  0  0
  5 26  1  0  0  0
  5 99  1  0  0  0
  6 25  1  0  0  0
  6100  1  0  0  0
  6101  1  0  0  0
  7  8  2  0  0  0
  7 26  1  0  0  0
  7 29  1  0  0  0
  8  9  1  0  0  0
  8 22  1  0  0  0
  9 10  1  0  0  0
  9 27  2  0  0  0
 10 11  2  0  0  0
 10 15  1  0  0  0
 11 12  1  0  0  0
 11102  1  0  0  0
 12 13  2  0  0  0
 12103  1  0  0  0
 13 14  1  0  0  0
 13 31  1  0  0  0
 14 15  2  0  0  0
 14104  1  0  0  0
 15105  1  0  0  0
 16 17  2  0  0  0
 16 21  1  0  0  0
 16 31  1  0  0  0
 17 18  1  0  0  0
 17106  1  0  0  0
 18 19  2  0  0  0
 18107  1  0  0  0
 19 20  1  0  0  0
 19 24  1  0  0  0
 20 21  2  0  0  0
 20108  1  0  0  0
 21 23  1  0  0  0
 22 28  1  0  0  0
 22 32  2  0  0  0
 26 27  1  0  0  0
 28109  1  0  0  0
 28110  1  0  0  0
 29111  1  0  0  0
 29112  1  0  0  0
 33 34  1  0  0  0
 33 66  1  0  0  0
 33 70  2  0  0  0
 34 36  1  0  0  0
 34 59  1  0  0  0
 34113  1  0  0  0
 35 44  2  0  0  0
 35 45  1  0  0  0
 35 68  1  0  0  0
 36 56  1  0  0  0
 36114  1  0  0  0
 37 39  1  0  0  0
 37 47  1  0  0  0
 37 66  1  0  0  0
 37115  1  0  0  0
 38 43  2  0  0  0
 38 46  1  0  0  0
 38 47  1  0  0  0
 39 64  1  0  0  0
 39 67  2  0  0  0
 40 52  1  0  0  0
 40 53  2  0  0  0
 40 58  1  0  0  0
 41116  1  0  0  0
 41117  1  0  0  0
 41118  1  0  0  0
 41 48  1  0  0  0
 42 43  1  0  0  0
 42 66  1  0  0  0
 42119  1  0  0  0
 42120  1  0  0  0
 43 44  1  0  0  0
 44121  1  0  0  0
 45 46  2  0  0  0
 45122  1  0  0  0
 46123  1  0  0  0
 47124  1  0  0  0
 47125  1  0  0  0
 48 56  1  0  0  0
 48 65  1  0  0  0
 48126  1  0  0  0
 49 50  1  0  0  0
 49 53  1  0  0  0
 49 64  1  0  0  0
 49127  1  0  0  0
 50 51  1  0  0  0
 50128  1  0  0  0
 50129  1  0  0  0
 51 52  1  0  0  0
 51130  1  0  0  0
 51131  1  0  0  0
 52132  1  0  0  0
 52133  1  0  0  0
 53 54  1  0  0  0
 54 55  2  0  0  0
 54134  1  0  0  0
 55 57  1  0  0  0
 55135  1  0  0  0
 56 69  2  0  0  0
 57 58  2  0  0  0
 57136  1  0  0  0
 58137  1  0  0  0
 59 60  1  0  0  0
 59 61  1  0  0  0
 59 62  1  0  0  0
 60138  1  0  0  0
 60139  1  0  0  0
 60140  1  0  0  0
 61141  1  0  0  0
 61142  1  0  0  0
 61143  1  0  0  0
 62144  1  0  0  0
 62145  1  0  0  0
 62146  1  0  0  0
 63 65  1  0  0  0
 63147  1  0  0  0
 63148  1  0  0  0
 63149  1  0  0  0
 64150  1  0  0  0
 65151  1  0  0  0
 68 88  1  0  0  0
 71 73  2  0  0  0
 71 74  1  0  0  0
 71152  1  0  0  0
 72 75  2  0  0  0
 72 76  1  0  0  0
 72153  1  0  0  0
 73 75  1  0  0  0
 73 83  1  0  0  0
 74 76  2  0  0  0
 74 84  1  0  0  0
 75 77  1  0  0  0
 76 91  1  0  0  0
 77154  1  0  0  0
 77155  1  0  0  0
 77156  1  0  0  0
 78 85  1  0  0  0
 78157  1  0  0  0
 78158  1  0  0  0
 78159  1  0  0  0
 79160  1  0  0  0
 79161  1  0  0  0
 79162  1  0  0  0
 79 89  1  0  0  0
 80163  1  0  0  0
 80164  1  0  0  0
 80165  1  0  0  0
 80 90  1  0  0  0
 81 90  1  0  0  0
 81166  1  0  0  0
 81167  1  0  0  0
 81168  1  0  0  0
 82 90  1  0  0  0
 82169  1  0  0  0
 82170  1  0  0  0
 82171  1  0  0  0
 83 86  1  0  0  0
 83172  1  0  0  0
 83173  1  0  0  0
 84 89  1  0  0  0
 84174  1  0  0  0
 84175  1  0  0  0
 85 89  1  0  0  0
 85176  1  0  0  0
 85177  1  0  0  0
 86 87  1  0  0  0
 86178  1  0  0  0
 86179  1  0  0  0
 87 92  1  0  0  0
 87180  1  0  0  0
 87181  1  0  0  0
 88 89  1  0  0  0
 88182  1  0  0  0
 88183  1  0  0  0
 90 91  1  0  0  0
 91184  1  0  0  0
 92185  1  0  0  0
M  ISO  4   1 100  68 101  88 101  92 100
M  END
> <chiral flag>
0

> <version>
0

> <s_m_source_file>
/data/baiqing/PycharmProjects/Reinvent-master-3.2/result/LINK_invent/BTK/process_docking_weight1_custom_sum_contain_oxygen_bond_distance_aromatic_linkinvent_7_9_3/rearranged_h_0018.sdf

> <i_m_source_file_index>
37

> <r_mmod_Potential_Energy-OPLS-2005>
-24.1334476470947

> <r_mmod_Stretch_Energy-OPLS-2005>
49.272102355957

> <r_mmod_Bend_Energy-OPLS-2005>
143.20231628418

> <r_mmod_Torsional_Energy-OPLS-2005>
253.284362792969

> <r_mmod_Improper_Torsional_Energy-OPLS-2005>
8.44803047180176

> <r_mmod_Van_der_Waal_Energy-OPLS-2005>
160.798980712891

> <r_mmod_Electrostatic_Energy-OPLS-2005>
-459.988830566406

> <r_mmod_Solvation_Energy-OPLS-2005>
-195.191360473633

> <b_mmod_Minimization_Converged-OPLS-2005>
0

> <r_mmod_RMS_Derivative-OPLS-2005>
5.82013702392578

$$$$
38
                    3D
 Structure written by MMmdl.
171179  0  0  1  0            999 V2000
  -30.6980  -14.4144   20.5553 C   0  0  0  0  0  0
  -30.4150  -12.2655   19.4130 C   0  0  0  0  0  0
  -29.4981  -12.5023   18.1959 C   0  0  0  0  0  0
  -28.0161  -12.3675   18.6035 C   0  0  0  0  0  0
  -27.6629  -13.1991   19.8682 C   0  0  2  0  0  0
  -28.6977  -12.9542   20.9903 C   0  0  0  0  0  0
  -25.2593  -13.8168   20.5618 C   0  0  0  0  0  0
  -24.1843  -13.0456   20.9147 C   0  0  0  0  0  0
  -24.6393  -11.6924   20.8712 C   0  0  0  0  0  0
  -23.9058  -10.4316   21.0390 C   0  0  0  0  0  0
  -24.3622   -9.4228   21.9171 C   0  0  0  0  0  0
  -23.6305   -8.2256   22.0749 C   0  0  0  0  0  0
  -22.4286   -8.0285   21.3534 C   0  0  0  0  0  0
  -21.9903   -9.0259   20.4639 C   0  0  0  0  0  0
  -22.7226  -10.2144   20.3038 C   0  0  0  0  0  0
  -21.6870   -6.0734   22.5283 C   0  0  0  0  0  0
  -21.4021   -6.5639   23.8219 C   0  0  0  0  0  0
  -21.3653   -5.6788   24.9173 C   0  0  0  0  0  0
  -21.6044   -4.3047   24.7221 C   0  0  0  0  0  0
  -21.8825   -3.8144   23.4349 C   0  0  0  0  0  0
  -21.9202   -4.6963   22.3403 C   0  0  0  0  0  0
  -22.7859  -13.5252   21.1828 C   0  0  0  0  0  0
  -22.1659   -4.2142   21.0979 F   0  0  0  0  0  0
  -21.5630   -3.4526   25.7733 F   0  0  0  0  0  0
  -30.0347  -13.2386   20.4445 N   0  0  0  0  0  0
  -26.3020  -12.9313   20.3274 N   0  0  0  0  0  0
  -25.9306  -11.6492   20.5707 N   0  0  0  0  0  0
  -22.0491  -12.8249   22.0384 N   0  0  0  0  0  0
  -25.4331  -15.1881   20.4038 N   0  0  0  0  0  0
  -31.8429  -14.5952   20.1299 O   0  0  0  0  0  0
  -21.6649   -6.8876   21.4246 O   0  0  0  0  0  0
  -22.3536  -14.5551   20.6668 O   0  0  0  0  0  0
  -24.6110  -31.8698   23.2121 C   0  0  0  0  0  0
  -25.9023  -32.4825   23.8392 C   0  0  1  0  0  0
  -27.2406  -27.4707   20.0740 C   0  0  0  0  0  0
  -25.5881  -33.8620   24.2312 N   0  0  0  0  0  0
  -23.3954  -30.4925   21.5546 C   0  0  2  0  0  0
  -24.8385  -28.9639   20.1169 C   0  0  0  0  0  0
  -22.7387  -29.4664   22.5042 C   0  0  0  0  0  0
  -18.0257  -28.1385   22.8501 C   0  0  0  0  0  0
  -24.1470  -36.7322   23.2635 C   0  0  0  0  0  0
  -25.9190  -30.8484   21.3551 C   0  0  0  0  0  0
  -25.9968  -29.4839   20.7052 C   0  0  0  0  0  0
  -27.1971  -28.7440   20.6806 C   0  0  0  0  0  0
  -26.0543  -26.9501   19.5016 C   0  0  0  0  0  0
  -24.8602  -27.6952   19.5147 C   0  0  0  0  0  0
  -23.5967  -29.8227   20.1687 C   0  0  0  0  0  0
  -25.4086  -36.3115   24.0336 C   0  0  1  0  0  0
  -20.5843  -28.3649   23.1357 C   0  0  2  0  0  0
  -20.6752  -26.9395   22.5442 C   0  0  0  0  0  0
  -19.5732  -26.6401   21.5233 C   0  0  0  0  0  0
  -18.1904  -26.7933   22.1637 C   0  0  0  0  0  0
  -19.1503  -28.8835   23.2917 C   0  0  0  0  0  0
  -18.9436  -30.1446   23.8916 C   0  0  0  0  0  0
  -17.6440  -30.6588   24.0570 C   0  0  0  0  0  0
  -25.9019  -34.9487   23.5127 C   0  0  0  0  0  0
  -16.5329  -29.9097   23.6322 C   0  0  0  0  0  0
  -16.7248  -28.6515   23.0347 C   0  0  0  0  0  0
  -26.4456  -31.6595   25.0715 C   0  0  0  0  0  0
  -25.3732  -31.3704   26.1464 C   0  0  0  0  0  0
  -27.0250  -30.3035   24.6063 C   0  0  0  0  0  0
  -27.6027  -32.4316   25.7477 C   0  0  0  0  0  0
  -27.5555  -37.1804   24.8459 C   0  0  0  0  0  0
  -21.4123  -29.3016   22.3776 N   0  0  0  0  0  0
  -26.4264  -37.3809   23.9416 N   0  0  0  0  0  0
  -24.6606  -31.0830   22.0998 N   0  0  0  0  0  0
  -23.4180  -28.8204   23.3068 O   0  0  0  0  0  0
  -28.4539  -26.8123   20.0624 O   0  0  0  0  0  0
  -26.5607  -34.8953   22.4698 O   0  0  0  0  0  0
  -23.5314  -32.1420   23.7552 O   0  0  0  0  0  0
  -28.1275  -19.9713   15.1605 C   0  0  0  0  0  0
  -30.0479  -21.1094   16.8949 C   0  0  0  0  0  0
  -30.0132  -19.6987   16.6881 C   0  0  0  0  0  0
  -29.0868  -21.9452   16.2438 C   0  0  0  0  0  0
  -29.0340  -19.1371   15.8303 C   0  0  0  0  0  0
  -28.1490  -21.3595   15.3539 C   0  0  0  0  0  0
  -31.1219  -21.7021   17.8183 C   0  0  0  0  0  0
  -26.9707  -23.3637   17.8647 C   0  0  0  0  0  0
  -31.0456  -18.7861   17.3577 C   0  0  0  0  0  0
  -29.0305  -23.4588   16.4994 C   0  0  0  0  0  0
  -30.8186  -18.5596   18.8674 C   0  0  0  0  0  0
  -30.1702  -17.2065   19.1966 C   0  0  0  0  0  0
  -30.2566  -16.8503   20.6997 C   0  0  0  0  0  0
  -28.5770  -25.2125   18.1936 C   0  0  0  0  0  0
  -28.5019  -25.4292   19.7218 C   0  0  0  0  0  0
  -29.9348  -15.4452   20.9429 N   0  0  0  0  0  0
  -28.3968  -23.7844   17.8070 N   0  3  1  0  0  0
  -28.9157  -17.4318   15.5576 Cl  0  0  0  0  0  0
  -26.9927  -22.3062   14.4794 Cl  0  0  0  0  0  0
  -31.4633  -12.3497   19.1241 H   0  0  0  0  0  0
  -30.2925  -11.2493   19.7904 H   0  0  0  0  0  0
  -29.7373  -11.7939   17.3999 H   0  0  0  0  0  0
  -29.6775  -13.4963   17.7846 H   0  0  0  0  0  0
  -27.8253  -11.3111   18.7934 H   0  0  0  0  0  0
  -27.3715  -12.6487   17.7699 H   0  0  0  0  0  0
  -27.7144  -14.2491   19.5816 H   0  0  0  0  0  0
  -28.6546  -11.9159   21.3224 H   0  0  0  0  0  0
  -28.4684  -13.5517   21.8740 H   0  0  0  0  0  0
  -25.2776   -9.5721   22.4726 H   0  0  0  0  0  0
  -24.0027   -7.4662   22.7482 H   0  0  0  0  0  0
  -21.0821   -8.8776   19.8963 H   0  0  0  0  0  0
  -22.3682  -10.9672   19.6134 H   0  0  0  0  0  0
  -21.2007   -7.6148   23.9712 H   0  0  0  0  0  0
  -21.1461   -6.0514   25.9073 H   0  0  0  0  0  0
  -22.0611   -2.7608   23.2849 H   0  0  0  0  0  0
  -22.4095  -11.9910   22.4785 H   0  0  0  0  0  0
  -21.1108  -13.1273   22.2589 H   0  0  0  0  0  0
  -24.6669  -15.8451   20.5008 H   0  0  0  0  0  0
  -26.2877  -15.6221   20.0775 H   0  0  0  0  0  0
  -26.7111  -32.5548   23.1171 H   0  0  0  0  0  0
  -25.0011  -33.9773   25.0445 H   0  0  0  0  0  0
  -22.6820  -31.3075   21.4177 H   0  0  0  0  0  0
  -23.3730  -35.9659   23.3318 H   0  0  0  0  0  0
  -24.3548  -36.8912   22.2041 H   0  0  0  0  0  0
  -23.7248  -37.6542   23.6638 H   0  0  0  0  0  0
  -26.0219  -31.6136   20.5834 H   0  0  0  0  0  0
  -26.8104  -30.9063   21.9672 H   0  0  0  0  0  0
  -28.0958  -29.1516   21.1222 H   0  0  0  0  0  0
  -26.0192  -25.9825   19.0284 H   0  0  0  0  0  0
  -23.9686  -27.2884   19.0590 H   0  0  0  0  0  0
  -23.6947  -30.5928   19.4030 H   0  0  0  0  0  0
  -22.7239  -29.2322   19.8836 H   0  0  0  0  0  0
  -25.1276  -36.1958   25.0831 H   0  0  0  0  0  0
  -20.9906  -28.3207   24.1493 H   0  0  0  0  0  0
  -20.5673  -26.2257   23.3625 H   0  0  0  0  0  0
  -21.6622  -26.7480   22.1217 H   0  0  0  0  0  0
  -19.6900  -25.6326   21.1234 H   0  0  0  0  0  0
  -19.6664  -27.3240   20.6785 H   0  0  0  0  0  0
  -17.4182  -26.6685   21.4030 H   0  0  0  0  0  0
  -18.0282  -26.0077   22.9033 H   0  0  0  0  0  0
  -19.7911  -30.7257   24.2290 H   0  0  0  0  0  0
  -17.5000  -31.6261   24.5183 H   0  0  0  0  0  0
  -15.5331  -30.3010   23.7640 H   0  0  0  0  0  0
  -15.8649  -28.0848   22.7054 H   0  0  0  0  0  0
  -24.5907  -30.7043   25.7816 H   0  0  0  0  0  0
  -24.8924  -32.2860   26.4909 H   0  0  0  0  0  0
  -25.8083  -30.8886   27.0226 H   0  0  0  0  0  0
  -26.2773  -29.6840   24.1097 H   0  0  0  0  0  0
  -27.3986  -29.7223   25.4504 H   0  0  0  0  0  0
  -27.8634  -30.4340   23.9219 H   0  0  0  0  0  0
  -27.2624  -33.3597   26.2078 H   0  0  0  0  0  0
  -28.3816  -32.6893   25.0293 H   0  0  0  0  0  0
  -28.0725  -31.8444   26.5373 H   0  0  0  0  0  0
  -28.2592  -38.0083   24.7500 H   0  0  0  0  0  0
  -28.1025  -36.2621   24.6274 H   0  0  0  0  0  0
  -27.2277  -37.1448   25.8863 H   0  0  0  0  0  0
  -20.9294  -29.8723   21.6980 H   0  0  0  0  0  0
  -26.0149  -38.2878   24.1440 H   0  0  0  0  0  0
  -27.4025  -19.5423   14.4849 H   0  0  0  0  0  0
  -32.1065  -21.2860   17.6072 H   0  0  0  0  0  0
  -30.8943  -21.5046   18.8663 H   0  0  0  0  0  0
  -31.2637  -22.7723   17.7214 H   0  0  0  0  0  0
  -26.8553  -22.2886   17.7224 H   0  0  0  0  0  0
  -26.3890  -23.8698   17.0939 H   0  0  0  0  0  0
  -26.5080  -23.5904   18.8244 H   0  0  0  0  0  0
  -32.0356  -19.2083   17.1992 H   0  0  0  0  0  0
  -31.1253  -17.8288   16.8448 H   0  0  0  0  0  0
  -28.4957  -23.9851   15.7105 H   0  0  0  0  0  0
  -30.0342  -23.8758   16.4294 H   0  0  0  0  0  0
  -30.2519  -19.3750   19.3181 H   0  0  0  0  0  0
  -31.7980  -18.5798   19.3466 H   0  0  0  0  0  0
  -30.6686  -16.4356   18.6069 H   0  0  0  0  0  0
  -29.1310  -17.2057   18.8661 H   0  0  0  0  0  0
  -29.5701  -17.4756   21.2720 H   0  0  0  0  0  0
  -31.2573  -17.0522   21.0875 H   0  0  0  0  0  0
  -29.5482  -25.5786   17.8561 H   0  0  0  0  0  0
  -27.8385  -25.8174   17.6673 H   0  0  0  0  0  0
  -29.3975  -25.0130   20.1848 H   0  0  0  0  0  0
  -27.6701  -24.9047   20.1904 H   0  0  0  0  0  0
  -29.0066  -15.2272   21.2755 H   0  0  0  0  0  0
  -28.8932  -23.2293   18.4881 H   0  0  0  0  0  0
  1 25  1  0  0  0
  1 30  2  0  0  0
  1 86  1  0  0  0
  2  3  1  0  0  0
  2 25  1  0  0  0
  2 90  1  0  0  0
  2 91  1  0  0  0
  3  4  1  0  0  0
  3 92  1  0  0  0
  3 93  1  0  0  0
  4  5  1  0  0  0
  4 94  1  0  0  0
  4 95  1  0  0  0
  5  6  1  0  0  0
  5 26  1  0  0  0
  5 96  1  0  0  0
  6 25  1  0  0  0
  6 97  1  0  0  0
  6 98  1  0  0  0
  7  8  2  0  0  0
  7 26  1  0  0  0
  7 29  1  0  0  0
  8  9  1  0  0  0
  8 22  1  0  0  0
  9 10  1  0  0  0
  9 27  2  0  0  0
 10 11  2  0  0  0
 10 15  1  0  0  0
 11 12  1  0  0  0
 11 99  1  0  0  0
 12 13  2  0  0  0
 12100  1  0  0  0
 13 14  1  0  0  0
 13 31  1  0  0  0
 14 15  2  0  0  0
 14101  1  0  0  0
 15102  1  0  0  0
 16 17  2  0  0  0
 16 21  1  0  0  0
 16 31  1  0  0  0
 17 18  1  0  0  0
 17103  1  0  0  0
 18 19  2  0  0  0
 18104  1  0  0  0
 19 20  1  0  0  0
 19 24  1  0  0  0
 20 21  2  0  0  0
 20105  1  0  0  0
 21 23  1  0  0  0
 22 28  1  0  0  0
 22 32  2  0  0  0
 26 27  1  0  0  0
 28106  1  0  0  0
 28107  1  0  0  0
 29108  1  0  0  0
 29109  1  0  0  0
 33 34  1  0  0  0
 33 66  1  0  0  0
 33 70  2  0  0  0
 34 36  1  0  0  0
 34 59  1  0  0  0
 34110  1  0  0  0
 35 44  2  0  0  0
 35 45  1  0  0  0
 35 68  1  0  0  0
 36 56  1  0  0  0
 36111  1  0  0  0
 37 39  1  0  0  0
 37 47  1  0  0  0
 37 66  1  0  0  0
 37112  1  0  0  0
 38 43  2  0  0  0
 38 46  1  0  0  0
 38 47  1  0  0  0
 39 64  1  0  0  0
 39 67  2  0  0  0
 40 52  1  0  0  0
 40 53  2  0  0  0
 40 58  1  0  0  0
 41113  1  0  0  0
 41114  1  0  0  0
 41115  1  0  0  0
 41 48  1  0  0  0
 42 43  1  0  0  0
 42 66  1  0  0  0
 42116  1  0  0  0
 42117  1  0  0  0
 43 44  1  0  0  0
 44118  1  0  0  0
 45 46  2  0  0  0
 45119  1  0  0  0
 46120  1  0  0  0
 47121  1  0  0  0
 47122  1  0  0  0
 48 56  1  0  0  0
 48 65  1  0  0  0
 48123  1  0  0  0
 49 50  1  0  0  0
 49 53  1  0  0  0
 49 64  1  0  0  0
 49124  1  0  0  0
 50 51  1  0  0  0
 50125  1  0  0  0
 50126  1  0  0  0
 51 52  1  0  0  0
 51127  1  0  0  0
 51128  1  0  0  0
 52129  1  0  0  0
 52130  1  0  0  0
 53 54  1  0  0  0
 54 55  2  0  0  0
 54131  1  0  0  0
 55 57  1  0  0  0
 55132  1  0  0  0
 56 69  2  0  0  0
 57 58  2  0  0  0
 57133  1  0  0  0
 58134  1  0  0  0
 59 60  1  0  0  0
 59 61  1  0  0  0
 59 62  1  0  0  0
 60135  1  0  0  0
 60136  1  0  0  0
 60137  1  0  0  0
 61138  1  0  0  0
 61139  1  0  0  0
 61140  1  0  0  0
 62141  1  0  0  0
 62142  1  0  0  0
 62143  1  0  0  0
 63 65  1  0  0  0
 63144  1  0  0  0
 63145  1  0  0  0
 63146  1  0  0  0
 64147  1  0  0  0
 65148  1  0  0  0
 68 85  1  0  0  0
 71 75  2  0  0  0
 71 76  1  0  0  0
 71149  1  0  0  0
 72 73  2  0  0  0
 72 74  1  0  0  0
 72 77  1  0  0  0
 73 75  1  0  0  0
 73 79  1  0  0  0
 74 76  2  0  0  0
 74 80  1  0  0  0
 75 88  1  0  0  0
 76 89  1  0  0  0
 77150  1  0  0  0
 77151  1  0  0  0
 77152  1  0  0  0
 78153  1  0  0  0
 78154  1  0  0  0
 78155  1  0  0  0
 78 87  1  0  0  0
 79 81  1  0  0  0
 79156  1  0  0  0
 79157  1  0  0  0
 80 87  1  0  0  0
 80158  1  0  0  0
 80159  1  0  0  0
 81 82  1  0  0  0
 81160  1  0  0  0
 81161  1  0  0  0
 82 83  1  0  0  0
 82162  1  0  0  0
 82163  1  0  0  0
 83 86  1  0  0  0
 83164  1  0  0  0
 83165  1  0  0  0
 84 85  1  0  0  0
 84 87  1  0  0  0
 84166  1  0  0  0
 84167  1  0  0  0
 85168  1  0  0  0
 85169  1  0  0  0
 86170  1  0  0  0
 87171  1  0  0  0
M  CHG  1  87   1
M  ISO  4   1 100  68 101  85 101  86 100
M  END
> <chiral flag>
0

> <version>
0

> <s_m_source_file>
/data/baiqing/PycharmProjects/Reinvent-master-3.2/result/LINK_invent/BTK/process_docking_weight1_custom_sum_contain_oxygen_bond_distance_aromatic_linkinvent_7_9_3/rearranged_h_0018.sdf

> <i_m_source_file_index>
38

> <r_mmod_Potential_Energy-OPLS-2005>
-168.732452392578

> <r_mmod_Stretch_Energy-OPLS-2005>
38.7194480895996

> <r_mmod_Bend_Energy-OPLS-2005>
101.574752807617

> <r_mmod_Torsional_Energy-OPLS-2005>
200.139175415039

> <r_mmod_Improper_Torsional_Energy-OPLS-2005>
5.87739372253418

> <r_mmod_Van_der_Waal_Energy-OPLS-2005>
167.761596679688

> <r_mmod_Electrostatic_Energy-OPLS-2005>
-252.706604003906

> <r_mmod_Solvation_Energy-OPLS-2005>
-441.408874511719

> <b_mmod_Minimization_Converged-OPLS-2005>
0

> <r_mmod_RMS_Derivative-OPLS-2005>
2.80126667022705

$$$$
39
                    3D
 Structure written by MMmdl.
174182  0  0  1  0            999 V2000
  -30.6732  -14.5350   20.5510 C   0  0  0  0  0  0
  -30.4323  -12.3397   19.4267 C   0  0  0  0  0  0
  -29.4956  -12.5052   18.2105 C   0  0  0  0  0  0
  -28.0194  -12.3523   18.6290 C   0  0  0  0  0  0
  -27.6611  -13.2054   19.8753 C   0  0  2  0  0  0
  -28.7061  -13.0081   20.9948 C   0  0  0  0  0  0
  -25.2591  -13.8154   20.5699 C   0  0  0  0  0  0
  -24.1837  -13.0435   20.9180 C   0  0  0  0  0  0
  -24.6399  -11.6901   20.8750 C   0  0  0  0  0  0
  -23.9069  -10.4285   21.0431 C   0  0  0  0  0  0
  -24.3609   -9.4196   21.9213 C   0  0  0  0  0  0
  -23.6280   -8.2237   22.0768 C   0  0  0  0  0  0
  -22.4269   -8.0280   21.3557 C   0  0  0  0  0  0
  -21.9914   -9.0247   20.4646 C   0  0  0  0  0  0
  -22.7244  -10.2125   20.3059 C   0  0  0  0  0  0
  -21.6854   -6.0735   22.5276 C   0  0  0  0  0  0
  -21.4011   -6.5633   23.8204 C   0  0  0  0  0  0
  -21.3657   -5.6785   24.9164 C   0  0  0  0  0  0
  -21.6043   -4.3051   24.7215 C   0  0  0  0  0  0
  -21.8817   -3.8139   23.4338 C   0  0  0  0  0  0
  -21.9189   -4.6959   22.3399 C   0  0  0  0  0  0
  -22.7859  -13.5230   21.1839 C   0  0  0  0  0  0
  -22.1658   -4.2153   21.0978 F   0  0  0  0  0  0
  -21.5630   -3.4537   25.7727 F   0  0  0  0  0  0
  -30.0322  -13.3352   20.4347 N   0  0  0  0  0  0
  -26.3033  -12.9323   20.3397 N   0  0  0  0  0  0
  -25.9332  -11.6485   20.5811 N   0  0  0  0  0  0
  -22.0495  -12.8218   22.0389 N   0  0  0  0  0  0
  -25.4345  -15.1879   20.4098 N   0  0  0  0  0  0
  -31.7955  -14.7371   20.0767 O   0  0  0  0  0  0
  -21.6642   -6.8878   21.4243 O   0  0  0  0  0  0
  -22.3552  -14.5566   20.6722 O   0  0  0  0  0  0
  -24.6178  -31.8641   23.2054 C   0  0  0  0  0  0
  -25.9055  -32.4815   23.8363 C   0  0  1  0  0  0
  -27.2393  -27.3874   20.1083 C   0  0  0  0  0  0
  -25.5923  -33.8603   24.2292 N   0  0  0  0  0  0
  -23.4082  -30.4845   21.5439 C   0  0  2  0  0  0
  -24.8591  -28.9404   20.1140 C   0  0  0  0  0  0
  -22.7432  -29.4630   22.4950 C   0  0  0  0  0  0
  -18.0271  -28.1382   22.8492 C   0  0  0  0  0  0
  -24.1483  -36.7269   23.2659 C   0  0  0  0  0  0
  -25.9411  -30.8157   21.3638 C   0  0  0  0  0  0
  -26.0207  -29.4462   20.7132 C   0  0  0  0  0  0
  -27.2180  -28.6814   20.6932 C   0  0  0  0  0  0
  -26.0563  -26.9023   19.5150 C   0  0  0  0  0  0
  -24.8765  -27.6733   19.5069 C   0  0  0  0  0  0
  -23.6208  -29.8102   20.1614 C   0  0  0  0  0  0
  -25.4115  -36.3085   24.0340 C   0  0  1  0  0  0
  -20.5864  -28.3677   23.1300 C   0  0  2  0  0  0
  -20.6770  -26.9408   22.5393 C   0  0  0  0  0  0
  -19.5740  -26.6382   21.5201 C   0  0  0  0  0  0
  -18.1910  -26.7933   22.1591 C   0  0  0  0  0  0
  -19.1516  -28.8842   23.2911 C   0  0  0  0  0  0
  -18.9456  -30.1452   23.8930 C   0  0  0  0  0  0
  -17.6455  -30.6600   24.0570 C   0  0  0  0  0  0
  -25.9058  -34.9472   23.5112 C   0  0  0  0  0  0
  -16.5356  -29.9091   23.6343 C   0  0  0  0  0  0
  -16.7252  -28.6498   23.0373 C   0  0  0  0  0  0
  -26.4475  -31.6638   25.0724 C   0  0  0  0  0  0
  -25.3741  -31.3661   26.1462 C   0  0  0  0  0  0
  -27.0379  -30.3107   24.6109 C   0  0  0  0  0  0
  -27.6014  -32.4414   25.7490 C   0  0  0  0  0  0
  -27.5568  -37.1792   24.8486 C   0  0  0  0  0  0
  -21.4150  -29.3065   22.3728 N   0  0  0  0  0  0
  -26.4283  -37.3788   23.9436 N   0  0  0  0  0  0
  -24.6731  -31.0724   22.0950 N   0  0  0  0  0  0
  -23.4187  -28.8192   23.3012 O   0  0  0  0  0  0
  -28.3956  -26.6201   20.0668 O   0  0  0  0  0  0
  -26.5626  -34.8948   22.4662 O   0  0  0  0  0  0
  -23.5363  -32.1390   23.7428 O   0  0  0  0  0  0
  -31.0253  -18.5279   23.0776 C   0  0  0  0  0  0
  -30.8047  -17.1656   22.7619 C   0  0  0  0  0  0
  -30.0134  -17.9544   20.5321 C   0  0  0  0  0  0
  -30.2647  -19.3279   20.8930 C   0  0  0  0  0  0
  -30.2984  -16.8747   21.4495 C   0  0  0  0  0  0
  -30.7612  -19.5779   22.1892 C   0  0  0  0  0  0
  -29.4602  -17.6165   19.1485 C   0  0  0  0  0  0
  -29.8215  -23.1224   18.3402 C   0  0  0  0  0  0
  -31.2880  -16.7100   25.2754 C   0  0  0  0  0  0
  -32.5147  -15.4595   23.5352 C   0  0  0  0  0  0
  -30.0824  -14.9897   24.0173 C   0  0  0  0  0  0
  -30.1558  -20.5566   19.9311 C   0  0  0  0  0  0
  -28.1552  -24.0099   20.0504 C   0  0  0  0  0  0
  -28.3949  -25.3698   20.8106 C   0  0  0  0  0  0
  -29.3764  -23.0285   19.8183 C   0  0  1  0  0  0
  -31.1498  -16.0982   23.8559 C   0  0  0  0  0  0
  -29.9332  -15.5276   21.1013 N   0  0  0  0  0  0
  -29.1066  -21.5949   20.2404 N   0  3  0  0  0  0
  -31.0784  -21.1923   22.7285 Cl  0  0  0  0  0  0
  -31.4750  -12.4502   19.1213 H   0  0  0  0  0  0
  -30.3513  -11.3322   19.8378 H   0  0  0  0  0  0
  -29.7417  -11.7681   17.4446 H   0  0  0  0  0  0
  -29.6493  -13.4840   17.7562 H   0  0  0  0  0  0
  -27.8466  -11.2982   18.8435 H   0  0  0  0  0  0
  -27.3610  -12.6046   17.7986 H   0  0  0  0  0  0
  -27.6985  -14.2507   19.5674 H   0  0  0  0  0  0
  -28.6983  -11.9763   21.3492 H   0  0  0  0  0  0
  -28.4494  -13.6100   21.8667 H   0  0  0  0  0  0
  -25.2752   -9.5682   22.4792 H   0  0  0  0  0  0
  -23.9990   -7.4639   22.7489 H   0  0  0  0  0  0
  -21.0858   -8.8754   19.8948 H   0  0  0  0  0  0
  -22.3713  -10.9664   19.6152 H   0  0  0  0  0  0
  -21.2002   -7.6133   23.9714 H   0  0  0  0  0  0
  -21.1479   -6.0514   25.9073 H   0  0  0  0  0  0
  -22.0600   -2.7605   23.2836 H   0  0  0  0  0  0
  -22.4084  -11.9831   22.4716 H   0  0  0  0  0  0
  -21.1128  -13.1272   22.2625 H   0  0  0  0  0  0
  -24.6740  -15.8483   20.5249 H   0  0  0  0  0  0
  -26.2883  -15.6247   20.0878 H   0  0  0  0  0  0
  -26.7130  -32.5501   23.1128 H   0  0  0  0  0  0
  -25.0203  -33.9775   25.0523 H   0  0  0  0  0  0
  -22.6990  -31.3016   21.3974 H   0  0  0  0  0  0
  -23.3791  -35.9562   23.3307 H   0  0  0  0  0  0
  -24.3559  -36.8885   22.2067 H   0  0  0  0  0  0
  -23.7205  -37.6445   23.6685 H   0  0  0  0  0  0
  -26.0630  -31.5792   20.5935 H   0  0  0  0  0  0
  -26.8249  -30.8675   21.9874 H   0  0  0  0  0  0
  -28.1209  -29.0732   21.1426 H   0  0  0  0  0  0
  -26.0483  -25.9272   19.0514 H   0  0  0  0  0  0
  -23.9857  -27.2799   19.0349 H   0  0  0  0  0  0
  -23.7299  -30.5819   19.3973 H   0  0  0  0  0  0
  -22.7448  -29.2283   19.8642 H   0  0  0  0  0  0
  -25.1301  -36.1919   25.0820 H   0  0  0  0  0  0
  -20.9933  -28.3248   24.1422 H   0  0  0  0  0  0
  -20.5657  -26.2306   23.3595 H   0  0  0  0  0  0
  -21.6654  -26.7444   22.1194 H   0  0  0  0  0  0
  -19.6921  -25.6282   21.1258 H   0  0  0  0  0  0
  -19.6692  -27.3197   20.6736 H   0  0  0  0  0  0
  -17.4177  -26.6717   21.3981 H   0  0  0  0  0  0
  -18.0298  -26.0032   22.8935 H   0  0  0  0  0  0
  -19.7950  -30.7270   24.2294 H   0  0  0  0  0  0
  -17.5018  -31.6276   24.5173 H   0  0  0  0  0  0
  -15.5359  -30.3014   23.7658 H   0  0  0  0  0  0
  -15.8640  -28.0820   22.7118 H   0  0  0  0  0  0
  -24.6012  -30.6882   25.7803 H   0  0  0  0  0  0
  -24.8818  -32.2762   26.4909 H   0  0  0  0  0  0
  -25.8130  -30.8881   27.0237 H   0  0  0  0  0  0
  -26.2932  -29.6797   24.1241 H   0  0  0  0  0  0
  -27.4283  -29.7397   25.4556 H   0  0  0  0  0  0
  -27.8684  -30.4481   23.9178 H   0  0  0  0  0  0
  -27.2626  -33.3782   26.1933 H   0  0  0  0  0  0
  -28.3886  -32.6874   25.0346 H   0  0  0  0  0  0
  -28.0620  -31.8639   26.5518 H   0  0  0  0  0  0
  -28.2578  -38.0102   24.7584 H   0  0  0  0  0  0
  -28.1066  -36.2635   24.6259 H   0  0  0  0  0  0
  -27.2280  -37.1366   25.8887 H   0  0  0  0  0  0
  -20.9339  -29.8816   21.6967 H   0  0  0  0  0  0
  -26.0151  -38.2841   24.1483 H   0  0  0  0  0  0
  -31.4213  -18.8333   24.0307 H   0  0  0  0  0  0
  -30.2817  -17.3845   18.4671 H   0  0  0  0  0  0
  -28.8695  -18.4280   18.7243 H   0  0  0  0  0  0
  -28.7946  -16.7524   19.1745 H   0  0  0  0  0  0
  -30.0322  -24.1567   18.0647 H   0  0  0  0  0  0
  -29.0469  -22.7586   17.6627 H   0  0  0  0  0  0
  -30.7329  -22.5604   18.1392 H   0  0  0  0  0  0
  -32.1431  -17.3798   25.3641 H   0  0  0  0  0  0
  -31.4563  -15.9410   26.0307 H   0  0  0  0  0  0
  -30.3894  -17.2529   25.5688 H   0  0  0  0  0  0
  -33.2984  -16.2155   23.4603 H   0  0  0  0  0  0
  -32.5107  -14.9108   22.5963 H   0  0  0  0  0  0
  -32.8182  -14.7559   24.3109 H   0  0  0  0  0  0
  -29.0711  -15.3977   24.0188 H   0  0  0  0  0  0
  -30.2082  -14.4391   24.9498 H   0  0  0  0  0  0
  -30.1492  -14.2238   23.2532 H   0  0  0  0  0  0
  -30.0726  -20.2466   18.8904 H   0  0  0  0  0  0
  -31.1306  -21.0462   19.9803 H   0  0  0  0  0  0
  -27.6602  -24.2126   19.0984 H   0  0  0  0  0  0
  -27.4021  -23.4684   20.6233 H   0  0  0  0  0  0
  -29.3428  -25.3204   21.3482 H   0  0  0  0  0  0
  -27.6457  -25.4498   21.6011 H   0  0  0  0  0  0
  -30.2138  -23.3729   20.4285 H   0  0  0  0  0  0
  -29.0224  -15.2334   21.4212 H   0  0  0  0  0  0
  -28.9964  -21.6006   21.2446 H   0  0  0  0  0  0
  -28.2347  -21.2808   19.8463 H   0  0  0  0  0  0
  1 25  1  0  0  0
  1 30  2  0  0  0
  1 87  1  0  0  0
  2  3  1  0  0  0
  2 25  1  0  0  0
  2 90  1  0  0  0
  2 91  1  0  0  0
  3  4  1  0  0  0
  3 92  1  0  0  0
  3 93  1  0  0  0
  4  5  1  0  0  0
  4 94  1  0  0  0
  4 95  1  0  0  0
  5  6  1  0  0  0
  5 26  1  0  0  0
  5 96  1  0  0  0
  6 25  1  0  0  0
  6 97  1  0  0  0
  6 98  1  0  0  0
  7  8  2  0  0  0
  7 26  1  0  0  0
  7 29  1  0  0  0
  8  9  1  0  0  0
  8 22  1  0  0  0
  9 10  1  0  0  0
  9 27  2  0  0  0
 10 11  2  0  0  0
 10 15  1  0  0  0
 11 12  1  0  0  0
 11 99  1  0  0  0
 12 13  2  0  0  0
 12100  1  0  0  0
 13 14  1  0  0  0
 13 31  1  0  0  0
 14 15  2  0  0  0
 14101  1  0  0  0
 15102  1  0  0  0
 16 17  2  0  0  0
 16 21  1  0  0  0
 16 31  1  0  0  0
 17 18  1  0  0  0
 17103  1  0  0  0
 18 19  2  0  0  0
 18104  1  0  0  0
 19 20  1  0  0  0
 19 24  1  0  0  0
 20 21  2  0  0  0
 20105  1  0  0  0
 21 23  1  0  0  0
 22 28  1  0  0  0
 22 32  2  0  0  0
 26 27  1  0  0  0
 28106  1  0  0  0
 28107  1  0  0  0
 29108  1  0  0  0
 29109  1  0  0  0
 33 34  1  0  0  0
 33 66  1  0  0  0
 33 70  2  0  0  0
 34 36  1  0  0  0
 34 59  1  0  0  0
 34110  1  0  0  0
 35 44  2  0  0  0
 35 45  1  0  0  0
 35 68  1  0  0  0
 36 56  1  0  0  0
 36111  1  0  0  0
 37 39  1  0  0  0
 37 47  1  0  0  0
 37 66  1  0  0  0
 37112  1  0  0  0
 38 43  2  0  0  0
 38 46  1  0  0  0
 38 47  1  0  0  0
 39 64  1  0  0  0
 39 67  2  0  0  0
 40 52  1  0  0  0
 40 53  2  0  0  0
 40 58  1  0  0  0
 41113  1  0  0  0
 41114  1  0  0  0
 41115  1  0  0  0
 41 48  1  0  0  0
 42 43  1  0  0  0
 42 66  1  0  0  0
 42116  1  0  0  0
 42117  1  0  0  0
 43 44  1  0  0  0
 44118  1  0  0  0
 45 46  2  0  0  0
 45119  1  0  0  0
 46120  1  0  0  0
 47121  1  0  0  0
 47122  1  0  0  0
 48 56  1  0  0  0
 48 65  1  0  0  0
 48123  1  0  0  0
 49 50  1  0  0  0
 49 53  1  0  0  0
 49 64  1  0  0  0
 49124  1  0  0  0
 50 51  1  0  0  0
 50125  1  0  0  0
 50126  1  0  0  0
 51 52  1  0  0  0
 51127  1  0  0  0
 51128  1  0  0  0
 52129  1  0  0  0
 52130  1  0  0  0
 53 54  1  0  0  0
 54 55  2  0  0  0
 54131  1  0  0  0
 55 57  1  0  0  0
 55132  1  0  0  0
 56 69  2  0  0  0
 57 58  2  0  0  0
 57133  1  0  0  0
 58134  1  0  0  0
 59 60  1  0  0  0
 59 61  1  0  0  0
 59 62  1  0  0  0
 60135  1  0  0  0
 60136  1  0  0  0
 60137  1  0  0  0
 61138  1  0  0  0
 61139  1  0  0  0
 61140  1  0  0  0
 62141  1  0  0  0
 62142  1  0  0  0
 62143  1  0  0  0
 63 65  1  0  0  0
 63144  1  0  0  0
 63145  1  0  0  0
 63146  1  0  0  0
 64147  1  0  0  0
 65148  1  0  0  0
 68 84  1  0  0  0
 71 72  2  0  0  0
 71 76  1  0  0  0
 71149  1  0  0  0
 72 75  1  0  0  0
 72 86  1  0  0  0
 73 74  1  0  0  0
 73 75  2  0  0  0
 73 77  1  0  0  0
 74 76  2  0  0  0
 74 82  1  0  0  0
 75 87  1  0  0  0
 76 89  1  0  0  0
 77150  1  0  0  0
 77151  1  0  0  0
 77152  1  0  0  0
 78153  1  0  0  0
 78154  1  0  0  0
 78155  1  0  0  0
 78 85  1  0  0  0
 79156  1  0  0  0
 79157  1  0  0  0
 79158  1  0  0  0
 79 86  1  0  0  0
 80 86  1  0  0  0
 80159  1  0  0  0
 80160  1  0  0  0
 80161  1  0  0  0
 81 86  1  0  0  0
 81162  1  0  0  0
 81163  1  0  0  0
 81164  1  0  0  0
 82 88  1  0  0  0
 82165  1  0  0  0
 82166  1  0  0  0
 83 84  1  0  0  0
 83 85  1  0  0  0
 83167  1  0  0  0
 83168  1  0  0  0
 84169  1  0  0  0
 84170  1  0  0  0
 85 88  1  0  0  0
 85171  1  0  0  0
 87172  1  0  0  0
 88173  1  0  0  0
 88174  1  0  0  0
M  CHG  1  88   1
M  ISO  4   1 100  68 101  84 101  87 100
M  END
> <chiral flag>
0

> <version>
0

> <s_m_source_file>
/data/baiqing/PycharmProjects/Reinvent-master-3.2/result/LINK_invent/BTK/process_docking_weight1_custom_sum_contain_oxygen_bond_distance_aromatic_linkinvent_7_9_3/rearranged_h_0018.sdf

> <i_m_source_file_index>
39

> <r_mmod_Potential_Energy-OPLS-2005>
-116.57738494873

> <r_mmod_Stretch_Energy-OPLS-2005>
70.5682601928711

> <r_mmod_Bend_Energy-OPLS-2005>
139.95751953125

> <r_mmod_Torsional_Energy-OPLS-2005>
282.908325195312

> <r_mmod_Improper_Torsional_Energy-OPLS-2005>
4.10098505020142

> <r_mmod_Van_der_Waal_Energy-OPLS-2005>
159.588531494141

> <r_mmod_Electrostatic_Energy-OPLS-2005>
-352.022827148438

> <r_mmod_Solvation_Energy-OPLS-2005>
-441.759796142578

> <b_mmod_Minimization_Converged-OPLS-2005>
0

> <r_mmod_RMS_Derivative-OPLS-2005>
3.82317066192627

$$$$
40
                    3D
 Structure written by MMmdl.
153160  0  0  1  0            999 V2000
  -30.0038  -16.4063   20.2698 C   0  0  0  0  0  0
  -30.3622  -13.6512   19.5597 C   0  0  0  0  0  0
  -29.5796  -12.8917   18.4152 C   0  0  0  0  0  0
  -28.2218  -12.3712   18.8877 C   0  0  0  0  0  0
  -27.5834  -13.4094   19.8196 C   0  0  2  0  0  0
  -28.5392  -14.0335   20.8935 C   0  0  0  0  0  0
  -25.2213  -13.8428   20.5892 C   0  0  0  0  0  0
  -24.1706  -13.0460   20.9303 C   0  0  0  0  0  0
  -24.6525  -11.6998   20.8701 C   0  0  0  0  0  0
  -23.9211  -10.4337   21.0334 C   0  0  0  0  0  0
  -24.3706   -9.4270   21.9154 C   0  0  0  0  0  0
  -23.6337   -8.2308   22.0737 C   0  0  0  0  0  0
  -22.4305   -8.0353   21.3549 C   0  0  0  0  0  0
  -21.9984   -9.0326   20.4635 C   0  0  0  0  0  0
  -22.7355  -10.2186   20.3017 C   0  0  0  0  0  0
  -21.6870   -6.0739   22.5273 C   0  0  0  0  0  0
  -21.4051   -6.5622   23.8219 C   0  0  0  0  0  0
  -21.3687   -5.6793   24.9180 C   0  0  0  0  0  0
  -21.6046   -4.3044   24.7230 C   0  0  0  0  0  0
  -21.8815   -3.8135   23.4349 C   0  0  0  0  0  0
  -21.9221   -4.6949   22.3411 C   0  0  0  0  0  0
  -22.7713  -13.5156   21.1983 C   0  0  0  0  0  0
  -22.1668   -4.2124   21.0977 F   0  0  0  0  0  0
  -21.5631   -3.4539   25.7744 F   0  0  0  0  0  0
  -29.6115  -14.8862   20.2296 N   0  0  0  0  0  0
  -26.2814  -12.9976   20.3396 N   0  0  0  0  0  0
  -25.9516  -11.6908   20.5590 N   0  0  0  0  0  0
  -22.0392  -12.8084   22.0501 N   0  0  0  0  0  0
  -25.3616  -15.2197   20.4361 N   0  0  0  0  0  0
  -31.2453  -16.2218   20.1112 O   0  0  0  0  0  0
  -21.6681   -6.8918   21.4228 O   0  0  0  0  0  0
  -22.3365  -14.5490   20.6881 O   0  0  0  0  0  0
  -24.7319  -31.7431   23.0998 C   0  0  0  0  0  0
  -25.9651  -32.4198   23.7769 C   0  0  1  0  0  0
  -27.2694  -26.1892   20.2623 C   0  0  0  0  0  0
  -25.6020  -33.8036   24.1605 N   0  0  0  0  0  0
  -23.5830  -30.3180   21.4669 C   0  0  2  0  0  0
  -25.0574  -28.5457   20.1316 C   0  0  0  0  0  0
  -22.8002  -29.3999   22.4524 C   0  0  0  0  0  0
  -18.0353  -28.1485   22.8391 C   0  0  0  0  0  0
  -24.1480  -36.7052   23.2687 C   0  0  0  0  0  0
  -26.1877  -30.3060   21.4461 C   0  0  0  0  0  0
  -26.2509  -28.8112   20.8096 C   0  0  0  0  0  0
  -27.3195  -27.6807   20.8215 C   0  0  0  0  0  0
  -26.0348  -26.2672   19.5220 C   0  0  0  0  0  0
  -25.0201  -27.3056   19.4654 C   0  0  0  0  0  0
  -23.8751  -29.5641   20.1262 C   0  0  0  0  0  0
  -25.4120  -36.2681   24.0250 C   0  0  1  0  0  0
  -20.6024  -28.3844   23.1047 C   0  0  2  0  0  0
  -20.6827  -26.9466   22.5442 C   0  0  0  0  0  0
  -19.5826  -26.6373   21.5247 C   0  0  0  0  0  0
  -18.1961  -26.8007   22.1584 C   0  0  0  0  0  0
  -19.1635  -28.8992   23.2695 C   0  0  0  0  0  0
  -18.9568  -30.1571   23.8769 C   0  0  0  0  0  0
  -17.6564  -30.6661   24.0506 C   0  0  0  0  0  0
  -25.9148  -34.9122   23.4767 C   0  0  0  0  0  0
  -16.5433  -29.9135   23.6370 C   0  0  0  0  0  0
  -16.7326  -28.6563   23.0359 C   0  0  0  0  0  0
  -26.4647  -31.6494   25.0634 C   0  0  0  0  0  0
  -25.3510  -31.4011   26.1088 C   0  0  0  0  0  0
  -27.0622  -30.2770   24.6847 C   0  0  0  0  0  0
  -27.6005  -32.4506   25.7462 C   0  0  0  0  0  0
  -27.5490  -37.1643   24.8433 C   0  0  0  0  0  0
  -21.4594  -29.3017   22.3344 N   0  0  0  0  0  0
  -26.4137  -37.3529   23.9447 N   0  0  0  0  0  0
  -24.8639  -30.8343   22.0570 N   0  0  0  0  0  0
  -23.4248  -28.7639   23.3016 O   0  0  0  0  0  0
  -28.1974  -24.7528   20.2947 O   0  0  0  0  0  0
  -26.5891  -34.8795   22.4452 O   0  0  0  0  0  0
  -23.6235  -32.0716   23.5652 O   0  0  0  0  0  0
  -31.8515  -22.2714   18.3659 C   0  0  0  0  0  0
  -29.1017  -18.3940   22.0005 C   0  0  0  0  0  0
  -27.7658  -18.1164   19.8987 C   0  0  0  0  0  0
  -31.5455  -20.9289   19.0654 C   0  0  0  0  0  0
  -30.6531  -21.0638   20.3327 C   0  0  0  0  0  0
  -28.1956  -22.7182   20.3241 C   0  0  0  0  0  0
  -29.1652  -20.6628   20.1474 C   0  0  2  0  0  0
  -29.1629  -18.3974   20.4612 C   0  0  0  0  0  0
  -31.2825  -14.0133   19.1027 H   0  0  0  0  0  0
  -30.7052  -12.9436   20.3148 H   0  0  0  0  0  0
  -30.1807  -12.0689   18.0221 H   0  0  0  0  0  0
  -29.4352  -13.5771   17.5788 H   0  0  0  0  0  0
  -28.3908  -11.4461   19.4408 H   0  0  0  0  0  0
  -27.5672  -12.1284   18.0508 H   0  0  0  0  0  0
  -27.3595  -14.2365   19.1419 H   0  0  0  0  0  0
  -28.9393  -13.2719   21.5631 H   0  0  0  0  0  0
  -27.9606  -14.6970   21.5363 H   0  0  0  0  0  0
  -25.2834   -9.5724   22.4769 H   0  0  0  0  0  0
  -24.0018   -7.4712   22.7501 H   0  0  0  0  0  0
  -21.0897   -8.8908   19.8954 H   0  0  0  0  0  0
  -22.3844  -10.9730   19.6133 H   0  0  0  0  0  0
  -21.2041   -7.6141   23.9705 H   0  0  0  0  0  0
  -21.1495   -6.0520   25.9095 H   0  0  0  0  0  0
  -22.0554   -2.7569   23.2870 H   0  0  0  0  0  0
  -22.4008  -11.9712   22.4822 H   0  0  0  0  0  0
  -21.1020  -13.1111   22.2772 H   0  0  0  0  0  0
  -24.5646  -15.8447   20.5192 H   0  0  0  0  0  0
  -26.2024  -15.6817   20.1157 H   0  0  0  0  0  0
  -26.7847  -32.4568   23.0603 H   0  0  0  0  0  0
  -25.0009  -33.8975   24.9658 H   0  0  0  0  0  0
  -22.9299  -31.1599   21.2216 H   0  0  0  0  0  0
  -23.3706  -35.9402   23.3166 H   0  0  0  0  0  0
  -24.3550  -36.8904   22.2130 H   0  0  0  0  0  0
  -23.7264  -37.6179   23.6912 H   0  0  0  0  0  0
  -26.4263  -30.9945   20.6338 H   0  0  0  0  0  0
  -27.0263  -30.4044   22.1216 H   0  0  0  0  0  0
  -28.2173  -27.9162   21.3761 H   0  0  0  0  0  0
  -25.7918  -25.3731   18.9715 H   0  0  0  0  0  0
  -24.1342  -27.0782   18.8886 H   0  0  0  0  0  0
  -24.1000  -30.3005   19.3530 H   0  0  0  0  0  0
  -22.9720  -29.0624   19.7788 H   0  0  0  0  0  0
  -25.1364  -36.1302   25.0727 H   0  0  0  0  0  0
  -21.0076  -28.3480   24.1169 H   0  0  0  0  0  0
  -20.5701  -26.2453   23.3738 H   0  0  0  0  0  0
  -21.6658  -26.7405   22.1242 H   0  0  0  0  0  0
  -19.7007  -25.6251   21.1372 H   0  0  0  0  0  0
  -19.6798  -27.3095   20.6710 H   0  0  0  0  0  0
  -17.4285  -26.6755   21.3947 H   0  0  0  0  0  0
  -18.0250  -26.0212   22.9025 H   0  0  0  0  0  0
  -19.8054  -30.7370   24.2102 H   0  0  0  0  0  0
  -17.5129  -31.6301   24.5172 H   0  0  0  0  0  0
  -15.5446  -30.3012   23.7797 H   0  0  0  0  0  0
  -15.8695  -28.0858   22.7177 H   0  0  0  0  0  0
  -24.5782  -30.7293   25.7337 H   0  0  0  0  0  0
  -24.8601  -32.3284   26.4058 H   0  0  0  0  0  0
  -25.7519  -30.9463   27.0159 H   0  0  0  0  0  0
  -26.3388  -29.6240   24.1951 H   0  0  0  0  0  0
  -27.3969  -29.7423   25.5760 H   0  0  0  0  0  0
  -27.9383  -30.3778   24.0446 H   0  0  0  0  0  0
  -27.2491  -33.3960   26.1583 H   0  0  0  0  0  0
  -28.4025  -32.6858   25.0460 H   0  0  0  0  0  0
  -28.0403  -31.8946   26.5740 H   0  0  0  0  0  0
  -28.2398  -38.0042   24.7521 H   0  0  0  0  0  0
  -28.1090  -36.2568   24.6167 H   0  0  0  0  0  0
  -27.2246  -37.1162   25.8841 H   0  0  0  0  0  0
  -21.0025  -29.8668   21.6325 H   0  0  0  0  0  0
  -25.9887  -38.2504   24.1561 H   0  0  0  0  0  0
  -32.2055  -22.1149   17.3383 H   0  0  0  0  0  0
  -32.6354  -22.8201   18.8963 H   0  0  0  0  0  0
  -30.9750  -22.9213   18.3039 H   0  0  0  0  0  0
  -28.4190  -19.1553   22.3836 H   0  0  0  0  0  0
  -30.0926  -18.5765   22.4195 H   0  0  0  0  0  0
  -28.7668  -17.4306   22.3962 H   0  0  0  0  0  0
  -27.0748  -18.9205   20.1596 H   0  0  0  0  0  0
  -27.3480  -17.1805   20.2705 H   0  0  0  0  0  0
  -27.8179  -18.0508   18.8108 H   0  0  0  0  0  0
  -32.4963  -20.4550   19.3398 H   0  0  0  0  0  0
  -31.0932  -20.2429   18.3426 H   0  0  0  0  0  0
  -30.6913  -22.1031   20.6797 H   0  0  0  0  0  0
  -31.0846  -20.4886   21.1586 H   0  0  0  0  0  0
  -27.6740  -22.5867   21.2733 H   0  0  0  0  0  0
  -27.3917  -22.5802   19.5979 H   0  0  0  0  0  0
  -29.0168  -20.6134   19.0680 H   0  0  0  0  0  0
  1 25  1  0  0  0
  1 30  2  0  0  0
  1 78  1  0  0  0
  2  3  1  0  0  0
  2 25  1  0  0  0
  2 79  1  0  0  0
  2 80  1  0  0  0
  3  4  1  0  0  0
  3 81  1  0  0  0
  3 82  1  0  0  0
  4  5  1  0  0  0
  4 83  1  0  0  0
  4 84  1  0  0  0
  5  6  1  0  0  0
  5 26  1  0  0  0
  5 85  1  0  0  0
  6 25  1  0  0  0
  6 86  1  0  0  0
  6 87  1  0  0  0
  7  8  2  0  0  0
  7 26  1  0  0  0
  7 29  1  0  0  0
  8  9  1  0  0  0
  8 22  1  0  0  0
  9 10  1  0  0  0
  9 27  2  0  0  0
 10 11  2  0  0  0
 10 15  1  0  0  0
 11 12  1  0  0  0
 11 88  1  0  0  0
 12 13  2  0  0  0
 12 89  1  0  0  0
 13 14  1  0  0  0
 13 31  1  0  0  0
 14 15  2  0  0  0
 14 90  1  0  0  0
 15 91  1  0  0  0
 16 17  2  0  0  0
 16 21  1  0  0  0
 16 31  1  0  0  0
 17 18  1  0  0  0
 17 92  1  0  0  0
 18 19  2  0  0  0
 18 93  1  0  0  0
 19 20  1  0  0  0
 19 24  1  0  0  0
 20 21  2  0  0  0
 20 94  1  0  0  0
 21 23  1  0  0  0
 22 28  1  0  0  0
 22 32  2  0  0  0
 26 27  1  0  0  0
 28 95  1  0  0  0
 28 96  1  0  0  0
 29 97  1  0  0  0
 29 98  1  0  0  0
 33 34  1  0  0  0
 33 66  1  0  0  0
 33 70  2  0  0  0
 34 36  1  0  0  0
 34 59  1  0  0  0
 34 99  1  0  0  0
 35 44  2  0  0  0
 35 45  1  0  0  0
 35 68  1  0  0  0
 36 56  1  0  0  0
 36100  1  0  0  0
 37 39  1  0  0  0
 37 47  1  0  0  0
 37 66  1  0  0  0
 37101  1  0  0  0
 38 43  2  0  0  0
 38 46  1  0  0  0
 38 47  1  0  0  0
 39 64  1  0  0  0
 39 67  2  0  0  0
 40 52  1  0  0  0
 40 53  2  0  0  0
 40 58  1  0  0  0
 41102  1  0  0  0
 41103  1  0  0  0
 41104  1  0  0  0
 41 48  1  0  0  0
 42 43  1  0  0  0
 42 66  1  0  0  0
 42105  1  0  0  0
 42106  1  0  0  0
 43 44  1  0  0  0
 44107  1  0  0  0
 45 46  2  0  0  0
 45108  1  0  0  0
 46109  1  0  0  0
 47110  1  0  0  0
 47111  1  0  0  0
 48 56  1  0  0  0
 48 65  1  0  0  0
 48112  1  0  0  0
 49 50  1  0  0  0
 49 53  1  0  0  0
 49 64  1  0  0  0
 49113  1  0  0  0
 50 51  1  0  0  0
 50114  1  0  0  0
 50115  1  0  0  0
 51 52  1  0  0  0
 51116  1  0  0  0
 51117  1  0  0  0
 52118  1  0  0  0
 52119  1  0  0  0
 53 54  1  0  0  0
 54 55  2  0  0  0
 54120  1  0  0  0
 55 57  1  0  0  0
 55121  1  0  0  0
 56 69  2  0  0  0
 57 58  2  0  0  0
 57122  1  0  0  0
 58123  1  0  0  0
 59 60  1  0  0  0
 59 61  1  0  0  0
 59 62  1  0  0  0
 60124  1  0  0  0
 60125  1  0  0  0
 60126  1  0  0  0
 61127  1  0  0  0
 61128  1  0  0  0
 61129  1  0  0  0
 62130  1  0  0  0
 62131  1  0  0  0
 62132  1  0  0  0
 63 65  1  0  0  0
 63133  1  0  0  0
 63134  1  0  0  0
 63135  1  0  0  0
 64136  1  0  0  0
 65137  1  0  0  0
 68 76  1  0  0  0
 71 74  1  0  0  0
 71138  1  0  0  0
 71139  1  0  0  0
 71140  1  0  0  0
 72141  1  0  0  0
 72142  1  0  0  0
 72143  1  0  0  0
 72 78  1  0  0  0
 73 78  1  0  0  0
 73144  1  0  0  0
 73145  1  0  0  0
 73146  1  0  0  0
 74 75  1  0  0  0
 74147  1  0  0  0
 74148  1  0  0  0
 75149  1  0  0  0
 75150  1  0  0  0
 75 77  1  0  0  0
 76 77  1  0  0  0
 76151  1  0  0  0
 76152  1  0  0  0
 77 78  1  0  0  0
 77153  1  0  0  0
M  ISO  4   1 100  68 101  76 101  78 100
M  END
> <chiral flag>
0

> <version>
0

> <s_m_source_file>
/data/baiqing/PycharmProjects/Reinvent-master-3.2/result/LINK_invent/BTK/process_docking_weight1_custom_sum_contain_oxygen_bond_distance_aromatic_linkinvent_7_9_3/rearranged_h_0018.sdf

> <i_m_source_file_index>
40

> <r_mmod_Potential_Energy-OPLS-2005>
6262.8701171875

> <r_mmod_Stretch_Energy-OPLS-2005>
2940.85034179688

> <r_mmod_Bend_Energy-OPLS-2005>
1061.39782714844

> <r_mmod_Torsional_Energy-OPLS-2005>
252.760757446289

> <r_mmod_Improper_Torsional_Energy-OPLS-2005>
1.76586246490479

> <r_mmod_Van_der_Waal_Energy-OPLS-2005>
109.643768310547

> <r_mmod_Electrostatic_Energy-OPLS-2005>
-286.121429443359

> <r_mmod_Solvation_Energy-OPLS-2005>
-185.442611694336

> <b_mmod_Minimization_Converged-OPLS-2005>
0

> <r_mmod_RMS_Derivative-OPLS-2005>
7.55294990539551

$$$$
41
                    3D
 Structure written by MMmdl.
150158  0  0  1  0            999 V2000
  -30.2615  -15.7701   20.3219 C   0  0  0  0  0  0
  -30.4123  -13.1829   19.5379 C   0  0  0  0  0  0
  -29.5528  -12.6886   18.3358 C   0  0  0  0  0  0
  -28.1383  -12.3025   18.7882 C   0  0  0  0  0  0
  -27.5905  -13.3217   19.8102 C   0  0  2  0  0  0
  -28.5989  -13.7172   20.9185 C   0  0  0  0  0  0
  -25.2301  -13.8305   20.5819 C   0  0  0  0  0  0
  -24.1704  -13.0435   20.9300 C   0  0  0  0  0  0
  -24.6425  -11.6953   20.8767 C   0  0  0  0  0  0
  -23.9129  -10.4294   21.0393 C   0  0  0  0  0  0
  -24.3661   -9.4207   21.9178 C   0  0  0  0  0  0
  -23.6317   -8.2250   22.0753 C   0  0  0  0  0  0
  -22.4297   -8.0291   21.3545 C   0  0  0  0  0  0
  -21.9947   -9.0267   20.4643 C   0  0  0  0  0  0
  -22.7294  -10.2136   20.3047 C   0  0  0  0  0  0
  -21.6860   -6.0743   22.5278 C   0  0  0  0  0  0
  -21.4020   -6.5645   23.8212 C   0  0  0  0  0  0
  -21.3660   -5.6796   24.9173 C   0  0  0  0  0  0
  -21.6043   -4.3058   24.7222 C   0  0  0  0  0  0
  -21.8819   -3.8152   23.4343 C   0  0  0  0  0  0
  -21.9195   -4.6970   22.3401 C   0  0  0  0  0  0
  -22.7713  -13.5155   21.1926 C   0  0  0  0  0  0
  -22.1662   -4.2155   21.0978 F   0  0  0  0  0  0
  -21.5627   -3.4541   25.7734 F   0  0  0  0  0  0
  -29.7487  -14.3823   20.2492 N   0  0  0  0  0  0
  -26.2764  -12.9663   20.3259 N   0  0  0  0  0  0
  -25.9377  -11.6718   20.5699 N   0  0  0  0  0  0
  -22.0382  -12.8128   22.0478 N   0  0  0  0  0  0
  -25.3869  -15.2049   20.4261 N   0  0  0  0  0  0
  -31.4975  -15.6568   20.1856 O   0  0  0  0  0  0
  -21.6652   -6.8893   21.4243 O   0  0  0  0  0  0
  -22.3385  -14.5451   20.6759 O   0  0  0  0  0  0
  -24.6936  -31.7884   23.1430 C   0  0  0  0  0  0
  -25.9470  -32.4408   23.8014 C   0  0  1  0  0  0
  -27.2291  -26.6016   20.2255 C   0  0  0  0  0  0
  -25.6007  -33.8239   24.1892 N   0  0  0  0  0  0
  -23.5244  -30.3859   21.4992 C   0  0  2  0  0  0
  -24.9826  -28.7056   20.1208 C   0  0  0  0  0  0
  -22.7813  -29.4255   22.4683 C   0  0  0  0  0  0
  -18.0345  -28.1431   22.8454 C   0  0  0  0  0  0
  -24.1492  -36.7123   23.2655 C   0  0  0  0  0  0
  -26.1092  -30.4882   21.4224 C   0  0  0  0  0  0
  -26.1736  -29.0418   20.7747 C   0  0  0  0  0  0
  -27.2772  -28.0212   20.7907 C   0  0  0  0  0  0
  -26.0041  -26.5007   19.5112 C   0  0  0  0  0  0
  -24.9430  -27.4622   19.4645 C   0  0  0  0  0  0
  -23.7839  -29.6736   20.1389 C   0  0  0  0  0  0
  -25.4148  -36.2859   24.0274 C   0  0  1  0  0  0
  -20.5987  -28.3794   23.1124 C   0  0  2  0  0  0
  -20.6805  -26.9443   22.5406 C   0  0  0  0  0  0
  -19.5781  -26.6372   21.5220 C   0  0  0  0  0  0
  -18.1964  -26.7957   22.1622 C   0  0  0  0  0  0
  -19.1615  -28.8940   23.2766 C   0  0  0  0  0  0
  -18.9517  -30.1521   23.8815 C   0  0  0  0  0  0
  -17.6506  -30.6610   24.0550 C   0  0  0  0  0  0
  -25.9136  -34.9253   23.4926 C   0  0  0  0  0  0
  -16.5395  -29.9090   23.6356 C   0  0  0  0  0  0
  -16.7324  -28.6514   23.0371 C   0  0  0  0  0  0
  -26.4615  -31.6487   25.0678 C   0  0  0  0  0  0
  -25.3654  -31.3837   26.1275 C   0  0  0  0  0  0
  -27.0565  -30.2814   24.6651 C   0  0  0  0  0  0
  -27.6043  -32.4370   25.7506 C   0  0  0  0  0  0
  -27.5556  -37.1721   24.8469 C   0  0  0  0  0  0
  -21.4450  -29.3020   22.3431 N   0  0  0  0  0  0
  -26.4264  -37.3632   23.9407 N   0  0  0  0  0  0
  -24.8004  -30.9232   22.0736 N   0  0  0  0  0  0
  -23.4210  -28.7875   23.3075 O   0  0  0  0  0  0
  -28.1756  -25.3345   20.3009 O   0  0  0  0  0  0
  -26.5788  -34.8851   22.4551 O   0  0  0  0  0  0
  -23.5934  -32.1003   23.6323 O   0  0  0  0  0  0
  -30.2737  -22.0071   20.6614 C   0  0  0  0  0  0
  -28.9097  -21.8903   20.3304 C   0  0  0  0  0  0
  -31.1854  -20.9145   20.8545 C   0  0  0  0  0  0
  -28.6723  -20.2692   20.2151 C   0  0  0  0  0  0
  -29.6243  -18.9445   20.3932 C   0  0  0  0  0  0
  -30.8966  -19.5004   20.7416 C   0  0  0  0  0  0
  -32.6052  -21.3215   21.2301 C   0  0  0  0  0  0
  -27.2442  -19.9026   19.8703 C   0  0  0  0  0  0
  -27.9562  -23.5437   20.1614 C   0  0  0  0  0  0
  -29.4991  -17.1751   20.3285 N   0  0  0  0  0  0
  -32.1989  -18.4203   21.1022 Cl  0  0  0  0  0  0
  -31.3948  -13.4603   19.1548 H   0  0  0  0  0  0
  -30.6069  -12.3666   20.2357 H   0  0  0  0  0  0
  -30.0348  -11.8451   17.8397 H   0  0  0  0  0  0
  -29.4890  -13.4857   17.5936 H   0  0  0  0  0  0
  -28.1917  -11.3170   19.2523 H   0  0  0  0  0  0
  -27.4692  -12.2072   17.9321 H   0  0  0  0  0  0
  -27.4324  -14.2228   19.2158 H   0  0  0  0  0  0
  -28.8928  -12.8610   21.5277 H   0  0  0  0  0  0
  -28.1389  -14.4326   21.6018 H   0  0  0  0  0  0
  -25.2799   -9.5680   22.4763 H   0  0  0  0  0  0
  -24.0016   -7.4644   22.7481 H   0  0  0  0  0  0
  -21.0876   -8.8797   19.8951 H   0  0  0  0  0  0
  -22.3752  -10.9678   19.6159 H   0  0  0  0  0  0
  -21.2016   -7.6153   23.9717 H   0  0  0  0  0  0
  -21.1481   -6.0525   25.9075 H   0  0  0  0  0  0
  -22.0596   -2.7614   23.2841 H   0  0  0  0  0  0
  -22.4030  -11.9805   22.4871 H   0  0  0  0  0  0
  -21.0987  -13.1117   22.2675 H   0  0  0  0  0  0
  -24.6124  -15.8501   20.5375 H   0  0  0  0  0  0
  -26.2251  -15.6487   20.0763 H   0  0  0  0  0  0
  -26.7561  -32.4856   23.0731 H   0  0  0  0  0  0
  -25.0057  -33.9259   24.9981 H   0  0  0  0  0  0
  -22.8553  -31.2258   21.3007 H   0  0  0  0  0  0
  -23.3774  -35.9430   23.3265 H   0  0  0  0  0  0
  -24.3554  -36.8844   22.2080 H   0  0  0  0  0  0
  -23.7234  -37.6276   23.6775 H   0  0  0  0  0  0
  -26.3225  -31.2061   20.6293 H   0  0  0  0  0  0
  -26.9563  -30.5605   22.0920 H   0  0  0  0  0  0
  -28.1710  -28.2887   21.3366 H   0  0  0  0  0  0
  -25.8199  -25.5652   19.0022 H   0  0  0  0  0  0
  -24.0471  -27.1943   18.9213 H   0  0  0  0  0  0
  -23.9677  -30.4291   19.3742 H   0  0  0  0  0  0
  -22.8865  -29.1454   19.8124 H   0  0  0  0  0  0
  -25.1364  -36.1604   25.0764 H   0  0  0  0  0  0
  -21.0066  -28.3427   24.1251 H   0  0  0  0  0  0
  -20.5658  -26.2423   23.3679 H   0  0  0  0  0  0
  -21.6665  -26.7369   22.1231 H   0  0  0  0  0  0
  -19.6931  -25.6261   21.1303 H   0  0  0  0  0  0
  -19.6725  -27.3138   20.6716 H   0  0  0  0  0  0
  -17.4234  -26.6704   21.4024 H   0  0  0  0  0  0
  -18.0344  -26.0120   22.9037 H   0  0  0  0  0  0
  -19.7992  -30.7361   24.2146 H   0  0  0  0  0  0
  -17.5054  -31.6279   24.5171 H   0  0  0  0  0  0
  -15.5391  -30.2965   23.7728 H   0  0  0  0  0  0
  -15.8726  -28.0804   22.7132 H   0  0  0  0  0  0
  -24.5870  -30.7153   25.7577 H   0  0  0  0  0  0
  -24.8810  -32.3070   26.4462 H   0  0  0  0  0  0
  -25.7809  -30.9159   27.0210 H   0  0  0  0  0  0
  -26.3304  -29.6398   24.1649 H   0  0  0  0  0  0
  -27.3960  -29.7299   25.5429 H   0  0  0  0  0  0
  -27.9296  -30.3918   24.0219 H   0  0  0  0  0  0
  -27.2569  -33.3753   26.1843 H   0  0  0  0  0  0
  -28.3980  -32.6801   25.0429 H   0  0  0  0  0  0
  -28.0573  -31.8661   26.5622 H   0  0  0  0  0  0
  -28.2546  -38.0039   24.7505 H   0  0  0  0  0  0
  -28.1077  -36.2560   24.6313 H   0  0  0  0  0  0
  -27.2269  -37.1375   25.8871 H   0  0  0  0  0  0
  -20.9779  -29.8656   21.6464 H   0  0  0  0  0  0
  -26.0080  -38.2675   24.1419 H   0  0  0  0  0  0
  -30.6456  -23.0149   20.7859 H   0  0  0  0  0  0
  -32.7316  -22.4037   21.2673 H   0  0  0  0  0  0
  -33.3211  -20.9374   20.5027 H   0  0  0  0  0  0
  -32.8687  -20.9306   22.2135 H   0  0  0  0  0  0
  -26.6580  -20.7813   19.6012 H   0  0  0  0  0  0
  -26.7632  -19.4200   20.7214 H   0  0  0  0  0  0
  -27.2215  -19.2111   19.0278 H   0  0  0  0  0  0
  -27.1052  -23.3733   20.8210 H   0  0  0  0  0  0
  -27.5261  -23.4486   19.1643 H   0  0  0  0  0  0
  -28.5209  -16.9321   20.2868 H   0  0  0  0  0  0
  1 25  1  0  0  0
  1 30  2  0  0  0
  1 80  1  0  0  0
  2  3  1  0  0  0
  2 25  1  0  0  0
  2 82  1  0  0  0
  2 83  1  0  0  0
  3  4  1  0  0  0
  3 84  1  0  0  0
  3 85  1  0  0  0
  4  5  1  0  0  0
  4 86  1  0  0  0
  4 87  1  0  0  0
  5  6  1  0  0  0
  5 26  1  0  0  0
  5 88  1  0  0  0
  6 25  1  0  0  0
  6 89  1  0  0  0
  6 90  1  0  0  0
  7  8  2  0  0  0
  7 26  1  0  0  0
  7 29  1  0  0  0
  8  9  1  0  0  0
  8 22  1  0  0  0
  9 10  1  0  0  0
  9 27  2  0  0  0
 10 11  2  0  0  0
 10 15  1  0  0  0
 11 12  1  0  0  0
 11 91  1  0  0  0
 12 13  2  0  0  0
 12 92  1  0  0  0
 13 14  1  0  0  0
 13 31  1  0  0  0
 14 15  2  0  0  0
 14 93  1  0  0  0
 15 94  1  0  0  0
 16 17  2  0  0  0
 16 21  1  0  0  0
 16 31  1  0  0  0
 17 18  1  0  0  0
 17 95  1  0  0  0
 18 19  2  0  0  0
 18 96  1  0  0  0
 19 20  1  0  0  0
 19 24  1  0  0  0
 20 21  2  0  0  0
 20 97  1  0  0  0
 21 23  1  0  0  0
 22 28  1  0  0  0
 22 32  2  0  0  0
 26 27  1  0  0  0
 28 98  1  0  0  0
 28 99  1  0  0  0
 29100  1  0  0  0
 29101  1  0  0  0
 33 34  1  0  0  0
 33 66  1  0  0  0
 33 70  2  0  0  0
 34 36  1  0  0  0
 34 59  1  0  0  0
 34102  1  0  0  0
 35 44  2  0  0  0
 35 45  1  0  0  0
 35 68  1  0  0  0
 36 56  1  0  0  0
 36103  1  0  0  0
 37 39  1  0  0  0
 37 47  1  0  0  0
 37 66  1  0  0  0
 37104  1  0  0  0
 38 43  2  0  0  0
 38 46  1  0  0  0
 38 47  1  0  0  0
 39 64  1  0  0  0
 39 67  2  0  0  0
 40 52  1  0  0  0
 40 53  2  0  0  0
 40 58  1  0  0  0
 41105  1  0  0  0
 41106  1  0  0  0
 41107  1  0  0  0
 41 48  1  0  0  0
 42 43  1  0  0  0
 42 66  1  0  0  0
 42108  1  0  0  0
 42109  1  0  0  0
 43 44  1  0  0  0
 44110  1  0  0  0
 45 46  2  0  0  0
 45111  1  0  0  0
 46112  1  0  0  0
 47113  1  0  0  0
 47114  1  0  0  0
 48 56  1  0  0  0
 48 65  1  0  0  0
 48115  1  0  0  0
 49 50  1  0  0  0
 49 53  1  0  0  0
 49 64  1  0  0  0
 49116  1  0  0  0
 50 51  1  0  0  0
 50117  1  0  0  0
 50118  1  0  0  0
 51 52  1  0  0  0
 51119  1  0  0  0
 51120  1  0  0  0
 52121  1  0  0  0
 52122  1  0  0  0
 53 54  1  0  0  0
 54 55  2  0  0  0
 54123  1  0  0  0
 55 57  1  0  0  0
 55124  1  0  0  0
 56 69  2  0  0  0
 57 58  2  0  0  0
 57125  1  0  0  0
 58126  1  0  0  0
 59 60  1  0  0  0
 59 61  1  0  0  0
 59 62  1  0  0  0
 60127  1  0  0  0
 60128  1  0  0  0
 60129  1  0  0  0
 61130  1  0  0  0
 61131  1  0  0  0
 61132  1  0  0  0
 62133  1  0  0  0
 62134  1  0  0  0
 62135  1  0  0  0
 63 65  1  0  0  0
 63136  1  0  0  0
 63137  1  0  0  0
 63138  1  0  0  0
 64139  1  0  0  0
 65140  1  0  0  0
 68 79  1  0  0  0
 71 72  2  0  0  0
 71 73  1  0  0  0
 71141  1  0  0  0
 72 74  1  0  0  0
 72 79  1  0  0  0
 73 76  2  0  0  0
 73 77  1  0  0  0
 74 75  2  0  0  0
 74 78  1  0  0  0
 75 76  1  0  0  0
 75 80  1  0  0  0
 76 81  1  0  0  0
 77142  1  0  0  0
 77143  1  0  0  0
 77144  1  0  0  0
 78145  1  0  0  0
 78146  1  0  0  0
 78147  1  0  0  0
 79148  1  0  0  0
 79149  1  0  0  0
 80150  1  0  0  0
M  ISO  4   1 100  68 101  79 101  80 100
M  END
> <chiral flag>
0

> <version>
0

> <s_m_source_file>
/data/baiqing/PycharmProjects/Reinvent-master-3.2/result/LINK_invent/BTK/process_docking_weight1_custom_sum_contain_oxygen_bond_distance_aromatic_linkinvent_7_9_3/rearranged_h_0018.sdf

> <i_m_source_file_index>
41

> <r_mmod_Potential_Energy-OPLS-2005>
2815.11108398438

> <r_mmod_Stretch_Energy-OPLS-2005>
1274.03479003906

> <r_mmod_Bend_Energy-OPLS-2005>
644.721313476562

> <r_mmod_Torsional_Energy-OPLS-2005>
223.384826660156

> <r_mmod_Improper_Torsional_Energy-OPLS-2005>
4.88901519775391

> <r_mmod_Van_der_Waal_Energy-OPLS-2005>
134.581970214844

> <r_mmod_Electrostatic_Energy-OPLS-2005>
-364.990600585938

> <r_mmod_Solvation_Energy-OPLS-2005>
-216.86003112793

> <b_mmod_Minimization_Converged-OPLS-2005>
0

> <r_mmod_RMS_Derivative-OPLS-2005>
0.274912565946579

$$$$
42
                    3D
 Structure written by MMmdl.
169177  0  0  1  0            999 V2000
  -30.4003  -15.2653   20.3079 C   0  0  0  0  0  0
  -30.4639  -12.8015   19.4960 C   0  0  0  0  0  0
  -29.5311  -12.5718   18.2754 C   0  0  0  0  0  0
  -28.0707  -12.3120   18.7035 C   0  0  0  0  0  0
  -27.6133  -13.2494   19.8490 C   0  0  2  0  0  0
  -28.6853  -13.3486   20.9561 C   0  0  0  0  0  0
  -25.2251  -13.7862   20.5812 C   0  0  0  0  0  0
  -24.1630  -13.0115   20.9312 C   0  0  0  0  0  0
  -24.6370  -11.6684   20.8824 C   0  0  0  0  0  0
  -23.9067  -10.4110   21.0421 C   0  0  0  0  0  0
  -24.3605   -9.4047   21.9204 C   0  0  0  0  0  0
  -23.6254   -8.2113   22.0758 C   0  0  0  0  0  0
  -22.4239   -8.0193   21.3533 C   0  0  0  0  0  0
  -21.9889   -9.0169   20.4634 C   0  0  0  0  0  0
  -22.7247  -10.2017   20.3047 C   0  0  0  0  0  0
  -21.6820   -6.0688   22.5282 C   0  0  0  0  0  0
  -21.3989   -6.5608   23.8207 C   0  0  0  0  0  0
  -21.3655   -5.6771   24.9180 C   0  0  0  0  0  0
  -21.6054   -4.3035   24.7243 C   0  0  0  0  0  0
  -21.8825   -3.8113   23.4368 C   0  0  0  0  0  0
  -21.9180   -4.6922   22.3415 C   0  0  0  0  0  0
  -22.7668  -13.4945   21.1956 C   0  0  0  0  0  0
  -22.1651   -4.2107   21.0994 F   0  0  0  0  0  0
  -21.5653   -3.4528   25.7764 F   0  0  0  0  0  0
  -29.9039  -13.9202   20.3366 N   0  0  0  0  0  0
  -26.2832  -12.9253   20.3465 N   0  0  0  0  0  0
  -25.9342  -11.6373   20.5895 N   0  0  0  0  0  0
  -22.0326  -12.7970   22.0546 N   0  0  0  0  0  0
  -25.3471  -15.1491   20.4202 N   0  0  0  0  0  0
  -31.6320  -15.2882   20.1695 O   0  0  0  0  0  0
  -21.6582   -6.8814   21.4234 O   0  0  0  0  0  0
  -22.3382  -14.5278   20.6824 O   0  0  0  0  0  0
  -24.6557  -31.8286   23.1757 C   0  0  0  0  0  0
  -25.9267  -32.4615   23.8197 C   0  0  1  0  0  0
  -27.2444  -27.0006   20.1642 C   0  0  0  0  0  0
  -25.5958  -33.8429   24.2103 N   0  0  0  0  0  0
  -23.4689  -30.4402   21.5225 C   0  0  2  0  0  0
  -24.9263  -28.8375   20.1093 C   0  0  0  0  0  0
  -22.7629  -29.4462   22.4798 C   0  0  0  0  0  0
  -18.0323  -28.1396   22.8478 C   0  0  0  0  0  0
  -24.1494  -36.7226   23.2647 C   0  0  0  0  0  0
  -26.0324  -30.6561   21.3969 C   0  0  0  0  0  0
  -26.1047  -29.2526   20.7407 C   0  0  0  0  0  0
  -27.2536  -28.3522   20.7500 C   0  0  0  0  0  0
  -26.0364  -26.7216   19.4827 C   0  0  0  0  0  0
  -24.9136  -27.5898   19.4636 C   0  0  0  0  0  0
  -23.7055  -29.7547   20.1482 C   0  0  0  0  0  0
  -25.4130  -36.2982   24.0302 C   0  0  1  0  0  0
  -20.5942  -28.3740   23.1200 C   0  0  2  0  0  0
  -20.6799  -26.9426   22.5404 C   0  0  0  0  0  0
  -19.5771  -26.6374   21.5215 C   0  0  0  0  0  0
  -18.1956  -26.7936   22.1625 C   0  0  0  0  0  0
  -19.1582  -28.8887   23.2831 C   0  0  0  0  0  0
  -18.9496  -30.1484   23.8855 C   0  0  0  0  0  0
  -17.6488  -30.6590   24.0559 C   0  0  0  0  0  0
  -25.9087  -34.9362   23.5020 C   0  0  0  0  0  0
  -16.5380  -29.9078   23.6342 C   0  0  0  0  0  0
  -16.7308  -28.6498   23.0360 C   0  0  0  0  0  0
  -26.4542  -31.6542   25.0704 C   0  0  0  0  0  0
  -25.3694  -31.3781   26.1381 C   0  0  0  0  0  0
  -27.0436  -30.2918   24.6398 C   0  0  0  0  0  0
  -27.6038  -32.4349   25.7505 C   0  0  0  0  0  0
  -27.5569  -37.1769   24.8463 C   0  0  0  0  0  0
  -21.4303  -29.3040   22.3547 N   0  0  0  0  0  0
  -26.4278  -37.3712   23.9406 N   0  0  0  0  0  0
  -24.7395  -30.9999   22.0863 N   0  0  0  0  0  0
  -23.4200  -28.8032   23.3020 O   0  0  0  0  0  0
  -28.2923  -25.9612   20.2755 O   0  0  0  0  0  0
  -26.5694  -34.8887   22.4614 O   0  0  0  0  0  0
  -23.5642  -32.1225   23.6891 O   0  0  0  0  0  0
  -31.1764  -18.9621   19.2990 C   0  0  0  0  0  0
  -30.5916  -21.5658   19.2872 C   0  0  0  0  0  0
  -29.3170  -20.0166   20.7199 C   0  0  0  0  0  0
  -31.0383  -20.2922   18.4784 C   0  0  1  0  0  0
  -29.8313  -18.5526   19.9132 C   0  0  2  0  0  0
  -32.3553  -20.5708   17.7336 C   0  0  0  0  0  0
  -27.0007  -17.5843   20.4640 C   0  0  0  0  0  0
  -27.8759  -22.6554   21.8111 C   0  0  0  0  0  0
  -29.0833  -16.4760   18.5845 C   0  0  0  0  0  0
  -28.2391  -16.8084   20.9890 C   0  0  0  0  0  0
  -28.2760  -24.3900   19.8512 C   0  0  0  0  0  0
  -28.8508  -22.9170   20.6503 C   0  0  2  0  0  0
  -29.4887  -16.7777   20.0678 C   0  0  1  0  0  0
  -29.2680  -21.4629   19.9704 N   0  3  1  0  0  0
  -31.4667  -13.0401   19.1390 H   0  0  0  0  0  0
  -30.5788  -11.8855   20.0769 H   0  0  0  0  0  0
  -29.8955  -11.7375   17.6755 H   0  0  0  0  0  0
  -29.5691  -13.4439   17.6229 H   0  0  0  0  0  0
  -28.0049  -11.2762   19.0387 H   0  0  0  0  0  0
  -27.3978  -12.3962   17.8499 H   0  0  0  0  0  0
  -27.5049  -14.2311   19.4042 H   0  0  0  0  0  0
  -28.8785  -12.3589   21.3729 H   0  0  0  0  0  0
  -28.3597  -13.9294   21.8147 H   0  0  0  0  0  0
  -25.2742   -9.5519   22.4791 H   0  0  0  0  0  0
  -23.9940   -7.4497   22.7481 H   0  0  0  0  0  0
  -21.0815   -8.8706   19.8949 H   0  0  0  0  0  0
  -22.3726  -10.9574   19.6163 H   0  0  0  0  0  0
  -21.1964   -7.6112   23.9702 H   0  0  0  0  0  0
  -21.1483   -6.0504   25.9081 H   0  0  0  0  0  0
  -22.0617   -2.7576   23.2889 H   0  0  0  0  0  0
  -22.3915  -11.9603   22.4907 H   0  0  0  0  0  0
  -21.0966  -13.1027   22.2793 H   0  0  0  0  0  0
  -24.5604  -15.7745   20.5512 H   0  0  0  0  0  0
  -26.2054  -15.6328   20.1923 H   0  0  0  0  0  0
  -26.7335  -32.5175   23.0913 H   0  0  0  0  0  0
  -25.0058  -33.9519   25.0223 H   0  0  0  0  0  0
  -22.7794  -31.2704   21.3549 H   0  0  0  0  0  0
  -23.3756  -35.9557   23.3282 H   0  0  0  0  0  0
  -24.3574  -36.8899   22.2068 H   0  0  0  0  0  0
  -23.7253  -37.6411   23.6718 H   0  0  0  0  0  0
  -26.2021  -31.4005   20.6180 H   0  0  0  0  0  0
  -26.8963  -30.7138   22.0473 H   0  0  0  0  0  0
  -28.1431  -28.6669   21.2774 H   0  0  0  0  0  0
  -25.9202  -25.7733   18.9811 H   0  0  0  0  0  0
  -24.0184  -27.2663   18.9506 H   0  0  0  0  0  0
  -23.8491  -30.5241   19.3886 H   0  0  0  0  0  0
  -22.8177  -29.2009   19.8371 H   0  0  0  0  0  0
  -25.1327  -36.1784   25.0794 H   0  0  0  0  0  0
  -21.0045  -28.3353   24.1318 H   0  0  0  0  0  0
  -20.5684  -26.2358   23.3643 H   0  0  0  0  0  0
  -21.6663  -26.7410   22.1207 H   0  0  0  0  0  0
  -19.6930  -25.6276   21.1269 H   0  0  0  0  0  0
  -19.6708  -27.3164   20.6729 H   0  0  0  0  0  0
  -17.4227  -26.6693   21.4028 H   0  0  0  0  0  0
  -18.0347  -26.0079   22.9019 H   0  0  0  0  0  0
  -19.7974  -30.7317   24.2194 H   0  0  0  0  0  0
  -17.5042  -31.6267   24.5167 H   0  0  0  0  0  0
  -15.5378  -30.2962   23.7687 H   0  0  0  0  0  0
  -15.8715  -28.0804   22.7083 H   0  0  0  0  0  0
  -24.5881  -30.7116   25.7708 H   0  0  0  0  0  0
  -24.8877  -32.2980   26.4704 H   0  0  0  0  0  0
  -25.7951  -30.9027   27.0226 H   0  0  0  0  0  0
  -26.3093  -29.6602   24.1384 H   0  0  0  0  0  0
  -27.3964  -29.7268   25.5035 H   0  0  0  0  0  0
  -27.9031  -30.4113   23.9803 H   0  0  0  0  0  0
  -27.2599  -33.3680   26.1979 H   0  0  0  0  0  0
  -28.3904  -32.6862   25.0380 H   0  0  0  0  0  0
  -28.0642  -31.8549   26.5512 H   0  0  0  0  0  0
  -28.2568  -38.0082   24.7503 H   0  0  0  0  0  0
  -28.1080  -36.2604   24.6293 H   0  0  0  0  0  0
  -27.2283  -37.1420   25.8867 H   0  0  0  0  0  0
  -20.9533  -29.8722   21.6685 H   0  0  0  0  0  0
  -26.0126  -38.2773   24.1410 H   0  0  0  0  0  0
  -31.9237  -19.0724   20.0854 H   0  0  0  0  0  0
  -31.5381  -18.1667   18.6469 H   0  0  0  0  0  0
  -30.5606  -22.4266   18.6187 H   0  0  0  0  0  0
  -31.3485  -21.7923   20.0396 H   0  0  0  0  0  0
  -30.0026  -20.1519   21.5570 H   0  0  0  0  0  0
  -28.3632  -19.8864   21.2208 H   0  0  0  0  0  0
  -30.2858  -20.1251   17.7048 H   0  0  0  0  0  0
  -29.1699  -18.7451   19.0732 H   0  0  0  0  0  0
  -33.1794  -20.7518   18.4248 H   0  0  0  0  0  0
  -32.2686  -21.4438   17.0860 H   0  0  0  0  0  0
  -32.6382  -19.7292   17.0998 H   0  0  0  0  0  0
  -26.2191  -17.6009   21.2248 H   0  0  0  0  0  0
  -26.5791  -17.1359   19.5682 H   0  0  0  0  0  0
  -27.1688  -18.6129   20.1781 H   0  0  0  0  0  0
  -27.6657  -23.5771   22.3551 H   0  0  0  0  0  0
  -28.2785  -21.9481   22.5353 H   0  0  0  0  0  0
  -26.9245  -22.2655   21.4483 H   0  0  0  0  0  0
  -28.2579  -17.0710   18.1991 H   0  0  0  0  0  0
  -28.8055  -15.4492   18.3837 H   0  0  0  0  0  0
  -29.9244  -16.6701   17.9189 H   0  0  0  0  0  0
  -27.8979  -15.8166   21.2327 H   0  0  0  0  0  0
  -28.5379  -17.2417   21.9439 H   0  0  0  0  0  0
  -27.2471  -24.1645   19.5771 H   0  0  0  0  0  0
  -28.7984  -24.4003   18.8949 H   0  0  0  0  0  0
  -29.7776  -23.2368   21.1269 H   0  0  0  0  0  0
  -28.5897  -21.3262   19.2342 H   0  0  0  0  0  0
  1 25  1  0  0  0
  1 30  2  0  0  0
  1 83  1  0  0  0
  2  3  1  0  0  0
  2 25  1  0  0  0
  2 85  1  0  0  0
  2 86  1  0  0  0
  3  4  1  0  0  0
  3 87  1  0  0  0
  3 88  1  0  0  0
  4  5  1  0  0  0
  4 89  1  0  0  0
  4 90  1  0  0  0
  5  6  1  0  0  0
  5 26  1  0  0  0
  5 91  1  0  0  0
  6 25  1  0  0  0
  6 92  1  0  0  0
  6 93  1  0  0  0
  7  8  2  0  0  0
  7 26  1  0  0  0
  7 29  1  0  0  0
  8  9  1  0  0  0
  8 22  1  0  0  0
  9 10  1  0  0  0
  9 27  2  0  0  0
 10 11  2  0  0  0
 10 15  1  0  0  0
 11 12  1  0  0  0
 11 94  1  0  0  0
 12 13  2  0  0  0
 12 95  1  0  0  0
 13 14  1  0  0  0
 13 31  1  0  0  0
 14 15  2  0  0  0
 14 96  1  0  0  0
 15 97  1  0  0  0
 16 17  2  0  0  0
 16 21  1  0  0  0
 16 31  1  0  0  0
 17 18  1  0  0  0
 17 98  1  0  0  0
 18 19  2  0  0  0
 18 99  1  0  0  0
 19 20  1  0  0  0
 19 24  1  0  0  0
 20 21  2  0  0  0
 20100  1  0  0  0
 21 23  1  0  0  0
 22 28  1  0  0  0
 22 32  2  0  0  0
 26 27  1  0  0  0
 28101  1  0  0  0
 28102  1  0  0  0
 29103  1  0  0  0
 29104  1  0  0  0
 33 34  1  0  0  0
 33 66  1  0  0  0
 33 70  2  0  0  0
 34 36  1  0  0  0
 34 59  1  0  0  0
 34105  1  0  0  0
 35 44  2  0  0  0
 35 45  1  0  0  0
 35 68  1  0  0  0
 36 56  1  0  0  0
 36106  1  0  0  0
 37 39  1  0  0  0
 37 47  1  0  0  0
 37 66  1  0  0  0
 37107  1  0  0  0
 38 43  2  0  0  0
 38 46  1  0  0  0
 38 47  1  0  0  0
 39 64  1  0  0  0
 39 67  2  0  0  0
 40 52  1  0  0  0
 40 53  2  0  0  0
 40 58  1  0  0  0
 41108  1  0  0  0
 41109  1  0  0  0
 41110  1  0  0  0
 41 48  1  0  0  0
 42 43  1  0  0  0
 42 66  1  0  0  0
 42111  1  0  0  0
 42112  1  0  0  0
 43 44  1  0  0  0
 44113  1  0  0  0
 45 46  2  0  0  0
 45114  1  0  0  0
 46115  1  0  0  0
 47116  1  0  0  0
 47117  1  0  0  0
 48 56  1  0  0  0
 48 65  1  0  0  0
 48118  1  0  0  0
 49 50  1  0  0  0
 49 53  1  0  0  0
 49 64  1  0  0  0
 49119  1  0  0  0
 50 51  1  0  0  0
 50120  1  0  0  0
 50121  1  0  0  0
 51 52  1  0  0  0
 51122  1  0  0  0
 51123  1  0  0  0
 52124  1  0  0  0
 52125  1  0  0  0
 53 54  1  0  0  0
 54 55  2  0  0  0
 54126  1  0  0  0
 55 57  1  0  0  0
 55127  1  0  0  0
 56 69  2  0  0  0
 57 58  2  0  0  0
 57128  1  0  0  0
 58129  1  0  0  0
 59 60  1  0  0  0
 59 61  1  0  0  0
 59 62  1  0  0  0
 60130  1  0  0  0
 60131  1  0  0  0
 60132  1  0  0  0
 61133  1  0  0  0
 61134  1  0  0  0
 61135  1  0  0  0
 62136  1  0  0  0
 62137  1  0  0  0
 62138  1  0  0  0
 63 65  1  0  0  0
 63139  1  0  0  0
 63140  1  0  0  0
 63141  1  0  0  0
 64142  1  0  0  0
 65143  1  0  0  0
 68 81  1  0  0  0
 71 74  1  0  0  0
 71144  1  0  0  0
 71145  1  0  0  0
 71 75  1  0  0  0
 72 74  1  0  0  0
 72146  1  0  0  0
 72147  1  0  0  0
 72 84  1  0  0  0
 73 75  1  0  0  0
 73 84  1  0  0  0
 73148  1  0  0  0
 73149  1  0  0  0
 74 76  1  0  0  0
 74150  1  0  0  0
 75 83  1  0  0  0
 75151  1  0  0  0
 76152  1  0  0  0
 76153  1  0  0  0
 76154  1  0  0  0
 77 80  1  0  0  0
 77155  1  0  0  0
 77156  1  0  0  0
 77157  1  0  0  0
 78158  1  0  0  0
 78159  1  0  0  0
 78160  1  0  0  0
 78 82  1  0  0  0
 79161  1  0  0  0
 79162  1  0  0  0
 79163  1  0  0  0
 79 83  1  0  0  0
 80 83  1  0  0  0
 80164  1  0  0  0
 80165  1  0  0  0
 81 82  1  0  0  0
 81166  1  0  0  0
 81167  1  0  0  0
 82 84  1  0  0  0
 82168  1  0  0  0
 84169  1  0  0  0
M  CHG  1  84   1
M  ISO  4   1 100  68 101  81 101  83 100
M  END
> <chiral flag>
0

> <version>
0

> <s_m_source_file>
/data/baiqing/PycharmProjects/Reinvent-master-3.2/result/LINK_invent/BTK/process_docking_weight1_custom_sum_contain_oxygen_bond_distance_aromatic_linkinvent_7_9_3/rearranged_h_0018.sdf

> <i_m_source_file_index>
42

> <r_mmod_Potential_Energy-OPLS-2005>
1370.08288574219

> <r_mmod_Stretch_Energy-OPLS-2005>
568.936767578125

> <r_mmod_Bend_Energy-OPLS-2005>
504.163330078125

> <r_mmod_Torsional_Energy-OPLS-2005>
271.027801513672

> <r_mmod_Improper_Torsional_Energy-OPLS-2005>
8.62977695465088

> <r_mmod_Van_der_Waal_Energy-OPLS-2005>
147.134674072266

> <r_mmod_Electrostatic_Energy-OPLS-2005>
-138.619735717773

> <r_mmod_Solvation_Energy-OPLS-2005>
-396.272308349609

> <b_mmod_Minimization_Converged-OPLS-2005>
0

> <r_mmod_RMS_Derivative-OPLS-2005>
1.20557415485382

$$$$
43
                    3D
 Structure written by MMmdl.
164172  0  0  1  0            999 V2000
  -30.7019  -14.6022   20.4993 C   0  0  0  0  0  0
  -30.4143  -12.3744   19.4561 C   0  0  0  0  0  0
  -29.4972  -12.4952   18.2227 C   0  0  0  0  0  0
  -28.0220  -12.3436   18.6375 C   0  0  0  0  0  0
  -27.6472  -13.2286   19.8571 C   0  0  2  0  0  0
  -28.6932  -13.1249   20.9897 C   0  0  0  0  0  0
  -25.2528  -13.8204   20.5702 C   0  0  0  0  0  0
  -24.1811  -13.0450   20.9201 C   0  0  0  0  0  0
  -24.6397  -11.6925   20.8749 C   0  0  0  0  0  0
  -23.9073  -10.4299   21.0406 C   0  0  0  0  0  0
  -24.3622   -9.4211   21.9184 C   0  0  0  0  0  0
  -23.6296   -8.2246   22.0753 C   0  0  0  0  0  0
  -22.4278   -8.0284   21.3543 C   0  0  0  0  0  0
  -21.9915   -9.0258   20.4645 C   0  0  0  0  0  0
  -22.7244  -10.2138   20.3055 C   0  0  0  0  0  0
  -21.6855   -6.0737   22.5278 C   0  0  0  0  0  0
  -21.4016   -6.5640   23.8211 C   0  0  0  0  0  0
  -21.3660   -5.6793   24.9173 C   0  0  0  0  0  0
  -21.6043   -4.3055   24.7225 C   0  0  0  0  0  0
  -21.8819   -3.8147   23.4345 C   0  0  0  0  0  0
  -21.9194   -4.6964   22.3401 C   0  0  0  0  0  0
  -22.7830  -13.5228   21.1860 C   0  0  0  0  0  0
  -22.1662   -4.2149   21.0979 F   0  0  0  0  0  0
  -21.5628   -3.4538   25.7738 F   0  0  0  0  0  0
  -30.0074  -13.4264   20.4099 N   0  0  0  0  0  0
  -26.2965  -12.9411   20.3322 N   0  0  0  0  0  0
  -25.9330  -11.6552   20.5772 N   0  0  0  0  0  0
  -22.0478  -12.8215   22.0416 N   0  0  0  0  0  0
  -25.4220  -15.1927   20.4114 N   0  0  0  0  0  0
  -31.8800  -14.6640   20.1430 O   0  0  0  0  0  0
  -21.6642   -6.8881   21.4239 O   0  0  0  0  0  0
  -22.3509  -14.5532   20.6707 O   0  0  0  0  0  0
  -24.6254  -31.8623   23.2065 C   0  0  0  0  0  0
  -25.9110  -32.4792   23.8378 C   0  0  1  0  0  0
  -27.2117  -27.3297   20.1099 C   0  0  0  0  0  0
  -25.5936  -33.8593   24.2302 N   0  0  0  0  0  0
  -23.4174  -30.4901   21.5495 C   0  0  2  0  0  0
  -24.8615  -28.9574   20.1069 C   0  0  0  0  0  0
  -22.7469  -29.4638   22.4940 C   0  0  0  0  0  0
  -18.0286  -28.1384   22.8483 C   0  0  0  0  0  0
  -24.1492  -36.7299   23.2638 C   0  0  0  0  0  0
  -25.9600  -30.7960   21.3787 C   0  0  0  0  0  0
  -26.0324  -29.4275   20.7158 C   0  0  0  0  0  0
  -27.2117  -28.6246   20.7117 C   0  0  0  0  0  0
  -26.0206  -26.9274   19.4563 C   0  0  0  0  0  0
  -24.8572  -27.7117   19.4678 C   0  0  0  0  0  0
  -23.6302  -29.8353   20.1613 C   0  0  0  0  0  0
  -25.4115  -36.3091   24.0330 C   0  0  1  0  0  0
  -20.5885  -28.3689   23.1279 C   0  0  2  0  0  0
  -20.6778  -26.9412   22.5406 C   0  0  0  0  0  0
  -19.5753  -26.6383   21.5209 C   0  0  0  0  0  0
  -18.1932  -26.7926   22.1621 C   0  0  0  0  0  0
  -19.1538  -28.8852   23.2878 C   0  0  0  0  0  0
  -18.9462  -30.1453   23.8895 C   0  0  0  0  0  0
  -17.6465  -30.6588   24.0561 C   0  0  0  0  0  0
  -25.9050  -34.9459   23.5110 C   0  0  0  0  0  0
  -16.5355  -29.9086   23.6331 C   0  0  0  0  0  0
  -16.7274  -28.6503   23.0350 C   0  0  0  0  0  0
  -26.4498  -31.6594   25.0740 C   0  0  0  0  0  0
  -25.3734  -31.3726   26.1468 C   0  0  0  0  0  0
  -27.0341  -30.3019   24.6186 C   0  0  0  0  0  0
  -27.6059  -32.4326   25.7512 C   0  0  0  0  0  0
  -27.5580  -37.1805   24.8464 C   0  0  0  0  0  0
  -21.4185  -29.3047   22.3679 N   0  0  0  0  0  0
  -26.4295  -37.3781   23.9406 N   0  0  0  0  0  0
  -24.6864  -31.0648   22.1016 N   0  0  0  0  0  0
  -23.4200  -28.8164   23.3004 O   0  0  0  0  0  0
  -28.3026  -26.4464   20.1875 O   0  0  0  0  0  0
  -26.5611  -34.8919   22.4672 O   0  0  0  0  0  0
  -23.5420  -32.1420   23.7399 O   0  0  0  0  0  0
  -29.2715  -20.5352   19.5581 C   0  0  0  0  0  0
  -29.7680  -19.1988   19.5606 C   0  0  0  0  0  0
  -29.9255  -18.4617   20.7714 C   0  0  0  0  0  0
  -29.5201  -19.1205   21.9703 C   0  0  0  0  0  0
  -28.8948  -21.2135   20.7410 C   0  0  0  0  0  0
  -29.0315  -20.4700   21.9565 C   0  0  0  0  0  0
  -30.1459  -18.5799   18.2243 C   0  0  0  0  0  0
  -29.6324  -18.3908   23.3062 C   0  0  0  0  0  0
  -29.4068  -24.1882   22.0630 C   0  0  0  0  0  0
  -26.8388  -22.3940   21.1009 C   0  0  0  0  0  0
  -30.7096  -17.0970   20.7999 C   0  0  0  0  0  0
  -27.9619  -25.0067   20.1125 C   0  0  0  0  0  0
  -28.8983  -23.8362   20.6590 C   0  0  2  0  0  0
  -30.0333  -15.7570   20.7999 N   0  0  0  0  0  0
  -28.2290  -22.4869   20.6470 N   0  0  0  0  0  0
  -28.5960  -21.2107   23.4657 Cl  0  0  0  0  0  0
  -31.4599  -12.4569   19.1545 H   0  0  0  0  0  0
  -30.3157  -11.3897   19.9156 H   0  0  0  0  0  0
  -29.7567  -11.7371   17.4825 H   0  0  0  0  0  0
  -29.6486  -13.4616   17.7391 H   0  0  0  0  0  0
  -27.8570  -11.2930   18.8790 H   0  0  0  0  0  0
  -27.3671  -12.5664   17.7943 H   0  0  0  0  0  0
  -27.6563  -14.2584   19.4990 H   0  0  0  0  0  0
  -28.6953  -12.1245   21.4250 H   0  0  0  0  0  0
  -28.4522  -13.8112   21.8029 H   0  0  0  0  0  0
  -25.2766   -9.5688   22.4759 H   0  0  0  0  0  0
  -24.0005   -7.4638   22.7473 H   0  0  0  0  0  0
  -21.0846   -8.8777   19.8951 H   0  0  0  0  0  0
  -22.3701  -10.9677   19.6164 H   0  0  0  0  0  0
  -21.2009   -7.6149   23.9715 H   0  0  0  0  0  0
  -21.1482   -6.0523   25.9077 H   0  0  0  0  0  0
  -22.0598   -2.7609   23.2846 H   0  0  0  0  0  0
  -22.4100  -11.9878   22.4803 H   0  0  0  0  0  0
  -21.1095  -13.1233   22.2624 H   0  0  0  0  0  0
  -24.6548  -15.8467   20.5215 H   0  0  0  0  0  0
  -26.2723  -15.6332   20.0839 H   0  0  0  0  0  0
  -26.7177  -32.5465   23.1125 H   0  0  0  0  0  0
  -25.0096  -33.9744   25.0454 H   0  0  0  0  0  0
  -22.7108  -31.3114   21.4123 H   0  0  0  0  0  0
  -23.3752  -35.9634   23.3307 H   0  0  0  0  0  0
  -24.3583  -36.8911   22.2051 H   0  0  0  0  0  0
  -23.7247  -37.6505   23.6654 H   0  0  0  0  0  0
  -26.0937  -31.5628   20.6145 H   0  0  0  0  0  0
  -26.8399  -30.8392   22.0087 H   0  0  0  0  0  0
  -28.1050  -28.9744   21.2101 H   0  0  0  0  0  0
  -25.9471  -25.9825   18.9403 H   0  0  0  0  0  0
  -23.9631  -27.3494   18.9791 H   0  0  0  0  0  0
  -23.7491  -30.6172   19.4103 H   0  0  0  0  0  0
  -22.7501  -29.2667   19.8559 H   0  0  0  0  0  0
  -25.1292  -36.1952   25.0822 H   0  0  0  0  0  0
  -20.9975  -28.3267   24.1400 H   0  0  0  0  0  0
  -20.5686  -26.2296   23.3604 H   0  0  0  0  0  0
  -21.6645  -26.7449   22.1193 H   0  0  0  0  0  0
  -19.6919  -25.6293   21.1241 H   0  0  0  0  0  0
  -19.6695  -27.3192   20.6738 H   0  0  0  0  0  0
  -17.4200  -26.6669   21.4026 H   0  0  0  0  0  0
  -18.0335  -26.0071   22.9019 H   0  0  0  0  0  0
  -19.7941  -30.7262   24.2266 H   0  0  0  0  0  0
  -17.5025  -31.6270   24.5160 H   0  0  0  0  0  0
  -15.5357  -30.2989   23.7660 H   0  0  0  0  0  0
  -15.8671  -28.0826   22.7065 H   0  0  0  0  0  0
  -24.5915  -30.7066   25.7800 H   0  0  0  0  0  0
  -24.8918  -32.2890   26.4889 H   0  0  0  0  0  0
  -25.8063  -30.8913   27.0246 H   0  0  0  0  0  0
  -26.2915  -29.6772   24.1208 H   0  0  0  0  0  0
  -27.4039  -29.7270   25.4686 H   0  0  0  0  0  0
  -27.8786  -30.4306   23.9412 H   0  0  0  0  0  0
  -27.2668  -33.3625   26.2090 H   0  0  0  0  0  0
  -28.3870  -32.6887   25.0341 H   0  0  0  0  0  0
  -28.0724  -31.8451   26.5429 H   0  0  0  0  0  0
  -28.2597  -38.0104   24.7507 H   0  0  0  0  0  0
  -28.1076  -36.2631   24.6297 H   0  0  0  0  0  0
  -27.2295  -37.1462   25.8868 H   0  0  0  0  0  0
  -20.9356  -29.8792   21.6913 H   0  0  0  0  0  0
  -26.0181  -38.2858   24.1407 H   0  0  0  0  0  0
  -29.1490  -21.0478   18.6145 H   0  0  0  0  0  0
  -29.6970  -19.1234   17.3924 H   0  0  0  0  0  0
  -29.8024  -17.5469   18.1597 H   0  0  0  0  0  0
  -31.2275  -18.5948   18.0867 H   0  0  0  0  0  0
  -29.6639  -17.3086   23.1932 H   0  0  0  0  0  0
  -28.7720  -18.5927   23.9436 H   0  0  0  0  0  0
  -30.5313  -18.7063   23.8360 H   0  0  0  0  0  0
  -29.9132  -25.1540   22.0581 H   0  0  0  0  0  0
  -30.1252  -23.4520   22.4231 H   0  0  0  0  0  0
  -28.5923  -24.2511   22.7848 H   0  0  0  0  0  0
  -26.5156  -21.3636   21.2610 H   0  0  0  0  0  0
  -26.1651  -22.8192   20.3560 H   0  0  0  0  0  0
  -26.6937  -22.9349   22.0371 H   0  0  0  0  0  0
  -31.3705  -17.1152   21.6674 H   0  0  0  0  0  0
  -31.4129  -17.1206   19.9671 H   0  0  0  0  0  0
  -27.0267  -24.9077   20.6630 H   0  0  0  0  0  0
  -27.7431  -24.7712   19.0701 H   0  0  0  0  0  0
  -29.7659  -23.7741   20.0001 H   0  0  0  0  0  0
  -29.0527  -15.7087   21.0296 H   0  0  0  0  0  0
  1 25  1  0  0  0
  1 30  2  0  0  0
  1 84  1  0  0  0
  2  3  1  0  0  0
  2 25  1  0  0  0
  2 87  1  0  0  0
  2 88  1  0  0  0
  3  4  1  0  0  0
  3 89  1  0  0  0
  3 90  1  0  0  0
  4  5  1  0  0  0
  4 91  1  0  0  0
  4 92  1  0  0  0
  5  6  1  0  0  0
  5 26  1  0  0  0
  5 93  1  0  0  0
  6 25  1  0  0  0
  6 94  1  0  0  0
  6 95  1  0  0  0
  7  8  2  0  0  0
  7 26  1  0  0  0
  7 29  1  0  0  0
  8  9  1  0  0  0
  8 22  1  0  0  0
  9 10  1  0  0  0
  9 27  2  0  0  0
 10 11  2  0  0  0
 10 15  1  0  0  0
 11 12  1  0  0  0
 11 96  1  0  0  0
 12 13  2  0  0  0
 12 97  1  0  0  0
 13 14  1  0  0  0
 13 31  1  0  0  0
 14 15  2  0  0  0
 14 98  1  0  0  0
 15 99  1  0  0  0
 16 17  2  0  0  0
 16 21  1  0  0  0
 16 31  1  0  0  0
 17 18  1  0  0  0
 17100  1  0  0  0
 18 19  2  0  0  0
 18101  1  0  0  0
 19 20  1  0  0  0
 19 24  1  0  0  0
 20 21  2  0  0  0
 20102  1  0  0  0
 21 23  1  0  0  0
 22 28  1  0  0  0
 22 32  2  0  0  0
 26 27  1  0  0  0
 28103  1  0  0  0
 28104  1  0  0  0
 29105  1  0  0  0
 29106  1  0  0  0
 33 34  1  0  0  0
 33 66  1  0  0  0
 33 70  2  0  0  0
 34 36  1  0  0  0
 34 59  1  0  0  0
 34107  1  0  0  0
 35 44  2  0  0  0
 35 45  1  0  0  0
 35 68  1  0  0  0
 36 56  1  0  0  0
 36108  1  0  0  0
 37 39  1  0  0  0
 37 47  1  0  0  0
 37 66  1  0  0  0
 37109  1  0  0  0
 38 43  2  0  0  0
 38 46  1  0  0  0
 38 47  1  0  0  0
 39 64  1  0  0  0
 39 67  2  0  0  0
 40 52  1  0  0  0
 40 53  2  0  0  0
 40 58  1  0  0  0
 41110  1  0  0  0
 41111  1  0  0  0
 41112  1  0  0  0
 41 48  1  0  0  0
 42 43  1  0  0  0
 42 66  1  0  0  0
 42113  1  0  0  0
 42114  1  0  0  0
 43 44  1  0  0  0
 44115  1  0  0  0
 45 46  2  0  0  0
 45116  1  0  0  0
 46117  1  0  0  0
 47118  1  0  0  0
 47119  1  0  0  0
 48 56  1  0  0  0
 48 65  1  0  0  0
 48120  1  0  0  0
 49 50  1  0  0  0
 49 53  1  0  0  0
 49 64  1  0  0  0
 49121  1  0  0  0
 50 51  1  0  0  0
 50122  1  0  0  0
 50123  1  0  0  0
 51 52  1  0  0  0
 51124  1  0  0  0
 51125  1  0  0  0
 52126  1  0  0  0
 52127  1  0  0  0
 53 54  1  0  0  0
 54 55  2  0  0  0
 54128  1  0  0  0
 55 57  1  0  0  0
 55129  1  0  0  0
 56 69  2  0  0  0
 57 58  2  0  0  0
 57130  1  0  0  0
 58131  1  0  0  0
 59 60  1  0  0  0
 59 61  1  0  0  0
 59 62  1  0  0  0
 60132  1  0  0  0
 60133  1  0  0  0
 60134  1  0  0  0
 61135  1  0  0  0
 61136  1  0  0  0
 61137  1  0  0  0
 62138  1  0  0  0
 62139  1  0  0  0
 62140  1  0  0  0
 63 65  1  0  0  0
 63141  1  0  0  0
 63142  1  0  0  0
 63143  1  0  0  0
 64144  1  0  0  0
 65145  1  0  0  0
 68 82  1  0  0  0
 71 72  2  0  0  0
 71 75  1  0  0  0
 71146  1  0  0  0
 72 73  1  0  0  0
 72 77  1  0  0  0
 73 74  2  0  0  0
 73 81  1  0  0  0
 74 76  1  0  0  0
 74 78  1  0  0  0
 75 76  2  0  0  0
 75 85  1  0  0  0
 76 86  1  0  0  0
 77147  1  0  0  0
 77148  1  0  0  0
 77149  1  0  0  0
 78150  1  0  0  0
 78151  1  0  0  0
 78152  1  0  0  0
 79153  1  0  0  0
 79154  1  0  0  0
 79155  1  0  0  0
 79 83  1  0  0  0
 80 85  1  0  0  0
 80156  1  0  0  0
 80157  1  0  0  0
 80158  1  0  0  0
 81 84  1  0  0  0
 81159  1  0  0  0
 81160  1  0  0  0
 82 83  1  0  0  0
 82161  1  0  0  0
 82162  1  0  0  0
 83 85  1  0  0  0
 83163  1  0  0  0
 84164  1  0  0  0
M  ISO  4   1 100  68 101  82 101  84 100
M  END
> <chiral flag>
0

> <version>
0

> <s_m_source_file>
/data/baiqing/PycharmProjects/Reinvent-master-3.2/result/LINK_invent/BTK/process_docking_weight1_custom_sum_contain_oxygen_bond_distance_aromatic_linkinvent_7_9_3/rearranged_h_0018.sdf

> <i_m_source_file_index>
43

> <r_mmod_Potential_Energy-OPLS-2005>
114.563186645508

> <r_mmod_Stretch_Energy-OPLS-2005>
79.693229675293

> <r_mmod_Bend_Energy-OPLS-2005>
147.694686889648

> <r_mmod_Torsional_Energy-OPLS-2005>
245.888214111328

> <r_mmod_Improper_Torsional_Energy-OPLS-2005>
7.46277189254761

> <r_mmod_Van_der_Waal_Energy-OPLS-2005>
165.81999206543

> <r_mmod_Electrostatic_Energy-OPLS-2005>
-376.268890380859

> <r_mmod_Solvation_Energy-OPLS-2005>
-204.366729736328

> <b_mmod_Minimization_Converged-OPLS-2005>
0

> <r_mmod_RMS_Derivative-OPLS-2005>
0.370231777429581

$$$$
44
                    3D
 Structure written by MMmdl.
168175  0  0  1  0            999 V2000
  -30.6851  -14.5343   20.4617 C   0  0  0  0  0  0
  -30.4188  -12.3157   19.4351 C   0  0  0  0  0  0
  -29.4983  -12.4616   18.2074 C   0  0  0  0  0  0
  -28.0192  -12.3348   18.6243 C   0  0  0  0  0  0
  -27.6526  -13.2103   19.8550 C   0  0  2  0  0  0
  -28.7003  -13.0749   20.9821 C   0  0  0  0  0  0
  -25.2585  -13.8160   20.5702 C   0  0  0  0  0  0
  -24.1848  -13.0429   20.9224 C   0  0  0  0  0  0
  -24.6399  -11.6902   20.8749 C   0  0  0  0  0  0
  -23.9072  -10.4290   21.0401 C   0  0  0  0  0  0
  -24.3621   -9.4211   21.9188 C   0  0  0  0  0  0
  -23.6308   -8.2239   22.0757 C   0  0  0  0  0  0
  -22.4289   -8.0277   21.3546 C   0  0  0  0  0  0
  -21.9920   -9.0252   20.4647 C   0  0  0  0  0  0
  -22.7239  -10.2134   20.3063 C   0  0  0  0  0  0
  -21.6858   -6.0743   22.5293 C   0  0  0  0  0  0
  -21.4010   -6.5647   23.8230 C   0  0  0  0  0  0
  -21.3666   -5.6790   24.9185 C   0  0  0  0  0  0
  -21.6043   -4.3057   24.7224 C   0  0  0  0  0  0
  -21.8825   -3.8158   23.4346 C   0  0  0  0  0  0
  -21.9205   -4.6975   22.3406 C   0  0  0  0  0  0
  -22.7870  -13.5233   21.1868 C   0  0  0  0  0  0
  -22.1662   -4.2169   21.0975 F   0  0  0  0  0  0
  -21.5638   -3.4537   25.7734 F   0  0  0  0  0  0
  -30.0153  -13.3520   20.3969 N   0  0  0  0  0  0
  -26.3003  -12.9332   20.3310 N   0  0  0  0  0  0
  -25.9329  -11.6492   20.5767 N   0  0  0  0  0  0
  -22.0490  -12.8238   22.0405 N   0  0  0  0  0  0
  -25.4278  -15.1878   20.4102 N   0  0  0  0  0  0
  -31.8851  -14.6237   20.2141 O   0  0  0  0  0  0
  -21.6650   -6.8874   21.4250 O   0  0  0  0  0  0
  -22.3563  -14.5536   20.6696 O   0  0  0  0  0  0
  -24.6197  -31.8662   23.2097 C   0  0  0  0  0  0
  -25.9079  -32.4807   23.8405 C   0  0  1  0  0  0
  -27.2080  -27.3778   20.0913 C   0  0  0  0  0  0
  -25.5936  -33.8613   24.2327 N   0  0  0  0  0  0
  -23.4082  -30.4957   21.5511 C   0  0  2  0  0  0
  -24.8470  -28.9636   20.1084 C   0  0  0  0  0  0
  -22.7430  -29.4665   22.4946 C   0  0  0  0  0  0
  -18.0280  -28.1384   22.8478 C   0  0  0  0  0  0
  -24.1491  -36.7307   23.2639 C   0  0  0  0  0  0
  -25.9466  -30.8118   21.3743 C   0  0  0  0  0  0
  -26.0145  -29.4462   20.7123 C   0  0  0  0  0  0
  -27.1985  -28.6611   20.7029 C   0  0  0  0  0  0
  -26.0233  -26.9453   19.4500 C   0  0  0  0  0  0
  -24.8494  -27.7151   19.4725 C   0  0  0  0  0  0
  -23.6158  -29.8404   20.1631 C   0  0  0  0  0  0
  -25.4114  -36.3105   24.0334 C   0  0  1  0  0  0
  -20.5874  -28.3679   23.1290 C   0  0  2  0  0  0
  -20.6772  -26.9408   22.5402 C   0  0  0  0  0  0
  -19.5751  -26.6384   21.5206 C   0  0  0  0  0  0
  -18.1931  -26.7929   22.1613 C   0  0  0  0  0  0
  -19.1532  -28.8845   23.2889 C   0  0  0  0  0  0
  -18.9456  -30.1445   23.8907 C   0  0  0  0  0  0
  -17.6460  -30.6588   24.0556 C   0  0  0  0  0  0
  -25.9044  -34.9470   23.5128 C   0  0  0  0  0  0
  -16.5350  -29.9083   23.6327 C   0  0  0  0  0  0
  -16.7268  -28.6500   23.0350 C   0  0  0  0  0  0
  -26.4488  -31.6597   25.0749 C   0  0  0  0  0  0
  -25.3739  -31.3703   26.1482 C   0  0  0  0  0  0
  -27.0327  -30.3038   24.6161 C   0  0  0  0  0  0
  -27.6064  -32.4322   25.7511 C   0  0  0  0  0  0
  -27.5578  -37.1809   24.8460 C   0  0  0  0  0  0
  -21.4150  -29.3052   22.3685 N   0  0  0  0  0  0
  -26.4289  -37.3791   23.9405 N   0  0  0  0  0  0
  -24.6767  -31.0729   22.1019 N   0  0  0  0  0  0
  -23.4184  -28.8186   23.2991 O   0  0  0  0  0  0
  -28.3369  -26.5645   20.1420 O   0  0  0  0  0  0
  -26.5599  -34.8917   22.4678 O   0  0  0  0  0  0
  -23.5381  -32.1431   23.7467 O   0  0  0  0  0  0
  -28.9844  -22.6714   20.3729 C   0  0  0  0  0  0
  -31.2298  -20.8310   20.9451 C   0  0  0  0  0  0
  -27.4101  -20.7350   23.1711 C   0  0  0  0  0  0
  -29.0240  -22.5596   23.8183 C   0  0  0  0  0  0
  -26.9522  -23.0373   22.4852 C   0  0  0  0  0  0
  -29.1949  -24.2064   20.5853 C   0  0  0  0  0  0
  -30.0113  -17.9625   21.0357 C   0  0  0  0  0  0
  -29.1734  -19.2649   20.8015 C   0  0  0  0  0  0
  -29.2594  -16.5914   20.9631 C   0  0  0  0  0  0
  -28.1379  -25.1348   19.9196 C   0  0  0  0  0  0
  -29.7923  -20.5564   21.4494 C   0  0  2  0  0  0
  -28.1169  -22.0296   22.6850 C   0  0  0  0  0  0
  -29.9457  -15.6066   20.1124 N   0  0  0  0  0  0
  -28.9296  -21.7979   21.4344 N   0  0  0  0  0  0
  -29.0447  -22.2539   19.2116 O   0  0  0  0  0  0
  -31.4642  -12.4077   19.1354 H   0  0  0  0  0  0
  -30.3142  -11.3245   19.8776 H   0  0  0  0  0  0
  -29.7407  -11.6980   17.4669 H   0  0  0  0  0  0
  -29.6690  -13.4246   17.7228 H   0  0  0  0  0  0
  -27.8384  -11.2838   18.8532 H   0  0  0  0  0  0
  -27.3708  -12.5791   17.7816 H   0  0  0  0  0  0
  -27.6671  -14.2438   19.5105 H   0  0  0  0  0  0
  -28.6861  -12.0721   21.4129 H   0  0  0  0  0  0
  -28.4849  -13.7708   21.7941 H   0  0  0  0  0  0
  -25.2756   -9.5718   22.4769 H   0  0  0  0  0  0
  -24.0048   -7.4632   22.7470 H   0  0  0  0  0  0
  -21.0863   -8.8754   19.8940 H   0  0  0  0  0  0
  -22.3684  -10.9677   19.6187 H   0  0  0  0  0  0
  -21.1973   -7.6151   23.9738 H   0  0  0  0  0  0
  -21.1485   -6.0512   25.9088 H   0  0  0  0  0  0
  -22.0596   -2.7625   23.2840 H   0  0  0  0  0  0
  -22.4081  -11.9918   22.4852 H   0  0  0  0  0  0
  -21.1092  -13.1276   22.2521 H   0  0  0  0  0  0
  -24.6610  -15.8425   20.5219 H   0  0  0  0  0  0
  -26.2834  -15.6251   20.0912 H   0  0  0  0  0  0
  -26.7140  -32.5473   23.1148 H   0  0  0  0  0  0
  -25.0087  -33.9785   25.0482 H   0  0  0  0  0  0
  -22.6992  -31.3156   21.4170 H   0  0  0  0  0  0
  -23.3753  -35.9639   23.3309 H   0  0  0  0  0  0
  -24.3581  -36.8915   22.2052 H   0  0  0  0  0  0
  -23.7250  -37.6518   23.6646 H   0  0  0  0  0  0
  -26.0750  -31.5804   20.6102 H   0  0  0  0  0  0
  -26.8302  -30.8543   21.9999 H   0  0  0  0  0  0
  -28.0939  -29.0240   21.1875 H   0  0  0  0  0  0
  -25.9719  -26.0044   18.9239 H   0  0  0  0  0  0
  -23.9556  -27.3444   18.9901 H   0  0  0  0  0  0
  -23.7284  -30.6226   19.4108 H   0  0  0  0  0  0
  -22.7354  -29.2704   19.8594 H   0  0  0  0  0  0
  -25.1292  -36.1963   25.0826 H   0  0  0  0  0  0
  -20.9972  -28.3252   24.1409 H   0  0  0  0  0  0
  -20.5683  -26.2289   23.3597 H   0  0  0  0  0  0
  -21.6641  -26.7449   22.1187 H   0  0  0  0  0  0
  -19.6913  -25.6299   21.1232 H   0  0  0  0  0  0
  -19.6698  -27.3193   20.6740 H   0  0  0  0  0  0
  -17.4197  -26.6671   21.4017 H   0  0  0  0  0  0
  -18.0328  -26.0083   22.9021 H   0  0  0  0  0  0
  -19.7938  -30.7251   24.2287 H   0  0  0  0  0  0
  -17.5021  -31.6273   24.5157 H   0  0  0  0  0  0
  -15.5352  -30.2992   23.7665 H   0  0  0  0  0  0
  -15.8660  -28.0825   22.7072 H   0  0  0  0  0  0
  -24.5918  -30.7050   25.7800 H   0  0  0  0  0  0
  -24.8926  -32.2858   26.4932 H   0  0  0  0  0  0
  -25.8084  -30.8860   27.0237 H   0  0  0  0  0  0
  -26.2889  -29.6797   24.1194 H   0  0  0  0  0  0
  -27.4061  -29.7277   25.4637 H   0  0  0  0  0  0
  -27.8740  -30.4352   23.9353 H   0  0  0  0  0  0
  -27.2692  -33.3613   26.2113 H   0  0  0  0  0  0
  -28.3861  -32.6894   25.0330 H   0  0  0  0  0  0
  -28.0744  -31.8429   26.5400 H   0  0  0  0  0  0
  -28.2596  -38.0105   24.7508 H   0  0  0  0  0  0
  -28.1077  -36.2639   24.6291 H   0  0  0  0  0  0
  -27.2290  -37.1461   25.8861 H   0  0  0  0  0  0
  -20.9298  -29.8804   21.6938 H   0  0  0  0  0  0
  -26.0179  -38.2862   24.1417 H   0  0  0  0  0  0
  -31.9077  -20.0259   21.2290 H   0  0  0  0  0  0
  -31.6346  -21.7441   21.3844 H   0  0  0  0  0  0
  -31.2791  -20.9296   19.8611 H   0  0  0  0  0  0
  -26.8411  -20.9187   24.0836 H   0  0  0  0  0  0
  -28.0873  -19.9216   23.4240 H   0  0  0  0  0  0
  -26.7004  -20.3644   22.4311 H   0  0  0  0  0  0
  -28.4645  -22.6722   24.7484 H   0  0  0  0  0  0
  -29.4537  -23.5340   23.5944 H   0  0  0  0  0  0
  -29.8571  -21.8904   24.0320 H   0  0  0  0  0  0
  -26.2390  -22.9935   23.3096 H   0  0  0  0  0  0
  -26.3846  -22.8306   21.5757 H   0  0  0  0  0  0
  -27.2824  -24.0733   22.4621 H   0  0  0  0  0  0
  -30.1688  -24.4456   20.1594 H   0  0  0  0  0  0
  -29.2895  -24.4479   21.6382 H   0  0  0  0  0  0
  -30.4731  -18.0161   22.0220 H   0  0  0  0  0  0
  -30.8474  -17.9701   20.3358 H   0  0  0  0  0  0
  -28.1717  -19.1011   21.1933 H   0  0  0  0  0  0
  -29.0371  -19.4180   19.7300 H   0  0  0  0  0  0
  -28.2631  -16.7365   20.5447 H   0  0  0  0  0  0
  -29.1123  -16.1868   21.9662 H   0  0  0  0  0  0
  -27.1679  -24.8198   20.3035 H   0  0  0  0  0  0
  -28.1161  -24.9520   18.8437 H   0  0  0  0  0  0
  -29.9609  -20.3038   22.4926 H   0  0  0  0  0  0
  -30.4024  -16.0801   19.3467 H   0  0  0  0  0  0
  1 25  1  0  0  0
  1 30  2  0  0  0
  1 83  1  0  0  0
  2  3  1  0  0  0
  2 25  1  0  0  0
  2 86  1  0  0  0
  2 87  1  0  0  0
  3  4  1  0  0  0
  3 88  1  0  0  0
  3 89  1  0  0  0
  4  5  1  0  0  0
  4 90  1  0  0  0
  4 91  1  0  0  0
  5  6  1  0  0  0
  5 26  1  0  0  0
  5 92  1  0  0  0
  6 25  1  0  0  0
  6 93  1  0  0  0
  6 94  1  0  0  0
  7  8  2  0  0  0
  7 26  1  0  0  0
  7 29  1  0  0  0
  8  9  1  0  0  0
  8 22  1  0  0  0
  9 10  1  0  0  0
  9 27  2  0  0  0
 10 11  2  0  0  0
 10 15  1  0  0  0
 11 12  1  0  0  0
 11 95  1  0  0  0
 12 13  2  0  0  0
 12 96  1  0  0  0
 13 14  1  0  0  0
 13 31  1  0  0  0
 14 15  2  0  0  0
 14 97  1  0  0  0
 15 98  1  0  0  0
 16 17  2  0  0  0
 16 21  1  0  0  0
 16 31  1  0  0  0
 17 18  1  0  0  0
 17 99  1  0  0  0
 18 19  2  0  0  0
 18100  1  0  0  0
 19 20  1  0  0  0
 19 24  1  0  0  0
 20 21  2  0  0  0
 20101  1  0  0  0
 21 23  1  0  0  0
 22 28  1  0  0  0
 22 32  2  0  0  0
 26 27  1  0  0  0
 28102  1  0  0  0
 28103  1  0  0  0
 29104  1  0  0  0
 29105  1  0  0  0
 33 34  1  0  0  0
 33 66  1  0  0  0
 33 70  2  0  0  0
 34 36  1  0  0  0
 34 59  1  0  0  0
 34106  1  0  0  0
 35 44  2  0  0  0
 35 45  1  0  0  0
 35 68  1  0  0  0
 36 56  1  0  0  0
 36107  1  0  0  0
 37 39  1  0  0  0
 37 47  1  0  0  0
 37 66  1  0  0  0
 37108  1  0  0  0
 38 43  2  0  0  0
 38 46  1  0  0  0
 38 47  1  0  0  0
 39 64  1  0  0  0
 39 67  2  0  0  0
 40 52  1  0  0  0
 40 53  2  0  0  0
 40 58  1  0  0  0
 41109  1  0  0  0
 41110  1  0  0  0
 41111  1  0  0  0
 41 48  1  0  0  0
 42 43  1  0  0  0
 42 66  1  0  0  0
 42112  1  0  0  0
 42113  1  0  0  0
 43 44  1  0  0  0
 44114  1  0  0  0
 45 46  2  0  0  0
 45115  1  0  0  0
 46116  1  0  0  0
 47117  1  0  0  0
 47118  1  0  0  0
 48 56  1  0  0  0
 48 65  1  0  0  0
 48119  1  0  0  0
 49 50  1  0  0  0
 49 53  1  0  0  0
 49 64  1  0  0  0
 49120  1  0  0  0
 50 51  1  0  0  0
 50121  1  0  0  0
 50122  1  0  0  0
 51 52  1  0  0  0
 51123  1  0  0  0
 51124  1  0  0  0
 52125  1  0  0  0
 52126  1  0  0  0
 53 54  1  0  0  0
 54 55  2  0  0  0
 54127  1  0  0  0
 55 57  1  0  0  0
 55128  1  0  0  0
 56 69  2  0  0  0
 57 58  2  0  0  0
 57129  1  0  0  0
 58130  1  0  0  0
 59 60  1  0  0  0
 59 61  1  0  0  0
 59 62  1  0  0  0
 60131  1  0  0  0
 60132  1  0  0  0
 60133  1  0  0  0
 61134  1  0  0  0
 61135  1  0  0  0
 61136  1  0  0  0
 62137  1  0  0  0
 62138  1  0  0  0
 62139  1  0  0  0
 63 65  1  0  0  0
 63140  1  0  0  0
 63141  1  0  0  0
 63142  1  0  0  0
 64143  1  0  0  0
 65144  1  0  0  0
 68 80  1  0  0  0
 71 76  1  0  0  0
 71 84  1  0  0  0
 71 85  2  0  0  0
 72145  1  0  0  0
 72146  1  0  0  0
 72147  1  0  0  0
 72 81  1  0  0  0
 73148  1  0  0  0
 73149  1  0  0  0
 73150  1  0  0  0
 73 82  1  0  0  0
 74 82  1  0  0  0
 74151  1  0  0  0
 74152  1  0  0  0
 74153  1  0  0  0
 75 82  1  0  0  0
 75154  1  0  0  0
 75155  1  0  0  0
 75156  1  0  0  0
 76 80  1  0  0  0
 76157  1  0  0  0
 76158  1  0  0  0
 77 78  1  0  0  0
 77 79  1  0  0  0
 77159  1  0  0  0
 77160  1  0  0  0
 78 81  1  0  0  0
 78161  1  0  0  0
 78162  1  0  0  0
 79 83  1  0  0  0
 79163  1  0  0  0
 79164  1  0  0  0
 80165  1  0  0  0
 80166  1  0  0  0
 81 84  1  0  0  0
 81167  1  0  0  0
 82 84  1  0  0  0
 83168  1  0  0  0
M  ISO  4   1 100  68 101  80 101  83 100
M  END
> <chiral flag>
0

> <version>
0

> <s_m_source_file>
/data/baiqing/PycharmProjects/Reinvent-master-3.2/result/LINK_invent/BTK/process_docking_weight1_custom_sum_contain_oxygen_bond_distance_aromatic_linkinvent_7_9_3/rearranged_h_0018.sdf

> <i_m_source_file_index>
44

> <r_mmod_Potential_Energy-OPLS-2005>
226.327484130859

> <r_mmod_Stretch_Energy-OPLS-2005>
60.4896507263184

> <r_mmod_Bend_Energy-OPLS-2005>
135.591491699219

> <r_mmod_Torsional_Energy-OPLS-2005>
370.330444335938

> <r_mmod_Improper_Torsional_Energy-OPLS-2005>
31.2418956756592

> <r_mmod_Van_der_Waal_Energy-OPLS-2005>
147.895767211914

> <r_mmod_Electrostatic_Energy-OPLS-2005>
-348.850524902344

> <r_mmod_Solvation_Energy-OPLS-2005>
-203.899383544922

> <b_mmod_Minimization_Converged-OPLS-2005>
0

> <r_mmod_RMS_Derivative-OPLS-2005>
2.33840107917786

$$$$
45
                    3D
 Structure written by MMmdl.
156164  0  0  1  0            999 V2000
  -30.1590  -14.8624   20.5044 C   0  0  0  0  0  0
  -30.4389  -12.5896   19.4082 C   0  0  0  0  0  0
  -29.4749  -12.5305   18.1722 C   0  0  0  0  0  0
  -27.9487  -12.4590   18.5316 C   0  0  0  0  0  0
  -27.6614  -13.4259   19.7162 C   0  0  2  0  0  0
  -28.6167  -12.9072   20.7997 C   0  0  0  0  0  0
  -25.5418  -14.8968   20.7296 C   0  0  0  0  0  0
  -24.4103  -13.7418   20.7781 C   0  0  0  0  0  0
  -24.7169  -12.2547   20.7969 C   0  0  0  0  0  0
  -23.9882  -10.8134   20.9828 C   0  0  0  0  0  0
  -24.4209   -9.7446   21.8609 C   0  0  0  0  0  0
  -23.7271   -8.4893   22.0454 C   0  0  0  0  0  0
  -22.5252   -8.1974   21.3522 C   0  0  0  0  0  0
  -22.0977   -9.1979   20.4513 C   0  0  0  0  0  0
  -22.7999  -10.4339   20.2736 C   0  0  0  0  0  0
  -21.7593   -6.1545   22.5149 C   0  0  0  0  0  0
  -21.4514   -6.6166   23.8148 C   0  0  0  0  0  0
  -21.3884   -5.7161   24.9017 C   0  0  0  0  0  0
  -21.6084   -4.3402   24.6991 C   0  0  0  0  0  0
  -21.8719   -3.8628   23.4043 C   0  0  0  0  0  0
  -21.9396   -4.7617   22.3191 C   0  0  0  0  0  0
  -22.8801  -13.8325   20.9572 C   0  0  0  0  0  0
  -22.1729   -4.2695   21.0788 F   0  0  0  0  0  0
  -21.5540   -3.4779   25.7445 F   0  0  0  0  0  0
  -29.8520  -13.5159   20.4172 N   0  0  0  0  0  0
  -26.3216  -13.6228   20.2429 N   0  0  0  0  0  0
  -25.9400  -12.2839   20.4730 N   0  0  0  0  0  0
  -22.2143  -13.0256   21.8013 N   0  0  0  0  0  0
  -26.1082  -16.8958   22.3048 N   0  0  0  0  0  0
  -31.3559  -15.1200   20.2655 O   0  0  0  0  0  0
  -21.7891   -7.0086   21.4203 O   0  0  0  0  0  0
  -22.2541  -14.6926   20.3639 O   0  0  0  0  0  0
  -24.7421  -31.7168   23.1096 C   0  0  0  0  0  0
  -25.9738  -32.4012   23.7795 C   0  0  1  0  0  0
  -26.7163  -25.8675   20.2789 C   0  0  0  0  0  0
  -25.6069  -33.7896   24.1567 N   0  0  0  0  0  0
  -23.5663  -30.3289   21.4855 C   0  0  2  0  0  0
  -24.9208  -28.5286   20.1048 C   0  0  0  0  0  0
  -22.7906  -29.3947   22.4560 C   0  0  0  0  0  0
  -18.0359  -28.1442   22.8436 C   0  0  0  0  0  0
  -24.1507  -36.6979   23.2672 C   0  0  0  0  0  0
  -26.1500  -30.1484   21.4907 C   0  0  0  0  0  0
  -26.0998  -28.6407   20.8378 C   0  0  0  0  0  0
  -26.9872  -27.3498   20.8766 C   0  0  0  0  0  0
  -25.6360  -26.1907   19.4145 C   0  0  0  0  0  0
  -24.7878  -27.3523   19.3511 C   0  0  0  0  0  0
  -23.8224  -29.6205   20.1208 C   0  0  0  0  0  0
  -25.4172  -36.2631   24.0229 C   0  0  1  0  0  0
  -20.5999  -28.3803   23.1075 C   0  0  2  0  0  0
  -20.6782  -26.9423   22.5420 C   0  0  0  0  0  0
  -19.5765  -26.6346   21.5230 C   0  0  0  0  0  0
  -18.1955  -26.7965   22.1621 C   0  0  0  0  0  0
  -19.1631  -28.8964   23.2723 C   0  0  0  0  0  0
  -18.9533  -30.1547   23.8771 C   0  0  0  0  0  0
  -17.6511  -30.6607   24.0539 C   0  0  0  0  0  0
  -25.9204  -34.9038   23.4780 C   0  0  0  0  0  0
  -16.5402  -29.9072   23.6363 C   0  0  0  0  0  0
  -16.7338  -28.6508   23.0364 C   0  0  0  0  0  0
  -26.4711  -31.6411   25.0715 C   0  0  0  0  0  0
  -25.3574  -31.3935   26.1181 C   0  0  0  0  0  0
  -27.0733  -30.2681   24.7151 C   0  0  0  0  0  0
  -27.6048  -32.4472   25.7504 C   0  0  0  0  0  0
  -27.5545  -37.1635   24.8457 C   0  0  0  0  0  0
  -21.4521  -29.2938   22.3329 N   0  0  0  0  0  0
  -26.4239  -37.3466   23.9410 N   0  0  0  0  0  0
  -24.8602  -30.7889   22.0762 N   0  0  0  0  0  0
  -23.4130  -28.7610   23.3109 O   0  0  0  0  0  0
  -27.2247  -24.1985   20.3123 O   0  0  0  0  0  0
  -26.5934  -34.8760   22.4463 O   0  0  0  0  0  0
  -23.6353  -32.0668   23.5669 O   0  0  0  0  0  0
  -24.0471  -16.0658   22.0954 C   0  0  0  0  0  0
  -25.2022  -14.9848   22.9975 C   0  0  0  0  0  0
  -27.2512  -15.0038   22.2894 C   0  0  0  0  0  0
  -27.6883  -16.1135   20.9142 C   0  0  0  0  0  0
  -24.6580  -17.2845   20.5264 C   0  0  0  0  0  0
  -23.4040  -13.8978   24.5093 C   0  0  0  0  0  0
  -26.9038  -19.7639   20.1126 C   0  0  0  0  0  0
  -26.6366  -22.1373   20.3203 C   0  0  0  0  0  0
  -24.8815  -14.3001   24.3274 C   0  0  2  0  0  0
  -25.3150  -15.2066   25.5091 C   0  0  0  0  0  0
  -26.3992  -17.6822   20.2206 N   0  0  0  0  0  0
  -29.1472  -15.9165   20.5241 N   0  0  0  0  0  0
  -23.8161  -17.8990   19.8670 O   0  0  0  0  0  0
  -25.6002  -13.1780   24.4077 F   0  0  0  0  0  0
  -25.1466  -14.5766   26.6741 F   0  0  0  0  0  0
  -24.5581  -16.3042   25.5249 F   0  0  0  0  0  0
  -26.5882  -15.5866   25.4217 F   0  0  0  0  0  0
  -28.4980  -14.6182   23.4424 Cl  0  0  0  0  0  0
  -31.4281  -12.9210   19.0900 H   0  0  0  0  0  0
  -30.6004  -11.5974   19.8335 H   0  0  0  0  0  0
  -29.7487  -11.6991   17.5224 H   0  0  0  0  0  0
  -29.6372  -13.4314   17.5790 H   0  0  0  0  0  0
  -27.6832  -11.4288   18.7733 H   0  0  0  0  0  0
  -27.3431  -12.7302   17.6666 H   0  0  0  0  0  0
  -27.8943  -14.3618   19.2223 H   0  0  0  0  0  0
  -28.6747  -11.8183   20.7394 H   0  0  0  0  0  0
  -28.3142  -12.9122   21.8224 H   0  0  0  0  0  0
  -25.3228   -9.9127   22.4306 H   0  0  0  0  0  0
  -24.1366   -7.7602   22.7300 H   0  0  0  0  0  0
  -21.2050   -9.0240   19.8678 H   0  0  0  0  0  0
  -22.3934  -11.1377   19.5618 H   0  0  0  0  0  0
  -21.2653   -7.6674   23.9832 H   0  0  0  0  0  0
  -21.1782   -6.0824   25.8959 H   0  0  0  0  0  0
  -22.0190   -2.8071   23.2370 H   0  0  0  0  0  0
  -22.6888  -12.2977   22.3100 H   0  0  0  0  0  0
  -21.2137  -13.1191   21.8981 H   0  0  0  0  0  0
  -25.4145  -17.2713   22.9428 H   0  0  0  0  0  0
  -27.0539  -17.0681   22.6274 H   0  0  0  0  0  0
  -26.7842  -32.4252   23.0502 H   0  0  0  0  0  0
  -24.9973  -33.8798   24.9562 H   0  0  0  0  0  0
  -22.9323  -31.1953   21.2811 H   0  0  0  0  0  0
  -23.3790  -35.9281   23.3176 H   0  0  0  0  0  0
  -24.3569  -36.8844   22.2123 H   0  0  0  0  0  0
  -23.7254  -37.6082   23.6906 H   0  0  0  0  0  0
  -26.4743  -30.8126   20.6902 H   0  0  0  0  0  0
  -26.9786  -30.1729   22.1821 H   0  0  0  0  0  0
  -27.8639  -27.4278   21.5073 H   0  0  0  0  0  0
  -25.3028  -25.3679   18.7960 H   0  0  0  0  0  0
  -23.9298  -27.2801   18.6964 H   0  0  0  0  0  0
  -24.1043  -30.3686   19.3800 H   0  0  0  0  0  0
  -22.8914  -29.1874   19.7529 H   0  0  0  0  0  0
  -25.1407  -36.1284   25.0712 H   0  0  0  0  0  0
  -21.0056  -28.3459   24.1216 H   0  0  0  0  0  0
  -20.5616  -26.2433   23.3718 H   0  0  0  0  0  0
  -21.6637  -26.7291   22.1260 H   0  0  0  0  0  0
  -19.6881  -25.6224   21.1341 H   0  0  0  0  0  0
  -19.6718  -27.3090   20.6712 H   0  0  0  0  0  0
  -17.4225  -26.6754   21.4013 H   0  0  0  0  0  0
  -18.0298  -26.0138   22.9044 H   0  0  0  0  0  0
  -19.8007  -30.7409   24.2066 H   0  0  0  0  0  0
  -17.5051  -31.6270   24.5181 H   0  0  0  0  0  0
  -15.5393  -30.2914   23.7759 H   0  0  0  0  0  0
  -15.8758  -28.0776   22.7115 H   0  0  0  0  0  0
  -24.5811  -30.7261   25.7410 H   0  0  0  0  0  0
  -24.8716  -32.3222   26.4183 H   0  0  0  0  0  0
  -25.7537  -30.9320   27.0232 H   0  0  0  0  0  0
  -26.3446  -29.5990   24.2559 H   0  0  0  0  0  0
  -27.4233  -29.7537   25.6111 H   0  0  0  0  0  0
  -27.9458  -30.3636   24.0687 H   0  0  0  0  0  0
  -27.2526  -33.3949   26.1593 H   0  0  0  0  0  0
  -28.4056  -32.6766   25.0453 H   0  0  0  0  0  0
  -28.0507  -31.8973   26.5801 H   0  0  0  0  0  0
  -28.2442  -38.0036   24.7518 H   0  0  0  0  0  0
  -28.1158  -36.2541   24.6241 H   0  0  0  0  0  0
  -27.2270  -37.1204   25.8861 H   0  0  0  0  0  0
  -20.9923  -29.8564   21.6306 H   0  0  0  0  0  0
  -25.9990  -38.2479   24.1429 H   0  0  0  0  0  0
  -23.0369  -16.1883   22.4538 H   0  0  0  0  0  0
  -22.7191  -14.6294   24.0888 H   0  0  0  0  0  0
  -23.1456  -13.8046   25.5644 H   0  0  0  0  0  0
  -23.2004  -12.9261   24.0705 H   0  0  0  0  0  0
  -27.2252  -19.7440   19.0711 H   0  0  0  0  0  0
  -27.8336  -19.6734   20.6759 H   0  0  0  0  0  0
  -26.3400  -22.1376   21.3715 H   0  0  0  0  0  0
  -25.6934  -22.2507   19.7857 H   0  0  0  0  0  0
  -29.5722  -16.7912   20.2510 H   0  0  0  0  0  0
  1 25  1  0  0  0
  1 30  2  0  0  0
  1 82  1  0  0  0
  2  3  1  0  0  0
  2 25  1  0  0  0
  2 89  1  0  0  0
  2 90  1  0  0  0
  3  4  1  0  0  0
  3 91  1  0  0  0
  3 92  1  0  0  0
  4  5  1  0  0  0
  4 93  1  0  0  0
  4 94  1  0  0  0
  5  6  1  0  0  0
  5 26  1  0  0  0
  5 95  1  0  0  0
  6 25  1  0  0  0
  6 96  1  0  0  0
  6 97  1  0  0  0
  7  8  2  0  0  0
  7 26  1  0  0  0
  7 29  1  0  0  0
  8  9  1  0  0  0
  8 22  1  0  0  0
  9 10  1  0  0  0
  9 27  2  0  0  0
 10 11  2  0  0  0
 10 15  1  0  0  0
 11 12  1  0  0  0
 11 98  1  0  0  0
 12 13  2  0  0  0
 12 99  1  0  0  0
 13 14  1  0  0  0
 13 31  1  0  0  0
 14 15  2  0  0  0
 14100  1  0  0  0
 15101  1  0  0  0
 16 17  2  0  0  0
 16 21  1  0  0  0
 16 31  1  0  0  0
 17 18  1  0  0  0
 17102  1  0  0  0
 18 19  2  0  0  0
 18103  1  0  0  0
 19 20  1  0  0  0
 19 24  1  0  0  0
 20 21  2  0  0  0
 20104  1  0  0  0
 21 23  1  0  0  0
 22 28  1  0  0  0
 22 32  2  0  0  0
 26 27  1  0  0  0
 28105  1  0  0  0
 28106  1  0  0  0
 29107  1  0  0  0
 29108  1  0  0  0
 33 34  1  0  0  0
 33 66  1  0  0  0
 33 70  2  0  0  0
 34 36  1  0  0  0
 34 59  1  0  0  0
 34109  1  0  0  0
 35 44  2  0  0  0
 35 45  1  0  0  0
 35 68  1  0  0  0
 36 56  1  0  0  0
 36110  1  0  0  0
 37 39  1  0  0  0
 37 47  1  0  0  0
 37 66  1  0  0  0
 37111  1  0  0  0
 38 43  2  0  0  0
 38 46  1  0  0  0
 38 47  1  0  0  0
 39 64  1  0  0  0
 39 67  2  0  0  0
 40 52  1  0  0  0
 40 53  2  0  0  0
 40 58  1  0  0  0
 41112  1  0  0  0
 41113  1  0  0  0
 41114  1  0  0  0
 41 48  1  0  0  0
 42 43  1  0  0  0
 42 66  1  0  0  0
 42115  1  0  0  0
 42116  1  0  0  0
 43 44  1  0  0  0
 44117  1  0  0  0
 45 46  2  0  0  0
 45118  1  0  0  0
 46119  1  0  0  0
 47120  1  0  0  0
 47121  1  0  0  0
 48 56  1  0  0  0
 48 65  1  0  0  0
 48122  1  0  0  0
 49 50  1  0  0  0
 49 53  1  0  0  0
 49 64  1  0  0  0
 49123  1  0  0  0
 50 51  1  0  0  0
 50124  1  0  0  0
 50125  1  0  0  0
 51 52  1  0  0  0
 51126  1  0  0  0
 51127  1  0  0  0
 52128  1  0  0  0
 52129  1  0  0  0
 53 54  1  0  0  0
 54 55  2  0  0  0
 54130  1  0  0  0
 55 57  1  0  0  0
 55131  1  0  0  0
 56 69  2  0  0  0
 57 58  2  0  0  0
 57132  1  0  0  0
 58133  1  0  0  0
 59 60  1  0  0  0
 59 61  1  0  0  0
 59 62  1  0  0  0
 60134  1  0  0  0
 60135  1  0  0  0
 60136  1  0  0  0
 61137  1  0  0  0
 61138  1  0  0  0
 61139  1  0  0  0
 62140  1  0  0  0
 62141  1  0  0  0
 62142  1  0  0  0
 63 65  1  0  0  0
 63143  1  0  0  0
 63144  1  0  0  0
 63145  1  0  0  0
 64146  1  0  0  0
 65147  1  0  0  0
 68 78  1  0  0  0
 71 72  2  0  0  0
 71 75  1  0  0  0
 71148  1  0  0  0
 72 73  1  0  0  0
 72 79  1  0  0  0
 73 74  2  0  0  0
 73 88  1  0  0  0
 74 81  1  0  0  0
 74 82  1  0  0  0
 75 81  1  0  0  0
 75 83  2  0  0  0
 76149  1  0  0  0
 76150  1  0  0  0
 76151  1  0  0  0
 76 79  1  0  0  0
 77 78  1  0  0  0
 77 81  1  0  0  0
 77152  1  0  0  0
 77153  1  0  0  0
 78154  1  0  0  0
 78155  1  0  0  0
 79 80  1  0  0  0
 79 84  1  0  0  0
 80 85  1  0  0  0
 80 86  1  0  0  0
 80 87  1  0  0  0
 82156  1  0  0  0
M  ISO  4   1 100  68 101  78 101  82 100
M  END
> <chiral flag>
0

> <version>
0

> <s_m_source_file>
/data/baiqing/PycharmProjects/Reinvent-master-3.2/result/LINK_invent/BTK/process_docking_weight1_custom_sum_contain_oxygen_bond_distance_aromatic_linkinvent_7_9_3/rearranged_h_0018.sdf

> <i_m_source_file_index>
45

> <r_mmod_Potential_Energy-OPLS-2005>
16586.466796875

> <r_mmod_Stretch_Energy-OPLS-2005>
9742.7490234375

> <r_mmod_Bend_Energy-OPLS-2005>
1257.19287109375

> <r_mmod_Torsional_Energy-OPLS-2005>
512.730041503906

> <r_mmod_Improper_Torsional_Energy-OPLS-2005>
45.7658500671387

> <r_mmod_Van_der_Waal_Energy-OPLS-2005>
2802.43481445312

> <r_mmod_Electrostatic_Energy-OPLS-2005>
-409.932708740234

> <r_mmod_Solvation_Energy-OPLS-2005>
-214.846084594727

> <b_mmod_Minimization_Converged-OPLS-2005>
0

> <r_mmod_RMS_Derivative-OPLS-2005>
6.58817768096924

$$$$
46
                    3D
 Structure written by MMmdl.
158166  0  0  1  0            999 V2000
  -30.4116  -15.3214   20.3571 C   0  0  0  0  0  0
  -30.4375  -12.8424   19.5441 C   0  0  0  0  0  0
  -29.5415  -12.5915   18.3029 C   0  0  0  0  0  0
  -28.0921  -12.3036   18.7278 C   0  0  0  0  0  0
  -27.6117  -13.2816   19.8280 C   0  0  2  0  0  0
  -28.6398  -13.4754   20.9653 C   0  0  0  0  0  0
  -25.2382  -13.8262   20.5756 C   0  0  0  0  0  0
  -24.1739  -13.0443   20.9262 C   0  0  0  0  0  0
  -24.6401  -11.6941   20.8762 C   0  0  0  0  0  0
  -23.9097  -10.4296   21.0403 C   0  0  0  0  0  0
  -24.3639   -9.4209   21.9182 C   0  0  0  0  0  0
  -23.6306   -8.2247   22.0754 C   0  0  0  0  0  0
  -22.4286   -8.0286   21.3545 C   0  0  0  0  0  0
  -21.9930   -9.0259   20.4645 C   0  0  0  0  0  0
  -22.7266  -10.2135   20.3053 C   0  0  0  0  0  0
  -21.6858   -6.0737   22.5278 C   0  0  0  0  0  0
  -21.4017   -6.5641   23.8211 C   0  0  0  0  0  0
  -21.3660   -5.6794   24.9174 C   0  0  0  0  0  0
  -21.6045   -4.3056   24.7225 C   0  0  0  0  0  0
  -21.8819   -3.8147   23.4346 C   0  0  0  0  0  0
  -21.9194   -4.6964   22.3402 C   0  0  0  0  0  0
  -22.7755  -13.5188   21.1906 C   0  0  0  0  0  0
  -22.1662   -4.2150   21.0979 F   0  0  0  0  0  0
  -21.5628   -3.4539   25.7737 F   0  0  0  0  0  0
  -29.8706  -13.9961   20.3454 N   0  0  0  0  0  0
  -26.2816  -12.9547   20.3239 N   0  0  0  0  0  0
  -25.9341  -11.6644   20.5726 N   0  0  0  0  0  0
  -22.0417  -12.8163   22.0459 N   0  0  0  0  0  0
  -25.4010  -15.1996   20.4181 N   0  0  0  0  0  0
  -31.6217  -15.3257   20.0858 O   0  0  0  0  0  0
  -21.6647   -6.8883   21.4241 O   0  0  0  0  0  0
  -22.3430  -14.5487   20.6746 O   0  0  0  0  0  0
  -24.6671  -31.8190   23.1675 C   0  0  0  0  0  0
  -25.9335  -32.4564   23.8152 C   0  0  1  0  0  0
  -27.2223  -26.8836   20.1765 C   0  0  0  0  0  0
  -25.5986  -33.8380   24.2051 N   0  0  0  0  0  0
  -23.4846  -30.4298   21.5165 C   0  0  2  0  0  0
  -24.9414  -28.8150   20.1043 C   0  0  0  0  0  0
  -22.7693  -29.4414   22.4754 C   0  0  0  0  0  0
  -18.0328  -28.1415   22.8469 C   0  0  0  0  0  0
  -24.1493  -36.7191   23.2647 C   0  0  0  0  0  0
  -26.0568  -30.6090   21.4080 C   0  0  0  0  0  0
  -26.1238  -29.1963   20.7494 C   0  0  0  0  0  0
  -27.2511  -28.2491   20.7702 C   0  0  0  0  0  0
  -26.0129  -26.6777   19.4693 C   0  0  0  0  0  0
  -24.9146  -27.5773   19.4442 C   0  0  0  0  0  0
  -23.7279  -29.7459   20.1422 C   0  0  0  0  0  0
  -25.4136  -36.2951   24.0295 C   0  0  1  0  0  0
  -20.5956  -28.3761   23.1178 C   0  0  2  0  0  0
  -20.6801  -26.9436   22.5403 C   0  0  0  0  0  0
  -19.5772  -26.6378   21.5218 C   0  0  0  0  0  0
  -18.1956  -26.7949   22.1625 C   0  0  0  0  0  0
  -19.1592  -28.8911   23.2810 C   0  0  0  0  0  0
  -18.9501  -30.1501   23.8846 C   0  0  0  0  0  0
  -17.6492  -30.6602   24.0558 C   0  0  0  0  0  0
  -25.9105  -34.9336   23.4996 C   0  0  0  0  0  0
  -16.5383  -29.9089   23.6348 C   0  0  0  0  0  0
  -16.7311  -28.6511   23.0366 C   0  0  0  0  0  0
  -26.4570  -31.6529   25.0700 C   0  0  0  0  0  0
  -25.3682  -31.3798   26.1347 C   0  0  0  0  0  0
  -27.0476  -30.2886   24.6477 C   0  0  0  0  0  0
  -27.6050  -32.4352   25.7506 C   0  0  0  0  0  0
  -27.5566  -37.1755   24.8468 C   0  0  0  0  0  0
  -21.4355  -29.3041   22.3516 N   0  0  0  0  0  0
  -26.4276  -37.3694   23.9409 N   0  0  0  0  0  0
  -24.7577  -30.9808   22.0837 N   0  0  0  0  0  0
  -23.4222  -28.7986   23.3011 O   0  0  0  0  0  0
  -28.1728  -25.7244   20.3433 O   0  0  0  0  0  0
  -26.5718  -34.8881   22.4595 O   0  0  0  0  0  0
  -23.5728  -32.1183   23.6736 O   0  0  0  0  0  0
  -28.8779  -21.1555   20.0033 C   0  0  0  0  0  0
  -28.6897  -22.6087   20.5164 C   0  0  0  0  0  0
  -29.2697  -19.8383   20.7310 C   0  0  0  0  0  0
  -29.3748  -20.1034   22.1539 C   0  0  0  0  0  0
  -29.0601  -22.6435   21.8663 C   0  0  0  0  0  0
  -29.4016  -21.4846   22.6286 C   0  0  0  0  0  0
  -28.0961  -24.0846   19.8281 C   0  0  0  0  0  0
  -30.7837  -18.1635   23.0737 C   0  0  0  0  0  0
  -28.1881  -17.9595   22.8639 C   0  0  0  0  0  0
  -29.2154  -19.1516   24.6528 C   0  0  0  0  0  0
  -29.6960  -18.2400   20.0515 C   0  0  0  0  0  0
  -29.4128  -18.8781   23.1378 C   0  0  0  0  0  0
  -29.6304  -16.5924   20.4758 N   0  0  0  0  0  0
  -27.4892  -23.9051   18.7693 O   0  0  0  0  0  0
  -29.0671  -23.8499   22.4890 F   0  0  0  0  0  0
  -29.9375  -21.9347   24.2155 Cl  0  0  0  0  0  0
  -31.4567  -13.0464   19.2138 H   0  0  0  0  0  0
  -30.5086  -11.9418   20.1566 H   0  0  0  0  0  0
  -29.9319  -11.7628   17.7106 H   0  0  0  0  0  0
  -29.5645  -13.4699   17.6561 H   0  0  0  0  0  0
  -28.0567  -11.2815   19.1071 H   0  0  0  0  0  0
  -27.4250  -12.3340   17.8655 H   0  0  0  0  0  0
  -27.5220  -14.2437   19.3223 H   0  0  0  0  0  0
  -28.8154  -12.5467   21.5102 H   0  0  0  0  0  0
  -28.2669  -14.1967   21.6941 H   0  0  0  0  0  0
  -25.2780   -9.5684   22.4764 H   0  0  0  0  0  0
  -24.0011   -7.4638   22.7475 H   0  0  0  0  0  0
  -21.0862   -8.8781   19.8950 H   0  0  0  0  0  0
  -22.3722  -10.9674   19.6164 H   0  0  0  0  0  0
  -21.2012   -7.6150   23.9714 H   0  0  0  0  0  0
  -21.1482   -6.0524   25.9077 H   0  0  0  0  0  0
  -22.0598   -2.7609   23.2845 H   0  0  0  0  0  0
  -22.4054  -11.9832   22.4845 H   0  0  0  0  0  0
  -21.1026  -13.1163   22.2665 H   0  0  0  0  0  0
  -24.6276  -15.8465   20.5268 H   0  0  0  0  0  0
  -26.2346  -15.6392   20.0521 H   0  0  0  0  0  0
  -26.7405  -32.5087   23.0863 H   0  0  0  0  0  0
  -25.0085  -33.9455   25.0169 H   0  0  0  0  0  0
  -22.8002  -31.2630   21.3436 H   0  0  0  0  0  0
  -23.3771  -35.9504   23.3276 H   0  0  0  0  0  0
  -24.3565  -36.8872   22.2068 H   0  0  0  0  0  0
  -23.7235  -37.6362   23.6728 H   0  0  0  0  0  0
  -26.2446  -31.3483   20.6281 H   0  0  0  0  0  0
  -26.9139  -30.6651   22.0669 H   0  0  0  0  0  0
  -28.1337  -28.5306   21.3265 H   0  0  0  0  0  0
  -25.8565  -25.7342   18.9706 H   0  0  0  0  0  0
  -24.0174  -27.2790   18.9188 H   0  0  0  0  0  0
  -23.8850  -30.5150   19.3852 H   0  0  0  0  0  0
  -22.8372  -29.2023   19.8226 H   0  0  0  0  0  0
  -25.1338  -36.1737   25.0787 H   0  0  0  0  0  0
  -21.0050  -28.3372   24.1300 H   0  0  0  0  0  0
  -20.5676  -26.2382   23.3649 H   0  0  0  0  0  0
  -21.6664  -26.7401   22.1213 H   0  0  0  0  0  0
  -19.6926  -25.6275   21.1283 H   0  0  0  0  0  0
  -19.6713  -27.3162   20.6726 H   0  0  0  0  0  0
  -17.4225  -26.6700   21.4028 H   0  0  0  0  0  0
  -18.0343  -26.0102   22.9030 H   0  0  0  0  0  0
  -19.7974  -30.7335   24.2189 H   0  0  0  0  0  0
  -17.5041  -31.6277   24.5170 H   0  0  0  0  0  0
  -15.5380  -30.2975   23.7702 H   0  0  0  0  0  0
  -15.8711  -28.0814   22.7108 H   0  0  0  0  0  0
  -24.5888  -30.7119   25.7659 H   0  0  0  0  0  0
  -24.8846  -32.3005   26.4621 H   0  0  0  0  0  0
  -25.7904  -30.9070   27.0222 H   0  0  0  0  0  0
  -26.3156  -29.6548   24.1460 H   0  0  0  0  0  0
  -27.3957  -29.7271   25.5156 H   0  0  0  0  0  0
  -27.9119  -30.4053   23.9935 H   0  0  0  0  0  0
  -27.2610  -33.3706   26.1934 H   0  0  0  0  0  0
  -28.3940  -32.6830   25.0392 H   0  0  0  0  0  0
  -28.0629  -31.8578   26.5548 H   0  0  0  0  0  0
  -28.2569  -38.0065   24.7513 H   0  0  0  0  0  0
  -28.1078  -36.2592   24.6300 H   0  0  0  0  0  0
  -27.2280  -37.1399   25.8869 H   0  0  0  0  0  0
  -20.9613  -29.8728   21.6641 H   0  0  0  0  0  0
  -26.0117  -38.2749   24.1422 H   0  0  0  0  0  0
  -28.7048  -21.0448   18.9422 H   0  0  0  0  0  0
  -31.1159  -17.8876   22.0813 H   0  0  0  0  0  0
  -30.7874  -17.2541   23.6757 H   0  0  0  0  0  0
  -31.5686  -18.8107   23.4671 H   0  0  0  0  0  0
  -27.9520  -17.7844   21.8227 H   0  0  0  0  0  0
  -27.2746  -18.4095   23.2561 H   0  0  0  0  0  0
  -28.2933  -16.9867   23.3461 H   0  0  0  0  0  0
  -30.0939  -19.5843   25.1292 H   0  0  0  0  0  0
  -29.0500  -18.2238   25.2034 H   0  0  0  0  0  0
  -28.3502  -19.7855   24.8524 H   0  0  0  0  0  0
  -30.7396  -18.3725   19.7643 H   0  0  0  0  0  0
  -29.1726  -18.2496   19.0953 H   0  0  0  0  0  0
  -28.6921  -16.3592   20.7622 H   0  0  0  0  0  0
  1 25  1  0  0  0
  1 30  2  0  0  0
  1 83  1  0  0  0
  2  3  1  0  0  0
  2 25  1  0  0  0
  2 87  1  0  0  0
  2 88  1  0  0  0
  3  4  1  0  0  0
  3 89  1  0  0  0
  3 90  1  0  0  0
  4  5  1  0  0  0
  4 91  1  0  0  0
  4 92  1  0  0  0
  5  6  1  0  0  0
  5 26  1  0  0  0
  5 93  1  0  0  0
  6 25  1  0  0  0
  6 94  1  0  0  0
  6 95  1  0  0  0
  7  8  2  0  0  0
  7 26  1  0  0  0
  7 29  1  0  0  0
  8  9  1  0  0  0
  8 22  1  0  0  0
  9 10  1  0  0  0
  9 27  2  0  0  0
 10 11  2  0  0  0
 10 15  1  0  0  0
 11 12  1  0  0  0
 11 96  1  0  0  0
 12 13  2  0  0  0
 12 97  1  0  0  0
 13 14  1  0  0  0
 13 31  1  0  0  0
 14 15  2  0  0  0
 14 98  1  0  0  0
 15 99  1  0  0  0
 16 17  2  0  0  0
 16 21  1  0  0  0
 16 31  1  0  0  0
 17 18  1  0  0  0
 17100  1  0  0  0
 18 19  2  0  0  0
 18101  1  0  0  0
 19 20  1  0  0  0
 19 24  1  0  0  0
 20 21  2  0  0  0
 20102  1  0  0  0
 21 23  1  0  0  0
 22 28  1  0  0  0
 22 32  2  0  0  0
 26 27  1  0  0  0
 28103  1  0  0  0
 28104  1  0  0  0
 29105  1  0  0  0
 29106  1  0  0  0
 33 34  1  0  0  0
 33 66  1  0  0  0
 33 70  2  0  0  0
 34 36  1  0  0  0
 34 59  1  0  0  0
 34107  1  0  0  0
 35 44  2  0  0  0
 35 45  1  0  0  0
 35 68  1  0  0  0
 36 56  1  0  0  0
 36108  1  0  0  0
 37 39  1  0  0  0
 37 47  1  0  0  0
 37 66  1  0  0  0
 37109  1  0  0  0
 38 43  2  0  0  0
 38 46  1  0  0  0
 38 47  1  0  0  0
 39 64  1  0  0  0
 39 67  2  0  0  0
 40 52  1  0  0  0
 40 53  2  0  0  0
 40 58  1  0  0  0
 41110  1  0  0  0
 41111  1  0  0  0
 41112  1  0  0  0
 41 48  1  0  0  0
 42 43  1  0  0  0
 42 66  1  0  0  0
 42113  1  0  0  0
 42114  1  0  0  0
 43 44  1  0  0  0
 44115  1  0  0  0
 45 46  2  0  0  0
 45116  1  0  0  0
 46117  1  0  0  0
 47118  1  0  0  0
 47119  1  0  0  0
 48 56  1  0  0  0
 48 65  1  0  0  0
 48120  1  0  0  0
 49 50  1  0  0  0
 49 53  1  0  0  0
 49 64  1  0  0  0
 49121  1  0  0  0
 50 51  1  0  0  0
 50122  1  0  0  0
 50123  1  0  0  0
 51 52  1  0  0  0
 51124  1  0  0  0
 51125  1  0  0  0
 52126  1  0  0  0
 52127  1  0  0  0
 53 54  1  0  0  0
 54 55  2  0  0  0
 54128  1  0  0  0
 55 57  1  0  0  0
 55129  1  0  0  0
 56 69  2  0  0  0
 57 58  2  0  0  0
 57130  1  0  0  0
 58131  1  0  0  0
 59 60  1  0  0  0
 59 61  1  0  0  0
 59 62  1  0  0  0
 60132  1  0  0  0
 60133  1  0  0  0
 60134  1  0  0  0
 61135  1  0  0  0
 61136  1  0  0  0
 61137  1  0  0  0
 62138  1  0  0  0
 62139  1  0  0  0
 62140  1  0  0  0
 63 65  1  0  0  0
 63141  1  0  0  0
 63142  1  0  0  0
 63143  1  0  0  0
 64144  1  0  0  0
 65145  1  0  0  0
 68 77  1  0  0  0
 71 72  2  0  0  0
 71 73  1  0  0  0
 71146  1  0  0  0
 72 75  1  0  0  0
 72 77  1  0  0  0
 73 74  2  0  0  0
 73 81  1  0  0  0
 74 76  1  0  0  0
 74 82  1  0  0  0
 75 76  2  0  0  0
 75 85  1  0  0  0
 76 86  1  0  0  0
 77 84  2  0  0  0
 78147  1  0  0  0
 78148  1  0  0  0
 78149  1  0  0  0
 78 82  1  0  0  0
 79 82  1  0  0  0
 79150  1  0  0  0
 79151  1  0  0  0
 79152  1  0  0  0
 80 82  1  0  0  0
 80153  1  0  0  0
 80154  1  0  0  0
 80155  1  0  0  0
 81 83  1  0  0  0
 81156  1  0  0  0
 81157  1  0  0  0
 83158  1  0  0  0
M  ISO  4   1 100  68 101  77 101  83 100
M  END
> <chiral flag>
0

> <version>
0

> <s_m_source_file>
/data/baiqing/PycharmProjects/Reinvent-master-3.2/result/LINK_invent/BTK/process_docking_weight1_custom_sum_contain_oxygen_bond_distance_aromatic_linkinvent_7_9_3/rearranged_h_0018.sdf

> <i_m_source_file_index>
46

> <r_mmod_Potential_Energy-OPLS-2005>
1546.70812988281

> <r_mmod_Stretch_Energy-OPLS-2005>
717.932739257812

> <r_mmod_Bend_Energy-OPLS-2005>
471.327575683594

> <r_mmod_Torsional_Energy-OPLS-2005>
244.247619628906

> <r_mmod_Improper_Torsional_Energy-OPLS-2005>
5.57752990722656

> <r_mmod_Van_der_Waal_Energy-OPLS-2005>
160.593521118164

> <r_mmod_Electrostatic_Energy-OPLS-2005>
-379.034606933594

> <r_mmod_Solvation_Energy-OPLS-2005>
-207.386047363281

> <b_mmod_Minimization_Converged-OPLS-2005>
0

> <r_mmod_RMS_Derivative-OPLS-2005>
0.409532994031906

$$$$
47
                    3D
 Structure written by MMmdl.
147155  0  0  1  0            999 V2000
  -30.4114  -15.3284   20.3544 C   0  0  0  0  0  0
  -30.4360  -12.8470   19.5456 C   0  0  0  0  0  0
  -29.5419  -12.5934   18.3037 C   0  0  0  0  0  0
  -28.0922  -12.3052   18.7268 C   0  0  0  0  0  0
  -27.6107  -13.2829   19.8269 C   0  0  2  0  0  0
  -28.6382  -13.4802   20.9643 C   0  0  0  0  0  0
  -25.2375  -13.8260   20.5758 C   0  0  0  0  0  0
  -24.1736  -13.0438   20.9262 C   0  0  0  0  0  0
  -24.6403  -11.6939   20.8761 C   0  0  0  0  0  0
  -23.9100  -10.4294   21.0401 C   0  0  0  0  0  0
  -24.3643   -9.4207   21.9181 C   0  0  0  0  0  0
  -23.6308   -8.2246   22.0752 C   0  0  0  0  0  0
  -22.4289   -8.0286   21.3544 C   0  0  0  0  0  0
  -21.9932   -9.0260   20.4645 C   0  0  0  0  0  0
  -22.7269  -10.2135   20.3051 C   0  0  0  0  0  0
  -21.6857   -6.0741   22.5279 C   0  0  0  0  0  0
  -21.4018   -6.5643   23.8213 C   0  0  0  0  0  0
  -21.3659   -5.6795   24.9174 C   0  0  0  0  0  0
  -21.6042   -4.3058   24.7224 C   0  0  0  0  0  0
  -21.8818   -3.8150   23.4345 C   0  0  0  0  0  0
  -21.9194   -4.6967   22.3401 C   0  0  0  0  0  0
  -22.7750  -13.5182   21.1904 C   0  0  0  0  0  0
  -22.1662   -4.2153   21.0979 F   0  0  0  0  0  0
  -21.5626   -3.4540   25.7735 F   0  0  0  0  0  0
  -29.8681  -14.0031   20.3443 N   0  0  0  0  0  0
  -26.2811  -12.9550   20.3232 N   0  0  0  0  0  0
  -25.9342  -11.6646   20.5722 N   0  0  0  0  0  0
  -22.0413  -12.8164   22.0460 N   0  0  0  0  0  0
  -25.3993  -15.1998   20.4193 N   0  0  0  0  0  0
  -31.6215  -15.3268   20.0816 O   0  0  0  0  0  0
  -21.6647   -6.8886   21.4242 O   0  0  0  0  0  0
  -22.3425  -14.5479   20.6740 O   0  0  0  0  0  0
  -24.6663  -31.8186   23.1667 C   0  0  0  0  0  0
  -25.9325  -32.4562   23.8146 C   0  0  1  0  0  0
  -27.2221  -26.8839   20.1876 C   0  0  0  0  0  0
  -25.5975  -33.8380   24.2045 N   0  0  0  0  0  0
  -23.4840  -30.4276   21.5160 C   0  0  2  0  0  0
  -24.9405  -28.8080   20.1079 C   0  0  0  0  0  0
  -22.7686  -29.4408   22.4760 C   0  0  0  0  0  0
  -18.0325  -28.1415   22.8464 C   0  0  0  0  0  0
  -24.1493  -36.7198   23.2648 C   0  0  0  0  0  0
  -26.0550  -30.6091   21.4061 C   0  0  0  0  0  0
  -26.1225  -29.1947   20.7508 C   0  0  0  0  0  0
  -27.2526  -28.2525   20.7703 C   0  0  0  0  0  0
  -26.0169  -26.6679   19.4791 C   0  0  0  0  0  0
  -24.9163  -27.5667   19.4510 C   0  0  0  0  0  0
  -23.7271  -29.7397   20.1431 C   0  0  0  0  0  0
  -25.4136  -36.2953   24.0294 C   0  0  1  0  0  0
  -20.5952  -28.3759   23.1179 C   0  0  2  0  0  0
  -20.6799  -26.9435   22.5404 C   0  0  0  0  0  0
  -19.5773  -26.6377   21.5215 C   0  0  0  0  0  0
  -18.1956  -26.7945   22.1623 C   0  0  0  0  0  0
  -19.1588  -28.8909   23.2807 C   0  0  0  0  0  0
  -18.9497  -30.1498   23.8843 C   0  0  0  0  0  0
  -17.6489  -30.6600   24.0555 C   0  0  0  0  0  0
  -25.9104  -34.9337   23.4995 C   0  0  0  0  0  0
  -16.5380  -29.9086   23.6347 C   0  0  0  0  0  0
  -16.7306  -28.6509   23.0361 C   0  0  0  0  0  0
  -26.4562  -31.6530   25.0696 C   0  0  0  0  0  0
  -25.3672  -31.3800   26.1340 C   0  0  0  0  0  0
  -27.0472  -30.2890   24.6474 C   0  0  0  0  0  0
  -27.6042  -32.4354   25.7502 C   0  0  0  0  0  0
  -27.5568  -37.1755   24.8464 C   0  0  0  0  0  0
  -21.4350  -29.3037   22.3517 N   0  0  0  0  0  0
  -26.4276  -37.3695   23.9408 N   0  0  0  0  0  0
  -24.7566  -30.9802   22.0829 N   0  0  0  0  0  0
  -23.4212  -28.7984   23.3023 O   0  0  0  0  0  0
  -28.2006  -25.7468   20.3205 O   0  0  0  0  0  0
  -26.5724  -34.8881   22.4597 O   0  0  0  0  0  0
  -23.5723  -32.1179   23.6732 O   0  0  0  0  0  0
  -28.7366  -22.5129   21.9254 C   0  0  0  0  0  0
  -29.0455  -21.3063   22.6139 C   0  0  0  0  0  0
  -28.6289  -22.5966   20.5226 C   0  0  0  0  0  0
  -29.2632  -19.8356   20.6059 C   0  0  0  0  0  0
  -29.2929  -20.0405   22.0082 C   0  0  0  0  0  0
  -28.9125  -21.1892   19.9116 C   0  0  0  0  0  0
  -29.7504  -18.2370   20.0009 C   0  0  0  0  0  0
  -28.0587  -24.1429   19.8720 C   0  0  0  0  0  0
  -29.6410  -16.6087   20.4700 N   0  0  0  0  0  0
  -29.6784  -18.7229   23.0572 Cl  0  0  0  0  0  0
  -28.8223  -21.1168   18.1898 Cl  0  0  0  0  0  0
  -31.4556  -13.0492   19.2159 H   0  0  0  0  0  0
  -30.5069  -11.9479   20.1600 H   0  0  0  0  0  0
  -29.9337  -11.7642   17.7131 H   0  0  0  0  0  0
  -29.5656  -13.4709   17.6557 H   0  0  0  0  0  0
  -28.0567  -11.2831   19.1060 H   0  0  0  0  0  0
  -27.4260  -12.3360   17.8636 H   0  0  0  0  0  0
  -27.5197  -14.2446   19.3203 H   0  0  0  0  0  0
  -28.8157  -12.5528   21.5109 H   0  0  0  0  0  0
  -28.2633  -14.2019   21.6915 H   0  0  0  0  0  0
  -25.2785   -9.5681   22.4762 H   0  0  0  0  0  0
  -24.0011   -7.4638   22.7475 H   0  0  0  0  0  0
  -21.0861   -8.8785   19.8952 H   0  0  0  0  0  0
  -22.3727  -10.9675   19.6162 H   0  0  0  0  0  0
  -21.2015   -7.6153   23.9717 H   0  0  0  0  0  0
  -21.1481   -6.0526   25.9077 H   0  0  0  0  0  0
  -22.0596   -2.7612   23.2845 H   0  0  0  0  0  0
  -22.4056  -11.9843   22.4861 H   0  0  0  0  0  0
  -21.1017  -13.1154   22.2653 H   0  0  0  0  0  0
  -24.6259  -15.8463   20.5317 H   0  0  0  0  0  0
  -26.2350  -15.6426   20.0610 H   0  0  0  0  0  0
  -26.7393  -32.5088   23.0857 H   0  0  0  0  0  0
  -25.0057  -33.9450   25.0153 H   0  0  0  0  0  0
  -22.7995  -31.2604   21.3414 H   0  0  0  0  0  0
  -23.3768  -35.9514   23.3271 H   0  0  0  0  0  0
  -24.3567  -36.8888   22.2070 H   0  0  0  0  0  0
  -23.7238  -37.6367   23.6734 H   0  0  0  0  0  0
  -26.2409  -31.3473   20.6249 H   0  0  0  0  0  0
  -26.9128  -30.6679   22.0638 H   0  0  0  0  0  0
  -28.1392  -28.5421   21.3167 H   0  0  0  0  0  0
  -25.8802  -25.7243   18.9727 H   0  0  0  0  0  0
  -24.0212  -27.2662   18.9237 H   0  0  0  0  0  0
  -23.8847  -30.5072   19.3846 H   0  0  0  0  0  0
  -22.8365  -29.1952   19.8247 H   0  0  0  0  0  0
  -25.1338  -36.1739   25.0786 H   0  0  0  0  0  0
  -21.0042  -28.3372   24.1302 H   0  0  0  0  0  0
  -20.5678  -26.2378   23.3650 H   0  0  0  0  0  0
  -21.6662  -26.7405   22.1212 H   0  0  0  0  0  0
  -19.6931  -25.6273   21.1281 H   0  0  0  0  0  0
  -19.6714  -27.3158   20.6723 H   0  0  0  0  0  0
  -17.4226  -26.6687   21.4027 H   0  0  0  0  0  0
  -18.0348  -26.0102   22.9034 H   0  0  0  0  0  0
  -19.7972  -30.7332   24.2186 H   0  0  0  0  0  0
  -17.5039  -31.6274   24.5169 H   0  0  0  0  0  0
  -15.5377  -30.2970   23.7703 H   0  0  0  0  0  0
  -15.8708  -28.0812   22.7103 H   0  0  0  0  0  0
  -24.5869  -30.7135   25.7644 H   0  0  0  0  0  0
  -24.8843  -32.3011   26.4618 H   0  0  0  0  0  0
  -25.7885  -30.9061   27.0214 H   0  0  0  0  0  0
  -26.3156  -29.6545   24.1461 H   0  0  0  0  0  0
  -27.3960  -29.7281   25.5154 H   0  0  0  0  0  0
  -27.9112  -30.4058   23.9929 H   0  0  0  0  0  0
  -27.2599  -33.3703   26.1938 H   0  0  0  0  0  0
  -28.3926  -32.6841   25.0385 H   0  0  0  0  0  0
  -28.0629  -31.8577   26.5536 H   0  0  0  0  0  0
  -28.2562  -38.0073   24.7517 H   0  0  0  0  0  0
  -28.1088  -36.2600   24.6286 H   0  0  0  0  0  0
  -27.2284  -37.1388   25.8866 H   0  0  0  0  0  0
  -20.9614  -29.8716   21.6631 H   0  0  0  0  0  0
  -26.0118  -38.2749   24.1420 H   0  0  0  0  0  0
  -28.5477  -23.4035   22.5079 H   0  0  0  0  0  0
  -29.0959  -21.3555   23.6925 H   0  0  0  0  0  0
  -30.8188  -18.3659   19.8267 H   0  0  0  0  0  0
  -29.3298  -18.2237   18.9955 H   0  0  0  0  0  0
  -28.3865  -24.1311   18.8326 H   0  0  0  0  0  0
  -26.9842  -23.9766   19.8115 H   0  0  0  0  0  0
  -28.7000  -16.3994   20.7688 H   0  0  0  0  0  0
  1 25  1  0  0  0
  1 30  2  0  0  0
  1 79  1  0  0  0
  2  3  1  0  0  0
  2 25  1  0  0  0
  2 82  1  0  0  0
  2 83  1  0  0  0
  3  4  1  0  0  0
  3 84  1  0  0  0
  3 85  1  0  0  0
  4  5  1  0  0  0
  4 86  1  0  0  0
  4 87  1  0  0  0
  5  6  1  0  0  0
  5 26  1  0  0  0
  5 88  1  0  0  0
  6 25  1  0  0  0
  6 89  1  0  0  0
  6 90  1  0  0  0
  7  8  2  0  0  0
  7 26  1  0  0  0
  7 29  1  0  0  0
  8  9  1  0  0  0
  8 22  1  0  0  0
  9 10  1  0  0  0
  9 27  2  0  0  0
 10 11  2  0  0  0
 10 15  1  0  0  0
 11 12  1  0  0  0
 11 91  1  0  0  0
 12 13  2  0  0  0
 12 92  1  0  0  0
 13 14  1  0  0  0
 13 31  1  0  0  0
 14 15  2  0  0  0
 14 93  1  0  0  0
 15 94  1  0  0  0
 16 17  2  0  0  0
 16 21  1  0  0  0
 16 31  1  0  0  0
 17 18  1  0  0  0
 17 95  1  0  0  0
 18 19  2  0  0  0
 18 96  1  0  0  0
 19 20  1  0  0  0
 19 24  1  0  0  0
 20 21  2  0  0  0
 20 97  1  0  0  0
 21 23  1  0  0  0
 22 28  1  0  0  0
 22 32  2  0  0  0
 26 27  1  0  0  0
 28 98  1  0  0  0
 28 99  1  0  0  0
 29100  1  0  0  0
 29101  1  0  0  0
 33 34  1  0  0  0
 33 66  1  0  0  0
 33 70  2  0  0  0
 34 36  1  0  0  0
 34 59  1  0  0  0
 34102  1  0  0  0
 35 44  2  0  0  0
 35 45  1  0  0  0
 35 68  1  0  0  0
 36 56  1  0  0  0
 36103  1  0  0  0
 37 39  1  0  0  0
 37 47  1  0  0  0
 37 66  1  0  0  0
 37104  1  0  0  0
 38 43  2  0  0  0
 38 46  1  0  0  0
 38 47  1  0  0  0
 39 64  1  0  0  0
 39 67  2  0  0  0
 40 52  1  0  0  0
 40 53  2  0  0  0
 40 58  1  0  0  0
 41105  1  0  0  0
 41106  1  0  0  0
 41107  1  0  0  0
 41 48  1  0  0  0
 42 43  1  0  0  0
 42 66  1  0  0  0
 42108  1  0  0  0
 42109  1  0  0  0
 43 44  1  0  0  0
 44110  1  0  0  0
 45 46  2  0  0  0
 45111  1  0  0  0
 46112  1  0  0  0
 47113  1  0  0  0
 47114  1  0  0  0
 48 56  1  0  0  0
 48 65  1  0  0  0
 48115  1  0  0  0
 49 50  1  0  0  0
 49 53  1  0  0  0
 49 64  1  0  0  0
 49116  1  0  0  0
 50 51  1  0  0  0
 50117  1  0  0  0
 50118  1  0  0  0
 51 52  1  0  0  0
 51119  1  0  0  0
 51120  1  0  0  0
 52121  1  0  0  0
 52122  1  0  0  0
 53 54  1  0  0  0
 54 55  2  0  0  0
 54123  1  0  0  0
 55 57  1  0  0  0
 55124  1  0  0  0
 56 69  2  0  0  0
 57 58  2  0  0  0
 57125  1  0  0  0
 58126  1  0  0  0
 59 60  1  0  0  0
 59 61  1  0  0  0
 59 62  1  0  0  0
 60127  1  0  0  0
 60128  1  0  0  0
 60129  1  0  0  0
 61130  1  0  0  0
 61131  1  0  0  0
 61132  1  0  0  0
 62133  1  0  0  0
 62134  1  0  0  0
 62135  1  0  0  0
 63 65  1  0  0  0
 63136  1  0  0  0
 63137  1  0  0  0
 63138  1  0  0  0
 64139  1  0  0  0
 65140  1  0  0  0
 68 78  1  0  0  0
 71 72  2  0  0  0
 71 73  1  0  0  0
 71141  1  0  0  0
 72 75  1  0  0  0
 72142  1  0  0  0
 73 76  2  0  0  0
 73 78  1  0  0  0
 74 75  2  0  0  0
 74 76  1  0  0  0
 74 77  1  0  0  0
 75 80  1  0  0  0
 76 81  1  0  0  0
 77 79  1  0  0  0
 77143  1  0  0  0
 77144  1  0  0  0
 78145  1  0  0  0
 78146  1  0  0  0
 79147  1  0  0  0
M  ISO  4   1 100  68 101  78 101  79 100
M  END
> <chiral flag>
0

> <version>
0

> <s_m_source_file>
/data/baiqing/PycharmProjects/Reinvent-master-3.2/result/LINK_invent/BTK/process_docking_weight1_custom_sum_contain_oxygen_bond_distance_aromatic_linkinvent_7_9_3/rearranged_h_0018.sdf

> <i_m_source_file_index>
47

> <r_mmod_Potential_Energy-OPLS-2005>
1394.13317871094

> <r_mmod_Stretch_Energy-OPLS-2005>
650.93212890625

> <r_mmod_Bend_Energy-OPLS-2005>
441.346954345703

> <r_mmod_Torsional_Energy-OPLS-2005>
217.115234375

> <r_mmod_Improper_Torsional_Energy-OPLS-2005>
5.82798719406128

> <r_mmod_Van_der_Waal_Energy-OPLS-2005>
120.699028015137

> <r_mmod_Electrostatic_Energy-OPLS-2005>
-360.034423828125

> <r_mmod_Solvation_Energy-OPLS-2005>
-212.776290893555

> <b_mmod_Minimization_Converged-OPLS-2005>
0

> <r_mmod_RMS_Derivative-OPLS-2005>
0.302627563476562

$$$$
48
                    3D
 Structure written by MMmdl.
183193  0  0  1  0            999 V2000
  -30.7631  -14.3670   20.6904 C   0  0  0  0  0  0
  -30.4133  -12.2935   19.3943 C   0  0  0  0  0  0
  -29.4799  -12.5261   18.1928 C   0  0  0  0  0  0
  -28.0055  -12.3714   18.6103 C   0  0  0  0  0  0
  -27.6631  -13.1917   19.8792 C   0  0  2  0  0  0
  -28.7011  -12.9284   20.9936 C   0  0  0  0  0  0
  -25.2609  -13.8127   20.5669 C   0  0  0  0  0  0
  -24.1849  -13.0430   20.9163 C   0  0  0  0  0  0
  -24.6379  -11.6892   20.8731 C   0  0  0  0  0  0
  -23.9038  -10.4286   21.0408 C   0  0  0  0  0  0
  -24.3597   -9.4206   21.9186 C   0  0  0  0  0  0
  -23.6279   -8.2238   22.0758 C   0  0  0  0  0  0
  -22.4262   -8.0275   21.3543 C   0  0  0  0  0  0
  -21.9893   -9.0245   20.4643 C   0  0  0  0  0  0
  -22.7213  -10.2131   20.3052 C   0  0  0  0  0  0
  -21.6855   -6.0733   22.5277 C   0  0  0  0  0  0
  -21.4014   -6.5638   23.8210 C   0  0  0  0  0  0
  -21.3659   -5.6791   24.9169 C   0  0  0  0  0  0
  -21.6046   -4.3056   24.7222 C   0  0  0  0  0  0
  -21.8823   -3.8147   23.4344 C   0  0  0  0  0  0
  -21.9192   -4.6960   22.3398 C   0  0  0  0  0  0
  -22.7874  -13.5243   21.1837 C   0  0  0  0  0  0
  -22.1662   -4.2150   21.0975 F   0  0  0  0  0  0
  -21.5626   -3.4539   25.7733 F   0  0  0  0  0  0
  -30.0387  -13.2374   20.4603 N   0  0  0  0  0  0
  -26.3029  -12.9269   20.3379 N   0  0  0  0  0  0
  -25.9301  -11.6443   20.5764 N   0  0  0  0  0  0
  -22.0512  -12.8234   22.0393 N   0  0  0  0  0  0
  -25.4334  -15.1844   20.4066 N   0  0  0  0  0  0
  -31.8034  -14.6140   20.0703 O   0  0  0  0  0  0
  -21.6636   -6.8874   21.4239 O   0  0  0  0  0  0
  -22.3555  -14.5553   20.6692 O   0  0  0  0  0  0
  -24.6119  -31.8715   23.2136 C   0  0  0  0  0  0
  -25.9031  -32.4838   23.8417 C   0  0  1  0  0  0
  -27.2351  -27.4753   20.0725 C   0  0  0  0  0  0
  -25.5909  -33.8636   24.2355 N   0  0  0  0  0  0
  -23.3973  -30.4950   21.5551 C   0  0  2  0  0  0
  -24.8412  -28.9617   20.1214 C   0  0  0  0  0  0
  -22.7385  -29.4678   22.5031 C   0  0  0  0  0  0
  -18.0272  -28.1379   22.8513 C   0  0  0  0  0  0
  -24.1482  -36.7308   23.2634 C   0  0  0  0  0  0
  -25.9225  -30.8427   21.3641 C   0  0  0  0  0  0
  -25.9985  -29.4763   20.7192 C   0  0  0  0  0  0
  -27.1969  -28.7334   20.7051 C   0  0  0  0  0  0
  -26.0548  -26.9500   19.5003 C   0  0  0  0  0  0
  -24.8593  -27.6919   19.5179 C   0  0  0  0  0  0
  -23.6032  -29.8269   20.1699 C   0  0  0  0  0  0
  -25.4108  -36.3131   24.0347 C   0  0  1  0  0  0
  -20.5857  -28.3659   23.1340 C   0  0  2  0  0  0
  -20.6767  -26.9402   22.5425 C   0  0  0  0  0  0
  -19.5739  -26.6393   21.5228 C   0  0  0  0  0  0
  -18.1913  -26.7928   22.1639 C   0  0  0  0  0  0
  -19.1518  -28.8841   23.2922 C   0  0  0  0  0  0
  -18.9446  -30.1456   23.8920 C   0  0  0  0  0  0
  -17.6444  -30.6592   24.0576 C   0  0  0  0  0  0
  -25.9042  -34.9490   23.5155 C   0  0  0  0  0  0
  -16.5340  -29.9094   23.6334 C   0  0  0  0  0  0
  -16.7259  -28.6513   23.0357 C   0  0  0  0  0  0
  -26.4475  -31.6593   25.0718 C   0  0  0  0  0  0
  -25.3754  -31.3645   26.1459 C   0  0  0  0  0  0
  -27.0319  -30.3065   24.6041 C   0  0  0  0  0  0
  -27.6046  -32.4301   25.7490 C   0  0  0  0  0  0
  -27.5596  -37.1789   24.8458 C   0  0  0  0  0  0
  -21.4121  -29.3035   22.3757 N   0  0  0  0  0  0
  -26.4285  -37.3821   23.9437 N   0  0  0  0  0  0
  -24.6619  -31.0839   22.1032 N   0  0  0  0  0  0
  -23.4163  -28.8222   23.3070 O   0  0  0  0  0  0
  -28.4224  -26.7875   20.0154 O   0  0  0  0  0  0
  -26.5602  -34.8940   22.4711 O   0  0  0  0  0  0
  -23.5324  -32.1453   23.7562 O   0  0  0  0  0  0
  -32.6491  -20.4376   19.3815 C   0  0  0  0  0  0
  -31.6755  -21.7186   21.1828 C   0  0  0  0  0  0
  -32.3786  -25.0879   18.6394 C   0  0  0  0  0  0
  -31.4634  -19.2630   21.1894 C   0  0  0  0  0  0
  -32.1934  -19.2359   19.9596 C   0  0  0  0  0  0
  -31.2089  -20.5324   21.7883 C   0  0  0  0  0  0
  -32.4038  -21.6833   19.9774 C   0  0  0  0  0  0
  -32.7122  -24.1716   19.6332 C   0  0  0  0  0  0
  -32.1964  -26.4093   19.0477 C   0  0  0  0  0  0
  -32.7661  -25.8494   21.1781 C   0  0  0  0  0  0
  -29.7020  -17.3917   21.1151 C   0  0  0  0  0  0
  -32.0153  -16.9377   22.2174 C   0  0  0  0  0  0
  -29.2615  -16.0413   21.7095 C   0  0  0  0  0  0
  -31.4086  -15.6074   22.7101 C   0  0  0  0  0  0
  -30.9259  -17.9796   21.8585 C   0  0  0  0  0  0
  -32.5486  -17.9708   19.1886 C   0  0  0  0  0  0
  -30.4225  -20.6834   23.0850 C   0  0  0  0  0  0
  -33.0336  -26.2883   22.6004 C   0  0  0  0  0  0
  -29.4054  -27.6407   17.9362 C   0  0  0  0  0  0
  -28.8496  -26.4234   18.7024 C   0  0  0  0  0  0
  -30.7230  -28.2113   18.4931 C   0  0  0  0  0  0
  -32.9219  -24.5577   20.9006 N   0  0  0  0  0  0
  -32.4019  -26.7955   20.3192 N   0  0  0  0  0  0
  -30.3998  -15.1110   21.7641 N   0  0  0  0  0  0
  -32.8622  -22.8255   19.3030 N   0  0  0  0  0  0
  -31.8064  -27.3552   18.1320 O   0  0  0  0  0  0
  -31.4546  -12.3956   19.0829 H   0  0  0  0  0  0
  -30.3186  -11.2694   19.7584 H   0  0  0  0  0  0
  -29.7161  -11.8260   17.3906 H   0  0  0  0  0  0
  -29.6442  -13.5252   17.7865 H   0  0  0  0  0  0
  -27.8187  -11.3120   18.7912 H   0  0  0  0  0  0
  -27.3489  -12.6604   17.7883 H   0  0  0  0  0  0
  -27.7190  -14.2393   19.5895 H   0  0  0  0  0  0
  -28.6702  -11.8799   21.2924 H   0  0  0  0  0  0
  -28.4547  -13.4805   21.8993 H   0  0  0  0  0  0
  -25.2745   -9.5687   22.4759 H   0  0  0  0  0  0
  -23.9997   -7.4633   22.7480 H   0  0  0  0  0  0
  -21.0829   -8.8749   19.8948 H   0  0  0  0  0  0
  -22.3669  -10.9663   19.6158 H   0  0  0  0  0  0
  -21.2013   -7.6148   23.9711 H   0  0  0  0  0  0
  -21.1475   -6.0523   25.9072 H   0  0  0  0  0  0
  -22.0606   -2.7612   23.2839 H   0  0  0  0  0  0
  -22.4131  -11.9885   22.4758 H   0  0  0  0  0  0
  -21.1132  -13.1262   22.2620 H   0  0  0  0  0  0
  -24.6644  -15.8369   20.5101 H   0  0  0  0  0  0
  -26.2863  -15.6256   20.0886 H   0  0  0  0  0  0
  -26.7100  -32.5575   23.1184 H   0  0  0  0  0  0
  -25.0075  -33.9814   25.0512 H   0  0  0  0  0  0
  -22.6845  -31.3111   21.4181 H   0  0  0  0  0  0
  -23.3782  -35.9597   23.3266 H   0  0  0  0  0  0
  -24.3585  -36.8962   22.2053 H   0  0  0  0  0  0
  -23.7172  -37.6477   23.6670 H   0  0  0  0  0  0
  -26.0296  -31.6045   20.5913 H   0  0  0  0  0  0
  -26.8120  -30.9001   21.9794 H   0  0  0  0  0  0
  -28.0975  -29.1309   21.1524 H   0  0  0  0  0  0
  -26.0523  -25.9730   19.0391 H   0  0  0  0  0  0
  -23.9657  -27.2837   19.0659 H   0  0  0  0  0  0
  -23.7081  -30.6010   19.4095 H   0  0  0  0  0  0
  -22.7266  -29.2469   19.8773 H   0  0  0  0  0  0
  -25.1262  -36.1996   25.0834 H   0  0  0  0  0  0
  -20.9949  -28.3207   24.1462 H   0  0  0  0  0  0
  -20.5709  -26.2244   23.3598 H   0  0  0  0  0  0
  -21.6628  -26.7463   22.1190 H   0  0  0  0  0  0
  -19.6904  -25.6313   21.1237 H   0  0  0  0  0  0
  -19.6681  -27.3230   20.6779 H   0  0  0  0  0  0
  -17.4186  -26.6714   21.4039 H   0  0  0  0  0  0
  -18.0291  -26.0058   22.9016 H   0  0  0  0  0  0
  -19.7913  -30.7290   24.2280 H   0  0  0  0  0  0
  -17.4992  -31.6275   24.5170 H   0  0  0  0  0  0
  -15.5344  -30.3011   23.7648 H   0  0  0  0  0  0
  -15.8653  -28.0856   22.7048 H   0  0  0  0  0  0
  -24.5943  -30.6990   25.7773 H   0  0  0  0  0  0
  -24.8926  -32.2770   26.4958 H   0  0  0  0  0  0
  -25.8120  -30.8767   27.0181 H   0  0  0  0  0  0
  -26.2851  -29.6816   24.1136 H   0  0  0  0  0  0
  -27.4167  -29.7304   25.4462 H   0  0  0  0  0  0
  -27.8647  -30.4425   23.9139 H   0  0  0  0  0  0
  -27.2675  -33.3590   26.2101 H   0  0  0  0  0  0
  -28.3854  -32.6869   25.0322 H   0  0  0  0  0  0
  -28.0717  -31.8393   26.5381 H   0  0  0  0  0  0
  -28.2543  -38.0156   24.7629 H   0  0  0  0  0  0
  -28.1163  -36.2696   24.6132 H   0  0  0  0  0  0
  -27.2328  -37.1247   25.8856 H   0  0  0  0  0  0
  -20.9273  -29.8732   21.6965 H   0  0  0  0  0  0
  -26.0181  -38.2887   24.1516 H   0  0  0  0  0  0
  -33.2005  -20.3969   18.4519 H   0  0  0  0  0  0
  -31.4516  -22.6624   21.6561 H   0  0  0  0  0  0
  -32.2110  -24.7964   17.6124 H   0  0  0  0  0  0
  -28.8739  -18.1000   21.1673 H   0  0  0  0  0  0
  -29.8912  -17.2631   20.0527 H   0  0  0  0  0  0
  -32.6651  -16.7162   21.3783 H   0  0  0  0  0  0
  -32.6742  -17.3483   22.9831 H   0  0  0  0  0  0
  -28.4349  -15.6498   21.1224 H   0  0  0  0  0  0
  -28.8627  -16.1857   22.7145 H   0  0  0  0  0  0
  -30.9487  -15.7429   23.6905 H   0  0  0  0  0  0
  -32.1968  -14.8651   22.8518 H   0  0  0  0  0  0
  -30.5280  -18.2326   22.8376 H   0  0  0  0  0  0
  -33.5233  -17.6000   19.5043 H   0  0  0  0  0  0
  -32.6188  -18.1784   18.1204 H   0  0  0  0  0  0
  -31.8302  -17.1658   19.2954 H   0  0  0  0  0  0
  -30.3004  -21.7310   23.3636 H   0  0  0  0  0  0
  -30.9363  -20.1912   23.9118 H   0  0  0  0  0  0
  -29.4228  -20.2578   22.9862 H   0  0  0  0  0  0
  -33.2924  -25.4413   23.2360 H   0  0  0  0  0  0
  -32.1532  -26.7742   23.0200 H   0  0  0  0  0  0
  -33.8633  -26.9947   22.6291 H   0  0  0  0  0  0
  -28.6529  -28.4294   17.9182 H   0  0  0  0  0  0
  -29.5590  -27.3649   16.8922 H   0  0  0  0  0  0
  -29.6041  -25.6437   18.7873 H   0  0  0  0  0  0
  -28.0463  -25.9711   18.1223 H   0  0  0  0  0  0
  -30.6403  -28.4134   19.5621 H   0  0  0  0  0  0
  -30.9122  -29.1756   18.0207 H   0  0  0  0  0  0
  -33.0497  -22.6695   18.3201 H   0  0  0  0  0  0
  1 25  1  0  0  0
  1 30  2  0  0  0
  1 94  1  0  0  0
  2  3  1  0  0  0
  2 25  1  0  0  0
  2 97  1  0  0  0
  2 98  1  0  0  0
  3  4  1  0  0  0
  3 99  1  0  0  0
  3100  1  0  0  0
  4  5  1  0  0  0
  4101  1  0  0  0
  4102  1  0  0  0
  5  6  1  0  0  0
  5 26  1  0  0  0
  5103  1  0  0  0
  6 25  1  0  0  0
  6104  1  0  0  0
  6105  1  0  0  0
  7  8  2  0  0  0
  7 26  1  0  0  0
  7 29  1  0  0  0
  8  9  1  0  0  0
  8 22  1  0  0  0
  9 10  1  0  0  0
  9 27  2  0  0  0
 10 11  2  0  0  0
 10 15  1  0  0  0
 11 12  1  0  0  0
 11106  1  0  0  0
 12 13  2  0  0  0
 12107  1  0  0  0
 13 14  1  0  0  0
 13 31  1  0  0  0
 14 15  2  0  0  0
 14108  1  0  0  0
 15109  1  0  0  0
 16 17  2  0  0  0
 16 21  1  0  0  0
 16 31  1  0  0  0
 17 18  1  0  0  0
 17110  1  0  0  0
 18 19  2  0  0  0
 18111  1  0  0  0
 19 20  1  0  0  0
 19 24  1  0  0  0
 20 21  2  0  0  0
 20112  1  0  0  0
 21 23  1  0  0  0
 22 28  1  0  0  0
 22 32  2  0  0  0
 26 27  1  0  0  0
 28113  1  0  0  0
 28114  1  0  0  0
 29115  1  0  0  0
 29116  1  0  0  0
 33 34  1  0  0  0
 33 66  1  0  0  0
 33 70  2  0  0  0
 34 36  1  0  0  0
 34 59  1  0  0  0
 34117  1  0  0  0
 35 44  2  0  0  0
 35 45  1  0  0  0
 35 68  1  0  0  0
 36 56  1  0  0  0
 36118  1  0  0  0
 37 39  1  0  0  0
 37 47  1  0  0  0
 37 66  1  0  0  0
 37119  1  0  0  0
 38 43  2  0  0  0
 38 46  1  0  0  0
 38 47  1  0  0  0
 39 64  1  0  0  0
 39 67  2  0  0  0
 40 52  1  0  0  0
 40 53  2  0  0  0
 40 58  1  0  0  0
 41120  1  0  0  0
 41121  1  0  0  0
 41122  1  0  0  0
 41 48  1  0  0  0
 42 43  1  0  0  0
 42 66  1  0  0  0
 42123  1  0  0  0
 42124  1  0  0  0
 43 44  1  0  0  0
 44125  1  0  0  0
 45 46  2  0  0  0
 45126  1  0  0  0
 46127  1  0  0  0
 47128  1  0  0  0
 47129  1  0  0  0
 48 56  1  0  0  0
 48 65  1  0  0  0
 48130  1  0  0  0
 49 50  1  0  0  0
 49 53  1  0  0  0
 49 64  1  0  0  0
 49131  1  0  0  0
 50 51  1  0  0  0
 50132  1  0  0  0
 50133  1  0  0  0
 51 52  1  0  0  0
 51134  1  0  0  0
 51135  1  0  0  0
 52136  1  0  0  0
 52137  1  0  0  0
 53 54  1  0  0  0
 54 55  2  0  0  0
 54138  1  0  0  0
 55 57  1  0  0  0
 55139  1  0  0  0
 56 69  2  0  0  0
 57 58  2  0  0  0
 57140  1  0  0  0
 58141  1  0  0  0
 59 60  1  0  0  0
 59 61  1  0  0  0
 59 62  1  0  0  0
 60142  1  0  0  0
 60143  1  0  0  0
 60144  1  0  0  0
 61145  1  0  0  0
 61146  1  0  0  0
 61147  1  0  0  0
 62148  1  0  0  0
 62149  1  0  0  0
 62150  1  0  0  0
 63 65  1  0  0  0
 63151  1  0  0  0
 63152  1  0  0  0
 63153  1  0  0  0
 64154  1  0  0  0
 65155  1  0  0  0
 68 90  1  0  0  0
 71 75  2  0  0  0
 71 77  1  0  0  0
 71156  1  0  0  0
 72 76  1  0  0  0
 72 77  2  0  0  0
 72157  1  0  0  0
 73 78  2  0  0  0
 73 79  1  0  0  0
 73158  1  0  0  0
 74 75  1  0  0  0
 74 76  2  0  0  0
 74 85  1  0  0  0
 75 86  1  0  0  0
 76 87  1  0  0  0
 77 95  1  0  0  0
 78 92  1  0  0  0
 78 95  1  0  0  0
 79 93  2  0  0  0
 79 96  1  0  0  0
 80 88  1  0  0  0
 80 92  2  0  0  0
 80 93  1  0  0  0
 81 83  1  0  0  0
 81 85  1  0  0  0
 81159  1  0  0  0
 81160  1  0  0  0
 82 84  1  0  0  0
 82 85  1  0  0  0
 82161  1  0  0  0
 82162  1  0  0  0
 83 94  1  0  0  0
 83163  1  0  0  0
 83164  1  0  0  0
 84 94  1  0  0  0
 84165  1  0  0  0
 84166  1  0  0  0
 85167  1  0  0  0
 86168  1  0  0  0
 86169  1  0  0  0
 86170  1  0  0  0
 87171  1  0  0  0
 87172  1  0  0  0
 87173  1  0  0  0
 88174  1  0  0  0
 88175  1  0  0  0
 88176  1  0  0  0
 89 90  1  0  0  0
 89 91  1  0  0  0
 89177  1  0  0  0
 89178  1  0  0  0
 90179  1  0  0  0
 90180  1  0  0  0
 91 96  1  0  0  0
 91181  1  0  0  0
 91182  1  0  0  0
 95183  1  0  0  0
M  ISO  4   1 100  68 101  90 101  94 100
M  END
> <chiral flag>
0

> <version>
0

> <s_m_source_file>
/data/baiqing/PycharmProjects/Reinvent-master-3.2/result/LINK_invent/BTK/process_docking_weight1_custom_sum_contain_oxygen_bond_distance_aromatic_linkinvent_7_9_3/rearranged_h_0018.sdf

> <i_m_source_file_index>
48

> <r_mmod_Potential_Energy-OPLS-2005>
-343.103149414062

> <r_mmod_Stretch_Energy-OPLS-2005>
39.4262428283691

> <r_mmod_Bend_Energy-OPLS-2005>
124.081993103027

> <r_mmod_Torsional_Energy-OPLS-2005>
339.07958984375

> <r_mmod_Improper_Torsional_Energy-OPLS-2005>
7.77745866775513

> <r_mmod_Van_der_Waal_Energy-OPLS-2005>
202.044479370117

> <r_mmod_Electrostatic_Energy-OPLS-2005>
-840.558715820312

> <r_mmod_Solvation_Energy-OPLS-2005>
-222.282485961914

> <b_mmod_Minimization_Converged-OPLS-2005>
0

> <r_mmod_RMS_Derivative-OPLS-2005>
1.63931977748871

$$$$
49
                    3D
 Structure written by MMmdl.
143150  0  0  1  0            999 V2000
  -30.1636  -16.0165   20.2837 C   0  0  0  0  0  0
  -30.4021  -13.3807   19.5097 C   0  0  0  0  0  0
  -29.5672  -12.7447   18.3499 C   0  0  0  0  0  0
  -28.1808  -12.2975   18.8321 C   0  0  0  0  0  0
  -27.5888  -13.3376   19.8001 C   0  0  2  0  0  0
  -28.5861  -13.8471   20.8777 C   0  0  0  0  0  0
  -25.2337  -13.8308   20.5832 C   0  0  0  0  0  0
  -24.1745  -13.0427   20.9297 C   0  0  0  0  0  0
  -24.6485  -11.6955   20.8763 C   0  0  0  0  0  0
  -23.9183  -10.4297   21.0405 C   0  0  0  0  0  0
  -24.3690   -9.4205   21.9200 C   0  0  0  0  0  0
  -23.6323   -8.2263   22.0773 C   0  0  0  0  0  0
  -22.4301   -8.0322   21.3557 C   0  0  0  0  0  0
  -21.9971   -9.0311   20.4658 C   0  0  0  0  0  0
  -22.7347  -10.2160   20.3056 C   0  0  0  0  0  0
  -21.6865   -6.0767   22.5277 C   0  0  0  0  0  0
  -21.4023   -6.5660   23.8211 C   0  0  0  0  0  0
  -21.3650   -5.6801   24.9170 C   0  0  0  0  0  0
  -21.6034   -4.3069   24.7210 C   0  0  0  0  0  0
  -21.8818   -3.8167   23.4328 C   0  0  0  0  0  0
  -21.9194   -4.6989   22.3390 C   0  0  0  0  0  0
  -22.7748  -13.5156   21.1899 C   0  0  0  0  0  0
  -22.1667   -4.2180   21.0968 F   0  0  0  0  0  0
  -21.5617   -3.4544   25.7721 F   0  0  0  0  0  0
  -29.6793  -14.5908   20.1704 N   0  0  0  0  0  0
  -26.2827  -12.9698   20.3296 N   0  0  0  0  0  0
  -25.9450  -11.6736   20.5678 N   0  0  0  0  0  0
  -22.0376  -12.8144   22.0431 N   0  0  0  0  0  0
  -25.3914  -15.2038   20.4227 N   0  0  0  0  0  0
  -31.4110  -15.8730   20.3150 O   0  0  0  0  0  0
  -21.6650   -6.8922   21.4243 O   0  0  0  0  0  0
  -22.3446  -14.5464   20.6738 O   0  0  0  0  0  0
  -24.7056  -31.7721   23.1279 C   0  0  0  0  0  0
  -25.9532  -32.4316   23.7901 C   0  0  1  0  0  0
  -27.2397  -26.4470   20.2423 C   0  0  0  0  0  0
  -25.6018  -33.8158   24.1777 N   0  0  0  0  0  0
  -23.5424  -30.3631   21.4905 C   0  0  2  0  0  0
  -25.0002  -28.6446   20.1351 C   0  0  0  0  0  0
  -22.7854  -29.4187   22.4644 C   0  0  0  0  0  0
  -18.0371  -28.1416   22.8423 C   0  0  0  0  0  0
  -24.1517  -36.7085   23.2660 C   0  0  0  0  0  0
  -26.1337  -30.4200   21.4327 C   0  0  0  0  0  0
  -26.1981  -28.9547   20.7902 C   0  0  0  0  0  0
  -27.2916  -27.8963   20.7967 C   0  0  0  0  0  0
  -26.0015  -26.4115   19.5305 C   0  0  0  0  0  0
  -24.9557  -27.3989   19.4822 C   0  0  0  0  0  0
  -23.8105  -29.6337   20.1397 C   0  0  0  0  0  0
  -25.4171  -36.2793   24.0256 C   0  0  1  0  0  0
  -20.6014  -28.3800   23.1070 C   0  0  2  0  0  0
  -20.6839  -26.9442   22.5381 C   0  0  0  0  0  0
  -19.5827  -26.6358   21.5191 C   0  0  0  0  0  0
  -18.2003  -26.7940   22.1583 C   0  0  0  0  0  0
  -19.1638  -28.8931   23.2716 C   0  0  0  0  0  0
  -18.9548  -30.1508   23.8772 C   0  0  0  0  0  0
  -17.6539  -30.6592   24.0541 C   0  0  0  0  0  0
  -25.9163  -34.9196   23.4875 C   0  0  0  0  0  0
  -16.5425  -29.9075   23.6350 C   0  0  0  0  0  0
  -16.7348  -28.6498   23.0359 C   0  0  0  0  0  0
  -26.4636  -31.6450   25.0620 C   0  0  0  0  0  0
  -25.3610  -31.3840   26.1159 C   0  0  0  0  0  0
  -27.0610  -30.2754   24.6715 C   0  0  0  0  0  0
  -27.6057  -32.4362   25.7419 C   0  0  0  0  0  0
  -27.5566  -37.1691   24.8469 C   0  0  0  0  0  0
  -21.4482  -29.3015   22.3371 N   0  0  0  0  0  0
  -26.4271  -37.3581   23.9410 N   0  0  0  0  0  0
  -24.8204  -30.8911   22.0685 N   0  0  0  0  0  0
  -23.4189  -28.7845   23.3110 O   0  0  0  0  0  0
  -28.2103  -25.1382   20.2091 O   0  0  0  0  0  0
  -26.5834  -34.8827   22.4520 O   0  0  0  0  0  0
  -23.6030  -32.0923   23.6086 O   0  0  0  0  0  0
  -28.1464  -17.3478   19.4672 C   0  0  0  0  0  0
  -28.8124  -21.3013   19.9737 C   0  0  0  0  0  0
  -29.3809  -19.3622   20.5689 C   0  0  0  0  0  0
  -28.2518  -23.2636   20.5080 C   0  0  0  0  0  0
  -29.4090  -17.4905   20.1879 N   0  0  0  0  0  0
  -31.3491  -13.7206   19.0871 H   0  0  0  0  0  0
  -30.6891  -12.6298   20.2484 H   0  0  0  0  0  0
  -30.1007  -11.9032   17.9056 H   0  0  0  0  0  0
  -29.4507  -13.4882   17.5599 H   0  0  0  0  0  0
  -28.2969  -11.3475   19.3561 H   0  0  0  0  0  0
  -27.5119  -12.1116   17.9905 H   0  0  0  0  0  0
  -27.3888  -14.1854   19.1460 H   0  0  0  0  0  0
  -28.9521  -13.0395   21.5131 H   0  0  0  0  0  0
  -28.0824  -14.5461   21.5462 H   0  0  0  0  0  0
  -25.2818   -9.5670   22.4811 H   0  0  0  0  0  0
  -24.0006   -7.4646   22.7503 H   0  0  0  0  0  0
  -21.0901   -8.8859   19.8964 H   0  0  0  0  0  0
  -22.3825  -10.9720   19.6176 H   0  0  0  0  0  0
  -21.2033   -7.6171   23.9723 H   0  0  0  0  0  0
  -21.1463   -6.0535   25.9069 H   0  0  0  0  0  0
  -22.0599   -2.7631   23.2819 H   0  0  0  0  0  0
  -22.3953  -11.9803   22.4832 H   0  0  0  0  0  0
  -21.0994  -13.1198   22.2586 H   0  0  0  0  0  0
  -24.6180  -15.8537   20.5135 H   0  0  0  0  0  0
  -26.2365  -15.6377   20.0778 H   0  0  0  0  0  0
  -26.7628  -32.4715   23.0604 H   0  0  0  0  0  0
  -25.0022  -33.9142   24.9835 H   0  0  0  0  0  0
  -22.8827  -31.2078   21.2796 H   0  0  0  0  0  0
  -23.3793  -35.9400   23.3237 H   0  0  0  0  0  0
  -24.3589  -36.8852   22.2098 H   0  0  0  0  0  0
  -23.7284  -37.6231   23.6819 H   0  0  0  0  0  0
  -26.3696  -31.1317   20.6405 H   0  0  0  0  0  0
  -26.9701  -30.4928   22.1139 H   0  0  0  0  0  0
  -28.1969  -28.1645   21.3228 H   0  0  0  0  0  0
  -25.7942  -25.4939   18.9988 H   0  0  0  0  0  0
  -24.0597  -27.1443   18.9321 H   0  0  0  0  0  0
  -24.0068  -30.3831   19.3723 H   0  0  0  0  0  0
  -22.9079  -29.1151   19.8100 H   0  0  0  0  0  0
  -25.1403  -36.1503   25.0741 H   0  0  0  0  0  0
  -21.0074  -28.3462   24.1202 H   0  0  0  0  0  0
  -20.5710  -26.2429   23.3662 H   0  0  0  0  0  0
  -21.6702  -26.7377   22.1213 H   0  0  0  0  0  0
  -19.7002  -25.6243   21.1297 H   0  0  0  0  0  0
  -19.6788  -27.3096   20.6667 H   0  0  0  0  0  0
  -17.4282  -26.6659   21.3976 H   0  0  0  0  0  0
  -18.0400  -26.0087   22.8982 H   0  0  0  0  0  0
  -19.8041  -30.7337   24.2090 H   0  0  0  0  0  0
  -17.5110  -31.6270   24.5154 H   0  0  0  0  0  0
  -15.5426  -30.2945   23.7749 H   0  0  0  0  0  0
  -15.8745  -28.0788   22.7127 H   0  0  0  0  0  0
  -24.5835  -30.7168   25.7404 H   0  0  0  0  0  0
  -24.8745  -32.3083   26.4274 H   0  0  0  0  0  0
  -25.7670  -30.9167   27.0138 H   0  0  0  0  0  0
  -26.3378  -29.6279   24.1734 H   0  0  0  0  0  0
  -27.3964  -29.7306   25.5554 H   0  0  0  0  0  0
  -27.9394  -30.3809   24.0341 H   0  0  0  0  0  0
  -27.2609  -33.3796   26.1651 H   0  0  0  0  0  0
  -28.4001  -32.6704   25.0320 H   0  0  0  0  0  0
  -28.0563  -31.8717   26.5586 H   0  0  0  0  0  0
  -28.2518  -38.0043   24.7519 H   0  0  0  0  0  0
  -28.1127  -36.2561   24.6293 H   0  0  0  0  0  0
  -27.2274  -37.1305   25.8866 H   0  0  0  0  0  0
  -20.9828  -29.8607   21.6350 H   0  0  0  0  0  0
  -26.0066  -38.2612   24.1440 H   0  0  0  0  0  0
  -28.1011  -18.0711   18.6522 H   0  0  0  0  0  0
  -27.3084  -17.5390   20.1372 H   0  0  0  0  0  0
  -28.0019  -16.3666   19.0140 H   0  0  0  0  0  0
  -28.0363  -21.0683   19.2450 H   0  0  0  0  0  0
  -29.6673  -21.5348   19.3396 H   0  0  0  0  0  0
  -28.8748  -19.3113   21.5346 H   0  0  0  0  0  0
  -30.4241  -19.5134   20.8524 H   0  0  0  0  0  0
  -27.2187  -23.1099   20.8199 H   0  0  0  0  0  0
  -28.7962  -23.3194   21.4512 H   0  0  0  0  0  0
  1 25  1  0  0  0
  1 30  2  0  0  0
  1 75  1  0  0  0
  2  3  1  0  0  0
  2 25  1  0  0  0
  2 76  1  0  0  0
  2 77  1  0  0  0
  3  4  1  0  0  0
  3 78  1  0  0  0
  3 79  1  0  0  0
  4  5  1  0  0  0
  4 80  1  0  0  0
  4 81  1  0  0  0
  5  6  1  0  0  0
  5 26  1  0  0  0
  5 82  1  0  0  0
  6 25  1  0  0  0
  6 83  1  0  0  0
  6 84  1  0  0  0
  7  8  2  0  0  0
  7 26  1  0  0  0
  7 29  1  0  0  0
  8  9  1  0  0  0
  8 22  1  0  0  0
  9 10  1  0  0  0
  9 27  2  0  0  0
 10 11  2  0  0  0
 10 15  1  0  0  0
 11 12  1  0  0  0
 11 85  1  0  0  0
 12 13  2  0  0  0
 12 86  1  0  0  0
 13 14  1  0  0  0
 13 31  1  0  0  0
 14 15  2  0  0  0
 14 87  1  0  0  0
 15 88  1  0  0  0
 16 17  2  0  0  0
 16 21  1  0  0  0
 16 31  1  0  0  0
 17 18  1  0  0  0
 17 89  1  0  0  0
 18 19  2  0  0  0
 18 90  1  0  0  0
 19 20  1  0  0  0
 19 24  1  0  0  0
 20 21  2  0  0  0
 20 91  1  0  0  0
 21 23  1  0  0  0
 22 28  1  0  0  0
 22 32  2  0  0  0
 26 27  1  0  0  0
 28 92  1  0  0  0
 28 93  1  0  0  0
 29 94  1  0  0  0
 29 95  1  0  0  0
 33 34  1  0  0  0
 33 66  1  0  0  0
 33 70  2  0  0  0
 34 36  1  0  0  0
 34 59  1  0  0  0
 34 96  1  0  0  0
 35 44  2  0  0  0
 35 45  1  0  0  0
 35 68  1  0  0  0
 36 56  1  0  0  0
 36 97  1  0  0  0
 37 39  1  0  0  0
 37 47  1  0  0  0
 37 66  1  0  0  0
 37 98  1  0  0  0
 38 43  2  0  0  0
 38 46  1  0  0  0
 38 47  1  0  0  0
 39 64  1  0  0  0
 39 67  2  0  0  0
 40 52  1  0  0  0
 40 53  2  0  0  0
 40 58  1  0  0  0
 41 99  1  0  0  0
 41100  1  0  0  0
 41101  1  0  0  0
 41 48  1  0  0  0
 42 43  1  0  0  0
 42 66  1  0  0  0
 42102  1  0  0  0
 42103  1  0  0  0
 43 44  1  0  0  0
 44104  1  0  0  0
 45 46  2  0  0  0
 45105  1  0  0  0
 46106  1  0  0  0
 47107  1  0  0  0
 47108  1  0  0  0
 48 56  1  0  0  0
 48 65  1  0  0  0
 48109  1  0  0  0
 49 50  1  0  0  0
 49 53  1  0  0  0
 49 64  1  0  0  0
 49110  1  0  0  0
 50 51  1  0  0  0
 50111  1  0  0  0
 50112  1  0  0  0
 51 52  1  0  0  0
 51113  1  0  0  0
 51114  1  0  0  0
 52115  1  0  0  0
 52116  1  0  0  0
 53 54  1  0  0  0
 54 55  2  0  0  0
 54117  1  0  0  0
 55 57  1  0  0  0
 55118  1  0  0  0
 56 69  2  0  0  0
 57 58  2  0  0  0
 57119  1  0  0  0
 58120  1  0  0  0
 59 60  1  0  0  0
 59 61  1  0  0  0
 59 62  1  0  0  0
 60121  1  0  0  0
 60122  1  0  0  0
 60123  1  0  0  0
 61124  1  0  0  0
 61125  1  0  0  0
 61126  1  0  0  0
 62127  1  0  0  0
 62128  1  0  0  0
 62129  1  0  0  0
 63 65  1  0  0  0
 63130  1  0  0  0
 63131  1  0  0  0
 63132  1  0  0  0
 64133  1  0  0  0
 65134  1  0  0  0
 68 74  1  0  0  0
 71 75  1  0  0  0
 71135  1  0  0  0
 71136  1  0  0  0
 71137  1  0  0  0
 72 73  1  0  0  0
 72 74  1  0  0  0
 72138  1  0  0  0
 72139  1  0  0  0
 73 75  1  0  0  0
 73140  1  0  0  0
 73141  1  0  0  0
 74142  1  0  0  0
 74143  1  0  0  0
M  ISO  4   1 100  68 101  74 101  75 100
M  END
> <chiral flag>
0

> <version>
0

> <s_m_source_file>
/data/baiqing/PycharmProjects/Reinvent-master-3.2/result/LINK_invent/BTK/process_docking_weight1_custom_sum_contain_oxygen_bond_distance_aromatic_linkinvent_7_9_3/rearranged_h_0018.sdf

> <i_m_source_file_index>
49

> <r_mmod_Potential_Energy-OPLS-2005>
4303.49072265625

> <r_mmod_Stretch_Energy-OPLS-2005>
1937.3203125

> <r_mmod_Bend_Energy-OPLS-2005>
891.069641113281

> <r_mmod_Torsional_Energy-OPLS-2005>
308.0107421875

> <r_mmod_Improper_Torsional_Energy-OPLS-2005>
4.89766931533813

> <r_mmod_Van_der_Waal_Energy-OPLS-2005>
112.25927734375

> <r_mmod_Electrostatic_Energy-OPLS-2005>
-274.442291259766

> <r_mmod_Solvation_Energy-OPLS-2005>
-215.008483886719

> <b_mmod_Minimization_Converged-OPLS-2005>
0

> <r_mmod_RMS_Derivative-OPLS-2005>
2.3036835193634

$$$$
50
                    3D
 Structure written by MMmdl.
150158  0  0  1  0            999 V2000
  -30.2514  -15.7706   20.3168 C   0  0  0  0  0  0
  -30.4144  -13.1827   19.5381 C   0  0  0  0  0  0
  -29.5541  -12.6888   18.3359 C   0  0  0  0  0  0
  -28.1388  -12.3022   18.7870 C   0  0  0  0  0  0
  -27.5906  -13.3208   19.8095 C   0  0  2  0  0  0
  -28.5986  -13.7128   20.9187 C   0  0  0  0  0  0
  -25.2300  -13.8301   20.5813 C   0  0  0  0  0  0
  -24.1704  -13.0434   20.9299 C   0  0  0  0  0  0
  -24.6424  -11.6951   20.8765 C   0  0  0  0  0  0
  -23.9130  -10.4293   21.0393 C   0  0  0  0  0  0
  -24.3661   -9.4206   21.9177 C   0  0  0  0  0  0
  -23.6317   -8.2248   22.0753 C   0  0  0  0  0  0
  -22.4297   -8.0291   21.3545 C   0  0  0  0  0  0
  -21.9947   -9.0266   20.4642 C   0  0  0  0  0  0
  -22.7295  -10.2136   20.3046 C   0  0  0  0  0  0
  -21.6861   -6.0744   22.5279 C   0  0  0  0  0  0
  -21.4020   -6.5644   23.8212 C   0  0  0  0  0  0
  -21.3659   -5.6795   24.9175 C   0  0  0  0  0  0
  -21.6044   -4.3057   24.7223 C   0  0  0  0  0  0
  -21.8818   -3.8152   23.4344 C   0  0  0  0  0  0
  -21.9195   -4.6969   22.3401 C   0  0  0  0  0  0
  -22.7713  -13.5155   21.1928 C   0  0  0  0  0  0
  -22.1662   -4.2156   21.0979 F   0  0  0  0  0  0
  -21.5625   -3.4540   25.7735 F   0  0  0  0  0  0
  -29.7490  -14.3787   20.2516 N   0  0  0  0  0  0
  -26.2763  -12.9657   20.3248 N   0  0  0  0  0  0
  -25.9375  -11.6713   20.5692 N   0  0  0  0  0  0
  -22.0384  -12.8126   22.0480 N   0  0  0  0  0  0
  -25.3869  -15.2045   20.4249 N   0  0  0  0  0  0
  -31.4902  -15.6777   20.1851 O   0  0  0  0  0  0
  -21.6650   -6.8892   21.4244 O   0  0  0  0  0  0
  -22.3385  -14.5452   20.6764 O   0  0  0  0  0  0
  -24.6937  -31.7881   23.1424 C   0  0  0  0  0  0
  -25.9469  -32.4406   23.8009 C   0  0  1  0  0  0
  -27.2302  -26.5991   20.2241 C   0  0  0  0  0  0
  -25.6008  -33.8237   24.1889 N   0  0  0  0  0  0
  -23.5245  -30.3854   21.4990 C   0  0  2  0  0  0
  -24.9829  -28.7045   20.1211 C   0  0  0  0  0  0
  -22.7810  -29.4255   22.4682 C   0  0  0  0  0  0
  -18.0347  -28.1430   22.8452 C   0  0  0  0  0  0
  -24.1494  -36.7124   23.2656 C   0  0  0  0  0  0
  -26.1098  -30.4873   21.4222 C   0  0  0  0  0  0
  -26.1743  -29.0405   20.7741 C   0  0  0  0  0  0
  -27.2783  -28.0193   20.7889 C   0  0  0  0  0  0
  -26.0039  -26.4990   19.5120 C   0  0  0  0  0  0
  -24.9430  -27.4608   19.4654 C   0  0  0  0  0  0
  -23.7839  -29.6726   20.1389 C   0  0  0  0  0  0
  -25.4148  -36.2859   24.0274 C   0  0  1  0  0  0
  -20.5987  -28.3794   23.1124 C   0  0  2  0  0  0
  -20.6807  -26.9443   22.5408 C   0  0  0  0  0  0
  -19.5784  -26.6370   21.5221 C   0  0  0  0  0  0
  -18.1966  -26.7957   22.1619 C   0  0  0  0  0  0
  -19.1615  -28.8939   23.2765 C   0  0  0  0  0  0
  -18.9519  -30.1520   23.8815 C   0  0  0  0  0  0
  -17.6508  -30.6610   24.0550 C   0  0  0  0  0  0
  -25.9136  -34.9253   23.4924 C   0  0  0  0  0  0
  -16.5396  -29.9090   23.6355 C   0  0  0  0  0  0
  -16.7326  -28.6513   23.0371 C   0  0  0  0  0  0
  -26.4612  -31.6483   25.0674 C   0  0  0  0  0  0
  -25.3649  -31.3834   26.1269 C   0  0  0  0  0  0
  -27.0562  -30.2809   24.6651 C   0  0  0  0  0  0
  -27.6042  -32.4366   25.7499 C   0  0  0  0  0  0
  -27.5557  -37.1721   24.8468 C   0  0  0  0  0  0
  -21.4448  -29.3021   22.3432 N   0  0  0  0  0  0
  -26.4264  -37.3632   23.9408 N   0  0  0  0  0  0
  -24.8007  -30.9224   22.0734 N   0  0  0  0  0  0
  -23.4207  -28.7875   23.3074 O   0  0  0  0  0  0
  -28.1788  -25.3320   20.2913 O   0  0  0  0  0  0
  -26.5789  -34.8853   22.4550 O   0  0  0  0  0  0
  -23.5935  -32.1005   23.6312 O   0  0  0  0  0  0
  -31.2209  -20.8472   20.4944 C   0  0  0  0  0  0
  -30.3371  -21.9806   20.4197 C   0  0  0  0  0  0
  -28.9257  -21.8830   20.2893 C   0  0  0  0  0  0
  -28.6464  -20.2628   20.2542 C   0  0  0  0  0  0
  -29.5931  -18.9237   20.3332 C   0  0  0  0  0  0
  -30.9045  -19.4481   20.4574 C   0  0  0  0  0  0
  -30.9584  -23.3654   20.4796 C   0  0  0  0  0  0
  -27.1790  -19.9162   20.1159 C   0  0  0  0  0  0
  -27.9560  -23.5376   20.1834 C   0  0  0  0  0  0
  -29.4712  -17.1608   20.3289 N   0  0  0  0  0  0
  -31.9369  -18.5790   20.5576 F   0  0  0  0  0  0
  -31.3958  -13.4658   19.1561 H   0  0  0  0  0  0
  -30.6114  -12.3659   20.2346 H   0  0  0  0  0  0
  -30.0362  -11.8455   17.8394 H   0  0  0  0  0  0
  -29.4905  -13.4866   17.5944 H   0  0  0  0  0  0
  -28.1911  -11.3160   19.2498 H   0  0  0  0  0  0
  -27.4704  -12.2081   17.9302 H   0  0  0  0  0  0
  -27.4336  -14.2231   19.2164 H   0  0  0  0  0  0
  -28.8912  -12.8544   21.5253 H   0  0  0  0  0  0
  -28.1385  -14.4264   21.6039 H   0  0  0  0  0  0
  -25.2799   -9.5678   22.4763 H   0  0  0  0  0  0
  -24.0017   -7.4642   22.7479 H   0  0  0  0  0  0
  -21.0877   -8.8797   19.8948 H   0  0  0  0  0  0
  -22.3755  -10.9678   19.6157 H   0  0  0  0  0  0
  -21.2017   -7.6154   23.9720 H   0  0  0  0  0  0
  -21.1480   -6.0524   25.9077 H   0  0  0  0  0  0
  -22.0596   -2.7614   23.2842 H   0  0  0  0  0  0
  -22.4030  -11.9804   22.4874 H   0  0  0  0  0  0
  -21.0987  -13.1112   22.2675 H   0  0  0  0  0  0
  -24.6116  -15.8491   20.5350 H   0  0  0  0  0  0
  -26.2228  -15.6472   20.0688 H   0  0  0  0  0  0
  -26.7564  -32.4851   23.0728 H   0  0  0  0  0  0
  -25.0052  -33.9259   24.9975 H   0  0  0  0  0  0
  -22.8555  -31.2253   21.2999 H   0  0  0  0  0  0
  -23.3776  -35.9431   23.3261 H   0  0  0  0  0  0
  -24.3560  -36.8848   22.2083 H   0  0  0  0  0  0
  -23.7232  -37.6276   23.6777 H   0  0  0  0  0  0
  -26.3231  -31.2062   20.6301 H   0  0  0  0  0  0
  -26.9568  -30.5586   22.0918 H   0  0  0  0  0  0
  -28.1730  -28.2874   21.3328 H   0  0  0  0  0  0
  -25.8203  -25.5639   19.0020 H   0  0  0  0  0  0
  -24.0467  -27.1927   18.9231 H   0  0  0  0  0  0
  -23.9677  -30.4284   19.3743 H   0  0  0  0  0  0
  -22.8864  -29.1447   19.8117 H   0  0  0  0  0  0
  -25.1364  -36.1604   25.0764 H   0  0  0  0  0  0
  -21.0066  -28.3428   24.1251 H   0  0  0  0  0  0
  -20.5664  -26.2420   23.3680 H   0  0  0  0  0  0
  -21.6668  -26.7371   22.1229 H   0  0  0  0  0  0
  -19.6938  -25.6259   21.1302 H   0  0  0  0  0  0
  -19.6732  -27.3138   20.6717 H   0  0  0  0  0  0
  -17.4237  -26.6702   21.4020 H   0  0  0  0  0  0
  -18.0348  -26.0123   22.9035 H   0  0  0  0  0  0
  -19.7994  -30.7359   24.2147 H   0  0  0  0  0  0
  -17.5057  -31.6281   24.5169 H   0  0  0  0  0  0
  -15.5393  -30.2965   23.7729 H   0  0  0  0  0  0
  -15.8725  -28.0804   22.7133 H   0  0  0  0  0  0
  -24.5866  -30.7148   25.7568 H   0  0  0  0  0  0
  -24.8802  -32.3067   26.4454 H   0  0  0  0  0  0
  -25.7803  -30.9156   27.0203 H   0  0  0  0  0  0
  -26.3304  -29.6389   24.1651 H   0  0  0  0  0  0
  -27.3957  -29.7299   25.5431 H   0  0  0  0  0  0
  -27.9294  -30.3912   24.0218 H   0  0  0  0  0  0
  -27.2573  -33.3755   26.1827 H   0  0  0  0  0  0
  -28.3982  -32.6786   25.0421 H   0  0  0  0  0  0
  -28.0563  -31.8659   26.5621 H   0  0  0  0  0  0
  -28.2542  -38.0046   24.7512 H   0  0  0  0  0  0
  -28.1084  -36.2567   24.6299 H   0  0  0  0  0  0
  -27.2273  -37.1360   25.8871 H   0  0  0  0  0  0
  -20.9777  -29.8656   21.6464 H   0  0  0  0  0  0
  -26.0078  -38.2674   24.1422 H   0  0  0  0  0  0
  -32.2749  -21.0627   20.5933 H   0  0  0  0  0  0
  -32.0392  -23.3235   20.6181 H   0  0  0  0  0  0
  -30.5427  -23.9376   21.3096 H   0  0  0  0  0  0
  -30.7636  -23.9107   19.5556 H   0  0  0  0  0  0
  -26.5753  -20.8012   19.9147 H   0  0  0  0  0  0
  -26.8119  -19.4547   21.0327 H   0  0  0  0  0  0
  -27.0300  -19.2130   19.2959 H   0  0  0  0  0  0
  -27.1567  -23.3698   20.9051 H   0  0  0  0  0  0
  -27.4542  -23.4349   19.2212 H   0  0  0  0  0  0
  -28.4943  -16.9100   20.3388 H   0  0  0  0  0  0
  1 25  1  0  0  0
  1 30  2  0  0  0
  1 80  1  0  0  0
  2  3  1  0  0  0
  2 25  1  0  0  0
  2 82  1  0  0  0
  2 83  1  0  0  0
  3  4  1  0  0  0
  3 84  1  0  0  0
  3 85  1  0  0  0
  4  5  1  0  0  0
  4 86  1  0  0  0
  4 87  1  0  0  0
  5  6  1  0  0  0
  5 26  1  0  0  0
  5 88  1  0  0  0
  6 25  1  0  0  0
  6 89  1  0  0  0
  6 90  1  0  0  0
  7  8  2  0  0  0
  7 26  1  0  0  0
  7 29  1  0  0  0
  8  9  1  0  0  0
  8 22  1  0  0  0
  9 10  1  0  0  0
  9 27  2  0  0  0
 10 11  2  0  0  0
 10 15  1  0  0  0
 11 12  1  0  0  0
 11 91  1  0  0  0
 12 13  2  0  0  0
 12 92  1  0  0  0
 13 14  1  0  0  0
 13 31  1  0  0  0
 14 15  2  0  0  0
 14 93  1  0  0  0
 15 94  1  0  0  0
 16 17  2  0  0  0
 16 21  1  0  0  0
 16 31  1  0  0  0
 17 18  1  0  0  0
 17 95  1  0  0  0
 18 19  2  0  0  0
 18 96  1  0  0  0
 19 20  1  0  0  0
 19 24  1  0  0  0
 20 21  2  0  0  0
 20 97  1  0  0  0
 21 23  1  0  0  0
 22 28  1  0  0  0
 22 32  2  0  0  0
 26 27  1  0  0  0
 28 98  1  0  0  0
 28 99  1  0  0  0
 29100  1  0  0  0
 29101  1  0  0  0
 33 34  1  0  0  0
 33 66  1  0  0  0
 33 70  2  0  0  0
 34 36  1  0  0  0
 34 59  1  0  0  0
 34102  1  0  0  0
 35 44  2  0  0  0
 35 45  1  0  0  0
 35 68  1  0  0  0
 36 56  1  0  0  0
 36103  1  0  0  0
 37 39  1  0  0  0
 37 47  1  0  0  0
 37 66  1  0  0  0
 37104  1  0  0  0
 38 43  2  0  0  0
 38 46  1  0  0  0
 38 47  1  0  0  0
 39 64  1  0  0  0
 39 67  2  0  0  0
 40 52  1  0  0  0
 40 53  2  0  0  0
 40 58  1  0  0  0
 41105  1  0  0  0
 41106  1  0  0  0
 41107  1  0  0  0
 41 48  1  0  0  0
 42 43  1  0  0  0
 42 66  1  0  0  0
 42108  1  0  0  0
 42109  1  0  0  0
 43 44  1  0  0  0
 44110  1  0  0  0
 45 46  2  0  0  0
 45111  1  0  0  0
 46112  1  0  0  0
 47113  1  0  0  0
 47114  1  0  0  0
 48 56  1  0  0  0
 48 65  1  0  0  0
 48115  1  0  0  0
 49 50  1  0  0  0
 49 53  1  0  0  0
 49 64  1  0  0  0
 49116  1  0  0  0
 50 51  1  0  0  0
 50117  1  0  0  0
 50118  1  0  0  0
 51 52  1  0  0  0
 51119  1  0  0  0
 51120  1  0  0  0
 52121  1  0  0  0
 52122  1  0  0  0
 53 54  1  0  0  0
 54 55  2  0  0  0
 54123  1  0  0  0
 55 57  1  0  0  0
 55124  1  0  0  0
 56 69  2  0  0  0
 57 58  2  0  0  0
 57125  1  0  0  0
 58126  1  0  0  0
 59 60  1  0  0  0
 59 61  1  0  0  0
 59 62  1  0  0  0
 60127  1  0  0  0
 60128  1  0  0  0
 60129  1  0  0  0
 61130  1  0  0  0
 61131  1  0  0  0
 61132  1  0  0  0
 62133  1  0  0  0
 62134  1  0  0  0
 62135  1  0  0  0
 63 65  1  0  0  0
 63136  1  0  0  0
 63137  1  0  0  0
 63138  1  0  0  0
 64139  1  0  0  0
 65140  1  0  0  0
 68 79  1  0  0  0
 71 72  2  0  0  0
 71 76  1  0  0  0
 71141  1  0  0  0
 72 73  1  0  0  0
 72 77  1  0  0  0
 73 74  2  0  0  0
 73 79  1  0  0  0
 74 75  1  0  0  0
 74 78  1  0  0  0
 75 76  2  0  0  0
 75 80  1  0  0  0
 76 81  1  0  0  0
 77142  1  0  0  0
 77143  1  0  0  0
 77144  1  0  0  0
 78145  1  0  0  0
 78146  1  0  0  0
 78147  1  0  0  0
 79148  1  0  0  0
 79149  1  0  0  0
 80150  1  0  0  0
M  ISO  4   1 100  68 101  79 101  80 100
M  END
> <chiral flag>
0

> <version>
0

> <s_m_source_file>
/data/baiqing/PycharmProjects/Reinvent-master-3.2/result/LINK_invent/BTK/process_docking_weight1_custom_sum_contain_oxygen_bond_distance_aromatic_linkinvent_7_9_3/rearranged_h_0018.sdf

> <i_m_source_file_index>
50

> <r_mmod_Potential_Energy-OPLS-2005>
2800.37768554688

> <r_mmod_Stretch_Energy-OPLS-2005>
1269.21569824219

> <r_mmod_Bend_Energy-OPLS-2005>
637.469360351562

> <r_mmod_Torsional_Energy-OPLS-2005>
222.817169189453

> <r_mmod_Improper_Torsional_Energy-OPLS-2005>
4.2675404548645

> <r_mmod_Van_der_Waal_Energy-OPLS-2005>
125.55899810791

> <r_mmod_Electrostatic_Energy-OPLS-2005>
-364.668609619141

> <r_mmod_Solvation_Energy-OPLS-2005>
-215.393112182617

> <b_mmod_Minimization_Converged-OPLS-2005>
0

> <r_mmod_RMS_Derivative-OPLS-2005>
0.347895950078964

$$$$
51
                    3D
 Structure written by MMmdl.
159167  0  0  1  0            999 V2000
  -30.2546  -15.7787   20.3281 C   0  0  0  0  0  0
  -30.4135  -13.1964   19.5257 C   0  0  0  0  0  0
  -29.5510  -12.6873   18.3317 C   0  0  0  0  0  0
  -28.1404  -12.2960   18.7925 C   0  0  0  0  0  0
  -27.5892  -13.3204   19.8063 C   0  0  2  0  0  0
  -28.6000  -13.7212   20.9102 C   0  0  0  0  0  0
  -25.2299  -13.8301   20.5818 C   0  0  0  0  0  0
  -24.1704  -13.0431   20.9307 C   0  0  0  0  0  0
  -24.6426  -11.6950   20.8770 C   0  0  0  0  0  0
  -23.9133  -10.4289   21.0392 C   0  0  0  0  0  0
  -24.3664   -9.4200   21.9177 C   0  0  0  0  0  0
  -23.6314   -8.2245   22.0753 C   0  0  0  0  0  0
  -22.4293   -8.0289   21.3545 C   0  0  0  0  0  0
  -21.9946   -9.0268   20.4646 C   0  0  0  0  0  0
  -22.7296  -10.2132   20.3045 C   0  0  0  0  0  0
  -21.6856   -6.0741   22.5278 C   0  0  0  0  0  0
  -21.4020   -6.5643   23.8214 C   0  0  0  0  0  0
  -21.3659   -5.6793   24.9173 C   0  0  0  0  0  0
  -21.6041   -4.3056   24.7224 C   0  0  0  0  0  0
  -21.8820   -3.8149   23.4344 C   0  0  0  0  0  0
  -21.9195   -4.6968   22.3401 C   0  0  0  0  0  0
  -22.7712  -13.5146   21.1933 C   0  0  0  0  0  0
  -22.1659   -4.2151   21.0978 F   0  0  0  0  0  0
  -21.5624   -3.4539   25.7735 F   0  0  0  0  0  0
  -29.7428  -14.3924   20.2338 N   0  0  0  0  0  0
  -26.2762  -12.9657   20.3254 N   0  0  0  0  0  0
  -25.9377  -11.6716   20.5700 N   0  0  0  0  0  0
  -22.0382  -12.8121   22.0487 N   0  0  0  0  0  0
  -25.3868  -15.2046   20.4264 N   0  0  0  0  0  0
  -31.4949  -15.6731   20.2188 O   0  0  0  0  0  0
  -21.6647   -6.8890   21.4244 O   0  0  0  0  0  0
  -22.3385  -14.5441   20.6761 O   0  0  0  0  0  0
  -24.6929  -31.7893   23.1424 C   0  0  0  0  0  0
  -25.9462  -32.4415   23.8004 C   0  0  1  0  0  0
  -27.2298  -26.6001   20.2263 C   0  0  0  0  0  0
  -25.6005  -33.8242   24.1886 N   0  0  0  0  0  0
  -23.5240  -30.3864   21.4982 C   0  0  2  0  0  0
  -24.9835  -28.7071   20.1180 C   0  0  0  0  0  0
  -22.7811  -29.4257   22.4670 C   0  0  0  0  0  0
  -18.0342  -28.1441   22.8461 C   0  0  0  0  0  0
  -24.1483  -36.7120   23.2653 C   0  0  0  0  0  0
  -26.1084  -30.4889   21.4224 C   0  0  0  0  0  0
  -26.1726  -29.0418   20.7749 C   0  0  0  0  0  0
  -27.2747  -28.0190   20.7951 C   0  0  0  0  0  0
  -26.0083  -26.5027   19.5048 C   0  0  0  0  0  0
  -24.9463  -27.4651   19.4588 C   0  0  0  0  0  0
  -23.7845  -29.6759   20.1365 C   0  0  0  0  0  0
  -25.4140  -36.2860   24.0272 C   0  0  1  0  0  0
  -20.5992  -28.3800   23.1129 C   0  0  2  0  0  0
  -20.6812  -26.9450   22.5411 C   0  0  0  0  0  0
  -19.5788  -26.6378   21.5229 C   0  0  0  0  0  0
  -18.1966  -26.7968   22.1621 C   0  0  0  0  0  0
  -19.1616  -28.8945   23.2776 C   0  0  0  0  0  0
  -18.9519  -30.1529   23.8825 C   0  0  0  0  0  0
  -17.6512  -30.6623   24.0553 C   0  0  0  0  0  0
  -25.9130  -34.9256   23.4919 C   0  0  0  0  0  0
  -16.5398  -29.9104   23.6361 C   0  0  0  0  0  0
  -16.7319  -28.6525   23.0380 C   0  0  0  0  0  0
  -26.4610  -31.6496   25.0667 C   0  0  0  0  0  0
  -25.3643  -31.3854   26.1263 C   0  0  0  0  0  0
  -27.0551  -30.2823   24.6631 C   0  0  0  0  0  0
  -27.6046  -32.4370   25.7489 C   0  0  0  0  0  0
  -27.5550  -37.1718   24.8467 C   0  0  0  0  0  0
  -21.4452  -29.3025   22.3433 N   0  0  0  0  0  0
  -26.4254  -37.3638   23.9413 N   0  0  0  0  0  0
  -24.7998  -30.9240   22.0731 N   0  0  0  0  0  0
  -23.4219  -28.7864   23.3049 O   0  0  0  0  0  0
  -28.1710  -25.3287   20.3247 O   0  0  0  0  0  0
  -26.5780  -34.8855   22.4543 O   0  0  0  0  0  0
  -23.5927  -32.1003   23.6321 O   0  0  0  0  0  0
  -29.9917  -21.9390   21.2777 C   0  0  0  0  0  0
  -28.8739  -21.8742   20.4247 C   0  0  0  0  0  0
  -30.8107  -20.8415   21.7537 C   0  0  0  0  0  0
  -29.5771  -18.9428   20.5058 C   0  0  0  0  0  0
  -28.7347  -20.2806   20.0950 C   0  0  0  0  0  0
  -30.6118  -19.4395   21.3660 C   0  0  0  0  0  0
  -33.6463  -21.2195   20.7797 C   0  0  0  0  0  0
  -31.6951  -20.6064   24.1611 C   0  0  0  0  0  0
  -32.0242  -22.7579   23.0828 C   0  0  0  0  0  0
  -27.9909  -23.5419   20.0825 C   0  0  0  0  0  0
  -33.3774  -20.8717   22.2539 C   0  0  0  0  0  0
  -31.9510  -21.2345   22.7675 C   0  0  0  0  0  0
  -29.4920  -17.1814   20.2855 N   0  0  0  0  0  0
  -27.3830  -19.9239   19.0844 Cl  0  0  0  0  0  0
  -31.6538  -18.2161   22.0092 Cl  0  0  0  0  0  0
  -31.3882  -13.4874   19.1334 H   0  0  0  0  0  0
  -30.6255  -12.3875   20.2266 H   0  0  0  0  0  0
  -30.0357  -11.8424   17.8401 H   0  0  0  0  0  0
  -29.4790  -13.4781   17.5831 H   0  0  0  0  0  0
  -28.2035  -11.3166   19.2678 H   0  0  0  0  0  0
  -27.4687  -12.1856   17.9402 H   0  0  0  0  0  0
  -27.4277  -14.2168   19.2060 H   0  0  0  0  0  0
  -28.9010  -12.8663   21.5173 H   0  0  0  0  0  0
  -28.1390  -14.4340   21.5959 H   0  0  0  0  0  0
  -25.2801   -9.5665   22.4761 H   0  0  0  0  0  0
  -24.0007   -7.4639   22.7481 H   0  0  0  0  0  0
  -21.0869   -8.8803   19.8958 H   0  0  0  0  0  0
  -22.3759  -10.9675   19.6154 H   0  0  0  0  0  0
  -21.2018   -7.6152   23.9717 H   0  0  0  0  0  0
  -21.1474   -6.0522   25.9074 H   0  0  0  0  0  0
  -22.0597   -2.7611   23.2844 H   0  0  0  0  0  0
  -22.4027  -11.9796   22.4878 H   0  0  0  0  0  0
  -21.0992  -13.1115   22.2687 H   0  0  0  0  0  0
  -24.6132  -15.8504   20.5413 H   0  0  0  0  0  0
  -26.2271  -15.6511   20.0859 H   0  0  0  0  0  0
  -26.7549  -32.4865   23.0717 H   0  0  0  0  0  0
  -25.0084  -33.9264   24.9998 H   0  0  0  0  0  0
  -22.8536  -31.2262   21.3001 H   0  0  0  0  0  0
  -23.3769  -35.9425   23.3256 H   0  0  0  0  0  0
  -24.3552  -36.8850   22.2082 H   0  0  0  0  0  0
  -23.7222  -37.6264   23.6781 H   0  0  0  0  0  0
  -26.3206  -31.2064   20.6290 H   0  0  0  0  0  0
  -26.9561  -30.5638   22.0905 H   0  0  0  0  0  0
  -28.1632  -28.2840   21.3503 H   0  0  0  0  0  0
  -25.8239  -25.5685   18.9935 H   0  0  0  0  0  0
  -24.0514  -27.1980   18.9131 H   0  0  0  0  0  0
  -23.9683  -30.4333   19.3730 H   0  0  0  0  0  0
  -22.8874  -29.1483   19.8076 H   0  0  0  0  0  0
  -25.1359  -36.1592   25.0761 H   0  0  0  0  0  0
  -21.0072  -28.3429   24.1257 H   0  0  0  0  0  0
  -20.5687  -26.2419   23.3679 H   0  0  0  0  0  0
  -21.6668  -26.7390   22.1225 H   0  0  0  0  0  0
  -19.6937  -25.6265   21.1314 H   0  0  0  0  0  0
  -19.6741  -27.3147   20.6730 H   0  0  0  0  0  0
  -17.4244  -26.6725   21.4013 H   0  0  0  0  0  0
  -18.0333  -26.0134   22.9036 H   0  0  0  0  0  0
  -19.7996  -30.7371   24.2155 H   0  0  0  0  0  0
  -17.5060  -31.6291   24.5176 H   0  0  0  0  0  0
  -15.5395  -30.2988   23.7733 H   0  0  0  0  0  0
  -15.8717  -28.0821   22.7142 H   0  0  0  0  0  0
  -24.5845  -30.7192   25.7555 H   0  0  0  0  0  0
  -24.8817  -32.3095   26.4451 H   0  0  0  0  0  0
  -25.7789  -30.9160   27.0195 H   0  0  0  0  0  0
  -26.3280  -29.6414   24.1635 H   0  0  0  0  0  0
  -27.3962  -29.7301   25.5399 H   0  0  0  0  0  0
  -27.9271  -30.3929   24.0185 H   0  0  0  0  0  0
  -27.2584  -33.3765   26.1807 H   0  0  0  0  0  0
  -28.3992  -32.6780   25.0415 H   0  0  0  0  0  0
  -28.0561  -31.8665   26.5615 H   0  0  0  0  0  0
  -28.2535  -38.0045   24.7516 H   0  0  0  0  0  0
  -28.1075  -36.2564   24.6285 H   0  0  0  0  0  0
  -27.2269  -37.1346   25.8872 H   0  0  0  0  0  0
  -20.9763  -29.8658   21.6474 H   0  0  0  0  0  0
  -26.0056  -38.2668   24.1458 H   0  0  0  0  0  0
  -30.1825  -22.9515   21.5870 H   0  0  0  0  0  0
  -34.6780  -20.9886   20.5140 H   0  0  0  0  0  0
  -33.4885  -22.2786   20.5766 H   0  0  0  0  0  0
  -33.0048  -20.6508   20.1066 H   0  0  0  0  0  0
  -30.7197  -20.9012   24.5498 H   0  0  0  0  0  0
  -32.4407  -20.9335   24.8866 H   0  0  0  0  0  0
  -31.7269  -19.5216   24.1839 H   0  0  0  0  0  0
  -31.1081  -23.1273   23.5463 H   0  0  0  0  0  0
  -32.2262  -23.3615   22.1983 H   0  0  0  0  0  0
  -32.8225  -22.9868   23.7894 H   0  0  0  0  0  0
  -27.0011  -23.3563   20.4994 H   0  0  0  0  0  0
  -27.8243  -23.4827   19.0069 H   0  0  0  0  0  0
  -34.1292  -21.3616   22.8744 H   0  0  0  0  0  0
  -33.5970  -19.8169   22.3959 H   0  0  0  0  0  0
  -28.5329  -16.9459   20.0808 H   0  0  0  0  0  0
  1 25  1  0  0  0
  1 30  2  0  0  0
  1 83  1  0  0  0
  2  3  1  0  0  0
  2 25  1  0  0  0
  2 86  1  0  0  0
  2 87  1  0  0  0
  3  4  1  0  0  0
  3 88  1  0  0  0
  3 89  1  0  0  0
  4  5  1  0  0  0
  4 90  1  0  0  0
  4 91  1  0  0  0
  5  6  1  0  0  0
  5 26  1  0  0  0
  5 92  1  0  0  0
  6 25  1  0  0  0
  6 93  1  0  0  0
  6 94  1  0  0  0
  7  8  2  0  0  0
  7 26  1  0  0  0
  7 29  1  0  0  0
  8  9  1  0  0  0
  8 22  1  0  0  0
  9 10  1  0  0  0
  9 27  2  0  0  0
 10 11  2  0  0  0
 10 15  1  0  0  0
 11 12  1  0  0  0
 11 95  1  0  0  0
 12 13  2  0  0  0
 12 96  1  0  0  0
 13 14  1  0  0  0
 13 31  1  0  0  0
 14 15  2  0  0  0
 14 97  1  0  0  0
 15 98  1  0  0  0
 16 17  2  0  0  0
 16 21  1  0  0  0
 16 31  1  0  0  0
 17 18  1  0  0  0
 17 99  1  0  0  0
 18 19  2  0  0  0
 18100  1  0  0  0
 19 20  1  0  0  0
 19 24  1  0  0  0
 20 21  2  0  0  0
 20101  1  0  0  0
 21 23  1  0  0  0
 22 28  1  0  0  0
 22 32  2  0  0  0
 26 27  1  0  0  0
 28102  1  0  0  0
 28103  1  0  0  0
 29104  1  0  0  0
 29105  1  0  0  0
 33 34  1  0  0  0
 33 66  1  0  0  0
 33 70  2  0  0  0
 34 36  1  0  0  0
 34 59  1  0  0  0
 34106  1  0  0  0
 35 44  2  0  0  0
 35 45  1  0  0  0
 35 68  1  0  0  0
 36 56  1  0  0  0
 36107  1  0  0  0
 37 39  1  0  0  0
 37 47  1  0  0  0
 37 66  1  0  0  0
 37108  1  0  0  0
 38 43  2  0  0  0
 38 46  1  0  0  0
 38 47  1  0  0  0
 39 64  1  0  0  0
 39 67  2  0  0  0
 40 52  1  0  0  0
 40 53  2  0  0  0
 40 58  1  0  0  0
 41109  1  0  0  0
 41110  1  0  0  0
 41111  1  0  0  0
 41 48  1  0  0  0
 42 43  1  0  0  0
 42 66  1  0  0  0
 42112  1  0  0  0
 42113  1  0  0  0
 43 44  1  0  0  0
 44114  1  0  0  0
 45 46  2  0  0  0
 45115  1  0  0  0
 46116  1  0  0  0
 47117  1  0  0  0
 47118  1  0  0  0
 48 56  1  0  0  0
 48 65  1  0  0  0
 48119  1  0  0  0
 49 50  1  0  0  0
 49 53  1  0  0  0
 49 64  1  0  0  0
 49120  1  0  0  0
 50 51  1  0  0  0
 50121  1  0  0  0
 50122  1  0  0  0
 51 52  1  0  0  0
 51123  1  0  0  0
 51124  1  0  0  0
 52125  1  0  0  0
 52126  1  0  0  0
 53 54  1  0  0  0
 54 55  2  0  0  0
 54127  1  0  0  0
 55 57  1  0  0  0
 55128  1  0  0  0
 56 69  2  0  0  0
 57 58  2  0  0  0
 57129  1  0  0  0
 58130  1  0  0  0
 59 60  1  0  0  0
 59 61  1  0  0  0
 59 62  1  0  0  0
 60131  1  0  0  0
 60132  1  0  0  0
 60133  1  0  0  0
 61134  1  0  0  0
 61135  1  0  0  0
 61136  1  0  0  0
 62137  1  0  0  0
 62138  1  0  0  0
 62139  1  0  0  0
 63 65  1  0  0  0
 63140  1  0  0  0
 63141  1  0  0  0
 63142  1  0  0  0
 64143  1  0  0  0
 65144  1  0  0  0
 68 80  1  0  0  0
 71 72  2  0  0  0
 71 73  1  0  0  0
 71145  1  0  0  0
 72 75  1  0  0  0
 72 80  1  0  0  0
 73 76  2  0  0  0
 73 82  1  0  0  0
 74 75  2  0  0  0
 74 76  1  0  0  0
 74 83  1  0  0  0
 75 84  1  0  0  0
 76 85  1  0  0  0
 77 81  1  0  0  0
 77146  1  0  0  0
 77147  1  0  0  0
 77148  1  0  0  0
 78149  1  0  0  0
 78150  1  0  0  0
 78151  1  0  0  0
 78 82  1  0  0  0
 79 82  1  0  0  0
 79152  1  0  0  0
 79153  1  0  0  0
 79154  1  0  0  0
 80155  1  0  0  0
 80156  1  0  0  0
 81 82  1  0  0  0
 81157  1  0  0  0
 81158  1  0  0  0
 83159  1  0  0  0
M  ISO  4   1 100  68 101  80 101  83 100
M  END
> <chiral flag>
0

> <version>
0

> <s_m_source_file>
/data/baiqing/PycharmProjects/Reinvent-master-3.2/result/LINK_invent/BTK/process_docking_weight1_custom_sum_contain_oxygen_bond_distance_aromatic_linkinvent_7_9_3/rearranged_h_0018.sdf

> <i_m_source_file_index>
51

> <r_mmod_Potential_Energy-OPLS-2005>
2859.3271484375

> <r_mmod_Stretch_Energy-OPLS-2005>
1280.884765625

> <r_mmod_Bend_Energy-OPLS-2005>
663.722595214844

> <r_mmod_Torsional_Energy-OPLS-2005>
236.705200195312

> <r_mmod_Improper_Torsional_Energy-OPLS-2005>
6.89234828948975

> <r_mmod_Van_der_Waal_Energy-OPLS-2005>
153.942245483398

> <r_mmod_Electrostatic_Energy-OPLS-2005>
-410.278045654297

> <r_mmod_Solvation_Energy-OPLS-2005>
-204.894058227539

> <b_mmod_Minimization_Converged-OPLS-2005>
0

> <r_mmod_RMS_Derivative-OPLS-2005>
1.26462638378143

$$$$
52
                    3D
 Structure written by MMmdl.
165173  0  0  1  0            999 V2000
  -30.7484  -14.4505   20.5820 C   0  0  0  0  0  0
  -30.4123  -12.3050   19.4128 C   0  0  0  0  0  0
  -29.4838  -12.4963   18.1994 C   0  0  0  0  0  0
  -28.0099  -12.3301   18.6172 C   0  0  0  0  0  0
  -27.6470  -13.1830   19.8594 C   0  0  2  0  0  0
  -28.6974  -13.0154   20.9837 C   0  0  0  0  0  0
  -25.2554  -13.8085   20.5667 C   0  0  0  0  0  0
  -24.1806  -13.0395   20.9208 C   0  0  0  0  0  0
  -24.6336  -11.6856   20.8762 C   0  0  0  0  0  0
  -23.9003  -10.4265   21.0418 C   0  0  0  0  0  0
  -24.3578   -9.4191   21.9188 C   0  0  0  0  0  0
  -23.6270   -8.2219   22.0752 C   0  0  0  0  0  0
  -22.4255   -8.0255   21.3541 C   0  0  0  0  0  0
  -21.9873   -9.0222   20.4647 C   0  0  0  0  0  0
  -22.7183  -10.2111   20.3060 C   0  0  0  0  0  0
  -21.6844   -6.0720   22.5281 C   0  0  0  0  0  0
  -21.4008   -6.5626   23.8211 C   0  0  0  0  0  0
  -21.3658   -5.6783   24.9175 C   0  0  0  0  0  0
  -21.6043   -4.3044   24.7225 C   0  0  0  0  0  0
  -21.8819   -3.8136   23.4346 C   0  0  0  0  0  0
  -21.9189   -4.6951   22.3403 C   0  0  0  0  0  0
  -22.7839  -13.5225   21.1859 C   0  0  0  0  0  0
  -22.1657   -4.2139   21.0980 F   0  0  0  0  0  0
  -21.5634   -3.4529   25.7739 F   0  0  0  0  0  0
  -30.0278  -13.3048   20.4205 N   0  0  0  0  0  0
  -26.2944  -12.9192   20.3318 N   0  0  0  0  0  0
  -25.9247  -11.6388   20.5776 N   0  0  0  0  0  0
  -22.0466  -12.8246   22.0426 N   0  0  0  0  0  0
  -25.4250  -15.1802   20.4018 N   0  0  0  0  0  0
  -31.9005  -14.5723   20.1592 O   0  0  0  0  0  0
  -21.6623   -6.8855   21.4238 O   0  0  0  0  0  0
  -22.3548  -14.5532   20.6689 O   0  0  0  0  0  0
  -24.6099  -31.8703   23.2119 C   0  0  0  0  0  0
  -25.9009  -32.4840   23.8405 C   0  0  1  0  0  0
  -27.2418  -27.4683   20.0978 C   0  0  0  0  0  0
  -25.5881  -33.8634   24.2338 N   0  0  0  0  0  0
  -23.3980  -30.4920   21.5507 C   0  0  2  0  0  0
  -24.8481  -28.9561   20.1211 C   0  0  0  0  0  0
  -22.7388  -29.4669   22.5002 C   0  0  0  0  0  0
  -18.0273  -28.1378   22.8491 C   0  0  0  0  0  0
  -24.1488  -36.7317   23.2636 C   0  0  0  0  0  0
  -25.9220  -30.8439   21.3628 C   0  0  0  0  0  0
  -26.0028  -29.4764   20.7205 C   0  0  0  0  0  0
  -27.2034  -28.7360   20.7152 C   0  0  0  0  0  0
  -26.0779  -26.9530   19.4942 C   0  0  0  0  0  0
  -24.8770  -27.6887   19.5107 C   0  0  0  0  0  0
  -23.6078  -29.8193   20.1670 C   0  0  0  0  0  0
  -25.4104  -36.3118   24.0345 C   0  0  1  0  0  0
  -20.5858  -28.3658   23.1332 C   0  0  2  0  0  0
  -20.6768  -26.9399   22.5421 C   0  0  0  0  0  0
  -19.5754  -26.6383   21.5215 C   0  0  0  0  0  0
  -18.1929  -26.7928   22.1617 C   0  0  0  0  0  0
  -19.1520  -28.8833   23.2915 C   0  0  0  0  0  0
  -18.9455  -30.1440   23.8921 C   0  0  0  0  0  0
  -17.6459  -30.6584   24.0573 C   0  0  0  0  0  0
  -25.9023  -34.9483   23.5139 C   0  0  0  0  0  0
  -16.5348  -29.9092   23.6327 C   0  0  0  0  0  0
  -16.7265  -28.6511   23.0342 C   0  0  0  0  0  0
  -26.4452  -31.6608   25.0716 C   0  0  0  0  0  0
  -25.3730  -31.3725   26.1478 C   0  0  0  0  0  0
  -27.0269  -30.3054   24.6057 C   0  0  0  0  0  0
  -27.6045  -32.4310   25.7465 C   0  0  0  0  0  0
  -27.5593  -37.1801   24.8460 C   0  0  0  0  0  0
  -21.4122  -29.3026   22.3734 N   0  0  0  0  0  0
  -26.4293  -37.3800   23.9418 N   0  0  0  0  0  0
  -24.6611  -31.0825   22.1009 N   0  0  0  0  0  0
  -23.4177  -28.8218   23.3038 O   0  0  0  0  0  0
  -28.4045  -26.7464   20.0248 O   0  0  0  0  0  0
  -26.5578  -34.8933   22.4695 O   0  0  0  0  0  0
  -23.5299  -32.1440   23.7525 O   0  0  0  0  0  0
  -28.4589  -18.6274   21.0507 C   0  0  0  0  0  0
  -29.2738  -17.7390   20.3233 C   0  0  0  0  0  0
  -30.2473  -19.6558   19.1235 C   0  0  0  0  0  0
  -29.3564  -20.5349   19.8034 C   0  0  0  0  0  0
  -28.4837  -20.0079   20.7855 C   0  0  0  0  0  0
  -30.1727  -18.2576   19.3589 C   0  0  0  0  0  0
  -31.2507  -20.1900   18.1023 C   0  0  0  0  0  0
  -30.8830  -16.2299   22.2343 C   0  0  0  0  0  0
  -29.0801  -16.2332   20.5229 C   0  0  0  0  0  0
  -29.2518  -22.0178   19.4314 C   0  0  0  0  0  0
  -30.1260  -25.3807   21.0173 C   0  0  0  0  0  0
  -30.0927  -24.2914   19.9217 C   0  0  0  0  0  0
  -28.7773  -26.0939   21.2331 C   0  0  0  0  0  0
  -30.1403  -15.4786   21.2200 N   0  0  0  0  0  0
  -29.8448  -22.9236   20.4379 N   0  3  0  0  0  0
  -27.4089  -21.0373   21.6651 Cl  0  0  0  0  0  0
  -31.1251  -17.1712   18.4050 Cl  0  0  0  0  0  0
  -31.4564  -12.3909   19.1065 H   0  0  0  0  0  0
  -30.3065  -11.2998   19.8236 H   0  0  0  0  0  0
  -29.7340  -11.7794   17.4161 H   0  0  0  0  0  0
  -29.6372  -13.4869   17.7675 H   0  0  0  0  0  0
  -27.8423  -11.2740   18.8316 H   0  0  0  0  0  0
  -27.3516  -12.5779   17.7838 H   0  0  0  0  0  0
  -27.6484  -14.2080   19.5115 H   0  0  0  0  0  0
  -28.6803  -11.9945   21.3686 H   0  0  0  0  0  0
  -28.4567  -13.6524   21.8364 H   0  0  0  0  0  0
  -25.2719   -9.5677   22.4765 H   0  0  0  0  0  0
  -23.9986   -7.4605   22.7462 H   0  0  0  0  0  0
  -21.0803   -8.8715   19.8958 H   0  0  0  0  0  0
  -22.3617  -10.9645   19.6177 H   0  0  0  0  0  0
  -21.1997   -7.6134   23.9713 H   0  0  0  0  0  0
  -21.1487   -6.0512   25.9079 H   0  0  0  0  0  0
  -22.0604   -2.7599   23.2843 H   0  0  0  0  0  0
  -22.4058  -11.9908   22.4830 H   0  0  0  0  0  0
  -21.1090  -13.1298   22.2626 H   0  0  0  0  0  0
  -24.6475  -15.8240   20.4992 H   0  0  0  0  0  0
  -26.2525  -15.6167   20.0200 H   0  0  0  0  0  0
  -26.7077  -32.5571   23.1173 H   0  0  0  0  0  0
  -25.0069  -33.9806   25.0509 H   0  0  0  0  0  0
  -22.6856  -31.3074   21.4091 H   0  0  0  0  0  0
  -23.3756  -35.9644   23.3291 H   0  0  0  0  0  0
  -24.3596  -36.8924   22.2052 H   0  0  0  0  0  0
  -23.7230  -37.6519   23.6643 H   0  0  0  0  0  0
  -26.0249  -31.6064   20.5897 H   0  0  0  0  0  0
  -26.8133  -30.9039   21.9758 H   0  0  0  0  0  0
  -28.0992  -29.1391   21.1670 H   0  0  0  0  0  0
  -26.1037  -25.9868   19.0101 H   0  0  0  0  0  0
  -23.9894  -27.2820   19.0454 H   0  0  0  0  0  0
  -23.7143  -30.5913   19.4040 H   0  0  0  0  0  0
  -22.7341  -29.2344   19.8733 H   0  0  0  0  0  0
  -25.1276  -36.1988   25.0838 H   0  0  0  0  0  0
  -20.9953  -28.3219   24.1453 H   0  0  0  0  0  0
  -20.5684  -26.2262   23.3600 H   0  0  0  0  0  0
  -21.6645  -26.7455   22.1214 H   0  0  0  0  0  0
  -19.6926  -25.6300   21.1233 H   0  0  0  0  0  0
  -19.6711  -27.3209   20.6762 H   0  0  0  0  0  0
  -17.4209  -26.6684   21.4009 H   0  0  0  0  0  0
  -18.0325  -26.0061   22.9004 H   0  0  0  0  0  0
  -19.7932  -30.7246   24.2300 H   0  0  0  0  0  0
  -17.5021  -31.6271   24.5165 H   0  0  0  0  0  0
  -15.5354  -30.3010   23.7634 H   0  0  0  0  0  0
  -15.8664  -28.0845   22.7035 H   0  0  0  0  0  0
  -24.5911  -30.7050   25.7839 H   0  0  0  0  0  0
  -24.8914  -32.2887   26.4902 H   0  0  0  0  0  0
  -25.8095  -30.8931   27.0249 H   0  0  0  0  0  0
  -26.2803  -29.6832   24.1104 H   0  0  0  0  0  0
  -27.4050  -29.7264   25.4493 H   0  0  0  0  0  0
  -27.8632  -30.4386   23.9189 H   0  0  0  0  0  0
  -27.2682  -33.3599   26.2082 H   0  0  0  0  0  0
  -28.3831  -32.6877   25.0270 H   0  0  0  0  0  0
  -28.0737  -31.8407   26.5343 H   0  0  0  0  0  0
  -28.2590  -38.0119   24.7535 H   0  0  0  0  0  0
  -28.1104  -36.2651   24.6234 H   0  0  0  0  0  0
  -27.2322  -37.1390   25.8865 H   0  0  0  0  0  0
  -20.9269  -29.8737   21.6955 H   0  0  0  0  0  0
  -26.0187  -38.2874   24.1445 H   0  0  0  0  0  0
  -27.7644  -18.2460   21.7859 H   0  0  0  0  0  0
  -31.6440  -21.1648   18.3875 H   0  0  0  0  0  0
  -30.7866  -20.2714   17.1190 H   0  0  0  0  0  0
  -32.1264  -19.5496   18.0062 H   0  0  0  0  0  0
  -30.2094  -16.8255   22.8509 H   0  0  0  0  0  0
  -31.6081  -16.8997   21.7697 H   0  0  0  0  0  0
  -31.4235  -15.5560   22.9016 H   0  0  0  0  0  0
  -28.9392  -15.8438   19.5150 H   0  0  0  0  0  0
  -28.1426  -16.0552   21.0502 H   0  0  0  0  0  0
  -28.2000  -22.2776   19.3005 H   0  0  0  0  0  0
  -29.6950  -22.2064   18.4549 H   0  0  0  0  0  0
  -30.8539  -26.1386   20.7253 H   0  0  0  0  0  0
  -30.4963  -24.9730   21.9586 H   0  0  0  0  0  0
  -31.0509  -24.2725   19.4009 H   0  0  0  0  0  0
  -29.3517  -24.5528   19.1649 H   0  0  0  0  0  0
  -28.8711  -26.8209   22.0418 H   0  0  0  0  0  0
  -28.0075  -25.3784   21.5273 H   0  0  0  0  0  0
  -30.7188  -22.5357   20.7557 H   0  0  0  0  0  0
  -29.2134  -22.9529   21.2226 H   0  0  0  0  0  0
  1 25  1  0  0  0
  1 30  2  0  0  0
  1 84  1  0  0  0
  2  3  1  0  0  0
  2 25  1  0  0  0
  2 88  1  0  0  0
  2 89  1  0  0  0
  3  4  1  0  0  0
  3 90  1  0  0  0
  3 91  1  0  0  0
  4  5  1  0  0  0
  4 92  1  0  0  0
  4 93  1  0  0  0
  5  6  1  0  0  0
  5 26  1  0  0  0
  5 94  1  0  0  0
  6 25  1  0  0  0
  6 95  1  0  0  0
  6 96  1  0  0  0
  7  8  2  0  0  0
  7 26  1  0  0  0
  7 29  1  0  0  0
  8  9  1  0  0  0
  8 22  1  0  0  0
  9 10  1  0  0  0
  9 27  2  0  0  0
 10 11  2  0  0  0
 10 15  1  0  0  0
 11 12  1  0  0  0
 11 97  1  0  0  0
 12 13  2  0  0  0
 12 98  1  0  0  0
 13 14  1  0  0  0
 13 31  1  0  0  0
 14 15  2  0  0  0
 14 99  1  0  0  0
 15100  1  0  0  0
 16 17  2  0  0  0
 16 21  1  0  0  0
 16 31  1  0  0  0
 17 18  1  0  0  0
 17101  1  0  0  0
 18 19  2  0  0  0
 18102  1  0  0  0
 19 20  1  0  0  0
 19 24  1  0  0  0
 20 21  2  0  0  0
 20103  1  0  0  0
 21 23  1  0  0  0
 22 28  1  0  0  0
 22 32  2  0  0  0
 26 27  1  0  0  0
 28104  1  0  0  0
 28105  1  0  0  0
 29106  1  0  0  0
 29107  1  0  0  0
 33 34  1  0  0  0
 33 66  1  0  0  0
 33 70  2  0  0  0
 34 36  1  0  0  0
 34 59  1  0  0  0
 34108  1  0  0  0
 35 44  2  0  0  0
 35 45  1  0  0  0
 35 68  1  0  0  0
 36 56  1  0  0  0
 36109  1  0  0  0
 37 39  1  0  0  0
 37 47  1  0  0  0
 37 66  1  0  0  0
 37110  1  0  0  0
 38 43  2  0  0  0
 38 46  1  0  0  0
 38 47  1  0  0  0
 39 64  1  0  0  0
 39 67  2  0  0  0
 40 52  1  0  0  0
 40 53  2  0  0  0
 40 58  1  0  0  0
 41111  1  0  0  0
 41112  1  0  0  0
 41113  1  0  0  0
 41 48  1  0  0  0
 42 43  1  0  0  0
 42 66  1  0  0  0
 42114  1  0  0  0
 42115  1  0  0  0
 43 44  1  0  0  0
 44116  1  0  0  0
 45 46  2  0  0  0
 45117  1  0  0  0
 46118  1  0  0  0
 47119  1  0  0  0
 47120  1  0  0  0
 48 56  1  0  0  0
 48 65  1  0  0  0
 48121  1  0  0  0
 49 50  1  0  0  0
 49 53  1  0  0  0
 49 64  1  0  0  0
 49122  1  0  0  0
 50 51  1  0  0  0
 50123  1  0  0  0
 50124  1  0  0  0
 51 52  1  0  0  0
 51125  1  0  0  0
 51126  1  0  0  0
 52127  1  0  0  0
 52128  1  0  0  0
 53 54  1  0  0  0
 54 55  2  0  0  0
 54129  1  0  0  0
 55 57  1  0  0  0
 55130  1  0  0  0
 56 69  2  0  0  0
 57 58  2  0  0  0
 57131  1  0  0  0
 58132  1  0  0  0
 59 60  1  0  0  0
 59 61  1  0  0  0
 59 62  1  0  0  0
 60133  1  0  0  0
 60134  1  0  0  0
 60135  1  0  0  0
 61136  1  0  0  0
 61137  1  0  0  0
 61138  1  0  0  0
 62139  1  0  0  0
 62140  1  0  0  0
 62141  1  0  0  0
 63 65  1  0  0  0
 63142  1  0  0  0
 63143  1  0  0  0
 63144  1  0  0  0
 64145  1  0  0  0
 65146  1  0  0  0
 68 83  1  0  0  0
 71 72  2  0  0  0
 71 75  1  0  0  0
 71147  1  0  0  0
 72 76  1  0  0  0
 72 79  1  0  0  0
 73 74  1  0  0  0
 73 76  2  0  0  0
 73 77  1  0  0  0
 74 75  2  0  0  0
 74 80  1  0  0  0
 75 86  1  0  0  0
 76 87  1  0  0  0
 77148  1  0  0  0
 77149  1  0  0  0
 77150  1  0  0  0
 78 84  1  0  0  0
 78151  1  0  0  0
 78152  1  0  0  0
 78153  1  0  0  0
 79 84  1  0  0  0
 79154  1  0  0  0
 79155  1  0  0  0
 80 85  1  0  0  0
 80156  1  0  0  0
 80157  1  0  0  0
 81 82  1  0  0  0
 81 83  1  0  0  0
 81158  1  0  0  0
 81159  1  0  0  0
 82 85  1  0  0  0
 82160  1  0  0  0
 82161  1  0  0  0
 83162  1  0  0  0
 83163  1  0  0  0
 85164  1  0  0  0
 85165  1  0  0  0
M  CHG  1  85   1
M  ISO  4   1 100  68 101  83 101  84 100
M  END
> <chiral flag>
0

> <version>
0

> <s_m_source_file>
/data/baiqing/PycharmProjects/Reinvent-master-3.2/result/LINK_invent/BTK/process_docking_weight1_custom_sum_contain_oxygen_bond_distance_aromatic_linkinvent_7_9_3/rearranged_h_0018.sdf

> <i_m_source_file_index>
52

> <r_mmod_Potential_Energy-OPLS-2005>
-102.319847106934

> <r_mmod_Stretch_Energy-OPLS-2005>
36.2021713256836

> <r_mmod_Bend_Energy-OPLS-2005>
94.3003768920898

> <r_mmod_Torsional_Energy-OPLS-2005>
305.672973632812

> <r_mmod_Improper_Torsional_Energy-OPLS-2005>
4.52509021759033

> <r_mmod_Van_der_Waal_Energy-OPLS-2005>
154.487518310547

> <r_mmod_Electrostatic_Energy-OPLS-2005>
-261.986907958984

> <r_mmod_Solvation_Energy-OPLS-2005>
-449.041015625

> <b_mmod_Minimization_Converged-OPLS-2005>
0

> <r_mmod_RMS_Derivative-OPLS-2005>
0.994338929653168

$$$$
53
                    3D
 Structure written by MMmdl.
184191  0  0  1  0            999 V2000
  -30.2491  -15.9086   20.2826 C   0  0  0  0  0  0
  -30.3901  -13.2845   19.5314 C   0  0  0  0  0  0
  -29.5570  -12.7213   18.3398 C   0  0  0  0  0  0
  -28.1535  -12.3068   18.8004 C   0  0  0  0  0  0
  -27.5746  -13.3416   19.7858 C   0  0  2  0  0  0
  -28.5675  -13.8338   20.8706 C   0  0  0  0  0  0
  -25.2393  -13.8230   20.6185 C   0  0  0  0  0  0
  -24.1733  -13.0398   20.9376 C   0  0  0  0  0  0
  -24.6435  -11.6909   20.8732 C   0  0  0  0  0  0
  -23.9134  -10.4266   21.0344 C   0  0  0  0  0  0
  -24.3743   -9.4133   21.9037 C   0  0  0  0  0  0
  -23.6386   -8.2203   22.0653 C   0  0  0  0  0  0
  -22.4297   -8.0293   21.3558 C   0  0  0  0  0  0
  -21.9874   -9.0314   20.4748 C   0  0  0  0  0  0
  -22.7231  -10.2169   20.3114 C   0  0  0  0  0  0
  -21.6883   -6.0784   22.5284 C   0  0  0  0  0  0
  -21.4020   -6.5683   23.8202 C   0  0  0  0  0  0
  -21.3647   -5.6842   24.9158 C   0  0  0  0  0  0
  -21.6021   -4.3099   24.7228 C   0  0  0  0  0  0
  -21.8819   -3.8191   23.4349 C   0  0  0  0  0  0
  -21.9210   -4.7008   22.3400 C   0  0  0  0  0  0
  -22.7768  -13.5233   21.1879 C   0  0  0  0  0  0
  -22.1692   -4.2191   21.0981 F   0  0  0  0  0  0
  -21.5585   -3.4581   25.7733 F   0  0  0  0  0  0
  -29.7035  -14.5172   20.1854 N   0  0  0  0  0  0
  -26.2751  -12.9644   20.3218 N   0  0  0  0  0  0
  -25.9365  -11.6668   20.5521 N   0  0  0  0  0  0
  -22.0265  -12.8200   22.0267 N   0  0  0  0  0  0
  -25.4164  -15.1954   20.5301 N   0  0  0  0  0  0
  -31.4761  -15.6520   20.3315 O   0  0  0  0  0  0
  -21.6670   -6.8900   21.4228 O   0  0  0  0  0  0
  -22.3656  -14.5634   20.6698 O   0  0  0  0  0  0
  -24.6980  -31.7833   23.1386 C   0  0  0  0  0  0
  -25.9480  -32.4387   23.7997 C   0  0  1  0  0  0
  -27.2341  -26.5447   20.2326 C   0  0  0  0  0  0
  -25.6008  -33.8218   24.1875 N   0  0  0  0  0  0
  -23.5315  -30.3749   21.4980 C   0  0  2  0  0  0
  -24.9880  -28.6805   20.1266 C   0  0  0  0  0  0
  -22.7831  -29.4211   22.4701 C   0  0  0  0  0  0
  -18.0348  -28.1402   22.8456 C   0  0  0  0  0  0
  -24.1503  -36.7128   23.2641 C   0  0  0  0  0  0
  -26.1181  -30.4629   21.4239 C   0  0  0  0  0  0
  -26.1814  -29.0084   20.7803 C   0  0  0  0  0  0
  -27.2821  -27.9761   20.7896 C   0  0  0  0  0  0
  -26.0031  -26.4654   19.5172 C   0  0  0  0  0  0
  -24.9476  -27.4354   19.4704 C   0  0  0  0  0  0
  -23.7909  -29.6541   20.1419 C   0  0  0  0  0  0
  -25.4159  -36.2845   24.0257 C   0  0  1  0  0  0
  -20.5987  -28.3777   23.1124 C   0  0  2  0  0  0
  -20.6792  -26.9425   22.5399 C   0  0  0  0  0  0
  -19.5763  -26.6347   21.5213 C   0  0  0  0  0  0
  -18.1958  -26.7923   22.1632 C   0  0  0  0  0  0
  -19.1617  -28.8927   23.2760 C   0  0  0  0  0  0
  -18.9510  -30.1508   23.8803 C   0  0  0  0  0  0
  -17.6496  -30.6581   24.0545 C   0  0  0  0  0  0
  -25.9162  -34.9244   23.4928 C   0  0  0  0  0  0
  -16.5393  -29.9060   23.6335 C   0  0  0  0  0  0
  -16.7332  -28.6483   23.0365 C   0  0  0  0  0  0
  -26.4611  -31.6458   25.0669 C   0  0  0  0  0  0
  -25.3655  -31.3836   26.1279 C   0  0  0  0  0  0
  -27.0542  -30.2768   24.6636 C   0  0  0  0  0  0
  -27.6063  -32.4332   25.7498 C   0  0  0  0  0  0
  -27.5576  -37.1705   24.8458 C   0  0  0  0  0  0
  -21.4469  -29.3001   22.3441 N   0  0  0  0  0  0
  -26.4268  -37.3619   23.9413 N   0  0  0  0  0  0
  -24.8082  -30.9117   22.0725 N   0  0  0  0  0  0
  -23.4194  -28.7823   23.3095 O   0  0  0  0  0  0
  -28.1931  -25.2664   20.2672 O   0  0  0  0  0  0
  -26.5829  -34.8851   22.4565 O   0  0  0  0  0  0
  -23.5968  -32.0988   23.6238 O   0  0  0  0  0  0
  -26.4262  -18.9821   20.4156 C   0  0  0  0  0  0
  -25.0247  -15.1087   17.1884 C   0  0  0  0  0  0
  -29.4664  -17.7264   18.4331 C   0  0  0  0  0  0
  -31.2253  -18.4219   20.0414 C   0  0  0  0  0  0
  -20.5783  -17.7110   20.1101 C   0  0  0  0  0  0
  -20.1897  -18.2317   17.6646 C   0  0  0  0  0  0
  -19.9530  -15.9043   18.5378 C   0  0  0  0  0  0
  -25.0942  -19.3036   19.7220 C   0  0  0  0  0  0
  -23.9277  -15.9830   16.5574 C   0  0  0  0  0  0
  -24.2608  -18.0376   19.4637 C   0  0  0  0  0  0
  -22.5276  -16.0272   17.2384 C   0  0  0  0  0  0
  -23.1026  -18.1939   18.4640 C   0  0  0  0  0  0
  -28.0567  -23.4271   20.3014 C   0  0  0  0  0  0
  -28.8681  -19.6012   20.3848 C   0  0  1  0  0  0
  -29.8023  -17.8263   19.9336 C   0  0  0  0  0  0
  -20.7899  -17.2022   18.6609 C   0  0  0  0  0  0
  -29.0185  -21.6265   20.1546 C   0  0  0  0  0  0
  -27.5205  -19.4779   19.8380 N   0  0  0  0  0  0
  -22.2635  -16.9531   18.3979 N   0  3  1  0  0  0
  -26.4534  -18.3191   21.4523 O   0  0  0  0  0  0
  -29.3480  -21.6710   18.8642 F   0  0  0  0  0  0
  -30.1260  -21.8732   20.8512 F   0  0  0  0  0  0
  -31.3720  -13.5565   19.1485 H   0  0  0  0  0  0
  -30.5895  -12.5030   20.2662 H   0  0  0  0  0  0
  -30.0730  -11.8777   17.8767 H   0  0  0  0  0  0
  -29.4756  -13.4952   17.5760 H   0  0  0  0  0  0
  -28.2383  -11.3429   19.3017 H   0  0  0  0  0  0
  -27.4860  -12.1576   17.9514 H   0  0  0  0  0  0
  -27.3784  -14.2106   19.1533 H   0  0  0  0  0  0
  -28.8834  -13.0254   21.5329 H   0  0  0  0  0  0
  -28.0747  -14.5701   21.5080 H   0  0  0  0  0  0
  -25.2948   -9.5531   22.4532 H   0  0  0  0  0  0
  -24.0166   -7.4575   22.7308 H   0  0  0  0  0  0
  -21.0735   -8.8912   19.9177 H   0  0  0  0  0  0
  -22.3641  -10.9741   19.6293 H   0  0  0  0  0  0
  -21.2008   -7.6191   23.9722 H   0  0  0  0  0  0
  -21.1425   -6.0540   25.9057 H   0  0  0  0  0  0
  -22.0603   -2.7657   23.2819 H   0  0  0  0  0  0
  -22.3757  -11.9756   22.4569 H   0  0  0  0  0  0
  -21.0852  -13.1227   22.2319 H   0  0  0  0  0  0
  -24.7446  -15.8464   20.9121 H   0  0  0  0  0  0
  -26.3001  -15.6293   20.3082 H   0  0  0  0  0  0
  -26.7571  -32.4808   23.0717 H   0  0  0  0  0  0
  -24.9998  -33.9219   24.9914 H   0  0  0  0  0  0
  -22.8655  -31.2137   21.2942 H   0  0  0  0  0  0
  -23.3787  -35.9430   23.3226 H   0  0  0  0  0  0
  -24.3569  -36.8890   22.2075 H   0  0  0  0  0  0
  -23.7234  -37.6262   23.6793 H   0  0  0  0  0  0
  -26.3295  -31.1721   20.6228 H   0  0  0  0  0  0
  -26.9678  -30.5435   22.0887 H   0  0  0  0  0  0
  -28.1826  -28.2473   21.3224 H   0  0  0  0  0  0
  -25.8123  -25.5348   19.0017 H   0  0  0  0  0  0
  -24.0502  -27.1746   18.9256 H   0  0  0  0  0  0
  -23.9766  -30.4053   19.3740 H   0  0  0  0  0  0
  -22.8940  -29.1216   19.8197 H   0  0  0  0  0  0
  -25.1362  -36.1602   25.0736 H   0  0  0  0  0  0
  -21.0067  -28.3388   24.1253 H   0  0  0  0  0  0
  -20.5618  -26.2411   23.3667 H   0  0  0  0  0  0
  -21.6652  -26.7312   22.1243 H   0  0  0  0  0  0
  -19.6928  -25.6232   21.1293 H   0  0  0  0  0  0
  -19.6704  -27.3115   20.6705 H   0  0  0  0  0  0
  -17.4219  -26.6656   21.4052 H   0  0  0  0  0  0
  -18.0380  -26.0091   22.9061 H   0  0  0  0  0  0
  -19.7992  -30.7347   24.2138 H   0  0  0  0  0  0
  -17.5043  -31.6252   24.5146 H   0  0  0  0  0  0
  -15.5387  -30.2927   23.7693 H   0  0  0  0  0  0
  -15.8744  -28.0757   22.7135 H   0  0  0  0  0  0
  -24.5805  -30.7250   25.7540 H   0  0  0  0  0  0
  -24.8911  -32.3101   26.4527 H   0  0  0  0  0  0
  -25.7781  -30.9062   27.0179 H   0  0  0  0  0  0
  -26.3283  -29.6376   24.1607 H   0  0  0  0  0  0
  -27.3899  -29.7215   25.5401 H   0  0  0  0  0  0
  -27.9292  -30.3847   24.0230 H   0  0  0  0  0  0
  -27.2590  -33.3702   26.1859 H   0  0  0  0  0  0
  -28.3977  -32.6773   25.0405 H   0  0  0  0  0  0
  -28.0614  -31.8615   26.5595 H   0  0  0  0  0  0
  -28.2509  -38.0072   24.7556 H   0  0  0  0  0  0
  -28.1159  -36.2608   24.6234 H   0  0  0  0  0  0
  -27.2313  -37.1268   25.8856 H   0  0  0  0  0  0
  -20.9811  -29.8652   21.6488 H   0  0  0  0  0  0
  -26.0104  -38.2659   24.1437 H   0  0  0  0  0  0
  -25.8228  -14.9489   16.4637 H   0  0  0  0  0  0
  -24.6639  -14.1269   17.4995 H   0  0  0  0  0  0
  -25.5050  -15.5824   18.0340 H   0  0  0  0  0  0
  -29.6102  -18.6851   17.9339 H   0  0  0  0  0  0
  -28.4288  -17.4289   18.2822 H   0  0  0  0  0  0
  -30.0937  -16.9992   17.9171 H   0  0  0  0  0  0
  -31.2542  -19.4584   19.7047 H   0  0  0  0  0  0
  -31.9554  -17.8914   19.4292 H   0  0  0  0  0  0
  -31.5784  -18.4088   21.0731 H   0  0  0  0  0  0
  -19.5180  -17.8589   20.3202 H   0  0  0  0  0  0
  -21.0634  -18.6663   20.3156 H   0  0  0  0  0  0
  -20.9449  -16.9939   20.8463 H   0  0  0  0  0  0
  -19.1219  -18.3726   17.8442 H   0  0  0  0  0  0
  -20.2853  -17.9043   16.6300 H   0  0  0  0  0  0
  -20.6383  -19.2221   17.7338 H   0  0  0  0  0  0
  -18.9278  -16.0644   18.8730 H   0  0  0  0  0  0
  -20.3541  -15.0934   19.1436 H   0  0  0  0  0  0
  -19.8784  -15.5490   17.5102 H   0  0  0  0  0  0
  -25.2859  -19.8250   18.7827 H   0  0  0  0  0  0
  -24.5395  -19.9974   20.3533 H   0  0  0  0  0  0
  -23.7465  -15.5291   15.5817 H   0  0  0  0  0  0
  -24.3227  -16.9660   16.3091 H   0  0  0  0  0  0
  -23.8723  -17.6757   20.4160 H   0  0  0  0  0  0
  -24.9343  -17.2851   19.0789 H   0  0  0  0  0  0
  -22.2628  -15.0121   17.5447 H   0  0  0  0  0  0
  -21.8287  -16.2898   16.4439 H   0  0  0  0  0  0
  -23.4529  -18.4943   17.4792 H   0  0  0  0  0  0
  -22.5232  -19.0502   18.7976 H   0  0  0  0  0  0
  -27.5822  -23.3176   21.2770 H   0  0  0  0  0  0
  -27.2293  -23.2865   19.6056 H   0  0  0  0  0  0
  -28.7855  -19.5253   21.4701 H   0  0  0  0  0  0
  -27.3730  -19.9912   18.9799 H   0  0  0  0  0  0
  -22.5586  -16.4083   19.1981 H   0  0  0  0  0  0
  1 25  1  0  0  0
  1 30  2  0  0  0
  1 85  1  0  0  0
  2  3  1  0  0  0
  2 25  1  0  0  0
  2 93  1  0  0  0
  2 94  1  0  0  0
  3  4  1  0  0  0
  3 95  1  0  0  0
  3 96  1  0  0  0
  4  5  1  0  0  0
  4 97  1  0  0  0
  4 98  1  0  0  0
  5  6  1  0  0  0
  5 26  1  0  0  0
  5 99  1  0  0  0
  6 25  1  0  0  0
  6100  1  0  0  0
  6101  1  0  0  0
  7  8  2  0  0  0
  7 26  1  0  0  0
  7 29  1  0  0  0
  8  9  1  0  0  0
  8 22  1  0  0  0
  9 10  1  0  0  0
  9 27  2  0  0  0
 10 11  2  0  0  0
 10 15  1  0  0  0
 11 12  1  0  0  0
 11102  1  0  0  0
 12 13  2  0  0  0
 12103  1  0  0  0
 13 14  1  0  0  0
 13 31  1  0  0  0
 14 15  2  0  0  0
 14104  1  0  0  0
 15105  1  0  0  0
 16 17  2  0  0  0
 16 21  1  0  0  0
 16 31  1  0  0  0
 17 18  1  0  0  0
 17106  1  0  0  0
 18 19  2  0  0  0
 18107  1  0  0  0
 19 20  1  0  0  0
 19 24  1  0  0  0
 20 21  2  0  0  0
 20108  1  0  0  0
 21 23  1  0  0  0
 22 28  1  0  0  0
 22 32  2  0  0  0
 26 27  1  0  0  0
 28109  1  0  0  0
 28110  1  0  0  0
 29111  1  0  0  0
 29112  1  0  0  0
 33 34  1  0  0  0
 33 66  1  0  0  0
 33 70  2  0  0  0
 34 36  1  0  0  0
 34 59  1  0  0  0
 34113  1  0  0  0
 35 44  2  0  0  0
 35 45  1  0  0  0
 35 68  1  0  0  0
 36 56  1  0  0  0
 36114  1  0  0  0
 37 39  1  0  0  0
 37 47  1  0  0  0
 37 66  1  0  0  0
 37115  1  0  0  0
 38 43  2  0  0  0
 38 46  1  0  0  0
 38 47  1  0  0  0
 39 64  1  0  0  0
 39 67  2  0  0  0
 40 52  1  0  0  0
 40 53  2  0  0  0
 40 58  1  0  0  0
 41116  1  0  0  0
 41117  1  0  0  0
 41118  1  0  0  0
 41 48  1  0  0  0
 42 43  1  0  0  0
 42 66  1  0  0  0
 42119  1  0  0  0
 42120  1  0  0  0
 43 44  1  0  0  0
 44121  1  0  0  0
 45 46  2  0  0  0
 45122  1  0  0  0
 46123  1  0  0  0
 47124  1  0  0  0
 47125  1  0  0  0
 48 56  1  0  0  0
 48 65  1  0  0  0
 48126  1  0  0  0
 49 50  1  0  0  0
 49 53  1  0  0  0
 49 64  1  0  0  0
 49127  1  0  0  0
 50 51  1  0  0  0
 50128  1  0  0  0
 50129  1  0  0  0
 51 52  1  0  0  0
 51130  1  0  0  0
 51131  1  0  0  0
 52132  1  0  0  0
 52133  1  0  0  0
 53 54  1  0  0  0
 54 55  2  0  0  0
 54134  1  0  0  0
 55 57  1  0  0  0
 55135  1  0  0  0
 56 69  2  0  0  0
 57 58  2  0  0  0
 57136  1  0  0  0
 58137  1  0  0  0
 59 60  1  0  0  0
 59 61  1  0  0  0
 59 62  1  0  0  0
 60138  1  0  0  0
 60139  1  0  0  0
 60140  1  0  0  0
 61141  1  0  0  0
 61142  1  0  0  0
 61143  1  0  0  0
 62144  1  0  0  0
 62145  1  0  0  0
 62146  1  0  0  0
 63 65  1  0  0  0
 63147  1  0  0  0
 63148  1  0  0  0
 63149  1  0  0  0
 64150  1  0  0  0
 65151  1  0  0  0
 68 83  1  0  0  0
 71 78  1  0  0  0
 71 88  1  0  0  0
 71 90  2  0  0  0
 72 79  1  0  0  0
 72152  1  0  0  0
 72153  1  0  0  0
 72154  1  0  0  0
 73155  1  0  0  0
 73156  1  0  0  0
 73157  1  0  0  0
 73 85  1  0  0  0
 74 85  1  0  0  0
 74158  1  0  0  0
 74159  1  0  0  0
 74160  1  0  0  0
 75161  1  0  0  0
 75162  1  0  0  0
 75163  1  0  0  0
 75 86  1  0  0  0
 76 86  1  0  0  0
 76164  1  0  0  0
 76165  1  0  0  0
 76166  1  0  0  0
 77 86  1  0  0  0
 77167  1  0  0  0
 77168  1  0  0  0
 77169  1  0  0  0
 78 80  1  0  0  0
 78170  1  0  0  0
 78171  1  0  0  0
 79 81  1  0  0  0
 79172  1  0  0  0
 79173  1  0  0  0
 80 82  1  0  0  0
 80174  1  0  0  0
 80175  1  0  0  0
 81176  1  0  0  0
 81177  1  0  0  0
 81 89  1  0  0  0
 82 89  1  0  0  0
 82178  1  0  0  0
 82179  1  0  0  0
 83 87  1  0  0  0
 83180  1  0  0  0
 83181  1  0  0  0
 84 85  1  0  0  0
 84 87  1  0  0  0
 84 88  1  0  0  0
 84182  1  0  0  0
 86 89  1  0  0  0
 87 91  1  0  0  0
 87 92  1  0  0  0
 88183  1  0  0  0
 89184  1  0  0  0
M  CHG  1  89   1
M  ISO  4   1 100  68 101  83 101  85 100
M  END
> <chiral flag>
0

> <version>
0

> <s_m_source_file>
/data/baiqing/PycharmProjects/Reinvent-master-3.2/result/LINK_invent/BTK/process_docking_weight1_custom_sum_contain_oxygen_bond_distance_aromatic_linkinvent_7_9_3/rearranged_h_0018.sdf

> <i_m_source_file_index>
53

> <r_mmod_Potential_Energy-OPLS-2005>
3727.04516601562

> <r_mmod_Stretch_Energy-OPLS-2005>
1765.71203613281

> <r_mmod_Bend_Energy-OPLS-2005>
939.931945800781

> <r_mmod_Torsional_Energy-OPLS-2005>
286.719177246094

> <r_mmod_Improper_Torsional_Energy-OPLS-2005>
15.550196647644

> <r_mmod_Van_der_Waal_Energy-OPLS-2005>
111.069580078125

> <r_mmod_Electrostatic_Energy-OPLS-2005>
-303.379852294922

> <r_mmod_Solvation_Energy-OPLS-2005>
-389.850250244141

> <b_mmod_Minimization_Converged-OPLS-2005>
0

> <r_mmod_RMS_Derivative-OPLS-2005>
4.42438459396362

$$$$
54
                    3D
 Structure written by MMmdl.
158166  0  0  1  0            999 V2000
  -30.5350  -14.7990   20.4101 C   0  0  0  0  0  0
  -30.4392  -12.4959   19.4617 C   0  0  0  0  0  0
  -29.5118  -12.5413   18.2258 C   0  0  0  0  0  0
  -28.0304  -12.3623   18.6236 C   0  0  0  0  0  0
  -27.6323  -13.2412   19.8405 C   0  0  2  0  0  0
  -28.6780  -13.1505   20.9709 C   0  0  0  0  0  0
  -25.2423  -13.8232   20.5665 C   0  0  0  0  0  0
  -24.1732  -13.0448   20.9209 C   0  0  0  0  0  0
  -24.6366  -11.6952   20.8716 C   0  0  0  0  0  0
  -23.9046  -10.4325   21.0348 C   0  0  0  0  0  0
  -24.3612   -9.4250   21.9133 C   0  0  0  0  0  0
  -23.6319   -8.2255   22.0702 C   0  0  0  0  0  0
  -22.4284   -8.0300   21.3506 C   0  0  0  0  0  0
  -21.9897   -9.0258   20.4614 C   0  0  0  0  0  0
  -22.7198  -10.2154   20.3013 C   0  0  0  0  0  0
  -21.6857   -6.0739   22.5291 C   0  0  0  0  0  0
  -21.4031   -6.5640   23.8220 C   0  0  0  0  0  0
  -21.3656   -5.6792   24.9163 C   0  0  0  0  0  0
  -21.6058   -4.3057   24.7195 C   0  0  0  0  0  0
  -21.8813   -3.8142   23.4321 C   0  0  0  0  0  0
  -21.9199   -4.6960   22.3399 C   0  0  0  0  0  0
  -22.7765  -13.5197   21.1913 C   0  0  0  0  0  0
  -22.1652   -4.2145   21.0944 F   0  0  0  0  0  0
  -21.5631   -3.4537   25.7712 F   0  0  0  0  0  0
  -29.9687  -13.5426   20.3966 N   0  0  0  0  0  0
  -26.2850  -12.9458   20.3194 N   0  0  0  0  0  0
  -25.9298  -11.6604   20.5690 N   0  0  0  0  0  0
  -22.0415  -12.8185   22.0474 N   0  0  0  0  0  0
  -25.4125  -15.1969   20.4104 N   0  0  0  0  0  0
  -31.7421  -14.9057   20.1852 O   0  0  0  0  0  0
  -21.6649   -6.8896   21.4251 O   0  0  0  0  0  0
  -22.3444  -14.5524   20.6778 O   0  0  0  0  0  0
  -24.6303  -31.8558   23.1991 C   0  0  0  0  0  0
  -25.9119  -32.4765   23.8354 C   0  0  1  0  0  0
  -27.2264  -27.2807   20.1704 C   0  0  0  0  0  0
  -25.5927  -33.8565   24.2259 N   0  0  0  0  0  0
  -23.4298  -30.4743   21.5389 C   0  0  2  0  0  0
  -24.8833  -28.9172   20.1188 C   0  0  0  0  0  0
  -22.7528  -29.4563   22.4897 C   0  0  0  0  0  0
  -18.0288  -28.1378   22.8485 C   0  0  0  0  0  0
  -24.1481  -36.7323   23.2636 C   0  0  0  0  0  0
  -25.9705  -30.7791   21.3758 C   0  0  0  0  0  0
  -26.0474  -29.3978   20.7329 C   0  0  0  0  0  0
  -27.2256  -28.5924   20.7457 C   0  0  0  0  0  0
  -26.0469  -26.8530   19.5326 C   0  0  0  0  0  0
  -24.8881  -27.6559   19.4996 C   0  0  0  0  0  0
  -23.6558  -29.8052   20.1534 C   0  0  0  0  0  0
  -25.4103  -36.3099   24.0325 C   0  0  1  0  0  0
  -20.5887  -28.3701   23.1265 C   0  0  2  0  0  0
  -20.6772  -26.9429   22.5406 C   0  0  0  0  0  0
  -19.5755  -26.6368   21.5211 C   0  0  0  0  0  0
  -18.1918  -26.7916   22.1617 C   0  0  0  0  0  0
  -19.1540  -28.8866   23.2864 C   0  0  0  0  0  0
  -18.9462  -30.1449   23.8877 C   0  0  0  0  0  0
  -17.6458  -30.6586   24.0567 C   0  0  0  0  0  0
  -25.9040  -34.9463   23.5099 C   0  0  0  0  0  0
  -16.5352  -29.9087   23.6317 C   0  0  0  0  0  0
  -16.7265  -28.6514   23.0341 C   0  0  0  0  0  0
  -26.4490  -31.6587   25.0754 C   0  0  0  0  0  0
  -25.3716  -31.3797   26.1494 C   0  0  0  0  0  0
  -27.0314  -30.2995   24.6221 C   0  0  0  0  0  0
  -27.6028  -32.4363   25.7539 C   0  0  0  0  0  0
  -27.5587  -37.1826   24.8447 C   0  0  0  0  0  0
  -21.4238  -29.3062   22.3681 N   0  0  0  0  0  0
  -26.4283  -37.3811   23.9419 N   0  0  0  0  0  0
  -24.6937  -31.0561   22.0927 N   0  0  0  0  0  0
  -23.4248  -28.8114   23.2991 O   0  0  0  0  0  0
  -28.3302  -26.4151   20.1710 O   0  0  0  0  0  0
  -26.5611  -34.8923   22.4664 O   0  0  0  0  0  0
  -23.5440  -32.1359   23.7276 O   0  0  0  0  0  0
  -28.9577  -18.4511   20.4486 C   0  0  0  0  0  0
  -30.7220  -18.9248   18.3518 C   0  0  0  0  0  0
  -29.7779  -17.3217   19.9980 C   0  0  0  0  0  0
  -29.0415  -19.8136   19.9131 C   0  0  0  0  0  0
  -30.6387  -17.6260   18.9091 C   0  0  0  0  0  0
  -29.9280  -19.9923   18.8224 C   0  0  0  0  0  0
  -31.6429  -19.1753   17.1643 C   0  0  0  0  0  0
  -30.2180  -22.3532   21.1136 C   0  0  0  0  0  0
  -28.1923  -23.6727   20.0899 C   0  0  0  0  0  0
  -28.2499  -25.0922   20.8657 C   0  0  0  0  0  0
  -28.7004  -22.3114   20.8302 C   0  0  1  0  0  0
  -29.6886  -15.9130   20.5313 N   0  0  0  0  0  0
  -28.2303  -20.9427   20.3481 N   0  0  0  0  0  0
  -31.3490  -16.6457   18.3095 F   0  0  0  0  0  0
  -29.9551  -21.4948   17.9459 Cl  0  0  0  0  0  0
  -31.4738  -12.6611   19.1530 H   0  0  0  0  0  0
  -30.4280  -11.5129   19.9359 H   0  0  0  0  0  0
  -29.8108  -11.7845   17.5036 H   0  0  0  0  0  0
  -29.6310  -13.5042   17.7262 H   0  0  0  0  0  0
  -27.8710  -11.3111   18.8542 H   0  0  0  0  0  0
  -27.3848  -12.5895   17.7734 H   0  0  0  0  0  0
  -27.6300  -14.2735   19.4843 H   0  0  0  0  0  0
  -28.7237  -12.1301   21.3567 H   0  0  0  0  0  0
  -28.4049  -13.7958   21.8091 H   0  0  0  0  0  0
  -25.2744   -9.5767   22.4717 H   0  0  0  0  0  0
  -24.0059   -7.4641   22.7397 H   0  0  0  0  0  0
  -21.0829   -8.8757   19.8926 H   0  0  0  0  0  0
  -22.3621  -10.9686   19.6135 H   0  0  0  0  0  0
  -21.2033   -7.6153   23.9741 H   0  0  0  0  0  0
  -21.1488   -6.0482   25.9080 H   0  0  0  0  0  0
  -22.0600   -2.7607   23.2788 H   0  0  0  0  0  0
  -22.3953  -11.9859   22.4911 H   0  0  0  0  0  0
  -21.1031  -13.1241   22.2656 H   0  0  0  0  0  0
  -24.6606  -15.8610   20.5418 H   0  0  0  0  0  0
  -26.2745  -15.6347   20.1129 H   0  0  0  0  0  0
  -26.7211  -32.5455   23.1135 H   0  0  0  0  0  0
  -25.0181  -33.9697   25.0479 H   0  0  0  0  0  0
  -22.7290  -31.2956   21.3845 H   0  0  0  0  0  0
  -23.3744  -35.9654   23.3253 H   0  0  0  0  0  0
  -24.3596  -36.9000   22.2070 H   0  0  0  0  0  0
  -23.7201  -37.6501   23.6680 H   0  0  0  0  0  0
  -26.0944  -31.5388   20.6025 H   0  0  0  0  0  0
  -26.8501  -30.8426   22.0047 H   0  0  0  0  0  0
  -28.1182  -28.9564   21.2362 H   0  0  0  0  0  0
  -26.0316  -25.8797   19.0645 H   0  0  0  0  0  0
  -24.0083  -27.2869   18.9934 H   0  0  0  0  0  0
  -23.8006  -30.5778   19.3984 H   0  0  0  0  0  0
  -22.7777  -29.2411   19.8335 H   0  0  0  0  0  0
  -25.1268  -36.1976   25.0818 H   0  0  0  0  0  0
  -20.9941  -28.3259   24.1412 H   0  0  0  0  0  0
  -20.5669  -26.2327   23.3622 H   0  0  0  0  0  0
  -21.6636  -26.7457   22.1209 H   0  0  0  0  0  0
  -19.6920  -25.6270   21.1274 H   0  0  0  0  0  0
  -19.6661  -27.3160   20.6723 H   0  0  0  0  0  0
  -17.4208  -26.6668   21.4007 H   0  0  0  0  0  0
  -18.0312  -26.0032   22.9000 H   0  0  0  0  0  0
  -19.7939  -30.7253   24.2239 H   0  0  0  0  0  0
  -17.5023  -31.6248   24.5200 H   0  0  0  0  0  0
  -15.5347  -30.3009   23.7594 H   0  0  0  0  0  0
  -15.8674  -28.0815   22.7049 H   0  0  0  0  0  0
  -24.5803  -30.7227   25.7865 H   0  0  0  0  0  0
  -24.9012  -32.3011   26.4961 H   0  0  0  0  0  0
  -25.8034  -30.8951   27.0264 H   0  0  0  0  0  0
  -26.2887  -29.6790   24.1192 H   0  0  0  0  0  0
  -27.3927  -29.7224   25.4751 H   0  0  0  0  0  0
  -27.8803  -30.4260   23.9493 H   0  0  0  0  0  0
  -27.2560  -33.3633   26.2130 H   0  0  0  0  0  0
  -28.3836  -32.6988   25.0387 H   0  0  0  0  0  0
  -28.0689  -31.8498   26.5479 H   0  0  0  0  0  0
  -28.2570  -38.0159   24.7545 H   0  0  0  0  0  0
  -28.1104  -36.2698   24.6180 H   0  0  0  0  0  0
  -27.2329  -37.1383   25.8852 H   0  0  0  0  0  0
  -20.9427  -29.8905   21.6979 H   0  0  0  0  0  0
  -26.0159  -38.2885   24.1429 H   0  0  0  0  0  0
  -28.2248  -18.2618   21.2207 H   0  0  0  0  0  0
  -32.4354  -18.4301   17.0904 H   0  0  0  0  0  0
  -32.1275  -20.1514   17.2294 H   0  0  0  0  0  0
  -31.0616  -19.1550   16.2428 H   0  0  0  0  0  0
  -30.4520  -23.0875   21.8834 H   0  0  0  0  0  0
  -30.7947  -22.6360   20.2343 H   0  0  0  0  0  0
  -30.6032  -21.3996   21.4751 H   0  0  0  0  0  0
  -28.7486  -23.7916   19.1601 H   0  0  0  0  0  0
  -27.1517  -23.5387   19.7921 H   0  0  0  0  0  0
  -29.1500  -25.0652   21.4845 H   0  0  0  0  0  0
  -27.4327  -25.1215   21.5931 H   0  0  0  0  0  0
  -28.2350  -22.3617   21.8157 H   0  0  0  0  0  0
  -28.7980  -15.6758   20.9392 H   0  0  0  0  0  0
  -27.3762  -20.6579   20.8255 H   0  0  0  0  0  0
  1 25  1  0  0  0
  1 30  2  0  0  0
  1 82  1  0  0  0
  2  3  1  0  0  0
  2 25  1  0  0  0
  2 86  1  0  0  0
  2 87  1  0  0  0
  3  4  1  0  0  0
  3 88  1  0  0  0
  3 89  1  0  0  0
  4  5  1  0  0  0
  4 90  1  0  0  0
  4 91  1  0  0  0
  5  6  1  0  0  0
  5 26  1  0  0  0
  5 92  1  0  0  0
  6 25  1  0  0  0
  6 93  1  0  0  0
  6 94  1  0  0  0
  7  8  2  0  0  0
  7 26  1  0  0  0
  7 29  1  0  0  0
  8  9  1  0  0  0
  8 22  1  0  0  0
  9 10  1  0  0  0
  9 27  2  0  0  0
 10 11  2  0  0  0
 10 15  1  0  0  0
 11 12  1  0  0  0
 11 95  1  0  0  0
 12 13  2  0  0  0
 12 96  1  0  0  0
 13 14  1  0  0  0
 13 31  1  0  0  0
 14 15  2  0  0  0
 14 97  1  0  0  0
 15 98  1  0  0  0
 16 17  2  0  0  0
 16 21  1  0  0  0
 16 31  1  0  0  0
 17 18  1  0  0  0
 17 99  1  0  0  0
 18 19  2  0  0  0
 18100  1  0  0  0
 19 20  1  0  0  0
 19 24  1  0  0  0
 20 21  2  0  0  0
 20101  1  0  0  0
 21 23  1  0  0  0
 22 28  1  0  0  0
 22 32  2  0  0  0
 26 27  1  0  0  0
 28102  1  0  0  0
 28103  1  0  0  0
 29104  1  0  0  0
 29105  1  0  0  0
 33 34  1  0  0  0
 33 66  1  0  0  0
 33 70  2  0  0  0
 34 36  1  0  0  0
 34 59  1  0  0  0
 34106  1  0  0  0
 35 44  2  0  0  0
 35 45  1  0  0  0
 35 68  1  0  0  0
 36 56  1  0  0  0
 36107  1  0  0  0
 37 39  1  0  0  0
 37 47  1  0  0  0
 37 66  1  0  0  0
 37108  1  0  0  0
 38 43  2  0  0  0
 38 46  1  0  0  0
 38 47  1  0  0  0
 39 64  1  0  0  0
 39 67  2  0  0  0
 40 52  1  0  0  0
 40 53  2  0  0  0
 40 58  1  0  0  0
 41109  1  0  0  0
 41110  1  0  0  0
 41111  1  0  0  0
 41 48  1  0  0  0
 42 43  1  0  0  0
 42 66  1  0  0  0
 42112  1  0  0  0
 42113  1  0  0  0
 43 44  1  0  0  0
 44114  1  0  0  0
 45 46  2  0  0  0
 45115  1  0  0  0
 46116  1  0  0  0
 47117  1  0  0  0
 47118  1  0  0  0
 48 56  1  0  0  0
 48 65  1  0  0  0
 48119  1  0  0  0
 49 50  1  0  0  0
 49 53  1  0  0  0
 49 64  1  0  0  0
 49120  1  0  0  0
 50 51  1  0  0  0
 50121  1  0  0  0
 50122  1  0  0  0
 51 52  1  0  0  0
 51123  1  0  0  0
 51124  1  0  0  0
 52125  1  0  0  0
 52126  1  0  0  0
 53 54  1  0  0  0
 54 55  2  0  0  0
 54127  1  0  0  0
 55 57  1  0  0  0
 55128  1  0  0  0
 56 69  2  0  0  0
 57 58  2  0  0  0
 57129  1  0  0  0
 58130  1  0  0  0
 59 60  1  0  0  0
 59 61  1  0  0  0
 59 62  1  0  0  0
 60131  1  0  0  0
 60132  1  0  0  0
 60133  1  0  0  0
 61134  1  0  0  0
 61135  1  0  0  0
 61136  1  0  0  0
 62137  1  0  0  0
 62138  1  0  0  0
 62139  1  0  0  0
 63 65  1  0  0  0
 63140  1  0  0  0
 63141  1  0  0  0
 63142  1  0  0  0
 64143  1  0  0  0
 65144  1  0  0  0
 68 80  1  0  0  0
 71 73  2  0  0  0
 71 74  1  0  0  0
 71145  1  0  0  0
 72 75  2  0  0  0
 72 76  1  0  0  0
 72 77  1  0  0  0
 73 75  1  0  0  0
 73 82  1  0  0  0
 74 76  2  0  0  0
 74 83  1  0  0  0
 75 84  1  0  0  0
 76 85  1  0  0  0
 77146  1  0  0  0
 77147  1  0  0  0
 77148  1  0  0  0
 78149  1  0  0  0
 78150  1  0  0  0
 78151  1  0  0  0
 78 81  1  0  0  0
 79 80  1  0  0  0
 79 81  1  0  0  0
 79152  1  0  0  0
 79153  1  0  0  0
 80154  1  0  0  0
 80155  1  0  0  0
 81 83  1  0  0  0
 81156  1  0  0  0
 82157  1  0  0  0
 83158  1  0  0  0
M  ISO  4   1 100  68 101  80 101  82 100
M  END
> <chiral flag>
0

> <version>
0

> <s_m_source_file>
/data/baiqing/PycharmProjects/Reinvent-master-3.2/result/LINK_invent/BTK/process_docking_weight1_custom_sum_contain_oxygen_bond_distance_aromatic_linkinvent_7_9_3/rearranged_h_0018.sdf

> <i_m_source_file_index>
54

> <r_mmod_Potential_Energy-OPLS-2005>
247.66096496582

> <r_mmod_Stretch_Energy-OPLS-2005>
134.969833374023

> <r_mmod_Bend_Energy-OPLS-2005>
183.585754394531

> <r_mmod_Torsional_Energy-OPLS-2005>
270.277740478516

> <r_mmod_Improper_Torsional_Energy-OPLS-2005>
7.12079000473022

> <r_mmod_Van_der_Waal_Energy-OPLS-2005>
146.251373291016

> <r_mmod_Electrostatic_Energy-OPLS-2005>
-366.171936035156

> <r_mmod_Solvation_Energy-OPLS-2005>
-224.339752197266

> <b_mmod_Minimization_Converged-OPLS-2005>
0

> <r_mmod_RMS_Derivative-OPLS-2005>
6.56517124176025

$$$$
55
                    3D
 Structure written by MMmdl.
153161  0  0  1  0            999 V2000
  -30.2988  -15.5938   20.3338 C   0  0  0  0  0  0
  -30.4323  -13.0445   19.5516 C   0  0  0  0  0  0
  -29.5557  -12.6574   18.3267 C   0  0  0  0  0  0
  -28.1223  -12.3092   18.7571 C   0  0  0  0  0  0
  -27.6009  -13.3048   19.8179 C   0  0  2  0  0  0
  -28.6171  -13.6054   20.9454 C   0  0  0  0  0  0
  -25.2335  -13.8275   20.5768 C   0  0  0  0  0  0
  -24.1719  -13.0435   20.9268 C   0  0  0  0  0  0
  -24.6402  -11.6948   20.8753 C   0  0  0  0  0  0
  -23.9089  -10.4300   21.0386 C   0  0  0  0  0  0
  -24.3630   -9.4216   21.9165 C   0  0  0  0  0  0
  -23.6309   -8.2249   22.0740 C   0  0  0  0  0  0
  -22.4293   -8.0280   21.3536 C   0  0  0  0  0  0
  -21.9922   -9.0246   20.4635 C   0  0  0  0  0  0
  -22.7253  -10.2122   20.3040 C   0  0  0  0  0  0
  -21.6858   -6.0733   22.5277 C   0  0  0  0  0  0
  -21.4017   -6.5635   23.8209 C   0  0  0  0  0  0
  -21.3665   -5.6780   24.9171 C   0  0  0  0  0  0
  -21.6040   -4.3046   24.7219 C   0  0  0  0  0  0
  -21.8830   -3.8135   23.4342 C   0  0  0  0  0  0
  -21.9183   -4.6950   22.3399 C   0  0  0  0  0  0
  -22.7730  -13.5168   21.1902 C   0  0  0  0  0  0
  -22.1665   -4.2135   21.0982 F   0  0  0  0  0  0
  -21.5618   -3.4531   25.7736 F   0  0  0  0  0  0
  -29.8059  -14.2183   20.3100 N   0  0  0  0  0  0
  -26.2779  -12.9598   20.3215 N   0  0  0  0  0  0
  -25.9350  -11.6670   20.5683 N   0  0  0  0  0  0
  -22.0380  -12.8164   22.0460 N   0  0  0  0  0  0
  -25.3941  -15.2018   20.4202 N   0  0  0  0  0  0
  -31.5232  -15.5718   20.1077 O   0  0  0  0  0  0
  -21.6653   -6.8885   21.4245 O   0  0  0  0  0  0
  -22.3413  -14.5458   20.6723 O   0  0  0  0  0  0
  -24.6821  -31.8029   23.1509 C   0  0  0  0  0  0
  -25.9414  -32.4480   23.8033 C   0  0  1  0  0  0
  -27.2336  -26.7167   20.2140 C   0  0  0  0  0  0
  -25.6020  -33.8296   24.1956 N   0  0  0  0  0  0
  -23.5068  -30.4030   21.5057 C   0  0  2  0  0  0
  -24.9670  -28.7470   20.1164 C   0  0  0  0  0  0
  -22.7765  -29.4319   22.4729 C   0  0  0  0  0  0
  -18.0353  -28.1433   22.8463 C   0  0  0  0  0  0
  -24.1484  -36.7135   23.2648 C   0  0  0  0  0  0
  -26.0859  -30.5430   21.4091 C   0  0  0  0  0  0
  -26.1561  -29.1071   20.7624 C   0  0  0  0  0  0
  -27.2734  -28.1191   20.7797 C   0  0  0  0  0  0
  -26.0123  -26.5656   19.5090 C   0  0  0  0  0  0
  -24.9338  -27.5011   19.4664 C   0  0  0  0  0  0
  -23.7597  -29.6972   20.1408 C   0  0  0  0  0  0
  -25.4134  -36.2906   24.0292 C   0  0  1  0  0  0
  -20.5980  -28.3772   23.1174 C   0  0  2  0  0  0
  -20.6804  -26.9441   22.5413 C   0  0  0  0  0  0
  -19.5781  -26.6392   21.5223 C   0  0  0  0  0  0
  -18.1967  -26.7968   22.1623 C   0  0  0  0  0  0
  -19.1614  -28.8931   23.2798 C   0  0  0  0  0  0
  -18.9513  -30.1520   23.8822 C   0  0  0  0  0  0
  -17.6505  -30.6605   24.0554 C   0  0  0  0  0  0
  -25.9122  -34.9297   23.4959 C   0  0  0  0  0  0
  -16.5392  -29.9085   23.6366 C   0  0  0  0  0  0
  -16.7328  -28.6521   23.0356 C   0  0  0  0  0  0
  -26.4609  -31.6479   25.0626 C   0  0  0  0  0  0
  -25.3706  -31.3806   26.1276 C   0  0  0  0  0  0
  -27.0507  -30.2809   24.6476 C   0  0  0  0  0  0
  -27.6089  -32.4296   25.7424 C   0  0  0  0  0  0
  -27.5557  -37.1735   24.8468 C   0  0  0  0  0  0
  -21.4411  -29.3016   22.3478 N   0  0  0  0  0  0
  -26.4258  -37.3668   23.9432 N   0  0  0  0  0  0
  -24.7812  -30.9482   22.0749 N   0  0  0  0  0  0
  -23.4243  -28.7937   23.3061 O   0  0  0  0  0  0
  -28.1878  -25.4945   20.3054 O   0  0  0  0  0  0
  -26.5731  -34.8882   22.4558 O   0  0  0  0  0  0
  -23.5849  -32.1073   23.6502 O   0  0  0  0  0  0
  -29.4923  -21.1964   19.4322 C   0  0  0  0  0  0
  -28.1811  -20.9865   21.2048 C   0  0  0  0  0  0
  -28.6297  -22.0703   20.2900 C   0  0  0  0  0  0
  -29.8214  -19.6901   19.4705 C   0  0  0  0  0  0
  -28.4775  -19.4855   21.2642 C   0  0  0  0  0  0
  -29.3495  -18.6219   20.4092 C   0  0  0  0  0  0
  -30.7061  -19.2048   18.3349 C   0  0  0  0  0  0
  -28.5738  -18.3474   23.5492 C   0  0  0  0  0  0
  -27.7085  -18.7324   22.3430 C   0  0  0  0  0  0
  -27.9062  -23.7832   20.0666 C   0  0  0  0  0  0
  -29.4743  -16.9029   20.4802 N   0  0  0  0  0  0
  -31.4306  -13.3003   19.1965 H   0  0  0  0  0  0
  -30.5822  -12.1851   20.2085 H   0  0  0  0  0  0
  -30.0018  -11.8266   17.7800 H   0  0  0  0  0  0
  -29.5276  -13.5001   17.6345 H   0  0  0  0  0  0
  -28.1314  -11.3027   19.1735 H   0  0  0  0  0  0
  -27.4565  -12.2777   17.8925 H   0  0  0  0  0  0
  -27.4748  -14.2367   19.2647 H   0  0  0  0  0  0
  -28.8631  -12.7124   21.5210 H   0  0  0  0  0  0
  -28.1904  -14.3160   21.6553 H   0  0  0  0  0  0
  -25.2772   -9.5692   22.4732 H   0  0  0  0  0  0
  -24.0010   -7.4640   22.7464 H   0  0  0  0  0  0
  -21.0837   -8.8762   19.8950 H   0  0  0  0  0  0
  -22.3706  -10.9646   19.6136 H   0  0  0  0  0  0
  -21.2035   -7.6146   23.9719 H   0  0  0  0  0  0
  -21.1476   -6.0509   25.9074 H   0  0  0  0  0  0
  -22.0600   -2.7593   23.2840 H   0  0  0  0  0  0
  -22.4005  -11.9848   22.4872 H   0  0  0  0  0  0
  -21.0969  -13.1149   22.2607 H   0  0  0  0  0  0
  -24.6136  -15.8434   20.5144 H   0  0  0  0  0  0
  -26.2241  -15.6383   20.0409 H   0  0  0  0  0  0
  -26.7498  -32.4968   23.0750 H   0  0  0  0  0  0
  -25.0143  -33.9304   25.0097 H   0  0  0  0  0  0
  -22.8310  -31.2398   21.3150 H   0  0  0  0  0  0
  -23.3770  -35.9430   23.3255 H   0  0  0  0  0  0
  -24.3582  -36.8832   22.2074 H   0  0  0  0  0  0
  -23.7199  -37.6295   23.6727 H   0  0  0  0  0  0
  -26.2765  -31.2695   20.6169 H   0  0  0  0  0  0
  -26.9427  -30.6206   22.0663 H   0  0  0  0  0  0
  -28.1640  -28.4026   21.3229 H   0  0  0  0  0  0
  -25.8489  -25.6194   19.0132 H   0  0  0  0  0  0
  -24.0357  -27.2125   18.9369 H   0  0  0  0  0  0
  -23.9303  -30.4544   19.3755 H   0  0  0  0  0  0
  -22.8659  -29.1602   19.8198 H   0  0  0  0  0  0
  -25.1335  -36.1652   25.0775 H   0  0  0  0  0  0
  -21.0061  -28.3380   24.1302 H   0  0  0  0  0  0
  -20.5672  -26.2392   23.3666 H   0  0  0  0  0  0
  -21.6665  -26.7396   22.1225 H   0  0  0  0  0  0
  -19.6927  -25.6295   21.1273 H   0  0  0  0  0  0
  -19.6713  -27.3189   20.6750 H   0  0  0  0  0  0
  -17.4235  -26.6734   21.4021 H   0  0  0  0  0  0
  -18.0333  -26.0128   22.9037 H   0  0  0  0  0  0
  -19.7979  -30.7379   24.2132 H   0  0  0  0  0  0
  -17.5043  -31.6273   24.5187 H   0  0  0  0  0  0
  -15.5387  -30.2956   23.7737 H   0  0  0  0  0  0
  -15.8735  -28.0836   22.7074 H   0  0  0  0  0  0
  -24.5895  -30.7139   25.7602 H   0  0  0  0  0  0
  -24.8897  -32.3036   26.4517 H   0  0  0  0  0  0
  -25.7914  -30.9096   27.0174 H   0  0  0  0  0  0
  -26.3216  -29.6454   24.1434 H   0  0  0  0  0  0
  -27.3934  -29.7202   25.5188 H   0  0  0  0  0  0
  -27.9207  -30.3934   24.0000 H   0  0  0  0  0  0
  -27.2689  -33.3702   26.1771 H   0  0  0  0  0  0
  -28.4021  -32.6669   25.0316 H   0  0  0  0  0  0
  -28.0618  -31.8547   26.5520 H   0  0  0  0  0  0
  -28.2542  -38.0061   24.7537 H   0  0  0  0  0  0
  -28.1079  -36.2587   24.6242 H   0  0  0  0  0  0
  -27.2305  -37.1339   25.8880 H   0  0  0  0  0  0
  -20.9711  -29.8673   21.6543 H   0  0  0  0  0  0
  -26.0069  -38.2708   24.1444 H   0  0  0  0  0  0
  -29.9242  -21.7225   18.5926 H   0  0  0  0  0  0
  -27.4624  -21.3351   21.9342 H   0  0  0  0  0  0
  -31.6916  -19.6694   18.3906 H   0  0  0  0  0  0
  -30.2645  -19.4548   17.3687 H   0  0  0  0  0  0
  -30.8421  -18.1225   18.3671 H   0  0  0  0  0  0
  -27.9873  -17.7851   24.2782 H   0  0  0  0  0  0
  -28.9713  -19.2278   24.0544 H   0  0  0  0  0  0
  -29.4177  -17.7210   23.2574 H   0  0  0  0  0  0
  -27.2708  -17.8361   21.9040 H   0  0  0  0  0  0
  -26.8605  -19.3252   22.6853 H   0  0  0  0  0  0
  -26.9425  -23.6653   20.5604 H   0  0  0  0  0  0
  -27.6555  -23.7635   19.0075 H   0  0  0  0  0  0
  -28.5799  -16.5587   20.7942 H   0  0  0  0  0  0
  1 25  1  0  0  0
  1 30  2  0  0  0
  1 81  1  0  0  0
  2  3  1  0  0  0
  2 25  1  0  0  0
  2 82  1  0  0  0
  2 83  1  0  0  0
  3  4  1  0  0  0
  3 84  1  0  0  0
  3 85  1  0  0  0
  4  5  1  0  0  0
  4 86  1  0  0  0
  4 87  1  0  0  0
  5  6  1  0  0  0
  5 26  1  0  0  0
  5 88  1  0  0  0
  6 25  1  0  0  0
  6 89  1  0  0  0
  6 90  1  0  0  0
  7  8  2  0  0  0
  7 26  1  0  0  0
  7 29  1  0  0  0
  8  9  1  0  0  0
  8 22  1  0  0  0
  9 10  1  0  0  0
  9 27  2  0  0  0
 10 11  2  0  0  0
 10 15  1  0  0  0
 11 12  1  0  0  0
 11 91  1  0  0  0
 12 13  2  0  0  0
 12 92  1  0  0  0
 13 14  1  0  0  0
 13 31  1  0  0  0
 14 15  2  0  0  0
 14 93  1  0  0  0
 15 94  1  0  0  0
 16 17  2  0  0  0
 16 21  1  0  0  0
 16 31  1  0  0  0
 17 18  1  0  0  0
 17 95  1  0  0  0
 18 19  2  0  0  0
 18 96  1  0  0  0
 19 20  1  0  0  0
 19 24  1  0  0  0
 20 21  2  0  0  0
 20 97  1  0  0  0
 21 23  1  0  0  0
 22 28  1  0  0  0
 22 32  2  0  0  0
 26 27  1  0  0  0
 28 98  1  0  0  0
 28 99  1  0  0  0
 29100  1  0  0  0
 29101  1  0  0  0
 33 34  1  0  0  0
 33 66  1  0  0  0
 33 70  2  0  0  0
 34 36  1  0  0  0
 34 59  1  0  0  0
 34102  1  0  0  0
 35 44  2  0  0  0
 35 45  1  0  0  0
 35 68  1  0  0  0
 36 56  1  0  0  0
 36103  1  0  0  0
 37 39  1  0  0  0
 37 47  1  0  0  0
 37 66  1  0  0  0
 37104  1  0  0  0
 38 43  2  0  0  0
 38 46  1  0  0  0
 38 47  1  0  0  0
 39 64  1  0  0  0
 39 67  2  0  0  0
 40 52  1  0  0  0
 40 53  2  0  0  0
 40 58  1  0  0  0
 41105  1  0  0  0
 41106  1  0  0  0
 41107  1  0  0  0
 41 48  1  0  0  0
 42 43  1  0  0  0
 42 66  1  0  0  0
 42108  1  0  0  0
 42109  1  0  0  0
 43 44  1  0  0  0
 44110  1  0  0  0
 45 46  2  0  0  0
 45111  1  0  0  0
 46112  1  0  0  0
 47113  1  0  0  0
 47114  1  0  0  0
 48 56  1  0  0  0
 48 65  1  0  0  0
 48115  1  0  0  0
 49 50  1  0  0  0
 49 53  1  0  0  0
 49 64  1  0  0  0
 49116  1  0  0  0
 50 51  1  0  0  0
 50117  1  0  0  0
 50118  1  0  0  0
 51 52  1  0  0  0
 51119  1  0  0  0
 51120  1  0  0  0
 52121  1  0  0  0
 52122  1  0  0  0
 53 54  1  0  0  0
 54 55  2  0  0  0
 54123  1  0  0  0
 55 57  1  0  0  0
 55124  1  0  0  0
 56 69  2  0  0  0
 57 58  2  0  0  0
 57125  1  0  0  0
 58126  1  0  0  0
 59 60  1  0  0  0
 59 61  1  0  0  0
 59 62  1  0  0  0
 60127  1  0  0  0
 60128  1  0  0  0
 60129  1  0  0  0
 61130  1  0  0  0
 61131  1  0  0  0
 61132  1  0  0  0
 62133  1  0  0  0
 62134  1  0  0  0
 62135  1  0  0  0
 63 65  1  0  0  0
 63136  1  0  0  0
 63137  1  0  0  0
 63138  1  0  0  0
 64139  1  0  0  0
 65140  1  0  0  0
 68 80  1  0  0  0
 71 73  2  0  0  0
 71 74  1  0  0  0
 71141  1  0  0  0
 72 73  1  0  0  0
 72 75  2  0  0  0
 72142  1  0  0  0
 73 80  1  0  0  0
 74 76  2  0  0  0
 74 77  1  0  0  0
 75 76  1  0  0  0
 75 79  1  0  0  0
 76 81  1  0  0  0
 77143  1  0  0  0
 77144  1  0  0  0
 77145  1  0  0  0
 78 79  1  0  0  0
 78146  1  0  0  0
 78147  1  0  0  0
 78148  1  0  0  0
 79149  1  0  0  0
 79150  1  0  0  0
 80151  1  0  0  0
 80152  1  0  0  0
 81153  1  0  0  0
M  ISO  4   1 100  68 101  80 101  81 100
M  END
> <chiral flag>
0

> <version>
0

> <s_m_source_file>
/data/baiqing/PycharmProjects/Reinvent-master-3.2/result/LINK_invent/BTK/process_docking_weight1_custom_sum_contain_oxygen_bond_distance_aromatic_linkinvent_7_9_3/rearranged_h_0018.sdf

> <i_m_source_file_index>
55

> <r_mmod_Potential_Energy-OPLS-2005>
2239.07543945312

> <r_mmod_Stretch_Energy-OPLS-2005>
925.377319335938

> <r_mmod_Bend_Energy-OPLS-2005>
661.931762695312

> <r_mmod_Torsional_Energy-OPLS-2005>
241.988174438477

> <r_mmod_Improper_Torsional_Energy-OPLS-2005>
8.37529468536377

> <r_mmod_Van_der_Waal_Energy-OPLS-2005>
126.769989013672

> <r_mmod_Electrostatic_Energy-OPLS-2005>
-376.025177001953

> <r_mmod_Solvation_Energy-OPLS-2005>
-207.381484985352

> <b_mmod_Minimization_Converged-OPLS-2005>
0

> <r_mmod_RMS_Derivative-OPLS-2005>
2.86621689796448

$$$$
56
                    3D
 Structure written by MMmdl.
161169  0  0  1  0            999 V2000
  -30.4074  -15.3313   20.3485 C   0  0  0  0  0  0
  -30.4370  -12.8497   19.5425 C   0  0  0  0  0  0
  -29.5409  -12.5923   18.3029 C   0  0  0  0  0  0
  -28.0917  -12.3043   18.7284 C   0  0  0  0  0  0
  -27.6108  -13.2824   19.8278 C   0  0  2  0  0  0
  -28.6392  -13.4823   20.9637 C   0  0  0  0  0  0
  -25.2382  -13.8258   20.5767 C   0  0  0  0  0  0
  -24.1740  -13.0435   20.9263 C   0  0  0  0  0  0
  -24.6405  -11.6937   20.8764 C   0  0  0  0  0  0
  -23.9101  -10.4295   21.0405 C   0  0  0  0  0  0
  -24.3643   -9.4207   21.9186 C   0  0  0  0  0  0
  -23.6308   -8.2246   22.0756 C   0  0  0  0  0  0
  -22.4289   -8.0287   21.3547 C   0  0  0  0  0  0
  -21.9931   -9.0263   20.4648 C   0  0  0  0  0  0
  -22.7270  -10.2138   20.3057 C   0  0  0  0  0  0
  -21.6860   -6.0742   22.5278 C   0  0  0  0  0  0
  -21.4017   -6.5646   23.8210 C   0  0  0  0  0  0
  -21.3656   -5.6796   24.9173 C   0  0  0  0  0  0
  -21.6042   -4.3056   24.7222 C   0  0  0  0  0  0
  -21.8819   -3.8152   23.4344 C   0  0  0  0  0  0
  -21.9196   -4.6969   22.3401 C   0  0  0  0  0  0
  -22.7757  -13.5186   21.1899 C   0  0  0  0  0  0
  -22.1665   -4.2153   21.0977 F   0  0  0  0  0  0
  -21.5625   -3.4538   25.7735 F   0  0  0  0  0  0
  -29.8666  -14.0054   20.3397 N   0  0  0  0  0  0
  -26.2817  -12.9547   20.3245 N   0  0  0  0  0  0
  -25.9347  -11.6642   20.5734 N   0  0  0  0  0  0
  -22.0421  -12.8167   22.0451 N   0  0  0  0  0  0
  -25.4004  -15.1993   20.4207 N   0  0  0  0  0  0
  -31.6186  -15.3317   20.0813 O   0  0  0  0  0  0
  -21.6647   -6.8886   21.4239 O   0  0  0  0  0  0
  -22.3438  -14.5490   20.6741 O   0  0  0  0  0  0
  -24.6668  -31.8178   23.1668 C   0  0  0  0  0  0
  -25.9327  -32.4557   23.8147 C   0  0  1  0  0  0
  -27.2178  -26.8790   20.1913 C   0  0  0  0  0  0
  -25.5983  -33.8376   24.2051 N   0  0  0  0  0  0
  -23.4841  -30.4281   21.5153 C   0  0  2  0  0  0
  -24.9390  -28.8076   20.1068 C   0  0  0  0  0  0
  -22.7690  -29.4412   22.4755 C   0  0  0  0  0  0
  -18.0330  -28.1413   22.8464 C   0  0  0  0  0  0
  -24.1485  -36.7184   23.2652 C   0  0  0  0  0  0
  -26.0550  -30.6075   21.4059 C   0  0  0  0  0  0
  -26.1207  -29.1927   20.7513 C   0  0  0  0  0  0
  -27.2490  -28.2480   20.7739 C   0  0  0  0  0  0
  -26.0140  -26.6660   19.4806 C   0  0  0  0  0  0
  -24.9148  -27.5659   19.4509 C   0  0  0  0  0  0
  -23.7263  -29.7406   20.1417 C   0  0  0  0  0  0
  -25.4126  -36.2945   24.0304 C   0  0  1  0  0  0
  -20.5959  -28.3757   23.1174 C   0  0  2  0  0  0
  -20.6799  -26.9429   22.5406 C   0  0  0  0  0  0
  -19.5774  -26.6373   21.5221 C   0  0  0  0  0  0
  -18.1955  -26.7948   22.1618 C   0  0  0  0  0  0
  -19.1595  -28.8907   23.2808 C   0  0  0  0  0  0
  -18.9506  -30.1498   23.8845 C   0  0  0  0  0  0
  -17.6498  -30.6602   24.0557 C   0  0  0  0  0  0
  -25.9098  -34.9333   23.5001 C   0  0  0  0  0  0
  -16.5386  -29.9087   23.6348 C   0  0  0  0  0  0
  -16.7311  -28.6509   23.0366 C   0  0  0  0  0  0
  -26.4568  -31.6523   25.0697 C   0  0  0  0  0  0
  -25.3682  -31.3791   26.1349 C   0  0  0  0  0  0
  -27.0485  -30.2888   24.6466 C   0  0  0  0  0  0
  -27.6049  -32.4353   25.7493 C   0  0  0  0  0  0
  -27.5560  -37.1749   24.8471 C   0  0  0  0  0  0
  -21.4354  -29.3040   22.3513 N   0  0  0  0  0  0
  -26.4261  -37.3693   23.9422 N   0  0  0  0  0  0
  -24.7569  -30.9797   22.0826 N   0  0  0  0  0  0
  -23.4214  -28.7991   23.3022 O   0  0  0  0  0  0
  -28.1926  -25.7382   20.3280 O   0  0  0  0  0  0
  -26.5716  -34.8886   22.4602 O   0  0  0  0  0  0
  -23.5727  -32.1172   23.6730 O   0  0  0  0  0  0
  -28.6249  -22.4691   21.9346 C   0  0  0  0  0  0
  -28.6003  -22.5806   20.5308 C   0  0  0  0  0  0
  -29.2065  -19.9973   22.0217 C   0  0  0  0  0  0
  -29.2361  -19.8259   20.6102 C   0  0  0  0  0  0
  -28.8878  -21.2579   22.6402 C   0  0  0  0  0  0
  -28.9119  -21.1845   19.9179 C   0  0  0  0  0  0
  -29.5686  -18.7937   22.8911 C   0  0  0  0  0  0
  -26.5662  -19.4500   26.5186 C   0  0  0  0  0  0
  -29.7321  -18.2370   19.9875 C   0  0  0  0  0  0
  -28.0500  -24.1335   19.8773 C   0  0  0  0  0  0
  -27.8304  -20.0967   25.9421 C   0  0  0  0  0  0
  -27.5806  -20.7467   24.5750 C   0  0  0  0  0  0
  -28.7952  -21.3493   24.0354 N   0  0  0  0  0  0
  -29.6317  -16.6094   20.4582 N   0  0  0  0  0  0
  -28.8856  -21.1293   18.1941 Cl  0  0  0  0  0  0
  -31.4552  -13.0561   19.2099 H   0  0  0  0  0  0
  -30.5129  -11.9522   20.1590 H   0  0  0  0  0  0
  -29.9326  -11.7615   17.7145 H   0  0  0  0  0  0
  -29.5630  -13.4677   17.6522 H   0  0  0  0  0  0
  -28.0565  -11.2826   19.1081 H   0  0  0  0  0  0
  -27.4245  -12.3340   17.8661 H   0  0  0  0  0  0
  -27.5186  -14.2432   19.3200 H   0  0  0  0  0  0
  -28.8193  -12.5567   21.5126 H   0  0  0  0  0  0
  -28.2655  -14.2064   21.6897 H   0  0  0  0  0  0
  -25.2782   -9.5683   22.4767 H   0  0  0  0  0  0
  -24.0010   -7.4640   22.7480 H   0  0  0  0  0  0
  -21.0859   -8.8789   19.8957 H   0  0  0  0  0  0
  -22.3725  -10.9681   19.6170 H   0  0  0  0  0  0
  -21.2010   -7.6152   23.9715 H   0  0  0  0  0  0
  -21.1476   -6.0525   25.9074 H   0  0  0  0  0  0
  -22.0600   -2.7612   23.2841 H   0  0  0  0  0  0
  -22.4059  -11.9834   22.4832 H   0  0  0  0  0  0
  -21.1035  -13.1174   22.2663 H   0  0  0  0  0  0
  -24.6251  -15.8447   20.5298 H   0  0  0  0  0  0
  -26.2350  -15.6423   20.0603 H   0  0  0  0  0  0
  -26.7394  -32.5078   23.0854 H   0  0  0  0  0  0
  -25.0086  -33.9443   25.0174 H   0  0  0  0  0  0
  -22.8015  -31.2625   21.3413 H   0  0  0  0  0  0
  -23.3767  -35.9494   23.3274 H   0  0  0  0  0  0
  -24.3559  -36.8867   22.2073 H   0  0  0  0  0  0
  -23.7220  -37.6353   23.6731 H   0  0  0  0  0  0
  -26.2417  -31.3442   20.6237 H   0  0  0  0  0  0
  -26.9132  -30.6649   22.0630 H   0  0  0  0  0  0
  -28.1327  -28.5350   21.3256 H   0  0  0  0  0  0
  -25.8755  -25.7220   18.9752 H   0  0  0  0  0  0
  -24.0199  -27.2655   18.9229 H   0  0  0  0  0  0
  -23.8850  -30.5087   19.3848 H   0  0  0  0  0  0
  -22.8344  -29.1991   19.8210 H   0  0  0  0  0  0
  -25.1322  -36.1726   25.0794 H   0  0  0  0  0  0
  -21.0055  -28.3367   24.1295 H   0  0  0  0  0  0
  -20.5680  -26.2374   23.3652 H   0  0  0  0  0  0
  -21.6659  -26.7398   22.1213 H   0  0  0  0  0  0
  -19.6930  -25.6277   21.1267 H   0  0  0  0  0  0
  -19.6712  -27.3168   20.6740 H   0  0  0  0  0  0
  -17.4227  -26.6708   21.4015 H   0  0  0  0  0  0
  -18.0332  -26.0106   22.9024 H   0  0  0  0  0  0
  -19.7986  -30.7328   24.2180 H   0  0  0  0  0  0
  -17.5053  -31.6274   24.5172 H   0  0  0  0  0  0
  -15.5388  -30.2971   23.7710 H   0  0  0  0  0  0
  -15.8712  -28.0811   22.7110 H   0  0  0  0  0  0
  -24.5891  -30.7105   25.7669 H   0  0  0  0  0  0
  -24.8844  -32.2996   26.4626 H   0  0  0  0  0  0
  -25.7913  -30.9067   27.0225 H   0  0  0  0  0  0
  -26.3174  -29.6543   24.1442 H   0  0  0  0  0  0
  -27.3978  -29.7271   25.5139 H   0  0  0  0  0  0
  -27.9123  -30.4075   23.9922 H   0  0  0  0  0  0
  -27.2612  -33.3720   26.1894 H   0  0  0  0  0  0
  -28.3944  -32.6805   25.0375 H   0  0  0  0  0  0
  -28.0617  -31.8592   26.5550 H   0  0  0  0  0  0
  -28.2558  -38.0063   24.7525 H   0  0  0  0  0  0
  -28.1076  -36.2592   24.6282 H   0  0  0  0  0  0
  -27.2284  -37.1369   25.8875 H   0  0  0  0  0  0
  -20.9617  -29.8725   21.6629 H   0  0  0  0  0  0
  -26.0100  -38.2744   24.1450 H   0  0  0  0  0  0
  -28.3809  -23.3591   22.4971 H   0  0  0  0  0  0
  -30.4407  -18.2734   22.4991 H   0  0  0  0  0  0
  -28.7346  -18.0936   22.9362 H   0  0  0  0  0  0
  -29.8380  -19.0659   23.9095 H   0  0  0  0  0  0
  -26.7716  -18.9881   27.4847 H   0  0  0  0  0  0
  -26.1832  -18.6730   25.8556 H   0  0  0  0  0  0
  -25.7751  -20.1860   26.6656 H   0  0  0  0  0  0
  -30.7973  -18.3736   19.7999 H   0  0  0  0  0  0
  -29.2995  -18.2247   18.9869 H   0  0  0  0  0  0
  -26.9748  -23.9734   19.8035 H   0  0  0  0  0  0
  -28.3887  -24.1199   18.8416 H   0  0  0  0  0  0
  -28.6031  -19.3321   25.8565 H   0  0  0  0  0  0
  -28.2082  -20.8396   26.6462 H   0  0  0  0  0  0
  -26.8227  -21.5262   24.6711 H   0  0  0  0  0  0
  -27.1703  -20.0044   23.8875 H   0  0  0  0  0  0
  -28.9245  -22.2976   24.3790 H   0  0  0  0  0  0
  -28.6873  -16.3948   20.7422 H   0  0  0  0  0  0
  1 25  1  0  0  0
  1 30  2  0  0  0
  1 84  1  0  0  0
  2  3  1  0  0  0
  2 25  1  0  0  0
  2 86  1  0  0  0
  2 87  1  0  0  0
  3  4  1  0  0  0
  3 88  1  0  0  0
  3 89  1  0  0  0
  4  5  1  0  0  0
  4 90  1  0  0  0
  4 91  1  0  0  0
  5  6  1  0  0  0
  5 26  1  0  0  0
  5 92  1  0  0  0
  6 25  1  0  0  0
  6 93  1  0  0  0
  6 94  1  0  0  0
  7  8  2  0  0  0
  7 26  1  0  0  0
  7 29  1  0  0  0
  8  9  1  0  0  0
  8 22  1  0  0  0
  9 10  1  0  0  0
  9 27  2  0  0  0
 10 11  2  0  0  0
 10 15  1  0  0  0
 11 12  1  0  0  0
 11 95  1  0  0  0
 12 13  2  0  0  0
 12 96  1  0  0  0
 13 14  1  0  0  0
 13 31  1  0  0  0
 14 15  2  0  0  0
 14 97  1  0  0  0
 15 98  1  0  0  0
 16 17  2  0  0  0
 16 21  1  0  0  0
 16 31  1  0  0  0
 17 18  1  0  0  0
 17 99  1  0  0  0
 18 19  2  0  0  0
 18100  1  0  0  0
 19 20  1  0  0  0
 19 24  1  0  0  0
 20 21  2  0  0  0
 20101  1  0  0  0
 21 23  1  0  0  0
 22 28  1  0  0  0
 22 32  2  0  0  0
 26 27  1  0  0  0
 28102  1  0  0  0
 28103  1  0  0  0
 29104  1  0  0  0
 29105  1  0  0  0
 33 34  1  0  0  0
 33 66  1  0  0  0
 33 70  2  0  0  0
 34 36  1  0  0  0
 34 59  1  0  0  0
 34106  1  0  0  0
 35 44  2  0  0  0
 35 45  1  0  0  0
 35 68  1  0  0  0
 36 56  1  0  0  0
 36107  1  0  0  0
 37 39  1  0  0  0
 37 47  1  0  0  0
 37 66  1  0  0  0
 37108  1  0  0  0
 38 43  2  0  0  0
 38 46  1  0  0  0
 38 47  1  0  0  0
 39 64  1  0  0  0
 39 67  2  0  0  0
 40 52  1  0  0  0
 40 53  2  0  0  0
 40 58  1  0  0  0
 41109  1  0  0  0
 41110  1  0  0  0
 41111  1  0  0  0
 41 48  1  0  0  0
 42 43  1  0  0  0
 42 66  1  0  0  0
 42112  1  0  0  0
 42113  1  0  0  0
 43 44  1  0  0  0
 44114  1  0  0  0
 45 46  2  0  0  0
 45115  1  0  0  0
 46116  1  0  0  0
 47117  1  0  0  0
 47118  1  0  0  0
 48 56  1  0  0  0
 48 65  1  0  0  0
 48119  1  0  0  0
 49 50  1  0  0  0
 49 53  1  0  0  0
 49 64  1  0  0  0
 49120  1  0  0  0
 50 51  1  0  0  0
 50121  1  0  0  0
 50122  1  0  0  0
 51 52  1  0  0  0
 51123  1  0  0  0
 51124  1  0  0  0
 52125  1  0  0  0
 52126  1  0  0  0
 53 54  1  0  0  0
 54 55  2  0  0  0
 54127  1  0  0  0
 55 57  1  0  0  0
 55128  1  0  0  0
 56 69  2  0  0  0
 57 58  2  0  0  0
 57129  1  0  0  0
 58130  1  0  0  0
 59 60  1  0  0  0
 59 61  1  0  0  0
 59 62  1  0  0  0
 60131  1  0  0  0
 60132  1  0  0  0
 60133  1  0  0  0
 61134  1  0  0  0
 61135  1  0  0  0
 61136  1  0  0  0
 62137  1  0  0  0
 62138  1  0  0  0
 62139  1  0  0  0
 63 65  1  0  0  0
 63140  1  0  0  0
 63141  1  0  0  0
 63142  1  0  0  0
 64143  1  0  0  0
 65144  1  0  0  0
 68 80  1  0  0  0
 71 72  2  0  0  0
 71 75  1  0  0  0
 71145  1  0  0  0
 72 76  1  0  0  0
 72 80  1  0  0  0
 73 74  1  0  0  0
 73 75  2  0  0  0
 73 77  1  0  0  0
 74 76  2  0  0  0
 74 79  1  0  0  0
 75 83  1  0  0  0
 76 85  1  0  0  0
 77146  1  0  0  0
 77147  1  0  0  0
 77148  1  0  0  0
 78 81  1  0  0  0
 78149  1  0  0  0
 78150  1  0  0  0
 78151  1  0  0  0
 79 84  1  0  0  0
 79152  1  0  0  0
 79153  1  0  0  0
 80154  1  0  0  0
 80155  1  0  0  0
 81 82  1  0  0  0
 81156  1  0  0  0
 81157  1  0  0  0
 82 83  1  0  0  0
 82158  1  0  0  0
 82159  1  0  0  0
 83160  1  0  0  0
 84161  1  0  0  0
M  ISO  4   1 100  68 101  80 101  84 100
M  END
> <chiral flag>
0

> <version>
0

> <s_m_source_file>
/data/baiqing/PycharmProjects/Reinvent-master-3.2/result/LINK_invent/BTK/process_docking_weight1_custom_sum_contain_oxygen_bond_distance_aromatic_linkinvent_7_9_3/rearranged_h_0018.sdf

> <i_m_source_file_index>
56

> <r_mmod_Potential_Energy-OPLS-2005>
1342.22570800781

> <r_mmod_Stretch_Energy-OPLS-2005>
651.831909179688

> <r_mmod_Bend_Energy-OPLS-2005>
441.364227294922

> <r_mmod_Torsional_Energy-OPLS-2005>
231.915130615234

> <r_mmod_Improper_Torsional_Energy-OPLS-2005>
11.2425765991211

> <r_mmod_Van_der_Waal_Energy-OPLS-2005>
128.064117431641

> <r_mmod_Electrostatic_Energy-OPLS-2005>
-439.385437011719

> <r_mmod_Solvation_Energy-OPLS-2005>
-220.699661254883

> <b_mmod_Minimization_Converged-OPLS-2005>
0

> <r_mmod_RMS_Derivative-OPLS-2005>
0.998504936695099

$$$$
57
                    3D
 Structure written by MMmdl.
167175  0  0  1  0            999 V2000
  -30.7278  -14.8293   20.3144 C   0  0  0  0  0  0
  -30.3867  -12.4887   19.4585 C   0  0  0  0  0  0
  -29.4893  -12.4641   18.2110 C   0  0  0  0  0  0
  -28.0150  -12.2802   18.6138 C   0  0  0  0  0  0
  -27.6086  -13.1793   19.8080 C   0  0  2  0  0  0
  -28.6722  -13.3114   20.9186 C   0  0  0  0  0  0
  -25.2495  -13.7997   20.5791 C   0  0  0  0  0  0
  -24.1739  -13.0253   20.9243 C   0  0  0  0  0  0
  -24.6261  -11.6735   20.8698 C   0  0  0  0  0  0
  -23.8933  -10.4165   21.0348 C   0  0  0  0  0  0
  -24.3546   -9.4136   21.9147 C   0  0  0  0  0  0
  -23.6264   -8.2163   22.0727 C   0  0  0  0  0  0
  -22.4241   -8.0180   21.3531 C   0  0  0  0  0  0
  -21.9826   -9.0122   20.4625 C   0  0  0  0  0  0
  -22.7094  -10.2012   20.3014 C   0  0  0  0  0  0
  -21.6842   -6.0639   22.5282 C   0  0  0  0  0  0
  -21.3981   -6.5580   23.8191 C   0  0  0  0  0  0
  -21.3714   -5.6748   24.9204 C   0  0  0  0  0  0
  -21.6094   -4.3010   24.7243 C   0  0  0  0  0  0
  -21.8823   -3.8070   23.4368 C   0  0  0  0  0  0
  -21.9202   -4.6882   22.3416 C   0  0  0  0  0  0
  -22.7792  -13.5088   21.1935 C   0  0  0  0  0  0
  -22.1672   -4.2078   21.0984 F   0  0  0  0  0  0
  -21.5716   -3.4502   25.7763 F   0  0  0  0  0  0
  -29.9510  -13.6666   20.2763 N   0  0  0  0  0  0
  -26.2796  -12.9061   20.3203 N   0  0  0  0  0  0
  -25.9169  -11.6258   20.5705 N   0  0  0  0  0  0
  -22.0476  -12.8052   22.0502 N   0  0  0  0  0  0
  -25.4164  -15.1709   20.4321 N   0  0  0  0  0  0
  -31.9215  -14.5852   20.2459 O   0  0  0  0  0  0
  -21.6654   -6.8765   21.4206 O   0  0  0  0  0  0
  -22.3456  -14.5370   20.6795 O   0  0  0  0  0  0
  -24.6398  -31.8534   23.1951 C   0  0  0  0  0  0
  -25.9175  -32.4776   23.8329 C   0  0  1  0  0  0
  -27.2220  -27.2220   20.1332 C   0  0  0  0  0  0
  -25.5992  -33.8572   24.2310 N   0  0  0  0  0  0
  -23.4365  -30.4812   21.5370 C   0  0  2  0  0  0
  -24.8820  -28.9163   20.1120 C   0  0  0  0  0  0
  -22.7528  -29.4637   22.4843 C   0  0  0  0  0  0
  -18.0293  -28.1437   22.8476 C   0  0  0  0  0  0
  -24.1475  -36.7301   23.2625 C   0  0  0  0  0  0
  -25.9816  -30.7654   21.3654 C   0  0  0  0  0  0
  -26.0566  -29.3741   20.7244 C   0  0  0  0  0  0
  -27.2289  -28.5436   20.7211 C   0  0  0  0  0  0
  -26.0274  -26.8532   19.4788 C   0  0  0  0  0  0
  -24.8759  -27.6679   19.4749 C   0  0  0  0  0  0
  -23.6618  -29.8197   20.1520 C   0  0  0  0  0  0
  -25.4089  -36.3101   24.0346 C   0  0  1  0  0  0
  -20.5926  -28.3790   23.1246 C   0  0  2  0  0  0
  -20.6810  -26.9503   22.5394 C   0  0  0  0  0  0
  -19.5764  -26.6412   21.5233 C   0  0  0  0  0  0
  -18.1956  -26.7961   22.1651 C   0  0  0  0  0  0
  -19.1563  -28.8906   23.2872 C   0  0  0  0  0  0
  -18.9467  -30.1486   23.8932 C   0  0  0  0  0  0
  -17.6479  -30.6628   24.0574 C   0  0  0  0  0  0
  -25.9043  -34.9464   23.5115 C   0  0  0  0  0  0
  -16.5372  -29.9146   23.6278 C   0  0  0  0  0  0
  -16.7293  -28.6549   23.0319 C   0  0  0  0  0  0
  -26.4500  -31.6543   25.0705 C   0  0  0  0  0  0
  -25.3728  -31.3643   26.1426 C   0  0  0  0  0  0
  -27.0259  -30.2980   24.6025 C   0  0  0  0  0  0
  -27.6088  -32.4171   25.7538 C   0  0  0  0  0  0
  -27.5555  -37.1828   24.8456 C   0  0  0  0  0  0
  -21.4237  -29.3123   22.3636 N   0  0  0  0  0  0
  -26.4244  -37.3810   23.9421 N   0  0  0  0  0  0
  -24.7075  -31.0484   22.0958 N   0  0  0  0  0  0
  -23.4207  -28.8146   23.2944 O   0  0  0  0  0  0
  -28.3133  -26.3039   20.1540 O   0  0  0  0  0  0
  -26.5596  -34.8922   22.4671 O   0  0  0  0  0  0
  -23.5529  -32.1334   23.7242 O   0  0  0  0  0  0
  -30.3675  -16.4071   20.2167 C   0  0  0  0  0  0
  -31.4072  -17.4358   20.1124 C   0  0  0  0  0  0
  -28.7785  -18.4486   20.0941 C   0  0  0  0  0  0
  -29.8119  -19.4385   20.0051 C   0  0  0  0  0  0
  -29.0617  -17.0156   20.0625 C   0  0  0  0  0  0
  -31.1082  -18.8468   19.9657 C   0  0  0  0  0  0
  -27.3155  -18.9001   20.1439 C   0  0  0  0  0  0
  -33.4346  -16.6513   18.6527 C   0  0  0  0  0  0
  -30.4693  -24.0433   20.9166 C   0  0  0  0  0  0
  -27.7475  -16.3449   18.2702 C   0  0  0  0  0  0
  -32.9307  -17.1381   20.0455 C   0  0  0  0  0  0
  -29.6561  -21.0243   19.6410 C   0  0  0  0  0  0
  -28.0718  -24.8104   20.3688 C   0  0  0  0  0  0
  -29.2062  -23.6442   20.1254 C   0  0  2  0  0  0
  -28.8676  -22.1331   20.3936 N   0  3  0  0  0  0
  -28.0130  -16.2346   19.6799 O   0  0  0  0  0  0
  -32.1415  -19.6775   19.6728 F   0  0  0  0  0  0
  -31.4356  -12.5195   19.1478 H   0  0  0  0  0  0
  -30.2683  -11.5501   19.9996 H   0  0  0  0  0  0
  -29.7864  -11.6599   17.5375 H   0  0  0  0  0  0
  -29.6227  -13.3952   17.6565 H   0  0  0  0  0  0
  -27.8440  -11.2241   18.8312 H   0  0  0  0  0  0
  -27.3806  -12.5024   17.7530 H   0  0  0  0  0  0
  -27.5209  -14.1218   19.3211 H   0  0  0  0  0  0
  -28.7513  -12.3746   21.4738 H   0  0  0  0  0  0
  -28.3809  -14.0735   21.6397 H   0  0  0  0  0  0
  -25.2688   -9.5695   22.4717 H   0  0  0  0  0  0
  -24.0043   -7.4561   22.7419 H   0  0  0  0  0  0
  -21.0804   -8.8531   19.8927 H   0  0  0  0  0  0
  -22.3495  -10.9529   19.6152 H   0  0  0  0  0  0
  -21.1869   -7.6067   23.9712 H   0  0  0  0  0  0
  -21.1616   -6.0463   25.9126 H   0  0  0  0  0  0
  -22.0563   -2.7524   23.2893 H   0  0  0  0  0  0
  -22.4150  -11.9788   22.4973 H   0  0  0  0  0  0
  -21.1032  -13.0991   22.2625 H   0  0  0  0  0  0
  -24.6443  -15.8141   20.5710 H   0  0  0  0  0  0
  -26.3003  -15.6273   20.2139 H   0  0  0  0  0  0
  -26.7274  -32.5422   23.1096 H   0  0  0  0  0  0
  -25.0162  -33.9678   25.0481 H   0  0  0  0  0  0
  -22.7385  -31.3089   21.3928 H   0  0  0  0  0  0
  -23.3748  -35.9616   23.3237 H   0  0  0  0  0  0
  -24.3592  -36.8956   22.2046 H   0  0  0  0  0  0
  -23.7178  -37.6485   23.6635 H   0  0  0  0  0  0
  -26.0747  -31.5103   20.5720 H   0  0  0  0  0  0
  -26.8776  -30.8575   21.9667 H   0  0  0  0  0  0
  -28.1232  -28.8977   21.2113 H   0  0  0  0  0  0
  -25.9513  -25.9139   18.9504 H   0  0  0  0  0  0
  -23.9863  -27.3242   18.9658 H   0  0  0  0  0  0
  -23.8145  -30.6051   19.4133 H   0  0  0  0  0  0
  -22.7739  -29.2819   19.8162 H   0  0  0  0  0  0
  -25.1251  -36.1956   25.0840 H   0  0  0  0  0  0
  -21.0004  -28.3381   24.1374 H   0  0  0  0  0  0
  -20.5762  -26.2426   23.3639 H   0  0  0  0  0  0
  -21.6686  -26.7556   22.1173 H   0  0  0  0  0  0
  -19.6956  -25.6295   21.1319 H   0  0  0  0  0  0
  -19.6689  -27.3188   20.6743 H   0  0  0  0  0  0
  -17.4228  -26.6701   21.4050 H   0  0  0  0  0  0
  -18.0350  -26.0125   22.9077 H   0  0  0  0  0  0
  -19.7958  -30.7284   24.2352 H   0  0  0  0  0  0
  -17.5039  -31.6316   24.5189 H   0  0  0  0  0  0
  -15.5381  -30.3097   23.7535 H   0  0  0  0  0  0
  -15.8698  -28.0902   22.6990 H   0  0  0  0  0  0
  -24.6031  -30.6831   25.7781 H   0  0  0  0  0  0
  -24.8772  -32.2775   26.4713 H   0  0  0  0  0  0
  -25.8097  -30.8984   27.0269 H   0  0  0  0  0  0
  -26.2767  -29.6833   24.1037 H   0  0  0  0  0  0
  -27.3991  -29.7089   25.4398 H   0  0  0  0  0  0
  -27.8618  -30.4283   23.9162 H   0  0  0  0  0  0
  -27.2771  -33.3482   26.2083 H   0  0  0  0  0  0
  -28.3981  -32.6634   25.0455 H   0  0  0  0  0  0
  -28.0616  -31.8267   26.5483 H   0  0  0  0  0  0
  -28.2556  -38.0146   24.7538 H   0  0  0  0  0  0
  -28.1079  -36.2684   24.6237 H   0  0  0  0  0  0
  -27.2298  -37.1433   25.8868 H   0  0  0  0  0  0
  -20.9419  -29.8952   21.6947 H   0  0  0  0  0  0
  -26.0131  -38.2871   24.1494 H   0  0  0  0  0  0
  -27.1797  -19.6752   20.9012 H   0  0  0  0  0  0
  -26.6544  -18.0859   20.4477 H   0  0  0  0  0  0
  -26.9615  -19.2773   19.1843 H   0  0  0  0  0  0
  -34.5188  -16.7549   18.5313 H   0  0  0  0  0  0
  -32.9765  -17.2131   17.8469 H   0  0  0  0  0  0
  -33.2164  -15.6021   18.4455 H   0  0  0  0  0  0
  -30.7891  -25.0565   20.6565 H   0  0  0  0  0  0
  -31.3137  -23.3765   20.7340 H   0  0  0  0  0  0
  -30.2690  -24.0418   21.9877 H   0  0  0  0  0  0
  -27.5440  -17.3664   17.9408 H   0  0  0  0  0  0
  -26.8627  -15.7666   18.0050 H   0  0  0  0  0  0
  -28.5828  -15.9522   17.6814 H   0  0  0  0  0  0
  -33.2191  -16.4670   20.8519 H   0  0  0  0  0  0
  -33.5070  -18.0281   20.3111 H   0  0  0  0  0  0
  -29.3361  -21.0645   18.5967 H   0  0  0  0  0  0
  -30.6758  -21.4153   19.6173 H   0  0  0  0  0  0
  -27.7568  -24.7354   21.4113 H   0  0  0  0  0  0
  -27.2027  -24.4940   19.7959 H   0  0  0  0  0  0
  -29.4541  -23.7011   19.0660 H   0  0  0  0  0  0
  -28.9459  -21.9679   21.3849 H   0  0  0  0  0  0
  -27.8947  -21.9788   20.1792 H   0  0  0  0  0  0
  1 25  1  0  0  0
  1 30  2  0  0  0
  1 71  1  0  0  0
  2  3  1  0  0  0
  2 25  1  0  0  0
  2 88  1  0  0  0
  2 89  1  0  0  0
  3  4  1  0  0  0
  3 90  1  0  0  0
  3 91  1  0  0  0
  4  5  1  0  0  0
  4 92  1  0  0  0
  4 93  1  0  0  0
  5  6  1  0  0  0
  5 26  1  0  0  0
  5 94  1  0  0  0
  6 25  1  0  0  0
  6 95  1  0  0  0
  6 96  1  0  0  0
  7  8  2  0  0  0
  7 26  1  0  0  0
  7 29  1  0  0  0
  8  9  1  0  0  0
  8 22  1  0  0  0
  9 10  1  0  0  0
  9 27  2  0  0  0
 10 11  2  0  0  0
 10 15  1  0  0  0
 11 12  1  0  0  0
 11 97  1  0  0  0
 12 13  2  0  0  0
 12 98  1  0  0  0
 13 14  1  0  0  0
 13 31  1  0  0  0
 14 15  2  0  0  0
 14 99  1  0  0  0
 15100  1  0  0  0
 16 17  2  0  0  0
 16 21  1  0  0  0
 16 31  1  0  0  0
 17 18  1  0  0  0
 17101  1  0  0  0
 18 19  2  0  0  0
 18102  1  0  0  0
 19 20  1  0  0  0
 19 24  1  0  0  0
 20 21  2  0  0  0
 20103  1  0  0  0
 21 23  1  0  0  0
 22 28  1  0  0  0
 22 32  2  0  0  0
 26 27  1  0  0  0
 28104  1  0  0  0
 28105  1  0  0  0
 29106  1  0  0  0
 29107  1  0  0  0
 33 34  1  0  0  0
 33 66  1  0  0  0
 33 70  2  0  0  0
 34 36  1  0  0  0
 34 59  1  0  0  0
 34108  1  0  0  0
 35 44  2  0  0  0
 35 45  1  0  0  0
 35 68  1  0  0  0
 36 56  1  0  0  0
 36109  1  0  0  0
 37 39  1  0  0  0
 37 47  1  0  0  0
 37 66  1  0  0  0
 37110  1  0  0  0
 38 43  2  0  0  0
 38 46  1  0  0  0
 38 47  1  0  0  0
 39 64  1  0  0  0
 39 67  2  0  0  0
 40 52  1  0  0  0
 40 53  2  0  0  0
 40 58  1  0  0  0
 41111  1  0  0  0
 41112  1  0  0  0
 41113  1  0  0  0
 41 48  1  0  0  0
 42 43  1  0  0  0
 42 66  1  0  0  0
 42114  1  0  0  0
 42115  1  0  0  0
 43 44  1  0  0  0
 44116  1  0  0  0
 45 46  2  0  0  0
 45117  1  0  0  0
 46118  1  0  0  0
 47119  1  0  0  0
 47120  1  0  0  0
 48 56  1  0  0  0
 48 65  1  0  0  0
 48121  1  0  0  0
 49 50  1  0  0  0
 49 53  1  0  0  0
 49 64  1  0  0  0
 49122  1  0  0  0
 50 51  1  0  0  0
 50123  1  0  0  0
 50124  1  0  0  0
 51 52  1  0  0  0
 51125  1  0  0  0
 51126  1  0  0  0
 52127  1  0  0  0
 52128  1  0  0  0
 53 54  1  0  0  0
 54 55  2  0  0  0
 54129  1  0  0  0
 55 57  1  0  0  0
 55130  1  0  0  0
 56 69  2  0  0  0
 57 58  2  0  0  0
 57131  1  0  0  0
 58132  1  0  0  0
 59 60  1  0  0  0
 59 61  1  0  0  0
 59 62  1  0  0  0
 60133  1  0  0  0
 60134  1  0  0  0
 60135  1  0  0  0
 61136  1  0  0  0
 61137  1  0  0  0
 61138  1  0  0  0
 62139  1  0  0  0
 62140  1  0  0  0
 62141  1  0  0  0
 63 65  1  0  0  0
 63142  1  0  0  0
 63143  1  0  0  0
 63144  1  0  0  0
 64145  1  0  0  0
 65146  1  0  0  0
 68 83  1  0  0  0
 71 72  2  0  0  0
 71 75  1  0  0  0
 72 76  1  0  0  0
 72 81  1  0  0  0
 73 74  1  0  0  0
 73 75  2  0  0  0
 73 77  1  0  0  0
 74 76  2  0  0  0
 74 82  1  0  0  0
 75 86  1  0  0  0
 76 87  1  0  0  0
 77147  1  0  0  0
 77148  1  0  0  0
 77149  1  0  0  0
 78 81  1  0  0  0
 78150  1  0  0  0
 78151  1  0  0  0
 78152  1  0  0  0
 79153  1  0  0  0
 79154  1  0  0  0
 79155  1  0  0  0
 79 84  1  0  0  0
 80 86  1  0  0  0
 80156  1  0  0  0
 80157  1  0  0  0
 80158  1  0  0  0
 81159  1  0  0  0
 81160  1  0  0  0
 82 85  1  0  0  0
 82161  1  0  0  0
 82162  1  0  0  0
 83 84  1  0  0  0
 83163  1  0  0  0
 83164  1  0  0  0
 84 85  1  0  0  0
 84165  1  0  0  0
 85166  1  0  0  0
 85167  1  0  0  0
M  CHG  1  85   1
M  ISO  4   1 100  68 101  71 100  83 101
M  END
> <chiral flag>
0

> <version>
0

> <s_m_source_file>
/data/baiqing/PycharmProjects/Reinvent-master-3.2/result/LINK_invent/BTK/process_docking_weight1_custom_sum_contain_oxygen_bond_distance_aromatic_linkinvent_7_9_3/rearranged_h_0018.sdf

> <i_m_source_file_index>
57

> <r_mmod_Potential_Energy-OPLS-2005>
425.261413574219

> <r_mmod_Stretch_Energy-OPLS-2005>
199.851745605469

> <r_mmod_Bend_Energy-OPLS-2005>
285.739349365234

> <r_mmod_Torsional_Energy-OPLS-2005>
277.906707763672

> <r_mmod_Improper_Torsional_Energy-OPLS-2005>
7.85248136520386

> <r_mmod_Van_der_Waal_Energy-OPLS-2005>
169.400985717773

> <r_mmod_Electrostatic_Energy-OPLS-2005>
-233.770721435547

> <r_mmod_Solvation_Energy-OPLS-2005>
-420.217926025391

> <b_mmod_Minimization_Converged-OPLS-2005>
0

> <r_mmod_RMS_Derivative-OPLS-2005>
8.95472812652588

$$$$
58
                    3D
 Structure written by MMmdl.
153161  0  0  1  0            999 V2000
  -30.4458  -15.1952   20.3796 C   0  0  0  0  0  0
  -30.4477  -12.7559   19.5187 C   0  0  0  0  0  0
  -29.5363  -12.5715   18.2791 C   0  0  0  0  0  0
  -28.0793  -12.3085   18.7016 C   0  0  0  0  0  0
  -27.6178  -13.2670   19.8286 C   0  0  2  0  0  0
  -28.6577  -13.3956   20.9635 C   0  0  0  0  0  0
  -25.2354  -13.8139   20.5702 C   0  0  0  0  0  0
  -24.1728  -13.0358   20.9279 C   0  0  0  0  0  0
  -24.6403  -11.6874   20.8776 C   0  0  0  0  0  0
  -23.9090  -10.4251   21.0412 C   0  0  0  0  0  0
  -24.3632   -9.4171   21.9190 C   0  0  0  0  0  0
  -23.6294   -8.2217   22.0757 C   0  0  0  0  0  0
  -22.4273   -8.0267   21.3548 C   0  0  0  0  0  0
  -21.9919   -9.0240   20.4646 C   0  0  0  0  0  0
  -22.7263  -10.2109   20.3054 C   0  0  0  0  0  0
  -21.6847   -6.0726   22.5280 C   0  0  0  0  0  0
  -21.4010   -6.5633   23.8212 C   0  0  0  0  0  0
  -21.3660   -5.6789   24.9175 C   0  0  0  0  0  0
  -21.6045   -4.3051   24.7227 C   0  0  0  0  0  0
  -21.8819   -3.8141   23.4349 C   0  0  0  0  0  0
  -21.9189   -4.6955   22.3403 C   0  0  0  0  0  0
  -22.7750  -13.5137   21.1918 C   0  0  0  0  0  0
  -22.1659   -4.2143   21.0980 F   0  0  0  0  0  0
  -21.5631   -3.4535   25.7740 F   0  0  0  0  0  0
  -29.9035  -13.8851   20.3494 N   0  0  0  0  0  0
  -26.2832  -12.9456   20.3221 N   0  0  0  0  0  0
  -25.9347  -11.6568   20.5740 N   0  0  0  0  0  0
  -22.0397  -12.8135   22.0475 N   0  0  0  0  0  0
  -25.3835  -15.1827   20.4013 N   0  0  0  0  0  0
  -31.6601  -15.2378   20.1426 O   0  0  0  0  0  0
  -21.6630   -6.8870   21.4244 O   0  0  0  0  0  0
  -22.3443  -14.5444   20.6756 O   0  0  0  0  0  0
  -24.6575  -31.8280   23.1742 C   0  0  0  0  0  0
  -25.9280  -32.4609   23.8190 C   0  0  1  0  0  0
  -27.2307  -26.9901   20.1791 C   0  0  0  0  0  0
  -25.5969  -33.8421   24.2101 N   0  0  0  0  0  0
  -23.4704  -30.4399   21.5210 C   0  0  2  0  0  0
  -24.9254  -28.8352   20.1112 C   0  0  0  0  0  0
  -22.7647  -29.4456   22.4791 C   0  0  0  0  0  0
  -18.0318  -28.1401   22.8465 C   0  0  0  0  0  0
  -24.1492  -36.7226   23.2647 C   0  0  0  0  0  0
  -26.0343  -30.6562   21.3930 C   0  0  0  0  0  0
  -26.1059  -29.2512   20.7388 C   0  0  0  0  0  0
  -27.2544  -28.3490   20.7470 C   0  0  0  0  0  0
  -26.0197  -26.7071   19.5091 C   0  0  0  0  0  0
  -24.9035  -27.5819   19.4763 C   0  0  0  0  0  0
  -23.7080  -29.7557   20.1457 C   0  0  0  0  0  0
  -25.4128  -36.2979   24.0303 C   0  0  1  0  0  0
  -20.5940  -28.3745   23.1192 C   0  0  2  0  0  0
  -20.6791  -26.9434   22.5399 C   0  0  0  0  0  0
  -19.5765  -26.6376   21.5207 C   0  0  0  0  0  0
  -18.1947  -26.7933   22.1621 C   0  0  0  0  0  0
  -19.1580  -28.8894   23.2815 C   0  0  0  0  0  0
  -18.9492  -30.1481   23.8854 C   0  0  0  0  0  0
  -17.6486  -30.6592   24.0552 C   0  0  0  0  0  0
  -25.9089  -34.9360   23.5019 C   0  0  0  0  0  0
  -16.5377  -29.9082   23.6335 C   0  0  0  0  0  0
  -16.7300  -28.6501   23.0355 C   0  0  0  0  0  0
  -26.4550  -31.6538   25.0701 C   0  0  0  0  0  0
  -25.3698  -31.3773   26.1374 C   0  0  0  0  0  0
  -27.0438  -30.2913   24.6394 C   0  0  0  0  0  0
  -27.6043  -32.4344   25.7504 C   0  0  0  0  0  0
  -27.5567  -37.1769   24.8465 C   0  0  0  0  0  0
  -21.4323  -29.3042   22.3546 N   0  0  0  0  0  0
  -26.4276  -37.3713   23.9408 N   0  0  0  0  0  0
  -24.7414  -31.0001   22.0840 N   0  0  0  0  0  0
  -23.4212  -28.8022   23.3015 O   0  0  0  0  0  0
  -28.2625  -25.9342   20.2596 O   0  0  0  0  0  0
  -26.5695  -34.8886   22.4611 O   0  0  0  0  0  0
  -23.5658  -32.1215   23.6878 O   0  0  0  0  0  0
  -30.4045  -20.4657   20.3326 C   0  0  0  0  0  0
  -29.1644  -21.2361   20.3620 C   0  0  0  0  0  0
  -28.1046  -20.2436   20.4177 C   0  0  0  0  0  0
  -28.2915  -18.7564   20.4065 C   0  0  0  0  0  0
  -29.5506  -17.9985   20.4072 C   0  0  0  0  0  0
  -30.6037  -18.9972   20.3606 C   0  0  0  0  0  0
  -26.6935  -20.8060   20.5297 C   0  0  0  0  0  0
  -27.0475  -17.8826   20.3864 C   0  0  0  0  0  0
  -29.1394  -22.9729   20.4761 C   0  0  0  0  0  0
  -28.0573  -24.3262   20.1040 C   0  0  0  0  0  0
  -29.5959  -16.3876   20.4851 N   0  0  0  0  0  0
  -32.2394  -18.4469   20.3599 Cl  0  0  0  0  0  0
  -31.4690  -12.9571   19.1928 H   0  0  0  0  0  0
  -30.5011  -11.8359   20.1027 H   0  0  0  0  0  0
  -29.9019  -11.7537   17.6567 H   0  0  0  0  0  0
  -29.5796  -13.4696   17.6610 H   0  0  0  0  0  0
  -28.0193  -11.2768   19.0505 H   0  0  0  0  0  0
  -27.4136  -12.3796   17.8407 H   0  0  0  0  0  0
  -27.5451  -14.2457   19.3536 H   0  0  0  0  0  0
  -28.8069  -12.4447   21.4778 H   0  0  0  0  0  0
  -28.3115  -14.1047   21.7173 H   0  0  0  0  0  0
  -25.2775   -9.5638   22.4769 H   0  0  0  0  0  0
  -23.9991   -7.4603   22.7479 H   0  0  0  0  0  0
  -21.0849   -8.8764   19.8951 H   0  0  0  0  0  0
  -22.3729  -10.9649   19.6161 H   0  0  0  0  0  0
  -21.2003   -7.6141   23.9713 H   0  0  0  0  0  0
  -21.1484   -6.0519   25.9078 H   0  0  0  0  0  0
  -22.0598   -2.7603   23.2850 H   0  0  0  0  0  0
  -22.4021  -11.9810   22.4882 H   0  0  0  0  0  0
  -21.1011  -13.1154   22.2665 H   0  0  0  0  0  0
  -24.5848  -15.8037   20.4699 H   0  0  0  0  0  0
  -26.1752  -15.6050   19.9402 H   0  0  0  0  0  0
  -26.7353  -32.5162   23.0911 H   0  0  0  0  0  0
  -25.0067  -33.9506   25.0217 H   0  0  0  0  0  0
  -22.7810  -31.2695   21.3522 H   0  0  0  0  0  0
  -23.3756  -35.9554   23.3284 H   0  0  0  0  0  0
  -24.3573  -36.8897   22.2067 H   0  0  0  0  0  0
  -23.7249  -37.6408   23.6718 H   0  0  0  0  0  0
  -26.2041  -31.4017   20.6147 H   0  0  0  0  0  0
  -26.8980  -30.7137   22.0438 H   0  0  0  0  0  0
  -28.1510  -28.6674   21.2603 H   0  0  0  0  0  0
  -25.9091  -25.7464   19.0271 H   0  0  0  0  0  0
  -24.0056  -27.2582   18.9673 H   0  0  0  0  0  0
  -23.8579  -30.5240   19.3861 H   0  0  0  0  0  0
  -22.8203  -29.2050   19.8305 H   0  0  0  0  0  0
  -25.1323  -36.1778   25.0795 H   0  0  0  0  0  0
  -21.0028  -28.3351   24.1314 H   0  0  0  0  0  0
  -20.5657  -26.2373   23.3641 H   0  0  0  0  0  0
  -21.6654  -26.7393   22.1217 H   0  0  0  0  0  0
  -19.6922  -25.6274   21.1269 H   0  0  0  0  0  0
  -19.6699  -27.3158   20.6714 H   0  0  0  0  0  0
  -17.4216  -26.6673   21.4028 H   0  0  0  0  0  0
  -18.0347  -26.0083   22.9028 H   0  0  0  0  0  0
  -19.7970  -30.7301   24.2215 H   0  0  0  0  0  0
  -17.5040  -31.6268   24.5163 H   0  0  0  0  0  0
  -15.5376  -30.2968   23.7681 H   0  0  0  0  0  0
  -15.8702  -28.0803   22.7091 H   0  0  0  0  0  0
  -24.5889  -30.7108   25.7696 H   0  0  0  0  0  0
  -24.8878  -32.2970   26.4699 H   0  0  0  0  0  0
  -25.7953  -30.9013   27.0219 H   0  0  0  0  0  0
  -26.3089  -29.6603   24.1383 H   0  0  0  0  0  0
  -27.3971  -29.7258   25.5029 H   0  0  0  0  0  0
  -27.9029  -30.4108   23.9791 H   0  0  0  0  0  0
  -27.2605  -33.3682   26.1968 H   0  0  0  0  0  0
  -28.3915  -32.6851   25.0382 H   0  0  0  0  0  0
  -28.0644  -31.8550   26.5520 H   0  0  0  0  0  0
  -28.2564  -38.0081   24.7500 H   0  0  0  0  0  0
  -28.1081  -36.2605   24.6299 H   0  0  0  0  0  0
  -27.2286  -37.1420   25.8869 H   0  0  0  0  0  0
  -20.9572  -29.8764   21.6705 H   0  0  0  0  0  0
  -26.0125  -38.2773   24.1412 H   0  0  0  0  0  0
  -31.3130  -21.0504   20.3193 H   0  0  0  0  0  0
  -26.6914  -21.8612   20.7923 H   0  0  0  0  0  0
  -26.1322  -20.2978   21.3144 H   0  0  0  0  0  0
  -26.1580  -20.6981   19.5862 H   0  0  0  0  0  0
  -26.1443  -18.3915   20.0580 H   0  0  0  0  0  0
  -26.8654  -17.4623   21.3761 H   0  0  0  0  0  0
  -27.1900  -17.0688   19.6766 H   0  0  0  0  0  0
  -30.0611  -23.2452   19.9617 H   0  0  0  0  0  0
  -29.3817  -23.1285   21.5276 H   0  0  0  0  0  0
  -27.1365  -24.1264   20.6513 H   0  0  0  0  0  0
  -27.7858  -24.1942   19.0568 H   0  0  0  0  0  0
  -28.6618  -16.0424   20.6344 H   0  0  0  0  0  0
  1 25  1  0  0  0
  1 30  2  0  0  0
  1 81  1  0  0  0
  2  3  1  0  0  0
  2 25  1  0  0  0
  2 83  1  0  0  0
  2 84  1  0  0  0
  3  4  1  0  0  0
  3 85  1  0  0  0
  3 86  1  0  0  0
  4  5  1  0  0  0
  4 87  1  0  0  0
  4 88  1  0  0  0
  5  6  1  0  0  0
  5 26  1  0  0  0
  5 89  1  0  0  0
  6 25  1  0  0  0
  6 90  1  0  0  0
  6 91  1  0  0  0
  7  8  2  0  0  0
  7 26  1  0  0  0
  7 29  1  0  0  0
  8  9  1  0  0  0
  8 22  1  0  0  0
  9 10  1  0  0  0
  9 27  2  0  0  0
 10 11  2  0  0  0
 10 15  1  0  0  0
 11 12  1  0  0  0
 11 92  1  0  0  0
 12 13  2  0  0  0
 12 93  1  0  0  0
 13 14  1  0  0  0
 13 31  1  0  0  0
 14 15  2  0  0  0
 14 94  1  0  0  0
 15 95  1  0  0  0
 16 17  2  0  0  0
 16 21  1  0  0  0
 16 31  1  0  0  0
 17 18  1  0  0  0
 17 96  1  0  0  0
 18 19  2  0  0  0
 18 97  1  0  0  0
 19 20  1  0  0  0
 19 24  1  0  0  0
 20 21  2  0  0  0
 20 98  1  0  0  0
 21 23  1  0  0  0
 22 28  1  0  0  0
 22 32  2  0  0  0
 26 27  1  0  0  0
 28 99  1  0  0  0
 28100  1  0  0  0
 29101  1  0  0  0
 29102  1  0  0  0
 33 34  1  0  0  0
 33 66  1  0  0  0
 33 70  2  0  0  0
 34 36  1  0  0  0
 34 59  1  0  0  0
 34103  1  0  0  0
 35 44  2  0  0  0
 35 45  1  0  0  0
 35 68  1  0  0  0
 36 56  1  0  0  0
 36104  1  0  0  0
 37 39  1  0  0  0
 37 47  1  0  0  0
 37 66  1  0  0  0
 37105  1  0  0  0
 38 43  2  0  0  0
 38 46  1  0  0  0
 38 47  1  0  0  0
 39 64  1  0  0  0
 39 67  2  0  0  0
 40 52  1  0  0  0
 40 53  2  0  0  0
 40 58  1  0  0  0
 41106  1  0  0  0
 41107  1  0  0  0
 41108  1  0  0  0
 41 48  1  0  0  0
 42 43  1  0  0  0
 42 66  1  0  0  0
 42109  1  0  0  0
 42110  1  0  0  0
 43 44  1  0  0  0
 44111  1  0  0  0
 45 46  2  0  0  0
 45112  1  0  0  0
 46113  1  0  0  0
 47114  1  0  0  0
 47115  1  0  0  0
 48 56  1  0  0  0
 48 65  1  0  0  0
 48116  1  0  0  0
 49 50  1  0  0  0
 49 53  1  0  0  0
 49 64  1  0  0  0
 49117  1  0  0  0
 50 51  1  0  0  0
 50118  1  0  0  0
 50119  1  0  0  0
 51 52  1  0  0  0
 51120  1  0  0  0
 51121  1  0  0  0
 52122  1  0  0  0
 52123  1  0  0  0
 53 54  1  0  0  0
 54 55  2  0  0  0
 54124  1  0  0  0
 55 57  1  0  0  0
 55125  1  0  0  0
 56 69  2  0  0  0
 57 58  2  0  0  0
 57126  1  0  0  0
 58127  1  0  0  0
 59 60  1  0  0  0
 59 61  1  0  0  0
 59 62  1  0  0  0
 60128  1  0  0  0
 60129  1  0  0  0
 60130  1  0  0  0
 61131  1  0  0  0
 61132  1  0  0  0
 61133  1  0  0  0
 62134  1  0  0  0
 62135  1  0  0  0
 62136  1  0  0  0
 63 65  1  0  0  0
 63137  1  0  0  0
 63138  1  0  0  0
 63139  1  0  0  0
 64140  1  0  0  0
 65141  1  0  0  0
 68 80  1  0  0  0
 71 72  2  0  0  0
 71 76  1  0  0  0
 71142  1  0  0  0
 72 73  1  0  0  0
 72 79  1  0  0  0
 73 74  2  0  0  0
 73 77  1  0  0  0
 74 75  1  0  0  0
 74 78  1  0  0  0
 75 76  2  0  0  0
 75 81  1  0  0  0
 76 82  1  0  0  0
 77143  1  0  0  0
 77144  1  0  0  0
 77145  1  0  0  0
 78146  1  0  0  0
 78147  1  0  0  0
 78148  1  0  0  0
 79 80  1  0  0  0
 79149  1  0  0  0
 79150  1  0  0  0
 80151  1  0  0  0
 80152  1  0  0  0
 81153  1  0  0  0
M  ISO  4   1 100  68 101  80 101  81 100
M  END
> <chiral flag>
0

> <version>
0

> <s_m_source_file>
/data/baiqing/PycharmProjects/Reinvent-master-3.2/result/LINK_invent/BTK/process_docking_weight1_custom_sum_contain_oxygen_bond_distance_aromatic_linkinvent_7_9_3/rearranged_h_0018.sdf

> <i_m_source_file_index>
58

> <r_mmod_Potential_Energy-OPLS-2005>
1004.10870361328

> <r_mmod_Stretch_Energy-OPLS-2005>
459.125793457031

> <r_mmod_Bend_Energy-OPLS-2005>
415.060150146484

> <r_mmod_Torsional_Energy-OPLS-2005>
213.304260253906

> <r_mmod_Improper_Torsional_Energy-OPLS-2005>
5.34999561309814

> <r_mmod_Van_der_Waal_Energy-OPLS-2005>
131.428482055664

> <r_mmod_Electrostatic_Energy-OPLS-2005>
-385.224243164062

> <r_mmod_Solvation_Energy-OPLS-2005>
-213.298202514648

> <b_mmod_Minimization_Converged-OPLS-2005>
0

> <r_mmod_RMS_Derivative-OPLS-2005>
0.875602960586548

$$$$
59
                    3D
 Structure written by MMmdl.
150158  0  0  1  0            999 V2000
  -30.2473  -15.7740   20.3163 C   0  0  0  0  0  0
  -30.4158  -13.1861   19.5381 C   0  0  0  0  0  0
  -29.5553  -12.6880   18.3373 C   0  0  0  0  0  0
  -28.1399  -12.3019   18.7891 C   0  0  0  0  0  0
  -27.5912  -13.3211   19.8104 C   0  0  2  0  0  0
  -28.5996  -13.7129   20.9194 C   0  0  0  0  0  0
  -25.2304  -13.8302   20.5820 C   0  0  0  0  0  0
  -24.1707  -13.0433   20.9304 C   0  0  0  0  0  0
  -24.6428  -11.6950   20.8768 C   0  0  0  0  0  0
  -23.9133  -10.4292   21.0396 C   0  0  0  0  0  0
  -24.3665   -9.4204   21.9180 C   0  0  0  0  0  0
  -23.6322   -8.2247   22.0752 C   0  0  0  0  0  0
  -22.4300   -8.0290   21.3545 C   0  0  0  0  0  0
  -21.9951   -9.0266   20.4643 C   0  0  0  0  0  0
  -22.7297  -10.2136   20.3049 C   0  0  0  0  0  0
  -21.6860   -6.0747   22.5280 C   0  0  0  0  0  0
  -21.4019   -6.5647   23.8214 C   0  0  0  0  0  0
  -21.3660   -5.6798   24.9175 C   0  0  0  0  0  0
  -21.6044   -4.3060   24.7224 C   0  0  0  0  0  0
  -21.8818   -3.8155   23.4344 C   0  0  0  0  0  0
  -21.9194   -4.6973   22.3401 C   0  0  0  0  0  0
  -22.7715  -13.5152   21.1933 C   0  0  0  0  0  0
  -22.1662   -4.2158   21.0980 F   0  0  0  0  0  0
  -21.5626   -3.4542   25.7736 F   0  0  0  0  0  0
  -29.7486  -14.3806   20.2518 N   0  0  0  0  0  0
  -26.2767  -12.9657   20.3255 N   0  0  0  0  0  0
  -25.9379  -11.6713   20.5700 N   0  0  0  0  0  0
  -22.0387  -12.8121   22.0485 N   0  0  0  0  0  0
  -25.3874  -15.2045   20.4264 N   0  0  0  0  0  0
  -31.4875  -15.6925   20.1848 O   0  0  0  0  0  0
  -21.6651   -6.8895   21.4244 O   0  0  0  0  0  0
  -22.3381  -14.5447   20.6768 O   0  0  0  0  0  0
  -24.6943  -31.7880   23.1425 C   0  0  0  0  0  0
  -25.9474  -32.4409   23.8011 C   0  0  1  0  0  0
  -27.2318  -26.5965   20.2261 C   0  0  0  0  0  0
  -25.6007  -33.8239   24.1892 N   0  0  0  0  0  0
  -23.5252  -30.3850   21.4991 C   0  0  2  0  0  0
  -24.9842  -28.7028   20.1222 C   0  0  0  0  0  0
  -22.7813  -29.4253   22.4682 C   0  0  0  0  0  0
  -18.0346  -28.1432   22.8452 C   0  0  0  0  0  0
  -24.1494  -36.7126   23.2656 C   0  0  0  0  0  0
  -26.1106  -30.4860   21.4227 C   0  0  0  0  0  0
  -26.1757  -29.0384   20.7757 C   0  0  0  0  0  0
  -27.2800  -28.0172   20.7902 C   0  0  0  0  0  0
  -26.0053  -26.4971   19.5137 C   0  0  0  0  0  0
  -24.9444  -27.4594   19.4663 C   0  0  0  0  0  0
  -23.7855  -29.6713   20.1395 C   0  0  0  0  0  0
  -25.4150  -36.2863   24.0274 C   0  0  1  0  0  0
  -20.5986  -28.3798   23.1121 C   0  0  2  0  0  0
  -20.6804  -26.9445   22.5405 C   0  0  0  0  0  0
  -19.5782  -26.6372   21.5218 C   0  0  0  0  0  0
  -18.1966  -26.7956   22.1621 C   0  0  0  0  0  0
  -19.1614  -28.8943   23.2763 C   0  0  0  0  0  0
  -18.9517  -30.1522   23.8814 C   0  0  0  0  0  0
  -17.6506  -30.6611   24.0551 C   0  0  0  0  0  0
  -25.9134  -34.9254   23.4927 C   0  0  0  0  0  0
  -16.5396  -29.9091   23.6354 C   0  0  0  0  0  0
  -16.7324  -28.6514   23.0369 C   0  0  0  0  0  0
  -26.4615  -31.6488   25.0680 C   0  0  0  0  0  0
  -25.3651  -31.3841   26.1276 C   0  0  0  0  0  0
  -27.0565  -30.2816   24.6655 C   0  0  0  0  0  0
  -27.6041  -32.4372   25.7509 C   0  0  0  0  0  0
  -27.5555  -37.1728   24.8472 C   0  0  0  0  0  0
  -21.4451  -29.3022   22.3427 N   0  0  0  0  0  0
  -26.4270  -37.3632   23.9400 N   0  0  0  0  0  0
  -24.8013  -30.9219   22.0738 N   0  0  0  0  0  0
  -23.4204  -28.7871   23.3077 O   0  0  0  0  0  0
  -28.1825  -25.3297   20.2911 O   0  0  0  0  0  0
  -26.5786  -34.8853   22.4552 O   0  0  0  0  0  0
  -23.5937  -32.1004   23.6312 O   0  0  0  0  0  0
  -30.9009  -19.4494   20.3648 C   0  0  0  0  0  0
  -31.2639  -20.8437   20.3793 C   0  0  0  0  0  0
  -30.3640  -21.9840   20.3553 C   0  0  0  0  0  0
  -28.9439  -21.8808   20.2846 C   0  0  0  0  0  0
  -29.5895  -18.9261   20.3199 C   0  0  0  0  0  0
  -28.6522  -20.2671   20.2752 C   0  0  0  0  0  0
  -32.7661  -21.0981   20.4196 C   0  0  0  0  0  0
  -30.9229  -23.4055   20.4018 C   0  0  0  0  0  0
  -27.9639  -23.5315   20.1990 C   0  0  0  0  0  0
  -29.4675  -17.1638   20.3336 N   0  0  0  0  0  0
  -26.9698  -19.8930   20.1970 Cl  0  0  0  0  0  0
  -31.3957  -13.4725   19.1549 H   0  0  0  0  0  0
  -30.6162  -12.3706   20.2352 H   0  0  0  0  0  0
  -30.0374  -11.8430   17.8438 H   0  0  0  0  0  0
  -29.4915  -13.4828   17.5928 H   0  0  0  0  0  0
  -28.1931  -11.3166   19.2541 H   0  0  0  0  0  0
  -27.4711  -12.2053   17.9329 H   0  0  0  0  0  0
  -27.4343  -14.2230   19.2168 H   0  0  0  0  0  0
  -28.8940  -12.8540   21.5244 H   0  0  0  0  0  0
  -28.1400  -14.4252   21.6060 H   0  0  0  0  0  0
  -25.2802   -9.5674   22.4767 H   0  0  0  0  0  0
  -24.0020   -7.4638   22.7477 H   0  0  0  0  0  0
  -21.0880   -8.8800   19.8950 H   0  0  0  0  0  0
  -22.3760  -10.9681   19.6163 H   0  0  0  0  0  0
  -21.2016   -7.6156   23.9721 H   0  0  0  0  0  0
  -21.1481   -6.0527   25.9078 H   0  0  0  0  0  0
  -22.0595   -2.7616   23.2843 H   0  0  0  0  0  0
  -22.4038  -11.9799   22.4876 H   0  0  0  0  0  0
  -21.0991  -13.1105   22.2690 H   0  0  0  0  0  0
  -24.6139  -15.8505   20.5400 H   0  0  0  0  0  0
  -26.2259  -15.6489   20.0780 H   0  0  0  0  0  0
  -26.7569  -32.4860   23.0730 H   0  0  0  0  0  0
  -25.0057  -33.9255   24.9981 H   0  0  0  0  0  0
  -22.8570  -31.2253   21.2994 H   0  0  0  0  0  0
  -23.3770  -35.9441   23.3280 H   0  0  0  0  0  0
  -24.3545  -36.8830   22.2076 H   0  0  0  0  0  0
  -23.7245  -37.6290   23.6764 H   0  0  0  0  0  0
  -26.3235  -31.2029   20.6285 H   0  0  0  0  0  0
  -26.9577  -30.5593   22.0920 H   0  0  0  0  0  0
  -28.1752  -28.2850   21.3334 H   0  0  0  0  0  0
  -25.8202  -25.5624   19.0036 H   0  0  0  0  0  0
  -24.0486  -27.1916   18.9230 H   0  0  0  0  0  0
  -23.9702  -30.4262   19.3744 H   0  0  0  0  0  0
  -22.8882  -29.1432   19.8126 H   0  0  0  0  0  0
  -25.1366  -36.1613   25.0765 H   0  0  0  0  0  0
  -21.0067  -28.3436   24.1248 H   0  0  0  0  0  0
  -20.5657  -26.2425   23.3677 H   0  0  0  0  0  0
  -21.6665  -26.7369   22.1232 H   0  0  0  0  0  0
  -19.6931  -25.6259   21.1305 H   0  0  0  0  0  0
  -19.6727  -27.3133   20.6709 H   0  0  0  0  0  0
  -17.4234  -26.6698   21.4026 H   0  0  0  0  0  0
  -18.0353  -26.0120   22.9037 H   0  0  0  0  0  0
  -19.7992  -30.7361   24.2147 H   0  0  0  0  0  0
  -17.5055  -31.6281   24.5170 H   0  0  0  0  0  0
  -15.5391  -30.2966   23.7725 H   0  0  0  0  0  0
  -15.8725  -28.0805   22.7133 H   0  0  0  0  0  0
  -24.5861  -30.7165   25.7574 H   0  0  0  0  0  0
  -24.8816  -32.3077   26.4471 H   0  0  0  0  0  0
  -25.7801  -30.9155   27.0208 H   0  0  0  0  0  0
  -26.3306  -29.6401   24.1650 H   0  0  0  0  0  0
  -27.3953  -29.7303   25.5436 H   0  0  0  0  0  0
  -27.9298  -30.3918   24.0225 H   0  0  0  0  0  0
  -27.2564  -33.3747   26.1861 H   0  0  0  0  0  0
  -28.3970  -32.6817   25.0427 H   0  0  0  0  0  0
  -28.0582  -31.8658   26.5615 H   0  0  0  0  0  0
  -28.2563  -38.0029   24.7480 H   0  0  0  0  0  0
  -28.1059  -36.2548   24.6352 H   0  0  0  0  0  0
  -27.2259  -37.1428   25.8872 H   0  0  0  0  0  0
  -20.9781  -29.8661   21.6462 H   0  0  0  0  0  0
  -26.0090  -38.2681   24.1394 H   0  0  0  0  0  0
  -31.6969  -18.7190   20.3936 H   0  0  0  0  0  0
  -33.3464  -20.1772   20.3552 H   0  0  0  0  0  0
  -33.0496  -21.5908   21.3503 H   0  0  0  0  0  0
  -33.0760  -21.7230   19.5812 H   0  0  0  0  0  0
  -31.9934  -23.4774   20.5776 H   0  0  0  0  0  0
  -30.4509  -23.9680   21.2079 H   0  0  0  0  0  0
  -30.7148  -23.9222   19.4644 H   0  0  0  0  0  0
  -27.1875  -23.3631   20.9451 H   0  0  0  0  0  0
  -27.4349  -23.4198   19.2527 H   0  0  0  0  0  0
  -28.4891  -16.9163   20.3593 H   0  0  0  0  0  0
  1 25  1  0  0  0
  1 30  2  0  0  0
  1 80  1  0  0  0
  2  3  1  0  0  0
  2 25  1  0  0  0
  2 82  1  0  0  0
  2 83  1  0  0  0
  3  4  1  0  0  0
  3 84  1  0  0  0
  3 85  1  0  0  0
  4  5  1  0  0  0
  4 86  1  0  0  0
  4 87  1  0  0  0
  5  6  1  0  0  0
  5 26  1  0  0  0
  5 88  1  0  0  0
  6 25  1  0  0  0
  6 89  1  0  0  0
  6 90  1  0  0  0
  7  8  2  0  0  0
  7 26  1  0  0  0
  7 29  1  0  0  0
  8  9  1  0  0  0
  8 22  1  0  0  0
  9 10  1  0  0  0
  9 27  2  0  0  0
 10 11  2  0  0  0
 10 15  1  0  0  0
 11 12  1  0  0  0
 11 91  1  0  0  0
 12 13  2  0  0  0
 12 92  1  0  0  0
 13 14  1  0  0  0
 13 31  1  0  0  0
 14 15  2  0  0  0
 14 93  1  0  0  0
 15 94  1  0  0  0
 16 17  2  0  0  0
 16 21  1  0  0  0
 16 31  1  0  0  0
 17 18  1  0  0  0
 17 95  1  0  0  0
 18 19  2  0  0  0
 18 96  1  0  0  0
 19 20  1  0  0  0
 19 24  1  0  0  0
 20 21  2  0  0  0
 20 97  1  0  0  0
 21 23  1  0  0  0
 22 28  1  0  0  0
 22 32  2  0  0  0
 26 27  1  0  0  0
 28 98  1  0  0  0
 28 99  1  0  0  0
 29100  1  0  0  0
 29101  1  0  0  0
 33 34  1  0  0  0
 33 66  1  0  0  0
 33 70  2  0  0  0
 34 36  1  0  0  0
 34 59  1  0  0  0
 34102  1  0  0  0
 35 44  2  0  0  0
 35 45  1  0  0  0
 35 68  1  0  0  0
 36 56  1  0  0  0
 36103  1  0  0  0
 37 39  1  0  0  0
 37 47  1  0  0  0
 37 66  1  0  0  0
 37104  1  0  0  0
 38 43  2  0  0  0
 38 46  1  0  0  0
 38 47  1  0  0  0
 39 64  1  0  0  0
 39 67  2  0  0  0
 40 52  1  0  0  0
 40 53  2  0  0  0
 40 58  1  0  0  0
 41105  1  0  0  0
 41106  1  0  0  0
 41107  1  0  0  0
 41 48  1  0  0  0
 42 43  1  0  0  0
 42 66  1  0  0  0
 42108  1  0  0  0
 42109  1  0  0  0
 43 44  1  0  0  0
 44110  1  0  0  0
 45 46  2  0  0  0
 45111  1  0  0  0
 46112  1  0  0  0
 47113  1  0  0  0
 47114  1  0  0  0
 48 56  1  0  0  0
 48 65  1  0  0  0
 48115  1  0  0  0
 49 50  1  0  0  0
 49 53  1  0  0  0
 49 64  1  0  0  0
 49116  1  0  0  0
 50 51  1  0  0  0
 50117  1  0  0  0
 50118  1  0  0  0
 51 52  1  0  0  0
 51119  1  0  0  0
 51120  1  0  0  0
 52121  1  0  0  0
 52122  1  0  0  0
 53 54  1  0  0  0
 54 55  2  0  0  0
 54123  1  0  0  0
 55 57  1  0  0  0
 55124  1  0  0  0
 56 69  2  0  0  0
 57 58  2  0  0  0
 57125  1  0  0  0
 58126  1  0  0  0
 59 60  1  0  0  0
 59 61  1  0  0  0
 59 62  1  0  0  0
 60127  1  0  0  0
 60128  1  0  0  0
 60129  1  0  0  0
 61130  1  0  0  0
 61131  1  0  0  0
 61132  1  0  0  0
 62133  1  0  0  0
 62134  1  0  0  0
 62135  1  0  0  0
 63 65  1  0  0  0
 63136  1  0  0  0
 63137  1  0  0  0
 63138  1  0  0  0
 64139  1  0  0  0
 65140  1  0  0  0
 68 79  1  0  0  0
 71 72  2  0  0  0
 71 75  1  0  0  0
 71141  1  0  0  0
 72 73  1  0  0  0
 72 77  1  0  0  0
 73 74  2  0  0  0
 73 78  1  0  0  0
 74 76  1  0  0  0
 74 79  1  0  0  0
 75 76  2  0  0  0
 75 80  1  0  0  0
 76 81  1  0  0  0
 77142  1  0  0  0
 77143  1  0  0  0
 77144  1  0  0  0
 78145  1  0  0  0
 78146  1  0  0  0
 78147  1  0  0  0
 79148  1  0  0  0
 79149  1  0  0  0
 80150  1  0  0  0
M  ISO  4   1 100  68 101  79 101  80 100
M  END
> <chiral flag>
0

> <version>
0

> <s_m_source_file>
/data/baiqing/PycharmProjects/Reinvent-master-3.2/result/LINK_invent/BTK/process_docking_weight1_custom_sum_contain_oxygen_bond_distance_aromatic_linkinvent_7_9_3/rearranged_h_0018.sdf

> <i_m_source_file_index>
59

> <r_mmod_Potential_Energy-OPLS-2005>
2820.59448242188

> <r_mmod_Stretch_Energy-OPLS-2005>
1267.57104492188

> <r_mmod_Bend_Energy-OPLS-2005>
639.715881347656

> <r_mmod_Torsional_Energy-OPLS-2005>
223.121780395508

> <r_mmod_Improper_Torsional_Energy-OPLS-2005>
4.0295581817627

> <r_mmod_Van_der_Waal_Energy-OPLS-2005>
130.4892578125

> <r_mmod_Electrostatic_Energy-OPLS-2005>
-368.761657714844

> <r_mmod_Solvation_Energy-OPLS-2005>
-204.698760986328

> <b_mmod_Minimization_Converged-OPLS-2005>
0

> <r_mmod_RMS_Derivative-OPLS-2005>
0.427137464284897

$$$$
60
                    3D
 Structure written by MMmdl.
161169  0  0  1  0            999 V2000
  -30.6757  -14.5153   20.4856 C   0  0  0  0  0  0
  -30.4248  -12.2954   19.4610 C   0  0  0  0  0  0
  -29.5096  -12.4637   18.2285 C   0  0  0  0  0  0
  -28.0291  -12.3201   18.6364 C   0  0  0  0  0  0
  -27.6592  -13.1985   19.8633 C   0  0  2  0  0  0
  -28.6984  -13.0313   20.9988 C   0  0  0  0  0  0
  -25.2585  -13.8142   20.5643 C   0  0  0  0  0  0
  -24.1840  -13.0442   20.9159 C   0  0  0  0  0  0
  -24.6387  -11.6902   20.8729 C   0  0  0  0  0  0
  -23.9041  -10.4304   21.0413 C   0  0  0  0  0  0
  -24.3607   -9.4223   21.9196 C   0  0  0  0  0  0
  -23.6291   -8.2246   22.0763 C   0  0  0  0  0  0
  -22.4281   -8.0275   21.3546 C   0  0  0  0  0  0
  -21.9896   -9.0241   20.4649 C   0  0  0  0  0  0
  -22.7214  -10.2128   20.3063 C   0  0  0  0  0  0
  -21.6851   -6.0736   22.5291 C   0  0  0  0  0  0
  -21.4006   -6.5630   23.8218 C   0  0  0  0  0  0
  -21.3662   -5.6789   24.9184 C   0  0  0  0  0  0
  -21.6047   -4.3049   24.7229 C   0  0  0  0  0  0
  -21.8817   -3.8143   23.4355 C   0  0  0  0  0  0
  -21.9187   -4.6960   22.3411 C   0  0  0  0  0  0
  -22.7859  -13.5240   21.1816 C   0  0  0  0  0  0
  -22.1655   -4.2145   21.0992 F   0  0  0  0  0  0
  -21.5635   -3.4539   25.7746 F   0  0  0  0  0  0
  -30.0343  -13.3137   20.4501 N   0  0  0  0  0  0
  -26.3008  -12.9298   20.3290 N   0  0  0  0  0  0
  -25.9312  -11.6472   20.5749 N   0  0  0  0  0  0
  -22.0485  -12.8262   22.0383 N   0  0  0  0  0  0
  -25.4307  -15.1861   20.4094 N   0  0  0  0  0  0
  -31.8058  -14.6690   20.0273 O   0  0  0  0  0  0
  -21.6634   -6.8872   21.4254 O   0  0  0  0  0  0
  -22.3566  -14.5544   20.6652 O   0  0  0  0  0  0
  -24.6152  -31.8663   23.2067 C   0  0  0  0  0  0
  -25.9038  -32.4814   23.8383 C   0  0  1  0  0  0
  -27.2304  -27.4129   20.1030 C   0  0  0  0  0  0
  -25.5897  -33.8606   24.2336 N   0  0  0  0  0  0
  -23.4022  -30.4894   21.5466 C   0  0  2  0  0  0
  -24.8494  -28.9485   20.1154 C   0  0  0  0  0  0
  -22.7423  -29.4647   22.4958 C   0  0  0  0  0  0
  -18.0277  -28.1384   22.8493 C   0  0  0  0  0  0
  -24.1473  -36.7306   23.2642 C   0  0  0  0  0  0
  -25.9338  -30.8294   21.3573 C   0  0  0  0  0  0
  -26.0113  -29.4600   20.7077 C   0  0  0  0  0  0
  -27.2084  -28.7022   20.6925 C   0  0  0  0  0  0
  -26.0521  -26.9169   19.5093 C   0  0  0  0  0  0
  -24.8658  -27.6780   19.5114 C   0  0  0  0  0  0
  -23.6102  -29.8179   20.1627 C   0  0  0  0  0  0
  -25.4101  -36.3108   24.0347 C   0  0  1  0  0  0
  -20.5867  -28.3659   23.1331 C   0  0  2  0  0  0
  -20.6755  -26.9387   22.5430 C   0  0  0  0  0  0
  -19.5738  -26.6379   21.5218 C   0  0  0  0  0  0
  -18.1922  -26.7926   22.1626 C   0  0  0  0  0  0
  -19.1527  -28.8836   23.2907 C   0  0  0  0  0  0
  -18.9452  -30.1443   23.8909 C   0  0  0  0  0  0
  -17.6457  -30.6582   24.0565 C   0  0  0  0  0  0
  -25.9029  -34.9468   23.5146 C   0  0  0  0  0  0
  -16.5347  -29.9088   23.6334 C   0  0  0  0  0  0
  -16.7267  -28.6510   23.0340 C   0  0  0  0  0  0
  -26.4471  -31.6581   25.0704 C   0  0  0  0  0  0
  -25.3761  -31.3687   26.1467 C   0  0  0  0  0  0
  -27.0287  -30.3032   24.6039 C   0  0  0  0  0  0
  -27.6052  -32.4284   25.7467 C   0  0  0  0  0  0
  -27.5588  -37.1809   24.8478 C   0  0  0  0  0  0
  -21.4143  -29.3024   22.3729 N   0  0  0  0  0  0
  -26.4297  -37.3801   23.9423 N   0  0  0  0  0  0
  -24.6691  -31.0766   22.0958 N   0  0  0  0  0  0
  -23.4215  -28.8180   23.2976 O   0  0  0  0  0  0
  -28.3841  -26.6526   20.0841 O   0  0  0  0  0  0
  -26.5580  -34.8928   22.4702 O   0  0  0  0  0  0
  -23.5345  -32.1400   23.7475 O   0  0  0  0  0  0
  -29.3452  -19.2477   19.9342 C   0  0  0  0  0  0
  -30.1822  -18.1125   20.1176 C   0  0  0  0  0  0
  -32.1013  -19.6347   20.2908 C   0  0  0  0  0  0
  -29.8544  -20.5751   19.9201 C   0  0  0  0  0  0
  -31.5596  -18.3323   20.3193 C   0  0  0  0  0  0
  -31.2564  -20.7585   20.0906 C   0  0  0  0  0  0
  -33.6136  -19.7802   20.4226 C   0  0  0  0  0  0
  -27.8333  -22.4093   21.6742 C   0  0  0  0  0  0
  -29.6113  -16.6952   19.8856 C   0  0  0  0  0  0
  -28.4255  -24.1162   19.8249 C   0  0  0  0  0  0
  -28.3195  -25.3708   20.7503 C   0  0  0  0  0  0
  -28.8161  -22.7867   20.5595 C   0  0  1  0  0  0
  -28.9676  -21.6468   19.6338 N   0  0  0  0  0  0
  -29.8943  -15.5685   20.8084 N   0  0  0  0  0  0
  -32.3994  -17.2857   20.4807 F   0  0  0  0  0  0
  -31.9658  -22.3366   19.9618 Cl  0  0  0  0  0  0
  -31.4759  -12.3666   19.1762 H   0  0  0  0  0  0
  -30.3049  -11.3012   19.8939 H   0  0  0  0  0  0
  -29.7609  -11.7156   17.4743 H   0  0  0  0  0  0
  -29.6727  -13.4386   17.7672 H   0  0  0  0  0  0
  -27.8600  -11.2684   18.8751 H   0  0  0  0  0  0
  -27.3781  -12.5430   17.7912 H   0  0  0  0  0  0
  -27.6904  -14.2320   19.5213 H   0  0  0  0  0  0
  -28.6749  -12.0128   21.3872 H   0  0  0  0  0  0
  -28.4585  -13.6725   21.8484 H   0  0  0  0  0  0
  -25.2764   -9.5693   22.4758 H   0  0  0  0  0  0
  -24.0000   -7.4639   22.7488 H   0  0  0  0  0  0
  -21.0817   -8.8759   19.8960 H   0  0  0  0  0  0
  -22.3683  -10.9661   19.6152 H   0  0  0  0  0  0
  -21.1994   -7.6141   23.9714 H   0  0  0  0  0  0
  -21.1486   -6.0526   25.9079 H   0  0  0  0  0  0
  -22.0594   -2.7606   23.2863 H   0  0  0  0  0  0
  -22.4089  -11.9937   22.4811 H   0  0  0  0  0  0
  -21.1105  -13.1294   22.2549 H   0  0  0  0  0  0
  -24.6608  -15.8361   20.5253 H   0  0  0  0  0  0
  -26.2787  -15.6338   20.0879 H   0  0  0  0  0  0
  -26.7087  -32.5501   23.1123 H   0  0  0  0  0  0
  -25.0064  -33.9777   25.0505 H   0  0  0  0  0  0
  -22.6898  -31.3058   21.4071 H   0  0  0  0  0  0
  -23.3749  -35.9626   23.3307 H   0  0  0  0  0  0
  -24.3584  -36.8919   22.2064 H   0  0  0  0  0  0
  -23.7215  -37.6511   23.6643 H   0  0  0  0  0  0
  -26.0444  -31.5925   20.5850 H   0  0  0  0  0  0
  -26.8244  -30.8874   21.9711 H   0  0  0  0  0  0
  -28.1054  -29.0985   21.1479 H   0  0  0  0  0  0
  -26.0494  -25.9425   19.0443 H   0  0  0  0  0  0
  -23.9716  -27.2804   19.0514 H   0  0  0  0  0  0
  -23.7197  -30.5929   19.4042 H   0  0  0  0  0  0
  -22.7320  -29.2416   19.8605 H   0  0  0  0  0  0
  -25.1270  -36.1983   25.0841 H   0  0  0  0  0  0
  -20.9972  -28.3213   24.1446 H   0  0  0  0  0  0
  -20.5669  -26.2246   23.3612 H   0  0  0  0  0  0
  -21.6624  -26.7419   22.1221 H   0  0  0  0  0  0
  -19.6904  -25.6296   21.1231 H   0  0  0  0  0  0
  -19.6699  -27.3203   20.6759 H   0  0  0  0  0  0
  -17.4192  -26.6673   21.4020 H   0  0  0  0  0  0
  -18.0321  -26.0070   22.9026 H   0  0  0  0  0  0
  -19.7928  -30.7259   24.2278 H   0  0  0  0  0  0
  -17.5010  -31.6267   24.5157 H   0  0  0  0  0  0
  -15.5350  -30.2992   23.7651 H   0  0  0  0  0  0
  -15.8662  -28.0841   22.7036 H   0  0  0  0  0  0
  -24.5927  -30.7019   25.7860 H   0  0  0  0  0  0
  -24.8942  -32.2826   26.4938 H   0  0  0  0  0  0
  -25.8147  -30.8883   27.0220 H   0  0  0  0  0  0
  -26.2814  -29.6818   24.1086 H   0  0  0  0  0  0
  -27.4092  -29.7237   25.4464 H   0  0  0  0  0  0
  -27.8625  -30.4396   23.9153 H   0  0  0  0  0  0
  -27.2676  -33.3576   26.2076 H   0  0  0  0  0  0
  -28.3848  -32.6856   25.0287 H   0  0  0  0  0  0
  -28.0708  -31.8374   26.5369 H   0  0  0  0  0  0
  -28.2604  -38.0105   24.7515 H   0  0  0  0  0  0
  -28.1065  -36.2635   24.6277 H   0  0  0  0  0  0
  -27.2297  -37.1431   25.8878 H   0  0  0  0  0  0
  -20.9286  -29.8777   21.6989 H   0  0  0  0  0  0
  -26.0178  -38.2877   24.1432 H   0  0  0  0  0  0
  -28.2927  -19.0869   19.7518 H   0  0  0  0  0  0
  -34.1274  -18.8884   20.0547 H   0  0  0  0  0  0
  -33.8833  -19.9172   21.4685 H   0  0  0  0  0  0
  -34.0050  -20.6216   19.8517 H   0  0  0  0  0  0
  -26.8252  -22.2514   21.2880 H   0  0  0  0  0  0
  -27.7850  -23.1785   22.4473 H   0  0  0  0  0  0
  -28.1557  -21.4947   22.1728 H   0  0  0  0  0  0
  -29.9213  -16.4060   18.8796 H   0  0  0  0  0  0
  -28.5234  -16.7724   19.8382 H   0  0  0  0  0  0
  -29.1853  -24.3227   19.0713 H   0  0  0  0  0  0
  -27.4907  -23.9911   19.2742 H   0  0  0  0  0  0
  -27.4304  -25.3017   21.3804 H   0  0  0  0  0  0
  -29.1615  -25.3500   21.4445 H   0  0  0  0  0  0
  -29.7604  -22.9762   21.0631 H   0  0  0  0  0  0
  -28.0835  -21.3430   19.2379 H   0  0  0  0  0  0
  -29.0914  -15.2911   21.3494 H   0  0  0  0  0  0
  1 25  1  0  0  0
  1 30  2  0  0  0
  1 84  1  0  0  0
  2  3  1  0  0  0
  2 25  1  0  0  0
  2 87  1  0  0  0
  2 88  1  0  0  0
  3  4  1  0  0  0
  3 89  1  0  0  0
  3 90  1  0  0  0
  4  5  1  0  0  0
  4 91  1  0  0  0
  4 92  1  0  0  0
  5  6  1  0  0  0
  5 26  1  0  0  0
  5 93  1  0  0  0
  6 25  1  0  0  0
  6 94  1  0  0  0
  6 95  1  0  0  0
  7  8  2  0  0  0
  7 26  1  0  0  0
  7 29  1  0  0  0
  8  9  1  0  0  0
  8 22  1  0  0  0
  9 10  1  0  0  0
  9 27  2  0  0  0
 10 11  2  0  0  0
 10 15  1  0  0  0
 11 12  1  0  0  0
 11 96  1  0  0  0
 12 13  2  0  0  0
 12 97  1  0  0  0
 13 14  1  0  0  0
 13 31  1  0  0  0
 14 15  2  0  0  0
 14 98  1  0  0  0
 15 99  1  0  0  0
 16 17  2  0  0  0
 16 21  1  0  0  0
 16 31  1  0  0  0
 17 18  1  0  0  0
 17100  1  0  0  0
 18 19  2  0  0  0
 18101  1  0  0  0
 19 20  1  0  0  0
 19 24  1  0  0  0
 20 21  2  0  0  0
 20102  1  0  0  0
 21 23  1  0  0  0
 22 28  1  0  0  0
 22 32  2  0  0  0
 26 27  1  0  0  0
 28103  1  0  0  0
 28104  1  0  0  0
 29105  1  0  0  0
 29106  1  0  0  0
 33 34  1  0  0  0
 33 66  1  0  0  0
 33 70  2  0  0  0
 34 36  1  0  0  0
 34 59  1  0  0  0
 34107  1  0  0  0
 35 44  2  0  0  0
 35 45  1  0  0  0
 35 68  1  0  0  0
 36 56  1  0  0  0
 36108  1  0  0  0
 37 39  1  0  0  0
 37 47  1  0  0  0
 37 66  1  0  0  0
 37109  1  0  0  0
 38 43  2  0  0  0
 38 46  1  0  0  0
 38 47  1  0  0  0
 39 64  1  0  0  0
 39 67  2  0  0  0
 40 52  1  0  0  0
 40 53  2  0  0  0
 40 58  1  0  0  0
 41110  1  0  0  0
 41111  1  0  0  0
 41112  1  0  0  0
 41 48  1  0  0  0
 42 43  1  0  0  0
 42 66  1  0  0  0
 42113  1  0  0  0
 42114  1  0  0  0
 43 44  1  0  0  0
 44115  1  0  0  0
 45 46  2  0  0  0
 45116  1  0  0  0
 46117  1  0  0  0
 47118  1  0  0  0
 47119  1  0  0  0
 48 56  1  0  0  0
 48 65  1  0  0  0
 48120  1  0  0  0
 49 50  1  0  0  0
 49 53  1  0  0  0
 49 64  1  0  0  0
 49121  1  0  0  0
 50 51  1  0  0  0
 50122  1  0  0  0
 50123  1  0  0  0
 51 52  1  0  0  0
 51124  1  0  0  0
 51125  1  0  0  0
 52126  1  0  0  0
 52127  1  0  0  0
 53 54  1  0  0  0
 54 55  2  0  0  0
 54128  1  0  0  0
 55 57  1  0  0  0
 55129  1  0  0  0
 56 69  2  0  0  0
 57 58  2  0  0  0
 57130  1  0  0  0
 58131  1  0  0  0
 59 60  1  0  0  0
 59 61  1  0  0  0
 59 62  1  0  0  0
 60132  1  0  0  0
 60133  1  0  0  0
 60134  1  0  0  0
 61135  1  0  0  0
 61136  1  0  0  0
 61137  1  0  0  0
 62138  1  0  0  0
 62139  1  0  0  0
 62140  1  0  0  0
 63 65  1  0  0  0
 63141  1  0  0  0
 63142  1  0  0  0
 63143  1  0  0  0
 64144  1  0  0  0
 65145  1  0  0  0
 68 81  1  0  0  0
 71 72  2  0  0  0
 71 74  1  0  0  0
 71146  1  0  0  0
 72 75  1  0  0  0
 72 79  1  0  0  0
 73 75  2  0  0  0
 73 76  1  0  0  0
 73 77  1  0  0  0
 74 76  2  0  0  0
 74 83  1  0  0  0
 75 85  1  0  0  0
 76 86  1  0  0  0
 77147  1  0  0  0
 77148  1  0  0  0
 77149  1  0  0  0
 78150  1  0  0  0
 78151  1  0  0  0
 78152  1  0  0  0
 78 82  1  0  0  0
 79 84  1  0  0  0
 79153  1  0  0  0
 79154  1  0  0  0
 80 81  1  0  0  0
 80 82  1  0  0  0
 80155  1  0  0  0
 80156  1  0  0  0
 81157  1  0  0  0
 81158  1  0  0  0
 82 83  1  0  0  0
 82159  1  0  0  0
 83160  1  0  0  0
 84161  1  0  0  0
M  ISO  4   1 100  68 101  81 101  84 100
M  END
> <chiral flag>
0

> <version>
0

> <s_m_source_file>
/data/baiqing/PycharmProjects/Reinvent-master-3.2/result/LINK_invent/BTK/process_docking_weight1_custom_sum_contain_oxygen_bond_distance_aromatic_linkinvent_7_9_3/rearranged_h_0018.sdf

> <i_m_source_file_index>
60

> <r_mmod_Potential_Energy-OPLS-2005>
4.09499502182007

> <r_mmod_Stretch_Energy-OPLS-2005>
47.3928337097168

> <r_mmod_Bend_Energy-OPLS-2005>
115.397308349609

> <r_mmod_Torsional_Energy-OPLS-2005>
263.156188964844

> <r_mmod_Improper_Torsional_Energy-OPLS-2005>
14.8090009689331

> <r_mmod_Van_der_Waal_Energy-OPLS-2005>
148.301956176758

> <r_mmod_Electrostatic_Energy-OPLS-2005>
-377.313262939453

> <r_mmod_Solvation_Energy-OPLS-2005>
-227.324768066406

> <b_mmod_Minimization_Converged-OPLS-2005>
0

> <r_mmod_RMS_Derivative-OPLS-2005>
3.6421103477478

$$$$
61
                    3D
 Structure written by MMmdl.
146154  0  0  1  0            999 V2000
  -30.4133  -15.2764   20.3619 C   0  0  0  0  0  0
  -30.4418  -12.8084   19.5360 C   0  0  0  0  0  0
  -29.5395  -12.5852   18.2947 C   0  0  0  0  0  0
  -28.0881  -12.3017   18.7192 C   0  0  0  0  0  0
  -27.6140  -13.2749   19.8268 C   0  0  2  0  0  0
  -28.6449  -13.4422   20.9648 C   0  0  0  0  0  0
  -25.2392  -13.8248   20.5741 C   0  0  0  0  0  0
  -24.1744  -13.0439   20.9256 C   0  0  0  0  0  0
  -24.6398  -11.6936   20.8757 C   0  0  0  0  0  0
  -23.9091  -10.4294   21.0402 C   0  0  0  0  0  0
  -24.3637   -9.4205   21.9180 C   0  0  0  0  0  0
  -23.6303   -8.2243   22.0751 C   0  0  0  0  0  0
  -22.4282   -8.0284   21.3542 C   0  0  0  0  0  0
  -21.9925   -9.0258   20.4642 C   0  0  0  0  0  0
  -22.7261  -10.2133   20.3050 C   0  0  0  0  0  0
  -21.6857   -6.0735   22.5277 C   0  0  0  0  0  0
  -21.4013   -6.5638   23.8209 C   0  0  0  0  0  0
  -21.3655   -5.6790   24.9170 C   0  0  0  0  0  0
  -21.6047   -4.3056   24.7222 C   0  0  0  0  0  0
  -21.8821   -3.8146   23.4345 C   0  0  0  0  0  0
  -21.9194   -4.6963   22.3402 C   0  0  0  0  0  0
  -22.7760  -13.5191   21.1905 C   0  0  0  0  0  0
  -22.1665   -4.2150   21.0978 F   0  0  0  0  0  0
  -21.5627   -3.4541   25.7733 F   0  0  0  0  0  0
  -29.8827  -13.9514   20.3502 N   0  0  0  0  0  0
  -26.2822  -12.9522   20.3216 N   0  0  0  0  0  0
  -25.9337  -11.6628   20.5723 N   0  0  0  0  0  0
  -22.0423  -12.8165   22.0461 N   0  0  0  0  0  0
  -25.4017  -15.1984   20.4162 N   0  0  0  0  0  0
  -31.6260  -15.3009   20.0967 O   0  0  0  0  0  0
  -21.6642   -6.8882   21.4241 O   0  0  0  0  0  0
  -22.3437  -14.5493   20.6750 O   0  0  0  0  0  0
  -24.6629  -31.8219   23.1683 C   0  0  0  0  0  0
  -25.9307  -32.4579   23.8147 C   0  0  1  0  0  0
  -27.2246  -26.9230   20.1865 C   0  0  0  0  0  0
  -25.5966  -33.8393   24.2054 N   0  0  0  0  0  0
  -23.4787  -30.4323   21.5166 C   0  0  2  0  0  0
  -24.9339  -28.8164   20.1098 C   0  0  0  0  0  0
  -22.7668  -29.4431   22.4762 C   0  0  0  0  0  0
  -18.0321  -28.1423   22.8464 C   0  0  0  0  0  0
  -24.1483  -36.7198   23.2655 C   0  0  0  0  0  0
  -26.0470  -30.6278   21.3982 C   0  0  0  0  0  0
  -26.1160  -29.2165   20.7443 C   0  0  0  0  0  0
  -27.2535  -28.2902   20.7587 C   0  0  0  0  0  0
  -26.0151  -26.6758   19.4994 C   0  0  0  0  0  0
  -24.9092  -27.5668   19.4671 C   0  0  0  0  0  0
  -23.7190  -29.7442   20.1439 C   0  0  0  0  0  0
  -25.4127  -36.2960   24.0299 C   0  0  1  0  0  0
  -20.5949  -28.3761   23.1184 C   0  0  2  0  0  0
  -20.6798  -26.9438   22.5409 C   0  0  0  0  0  0
  -19.5772  -26.6382   21.5224 C   0  0  0  0  0  0
  -18.1951  -26.7953   22.1623 C   0  0  0  0  0  0
  -19.1588  -28.8912   23.2812 C   0  0  0  0  0  0
  -18.9502  -30.1498   23.8850 C   0  0  0  0  0  0
  -17.6495  -30.6605   24.0564 C   0  0  0  0  0  0
  -25.9094  -34.9344   23.5001 C   0  0  0  0  0  0
  -16.5383  -29.9095   23.6353 C   0  0  0  0  0  0
  -16.7305  -28.6522   23.0359 C   0  0  0  0  0  0
  -26.4560  -31.6532   25.0678 C   0  0  0  0  0  0
  -25.3682  -31.3793   26.1332 C   0  0  0  0  0  0
  -27.0465  -30.2901   24.6410 C   0  0  0  0  0  0
  -27.6043  -32.4352   25.7485 C   0  0  0  0  0  0
  -27.5548  -37.1762   24.8478 C   0  0  0  0  0  0
  -21.4338  -29.3043   22.3522 N   0  0  0  0  0  0
  -26.4272  -37.3693   23.9401 N   0  0  0  0  0  0
  -24.7510  -30.9879   22.0817 N   0  0  0  0  0  0
  -23.4208  -28.8005   23.3014 O   0  0  0  0  0  0
  -28.2346  -25.8258   20.2916 O   0  0  0  0  0  0
  -26.5715  -34.8890   22.4601 O   0  0  0  0  0  0
  -23.5697  -32.1186   23.6772 O   0  0  0  0  0  0
  -30.1865  -20.3738   19.5302 C   0  0  0  0  0  0
  -29.1745  -21.0210   20.2795 C   0  0  0  0  0  0
  -29.6004  -18.1214   20.3726 C   0  0  0  0  0  0
  -31.1681  -21.1289   18.6877 C   0  0  0  0  0  0
  -28.9716  -22.7425   20.6204 C   0  0  0  0  0  0
  -28.0849  -24.1969   20.0152 C   0  0  0  0  0  0
  -30.3920  -18.9069   19.5843 N   0  0  0  0  0  0
  -29.5968  -16.5046   20.5374 N   0  0  0  0  0  0
  -28.4535  -19.4758   21.0801 S   0  0  0  0  0  0
  -31.4626  -13.0125   19.2093 H   0  0  0  0  0  0
  -30.5060  -11.8990   20.1360 H   0  0  0  0  0  0
  -29.9216  -11.7648   17.6854 H   0  0  0  0  0  0
  -29.5660  -13.4753   17.6642 H   0  0  0  0  0  0
  -28.0478  -11.2772   19.0923 H   0  0  0  0  0  0
  -27.4201  -12.3411   17.8579 H   0  0  0  0  0  0
  -27.5312  -14.2430   19.3308 H   0  0  0  0  0  0
  -28.8083  -12.5044   21.4977 H   0  0  0  0  0  0
  -28.2807  -14.1578   21.7036 H   0  0  0  0  0  0
  -25.2779   -9.5680   22.4760 H   0  0  0  0  0  0
  -24.0004   -7.4637   22.7475 H   0  0  0  0  0  0
  -21.0853   -8.8785   19.8952 H   0  0  0  0  0  0
  -22.3719  -10.9674   19.6162 H   0  0  0  0  0  0
  -21.2003   -7.6145   23.9712 H   0  0  0  0  0  0
  -21.1473   -6.0519   25.9073 H   0  0  0  0  0  0
  -22.0603   -2.7610   23.2845 H   0  0  0  0  0  0
  -22.4053  -11.9825   22.4835 H   0  0  0  0  0  0
  -21.1040  -13.1173   22.2685 H   0  0  0  0  0  0
  -24.6241  -15.8423   20.5140 H   0  0  0  0  0  0
  -26.2310  -15.6380   20.0403 H   0  0  0  0  0  0
  -26.7369  -32.5115   23.0854 H   0  0  0  0  0  0
  -25.0052  -33.9465   25.0162 H   0  0  0  0  0  0
  -22.7922  -31.2640   21.3429 H   0  0  0  0  0  0
  -23.3742  -35.9538   23.3344 H   0  0  0  0  0  0
  -24.3536  -36.8814   22.2064 H   0  0  0  0  0  0
  -23.7259  -37.6403   23.6693 H   0  0  0  0  0  0
  -26.2236  -31.3672   20.6160 H   0  0  0  0  0  0
  -26.9088  -30.6880   22.0511 H   0  0  0  0  0  0
  -28.1467  -28.5924   21.2877 H   0  0  0  0  0  0
  -25.8912  -25.7204   19.0103 H   0  0  0  0  0  0
  -24.0109  -27.2540   18.9528 H   0  0  0  0  0  0
  -23.8734  -30.5116   19.3845 H   0  0  0  0  0  0
  -22.8284  -29.1988   19.8271 H   0  0  0  0  0  0
  -25.1329  -36.1757   25.0793 H   0  0  0  0  0  0
  -21.0041  -28.3379   24.1308 H   0  0  0  0  0  0
  -20.5691  -26.2374   23.3648 H   0  0  0  0  0  0
  -21.6655  -26.7411   22.1209 H   0  0  0  0  0  0
  -19.6935  -25.6288   21.1271 H   0  0  0  0  0  0
  -19.6725  -27.3175   20.6744 H   0  0  0  0  0  0
  -17.4221  -26.6706   21.4023 H   0  0  0  0  0  0
  -18.0337  -26.0110   22.9034 H   0  0  0  0  0  0
  -19.7981  -30.7330   24.2192 H   0  0  0  0  0  0
  -17.5051  -31.6281   24.5180 H   0  0  0  0  0  0
  -15.5384  -30.2983   23.7716 H   0  0  0  0  0  0
  -15.8701  -28.0833   22.7092 H   0  0  0  0  0  0
  -24.5875  -30.7131   25.7640 H   0  0  0  0  0  0
  -24.8860  -32.3003   26.4621 H   0  0  0  0  0  0
  -25.7903  -30.9047   27.0197 H   0  0  0  0  0  0
  -26.3138  -29.6568   24.1397 H   0  0  0  0  0  0
  -27.3990  -29.7272   25.5062 H   0  0  0  0  0  0
  -27.9070  -30.4092   23.9826 H   0  0  0  0  0  0
  -27.2602  -33.3700   26.1923 H   0  0  0  0  0  0
  -28.3924  -32.6839   25.0366 H   0  0  0  0  0  0
  -28.0629  -31.8574   26.5517 H   0  0  0  0  0  0
  -28.2594  -38.0026   24.7445 H   0  0  0  0  0  0
  -28.1011  -36.2545   24.6407 H   0  0  0  0  0  0
  -27.2251  -37.1529   25.8882 H   0  0  0  0  0  0
  -20.9593  -29.8712   21.6632 H   0  0  0  0  0  0
  -26.0121  -38.2756   24.1394 H   0  0  0  0  0  0
  -32.0669  -21.3712   19.2545 H   0  0  0  0  0  0
  -30.7474  -22.0659   18.3224 H   0  0  0  0  0  0
  -31.4750  -20.5528   17.8145 H   0  0  0  0  0  0
  -29.9987  -23.1073   20.6014 H   0  0  0  0  0  0
  -28.7393  -22.7621   21.6848 H   0  0  0  0  0  0
  -27.0342  -23.9812   20.2103 H   0  0  0  0  0  0
  -28.1729  -24.1350   18.9307 H   0  0  0  0  0  0
  -28.6908  -16.2123   20.8681 H   0  0  0  0  0  0
  1 25  1  0  0  0
  1 30  2  0  0  0
  1 78  1  0  0  0
  2  3  1  0  0  0
  2 25  1  0  0  0
  2 80  1  0  0  0
  2 81  1  0  0  0
  3  4  1  0  0  0
  3 82  1  0  0  0
  3 83  1  0  0  0
  4  5  1  0  0  0
  4 84  1  0  0  0
  4 85  1  0  0  0
  5  6  1  0  0  0
  5 26  1  0  0  0
  5 86  1  0  0  0
  6 25  1  0  0  0
  6 87  1  0  0  0
  6 88  1  0  0  0
  7  8  2  0  0  0
  7 26  1  0  0  0
  7 29  1  0  0  0
  8  9  1  0  0  0
  8 22  1  0  0  0
  9 10  1  0  0  0
  9 27  2  0  0  0
 10 11  2  0  0  0
 10 15  1  0  0  0
 11 12  1  0  0  0
 11 89  1  0  0  0
 12 13  2  0  0  0
 12 90  1  0  0  0
 13 14  1  0  0  0
 13 31  1  0  0  0
 14 15  2  0  0  0
 14 91  1  0  0  0
 15 92  1  0  0  0
 16 17  2  0  0  0
 16 21  1  0  0  0
 16 31  1  0  0  0
 17 18  1  0  0  0
 17 93  1  0  0  0
 18 19  2  0  0  0
 18 94  1  0  0  0
 19 20  1  0  0  0
 19 24  1  0  0  0
 20 21  2  0  0  0
 20 95  1  0  0  0
 21 23  1  0  0  0
 22 28  1  0  0  0
 22 32  2  0  0  0
 26 27  1  0  0  0
 28 96  1  0  0  0
 28 97  1  0  0  0
 29 98  1  0  0  0
 29 99  1  0  0  0
 33 34  1  0  0  0
 33 66  1  0  0  0
 33 70  2  0  0  0
 34 36  1  0  0  0
 34 59  1  0  0  0
 34100  1  0  0  0
 35 44  2  0  0  0
 35 45  1  0  0  0
 35 68  1  0  0  0
 36 56  1  0  0  0
 36101  1  0  0  0
 37 39  1  0  0  0
 37 47  1  0  0  0
 37 66  1  0  0  0
 37102  1  0  0  0
 38 43  2  0  0  0
 38 46  1  0  0  0
 38 47  1  0  0  0
 39 64  1  0  0  0
 39 67  2  0  0  0
 40 52  1  0  0  0
 40 53  2  0  0  0
 40 58  1  0  0  0
 41103  1  0  0  0
 41104  1  0  0  0
 41105  1  0  0  0
 41 48  1  0  0  0
 42 43  1  0  0  0
 42 66  1  0  0  0
 42106  1  0  0  0
 42107  1  0  0  0
 43 44  1  0  0  0
 44108  1  0  0  0
 45 46  2  0  0  0
 45109  1  0  0  0
 46110  1  0  0  0
 47111  1  0  0  0
 47112  1  0  0  0
 48 56  1  0  0  0
 48 65  1  0  0  0
 48113  1  0  0  0
 49 50  1  0  0  0
 49 53  1  0  0  0
 49 64  1  0  0  0
 49114  1  0  0  0
 50 51  1  0  0  0
 50115  1  0  0  0
 50116  1  0  0  0
 51 52  1  0  0  0
 51117  1  0  0  0
 51118  1  0  0  0
 52119  1  0  0  0
 52120  1  0  0  0
 53 54  1  0  0  0
 54 55  2  0  0  0
 54121  1  0  0  0
 55 57  1  0  0  0
 55122  1  0  0  0
 56 69  2  0  0  0
 57 58  2  0  0  0
 57123  1  0  0  0
 58124  1  0  0  0
 59 60  1  0  0  0
 59 61  1  0  0  0
 59 62  1  0  0  0
 60125  1  0  0  0
 60126  1  0  0  0
 60127  1  0  0  0
 61128  1  0  0  0
 61129  1  0  0  0
 61130  1  0  0  0
 62131  1  0  0  0
 62132  1  0  0  0
 62133  1  0  0  0
 63 65  1  0  0  0
 63134  1  0  0  0
 63135  1  0  0  0
 63136  1  0  0  0
 64137  1  0  0  0
 65138  1  0  0  0
 68 76  1  0  0  0
 71 72  2  0  0  0
 71 74  1  0  0  0
 71 77  1  0  0  0
 72 75  1  0  0  0
 72 79  1  0  0  0
 73 77  2  0  0  0
 73 78  1  0  0  0
 73 79  1  0  0  0
 74139  1  0  0  0
 74140  1  0  0  0
 74141  1  0  0  0
 75 76  1  0  0  0
 75142  1  0  0  0
 75143  1  0  0  0
 76144  1  0  0  0
 76145  1  0  0  0
 78146  1  0  0  0
M  ISO  4   1 100  68 101  76 101  78 100
M  END
> <chiral flag>
0

> <version>
0

> <s_m_source_file>
/data/baiqing/PycharmProjects/Reinvent-master-3.2/result/LINK_invent/BTK/process_docking_weight1_custom_sum_contain_oxygen_bond_distance_aromatic_linkinvent_7_9_3/rearranged_h_0018.sdf

> <i_m_source_file_index>
61

> <r_mmod_Potential_Energy-OPLS-2005>
1192.66235351562

> <r_mmod_Stretch_Energy-OPLS-2005>
562.604187011719

> <r_mmod_Bend_Energy-OPLS-2005>
470.499481201172

> <r_mmod_Torsional_Energy-OPLS-2005>
201.94010925293

> <r_mmod_Improper_Torsional_Energy-OPLS-2005>
4.98161220550537

> <r_mmod_Van_der_Waal_Energy-OPLS-2005>
105.732429504395

> <r_mmod_Electrostatic_Energy-OPLS-2005>
-393.864562988281

> <r_mmod_Solvation_Energy-OPLS-2005>
-227.058624267578

> <b_mmod_Minimization_Converged-OPLS-2005>
0

> <r_mmod_RMS_Derivative-OPLS-2005>
0.894392490386963

$$$$
62
                    3D
 Structure written by MMmdl.
171179  0  0  1  0            999 V2000
  -30.6015  -14.8081   20.3948 C   0  0  0  0  0  0
  -30.4307  -12.4888   19.4808 C   0  0  0  0  0  0
  -29.5098  -12.5015   18.2443 C   0  0  0  0  0  0
  -28.0440  -12.3126   18.6663 C   0  0  0  0  0  0
  -27.6394  -13.2326   19.8493 C   0  0  2  0  0  0
  -28.6847  -13.2106   20.9846 C   0  0  0  0  0  0
  -25.2532  -13.8196   20.5725 C   0  0  0  0  0  0
  -24.1817  -13.0439   20.9203 C   0  0  0  0  0  0
  -24.6398  -11.6914   20.8761 C   0  0  0  0  0  0
  -23.9049  -10.4298   21.0408 C   0  0  0  0  0  0
  -24.3592   -9.4216   21.9198 C   0  0  0  0  0  0
  -23.6277   -8.2243   22.0761 C   0  0  0  0  0  0
  -22.4269   -8.0290   21.3531 C   0  0  0  0  0  0
  -21.9891   -9.0258   20.4634 C   0  0  0  0  0  0
  -22.7212  -10.2140   20.3060 C   0  0  0  0  0  0
  -21.6876   -6.0723   22.5267 C   0  0  0  0  0  0
  -21.4018   -6.5629   23.8196 C   0  0  0  0  0  0
  -21.3661   -5.6795   24.9171 C   0  0  0  0  0  0
  -21.6043   -4.3054   24.7232 C   0  0  0  0  0  0
  -21.8814   -3.8130   23.4361 C   0  0  0  0  0  0
  -21.9200   -4.6943   22.3410 C   0  0  0  0  0  0
  -22.7835  -13.5218   21.1841 C   0  0  0  0  0  0
  -22.1660   -4.2129   21.0986 F   0  0  0  0  0  0
  -21.5632   -3.4540   25.7742 F   0  0  0  0  0  0
  -29.9771  -13.5753   20.3813 N   0  0  0  0  0  0
  -26.2942  -12.9382   20.3305 N   0  0  0  0  0  0
  -25.9347  -11.6528   20.5807 N   0  0  0  0  0  0
  -22.0465  -12.8240   22.0417 N   0  0  0  0  0  0
  -25.4236  -15.1915   20.4112 N   0  0  0  0  0  0
  -31.8018  -14.8727   20.1055 O   0  0  0  0  0  0
  -21.6660   -6.8872   21.4227 O   0  0  0  0  0  0
  -22.3521  -14.5549   20.6736 O   0  0  0  0  0  0
  -24.6276  -31.8448   23.1922 C   0  0  0  0  0  0
  -25.9148  -32.4594   23.8319 C   0  0  1  0  0  0
  -27.2441  -27.2611   20.0957 C   0  0  0  0  0  0
  -25.6030  -33.8437   24.2272 N   0  0  0  0  0  0
  -23.4288  -30.4724   21.5345 C   0  0  2  0  0  0
  -24.8749  -28.9002   20.1046 C   0  0  0  0  0  0
  -22.7527  -29.4640   22.4958 C   0  0  0  0  0  0
  -18.0275  -28.1471   22.8507 C   0  0  0  0  0  0
  -24.1555  -36.7210   23.2638 C   0  0  0  0  0  0
  -25.9687  -30.7527   21.3762 C   0  0  0  0  0  0
  -26.0410  -29.3716   20.7190 C   0  0  0  0  0  0
  -27.2137  -28.5563   20.7164 C   0  0  0  0  0  0
  -26.0688  -26.8622   19.4336 C   0  0  0  0  0  0
  -24.8958  -27.6536   19.4438 C   0  0  0  0  0  0
  -23.6463  -29.7955   20.1577 C   0  0  0  0  0  0
  -25.4175  -36.2947   24.0312 C   0  0  1  0  0  0
  -20.5855  -28.3829   23.1317 C   0  0  2  0  0  0
  -20.6787  -26.9540   22.5491 C   0  0  0  0  0  0
  -19.5778  -26.6520   21.5305 C   0  0  0  0  0  0
  -18.1919  -26.8032   22.1634 C   0  0  0  0  0  0
  -19.1514  -28.8945   23.2901 C   0  0  0  0  0  0
  -18.9429  -30.1567   23.8919 C   0  0  0  0  0  0
  -17.6396  -30.6609   24.0600 C   0  0  0  0  0  0
  -25.9119  -34.9325   23.5141 C   0  0  0  0  0  0
  -16.5314  -29.9111   23.6312 C   0  0  0  0  0  0
  -16.7267  -28.6583   23.0263 C   0  0  0  0  0  0
  -26.4513  -31.6333   25.0668 C   0  0  0  0  0  0
  -25.3760  -31.3517   26.1412 C   0  0  0  0  0  0
  -27.0342  -30.2729   24.6120 C   0  0  0  0  0  0
  -27.6107  -32.4044   25.7389 C   0  0  0  0  0  0
  -27.5609  -37.1751   24.8466 C   0  0  0  0  0  0
  -21.4214  -29.3170   22.3770 N   0  0  0  0  0  0
  -26.4325  -37.3624   23.9420 N   0  0  0  0  0  0
  -24.6953  -31.0486   22.0868 N   0  0  0  0  0  0
  -23.4240  -28.8195   23.3098 O   0  0  0  0  0  0
  -28.3724  -26.4154   20.2470 O   0  0  0  0  0  0
  -26.5594  -34.8751   22.4665 O   0  0  0  0  0  0
  -23.5477  -32.1305   23.7290 O   0  0  0  0  0  0
  -27.4781  -19.9100   19.3886 C   0  0  0  0  0  0
  -26.8259  -20.0347   20.6161 C   0  0  0  0  0  0
  -28.8706  -19.7545   19.4806 C   0  0  0  0  0  0
  -27.5319  -19.7367   21.8132 C   0  0  0  0  0  0
  -29.2839  -18.7092   20.4364 C   0  0  0  0  0  0
  -28.6509  -18.8529   21.6961 C   0  0  0  0  0  0
  -28.9127  -25.5892   18.0418 C   0  0  0  0  0  0
  -28.3257  -20.7670   24.0345 C   0  0  0  0  0  0
  -26.0843  -19.5669   23.8609 C   0  0  0  0  0  0
  -26.4566  -21.8075   22.8443 C   0  0  0  0  0  0
  -30.2516  -17.4393   20.1786 C   0  0  0  0  0  0
  -29.5562  -21.1865   19.2381 C   0  0  0  0  0  0
  -28.2469  -23.6093   19.6716 C   0  0  0  0  0  0
  -28.7810  -25.1579   19.5088 C   0  0  2  0  0  0
  -27.1130  -20.4310   23.1284 C   0  0  0  0  0  0
  -29.8421  -15.9716   20.4859 N   0  0  0  0  0  0
  -29.2201  -22.4520   20.0792 N   0  3  0  0  0  0
  -29.2152  -17.8913   23.0225 Cl  0  0  0  0  0  0
  -31.4638  -12.6220   19.1574 H   0  0  0  0  0  0
  -30.3955  -11.5196   19.9801 H   0  0  0  0  0  0
  -29.8028  -11.7068   17.5596 H   0  0  0  0  0  0
  -29.6266  -13.4387   17.6947 H   0  0  0  0  0  0
  -27.9297  -11.2690   18.9670 H   0  0  0  0  0  0
  -27.3723  -12.4658   17.8221 H   0  0  0  0  0  0
  -27.6233  -14.2463   19.4478 H   0  0  0  0  0  0
  -28.7377  -12.2261   21.4592 H   0  0  0  0  0  0
  -28.4069  -13.9130   21.7746 H   0  0  0  0  0  0
  -25.2713   -9.5738   22.4800 H   0  0  0  0  0  0
  -24.0000   -7.4648   22.7485 H   0  0  0  0  0  0
  -21.0824   -8.8750   19.8946 H   0  0  0  0  0  0
  -22.3625  -10.9688   19.6194 H   0  0  0  0  0  0
  -21.2003   -7.6142   23.9693 H   0  0  0  0  0  0
  -21.1487   -6.0530   25.9070 H   0  0  0  0  0  0
  -22.0596   -2.7599   23.2866 H   0  0  0  0  0  0
  -22.4036  -11.9894   22.4822 H   0  0  0  0  0  0
  -21.1076  -13.1260   22.2570 H   0  0  0  0  0  0
  -24.6607  -15.8490   20.5280 H   0  0  0  0  0  0
  -26.2759  -15.6269   20.0827 H   0  0  0  0  0  0
  -26.7331  -32.5170   23.1114 H   0  0  0  0  0  0
  -25.0434  -33.9660   25.0587 H   0  0  0  0  0  0
  -22.7449  -31.3055   21.3891 H   0  0  0  0  0  0
  -23.3760  -35.9593   23.3247 H   0  0  0  0  0  0
  -24.3718  -36.8868   22.2081 H   0  0  0  0  0  0
  -23.7353  -37.6405   23.6718 H   0  0  0  0  0  0
  -26.1391  -31.5011   20.5967 H   0  0  0  0  0  0
  -26.8395  -30.7859   22.0243 H   0  0  0  0  0  0
  -28.1118  -28.8954   21.2185 H   0  0  0  0  0  0
  -26.0402  -25.9085   18.9282 H   0  0  0  0  0  0
  -24.0125  -27.3018   18.9370 H   0  0  0  0  0  0
  -23.7729  -30.5670   19.4028 H   0  0  0  0  0  0
  -22.7573  -29.2306   19.8659 H   0  0  0  0  0  0
  -25.1356  -36.1771   25.0781 H   0  0  0  0  0  0
  -20.9888  -28.3415   24.1479 H   0  0  0  0  0  0
  -20.5820  -26.2381   23.3745 H   0  0  0  0  0  0
  -21.6656  -26.7722   22.1256 H   0  0  0  0  0  0
  -19.6984  -25.6480   21.1342 H   0  0  0  0  0  0
  -19.6747  -27.3321   20.6876 H   0  0  0  0  0  0
  -17.4318  -26.6864   21.3952 H   0  0  0  0  0  0
  -18.0105  -26.0083   22.8947 H   0  0  0  0  0  0
  -19.7868  -30.7368   24.2261 H   0  0  0  0  0  0
  -17.4925  -31.6251   24.5315 H   0  0  0  0  0  0
  -15.5292  -30.2968   23.7678 H   0  0  0  0  0  0
  -15.8661  -28.0972   22.6805 H   0  0  0  0  0  0
  -24.5784  -30.7078   25.7735 H   0  0  0  0  0  0
  -24.9064  -32.2632   26.5072 H   0  0  0  0  0  0
  -25.7962  -30.8415   27.0086 H   0  0  0  0  0  0
  -26.2874  -29.6339   24.1327 H   0  0  0  0  0  0
  -27.4374  -29.7038   25.4524 H   0  0  0  0  0  0
  -27.8607  -30.3983   23.9118 H   0  0  0  0  0  0
  -27.2764  -33.3377   26.1921 H   0  0  0  0  0  0
  -28.3828  -32.6541   25.0125 H   0  0  0  0  0  0
  -28.0836  -31.8164   26.5220 H   0  0  0  0  0  0
  -28.2533  -38.0110   24.7499 H   0  0  0  0  0  0
  -28.1188  -36.2646   24.6281 H   0  0  0  0  0  0
  -27.2394  -37.1368   25.8871 H   0  0  0  0  0  0
  -20.9542  -29.8758   21.6795 H   0  0  0  0  0  0
  -26.0189  -38.2728   24.1184 H   0  0  0  0  0  0
  -27.0271  -20.3845   18.5232 H   0  0  0  0  0  0
  -25.8537  -20.5115   20.6293 H   0  0  0  0  0  0
  -29.4293  -24.8385   17.4500 H   0  0  0  0  0  0
  -29.4742  -26.5262   17.9725 H   0  0  0  0  0  0
  -27.9370  -25.7659   17.5879 H   0  0  0  0  0  0
  -28.7443  -19.8942   24.5295 H   0  0  0  0  0  0
  -28.0552  -21.4584   24.8350 H   0  0  0  0  0  0
  -29.1307  -21.2482   23.4743 H   0  0  0  0  0  0
  -25.7841  -20.0429   24.7945 H   0  0  0  0  0  0
  -26.4727  -18.5764   24.0900 H   0  0  0  0  0  0
  -25.1915  -19.4392   23.2425 H   0  0  0  0  0  0
  -27.0954  -22.4144   22.2091 H   0  0  0  0  0  0
  -26.2934  -22.3751   23.7612 H   0  0  0  0  0  0
  -25.4903  -21.7281   22.3439 H   0  0  0  0  0  0
  -31.1402  -17.6158   20.7887 H   0  0  0  0  0  0
  -30.6157  -17.4621   19.1561 H   0  0  0  0  0  0
  -29.4469  -21.4409   18.1925 H   0  0  0  0  0  0
  -30.6275  -21.0354   19.3606 H   0  0  0  0  0  0
  -27.7448  -23.3086   18.7539 H   0  0  0  0  0  0
  -27.4516  -23.6204   20.4121 H   0  0  0  0  0  0
  -29.8077  -25.0788   19.8530 H   0  0  0  0  0  0
  -28.8739  -15.8304   20.7323 H   0  0  0  0  0  0
  -30.1230  -22.8879   20.2007 H   0  0  0  0  0  0
  -28.9711  -22.1185   20.9978 H   0  0  0  0  0  0
  1 25  1  0  0  0
  1 30  2  0  0  0
  1 86  1  0  0  0
  2  3  1  0  0  0
  2 25  1  0  0  0
  2 89  1  0  0  0
  2 90  1  0  0  0
  3  4  1  0  0  0
  3 91  1  0  0  0
  3 92  1  0  0  0
  4  5  1  0  0  0
  4 93  1  0  0  0
  4 94  1  0  0  0
  5  6  1  0  0  0
  5 26  1  0  0  0
  5 95  1  0  0  0
  6 25  1  0  0  0
  6 96  1  0  0  0
  6 97  1  0  0  0
  7  8  2  0  0  0
  7 26  1  0  0  0
  7 29  1  0  0  0
  8  9  1  0  0  0
  8 22  1  0  0  0
  9 10  1  0  0  0
  9 27  2  0  0  0
 10 11  2  0  0  0
 10 15  1  0  0  0
 11 12  1  0  0  0
 11 98  1  0  0  0
 12 13  2  0  0  0
 12 99  1  0  0  0
 13 14  1  0  0  0
 13 31  1  0  0  0
 14 15  2  0  0  0
 14100  1  0  0  0
 15101  1  0  0  0
 16 17  2  0  0  0
 16 21  1  0  0  0
 16 31  1  0  0  0
 17 18  1  0  0  0
 17102  1  0  0  0
 18 19  2  0  0  0
 18103  1  0  0  0
 19 20  1  0  0  0
 19 24  1  0  0  0
 20 21  2  0  0  0
 20104  1  0  0  0
 21 23  1  0  0  0
 22 28  1  0  0  0
 22 32  2  0  0  0
 26 27  1  0  0  0
 28105  1  0  0  0
 28106  1  0  0  0
 29107  1  0  0  0
 29108  1  0  0  0
 33 34  1  0  0  0
 33 66  1  0  0  0
 33 70  2  0  0  0
 34 36  1  0  0  0
 34 59  1  0  0  0
 34109  1  0  0  0
 35 44  2  0  0  0
 35 45  1  0  0  0
 35 68  1  0  0  0
 36 56  1  0  0  0
 36110  1  0  0  0
 37 39  1  0  0  0
 37 47  1  0  0  0
 37 66  1  0  0  0
 37111  1  0  0  0
 38 43  2  0  0  0
 38 46  1  0  0  0
 38 47  1  0  0  0
 39 64  1  0  0  0
 39 67  2  0  0  0
 40 52  1  0  0  0
 40 53  2  0  0  0
 40 58  1  0  0  0
 41112  1  0  0  0
 41113  1  0  0  0
 41114  1  0  0  0
 41 48  1  0  0  0
 42 43  1  0  0  0
 42 66  1  0  0  0
 42115  1  0  0  0
 42116  1  0  0  0
 43 44  1  0  0  0
 44117  1  0  0  0
 45 46  2  0  0  0
 45118  1  0  0  0
 46119  1  0  0  0
 47120  1  0  0  0
 47121  1  0  0  0
 48 56  1  0  0  0
 48 65  1  0  0  0
 48122  1  0  0  0
 49 50  1  0  0  0
 49 53  1  0  0  0
 49 64  1  0  0  0
 49123  1  0  0  0
 50 51  1  0  0  0
 50124  1  0  0  0
 50125  1  0  0  0
 51 52  1  0  0  0
 51126  1  0  0  0
 51127  1  0  0  0
 52128  1  0  0  0
 52129  1  0  0  0
 53 54  1  0  0  0
 54 55  2  0  0  0
 54130  1  0  0  0
 55 57  1  0  0  0
 55131  1  0  0  0
 56 69  2  0  0  0
 57 58  2  0  0  0
 57132  1  0  0  0
 58133  1  0  0  0
 59 60  1  0  0  0
 59 61  1  0  0  0
 59 62  1  0  0  0
 60134  1  0  0  0
 60135  1  0  0  0
 60136  1  0  0  0
 61137  1  0  0  0
 61138  1  0  0  0
 61139  1  0  0  0
 62140  1  0  0  0
 62141  1  0  0  0
 62142  1  0  0  0
 63 65  1  0  0  0
 63143  1  0  0  0
 63144  1  0  0  0
 63145  1  0  0  0
 64146  1  0  0  0
 65147  1  0  0  0
 68 84  1  0  0  0
 71 72  2  0  0  0
 71 73  1  0  0  0
 71148  1  0  0  0
 72 74  1  0  0  0
 72149  1  0  0  0
 73 75  2  0  0  0
 73 82  1  0  0  0
 74 76  2  0  0  0
 74 85  1  0  0  0
 75 76  1  0  0  0
 75 81  1  0  0  0
 76 88  1  0  0  0
 77150  1  0  0  0
 77151  1  0  0  0
 77152  1  0  0  0
 77 84  1  0  0  0
 78153  1  0  0  0
 78154  1  0  0  0
 78155  1  0  0  0
 78 85  1  0  0  0
 79 85  1  0  0  0
 79156  1  0  0  0
 79157  1  0  0  0
 79158  1  0  0  0
 80 85  1  0  0  0
 80159  1  0  0  0
 80160  1  0  0  0
 80161  1  0  0  0
 81 86  1  0  0  0
 81162  1  0  0  0
 81163  1  0  0  0
 82 87  1  0  0  0
 82164  1  0  0  0
 82165  1  0  0  0
 83 84  1  0  0  0
 83 87  1  0  0  0
 83166  1  0  0  0
 83167  1  0  0  0
 84168  1  0  0  0
 86169  1  0  0  0
 87170  1  0  0  0
 87171  1  0  0  0
M  CHG  1  87   1
M  ISO  4   1 100  68 101  84 101  86 100
M  END
> <chiral flag>
0

> <version>
0

> <s_m_source_file>
/data/baiqing/PycharmProjects/Reinvent-master-3.2/result/LINK_invent/BTK/process_docking_weight1_custom_sum_contain_oxygen_bond_distance_aromatic_linkinvent_7_9_3/rearranged_h_0018.sdf

> <i_m_source_file_index>
62

> <r_mmod_Potential_Energy-OPLS-2005>
391.706146240234

> <r_mmod_Stretch_Energy-OPLS-2005>
166.516159057617

> <r_mmod_Bend_Energy-OPLS-2005>
289.954284667969

> <r_mmod_Torsional_Energy-OPLS-2005>
447.557189941406

> <r_mmod_Improper_Torsional_Energy-OPLS-2005>
21.6481342315674

> <r_mmod_Van_der_Waal_Energy-OPLS-2005>
142.137985229492

> <r_mmod_Electrostatic_Energy-OPLS-2005>
-335.164459228516

> <r_mmod_Solvation_Energy-OPLS-2005>
-445.856719970703

> <b_mmod_Minimization_Converged-OPLS-2005>
0

> <r_mmod_RMS_Derivative-OPLS-2005>
12.6504201889038

$$$$
63
                    3D
 Structure written by MMmdl.
191200  0  0  1  0            999 V2000
  -30.6622  -14.5749   20.5665 C   0  0  0  0  0  0
  -30.4249  -12.3679   19.4429 C   0  0  0  0  0  0
  -29.4916  -12.5020   18.2210 C   0  0  0  0  0  0
  -28.0188  -12.3374   18.6398 C   0  0  0  0  0  0
  -27.6520  -13.2087   19.8696 C   0  0  2  0  0  0
  -28.6933  -13.0430   20.9971 C   0  0  0  0  0  0
  -25.2548  -13.8164   20.5701 C   0  0  0  0  0  0
  -24.1787  -13.0417   20.9170 C   0  0  0  0  0  0
  -24.6341  -11.6891   20.8733 C   0  0  0  0  0  0
  -23.9011  -10.4274   21.0420 C   0  0  0  0  0  0
  -24.3586   -9.4224   21.9217 C   0  0  0  0  0  0
  -23.6259   -8.2263   22.0768 C   0  0  0  0  0  0
  -22.4267   -8.0278   21.3531 C   0  0  0  0  0  0
  -21.9889   -9.0243   20.4650 C   0  0  0  0  0  0
  -22.7188  -10.2124   20.3064 C   0  0  0  0  0  0
  -21.6841   -6.0725   22.5281 C   0  0  0  0  0  0
  -21.4012   -6.5628   23.8223 C   0  0  0  0  0  0
  -21.3667   -5.6790   24.9191 C   0  0  0  0  0  0
  -21.6047   -4.3046   24.7239 C   0  0  0  0  0  0
  -21.8816   -3.8131   23.4363 C   0  0  0  0  0  0
  -21.9185   -4.6942   22.3405 C   0  0  0  0  0  0
  -22.7833  -13.5242   21.1840 C   0  0  0  0  0  0
  -22.1658   -4.2113   21.0981 F   0  0  0  0  0  0
  -21.5633   -3.4542   25.7770 F   0  0  0  0  0  0
  -30.0135  -13.3770   20.4383 N   0  0  0  0  0  0
  -26.2975  -12.9325   20.3375 N   0  0  0  0  0  0
  -25.9275  -11.6484   20.5780 N   0  0  0  0  0  0
  -22.0480  -12.8243   22.0423 N   0  0  0  0  0  0
  -25.4284  -15.1878   20.4172 N   0  0  0  0  0  0
  -31.8088  -14.7428   20.1404 O   0  0  0  0  0  0
  -21.6627   -6.8868   21.4238 O   0  0  0  0  0  0
  -22.3527  -14.5536   20.6666 O   0  0  0  0  0  0
  -24.6201  -31.8633   23.2104 C   0  0  0  0  0  0
  -25.9082  -32.4803   23.8405 C   0  0  1  0  0  0
  -27.2255  -27.3391   20.0978 C   0  0  0  0  0  0
  -25.5860  -33.8594   24.2286 N   0  0  0  0  0  0
  -23.4183  -30.4886   21.5535 C   0  0  2  0  0  0
  -24.8670  -28.9623   20.1090 C   0  0  0  0  0  0
  -22.7477  -29.4604   22.4940 C   0  0  0  0  0  0
  -18.0264  -28.1364   22.8465 C   0  0  0  0  0  0
  -24.1478  -36.7336   23.2651 C   0  0  0  0  0  0
  -25.9596  -30.7929   21.3919 C   0  0  0  0  0  0
  -26.0317  -29.4229   20.7343 C   0  0  0  0  0  0
  -27.2063  -28.6147   20.7405 C   0  0  0  0  0  0
  -26.0454  -26.9700   19.3962 C   0  0  0  0  0  0
  -24.8747  -27.7405   19.4320 C   0  0  0  0  0  0
  -23.6341  -29.8369   20.1649 C   0  0  0  0  0  0
  -25.4120  -36.3108   24.0313 C   0  0  1  0  0  0
  -20.5858  -28.3683   23.1229 C   0  0  2  0  0  0
  -20.6757  -26.9395   22.5383 C   0  0  0  0  0  0
  -19.5728  -26.6357   21.5152 C   0  0  0  0  0  0
  -18.1919  -26.7914   22.1595 C   0  0  0  0  0  0
  -19.1522  -28.8830   23.2864 C   0  0  0  0  0  0
  -18.9463  -30.1419   23.8886 C   0  0  0  0  0  0
  -17.6476  -30.6581   24.0527 C   0  0  0  0  0  0
  -25.9048  -34.9458   23.5122 C   0  0  0  0  0  0
  -16.5351  -29.9081   23.6304 C   0  0  0  0  0  0
  -16.7254  -28.6476   23.0357 C   0  0  0  0  0  0
  -26.4475  -31.6616   25.0778 C   0  0  0  0  0  0
  -25.3676  -31.3641   26.1454 C   0  0  0  0  0  0
  -27.0440  -30.3085   24.6273 C   0  0  0  0  0  0
  -27.5988  -32.4404   25.7555 C   0  0  0  0  0  0
  -27.5586  -37.1822   24.8465 C   0  0  0  0  0  0
  -21.4165  -29.3069   22.3713 N   0  0  0  0  0  0
  -26.4303  -37.3795   23.9406 N   0  0  0  0  0  0
  -24.6844  -31.0668   22.1065 N   0  0  0  0  0  0
  -23.4210  -28.8084   23.2960 O   0  0  0  0  0  0
  -28.3302  -26.4648   20.1902 O   0  0  0  0  0  0
  -26.5656  -34.8900   22.4711 O   0  0  0  0  0  0
  -23.5367  -32.1379   23.7467 O   0  0  0  0  0  0
  -29.7929  -22.1283   21.5855 C   0  0  0  0  0  0
  -29.2859  -23.4488   21.2857 C   0  0  0  0  0  0
  -29.7760  -21.0591   20.6162 C   0  0  0  0  0  0
  -29.2398  -21.4004   19.3342 C   0  0  0  0  0  0
  -28.8612  -23.7963   19.9746 C   0  0  0  0  0  0
  -28.8474  -22.7404   19.0157 C   0  0  0  0  0  0
  -27.2539  -23.1749   17.1655 C   0  0  0  0  0  0
  -24.7067  -24.6300   10.9627 C   0  0  0  0  0  0
  -23.8521  -23.6047   11.7234 C   0  0  0  0  0  0
  -26.1935  -24.4915   11.3238 C   0  0  0  0  0  0
  -24.0771  -23.7206   13.2390 C   0  0  0  0  0  0
  -26.4105  -24.6109   12.8441 C   0  0  0  0  0  0
  -25.5668  -23.5668   13.6082 C   0  0  0  0  0  0
  -30.3308  -21.8715   22.9965 C   0  0  0  0  0  0
  -29.1740  -24.5062   22.3823 C   0  0  0  0  0  0
  -27.5467  -19.7652   18.4339 C   0  0  0  0  0  0
  -30.4424  -19.6353   20.9195 C   0  0  0  0  0  0
  -28.9775  -20.3187   18.2872 C   0  0  0  0  0  0
  -28.1596  -25.1415   19.5681 C   0  0  0  0  0  0
  -27.1759  -23.3634   15.6452 C   0  0  0  0  0  0
  -25.7440  -23.6399   15.1368 C   0  0  0  0  0  0
  -29.7737  -18.2140   20.6112 C   0  0  0  0  0  0
  -30.4028  -17.0015   21.4165 C   0  0  0  0  0  0
  -28.4883  -23.0248   17.6661 N   0  0  0  0  0  0
  -29.9423  -15.6150   21.0751 N   0  0  0  0  0  0
  -26.2365  -23.1878   17.8636 O   0  0  0  0  0  0
  -31.4654  -12.4834   19.1346 H   0  0  0  0  0  0
  -30.3519  -11.3675   19.8738 H   0  0  0  0  0  0
  -29.7489  -11.7611   17.4629 H   0  0  0  0  0  0
  -29.6301  -13.4779   17.7580 H   0  0  0  0  0  0
  -27.8620  -11.2851   18.8782 H   0  0  0  0  0  0
  -27.3533  -12.5589   17.8047 H   0  0  0  0  0  0
  -27.6820  -14.2469   19.5352 H   0  0  0  0  0  0
  -28.6974  -12.0179   21.3707 H   0  0  0  0  0  0
  -28.4408  -13.6647   21.8561 H   0  0  0  0  0  0
  -25.2716   -9.5727   22.4790 H   0  0  0  0  0  0
  -23.9958   -7.4680   22.7510 H   0  0  0  0  0  0
  -21.0826   -8.8740   19.8978 H   0  0  0  0  0  0
  -22.3621  -10.9664   19.6163 H   0  0  0  0  0  0
  -21.2001   -7.6152   23.9697 H   0  0  0  0  0  0
  -21.1499   -6.0544   25.9092 H   0  0  0  0  0  0
  -22.0581   -2.7601   23.2875 H   0  0  0  0  0  0
  -22.4068  -11.9879   22.4773 H   0  0  0  0  0  0
  -21.1141  -13.1325   22.2674 H   0  0  0  0  0  0
  -24.6654  -15.8469   20.5405 H   0  0  0  0  0  0
  -26.2857  -15.6321   20.1114 H   0  0  0  0  0  0
  -26.7175  -32.5487   23.1161 H   0  0  0  0  0  0
  -24.9903  -33.9708   25.0373 H   0  0  0  0  0  0
  -22.7058  -31.3073   21.4244 H   0  0  0  0  0  0
  -23.3711  -35.9693   23.3288 H   0  0  0  0  0  0
  -24.3544  -36.9023   22.2076 H   0  0  0  0  0  0
  -23.7250  -37.6517   23.6718 H   0  0  0  0  0  0
  -26.1020  -31.5547   20.6265 H   0  0  0  0  0  0
  -26.8340  -30.8328   22.0282 H   0  0  0  0  0  0
  -28.0882  -28.9527   21.2675 H   0  0  0  0  0  0
  -25.9687  -26.0852   18.7815 H   0  0  0  0  0  0
  -23.9962  -27.4001   18.8981 H   0  0  0  0  0  0
  -23.7487  -30.6186   19.4142 H   0  0  0  0  0  0
  -22.7556  -29.2633   19.8628 H   0  0  0  0  0  0
  -25.1290  -36.1976   25.0800 H   0  0  0  0  0  0
  -20.9948  -28.3279   24.1338 H   0  0  0  0  0  0
  -20.5647  -26.2262   23.3576 H   0  0  0  0  0  0
  -21.6645  -26.7414   22.1181 H   0  0  0  0  0  0
  -19.6893  -25.6249   21.1222 H   0  0  0  0  0  0
  -19.6669  -27.3111   20.6636 H   0  0  0  0  0  0
  -17.4183  -26.6579   21.4016 H   0  0  0  0  0  0
  -18.0340  -26.0068   22.8990 H   0  0  0  0  0  0
  -19.7958  -30.7217   24.2247 H   0  0  0  0  0  0
  -17.5051  -31.6226   24.5169 H   0  0  0  0  0  0
  -15.5353  -30.2993   23.7642 H   0  0  0  0  0  0
  -15.8632  -28.0788   22.7098 H   0  0  0  0  0  0
  -24.5953  -30.6905   25.7705 H   0  0  0  0  0  0
  -24.8700  -32.2722   26.4867 H   0  0  0  0  0  0
  -25.7998  -30.8842   27.0246 H   0  0  0  0  0  0
  -26.3071  -29.6747   24.1331 H   0  0  0  0  0  0
  -27.4186  -29.7454   25.4823 H   0  0  0  0  0  0
  -27.8889  -30.4395   23.9511 H   0  0  0  0  0  0
  -27.2569  -33.3758   26.1993 H   0  0  0  0  0  0
  -28.3846  -32.6892   25.0410 H   0  0  0  0  0  0
  -28.0594  -31.8642   26.5584 H   0  0  0  0  0  0
  -28.2555  -38.0174   24.7626 H   0  0  0  0  0  0
  -28.1138  -36.2707   24.6201 H   0  0  0  0  0  0
  -27.2282  -37.1357   25.8854 H   0  0  0  0  0  0
  -20.9321  -29.8843   21.6980 H   0  0  0  0  0  0
  -26.0186  -38.2858   24.1440 H   0  0  0  0  0  0
  -24.3640  -25.6382   11.2052 H   0  0  0  0  0  0
  -24.5678  -24.5064    9.8868 H   0  0  0  0  0  0
  -24.0980  -22.5931   11.3931 H   0  0  0  0  0  0
  -22.7982  -23.7591   11.4913 H   0  0  0  0  0  0
  -26.7688  -25.2588   10.8039 H   0  0  0  0  0  0
  -26.5712  -23.5288   10.9715 H   0  0  0  0  0  0
  -23.4830  -22.9596   13.7489 H   0  0  0  0  0  0
  -23.7046  -24.6863   13.5861 H   0  0  0  0  0  0
  -26.1517  -25.6202   13.1698 H   0  0  0  0  0  0
  -27.4702  -24.4755   13.0604 H   0  0  0  0  0  0
  -25.8850  -22.5761   13.2803 H   0  0  0  0  0  0
  -30.7207  -22.7728   23.4669 H   0  0  0  0  0  0
  -31.1870  -21.2047   23.0459 H   0  0  0  0  0  0
  -29.5283  -21.4728   23.6222 H   0  0  0  0  0  0
  -29.0185  -24.0630   23.3626 H   0  0  0  0  0  0
  -28.3133  -25.1587   22.2406 H   0  0  0  0  0  0
  -30.0775  -25.1171   22.4220 H   0  0  0  0  0  0
  -27.3622  -18.9158   17.7792 H   0  0  0  0  0  0
  -26.8117  -20.5294   18.1843 H   0  0  0  0  0  0
  -27.3297  -19.4546   19.4563 H   0  0  0  0  0  0
  -30.6672  -19.5529   21.9827 H   0  0  0  0  0  0
  -31.4302  -19.6576   20.4368 H   0  0  0  0  0  0
  -29.7401  -19.5535   18.3273 H   0  0  0  0  0  0
  -29.0994  -20.6956   17.2743 H   0  0  0  0  0  0
  -27.1442  -24.7897   19.7283 H   0  0  0  0  0  0
  -28.3036  -25.3316   18.5056 H   0  0  0  0  0  0
  -27.5796  -22.4661   15.1682 H   0  0  0  0  0  0
  -27.8374  -24.1908   15.3776 H   0  0  0  0  0  0
  -25.0782  -22.8945   15.5729 H   0  0  0  0  0  0
  -25.4004  -24.6091   15.5057 H   0  0  0  0  0  0
  -29.8856  -17.9466   19.5578 H   0  0  0  0  0  0
  -28.7024  -18.2519   20.8255 H   0  0  0  0  0  0
  -30.1766  -17.1513   22.4747 H   0  0  0  0  0  0
  -31.4922  -17.0511   21.3561 H   0  0  0  0  0  0
  -29.2419  -22.9923   16.9944 H   0  0  0  0  0  0
  -29.0073  -15.3703   21.3683 H   0  0  0  0  0  0
  1 25  1  0  0  0
  1 30  2  0  0  0
  1 95  1  0  0  0
  2  3  1  0  0  0
  2 25  1  0  0  0
  2 97  1  0  0  0
  2 98  1  0  0  0
  3  4  1  0  0  0
  3 99  1  0  0  0
  3100  1  0  0  0
  4  5  1  0  0  0
  4101  1  0  0  0
  4102  1  0  0  0
  5  6  1  0  0  0
  5 26  1  0  0  0
  5103  1  0  0  0
  6 25  1  0  0  0
  6104  1  0  0  0
  6105  1  0  0  0
  7  8  2  0  0  0
  7 26  1  0  0  0
  7 29  1  0  0  0
  8  9  1  0  0  0
  8 22  1  0  0  0
  9 10  1  0  0  0
  9 27  2  0  0  0
 10 11  2  0  0  0
 10 15  1  0  0  0
 11 12  1  0  0  0
 11106  1  0  0  0
 12 13  2  0  0  0
 12107  1  0  0  0
 13 14  1  0  0  0
 13 31  1  0  0  0
 14 15  2  0  0  0
 14108  1  0  0  0
 15109  1  0  0  0
 16 17  2  0  0  0
 16 21  1  0  0  0
 16 31  1  0  0  0
 17 18  1  0  0  0
 17110  1  0  0  0
 18 19  2  0  0  0
 18111  1  0  0  0
 19 20  1  0  0  0
 19 24  1  0  0  0
 20 21  2  0  0  0
 20112  1  0  0  0
 21 23  1  0  0  0
 22 28  1  0  0  0
 22 32  2  0  0  0
 26 27  1  0  0  0
 28113  1  0  0  0
 28114  1  0  0  0
 29115  1  0  0  0
 29116  1  0  0  0
 33 34  1  0  0  0
 33 66  1  0  0  0
 33 70  2  0  0  0
 34 36  1  0  0  0
 34 59  1  0  0  0
 34117  1  0  0  0
 35 44  2  0  0  0
 35 45  1  0  0  0
 35 68  1  0  0  0
 36 56  1  0  0  0
 36118  1  0  0  0
 37 39  1  0  0  0
 37 47  1  0  0  0
 37 66  1  0  0  0
 37119  1  0  0  0
 38 43  2  0  0  0
 38 46  1  0  0  0
 38 47  1  0  0  0
 39 64  1  0  0  0
 39 67  2  0  0  0
 40 52  1  0  0  0
 40 53  2  0  0  0
 40 58  1  0  0  0
 41120  1  0  0  0
 41121  1  0  0  0
 41122  1  0  0  0
 41 48  1  0  0  0
 42 43  1  0  0  0
 42 66  1  0  0  0
 42123  1  0  0  0
 42124  1  0  0  0
 43 44  1  0  0  0
 44125  1  0  0  0
 45 46  2  0  0  0
 45126  1  0  0  0
 46127  1  0  0  0
 47128  1  0  0  0
 47129  1  0  0  0
 48 56  1  0  0  0
 48 65  1  0  0  0
 48130  1  0  0  0
 49 50  1  0  0  0
 49 53  1  0  0  0
 49 64  1  0  0  0
 49131  1  0  0  0
 50 51  1  0  0  0
 50132  1  0  0  0
 50133  1  0  0  0
 51 52  1  0  0  0
 51134  1  0  0  0
 51135  1  0  0  0
 52136  1  0  0  0
 52137  1  0  0  0
 53 54  1  0  0  0
 54 55  2  0  0  0
 54138  1  0  0  0
 55 57  1  0  0  0
 55139  1  0  0  0
 56 69  2  0  0  0
 57 58  2  0  0  0
 57140  1  0  0  0
 58141  1  0  0  0
 59 60  1  0  0  0
 59 61  1  0  0  0
 59 62  1  0  0  0
 60142  1  0  0  0
 60143  1  0  0  0
 60144  1  0  0  0
 61145  1  0  0  0
 61146  1  0  0  0
 61147  1  0  0  0
 62148  1  0  0  0
 62149  1  0  0  0
 62150  1  0  0  0
 63 65  1  0  0  0
 63151  1  0  0  0
 63152  1  0  0  0
 63153  1  0  0  0
 64154  1  0  0  0
 65155  1  0  0  0
 68 89  1  0  0  0
 71 72  2  0  0  0
 71 73  1  0  0  0
 71 84  1  0  0  0
 72 75  1  0  0  0
 72 85  1  0  0  0
 73 74  2  0  0  0
 73 87  1  0  0  0
 74 76  1  0  0  0
 74 88  1  0  0  0
 75 76  2  0  0  0
 75 89  1  0  0  0
 76 94  1  0  0  0
 77 90  1  0  0  0
 77 94  1  0  0  0
 77 96  2  0  0  0
 78 79  1  0  0  0
 78 80  1  0  0  0
 78156  1  0  0  0
 78157  1  0  0  0
 79 81  1  0  0  0
 79158  1  0  0  0
 79159  1  0  0  0
 80 82  1  0  0  0
 80160  1  0  0  0
 80161  1  0  0  0
 81 83  1  0  0  0
 81162  1  0  0  0
 81163  1  0  0  0
 82 83  1  0  0  0
 82164  1  0  0  0
 82165  1  0  0  0
 83 91  1  0  0  0
 83166  1  0  0  0
 84167  1  0  0  0
 84168  1  0  0  0
 84169  1  0  0  0
 85170  1  0  0  0
 85171  1  0  0  0
 85172  1  0  0  0
 86 88  1  0  0  0
 86173  1  0  0  0
 86174  1  0  0  0
 86175  1  0  0  0
 87 92  1  0  0  0
 87176  1  0  0  0
 87177  1  0  0  0
 88178  1  0  0  0
 88179  1  0  0  0
 89180  1  0  0  0
 89181  1  0  0  0
 90 91  1  0  0  0
 90182  1  0  0  0
 90183  1  0  0  0
 91184  1  0  0  0
 91185  1  0  0  0
 92 93  1  0  0  0
 92186  1  0  0  0
 92187  1  0  0  0
 93 95  1  0  0  0
 93188  1  0  0  0
 93189  1  0  0  0
 94190  1  0  0  0
 95191  1  0  0  0
M  ISO  4   1 100  68 101  89 101  95 100
M  END
> <chiral flag>
0

> <version>
0

> <s_m_source_file>
/data/baiqing/PycharmProjects/Reinvent-master-3.2/result/LINK_invent/BTK/process_docking_weight1_custom_sum_contain_oxygen_bond_distance_aromatic_linkinvent_7_9_3/rearranged_h_0018.sdf

> <i_m_source_file_index>
63

> <r_mmod_Potential_Energy-OPLS-2005>
136.873016357422

> <r_mmod_Stretch_Energy-OPLS-2005>
91.4758377075195

> <r_mmod_Bend_Energy-OPLS-2005>
183.388946533203

> <r_mmod_Torsional_Energy-OPLS-2005>
276.899200439453

> <r_mmod_Improper_Torsional_Energy-OPLS-2005>
5.2161979675293

> <r_mmod_Van_der_Waal_Energy-OPLS-2005>
193.660339355469

> <r_mmod_Electrostatic_Energy-OPLS-2005>
-432.266174316406

> <r_mmod_Solvation_Energy-OPLS-2005>
-222.265625

> <b_mmod_Minimization_Converged-OPLS-2005>
0

> <r_mmod_RMS_Derivative-OPLS-2005>
5.9934139251709

$$$$
64
                    3D
 Structure written by MMmdl.
164172  0  0  1  0            999 V2000
  -30.8255  -14.2895   20.7419 C   0  0  0  0  0  0
  -30.4023  -12.2807   19.3797 C   0  0  0  0  0  0
  -29.4673  -12.5316   18.1855 C   0  0  0  0  0  0
  -27.9981  -12.3764   18.6129 C   0  0  0  0  0  0
  -27.6630  -13.2045   19.8779 C   0  0  2  0  0  0
  -28.7018  -12.9634   20.9965 C   0  0  0  0  0  0
  -25.2586  -13.8175   20.5675 C   0  0  0  0  0  0
  -24.1833  -13.0457   20.9168 C   0  0  0  0  0  0
  -24.6372  -11.6920   20.8737 C   0  0  0  0  0  0
  -23.9039  -10.4306   21.0404 C   0  0  0  0  0  0
  -24.3587   -9.4235   21.9194 C   0  0  0  0  0  0
  -23.6267   -8.2268   22.0778 C   0  0  0  0  0  0
  -22.4265   -8.0283   21.3548 C   0  0  0  0  0  0
  -21.9892   -9.0254   20.4650 C   0  0  0  0  0  0
  -22.7215  -10.2139   20.3056 C   0  0  0  0  0  0
  -21.6851   -6.0732   22.5287 C   0  0  0  0  0  0
  -21.4007   -6.5639   23.8220 C   0  0  0  0  0  0
  -21.3650   -5.6784   24.9180 C   0  0  0  0  0  0
  -21.6044   -4.3049   24.7226 C   0  0  0  0  0  0
  -21.8816   -3.8143   23.4345 C   0  0  0  0  0  0
  -21.9187   -4.6960   22.3401 C   0  0  0  0  0  0
  -22.7856  -13.5277   21.1812 C   0  0  0  0  0  0
  -22.1655   -4.2150   21.0983 F   0  0  0  0  0  0
  -21.5621   -3.4539   25.7740 F   0  0  0  0  0  0
  -30.0537  -13.2121   20.4603 N   0  0  0  0  0  0
  -26.3022  -12.9339   20.3395 N   0  0  0  0  0  0
  -25.9297  -11.6495   20.5776 N   0  0  0  0  0  0
  -22.0471  -12.8288   22.0368 N   0  0  0  0  0  0
  -25.4328  -15.1888   20.4081 N   0  0  0  0  0  0
  -31.7551  -14.6727   20.0235 O   0  0  0  0  0  0
  -21.6637   -6.8873   21.4250 O   0  0  0  0  0  0
  -22.3555  -14.5579   20.6650 O   0  0  0  0  0  0
  -24.6081  -31.8706   23.2130 C   0  0  0  0  0  0
  -25.8983  -32.4846   23.8417 C   0  0  1  0  0  0
  -27.2414  -27.4779   20.0926 C   0  0  0  0  0  0
  -25.5861  -33.8642   24.2348 N   0  0  0  0  0  0
  -23.3952  -30.4919   21.5522 C   0  0  2  0  0  0
  -24.8455  -28.9578   20.1188 C   0  0  0  0  0  0
  -22.7384  -29.4659   22.5008 C   0  0  0  0  0  0
  -18.0270  -28.1381   22.8508 C   0  0  0  0  0  0
  -24.1474  -36.7294   23.2647 C   0  0  0  0  0  0
  -25.9171  -30.8492   21.3585 C   0  0  0  0  0  0
  -25.9993  -29.4830   20.7145 C   0  0  0  0  0  0
  -27.2017  -28.7480   20.7037 C   0  0  0  0  0  0
  -26.0795  -26.9545   19.4924 C   0  0  0  0  0  0
  -24.8777  -27.6902   19.5077 C   0  0  0  0  0  0
  -23.6032  -29.8183   20.1677 C   0  0  0  0  0  0
  -25.4092  -36.3112   24.0358 C   0  0  1  0  0  0
  -20.5855  -28.3650   23.1337 C   0  0  2  0  0  0
  -20.6738  -26.9388   22.5429 C   0  0  0  0  0  0
  -19.5709  -26.6387   21.5216 C   0  0  0  0  0  0
  -18.1897  -26.7934   22.1636 C   0  0  0  0  0  0
  -19.1522  -28.8834   23.2924 C   0  0  0  0  0  0
  -18.9449  -30.1451   23.8918 C   0  0  0  0  0  0
  -17.6450  -30.6585   24.0581 C   0  0  0  0  0  0
  -25.9023  -34.9487   23.5156 C   0  0  0  0  0  0
  -16.5343  -29.9086   23.6336 C   0  0  0  0  0  0
  -16.7259  -28.6504   23.0353 C   0  0  0  0  0  0
  -26.4442  -31.6610   25.0721 C   0  0  0  0  0  0
  -25.3721  -31.3606   26.1455 C   0  0  0  0  0  0
  -27.0330  -30.3097   24.6027 C   0  0  0  0  0  0
  -27.5984  -32.4350   25.7520 C   0  0  0  0  0  0
  -27.5578  -37.1798   24.8475 C   0  0  0  0  0  0
  -21.4116  -29.3022   22.3742 N   0  0  0  0  0  0
  -26.4268  -37.3809   23.9450 N   0  0  0  0  0  0
  -24.6585  -31.0831   22.1018 N   0  0  0  0  0  0
  -23.4177  -28.8205   23.3039 O   0  0  0  0  0  0
  -28.4087  -26.7635   20.0542 O   0  0  0  0  0  0
  -26.5587  -34.8946   22.4723 O   0  0  0  0  0  0
  -23.5285  -32.1437   23.7544 O   0  0  0  0  0  0
  -27.9326  -23.7771   22.2200 C   0  0  0  0  0  0
  -28.4788  -24.6376   21.2285 C   0  0  0  0  0  0
  -27.9320  -22.5230   21.6778 C   0  0  0  0  0  0
  -28.7411  -21.6357   19.4230 C   0  0  0  0  0  0
  -28.7357  -26.1204   21.2880 C   0  0  0  0  0  0
  -29.3922  -19.0212   22.9935 C   0  0  0  0  0  0
  -29.7295  -17.5291   23.1219 C   0  0  0  0  0  0
  -28.0582  -19.4058   23.6537 C   0  0  0  0  0  0
  -31.0693  -17.1997   22.4491 C   0  0  0  0  0  0
  -27.7402  -20.9039   23.5202 C   0  0  0  0  0  0
  -31.5194  -15.7436   22.6391 C   0  0  0  0  0  0
  -28.8104  -23.9475   20.1388 N   0  0  0  0  0  0
  -28.4753  -22.6627   20.4121 N   0  0  0  0  0  0
  -27.5264  -21.2683   22.1283 N   0  0  0  0  0  0
  -30.6339  -14.7960   21.9651 N   0  0  0  0  0  0
  -27.3674  -24.2419   23.7867 Cl  0  0  0  0  0  0
  -31.4448  -12.3744   19.0694 H   0  0  0  0  0  0
  -30.2917  -11.2561   19.7379 H   0  0  0  0  0  0
  -29.6957  -11.8379   17.3746 H   0  0  0  0  0  0
  -29.6325  -13.5351   17.7895 H   0  0  0  0  0  0
  -27.8127  -11.3184   18.7999 H   0  0  0  0  0  0
  -27.3357  -12.6597   17.7940 H   0  0  0  0  0  0
  -27.7189  -14.2562   19.5955 H   0  0  0  0  0  0
  -28.6467  -11.9359   21.3601 H   0  0  0  0  0  0
  -28.4522  -13.5937   21.8509 H   0  0  0  0  0  0
  -25.2718   -9.5737   22.4784 H   0  0  0  0  0  0
  -23.9975   -7.4684   22.7521 H   0  0  0  0  0  0
  -21.0825   -8.8752   19.8957 H   0  0  0  0  0  0
  -22.3654  -10.9664   19.6165 H   0  0  0  0  0  0
  -21.2003   -7.6155   23.9723 H   0  0  0  0  0  0
  -21.1461   -6.0519   25.9083 H   0  0  0  0  0  0
  -22.0593   -2.7611   23.2849 H   0  0  0  0  0  0
  -22.4040  -11.9931   22.4753 H   0  0  0  0  0  0
  -21.1110  -13.1380   22.2565 H   0  0  0  0  0  0
  -24.6737  -15.8511   20.5282 H   0  0  0  0  0  0
  -26.2968  -15.6271   20.1131 H   0  0  0  0  0  0
  -26.7057  -32.5582   23.1202 H   0  0  0  0  0  0
  -25.0007  -33.9808   25.0487 H   0  0  0  0  0  0
  -22.6812  -31.3055   21.4114 H   0  0  0  0  0  0
  -23.3778  -35.9582   23.3262 H   0  0  0  0  0  0
  -24.3573  -36.8970   22.2075 H   0  0  0  0  0  0
  -23.7184  -37.6461   23.6704 H   0  0  0  0  0  0
  -26.0108  -31.6109   20.5831 H   0  0  0  0  0  0
  -26.8131  -30.9167   21.9643 H   0  0  0  0  0  0
  -28.0981  -29.1564   21.1506 H   0  0  0  0  0  0
  -26.1072  -25.9838   19.0165 H   0  0  0  0  0  0
  -23.9893  -27.2835   19.0449 H   0  0  0  0  0  0
  -23.7049  -30.5907   19.4042 H   0  0  0  0  0  0
  -22.7298  -29.2311   19.8784 H   0  0  0  0  0  0
  -25.1265  -36.1967   25.0848 H   0  0  0  0  0  0
  -20.9949  -28.3211   24.1458 H   0  0  0  0  0  0
  -20.5641  -26.2251   23.3602 H   0  0  0  0  0  0
  -21.6602  -26.7418   22.1223 H   0  0  0  0  0  0
  -19.6853  -25.6311   21.1222 H   0  0  0  0  0  0
  -19.6644  -27.3208   20.6757 H   0  0  0  0  0  0
  -17.4164  -26.6730   21.4033 H   0  0  0  0  0  0
  -18.0265  -26.0064   22.9015 H   0  0  0  0  0  0
  -19.7920  -30.7268   24.2286 H   0  0  0  0  0  0
  -17.5006  -31.6267   24.5185 H   0  0  0  0  0  0
  -15.5347  -30.2992   23.7658 H   0  0  0  0  0  0
  -15.8661  -28.0840   22.7035 H   0  0  0  0  0  0
  -24.5962  -30.6891   25.7757 H   0  0  0  0  0  0
  -24.8803  -32.2700   26.4918 H   0  0  0  0  0  0
  -25.8110  -30.8776   27.0197 H   0  0  0  0  0  0
  -26.2876  -29.6815   24.1133 H   0  0  0  0  0  0
  -27.4243  -29.7357   25.4438 H   0  0  0  0  0  0
  -27.8627  -30.4503   23.9093 H   0  0  0  0  0  0
  -27.2577  -33.3661   26.2070 H   0  0  0  0  0  0
  -28.3824  -32.6903   25.0379 H   0  0  0  0  0  0
  -28.0616  -31.8485   26.5471 H   0  0  0  0  0  0
  -28.2536  -38.0156   24.7630 H   0  0  0  0  0  0
  -28.1154  -36.2700   24.6193 H   0  0  0  0  0  0
  -27.2307  -37.1303   25.8874 H   0  0  0  0  0  0
  -20.9261  -29.8765   21.6994 H   0  0  0  0  0  0
  -26.0152  -38.2874   24.1525 H   0  0  0  0  0  0
  -29.5164  -20.9658   19.7968 H   0  0  0  0  0  0
  -29.0778  -22.0762   18.4837 H   0  0  0  0  0  0
  -27.8341  -21.0602   19.2365 H   0  0  0  0  0  0
  -29.7929  -26.2974   21.4878 H   0  0  0  0  0  0
  -28.2051  -26.5631   22.1331 H   0  0  0  0  0  0
  -29.3754  -19.2879   21.9361 H   0  0  0  0  0  0
  -30.1921  -19.6129   23.4416 H   0  0  0  0  0  0
  -28.9327  -16.9273   22.6827 H   0  0  0  0  0  0
  -29.7752  -17.2556   24.1765 H   0  0  0  0  0  0
  -28.0980  -19.1506   24.7139 H   0  0  0  0  0  0
  -27.2469  -18.8106   23.2315 H   0  0  0  0  0  0
  -31.8406  -17.8533   22.8605 H   0  0  0  0  0  0
  -31.0174  -17.4319   21.3840 H   0  0  0  0  0  0
  -28.5532  -21.4927   23.9507 H   0  0  0  0  0  0
  -26.8428  -21.1468   24.0910 H   0  0  0  0  0  0
  -31.5502  -15.4956   23.7013 H   0  0  0  0  0  0
  -32.5440  -15.6277   22.2795 H   0  0  0  0  0  0
  -27.6633  -20.5169   21.4638 H   0  0  0  0  0  0
  -29.8933  -14.3813   22.5117 H   0  0  0  0  0  0
  1 25  1  0  0  0
  1 30  2  0  0  0
  1 85  1  0  0  0
  2  3  1  0  0  0
  2 25  1  0  0  0
  2 87  1  0  0  0
  2 88  1  0  0  0
  3  4  1  0  0  0
  3 89  1  0  0  0
  3 90  1  0  0  0
  4  5  1  0  0  0
  4 91  1  0  0  0
  4 92  1  0  0  0
  5  6  1  0  0  0
  5 26  1  0  0  0
  5 93  1  0  0  0
  6 25  1  0  0  0
  6 94  1  0  0  0
  6 95  1  0  0  0
  7  8  2  0  0  0
  7 26  1  0  0  0
  7 29  1  0  0  0
  8  9  1  0  0  0
  8 22  1  0  0  0
  9 10  1  0  0  0
  9 27  2  0  0  0
 10 11  2  0  0  0
 10 15  1  0  0  0
 11 12  1  0  0  0
 11 96  1  0  0  0
 12 13  2  0  0  0
 12 97  1  0  0  0
 13 14  1  0  0  0
 13 31  1  0  0  0
 14 15  2  0  0  0
 14 98  1  0  0  0
 15 99  1  0  0  0
 16 17  2  0  0  0
 16 21  1  0  0  0
 16 31  1  0  0  0
 17 18  1  0  0  0
 17100  1  0  0  0
 18 19  2  0  0  0
 18101  1  0  0  0
 19 20  1  0  0  0
 19 24  1  0  0  0
 20 21  2  0  0  0
 20102  1  0  0  0
 21 23  1  0  0  0
 22 28  1  0  0  0
 22 32  2  0  0  0
 26 27  1  0  0  0
 28103  1  0  0  0
 28104  1  0  0  0
 29105  1  0  0  0
 29106  1  0  0  0
 33 34  1  0  0  0
 33 66  1  0  0  0
 33 70  2  0  0  0
 34 36  1  0  0  0
 34 59  1  0  0  0
 34107  1  0  0  0
 35 44  2  0  0  0
 35 45  1  0  0  0
 35 68  1  0  0  0
 36 56  1  0  0  0
 36108  1  0  0  0
 37 39  1  0  0  0
 37 47  1  0  0  0
 37 66  1  0  0  0
 37109  1  0  0  0
 38 43  2  0  0  0
 38 46  1  0  0  0
 38 47  1  0  0  0
 39 64  1  0  0  0
 39 67  2  0  0  0
 40 52  1  0  0  0
 40 53  2  0  0  0
 40 58  1  0  0  0
 41110  1  0  0  0
 41111  1  0  0  0
 41112  1  0  0  0
 41 48  1  0  0  0
 42 43  1  0  0  0
 42 66  1  0  0  0
 42113  1  0  0  0
 42114  1  0  0  0
 43 44  1  0  0  0
 44115  1  0  0  0
 45 46  2  0  0  0
 45116  1  0  0  0
 46117  1  0  0  0
 47118  1  0  0  0
 47119  1  0  0  0
 48 56  1  0  0  0
 48 65  1  0  0  0
 48120  1  0  0  0
 49 50  1  0  0  0
 49 53  1  0  0  0
 49 64  1  0  0  0
 49121  1  0  0  0
 50 51  1  0  0  0
 50122  1  0  0  0
 50123  1  0  0  0
 51 52  1  0  0  0
 51124  1  0  0  0
 51125  1  0  0  0
 52126  1  0  0  0
 52127  1  0  0  0
 53 54  1  0  0  0
 54 55  2  0  0  0
 54128  1  0  0  0
 55 57  1  0  0  0
 55129  1  0  0  0
 56 69  2  0  0  0
 57 58  2  0  0  0
 57130  1  0  0  0
 58131  1  0  0  0
 59 60  1  0  0  0
 59 61  1  0  0  0
 59 62  1  0  0  0
 60132  1  0  0  0
 60133  1  0  0  0
 60134  1  0  0  0
 61135  1  0  0  0
 61136  1  0  0  0
 61137  1  0  0  0
 62138  1  0  0  0
 62139  1  0  0  0
 62140  1  0  0  0
 63 65  1  0  0  0
 63141  1  0  0  0
 63142  1  0  0  0
 63143  1  0  0  0
 64144  1  0  0  0
 65145  1  0  0  0
 68 75  1  0  0  0
 71 72  1  0  0  0
 71 73  2  0  0  0
 71 86  1  0  0  0
 72 75  1  0  0  0
 72 82  2  0  0  0
 73 83  1  0  0  0
 73 84  1  0  0  0
 74 83  1  0  0  0
 74146  1  0  0  0
 74147  1  0  0  0
 74148  1  0  0  0
 75149  1  0  0  0
 75150  1  0  0  0
 76 77  1  0  0  0
 76 78  1  0  0  0
 76151  1  0  0  0
 76152  1  0  0  0
 77 79  1  0  0  0
 77153  1  0  0  0
 77154  1  0  0  0
 78 80  1  0  0  0
 78155  1  0  0  0
 78156  1  0  0  0
 79 81  1  0  0  0
 79157  1  0  0  0
 79158  1  0  0  0
 80 84  1  0  0  0
 80159  1  0  0  0
 80160  1  0  0  0
 81 85  1  0  0  0
 81161  1  0  0  0
 81162  1  0  0  0
 82 83  1  0  0  0
 84163  1  0  0  0
 85164  1  0  0  0
M  ISO  4   1 100  68 101  75 101  85 100
M  END
> <chiral flag>
0

> <version>
0

> <s_m_source_file>
/data/baiqing/PycharmProjects/Reinvent-master-3.2/result/LINK_invent/BTK/process_docking_weight1_custom_sum_contain_oxygen_bond_distance_aromatic_linkinvent_7_9_3/rearranged_h_0018.sdf

> <i_m_source_file_index>
64

> <r_mmod_Potential_Energy-OPLS-2005>
-74.9797210693359

> <r_mmod_Stretch_Energy-OPLS-2005>
29.2589588165283

> <r_mmod_Bend_Energy-OPLS-2005>
94.2772445678711

> <r_mmod_Torsional_Energy-OPLS-2005>
242.711624145508

> <r_mmod_Improper_Torsional_Energy-OPLS-2005>
7.14237642288208

> <r_mmod_Van_der_Waal_Energy-OPLS-2005>
120.593399047852

> <r_mmod_Electrostatic_Energy-OPLS-2005>
-354.525451660156

> <r_mmod_Solvation_Energy-OPLS-2005>
-221.928268432617

> <b_mmod_Minimization_Converged-OPLS-2005>
0

> <r_mmod_RMS_Derivative-OPLS-2005>
1.95061266422272

$$$$
65
                    3D
 Structure written by MMmdl.
147155  0  0  1  0            999 V2000
  -30.4077  -15.3358   20.3689 C   0  0  0  0  0  0
  -30.4395  -12.8664   19.5107 C   0  0  0  0  0  0
  -29.5353  -12.5864   18.2833 C   0  0  0  0  0  0
  -28.0892  -12.2939   18.7207 C   0  0  0  0  0  0
  -27.6065  -13.2781   19.8140 C   0  0  2  0  0  0
  -28.6418  -13.4850   20.9388 C   0  0  0  0  0  0
  -25.2378  -13.8244   20.5753 C   0  0  0  0  0  0
  -24.1737  -13.0430   20.9269 C   0  0  0  0  0  0
  -24.6399  -11.6929   20.8765 C   0  0  0  0  0  0
  -23.9095  -10.4289   21.0407 C   0  0  0  0  0  0
  -24.3638   -9.4202   21.9185 C   0  0  0  0  0  0
  -23.6304   -8.2241   22.0755 C   0  0  0  0  0  0
  -22.4286   -8.0282   21.3544 C   0  0  0  0  0  0
  -21.9928   -9.0258   20.4645 C   0  0  0  0  0  0
  -22.7265  -10.2132   20.3055 C   0  0  0  0  0  0
  -21.6855   -6.0738   22.5279 C   0  0  0  0  0  0
  -21.4016   -6.5641   23.8212 C   0  0  0  0  0  0
  -21.3660   -5.6793   24.9174 C   0  0  0  0  0  0
  -21.6044   -4.3056   24.7224 C   0  0  0  0  0  0
  -21.8819   -3.8148   23.4345 C   0  0  0  0  0  0
  -21.9193   -4.6965   22.3402 C   0  0  0  0  0  0
  -22.7754  -13.5181   21.1912 C   0  0  0  0  0  0
  -22.1662   -4.2151   21.0979 F   0  0  0  0  0  0
  -21.5628   -3.4539   25.7737 F   0  0  0  0  0  0
  -29.8544  -14.0192   20.2938 N   0  0  0  0  0  0
  -26.2802  -12.9523   20.3201 N   0  0  0  0  0  0
  -25.9335  -11.6626   20.5710 N   0  0  0  0  0  0
  -22.0413  -12.8162   22.0465 N   0  0  0  0  0  0
  -25.3993  -15.1981   20.4186 N   0  0  0  0  0  0
  -31.6418  -15.3240   20.2434 O   0  0  0  0  0  0
  -21.6644   -6.8883   21.4242 O   0  0  0  0  0  0
  -22.3433  -14.5481   20.6750 O   0  0  0  0  0  0
  -24.6674  -31.8194   23.1666 C   0  0  0  0  0  0
  -25.9334  -32.4567   23.8148 C   0  0  1  0  0  0
  -27.2191  -26.8821   20.2002 C   0  0  0  0  0  0
  -25.5983  -33.8383   24.2051 N   0  0  0  0  0  0
  -23.4842  -30.4288   21.5177 C   0  0  2  0  0  0
  -24.9374  -28.8024   20.1219 C   0  0  0  0  0  0
  -22.7687  -29.4422   22.4779 C   0  0  0  0  0  0
  -18.0326  -28.1411   22.8465 C   0  0  0  0  0  0
  -24.1494  -36.7197   23.2648 C   0  0  0  0  0  0
  -26.0562  -30.6122   21.4025 C   0  0  0  0  0  0
  -26.1248  -29.1948   20.7532 C   0  0  0  0  0  0
  -27.2627  -28.2599   20.7593 C   0  0  0  0  0  0
  -25.9991  -26.6497   19.5265 C   0  0  0  0  0  0
  -24.9019  -27.5505   19.4873 C   0  0  0  0  0  0
  -23.7274  -29.7381   20.1478 C   0  0  0  0  0  0
  -25.4137  -36.2955   24.0296 C   0  0  1  0  0  0
  -20.5952  -28.3760   23.1181 C   0  0  2  0  0  0
  -20.6801  -26.9438   22.5402 C   0  0  0  0  0  0
  -19.5775  -26.6377   21.5215 C   0  0  0  0  0  0
  -18.1957  -26.7943   22.1623 C   0  0  0  0  0  0
  -19.1588  -28.8907   23.2808 C   0  0  0  0  0  0
  -18.9497  -30.1495   23.8845 C   0  0  0  0  0  0
  -17.6489  -30.6600   24.0554 C   0  0  0  0  0  0
  -25.9105  -34.9339   23.4998 C   0  0  0  0  0  0
  -16.5380  -29.9085   23.6345 C   0  0  0  0  0  0
  -16.7307  -28.6506   23.0363 C   0  0  0  0  0  0
  -26.4568  -31.6528   25.0695 C   0  0  0  0  0  0
  -25.3681  -31.3790   26.1341 C   0  0  0  0  0  0
  -27.0475  -30.2891   24.6458 C   0  0  0  0  0  0
  -27.6049  -32.4349   25.7504 C   0  0  0  0  0  0
  -27.5569  -37.1755   24.8465 C   0  0  0  0  0  0
  -21.4352  -29.3043   22.3526 N   0  0  0  0  0  0
  -26.4277  -37.3696   23.9410 N   0  0  0  0  0  0
  -24.7579  -30.9815   22.0825 N   0  0  0  0  0  0
  -23.4212  -28.7999   23.3043 O   0  0  0  0  0  0
  -28.2253  -25.7643   20.1877 O   0  0  0  0  0  0
  -26.5722  -34.8883   22.4598 O   0  0  0  0  0  0
  -23.5733  -32.1183   23.6732 O   0  0  0  0  0  0
  -28.9598  -21.1902   17.9852 C   0  0  0  0  0  0
  -28.6060  -22.5906   20.0140 C   0  0  0  0  0  0
  -29.2574  -19.8315   20.0579 C   0  0  0  0  0  0
  -28.6648  -22.4316   18.6132 C   0  0  0  0  0  0
  -29.2355  -19.9605   18.6475 C   0  0  0  0  0  0
  -28.9199  -21.2192   20.6903 C   0  0  0  0  0  0
  -29.7996  -18.2730   20.7181 C   0  0  0  0  0  0
  -28.0083  -24.1566   20.5925 C   0  0  0  0  0  0
  -29.6270  -16.6157   20.3924 N   0  0  0  0  0  0
  -28.3935  -23.4989   17.8232 F   0  0  0  0  0  0
  -29.5934  -18.5882   17.6592 Cl  0  0  0  0  0  0
  -28.8838  -21.2367   22.4162 Cl  0  0  0  0  0  0
  -31.4486  -13.0967   19.1661 H   0  0  0  0  0  0
  -30.5380  -11.9768   20.1350 H   0  0  0  0  0  0
  -29.9290  -11.7526   17.7005 H   0  0  0  0  0  0
  -29.5458  -13.4548   17.6228 H   0  0  0  0  0  0
  -28.0625  -11.2756   19.1104 H   0  0  0  0  0  0
  -27.4172  -12.3112   17.8618 H   0  0  0  0  0  0
  -27.5084  -14.2349   19.2997 H   0  0  0  0  0  0
  -28.8353  -12.5601   21.4842 H   0  0  0  0  0  0
  -28.2696  -14.2058   21.6687 H   0  0  0  0  0  0
  -25.2779   -9.5677   22.4767 H   0  0  0  0  0  0
  -24.0008   -7.4633   22.7477 H   0  0  0  0  0  0
  -21.0858   -8.8782   19.8951 H   0  0  0  0  0  0
  -22.3724  -10.9674   19.6167 H   0  0  0  0  0  0
  -21.2010   -7.6149   23.9716 H   0  0  0  0  0  0
  -21.1482   -6.0523   25.9077 H   0  0  0  0  0  0
  -22.0597   -2.7610   23.2845 H   0  0  0  0  0  0
  -22.4046  -11.9833   22.4857 H   0  0  0  0  0  0
  -21.1023  -13.1167   22.2666 H   0  0  0  0  0  0
  -24.6257  -15.8444   20.5310 H   0  0  0  0  0  0
  -26.2339  -15.6410   20.0590 H   0  0  0  0  0  0
  -26.7407  -32.5095   23.0864 H   0  0  0  0  0  0
  -25.0071  -33.9453   25.0162 H   0  0  0  0  0  0
  -22.8000  -31.2614   21.3416 H   0  0  0  0  0  0
  -23.3771  -35.9511   23.3271 H   0  0  0  0  0  0
  -24.3570  -36.8887   22.2070 H   0  0  0  0  0  0
  -23.7235  -37.6366   23.6734 H   0  0  0  0  0  0
  -26.2385  -31.3480   20.6181 H   0  0  0  0  0  0
  -26.9154  -30.6746   22.0584 H   0  0  0  0  0  0
  -28.1682  -28.5677   21.2629 H   0  0  0  0  0  0
  -25.8717  -25.6966   19.0328 H   0  0  0  0  0  0
  -24.0018  -27.2433   18.9726 H   0  0  0  0  0  0
  -23.8902  -30.5029   19.3875 H   0  0  0  0  0  0
  -22.8356  -29.1961   19.8282 H   0  0  0  0  0  0
  -25.1336  -36.1743   25.0786 H   0  0  0  0  0  0
  -21.0037  -28.3369   24.1306 H   0  0  0  0  0  0
  -20.5682  -26.2379   23.3646 H   0  0  0  0  0  0
  -21.6664  -26.7410   22.1209 H   0  0  0  0  0  0
  -19.6934  -25.6274   21.1279 H   0  0  0  0  0  0
  -19.6713  -27.3158   20.6722 H   0  0  0  0  0  0
  -17.4226  -26.6685   21.4027 H   0  0  0  0  0  0
  -18.0351  -26.0098   22.9032 H   0  0  0  0  0  0
  -19.7972  -30.7326   24.2191 H   0  0  0  0  0  0
  -17.5040  -31.6274   24.5166 H   0  0  0  0  0  0
  -15.5377  -30.2969   23.7699 H   0  0  0  0  0  0
  -15.8708  -28.0806   22.7109 H   0  0  0  0  0  0
  -24.5882  -30.7122   25.7646 H   0  0  0  0  0  0
  -24.8850  -32.2994   26.4629 H   0  0  0  0  0  0
  -25.7900  -30.9047   27.0210 H   0  0  0  0  0  0
  -26.3154  -29.6553   24.1442 H   0  0  0  0  0  0
  -27.3969  -29.7272   25.5130 H   0  0  0  0  0  0
  -27.9107  -30.4064   23.9905 H   0  0  0  0  0  0
  -27.2609  -33.3697   26.1942 H   0  0  0  0  0  0
  -28.3933  -32.6835   25.0388 H   0  0  0  0  0  0
  -28.0636  -31.8570   26.5537 H   0  0  0  0  0  0
  -28.2561  -38.0075   24.7519 H   0  0  0  0  0  0
  -28.1091  -36.2600   24.6284 H   0  0  0  0  0  0
  -27.2285  -37.1385   25.8867 H   0  0  0  0  0  0
  -20.9619  -29.8721   21.6636 H   0  0  0  0  0  0
  -26.0120  -38.2751   24.1423 H   0  0  0  0  0  0
  -28.9722  -21.1825   16.9054 H   0  0  0  0  0  0
  -29.5036  -18.3413   21.7648 H   0  0  0  0  0  0
  -30.8822  -18.3974   20.7526 H   0  0  0  0  0  0
  -28.2388  -24.1357   21.6574 H   0  0  0  0  0  0
  -26.9267  -24.0266   20.5629 H   0  0  0  0  0  0
  -28.6466  -16.3900   20.3207 H   0  0  0  0  0  0
  1 25  1  0  0  0
  1 30  2  0  0  0
  1 79  1  0  0  0
  2  3  1  0  0  0
  2 25  1  0  0  0
  2 83  1  0  0  0
  2 84  1  0  0  0
  3  4  1  0  0  0
  3 85  1  0  0  0
  3 86  1  0  0  0
  4  5  1  0  0  0
  4 87  1  0  0  0
  4 88  1  0  0  0
  5  6  1  0  0  0
  5 26  1  0  0  0
  5 89  1  0  0  0
  6 25  1  0  0  0
  6 90  1  0  0  0
  6 91  1  0  0  0
  7  8  2  0  0  0
  7 26  1  0  0  0
  7 29  1  0  0  0
  8  9  1  0  0  0
  8 22  1  0  0  0
  9 10  1  0  0  0
  9 27  2  0  0  0
 10 11  2  0  0  0
 10 15  1  0  0  0
 11 12  1  0  0  0
 11 92  1  0  0  0
 12 13  2  0  0  0
 12 93  1  0  0  0
 13 14  1  0  0  0
 13 31  1  0  0  0
 14 15  2  0  0  0
 14 94  1  0  0  0
 15 95  1  0  0  0
 16 17  2  0  0  0
 16 21  1  0  0  0
 16 31  1  0  0  0
 17 18  1  0  0  0
 17 96  1  0  0  0
 18 19  2  0  0  0
 18 97  1  0  0  0
 19 20  1  0  0  0
 19 24  1  0  0  0
 20 21  2  0  0  0
 20 98  1  0  0  0
 21 23  1  0  0  0
 22 28  1  0  0  0
 22 32  2  0  0  0
 26 27  1  0  0  0
 28 99  1  0  0  0
 28100  1  0  0  0
 29101  1  0  0  0
 29102  1  0  0  0
 33 34  1  0  0  0
 33 66  1  0  0  0
 33 70  2  0  0  0
 34 36  1  0  0  0
 34 59  1  0  0  0
 34103  1  0  0  0
 35 44  2  0  0  0
 35 45  1  0  0  0
 35 68  1  0  0  0
 36 56  1  0  0  0
 36104  1  0  0  0
 37 39  1  0  0  0
 37 47  1  0  0  0
 37 66  1  0  0  0
 37105  1  0  0  0
 38 43  2  0  0  0
 38 46  1  0  0  0
 38 47  1  0  0  0
 39 64  1  0  0  0
 39 67  2  0  0  0
 40 52  1  0  0  0
 40 53  2  0  0  0
 40 58  1  0  0  0
 41106  1  0  0  0
 41107  1  0  0  0
 41108  1  0  0  0
 41 48  1  0  0  0
 42 43  1  0  0  0
 42 66  1  0  0  0
 42109  1  0  0  0
 42110  1  0  0  0
 43 44  1  0  0  0
 44111  1  0  0  0
 45 46  2  0  0  0
 45112  1  0  0  0
 46113  1  0  0  0
 47114  1  0  0  0
 47115  1  0  0  0
 48 56  1  0  0  0
 48 65  1  0  0  0
 48116  1  0  0  0
 49 50  1  0  0  0
 49 53  1  0  0  0
 49 64  1  0  0  0
 49117  1  0  0  0
 50 51  1  0  0  0
 50118  1  0  0  0
 50119  1  0  0  0
 51 52  1  0  0  0
 51120  1  0  0  0
 51121  1  0  0  0
 52122  1  0  0  0
 52123  1  0  0  0
 53 54  1  0  0  0
 54 55  2  0  0  0
 54124  1  0  0  0
 55 57  1  0  0  0
 55125  1  0  0  0
 56 69  2  0  0  0
 57 58  2  0  0  0
 57126  1  0  0  0
 58127  1  0  0  0
 59 60  1  0  0  0
 59 61  1  0  0  0
 59 62  1  0  0  0
 60128  1  0  0  0
 60129  1  0  0  0
 60130  1  0  0  0
 61131  1  0  0  0
 61132  1  0  0  0
 61133  1  0  0  0
 62134  1  0  0  0
 62135  1  0  0  0
 62136  1  0  0  0
 63 65  1  0  0  0
 63137  1  0  0  0
 63138  1  0  0  0
 63139  1  0  0  0
 64140  1  0  0  0
 65141  1  0  0  0
 68 78  1  0  0  0
 71 74  2  0  0  0
 71 75  1  0  0  0
 71142  1  0  0  0
 72 74  1  0  0  0
 72 76  2  0  0  0
 72 78  1  0  0  0
 73 75  2  0  0  0
 73 76  1  0  0  0
 73 77  1  0  0  0
 74 80  1  0  0  0
 75 81  1  0  0  0
 76 82  1  0  0  0
 77 79  1  0  0  0
 77143  1  0  0  0
 77144  1  0  0  0
 78145  1  0  0  0
 78146  1  0  0  0
 79147  1  0  0  0
M  ISO  4   1 100  68 101  78 101  79 100
M  END
> <chiral flag>
0

> <version>
0

> <s_m_source_file>
/data/baiqing/PycharmProjects/Reinvent-master-3.2/result/LINK_invent/BTK/process_docking_weight1_custom_sum_contain_oxygen_bond_distance_aromatic_linkinvent_7_9_3/rearranged_h_0018.sdf

> <i_m_source_file_index>
65

> <r_mmod_Potential_Energy-OPLS-2005>
1407.88342285156

> <r_mmod_Stretch_Energy-OPLS-2005>
650.507995605469

> <r_mmod_Bend_Energy-OPLS-2005>
452.063110351562

> <r_mmod_Torsional_Energy-OPLS-2005>
237.25341796875

> <r_mmod_Improper_Torsional_Energy-OPLS-2005>
5.92338371276855

> <r_mmod_Van_der_Waal_Energy-OPLS-2005>
118.202377319336

> <r_mmod_Electrostatic_Energy-OPLS-2005>
-369.564697265625

> <r_mmod_Solvation_Energy-OPLS-2005>
-217.287933349609

> <b_mmod_Minimization_Converged-OPLS-2005>
0

> <r_mmod_RMS_Derivative-OPLS-2005>
0.0716422349214554

$$$$
66
                    3D
 Structure written by MMmdl.
151159  0  0  1  0            999 V2000
  -30.5308  -15.0277   20.3514 C   0  0  0  0  0  0
  -30.4493  -12.6297   19.5168 C   0  0  0  0  0  0
  -29.5341  -12.5364   18.2749 C   0  0  0  0  0  0
  -28.0645  -12.3259   18.6823 C   0  0  0  0  0  0
  -27.6330  -13.2644   19.8371 C   0  0  2  0  0  0
  -28.6807  -13.3327   20.9729 C   0  0  0  0  0  0
  -25.2476  -13.8261   20.5673 C   0  0  0  0  0  0
  -24.1799  -13.0453   20.9208 C   0  0  0  0  0  0
  -24.6461  -11.6945   20.8788 C   0  0  0  0  0  0
  -23.9162  -10.4309   21.0433 C   0  0  0  0  0  0
  -24.3696   -9.4211   21.9199 C   0  0  0  0  0  0
  -23.6344   -8.2263   22.0720 C   0  0  0  0  0  0
  -22.4323   -8.0328   21.3537 C   0  0  0  0  0  0
  -22.0006   -9.0306   20.4625 C   0  0  0  0  0  0
  -22.7358  -10.2172   20.3062 C   0  0  0  0  0  0
  -21.6856   -6.0801   22.5292 C   0  0  0  0  0  0
  -21.4027   -6.5685   23.8232 C   0  0  0  0  0  0
  -21.3644   -5.6797   24.9172 C   0  0  0  0  0  0
  -21.6053   -4.3064   24.7228 C   0  0  0  0  0  0
  -21.8817   -3.8187   23.4335 C   0  0  0  0  0  0
  -21.9185   -4.7030   22.3401 C   0  0  0  0  0  0
  -22.7824  -13.5190   21.1861 C   0  0  0  0  0  0
  -22.1618   -4.2221   21.0980 F   0  0  0  0  0  0
  -21.5636   -3.4522   25.7725 F   0  0  0  0  0  0
  -29.9497  -13.7537   20.3646 N   0  0  0  0  0  0
  -26.2922  -12.9518   20.3225 N   0  0  0  0  0  0
  -25.9416  -11.6652   20.5821 N   0  0  0  0  0  0
  -22.0456  -12.8209   22.0419 N   0  0  0  0  0  0
  -25.4154  -15.1993   20.4096 N   0  0  0  0  0  0
  -31.7427  -15.0504   20.0966 O   0  0  0  0  0  0
  -21.6634   -6.8964   21.4256 O   0  0  0  0  0  0
  -22.3506  -14.5482   20.6647 O   0  0  0  0  0  0
  -24.6362  -31.8424   23.1926 C   0  0  0  0  0  0
  -25.9124  -32.4746   23.8340 C   0  0  1  0  0  0
  -27.2136  -27.0846   20.1783 C   0  0  0  0  0  0
  -25.5874  -33.8551   24.2281 N   0  0  0  0  0  0
  -23.4523  -30.4529   21.5366 C   0  0  2  0  0  0
  -24.9134  -28.8801   20.1247 C   0  0  0  0  0  0
  -22.7553  -29.4444   22.4853 C   0  0  0  0  0  0
  -18.0253  -28.1322   22.8457 C   0  0  0  0  0  0
  -24.1481  -36.7174   23.2643 C   0  0  0  0  0  0
  -26.0143  -30.7045   21.4065 C   0  0  0  0  0  0
  -26.0916  -29.3090   20.7469 C   0  0  0  0  0  0
  -27.2474  -28.4277   20.7525 C   0  0  0  0  0  0
  -26.0050  -26.7718   19.5197 C   0  0  0  0  0  0
  -24.8848  -27.6283   19.4967 C   0  0  0  0  0  0
  -23.6863  -29.7769   20.1596 C   0  0  0  0  0  0
  -25.4146  -36.3084   24.0342 C   0  0  1  0  0  0
  -20.5881  -28.3640   23.1232 C   0  0  2  0  0  0
  -20.6721  -26.9343   22.5386 C   0  0  0  0  0  0
  -19.5746  -26.6315   21.5150 C   0  0  0  0  0  0
  -18.1910  -26.7868   22.1552 C   0  0  0  0  0  0
  -19.1516  -28.8802   23.2831 C   0  0  0  0  0  0
  -18.9437  -30.1382   23.8895 C   0  0  0  0  0  0
  -17.6449  -30.6555   24.0505 C   0  0  0  0  0  0
  -25.9069  -34.9430   23.5139 C   0  0  0  0  0  0
  -16.5332  -29.9037   23.6321 C   0  0  0  0  0  0
  -16.7234  -28.6402   23.0430 C   0  0  0  0  0  0
  -26.4503  -31.6621   25.0743 C   0  0  0  0  0  0
  -25.3686  -31.3696   26.1407 C   0  0  0  0  0  0
  -27.0385  -30.3045   24.6312 C   0  0  0  0  0  0
  -27.6121  -32.4333   25.7465 C   0  0  0  0  0  0
  -27.5626  -37.1737   24.8482 C   0  0  0  0  0  0
  -21.4241  -29.2981   22.3622 N   0  0  0  0  0  0
  -26.4328  -37.3788   23.9436 N   0  0  0  0  0  0
  -24.7212  -31.0199   22.1008 N   0  0  0  0  0  0
  -23.4174  -28.7933   23.2969 O   0  0  0  0  0  0
  -28.2398  -26.0576   20.2151 O   0  0  0  0  0  0
  -26.5644  -34.8891   22.4716 O   0  0  0  0  0  0
  -23.5440  -32.1301   23.7079 O   0  0  0  0  0  0
  -30.4756  -20.3677   19.0007 C   0  0  0  0  0  0
  -30.8779  -17.9451   18.9856 C   0  0  0  0  0  0
  -31.1260  -19.2346   18.4616 C   0  0  0  0  0  0
  -29.5073  -20.2522   20.0210 C   0  0  0  0  0  0
  -29.9638  -17.7196   20.0482 C   0  0  0  0  0  0
  -28.9167  -23.2468   20.0982 C   0  0  0  0  0  0
  -32.0824  -19.3992   17.2814 C   0  0  0  0  0  0
  -28.6698  -21.6244   20.5070 C   0  0  0  0  0  0
  -27.8875  -24.5276   20.4299 C   0  0  0  0  0  0
  -29.2926  -18.9112   20.5060 N   0  0  0  0  0  0
  -29.7626  -16.2401   20.4685 N   0  0  0  0  0  0
  -29.9535  -23.5383   19.4934 O   0  0  0  0  0  0
  -31.4781  -12.7915   19.1911 H   0  0  0  0  0  0
  -30.4639  -11.6923   20.0759 H   0  0  0  0  0  0
  -29.8630  -11.7345   17.6136 H   0  0  0  0  0  0
  -29.6227  -13.4634   17.7073 H   0  0  0  0  0  0
  -27.9534  -11.2871   18.9942 H   0  0  0  0  0  0
  -27.4121  -12.4610   17.8167 H   0  0  0  0  0  0
  -27.5831  -14.2608   19.3933 H   0  0  0  0  0  0
  -28.7905  -12.3691   21.4738 H   0  0  0  0  0  0
  -28.3836  -14.0604   21.7315 H   0  0  0  0  0  0
  -25.2833   -9.5674   22.4806 H   0  0  0  0  0  0
  -24.0030   -7.4670   22.7462 H   0  0  0  0  0  0
  -21.0928   -8.8911   19.8953 H   0  0  0  0  0  0
  -22.3845  -10.9753   19.6204 H   0  0  0  0  0  0
  -21.2001   -7.6180   23.9787 H   0  0  0  0  0  0
  -21.1448   -6.0497   25.9086 H   0  0  0  0  0  0
  -22.0607   -2.7667   23.2806 H   0  0  0  0  0  0
  -22.3973  -11.9832   22.4830 H   0  0  0  0  0  0
  -21.1078  -13.1306   22.2593 H   0  0  0  0  0  0
  -24.6633  -15.8664   20.5501 H   0  0  0  0  0  0
  -26.2742  -15.6360   20.1037 H   0  0  0  0  0  0
  -26.7129  -32.5369   23.1019 H   0  0  0  0  0  0
  -25.0083  -33.9761   25.0470 H   0  0  0  0  0  0
  -22.7541  -31.2742   21.3722 H   0  0  0  0  0  0
  -23.3869  -35.9374   23.3299 H   0  0  0  0  0  0
  -24.3547  -36.8789   22.2048 H   0  0  0  0  0  0
  -23.7044  -37.6278   23.6679 H   0  0  0  0  0  0
  -26.1695  -31.4633   20.6388 H   0  0  0  0  0  0
  -26.8785  -30.7658   22.0551 H   0  0  0  0  0  0
  -28.1453  -28.7462   21.2656 H   0  0  0  0  0  0
  -25.8877  -25.8142   19.0359 H   0  0  0  0  0  0
  -23.9814  -27.3005   19.0025 H   0  0  0  0  0  0
  -23.8028  -30.5389   19.3875 H   0  0  0  0  0  0
  -22.8134  -29.1900   19.8700 H   0  0  0  0  0  0
  -25.1328  -36.1979   25.0827 H   0  0  0  0  0  0
  -20.9947  -28.3158   24.1375 H   0  0  0  0  0  0
  -20.5471  -26.2246   23.3573 H   0  0  0  0  0  0
  -21.6603  -26.7254   22.1308 H   0  0  0  0  0  0
  -19.6935  -25.6213   21.1206 H   0  0  0  0  0  0
  -19.6760  -27.3078   20.6651 H   0  0  0  0  0  0
  -17.4188  -26.6579   21.3939 H   0  0  0  0  0  0
  -18.0356  -25.9997   22.8940 H   0  0  0  0  0  0
  -19.7915  -30.7131   24.2351 H   0  0  0  0  0  0
  -17.5009  -31.6286   24.5003 H   0  0  0  0  0  0
  -15.5334  -30.2950   23.7652 H   0  0  0  0  0  0
  -15.8600  -28.0646   22.7357 H   0  0  0  0  0  0
  -24.5974  -30.6983   25.7620 H   0  0  0  0  0  0
  -24.8703  -32.2781   26.4793 H   0  0  0  0  0  0
  -25.7918  -30.8853   27.0218 H   0  0  0  0  0  0
  -26.3004  -29.6763   24.1316 H   0  0  0  0  0  0
  -27.4016  -29.7366   25.4883 H   0  0  0  0  0  0
  -27.8914  -30.4317   23.9654 H   0  0  0  0  0  0
  -27.2912  -33.3730   26.1979 H   0  0  0  0  0  0
  -28.3949  -32.6721   25.0254 H   0  0  0  0  0  0
  -28.0805  -31.8465   26.5383 H   0  0  0  0  0  0
  -28.2633  -38.0061   24.7661 H   0  0  0  0  0  0
  -28.1163  -36.2596   24.6241 H   0  0  0  0  0  0
  -27.2325  -37.1270   25.8877 H   0  0  0  0  0  0
  -20.9444  -29.8722   21.6832 H   0  0  0  0  0  0
  -26.0235  -38.2845   24.1556 H   0  0  0  0  0  0
  -30.7086  -21.3442   18.6048 H   0  0  0  0  0  0
  -31.3990  -17.1143   18.5246 H   0  0  0  0  0  0
  -32.5038  -20.4030   17.2410 H   0  0  0  0  0  0
  -31.5624  -19.2379   16.3344 H   0  0  0  0  0  0
  -32.9167  -18.6954   17.3275 H   0  0  0  0  0  0
  -28.7205  -21.6077   21.5956 H   0  0  0  0  0  0
  -27.6200  -21.4214   20.2874 H   0  0  0  0  0  0
  -27.6212  -24.4326   21.4838 H   0  0  0  0  0  0
  -26.9680  -24.2898   19.8985 H   0  0  0  0  0  0
  -28.8362  -16.0715   20.8307 H   0  0  0  0  0  0
  1 25  1  0  0  0
  1 30  2  0  0  0
  1 81  1  0  0  0
  2  3  1  0  0  0
  2 25  1  0  0  0
  2 83  1  0  0  0
  2 84  1  0  0  0
  3  4  1  0  0  0
  3 85  1  0  0  0
  3 86  1  0  0  0
  4  5  1  0  0  0
  4 87  1  0  0  0
  4 88  1  0  0  0
  5  6  1  0  0  0
  5 26  1  0  0  0
  5 89  1  0  0  0
  6 25  1  0  0  0
  6 90  1  0  0  0
  6 91  1  0  0  0
  7  8  2  0  0  0
  7 26  1  0  0  0
  7 29  1  0  0  0
  8  9  1  0  0  0
  8 22  1  0  0  0
  9 10  1  0  0  0
  9 27  2  0  0  0
 10 11  2  0  0  0
 10 15  1  0  0  0
 11 12  1  0  0  0
 11 92  1  0  0  0
 12 13  2  0  0  0
 12 93  1  0  0  0
 13 14  1  0  0  0
 13 31  1  0  0  0
 14 15  2  0  0  0
 14 94  1  0  0  0
 15 95  1  0  0  0
 16 17  2  0  0  0
 16 21  1  0  0  0
 16 31  1  0  0  0
 17 18  1  0  0  0
 17 96  1  0  0  0
 18 19  2  0  0  0
 18 97  1  0  0  0
 19 20  1  0  0  0
 19 24  1  0  0  0
 20 21  2  0  0  0
 20 98  1  0  0  0
 21 23  1  0  0  0
 22 28  1  0  0  0
 22 32  2  0  0  0
 26 27  1  0  0  0
 28 99  1  0  0  0
 28100  1  0  0  0
 29101  1  0  0  0
 29102  1  0  0  0
 33 34  1  0  0  0
 33 66  1  0  0  0
 33 70  2  0  0  0
 34 36  1  0  0  0
 34 59  1  0  0  0
 34103  1  0  0  0
 35 44  2  0  0  0
 35 45  1  0  0  0
 35 68  1  0  0  0
 36 56  1  0  0  0
 36104  1  0  0  0
 37 39  1  0  0  0
 37 47  1  0  0  0
 37 66  1  0  0  0
 37105  1  0  0  0
 38 43  2  0  0  0
 38 46  1  0  0  0
 38 47  1  0  0  0
 39 64  1  0  0  0
 39 67  2  0  0  0
 40 52  1  0  0  0
 40 53  2  0  0  0
 40 58  1  0  0  0
 41106  1  0  0  0
 41107  1  0  0  0
 41108  1  0  0  0
 41 48  1  0  0  0
 42 43  1  0  0  0
 42 66  1  0  0  0
 42109  1  0  0  0
 42110  1  0  0  0
 43 44  1  0  0  0
 44111  1  0  0  0
 45 46  2  0  0  0
 45112  1  0  0  0
 46113  1  0  0  0
 47114  1  0  0  0
 47115  1  0  0  0
 48 56  1  0  0  0
 48 65  1  0  0  0
 48116  1  0  0  0
 49 50  1  0  0  0
 49 53  1  0  0  0
 49 64  1  0  0  0
 49117  1  0  0  0
 50 51  1  0  0  0
 50118  1  0  0  0
 50119  1  0  0  0
 51 52  1  0  0  0
 51120  1  0  0  0
 51121  1  0  0  0
 52122  1  0  0  0
 52123  1  0  0  0
 53 54  1  0  0  0
 54 55  2  0  0  0
 54124  1  0  0  0
 55 57  1  0  0  0
 55125  1  0  0  0
 56 69  2  0  0  0
 57 58  2  0  0  0
 57126  1  0  0  0
 58127  1  0  0  0
 59 60  1  0  0  0
 59 61  1  0  0  0
 59 62  1  0  0  0
 60128  1  0  0  0
 60129  1  0  0  0
 60130  1  0  0  0
 61131  1  0  0  0
 61132  1  0  0  0
 61133  1  0  0  0
 62134  1  0  0  0
 62135  1  0  0  0
 62136  1  0  0  0
 63 65  1  0  0  0
 63137  1  0  0  0
 63138  1  0  0  0
 63139  1  0  0  0
 64140  1  0  0  0
 65141  1  0  0  0
 68 79  1  0  0  0
 71 73  2  0  0  0
 71 74  1  0  0  0
 71142  1  0  0  0
 72 73  1  0  0  0
 72 75  2  0  0  0
 72143  1  0  0  0
 73 77  1  0  0  0
 74 78  1  0  0  0
 74 80  2  0  0  0
 75 80  1  0  0  0
 75 81  1  0  0  0
 76 78  1  0  0  0
 76 79  1  0  0  0
 76 82  2  0  0  0
 77144  1  0  0  0
 77145  1  0  0  0
 77146  1  0  0  0
 78147  1  0  0  0
 78148  1  0  0  0
 79149  1  0  0  0
 79150  1  0  0  0
 81151  1  0  0  0
M  ISO  4   1 100  68 101  79 101  81 100
M  END
> <chiral flag>
0

> <version>
0

> <s_m_source_file>
/data/baiqing/PycharmProjects/Reinvent-master-3.2/result/LINK_invent/BTK/process_docking_weight1_custom_sum_contain_oxygen_bond_distance_aromatic_linkinvent_7_9_3/rearranged_h_0018.sdf

> <i_m_source_file_index>
66

> <r_mmod_Potential_Energy-OPLS-2005>
497.667633056641

> <r_mmod_Stretch_Energy-OPLS-2005>
320.605560302734

> <r_mmod_Bend_Energy-OPLS-2005>
271.902221679688

> <r_mmod_Torsional_Energy-OPLS-2005>
228.697540283203

> <r_mmod_Improper_Torsional_Energy-OPLS-2005>
3.44334650039673

> <r_mmod_Van_der_Waal_Energy-OPLS-2005>
131.428802490234

> <r_mmod_Electrostatic_Energy-OPLS-2005>
-458.387756347656

> <r_mmod_Solvation_Energy-OPLS-2005>
-247.258056640625

> <b_mmod_Minimization_Converged-OPLS-2005>
0

> <r_mmod_RMS_Derivative-OPLS-2005>
6.2970085144043

$$$$
67
                    3D
 Structure written by MMmdl.
159167  0  0  1  0            999 V2000
  -30.4176  -15.3125   20.3456 C   0  0  0  0  0  0
  -30.4347  -12.8329   19.5484 C   0  0  0  0  0  0
  -29.5432  -12.5904   18.3032 C   0  0  0  0  0  0
  -28.0892  -12.3121   18.7197 C   0  0  0  0  0  0
  -27.6103  -13.2821   19.8281 C   0  0  2  0  0  0
  -28.6382  -13.4735   20.9656 C   0  0  0  0  0  0
  -25.2373  -13.8255   20.5761 C   0  0  0  0  0  0
  -24.1729  -13.0433   20.9255 C   0  0  0  0  0  0
  -24.6397  -11.6933   20.8753 C   0  0  0  0  0  0
  -23.9093  -10.4293   21.0394 C   0  0  0  0  0  0
  -24.3635   -9.4210   21.9177 C   0  0  0  0  0  0
  -23.6306   -8.2245   22.0753 C   0  0  0  0  0  0
  -22.4289   -8.0283   21.3539 C   0  0  0  0  0  0
  -21.9930   -9.0256   20.4641 C   0  0  0  0  0  0
  -22.7261  -10.2132   20.3046 C   0  0  0  0  0  0
  -21.6861   -6.0739   22.5276 C   0  0  0  0  0  0
  -21.4020   -6.5638   23.8211 C   0  0  0  0  0  0
  -21.3665   -5.6789   24.9171 C   0  0  0  0  0  0
  -21.6047   -4.3051   24.7220 C   0  0  0  0  0  0
  -21.8815   -3.8146   23.4339 C   0  0  0  0  0  0
  -21.9189   -4.6964   22.3399 C   0  0  0  0  0  0
  -22.7742  -13.5181   21.1899 C   0  0  0  0  0  0
  -22.1655   -4.2147   21.0976 F   0  0  0  0  0  0
  -21.5634   -3.4535   25.7734 F   0  0  0  0  0  0
  -29.8721  -13.9893   20.3488 N   0  0  0  0  0  0
  -26.2808  -12.9537   20.3238 N   0  0  0  0  0  0
  -25.9336  -11.6634   20.5715 N   0  0  0  0  0  0
  -22.0397  -12.8173   22.0459 N   0  0  0  0  0  0
  -25.4004  -15.1997   20.4229 N   0  0  0  0  0  0
  -31.6319  -15.3008   20.0883 O   0  0  0  0  0  0
  -21.6645   -6.8885   21.4241 O   0  0  0  0  0  0
  -22.3416  -14.5475   20.6731 O   0  0  0  0  0  0
  -24.6652  -31.8204   23.1674 C   0  0  0  0  0  0
  -25.9321  -32.4569   23.8154 C   0  0  1  0  0  0
  -27.2188  -26.8961   20.1904 C   0  0  0  0  0  0
  -25.5979  -33.8385   24.2054 N   0  0  0  0  0  0
  -23.4819  -30.4294   21.5172 C   0  0  2  0  0  0
  -24.9364  -28.8093   20.1092 C   0  0  0  0  0  0
  -22.7679  -29.4422   22.4775 C   0  0  0  0  0  0
  -18.0328  -28.1413   22.8469 C   0  0  0  0  0  0
  -24.1491  -36.7197   23.2647 C   0  0  0  0  0  0
  -26.0516  -30.6143   21.4044 C   0  0  0  0  0  0
  -26.1181  -29.2013   20.7492 C   0  0  0  0  0  0
  -27.2501  -28.2645   20.7674 C   0  0  0  0  0  0
  -26.0138  -26.6677   19.4876 C   0  0  0  0  0  0
  -24.9116  -27.5648   19.4572 C   0  0  0  0  0  0
  -23.7229  -29.7405   20.1444 C   0  0  0  0  0  0
  -25.4137  -36.2957   24.0294 C   0  0  1  0  0  0
  -20.5953  -28.3758   23.1184 C   0  0  2  0  0  0
  -20.6802  -26.9436   22.5404 C   0  0  0  0  0  0
  -19.5774  -26.6377   21.5218 C   0  0  0  0  0  0
  -18.1957  -26.7949   22.1624 C   0  0  0  0  0  0
  -19.1589  -28.8908   23.2814 C   0  0  0  0  0  0
  -18.9494  -30.1500   23.8847 C   0  0  0  0  0  0
  -17.6484  -30.6600   24.0555 C   0  0  0  0  0  0
  -25.9103  -34.9340   23.4998 C   0  0  0  0  0  0
  -16.5376  -29.9082   23.6349 C   0  0  0  0  0  0
  -16.7309  -28.6505   23.0365 C   0  0  0  0  0  0
  -26.4563  -31.6533   25.0699 C   0  0  0  0  0  0
  -25.3677  -31.3795   26.1345 C   0  0  0  0  0  0
  -27.0470  -30.2897   24.6466 C   0  0  0  0  0  0
  -27.6050  -32.4356   25.7507 C   0  0  0  0  0  0
  -27.5571  -37.1755   24.8466 C   0  0  0  0  0  0
  -21.4347  -29.3035   22.3521 N   0  0  0  0  0  0
  -26.4280  -37.3697   23.9406 N   0  0  0  0  0  0
  -24.7543  -30.9831   22.0828 N   0  0  0  0  0  0
  -23.4212  -28.8005   23.3040 O   0  0  0  0  0  0
  -28.2122  -25.7779   20.3164 O   0  0  0  0  0  0
  -26.5720  -34.8880   22.4598 O   0  0  0  0  0  0
  -23.5713  -32.1190   23.6747 O   0  0  0  0  0  0
  -29.6384  -19.5830   17.9333 C   0  0  0  0  0  0
  -29.2830  -20.8078   18.5529 C   0  0  0  0  0  0
  -29.8124  -18.3244   18.5684 C   0  0  0  0  0  0
  -29.0578  -20.9262   19.9469 C   0  0  0  0  0  0
  -29.2295  -19.5166   20.6053 C   0  0  0  0  0  0
  -29.6131  -18.1395   19.9697 C   0  0  0  0  0  0
  -29.1670  -22.0164   17.6435 C   0  0  0  0  0  0
  -29.0023  -19.4879   22.1027 C   0  0  0  0  0  0
  -28.9473  -16.3487   17.2127 C   0  0  0  0  0  0
  -30.1683  -17.1794   17.6242 C   0  0  0  0  0  0
  -28.7957  -22.5720   20.5709 C   0  0  0  0  0  0
  -28.0901  -24.1533   19.9531 C   0  0  0  0  0  0
  -29.6629  -16.5954   20.5275 N   0  0  0  0  0  0
  -31.4576  -13.0269   19.2242 H   0  0  0  0  0  0
  -30.4943  -11.9309   20.1600 H   0  0  0  0  0  0
  -29.9338  -11.7622   17.7103 H   0  0  0  0  0  0
  -29.5770  -13.4691   17.6592 H   0  0  0  0  0  0
  -28.0417  -11.2859   19.0846 H   0  0  0  0  0  0
  -27.4277  -12.3601   17.8537 H   0  0  0  0  0  0
  -27.5167  -14.2465   19.3303 H   0  0  0  0  0  0
  -28.8089  -12.5429   21.5088 H   0  0  0  0  0  0
  -28.2664  -14.1952   21.6940 H   0  0  0  0  0  0
  -25.2776   -9.5686   22.4756 H   0  0  0  0  0  0
  -24.0009   -7.4639   22.7479 H   0  0  0  0  0  0
  -21.0857   -8.8774   19.8953 H   0  0  0  0  0  0
  -22.3715  -10.9666   19.6155 H   0  0  0  0  0  0
  -21.2016   -7.6147   23.9714 H   0  0  0  0  0  0
  -21.1496   -6.0518   25.9076 H   0  0  0  0  0  0
  -22.0591   -2.7606   23.2835 H   0  0  0  0  0  0
  -22.4027  -11.9852   22.4871 H   0  0  0  0  0  0
  -21.1001  -13.1173   22.2641 H   0  0  0  0  0  0
  -24.6292  -15.8475   20.5419 H   0  0  0  0  0  0
  -26.2425  -15.6460   20.0839 H   0  0  0  0  0  0
  -26.7392  -32.5094   23.0868 H   0  0  0  0  0  0
  -25.0072  -33.9463   25.0168 H   0  0  0  0  0  0
  -22.7969  -31.2622   21.3438 H   0  0  0  0  0  0
  -23.3768  -35.9512   23.3280 H   0  0  0  0  0  0
  -24.3561  -36.8878   22.2067 H   0  0  0  0  0  0
  -23.7231  -37.6367   23.6728 H   0  0  0  0  0  0
  -26.2372  -31.3529   20.6236 H   0  0  0  0  0  0
  -26.9093  -30.6716   22.0624 H   0  0  0  0  0  0
  -28.1394  -28.5586   21.3066 H   0  0  0  0  0  0
  -25.8844  -25.7196   18.9862 H   0  0  0  0  0  0
  -24.0147  -27.2612   18.9347 H   0  0  0  0  0  0
  -23.8767  -30.5070   19.3839 H   0  0  0  0  0  0
  -22.8325  -29.1941   19.8290 H   0  0  0  0  0  0
  -25.1336  -36.1752   25.0786 H   0  0  0  0  0  0
  -21.0045  -28.3367   24.1306 H   0  0  0  0  0  0
  -20.5686  -26.2374   23.3647 H   0  0  0  0  0  0
  -21.6664  -26.7410   22.1206 H   0  0  0  0  0  0
  -19.6929  -25.6273   21.1282 H   0  0  0  0  0  0
  -19.6716  -27.3159   20.6727 H   0  0  0  0  0  0
  -17.4229  -26.6702   21.4024 H   0  0  0  0  0  0
  -18.0345  -26.0103   22.9029 H   0  0  0  0  0  0
  -19.7967  -30.7339   24.2187 H   0  0  0  0  0  0
  -17.5030  -31.6274   24.5167 H   0  0  0  0  0  0
  -15.5372  -30.2960   23.7706 H   0  0  0  0  0  0
  -15.8713  -28.0803   22.7105 H   0  0  0  0  0  0
  -24.5871  -30.7139   25.7637 H   0  0  0  0  0  0
  -24.8849  -32.2999   26.4641 H   0  0  0  0  0  0
  -25.7884  -30.9033   27.0209 H   0  0  0  0  0  0
  -26.3141  -29.6563   24.1450 H   0  0  0  0  0  0
  -27.3964  -29.7278   25.5138 H   0  0  0  0  0  0
  -27.9101  -30.4073   23.9911 H   0  0  0  0  0  0
  -27.2613  -33.3704   26.1952 H   0  0  0  0  0  0
  -28.3926  -32.6848   25.0382 H   0  0  0  0  0  0
  -28.0650  -31.8577   26.5533 H   0  0  0  0  0  0
  -28.2566  -38.0072   24.7517 H   0  0  0  0  0  0
  -28.1090  -36.2597   24.6292 H   0  0  0  0  0  0
  -27.2287  -37.1393   25.8868 H   0  0  0  0  0  0
  -20.9613  -29.8693   21.6615 H   0  0  0  0  0  0
  -26.0128  -38.2755   24.1412 H   0  0  0  0  0  0
  -29.7853  -19.6085   16.8620 H   0  0  0  0  0  0
  -29.4026  -21.7738   16.6072 H   0  0  0  0  0  0
  -29.8600  -22.8001   17.9504 H   0  0  0  0  0  0
  -28.1452  -22.3950   17.6518 H   0  0  0  0  0  0
  -29.5064  -20.3269   22.5827 H   0  0  0  0  0  0
  -29.3892  -18.5707   22.5468 H   0  0  0  0  0  0
  -27.9379  -19.5542   22.3269 H   0  0  0  0  0  0
  -29.2358  -15.5481   16.5311 H   0  0  0  0  0  0
  -28.2044  -16.9637   16.7041 H   0  0  0  0  0  0
  -28.4627  -15.8936   18.0737 H   0  0  0  0  0  0
  -30.9548  -16.5594   18.0403 H   0  0  0  0  0  0
  -30.6225  -17.5840   16.7189 H   0  0  0  0  0  0
  -29.8091  -22.8509   20.8588 H   0  0  0  0  0  0
  -28.2979  -22.4068   21.5260 H   0  0  0  0  0  0
  -27.0179  -23.9629   19.9192 H   0  0  0  0  0  0
  -28.3761  -24.1990   18.9074 H   0  0  0  0  0  0
  -28.8211  -16.3883   21.0451 H   0  0  0  0  0  0
  1 25  1  0  0  0
  1 30  2  0  0  0
  1 83  1  0  0  0
  2  3  1  0  0  0
  2 25  1  0  0  0
  2 84  1  0  0  0
  2 85  1  0  0  0
  3  4  1  0  0  0
  3 86  1  0  0  0
  3 87  1  0  0  0
  4  5  1  0  0  0
  4 88  1  0  0  0
  4 89  1  0  0  0
  5  6  1  0  0  0
  5 26  1  0  0  0
  5 90  1  0  0  0
  6 25  1  0  0  0
  6 91  1  0  0  0
  6 92  1  0  0  0
  7  8  2  0  0  0
  7 26  1  0  0  0
  7 29  1  0  0  0
  8  9  1  0  0  0
  8 22  1  0  0  0
  9 10  1  0  0  0
  9 27  2  0  0  0
 10 11  2  0  0  0
 10 15  1  0  0  0
 11 12  1  0  0  0
 11 93  1  0  0  0
 12 13  2  0  0  0
 12 94  1  0  0  0
 13 14  1  0  0  0
 13 31  1  0  0  0
 14 15  2  0  0  0
 14 95  1  0  0  0
 15 96  1  0  0  0
 16 17  2  0  0  0
 16 21  1  0  0  0
 16 31  1  0  0  0
 17 18  1  0  0  0
 17 97  1  0  0  0
 18 19  2  0  0  0
 18 98  1  0  0  0
 19 20  1  0  0  0
 19 24  1  0  0  0
 20 21  2  0  0  0
 20 99  1  0  0  0
 21 23  1  0  0  0
 22 28  1  0  0  0
 22 32  2  0  0  0
 26 27  1  0  0  0
 28100  1  0  0  0
 28101  1  0  0  0
 29102  1  0  0  0
 29103  1  0  0  0
 33 34  1  0  0  0
 33 66  1  0  0  0
 33 70  2  0  0  0
 34 36  1  0  0  0
 34 59  1  0  0  0
 34104  1  0  0  0
 35 44  2  0  0  0
 35 45  1  0  0  0
 35 68  1  0  0  0
 36 56  1  0  0  0
 36105  1  0  0  0
 37 39  1  0  0  0
 37 47  1  0  0  0
 37 66  1  0  0  0
 37106  1  0  0  0
 38 43  2  0  0  0
 38 46  1  0  0  0
 38 47  1  0  0  0
 39 64  1  0  0  0
 39 67  2  0  0  0
 40 52  1  0  0  0
 40 53  2  0  0  0
 40 58  1  0  0  0
 41107  1  0  0  0
 41108  1  0  0  0
 41109  1  0  0  0
 41 48  1  0  0  0
 42 43  1  0  0  0
 42 66  1  0  0  0
 42110  1  0  0  0
 42111  1  0  0  0
 43 44  1  0  0  0
 44112  1  0  0  0
 45 46  2  0  0  0
 45113  1  0  0  0
 46114  1  0  0  0
 47115  1  0  0  0
 47116  1  0  0  0
 48 56  1  0  0  0
 48 65  1  0  0  0
 48117  1  0  0  0
 49 50  1  0  0  0
 49 53  1  0  0  0
 49 64  1  0  0  0
 49118  1  0  0  0
 50 51  1  0  0  0
 50119  1  0  0  0
 50120  1  0  0  0
 51 52  1  0  0  0
 51121  1  0  0  0
 51122  1  0  0  0
 52123  1  0  0  0
 52124  1  0  0  0
 53 54  1  0  0  0
 54 55  2  0  0  0
 54125  1  0  0  0
 55 57  1  0  0  0
 55126  1  0  0  0
 56 69  2  0  0  0
 57 58  2  0  0  0
 57127  1  0  0  0
 58128  1  0  0  0
 59 60  1  0  0  0
 59 61  1  0  0  0
 59 62  1  0  0  0
 60129  1  0  0  0
 60130  1  0  0  0
 60131  1  0  0  0
 61132  1  0  0  0
 61133  1  0  0  0
 61134  1  0  0  0
 62135  1  0  0  0
 62136  1  0  0  0
 62137  1  0  0  0
 63 65  1  0  0  0
 63138  1  0  0  0
 63139  1  0  0  0
 63140  1  0  0  0
 64141  1  0  0  0
 65142  1  0  0  0
 68 82  1  0  0  0
 71 72  2  0  0  0
 71 73  1  0  0  0
 71143  1  0  0  0
 72 74  1  0  0  0
 72 77  1  0  0  0
 73 76  2  0  0  0
 73 80  1  0  0  0
 74 75  2  0  0  0
 74 81  1  0  0  0
 75 76  1  0  0  0
 75 78  1  0  0  0
 76 83  1  0  0  0
 77144  1  0  0  0
 77145  1  0  0  0
 77146  1  0  0  0
 78147  1  0  0  0
 78148  1  0  0  0
 78149  1  0  0  0
 79 80  1  0  0  0
 79150  1  0  0  0
 79151  1  0  0  0
 79152  1  0  0  0
 80153  1  0  0  0
 80154  1  0  0  0
 81 82  1  0  0  0
 81155  1  0  0  0
 81156  1  0  0  0
 82157  1  0  0  0
 82158  1  0  0  0
 83159  1  0  0  0
M  ISO  4   1 100  68 101  82 101  83 100
M  END
> <chiral flag>
0

> <version>
0

> <s_m_source_file>
/data/baiqing/PycharmProjects/Reinvent-master-3.2/result/LINK_invent/BTK/process_docking_weight1_custom_sum_contain_oxygen_bond_distance_aromatic_linkinvent_7_9_3/rearranged_h_0018.sdf

> <i_m_source_file_index>
67

> <r_mmod_Potential_Energy-OPLS-2005>
1391.98547363281

> <r_mmod_Stretch_Energy-OPLS-2005>
667.300231933594

> <r_mmod_Bend_Energy-OPLS-2005>
447.607788085938

> <r_mmod_Torsional_Energy-OPLS-2005>
242.07112121582

> <r_mmod_Improper_Torsional_Energy-OPLS-2005>
3.82145714759827

> <r_mmod_Van_der_Waal_Energy-OPLS-2005>
128.587463378906

> <r_mmod_Electrostatic_Energy-OPLS-2005>
-398.196838378906

> <r_mmod_Solvation_Energy-OPLS-2005>
-207.6201171875

> <b_mmod_Minimization_Converged-OPLS-2005>
0

> <r_mmod_RMS_Derivative-OPLS-2005>
0.926083087921143

$$$$
68
                    3D
 Structure written by MMmdl.
153161  0  0  1  0            999 V2000
  -30.2629  -15.7656   20.3265 C   0  0  0  0  0  0
  -30.4146  -13.1850   19.5344 C   0  0  0  0  0  0
  -29.5526  -12.6872   18.3346 C   0  0  0  0  0  0
  -28.1444  -12.2918   18.7984 C   0  0  0  0  0  0
  -27.5933  -13.3172   19.8117 C   0  0  2  0  0  0
  -28.6031  -13.7147   20.9183 C   0  0  0  0  0  0
  -25.2325  -13.8297   20.5839 C   0  0  0  0  0  0
  -24.1716  -13.0436   20.9311 C   0  0  0  0  0  0
  -24.6426  -11.6950   20.8775 C   0  0  0  0  0  0
  -23.9129  -10.4289   21.0393 C   0  0  0  0  0  0
  -24.3657   -9.4201   21.9182 C   0  0  0  0  0  0
  -23.6317   -8.2245   22.0757 C   0  0  0  0  0  0
  -22.4302   -8.0294   21.3543 C   0  0  0  0  0  0
  -21.9944   -9.0271   20.4641 C   0  0  0  0  0  0
  -22.7293  -10.2136   20.3044 C   0  0  0  0  0  0
  -21.6859   -6.0751   22.5283 C   0  0  0  0  0  0
  -21.4013   -6.5648   23.8218 C   0  0  0  0  0  0
  -21.3653   -5.6800   24.9179 C   0  0  0  0  0  0
  -21.6039   -4.3065   24.7231 C   0  0  0  0  0  0
  -21.8816   -3.8160   23.4351 C   0  0  0  0  0  0
  -21.9190   -4.6974   22.3403 C   0  0  0  0  0  0
  -22.7722  -13.5165   21.1932 C   0  0  0  0  0  0
  -22.1662   -4.2158   21.0981 F   0  0  0  0  0  0
  -21.5619   -3.4544   25.7741 F   0  0  0  0  0  0
  -29.7492  -14.3796   20.2464 N   0  0  0  0  0  0
  -26.2786  -12.9634   20.3270 N   0  0  0  0  0  0
  -25.9379  -11.6693   20.5711 N   0  0  0  0  0  0
  -22.0363  -12.8152   22.0471 N   0  0  0  0  0  0
  -25.3914  -15.2048   20.4304 N   0  0  0  0  0  0
  -31.5014  -15.6609   20.2016 O   0  0  0  0  0  0
  -21.6654   -6.8905   21.4253 O   0  0  0  0  0  0
  -22.3401  -14.5454   20.6755 O   0  0  0  0  0  0
  -24.6926  -31.7908   23.1398 C   0  0  0  0  0  0
  -25.9484  -32.4420   23.7978 C   0  0  1  0  0  0
  -27.2299  -26.6029   20.2311 C   0  0  0  0  0  0
  -25.6009  -33.8239   24.1878 N   0  0  0  0  0  0
  -23.5207  -30.3869   21.4988 C   0  0  2  0  0  0
  -24.9810  -28.7049   20.1226 C   0  0  0  0  0  0
  -22.7803  -29.4265   22.4708 C   0  0  0  0  0  0
  -18.0346  -28.1459   22.8472 C   0  0  0  0  0  0
  -24.1477  -36.7097   23.2652 C   0  0  0  0  0  0
  -26.1046  -30.4938   21.4158 C   0  0  0  0  0  0
  -26.1721  -29.0438   20.7751 C   0  0  0  0  0  0
  -27.2755  -28.0246   20.7943 C   0  0  0  0  0  0
  -26.0028  -26.4976   19.5203 C   0  0  0  0  0  0
  -24.9428  -27.4586   19.4691 C   0  0  0  0  0  0
  -23.7805  -29.6711   20.1398 C   0  0  0  0  0  0
  -25.4137  -36.2862   24.0283 C   0  0  1  0  0  0
  -20.5987  -28.3821   23.1157 C   0  0  2  0  0  0
  -20.6807  -26.9471   22.5425 C   0  0  0  0  0  0
  -19.5772  -26.6416   21.5238 C   0  0  0  0  0  0
  -18.1951  -26.7995   22.1635 C   0  0  0  0  0  0
  -19.1612  -28.8973   23.2783 C   0  0  0  0  0  0
  -18.9530  -30.1553   23.8830 C   0  0  0  0  0  0
  -17.6515  -30.6635   24.0576 C   0  0  0  0  0  0
  -25.9129  -34.9258   23.4929 C   0  0  0  0  0  0
  -16.5405  -29.9122   23.6367 C   0  0  0  0  0  0
  -16.7322  -28.6548   23.0379 C   0  0  0  0  0  0
  -26.4616  -31.6468   25.0620 C   0  0  0  0  0  0
  -25.3648  -31.3852   26.1219 C   0  0  0  0  0  0
  -27.0551  -30.2793   24.6564 C   0  0  0  0  0  0
  -27.6059  -32.4316   25.7441 C   0  0  0  0  0  0
  -27.5546  -37.1706   24.8471 C   0  0  0  0  0  0
  -21.4446  -29.3026   22.3454 N   0  0  0  0  0  0
  -26.4232  -37.3656   23.9439 N   0  0  0  0  0  0
  -24.7980  -30.9269   22.0691 N   0  0  0  0  0  0
  -23.4212  -28.7898   23.3102 O   0  0  0  0  0  0
  -28.1774  -25.3368   20.3119 O   0  0  0  0  0  0
  -26.5784  -34.8866   22.4540 O   0  0  0  0  0  0
  -23.5932  -32.1013   23.6313 O   0  0  0  0  0  0
  -31.1452  -20.8747   20.9959 C   0  0  0  0  0  0
  -30.2894  -21.9981   20.7624 C   0  0  0  0  0  0
  -30.8740  -19.4717   20.8537 C   0  0  0  0  0  0
  -28.9327  -21.8932   20.3563 C   0  0  0  0  0  0
  -28.6926  -20.2704   20.2067 C   0  0  0  0  0  0
  -29.6227  -18.9330   20.4207 C   0  0  0  0  0  0
  -30.9033  -23.3726   20.9718 C   0  0  0  0  0  0
  -32.0250  -18.5504   21.2156 C   0  0  0  0  0  0
  -27.2910  -19.9125   19.7522 C   0  0  0  0  0  0
  -27.9743  -23.5445   20.1468 C   0  0  0  0  0  0
  -29.5000  -17.1689   20.3305 N   0  0  0  0  0  0
  -31.3928  -13.4723   19.1484 H   0  0  0  0  0  0
  -30.6162  -12.3712   20.2324 H   0  0  0  0  0  0
  -30.0382  -11.8477   17.8336 H   0  0  0  0  0  0
  -29.4802  -13.4848   17.5949 H   0  0  0  0  0  0
  -28.2163  -11.3160   19.2824 H   0  0  0  0  0  0
  -27.4719  -12.1682   17.9494 H   0  0  0  0  0  0
  -27.4346  -14.2153   19.2125 H   0  0  0  0  0  0
  -28.9044  -12.8576   21.5227 H   0  0  0  0  0  0
  -28.1455  -14.4265   21.6061 H   0  0  0  0  0  0
  -25.2786   -9.5687   22.4780 H   0  0  0  0  0  0
  -24.0008   -7.4641   22.7492 H   0  0  0  0  0  0
  -21.0866   -8.8807   19.8956 H   0  0  0  0  0  0
  -22.3752  -10.9680   19.6166 H   0  0  0  0  0  0
  -21.2013   -7.6157   23.9726 H   0  0  0  0  0  0
  -21.1470   -6.0529   25.9079 H   0  0  0  0  0  0
  -22.0598   -2.7622   23.2852 H   0  0  0  0  0  0
  -22.3983  -11.9836   22.4885 H   0  0  0  0  0  0
  -21.0966  -13.1162   22.2633 H   0  0  0  0  0  0
  -24.6204  -15.8538   20.5459 H   0  0  0  0  0  0
  -26.2397  -15.6482   20.1049 H   0  0  0  0  0  0
  -26.7561  -32.4908   23.0686 H   0  0  0  0  0  0
  -25.0087  -33.9235   24.9993 H   0  0  0  0  0  0
  -22.8492  -31.2238   21.2996 H   0  0  0  0  0  0
  -23.3775  -35.9386   23.3247 H   0  0  0  0  0  0
  -24.3518  -36.8814   22.2071 H   0  0  0  0  0  0
  -23.7187  -37.6245   23.6758 H   0  0  0  0  0  0
  -26.3123  -31.2106   20.6199 H   0  0  0  0  0  0
  -26.9532  -30.5742   22.0811 H   0  0  0  0  0  0
  -28.1675  -28.2973   21.3437 H   0  0  0  0  0  0
  -25.8180  -25.5585   19.0188 H   0  0  0  0  0  0
  -24.0462  -27.1904   18.9271 H   0  0  0  0  0  0
  -23.9582  -30.4226   19.3700 H   0  0  0  0  0  0
  -22.8831  -29.1402   19.8189 H   0  0  0  0  0  0
  -25.1341  -36.1573   25.0766 H   0  0  0  0  0  0
  -21.0071  -28.3450   24.1290 H   0  0  0  0  0  0
  -20.5680  -26.2447   23.3702 H   0  0  0  0  0  0
  -21.6666  -26.7393   22.1257 H   0  0  0  0  0  0
  -19.6918  -25.6303   21.1322 H   0  0  0  0  0  0
  -19.6717  -27.3186   20.6735 H   0  0  0  0  0  0
  -17.4236  -26.6758   21.4022 H   0  0  0  0  0  0
  -18.0298  -26.0151   22.9043 H   0  0  0  0  0  0
  -19.7999  -30.7394   24.2153 H   0  0  0  0  0  0
  -17.5071  -31.6307   24.5201 H   0  0  0  0  0  0
  -15.5411  -30.3021   23.7733 H   0  0  0  0  0  0
  -15.8717  -28.0853   22.7156 H   0  0  0  0  0  0
  -24.5875  -30.7115   25.7571 H   0  0  0  0  0  0
  -24.8773  -32.3107   26.4316 H   0  0  0  0  0  0
  -25.7814  -30.9272   27.0192 H   0  0  0  0  0  0
  -26.3290  -29.6399   24.1536 H   0  0  0  0  0  0
  -27.3949  -29.7249   25.5322 H   0  0  0  0  0  0
  -27.9281  -30.3903   24.0113 H   0  0  0  0  0  0
  -27.2623  -33.3731   26.1730 H   0  0  0  0  0  0
  -28.4044  -32.6673   25.0384 H   0  0  0  0  0  0
  -28.0512  -31.8592   26.5589 H   0  0  0  0  0  0
  -28.2558  -38.0013   24.7545 H   0  0  0  0  0  0
  -28.1050  -36.2551   24.6264 H   0  0  0  0  0  0
  -27.2264  -37.1310   25.8872 H   0  0  0  0  0  0
  -20.9797  -29.8623   21.6447 H   0  0  0  0  0  0
  -26.0040  -38.2679   24.1500 H   0  0  0  0  0  0
  -32.1410  -21.1253   21.3345 H   0  0  0  0  0  0
  -31.9899  -23.3268   20.9087 H   0  0  0  0  0  0
  -30.6429  -23.7614   21.9567 H   0  0  0  0  0  0
  -30.5802  -24.0838   20.2110 H   0  0  0  0  0  0
  -32.7868  -19.0672   21.8001 H   0  0  0  0  0  0
  -32.5020  -18.1701   20.3117 H   0  0  0  0  0  0
  -31.6899  -17.7159   21.8296 H   0  0  0  0  0  0
  -26.6087  -20.7556   19.8495 H   0  0  0  0  0  0
  -26.8905  -19.0873   20.3425 H   0  0  0  0  0  0
  -27.3093  -19.6053   18.7048 H   0  0  0  0  0  0
  -27.0749  -23.3640   20.7377 H   0  0  0  0  0  0
  -27.6206  -23.4578   19.1186 H   0  0  0  0  0  0
  -28.5211  -16.9255   20.2759 H   0  0  0  0  0  0
  1 25  1  0  0  0
  1 30  2  0  0  0
  1 81  1  0  0  0
  2  3  1  0  0  0
  2 25  1  0  0  0
  2 82  1  0  0  0
  2 83  1  0  0  0
  3  4  1  0  0  0
  3 84  1  0  0  0
  3 85  1  0  0  0
  4  5  1  0  0  0
  4 86  1  0  0  0
  4 87  1  0  0  0
  5  6  1  0  0  0
  5 26  1  0  0  0
  5 88  1  0  0  0
  6 25  1  0  0  0
  6 89  1  0  0  0
  6 90  1  0  0  0
  7  8  2  0  0  0
  7 26  1  0  0  0
  7 29  1  0  0  0
  8  9  1  0  0  0
  8 22  1  0  0  0
  9 10  1  0  0  0
  9 27  2  0  0  0
 10 11  2  0  0  0
 10 15  1  0  0  0
 11 12  1  0  0  0
 11 91  1  0  0  0
 12 13  2  0  0  0
 12 92  1  0  0  0
 13 14  1  0  0  0
 13 31  1  0  0  0
 14 15  2  0  0  0
 14 93  1  0  0  0
 15 94  1  0  0  0
 16 17  2  0  0  0
 16 21  1  0  0  0
 16 31  1  0  0  0
 17 18  1  0  0  0
 17 95  1  0  0  0
 18 19  2  0  0  0
 18 96  1  0  0  0
 19 20  1  0  0  0
 19 24  1  0  0  0
 20 21  2  0  0  0
 20 97  1  0  0  0
 21 23  1  0  0  0
 22 28  1  0  0  0
 22 32  2  0  0  0
 26 27  1  0  0  0
 28 98  1  0  0  0
 28 99  1  0  0  0
 29100  1  0  0  0
 29101  1  0  0  0
 33 34  1  0  0  0
 33 66  1  0  0  0
 33 70  2  0  0  0
 34 36  1  0  0  0
 34 59  1  0  0  0
 34102  1  0  0  0
 35 44  2  0  0  0
 35 45  1  0  0  0
 35 68  1  0  0  0
 36 56  1  0  0  0
 36103  1  0  0  0
 37 39  1  0  0  0
 37 47  1  0  0  0
 37 66  1  0  0  0
 37104  1  0  0  0
 38 43  2  0  0  0
 38 46  1  0  0  0
 38 47  1  0  0  0
 39 64  1  0  0  0
 39 67  2  0  0  0
 40 52  1  0  0  0
 40 53  2  0  0  0
 40 58  1  0  0  0
 41105  1  0  0  0
 41106  1  0  0  0
 41107  1  0  0  0
 41 48  1  0  0  0
 42 43  1  0  0  0
 42 66  1  0  0  0
 42108  1  0  0  0
 42109  1  0  0  0
 43 44  1  0  0  0
 44110  1  0  0  0
 45 46  2  0  0  0
 45111  1  0  0  0
 46112  1  0  0  0
 47113  1  0  0  0
 47114  1  0  0  0
 48 56  1  0  0  0
 48 65  1  0  0  0
 48115  1  0  0  0
 49 50  1  0  0  0
 49 53  1  0  0  0
 49 64  1  0  0  0
 49116  1  0  0  0
 50 51  1  0  0  0
 50117  1  0  0  0
 50118  1  0  0  0
 51 52  1  0  0  0
 51119  1  0  0  0
 51120  1  0  0  0
 52121  1  0  0  0
 52122  1  0  0  0
 53 54  1  0  0  0
 54 55  2  0  0  0
 54123  1  0  0  0
 55 57  1  0  0  0
 55124  1  0  0  0
 56 69  2  0  0  0
 57 58  2  0  0  0
 57125  1  0  0  0
 58126  1  0  0  0
 59 60  1  0  0  0
 59 61  1  0  0  0
 59 62  1  0  0  0
 60127  1  0  0  0
 60128  1  0  0  0
 60129  1  0  0  0
 61130  1  0  0  0
 61131  1  0  0  0
 61132  1  0  0  0
 62133  1  0  0  0
 62134  1  0  0  0
 62135  1  0  0  0
 63 65  1  0  0  0
 63136  1  0  0  0
 63137  1  0  0  0
 63138  1  0  0  0
 64139  1  0  0  0
 65140  1  0  0  0
 68 80  1  0  0  0
 71 72  2  0  0  0
 71 73  1  0  0  0
 71141  1  0  0  0
 72 74  1  0  0  0
 72 77  1  0  0  0
 73 76  2  0  0  0
 73 78  1  0  0  0
 74 75  2  0  0  0
 74 80  1  0  0  0
 75 76  1  0  0  0
 75 79  1  0  0  0
 76 81  1  0  0  0
 77142  1  0  0  0
 77143  1  0  0  0
 77144  1  0  0  0
 78145  1  0  0  0
 78146  1  0  0  0
 78147  1  0  0  0
 79148  1  0  0  0
 79149  1  0  0  0
 79150  1  0  0  0
 80151  1  0  0  0
 80152  1  0  0  0
 81153  1  0  0  0
M  ISO  4   1 100  68 101  80 101  81 100
M  END
> <chiral flag>
0

> <version>
0

> <s_m_source_file>
/data/baiqing/PycharmProjects/Reinvent-master-3.2/result/LINK_invent/BTK/process_docking_weight1_custom_sum_contain_oxygen_bond_distance_aromatic_linkinvent_7_9_3/rearranged_h_0018.sdf

> <i_m_source_file_index>
68

> <r_mmod_Potential_Energy-OPLS-2005>
2802.1328125

> <r_mmod_Stretch_Energy-OPLS-2005>
1277.92749023438

> <r_mmod_Bend_Energy-OPLS-2005>
643.240356445312

> <r_mmod_Torsional_Energy-OPLS-2005>
223.104019165039

> <r_mmod_Improper_Torsional_Energy-OPLS-2005>
4.76089096069336

> <r_mmod_Van_der_Waal_Energy-OPLS-2005>
132.802398681641

> <r_mmod_Electrostatic_Energy-OPLS-2005>
-385.983306884766

> <r_mmod_Solvation_Energy-OPLS-2005>
-206.680892944336

> <b_mmod_Minimization_Converged-OPLS-2005>
0

> <r_mmod_RMS_Derivative-OPLS-2005>
3.52881741523743

$$$$
69
                    3D
 Structure written by MMmdl.
165173  0  0  1  0            999 V2000
  -30.7252  -14.4142   20.6196 C   0  0  0  0  0  0
  -30.4202  -12.2870   19.4112 C   0  0  0  0  0  0
  -29.4913  -12.5146   18.2018 C   0  0  0  0  0  0
  -28.0128  -12.3762   18.6145 C   0  0  0  0  0  0
  -27.6662  -13.2026   19.8817 C   0  0  2  0  0  0
  -28.7044  -12.9502   20.9980 C   0  0  0  0  0  0
  -25.2607  -13.8158   20.5675 C   0  0  0  0  0  0
  -24.1845  -13.0439   20.9158 C   0  0  0  0  0  0
  -24.6388  -11.6904   20.8723 C   0  0  0  0  0  0
  -23.9053  -10.4291   21.0400 C   0  0  0  0  0  0
  -24.3608   -9.4211   21.9179 C   0  0  0  0  0  0
  -23.6285   -8.2245   22.0755 C   0  0  0  0  0  0
  -22.4267   -8.0281   21.3546 C   0  0  0  0  0  0
  -21.9900   -9.0249   20.4645 C   0  0  0  0  0  0
  -22.7229  -10.2129   20.3047 C   0  0  0  0  0  0
  -21.6853   -6.0731   22.5278 C   0  0  0  0  0  0
  -21.4010   -6.5636   23.8209 C   0  0  0  0  0  0
  -21.3655   -5.6786   24.9170 C   0  0  0  0  0  0
  -21.6044   -4.3049   24.7221 C   0  0  0  0  0  0
  -21.8822   -3.8142   23.4342 C   0  0  0  0  0  0
  -21.9193   -4.6960   22.3400 C   0  0  0  0  0  0
  -22.7870  -13.5247   21.1831 C   0  0  0  0  0  0
  -22.1663   -4.2148   21.0977 F   0  0  0  0  0  0
  -21.5627   -3.4535   25.7734 F   0  0  0  0  0  0
  -30.0443  -13.2489   20.4578 N   0  0  0  0  0  0
  -26.3046  -12.9317   20.3391 N   0  0  0  0  0  0
  -25.9317  -11.6479   20.5763 N   0  0  0  0  0  0
  -22.0508  -12.8236   22.0387 N   0  0  0  0  0  0
  -25.4344  -15.1871   20.4089 N   0  0  0  0  0  0
  -31.8095  -14.6338   20.0713 O   0  0  0  0  0  0
  -21.6637   -6.8877   21.4241 O   0  0  0  0  0  0
  -22.3557  -14.5561   20.6694 O   0  0  0  0  0  0
  -24.6085  -31.8711   23.2126 C   0  0  0  0  0  0
  -25.8998  -32.4841   23.8410 C   0  0  1  0  0  0
  -27.2507  -27.4739   20.0981 C   0  0  0  0  0  0
  -25.5881  -33.8639   24.2349 N   0  0  0  0  0  0
  -23.3953  -30.4924   21.5510 C   0  0  2  0  0  0
  -24.8466  -28.9608   20.1160 C   0  0  0  0  0  0
  -22.7378  -29.4667   22.5010 C   0  0  0  0  0  0
  -18.0262  -28.1369   22.8494 C   0  0  0  0  0  0
  -24.1477  -36.7316   23.2635 C   0  0  0  0  0  0
  -25.9171  -30.8492   21.3596 C   0  0  0  0  0  0
  -25.9985  -29.4829   20.7165 C   0  0  0  0  0  0
  -27.1998  -28.7470   20.7146 C   0  0  0  0  0  0
  -26.0865  -26.9648   19.4879 C   0  0  0  0  0  0
  -24.8825  -27.6965   19.5007 C   0  0  0  0  0  0
  -23.6033  -29.8199   20.1660 C   0  0  0  0  0  0
  -25.4096  -36.3126   24.0348 C   0  0  1  0  0  0
  -20.5846  -28.3643   23.1331 C   0  0  2  0  0  0
  -20.6751  -26.9384   22.5425 C   0  0  0  0  0  0
  -19.5735  -26.6376   21.5213 C   0  0  0  0  0  0
  -18.1908  -26.7921   22.1613 C   0  0  0  0  0  0
  -19.1510  -28.8821   23.2913 C   0  0  0  0  0  0
  -18.9445  -30.1434   23.8914 C   0  0  0  0  0  0
  -17.6450  -30.6578   24.0566 C   0  0  0  0  0  0
  -25.9024  -34.9490   23.5145 C   0  0  0  0  0  0
  -16.5338  -29.9082   23.6327 C   0  0  0  0  0  0
  -16.7253  -28.6498   23.0347 C   0  0  0  0  0  0
  -26.4451  -31.6600   25.0712 C   0  0  0  0  0  0
  -25.3741  -31.3684   26.1476 C   0  0  0  0  0  0
  -27.0273  -30.3049   24.6048 C   0  0  0  0  0  0
  -27.6035  -32.4308   25.7476 C   0  0  0  0  0  0
  -27.5593  -37.1791   24.8452 C   0  0  0  0  0  0
  -21.4113  -29.3020   22.3745 N   0  0  0  0  0  0
  -26.4276  -37.3817   23.9442 N   0  0  0  0  0  0
  -24.6580  -31.0846   22.1004 N   0  0  0  0  0  0
  -23.4171  -28.8222   23.3046 O   0  0  0  0  0  0
  -28.3841  -26.6942   20.0451 O   0  0  0  0  0  0
  -26.5588  -34.8937   22.4707 O   0  0  0  0  0  0
  -23.5292  -32.1446   23.7548 O   0  0  0  0  0  0
  -31.1144  -17.4752   20.6316 C   0  0  0  0  0  0
  -31.3691  -18.8434   20.8516 C   0  0  0  0  0  0
  -30.8810  -19.4826   22.0227 C   0  0  0  0  0  0
  -30.0904  -18.7324   22.9407 C   0  0  0  0  0  0
  -30.3863  -16.7097   21.5686 C   0  0  0  0  0  0
  -29.8572  -17.3502   22.7103 C   0  0  0  0  0  0
  -32.1962  -19.5880   19.8122 C   0  0  0  0  0  0
  -29.5100  -19.3837   24.1948 C   0  0  0  0  0  0
  -31.2547  -20.9455   22.3013 C   0  0  0  0  0  0
  -29.7521  -24.3399   21.3069 C   0  0  0  0  0  0
  -30.3654  -25.7335   21.0604 C   0  0  0  0  0  0
  -30.8321  -23.2755   21.5890 C   0  0  0  0  0  0
  -29.3461  -26.8822   21.0765 C   0  0  0  0  0  0
  -30.1096  -15.3215   21.3940 N   0  0  0  0  0  0
  -30.2858  -21.9061   21.7306 N   0  3  0  0  0  0
  -28.9358  -16.4061   23.8372 Cl  0  0  0  0  0  0
  -31.4657  -12.3801   19.1113 H   0  0  0  0  0  0
  -30.3123  -11.2689   19.7882 H   0  0  0  0  0  0
  -29.7253  -11.8036   17.4082 H   0  0  0  0  0  0
  -29.6652  -13.5078   17.7840 H   0  0  0  0  0  0
  -27.8180  -11.3188   18.7978 H   0  0  0  0  0  0
  -27.3626  -12.6647   17.7879 H   0  0  0  0  0  0
  -27.7220  -14.2558   19.6051 H   0  0  0  0  0  0
  -28.6699  -11.9068   21.3136 H   0  0  0  0  0  0
  -28.4566  -13.5231   21.8922 H   0  0  0  0  0  0
  -25.2754   -9.5688   22.4751 H   0  0  0  0  0  0
  -23.9992   -7.4642   22.7478 H   0  0  0  0  0  0
  -21.0830   -8.8765   19.8953 H   0  0  0  0  0  0
  -22.3689  -10.9662   19.6149 H   0  0  0  0  0  0
  -21.1998   -7.6142   23.9714 H   0  0  0  0  0  0
  -21.1471   -6.0514   25.9073 H   0  0  0  0  0  0
  -22.0601   -2.7605   23.2843 H   0  0  0  0  0  0
  -22.4119  -11.9889   22.4765 H   0  0  0  0  0  0
  -21.1126  -13.1267   22.2596 H   0  0  0  0  0  0
  -24.6731  -15.8472   20.5236 H   0  0  0  0  0  0
  -26.2978  -15.6258   20.1140 H   0  0  0  0  0  0
  -26.7076  -32.5580   23.1189 H   0  0  0  0  0  0
  -25.0052  -33.9815   25.0508 H   0  0  0  0  0  0
  -22.6819  -31.3072   21.4109 H   0  0  0  0  0  0
  -23.3766  -35.9616   23.3246 H   0  0  0  0  0  0
  -24.3592  -36.8981   22.2062 H   0  0  0  0  0  0
  -23.7179  -37.6485   23.6676 H   0  0  0  0  0  0
  -26.0181  -31.6119   20.5859 H   0  0  0  0  0  0
  -26.8083  -30.9122   21.9717 H   0  0  0  0  0  0
  -28.0768  -29.1759   21.1764 H   0  0  0  0  0  0
  -26.1134  -25.9960   19.0087 H   0  0  0  0  0  0
  -23.9982  -27.2873   19.0315 H   0  0  0  0  0  0
  -23.7038  -30.5921   19.4024 H   0  0  0  0  0  0
  -22.7305  -29.2325   19.8750 H   0  0  0  0  0  0
  -25.1262  -36.1986   25.0837 H   0  0  0  0  0  0
  -20.9939  -28.3202   24.1450 H   0  0  0  0  0  0
  -20.5639  -26.2255   23.3611 H   0  0  0  0  0  0
  -21.6623  -26.7429   22.1220 H   0  0  0  0  0  0
  -19.6894  -25.6292   21.1229 H   0  0  0  0  0  0
  -19.6683  -27.3197   20.6752 H   0  0  0  0  0  0
  -17.4190  -26.6693   21.3998 H   0  0  0  0  0  0
  -18.0288  -26.0045   22.8986 H   0  0  0  0  0  0
  -19.7923  -30.7245   24.2283 H   0  0  0  0  0  0
  -17.5006  -31.6261   24.5159 H   0  0  0  0  0  0
  -15.5340  -30.2990   23.7644 H   0  0  0  0  0  0
  -15.8652  -28.0829   22.7047 H   0  0  0  0  0  0
  -24.5918  -30.7023   25.7822 H   0  0  0  0  0  0
  -24.8927  -32.2830   26.4951 H   0  0  0  0  0  0
  -25.8117  -30.8846   27.0217 H   0  0  0  0  0  0
  -26.2799  -29.6819   24.1123 H   0  0  0  0  0  0
  -27.4081  -29.7273   25.4482 H   0  0  0  0  0  0
  -27.8615  -30.4379   23.9156 H   0  0  0  0  0  0
  -27.2660  -33.3600   26.2080 H   0  0  0  0  0  0
  -28.3836  -32.6879   25.0298 H   0  0  0  0  0  0
  -28.0706  -31.8410   26.5373 H   0  0  0  0  0  0
  -28.2549  -38.0153   24.7615 H   0  0  0  0  0  0
  -28.1154  -36.2696   24.6121 H   0  0  0  0  0  0
  -27.2339  -37.1248   25.8857 H   0  0  0  0  0  0
  -20.9266  -29.8743   21.6976 H   0  0  0  0  0  0
  -26.0165  -38.2879   24.1520 H   0  0  0  0  0  0
  -31.4955  -17.0206   19.7292 H   0  0  0  0  0  0
  -32.3044  -19.0058   18.8963 H   0  0  0  0  0  0
  -33.1992  -19.7882   20.1911 H   0  0  0  0  0  0
  -31.7343  -20.5347   19.5327 H   0  0  0  0  0  0
  -29.2933  -20.4412   24.0581 H   0  0  0  0  0  0
  -30.2038  -19.2792   25.0294 H   0  0  0  0  0  0
  -28.5628  -18.9321   24.4876 H   0  0  0  0  0  0
  -32.2480  -21.1456   21.8993 H   0  0  0  0  0  0
  -31.3633  -21.1222   23.3719 H   0  0  0  0  0  0
  -29.1548  -24.0540   20.4397 H   0  0  0  0  0  0
  -29.0653  -24.3895   22.1532 H   0  0  0  0  0  0
  -30.9046  -25.7370   20.1121 H   0  0  0  0  0  0
  -31.1098  -25.9398   21.8308 H   0  0  0  0  0  0
  -31.3636  -23.5452   22.5035 H   0  0  0  0  0  0
  -31.5735  -23.2742   20.7880 H   0  0  0  0  0  0
  -29.8702  -27.8274   20.9285 H   0  0  0  0  0  0
  -28.8581  -26.9243   22.0524 H   0  0  0  0  0  0
  -29.3170  -14.9763   21.9147 H   0  0  0  0  0  0
  -29.4722  -21.9275   22.3222 H   0  0  0  0  0  0
  -29.9970  -21.5732   20.8256 H   0  0  0  0  0  0
  1 25  1  0  0  0
  1 30  2  0  0  0
  1 84  1  0  0  0
  2  3  1  0  0  0
  2 25  1  0  0  0
  2 87  1  0  0  0
  2 88  1  0  0  0
  3  4  1  0  0  0
  3 89  1  0  0  0
  3 90  1  0  0  0
  4  5  1  0  0  0
  4 91  1  0  0  0
  4 92  1  0  0  0
  5  6  1  0  0  0
  5 26  1  0  0  0
  5 93  1  0  0  0
  6 25  1  0  0  0
  6 94  1  0  0  0
  6 95  1  0  0  0
  7  8  2  0  0  0
  7 26  1  0  0  0
  7 29  1  0  0  0
  8  9  1  0  0  0
  8 22  1  0  0  0
  9 10  1  0  0  0
  9 27  2  0  0  0
 10 11  2  0  0  0
 10 15  1  0  0  0
 11 12  1  0  0  0
 11 96  1  0  0  0
 12 13  2  0  0  0
 12 97  1  0  0  0
 13 14  1  0  0  0
 13 31  1  0  0  0
 14 15  2  0  0  0
 14 98  1  0  0  0
 15 99  1  0  0  0
 16 17  2  0  0  0
 16 21  1  0  0  0
 16 31  1  0  0  0
 17 18  1  0  0  0
 17100  1  0  0  0
 18 19  2  0  0  0
 18101  1  0  0  0
 19 20  1  0  0  0
 19 24  1  0  0  0
 20 21  2  0  0  0
 20102  1  0  0  0
 21 23  1  0  0  0
 22 28  1  0  0  0
 22 32  2  0  0  0
 26 27  1  0  0  0
 28103  1  0  0  0
 28104  1  0  0  0
 29105  1  0  0  0
 29106  1  0  0  0
 33 34  1  0  0  0
 33 66  1  0  0  0
 33 70  2  0  0  0
 34 36  1  0  0  0
 34 59  1  0  0  0
 34107  1  0  0  0
 35 44  2  0  0  0
 35 45  1  0  0  0
 35 68  1  0  0  0
 36 56  1  0  0  0
 36108  1  0  0  0
 37 39  1  0  0  0
 37 47  1  0  0  0
 37 66  1  0  0  0
 37109  1  0  0  0
 38 43  2  0  0  0
 38 46  1  0  0  0
 38 47  1  0  0  0
 39 64  1  0  0  0
 39 67  2  0  0  0
 40 52  1  0  0  0
 40 53  2  0  0  0
 40 58  1  0  0  0
 41110  1  0  0  0
 41111  1  0  0  0
 41112  1  0  0  0
 41 48  1  0  0  0
 42 43  1  0  0  0
 42 66  1  0  0  0
 42113  1  0  0  0
 42114  1  0  0  0
 43 44  1  0  0  0
 44115  1  0  0  0
 45 46  2  0  0  0
 45116  1  0  0  0
 46117  1  0  0  0
 47118  1  0  0  0
 47119  1  0  0  0
 48 56  1  0  0  0
 48 65  1  0  0  0
 48120  1  0  0  0
 49 50  1  0  0  0
 49 53  1  0  0  0
 49 64  1  0  0  0
 49121  1  0  0  0
 50 51  1  0  0  0
 50122  1  0  0  0
 50123  1  0  0  0
 51 52  1  0  0  0
 51124  1  0  0  0
 51125  1  0  0  0
 52126  1  0  0  0
 52127  1  0  0  0
 53 54  1  0  0  0
 54 55  2  0  0  0
 54128  1  0  0  0
 55 57  1  0  0  0
 55129  1  0  0  0
 56 69  2  0  0  0
 57 58  2  0  0  0
 57130  1  0  0  0
 58131  1  0  0  0
 59 60  1  0  0  0
 59 61  1  0  0  0
 59 62  1  0  0  0
 60132  1  0  0  0
 60133  1  0  0  0
 60134  1  0  0  0
 61135  1  0  0  0
 61136  1  0  0  0
 61137  1  0  0  0
 62138  1  0  0  0
 62139  1  0  0  0
 62140  1  0  0  0
 63 65  1  0  0  0
 63141  1  0  0  0
 63142  1  0  0  0
 63143  1  0  0  0
 64144  1  0  0  0
 65145  1  0  0  0
 68 83  1  0  0  0
 71 72  2  0  0  0
 71 75  1  0  0  0
 71146  1  0  0  0
 72 73  1  0  0  0
 72 77  1  0  0  0
 73 74  2  0  0  0
 73 79  1  0  0  0
 74 76  1  0  0  0
 74 78  1  0  0  0
 75 76  2  0  0  0
 75 84  1  0  0  0
 76 86  1  0  0  0
 77147  1  0  0  0
 77148  1  0  0  0
 77149  1  0  0  0
 78150  1  0  0  0
 78151  1  0  0  0
 78152  1  0  0  0
 79 85  1  0  0  0
 79153  1  0  0  0
 79154  1  0  0  0
 80 81  1  0  0  0
 80 82  1  0  0  0
 80155  1  0  0  0
 80156  1  0  0  0
 81 83  1  0  0  0
 81157  1  0  0  0
 81158  1  0  0  0
 82 85  1  0  0  0
 82159  1  0  0  0
 82160  1  0  0  0
 83161  1  0  0  0
 83162  1  0  0  0
 84163  1  0  0  0
 85164  1  0  0  0
 85165  1  0  0  0
M  CHG  1  85   1
M  ISO  4   1 100  68 101  83 101  84 100
M  END
> <chiral flag>
0

> <version>
0

> <s_m_source_file>
/data/baiqing/PycharmProjects/Reinvent-master-3.2/result/LINK_invent/BTK/process_docking_weight1_custom_sum_contain_oxygen_bond_distance_aromatic_linkinvent_7_9_3/rearranged_h_0018.sdf

> <i_m_source_file_index>
69

> <r_mmod_Potential_Energy-OPLS-2005>
-275.767578125

> <r_mmod_Stretch_Energy-OPLS-2005>
35.8916854858398

> <r_mmod_Bend_Energy-OPLS-2005>
96.2174606323242

> <r_mmod_Torsional_Energy-OPLS-2005>
202.871948242188

> <r_mmod_Improper_Torsional_Energy-OPLS-2005>
2.08244490623474

> <r_mmod_Van_der_Waal_Energy-OPLS-2005>
165.955184936523

> <r_mmod_Electrostatic_Energy-OPLS-2005>
-326.519805908203

> <r_mmod_Solvation_Energy-OPLS-2005>
-459.306915283203

> <b_mmod_Minimization_Converged-OPLS-2005>
0

> <r_mmod_RMS_Derivative-OPLS-2005>
0.634961545467377

$$$$
70
                    3D
 Structure written by MMmdl.
178186  0  0  1  0            999 V2000
  -30.6658  -14.5407   20.5188 C   0  0  0  0  0  0
  -30.4335  -12.3362   19.4330 C   0  0  0  0  0  0
  -29.5012  -12.4957   18.2131 C   0  0  0  0  0  0
  -28.0203  -12.3569   18.6219 C   0  0  0  0  0  0
  -27.6579  -13.2032   19.8702 C   0  0  2  0  0  0
  -28.7039  -13.0214   20.9932 C   0  0  0  0  0  0
  -25.2572  -13.8130   20.5660 C   0  0  0  0  0  0
  -24.1830  -13.0421   20.9178 C   0  0  0  0  0  0
  -24.6389  -11.6895   20.8742 C   0  0  0  0  0  0
  -23.9072  -10.4279   21.0421 C   0  0  0  0  0  0
  -24.3627   -9.4192   21.9206 C   0  0  0  0  0  0
  -23.6296   -8.2224   22.0763 C   0  0  0  0  0  0
  -22.4277   -8.0264   21.3545 C   0  0  0  0  0  0
  -21.9921   -9.0243   20.4649 C   0  0  0  0  0  0
  -22.7245  -10.2122   20.3071 C   0  0  0  0  0  0
  -21.6849   -6.0723   22.5278 C   0  0  0  0  0  0
  -21.4008   -6.5628   23.8209 C   0  0  0  0  0  0
  -21.3657   -5.6779   24.9176 C   0  0  0  0  0  0
  -21.6048   -4.3043   24.7224 C   0  0  0  0  0  0
  -21.8824   -3.8139   23.4346 C   0  0  0  0  0  0
  -21.9192   -4.6956   22.3402 C   0  0  0  0  0  0
  -22.7859  -13.5230   21.1852 C   0  0  0  0  0  0
  -22.1667   -4.2153   21.0974 F   0  0  0  0  0  0
  -21.5646   -3.4513   25.7731 F   0  0  0  0  0  0
  -30.0298  -13.3371   20.4332 N   0  0  0  0  0  0
  -26.3001  -12.9298   20.3344 N   0  0  0  0  0  0
  -25.9314  -11.6475   20.5786 N   0  0  0  0  0  0
  -22.0494  -12.8227   22.0400 N   0  0  0  0  0  0
  -25.4267  -15.1840   20.4037 N   0  0  0  0  0  0
  -31.8223  -14.7126   20.1214 O   0  0  0  0  0  0
  -21.6652   -6.8853   21.4230 O   0  0  0  0  0  0
  -22.3547  -14.5535   20.6702 O   0  0  0  0  0  0
  -24.6208  -31.8663   23.2070 C   0  0  0  0  0  0
  -25.9100  -32.4807   23.8375 C   0  0  1  0  0  0
  -27.2285  -27.3881   20.0814 C   0  0  0  0  0  0
  -25.5956  -33.8601   24.2318 N   0  0  0  0  0  0
  -23.4060  -30.4926   21.5524 C   0  0  2  0  0  0
  -24.8481  -28.9547   20.1169 C   0  0  0  0  0  0
  -22.7438  -29.4654   22.4999 C   0  0  0  0  0  0
  -18.0294  -28.1360   22.8496 C   0  0  0  0  0  0
  -24.1492  -36.7289   23.2629 C   0  0  0  0  0  0
  -25.9429  -30.8181   21.3636 C   0  0  0  0  0  0
  -26.0160  -29.4498   20.7098 C   0  0  0  0  0  0
  -27.2052  -28.6740   20.6869 C   0  0  0  0  0  0
  -26.0235  -26.9166   19.5031 C   0  0  0  0  0  0
  -24.8502  -27.6895   19.5155 C   0  0  0  0  0  0
  -23.6133  -29.8281   20.1676 C   0  0  0  0  0  0
  -25.4109  -36.3093   24.0341 C   0  0  1  0  0  0
  -20.5883  -28.3642   23.1331 C   0  0  2  0  0  0
  -20.6776  -26.9374   22.5416 C   0  0  0  0  0  0
  -19.5758  -26.6370   21.5201 C   0  0  0  0  0  0
  -18.1936  -26.7913   22.1613 C   0  0  0  0  0  0
  -19.1538  -28.8821   23.2917 C   0  0  0  0  0  0
  -18.9454  -30.1430   23.8915 C   0  0  0  0  0  0
  -17.6448  -30.6568   24.0554 C   0  0  0  0  0  0
  -25.9042  -34.9462   23.5112 C   0  0  0  0  0  0
  -16.5343  -29.9050   23.6328 C   0  0  0  0  0  0
  -16.7279  -28.6474   23.0346 C   0  0  0  0  0  0
  -26.4498  -31.6585   25.0711 C   0  0  0  0  0  0
  -25.3751  -31.3713   26.1454 C   0  0  0  0  0  0
  -27.0299  -30.3021   24.6075 C   0  0  0  0  0  0
  -27.6091  -32.4285   25.7479 C   0  0  0  0  0  0
  -27.5586  -37.1800   24.8462 C   0  0  0  0  0  0
  -21.4161  -29.3014   22.3739 N   0  0  0  0  0  0
  -26.4285  -37.3790   23.9418 N   0  0  0  0  0  0
  -24.6756  -31.0749   22.0985 N   0  0  0  0  0  0
  -23.4216  -28.8195   23.3033 O   0  0  0  0  0  0
  -28.4154  -26.6563   20.0852 O   0  0  0  0  0  0
  -26.5589  -34.8922   22.4658 O   0  0  0  0  0  0
  -23.5396  -32.1425   23.7465 O   0  0  0  0  0  0
  -29.5746  -18.9300   19.1808 C   0  0  0  0  0  0
  -30.7542  -17.8341   21.4666 C   0  0  0  0  0  0
  -30.2779  -19.8013   20.0474 C   0  0  0  0  0  0
  -29.4457  -17.5424   19.4454 C   0  0  0  0  0  0
  -30.0611  -16.9683   20.5878 C   0  0  0  0  0  0
  -30.8604  -19.2272   21.2099 C   0  0  0  0  0  0
  -30.5622  -21.2379   19.6251 C   0  0  0  0  0  0
  -28.6502  -16.6938   18.4706 C   0  0  0  0  0  0
  -25.2326  -20.7159   19.2294 C   0  0  0  0  0  0
  -29.4402  -21.6348   16.7328 C   0  0  0  0  0  0
  -27.9840  -24.4566   21.8671 C   0  0  0  0  0  0
  -30.3086  -24.3386   21.0057 C   0  0  0  0  0  0
  -26.7082  -20.9218   19.5862 C   0  0  0  0  0  0
  -27.0951  -22.4068   19.6538 C   0  0  0  0  0  0
  -29.6483  -22.6579   17.8617 C   0  0  0  0  0  0
  -28.5015  -25.3039   19.5476 C   0  0  0  0  0  0
  -28.5528  -22.6733   20.1278 C   0  0  2  0  0  0
  -28.8297  -24.1810   20.5998 C   0  0  0  0  0  0
  -29.8857  -15.5766   20.9070 N   0  0  0  0  0  0
  -29.5458  -22.0484   19.2010 N   0  0  0  0  0  0
  -31.7418  -21.5828   19.4998 O   0  0  0  0  0  0
  -31.7137  -20.1985   22.3611 Cl  0  0  0  0  0  0
  -31.4750  -12.4520   19.1283 H   0  0  0  0  0  0
  -30.3554  -11.3325   19.8529 H   0  0  0  0  0  0
  -29.7466  -11.7540   17.4528 H   0  0  0  0  0  0
  -29.6656  -13.4689   17.7493 H   0  0  0  0  0  0
  -27.8267  -11.3015   18.8199 H   0  0  0  0  0  0
  -27.3752  -12.6312   17.7854 H   0  0  0  0  0  0
  -27.6867  -14.2437   19.5563 H   0  0  0  0  0  0
  -28.6927  -11.9964   21.3644 H   0  0  0  0  0  0
  -28.4627  -13.6466   21.8536 H   0  0  0  0  0  0
  -25.2787   -9.5663   22.4772 H   0  0  0  0  0  0
  -23.9996   -7.4611   22.7484 H   0  0  0  0  0  0
  -21.0859   -8.8764   19.8954 H   0  0  0  0  0  0
  -22.3712  -10.9659   19.6172 H   0  0  0  0  0  0
  -21.1994   -7.6135   23.9706 H   0  0  0  0  0  0
  -21.1487   -6.0521   25.9074 H   0  0  0  0  0  0
  -22.0617   -2.7605   23.2851 H   0  0  0  0  0  0
  -22.4094  -11.9880   22.4780 H   0  0  0  0  0  0
  -21.1135  -13.1292   22.2639 H   0  0  0  0  0  0
  -24.6512  -15.8311   20.4923 H   0  0  0  0  0  0
  -26.2703  -15.6228   20.0615 H   0  0  0  0  0  0
  -26.7162  -32.5516   23.1122 H   0  0  0  0  0  0
  -25.0167  -33.9748   25.0511 H   0  0  0  0  0  0
  -22.6946  -31.3103   21.4180 H   0  0  0  0  0  0
  -23.3764  -35.9610   23.3263 H   0  0  0  0  0  0
  -24.3605  -36.8910   22.2048 H   0  0  0  0  0  0
  -23.7224  -37.6481   23.6648 H   0  0  0  0  0  0
  -26.0587  -31.5812   20.5930 H   0  0  0  0  0  0
  -26.8302  -30.8730   21.9824 H   0  0  0  0  0  0
  -28.1084  -29.0573   21.1412 H   0  0  0  0  0  0
  -25.9257  -25.9519   19.0367 H   0  0  0  0  0  0
  -23.9492  -27.2959   19.0657 H   0  0  0  0  0  0
  -23.7235  -30.6035   19.4088 H   0  0  0  0  0  0
  -22.7322  -29.2536   19.8738 H   0  0  0  0  0  0
  -25.1273  -36.1933   25.0834 H   0  0  0  0  0  0
  -20.9995  -28.3186   24.1444 H   0  0  0  0  0  0
  -20.5651  -26.2222   23.3584 H   0  0  0  0  0  0
  -21.6650  -26.7398   22.1215 H   0  0  0  0  0  0
  -19.6895  -25.6279   21.1224 H   0  0  0  0  0  0
  -19.6703  -27.3183   20.6734 H   0  0  0  0  0  0
  -17.4197  -26.6678   21.4016 H   0  0  0  0  0  0
  -18.0333  -26.0047   22.8998 H   0  0  0  0  0  0
  -19.7917  -30.7260   24.2288 H   0  0  0  0  0  0
  -17.4985  -31.6262   24.5127 H   0  0  0  0  0  0
  -15.5331  -30.2932   23.7659 H   0  0  0  0  0  0
  -15.8691  -28.0796   22.7037 H   0  0  0  0  0  0
  -24.5941  -30.7036   25.7796 H   0  0  0  0  0  0
  -24.8914  -32.2865   26.4877 H   0  0  0  0  0  0
  -25.8093  -30.8909   27.0223 H   0  0  0  0  0  0
  -26.2827  -29.6830   24.1088 H   0  0  0  0  0  0
  -27.4014  -29.7229   25.4534 H   0  0  0  0  0  0
  -27.8701  -30.4332   23.9254 H   0  0  0  0  0  0
  -27.2745  -33.3590   26.2080 H   0  0  0  0  0  0
  -28.3905  -32.6812   25.0303 H   0  0  0  0  0  0
  -28.0750  -31.8370   26.5367 H   0  0  0  0  0  0
  -28.2587  -38.0115   24.7532 H   0  0  0  0  0  0
  -28.1101  -36.2643   24.6244 H   0  0  0  0  0  0
  -27.2318  -37.1404   25.8871 H   0  0  0  0  0  0
  -20.9303  -29.8757   21.6995 H   0  0  0  0  0  0
  -26.0164  -38.2864   24.1408 H   0  0  0  0  0  0
  -29.1518  -19.3239   18.2703 H   0  0  0  0  0  0
  -31.2141  -17.4340   22.3587 H   0  0  0  0  0  0
  -29.1512  -15.7485   18.2675 H   0  0  0  0  0  0
  -28.5231  -17.2047   17.5167 H   0  0  0  0  0  0
  -27.6586  -16.4853   18.8697 H   0  0  0  0  0  0
  -24.9913  -19.6533   19.1739 H   0  0  0  0  0  0
  -24.9979  -21.1595   18.2609 H   0  0  0  0  0  0
  -24.5741  -21.1653   19.9739 H   0  0  0  0  0  0
  -29.4753  -22.1195   15.7570 H   0  0  0  0  0  0
  -28.4641  -21.1559   16.8131 H   0  0  0  0  0  0
  -30.2049  -20.8575   16.7361 H   0  0  0  0  0  0
  -28.2638  -25.3977   22.3408 H   0  0  0  0  0  0
  -28.1164  -23.6782   22.6196 H   0  0  0  0  0  0
  -26.9194  -24.5317   21.6489 H   0  0  0  0  0  0
  -30.5070  -25.3377   21.3944 H   0  0  0  0  0  0
  -30.9784  -24.1951   20.1575 H   0  0  0  0  0  0
  -30.5906  -23.6233   21.7787 H   0  0  0  0  0  0
  -27.3102  -20.4162   18.8362 H   0  0  0  0  0  0
  -26.9205  -20.4400   20.5415 H   0  0  0  0  0  0
  -26.3922  -22.8919   20.3283 H   0  0  0  0  0  0
  -26.9167  -22.8589   18.6778 H   0  0  0  0  0  0
  -28.8981  -23.4313   17.7220 H   0  0  0  0  0  0
  -30.6138  -23.1518   17.7415 H   0  0  0  0  0  0
  -27.6526  -25.0049   18.9487 H   0  0  0  0  0  0
  -29.3095  -25.3402   18.8186 H   0  0  0  0  0  0
  -28.6466  -22.0856   21.0436 H   0  0  0  0  0  0
  -28.9524  -15.3070   21.1795 H   0  0  0  0  0  0
  1 25  1  0  0  0
  1 30  2  0  0  0
  1 89  1  0  0  0
  2  3  1  0  0  0
  2 25  1  0  0  0
  2 93  1  0  0  0
  2 94  1  0  0  0
  3  4  1  0  0  0
  3 95  1  0  0  0
  3 96  1  0  0  0
  4  5  1  0  0  0
  4 97  1  0  0  0
  4 98  1  0  0  0
  5  6  1  0  0  0
  5 26  1  0  0  0
  5 99  1  0  0  0
  6 25  1  0  0  0
  6100  1  0  0  0
  6101  1  0  0  0
  7  8  2  0  0  0
  7 26  1  0  0  0
  7 29  1  0  0  0
  8  9  1  0  0  0
  8 22  1  0  0  0
  9 10  1  0  0  0
  9 27  2  0  0  0
 10 11  2  0  0  0
 10 15  1  0  0  0
 11 12  1  0  0  0
 11102  1  0  0  0
 12 13  2  0  0  0
 12103  1  0  0  0
 13 14  1  0  0  0
 13 31  1  0  0  0
 14 15  2  0  0  0
 14104  1  0  0  0
 15105  1  0  0  0
 16 17  2  0  0  0
 16 21  1  0  0  0
 16 31  1  0  0  0
 17 18  1  0  0  0
 17106  1  0  0  0
 18 19  2  0  0  0
 18107  1  0  0  0
 19 20  1  0  0  0
 19 24  1  0  0  0
 20 21  2  0  0  0
 20108  1  0  0  0
 21 23  1  0  0  0
 22 28  1  0  0  0
 22 32  2  0  0  0
 26 27  1  0  0  0
 28109  1  0  0  0
 28110  1  0  0  0
 29111  1  0  0  0
 29112  1  0  0  0
 33 34  1  0  0  0
 33 66  1  0  0  0
 33 70  2  0  0  0
 34 36  1  0  0  0
 34 59  1  0  0  0
 34113  1  0  0  0
 35 44  2  0  0  0
 35 45  1  0  0  0
 35 68  1  0  0  0
 36 56  1  0  0  0
 36114  1  0  0  0
 37 39  1  0  0  0
 37 47  1  0  0  0
 37 66  1  0  0  0
 37115  1  0  0  0
 38 43  2  0  0  0
 38 46  1  0  0  0
 38 47  1  0  0  0
 39 64  1  0  0  0
 39 67  2  0  0  0
 40 52  1  0  0  0
 40 53  2  0  0  0
 40 58  1  0  0  0
 41116  1  0  0  0
 41117  1  0  0  0
 41118  1  0  0  0
 41 48  1  0  0  0
 42 43  1  0  0  0
 42 66  1  0  0  0
 42119  1  0  0  0
 42120  1  0  0  0
 43 44  1  0  0  0
 44121  1  0  0  0
 45 46  2  0  0  0
 45122  1  0  0  0
 46123  1  0  0  0
 47124  1  0  0  0
 47125  1  0  0  0
 48 56  1  0  0  0
 48 65  1  0  0  0
 48126  1  0  0  0
 49 50  1  0  0  0
 49 53  1  0  0  0
 49 64  1  0  0  0
 49127  1  0  0  0
 50 51  1  0  0  0
 50128  1  0  0  0
 50129  1  0  0  0
 51 52  1  0  0  0
 51130  1  0  0  0
 51131  1  0  0  0
 52132  1  0  0  0
 52133  1  0  0  0
 53 54  1  0  0  0
 54 55  2  0  0  0
 54134  1  0  0  0
 55 57  1  0  0  0
 55135  1  0  0  0
 56 69  2  0  0  0
 57 58  2  0  0  0
 57136  1  0  0  0
 58137  1  0  0  0
 59 60  1  0  0  0
 59 61  1  0  0  0
 59 62  1  0  0  0
 60138  1  0  0  0
 60139  1  0  0  0
 60140  1  0  0  0
 61141  1  0  0  0
 61142  1  0  0  0
 61143  1  0  0  0
 62144  1  0  0  0
 62145  1  0  0  0
 62146  1  0  0  0
 63 65  1  0  0  0
 63147  1  0  0  0
 63148  1  0  0  0
 63149  1  0  0  0
 64150  1  0  0  0
 65151  1  0  0  0
 68 86  1  0  0  0
 71 73  2  0  0  0
 71 74  1  0  0  0
 71152  1  0  0  0
 72 75  1  0  0  0
 72 76  2  0  0  0
 72153  1  0  0  0
 73 76  1  0  0  0
 73 77  1  0  0  0
 74 75  2  0  0  0
 74 78  1  0  0  0
 75 89  1  0  0  0
 76 92  1  0  0  0
 77 90  1  0  0  0
 77 91  2  0  0  0
 78154  1  0  0  0
 78155  1  0  0  0
 78156  1  0  0  0
 79 83  1  0  0  0
 79157  1  0  0  0
 79158  1  0  0  0
 79159  1  0  0  0
 80 85  1  0  0  0
 80160  1  0  0  0
 80161  1  0  0  0
 80162  1  0  0  0
 81163  1  0  0  0
 81164  1  0  0  0
 81165  1  0  0  0
 81 88  1  0  0  0
 82 88  1  0  0  0
 82166  1  0  0  0
 82167  1  0  0  0
 82168  1  0  0  0
 83 84  1  0  0  0
 83169  1  0  0  0
 83170  1  0  0  0
 84171  1  0  0  0
 84172  1  0  0  0
 84 87  1  0  0  0
 85 90  1  0  0  0
 85173  1  0  0  0
 85174  1  0  0  0
 86 88  1  0  0  0
 86175  1  0  0  0
 86176  1  0  0  0
 87 88  1  0  0  0
 87 90  1  0  0  0
 87177  1  0  0  0
 89178  1  0  0  0
M  ISO  4   1 100  68 101  86 101  89 100
M  END
> <chiral flag>
0

> <version>
0

> <s_m_source_file>
/data/baiqing/PycharmProjects/Reinvent-master-3.2/result/LINK_invent/BTK/process_docking_weight1_custom_sum_contain_oxygen_bond_distance_aromatic_linkinvent_7_9_3/rearranged_h_0018.sdf

> <i_m_source_file_index>
70

> <r_mmod_Potential_Energy-OPLS-2005>
217.371780395508

> <r_mmod_Stretch_Energy-OPLS-2005>
61.2346229553223

> <r_mmod_Bend_Energy-OPLS-2005>
134.767288208008

> <r_mmod_Torsional_Energy-OPLS-2005>
383.296234130859

> <r_mmod_Improper_Torsional_Energy-OPLS-2005>
9.79853057861328

> <r_mmod_Van_der_Waal_Energy-OPLS-2005>
141.160568237305

> <r_mmod_Electrostatic_Energy-OPLS-2005>
-325.016967773438

> <r_mmod_Solvation_Energy-OPLS-2005>
-209.842559814453

> <b_mmod_Minimization_Converged-OPLS-2005>
0

> <r_mmod_RMS_Derivative-OPLS-2005>
2.45010447502136

$$$$
71
                    3D
 Structure written by MMmdl.
151159  0  0  1  0            999 V2000
  -30.4087  -15.3285   20.3710 C   0  0  0  0  0  0
  -30.4417  -12.8598   19.5093 C   0  0  0  0  0  0
  -29.5355  -12.5806   18.2832 C   0  0  0  0  0  0
  -28.0900  -12.2894   18.7248 C   0  0  0  0  0  0
  -27.6089  -13.2746   19.8182 C   0  0  2  0  0  0
  -28.6469  -13.4791   20.9415 C   0  0  0  0  0  0
  -25.2408  -13.8240   20.5780 C   0  0  0  0  0  0
  -24.1755  -13.0439   20.9275 C   0  0  0  0  0  0
  -24.6406  -11.6934   20.8773 C   0  0  0  0  0  0
  -23.9090  -10.4298   21.0408 C   0  0  0  0  0  0
  -24.3626   -9.4210   21.9190 C   0  0  0  0  0  0
  -23.6294   -8.2250   22.0764 C   0  0  0  0  0  0
  -22.4284   -8.0289   21.3541 C   0  0  0  0  0  0
  -21.9916   -9.0270   20.4654 C   0  0  0  0  0  0
  -22.7254  -10.2144   20.3063 C   0  0  0  0  0  0
  -21.6855   -6.0739   22.5275 C   0  0  0  0  0  0
  -21.4021   -6.5644   23.8208 C   0  0  0  0  0  0
  -21.3655   -5.6792   24.9169 C   0  0  0  0  0  0
  -21.6038   -4.3057   24.7217 C   0  0  0  0  0  0
  -21.8819   -3.8153   23.4340 C   0  0  0  0  0  0
  -21.9197   -4.6969   22.3399 C   0  0  0  0  0  0
  -22.7769  -13.5201   21.1900 C   0  0  0  0  0  0
  -22.1663   -4.2159   21.0974 F   0  0  0  0  0  0
  -21.5620   -3.4545   25.7729 F   0  0  0  0  0  0
  -29.8581  -14.0119   20.2928 N   0  0  0  0  0  0
  -26.2822  -12.9505   20.3241 N   0  0  0  0  0  0
  -25.9345  -11.6614   20.5741 N   0  0  0  0  0  0
  -22.0407  -12.8200   22.0447 N   0  0  0  0  0  0
  -25.4053  -15.1979   20.4227 N   0  0  0  0  0  0
  -31.6444  -15.3208   20.2592 O   0  0  0  0  0  0
  -21.6647   -6.8889   21.4240 O   0  0  0  0  0  0
  -22.3459  -14.5506   20.6735 O   0  0  0  0  0  0
  -24.6669  -31.8199   23.1648 C   0  0  0  0  0  0
  -25.9324  -32.4579   23.8141 C   0  0  1  0  0  0
  -27.2115  -26.8741   20.1936 C   0  0  0  0  0  0
  -25.5982  -33.8391   24.2045 N   0  0  0  0  0  0
  -23.4841  -30.4300   21.5179 C   0  0  2  0  0  0
  -24.9365  -28.8032   20.1186 C   0  0  0  0  0  0
  -22.7697  -29.4418   22.4774 C   0  0  0  0  0  0
  -18.0330  -28.1414   22.8464 C   0  0  0  0  0  0
  -24.1487  -36.7189   23.2660 C   0  0  0  0  0  0
  -26.0588  -30.6047   21.4063 C   0  0  0  0  0  0
  -26.1245  -29.1890   20.7523 C   0  0  0  0  0  0
  -27.2596  -28.2497   20.7597 C   0  0  0  0  0  0
  -25.9937  -26.6528   19.5126 C   0  0  0  0  0  0
  -24.8978  -27.5556   19.4784 C   0  0  0  0  0  0
  -23.7280  -29.7415   20.1477 C   0  0  0  0  0  0
  -25.4141  -36.2959   24.0297 C   0  0  1  0  0  0
  -20.5957  -28.3761   23.1191 C   0  0  2  0  0  0
  -20.6807  -26.9435   22.5416 C   0  0  0  0  0  0
  -19.5776  -26.6368   21.5237 C   0  0  0  0  0  0
  -18.1952  -26.7947   22.1617 C   0  0  0  0  0  0
  -19.1589  -28.8909   23.2810 C   0  0  0  0  0  0
  -18.9510  -30.1498   23.8846 C   0  0  0  0  0  0
  -17.6501  -30.6603   24.0558 C   0  0  0  0  0  0
  -25.9108  -34.9349   23.4995 C   0  0  0  0  0  0
  -16.5394  -29.9084   23.6364 C   0  0  0  0  0  0
  -16.7313  -28.6503   23.0371 C   0  0  0  0  0  0
  -26.4547  -31.6550   25.0703 C   0  0  0  0  0  0
  -25.3637  -31.3817   26.1330 C   0  0  0  0  0  0
  -27.0477  -30.2917   24.6487 C   0  0  0  0  0  0
  -27.6053  -32.4379   25.7472 C   0  0  0  0  0  0
  -27.5555  -37.1761   24.8483 C   0  0  0  0  0  0
  -21.4362  -29.3037   22.3529 N   0  0  0  0  0  0
  -26.4290  -37.3694   23.9392 N   0  0  0  0  0  0
  -24.7584  -30.9804   22.0822 N   0  0  0  0  0  0
  -23.4223  -28.7993   23.3037 O   0  0  0  0  0  0
  -28.2066  -25.7446   20.1998 O   0  0  0  0  0  0
  -26.5729  -34.8901   22.4602 O   0  0  0  0  0  0
  -23.5731  -32.1204   23.6710 O   0  0  0  0  0  0
  -29.5082  -21.2622   18.0437 C   0  0  0  0  0  0
  -29.3273  -19.8288   20.0669 C   0  0  0  0  0  0
  -28.6627  -22.5825   19.9887 C   0  0  0  0  0  0
  -29.6379  -19.9935   18.6963 C   0  0  0  0  0  0
  -29.0539  -22.4759   18.6339 C   0  0  0  0  0  0
  -28.8311  -21.1852   20.6607 C   0  0  0  0  0  0
  -30.0349  -18.8432   16.6230 C   0  0  0  0  0  0
  -29.7322  -18.2485   20.7682 C   0  0  0  0  0  0
  -27.9226  -24.1182   20.4829 C   0  0  0  0  0  0
  -29.6198  -16.6024   20.3772 N   0  0  0  0  0  0
  -30.1117  -18.8738   18.0441 O   0  0  0  0  0  0
  -28.9487  -23.8632   17.6079 Cl  0  0  0  0  0  0
  -28.3935  -21.1261   22.3301 Cl  0  0  0  0  0  0
  -31.4528  -13.0896   19.1688 H   0  0  0  0  0  0
  -30.5362  -11.9703   20.1335 H   0  0  0  0  0  0
  -29.9270  -11.7442   17.7026 H   0  0  0  0  0  0
  -29.5483  -13.4483   17.6221 H   0  0  0  0  0  0
  -28.0671  -11.2726   19.1195 H   0  0  0  0  0  0
  -27.4150  -12.3002   17.8687 H   0  0  0  0  0  0
  -27.5129  -14.2335   19.3062 H   0  0  0  0  0  0
  -28.8441  -12.5533   21.4850 H   0  0  0  0  0  0
  -28.2802  -14.1993   21.6751 H   0  0  0  0  0  0
  -25.2770   -9.5696   22.4778 H   0  0  0  0  0  0
  -24.0003   -7.4647   22.7498 H   0  0  0  0  0  0
  -21.0846   -8.8801   19.8967 H   0  0  0  0  0  0
  -22.3711  -10.9693   19.6191 H   0  0  0  0  0  0
  -21.2015   -7.6156   23.9712 H   0  0  0  0  0  0
  -21.1468   -6.0526   25.9069 H   0  0  0  0  0  0
  -22.0596   -2.7619   23.2838 H   0  0  0  0  0  0
  -22.4005  -11.9858   22.4842 H   0  0  0  0  0  0
  -21.1039  -13.1250   22.2659 H   0  0  0  0  0  0
  -24.6363  -15.8481   20.5422 H   0  0  0  0  0  0
  -26.2438  -15.6399   20.0726 H   0  0  0  0  0  0
  -26.7401  -32.5096   23.0864 H   0  0  0  0  0  0
  -25.0106  -33.9460   25.0184 H   0  0  0  0  0  0
  -22.8002  -31.2624   21.3412 H   0  0  0  0  0  0
  -23.3756  -35.9517   23.3373 H   0  0  0  0  0  0
  -24.3535  -36.8778   22.2062 H   0  0  0  0  0  0
  -23.7262  -37.6397   23.6689 H   0  0  0  0  0  0
  -26.2515  -31.3382   20.6230 H   0  0  0  0  0  0
  -26.9139  -30.6604   22.0679 H   0  0  0  0  0  0
  -28.1629  -28.5448   21.2752 H   0  0  0  0  0  0
  -25.8591  -25.7042   19.0128 H   0  0  0  0  0  0
  -23.9971  -27.2511   18.9626 H   0  0  0  0  0  0
  -23.8921  -30.5072   19.3888 H   0  0  0  0  0  0
  -22.8351  -29.2014   19.8264 H   0  0  0  0  0  0
  -25.1340  -36.1764   25.0791 H   0  0  0  0  0  0
  -21.0049  -28.3375   24.1315 H   0  0  0  0  0  0
  -20.5720  -26.2365   23.3654 H   0  0  0  0  0  0
  -21.6663  -26.7414   22.1203 H   0  0  0  0  0  0
  -19.6947  -25.6259   21.1284 H   0  0  0  0  0  0
  -19.6735  -27.3166   20.6751 H   0  0  0  0  0  0
  -17.4235  -26.6735   21.3996 H   0  0  0  0  0  0
  -18.0319  -26.0080   22.9005 H   0  0  0  0  0  0
  -19.7990  -30.7328   24.2178 H   0  0  0  0  0  0
  -17.5057  -31.6284   24.5169 H   0  0  0  0  0  0
  -15.5392  -30.2974   23.7710 H   0  0  0  0  0  0
  -15.8710  -28.0809   22.7116 H   0  0  0  0  0  0
  -24.5863  -30.7132   25.7617 H   0  0  0  0  0  0
  -24.8770  -32.3009   26.4601 H   0  0  0  0  0  0
  -25.7816  -30.9081   27.0222 H   0  0  0  0  0  0
  -26.3170  -29.6563   24.1473 H   0  0  0  0  0  0
  -27.3980  -29.7321   25.5168 H   0  0  0  0  0  0
  -27.9106  -30.4111   23.9940 H   0  0  0  0  0  0
  -27.2661  -33.3777   26.1853 H   0  0  0  0  0  0
  -28.3926  -32.6789   25.0317 H   0  0  0  0  0  0
  -28.0640  -31.8628   26.5524 H   0  0  0  0  0  0
  -28.2615  -38.0006   24.7438 H   0  0  0  0  0  0
  -28.0989  -36.2526   24.6427 H   0  0  0  0  0  0
  -27.2243  -37.1560   25.8879 H   0  0  0  0  0  0
  -20.9639  -29.8721   21.6638 H   0  0  0  0  0  0
  -26.0136  -38.2760   24.1371 H   0  0  0  0  0  0
  -29.7783  -21.3449   17.0027 H   0  0  0  0  0  0
  -30.3020  -17.8490   16.2649 H   0  0  0  0  0  0
  -30.7266  -19.5480   16.1601 H   0  0  0  0  0  0
  -29.0188  -19.0509   16.2828 H   0  0  0  0  0  0
  -29.2336  -18.2903   21.7367 H   0  0  0  0  0  0
  -30.7867  -18.3621   21.0196 H   0  0  0  0  0  0
  -27.8616  -24.0432   21.5678 H   0  0  0  0  0  0
  -26.8904  -23.9804   20.1599 H   0  0  0  0  0  0
  -28.6469  -16.3586   20.2694 H   0  0  0  0  0  0
  1 25  1  0  0  0
  1 30  2  0  0  0
  1 80  1  0  0  0
  2  3  1  0  0  0
  2 25  1  0  0  0
  2 84  1  0  0  0
  2 85  1  0  0  0
  3  4  1  0  0  0
  3 86  1  0  0  0
  3 87  1  0  0  0
  4  5  1  0  0  0
  4 88  1  0  0  0
  4 89  1  0  0  0
  5  6  1  0  0  0
  5 26  1  0  0  0
  5 90  1  0  0  0
  6 25  1  0  0  0
  6 91  1  0  0  0
  6 92  1  0  0  0
  7  8  2  0  0  0
  7 26  1  0  0  0
  7 29  1  0  0  0
  8  9  1  0  0  0
  8 22  1  0  0  0
  9 10  1  0  0  0
  9 27  2  0  0  0
 10 11  2  0  0  0
 10 15  1  0  0  0
 11 12  1  0  0  0
 11 93  1  0  0  0
 12 13  2  0  0  0
 12 94  1  0  0  0
 13 14  1  0  0  0
 13 31  1  0  0  0
 14 15  2  0  0  0
 14 95  1  0  0  0
 15 96  1  0  0  0
 16 17  2  0  0  0
 16 21  1  0  0  0
 16 31  1  0  0  0
 17 18  1  0  0  0
 17 97  1  0  0  0
 18 19  2  0  0  0
 18 98  1  0  0  0
 19 20  1  0  0  0
 19 24  1  0  0  0
 20 21  2  0  0  0
 20 99  1  0  0  0
 21 23  1  0  0  0
 22 28  1  0  0  0
 22 32  2  0  0  0
 26 27  1  0  0  0
 28100  1  0  0  0
 28101  1  0  0  0
 29102  1  0  0  0
 29103  1  0  0  0
 33 34  1  0  0  0
 33 66  1  0  0  0
 33 70  2  0  0  0
 34 36  1  0  0  0
 34 59  1  0  0  0
 34104  1  0  0  0
 35 44  2  0  0  0
 35 45  1  0  0  0
 35 68  1  0  0  0
 36 56  1  0  0  0
 36105  1  0  0  0
 37 39  1  0  0  0
 37 47  1  0  0  0
 37 66  1  0  0  0
 37106  1  0  0  0
 38 43  2  0  0  0
 38 46  1  0  0  0
 38 47  1  0  0  0
 39 64  1  0  0  0
 39 67  2  0  0  0
 40 52  1  0  0  0
 40 53  2  0  0  0
 40 58  1  0  0  0
 41107  1  0  0  0
 41108  1  0  0  0
 41109  1  0  0  0
 41 48  1  0  0  0
 42 43  1  0  0  0
 42 66  1  0  0  0
 42110  1  0  0  0
 42111  1  0  0  0
 43 44  1  0  0  0
 44112  1  0  0  0
 45 46  2  0  0  0
 45113  1  0  0  0
 46114  1  0  0  0
 47115  1  0  0  0
 47116  1  0  0  0
 48 56  1  0  0  0
 48 65  1  0  0  0
 48117  1  0  0  0
 49 50  1  0  0  0
 49 53  1  0  0  0
 49 64  1  0  0  0
 49118  1  0  0  0
 50 51  1  0  0  0
 50119  1  0  0  0
 50120  1  0  0  0
 51 52  1  0  0  0
 51121  1  0  0  0
 51122  1  0  0  0
 52123  1  0  0  0
 52124  1  0  0  0
 53 54  1  0  0  0
 54 55  2  0  0  0
 54125  1  0  0  0
 55 57  1  0  0  0
 55126  1  0  0  0
 56 69  2  0  0  0
 57 58  2  0  0  0
 57127  1  0  0  0
 58128  1  0  0  0
 59 60  1  0  0  0
 59 61  1  0  0  0
 59 62  1  0  0  0
 60129  1  0  0  0
 60130  1  0  0  0
 60131  1  0  0  0
 61132  1  0  0  0
 61133  1  0  0  0
 61134  1  0  0  0
 62135  1  0  0  0
 62136  1  0  0  0
 62137  1  0  0  0
 63 65  1  0  0  0
 63138  1  0  0  0
 63139  1  0  0  0
 63140  1  0  0  0
 64141  1  0  0  0
 65142  1  0  0  0
 68 79  1  0  0  0
 71 74  2  0  0  0
 71 75  1  0  0  0
 71143  1  0  0  0
 72 74  1  0  0  0
 72 76  2  0  0  0
 72 78  1  0  0  0
 73 75  2  0  0  0
 73 76  1  0  0  0
 73 79  1  0  0  0
 74 81  1  0  0  0
 75 82  1  0  0  0
 76 83  1  0  0  0
 77 81  1  0  0  0
 77144  1  0  0  0
 77145  1  0  0  0
 77146  1  0  0  0
 78 80  1  0  0  0
 78147  1  0  0  0
 78148  1  0  0  0
 79149  1  0  0  0
 79150  1  0  0  0
 80151  1  0  0  0
M  ISO  4   1 100  68 101  79 101  80 100
M  END
> <chiral flag>
0

> <version>
0

> <s_m_source_file>
/data/baiqing/PycharmProjects/Reinvent-master-3.2/result/LINK_invent/BTK/process_docking_weight1_custom_sum_contain_oxygen_bond_distance_aromatic_linkinvent_7_9_3/rearranged_h_0018.sdf

> <i_m_source_file_index>
71

> <r_mmod_Potential_Energy-OPLS-2005>
1436.68762207031

> <r_mmod_Stretch_Energy-OPLS-2005>
652.468078613281

> <r_mmod_Bend_Energy-OPLS-2005>
457.912750244141

> <r_mmod_Torsional_Energy-OPLS-2005>
240.425109863281

> <r_mmod_Improper_Torsional_Energy-OPLS-2005>
6.20211172103882

> <r_mmod_Van_der_Waal_Energy-OPLS-2005>
125.320251464844

> <r_mmod_Electrostatic_Energy-OPLS-2005>
-357.353637695312

> <r_mmod_Solvation_Energy-OPLS-2005>
-222.456787109375

> <b_mmod_Minimization_Converged-OPLS-2005>
0

> <r_mmod_RMS_Derivative-OPLS-2005>
2.59378242492676

$$$$
72
                    3D
 Structure written by MMmdl.
153161  0  0  1  0            999 V2000
  -30.2980  -15.6017   20.3309 C   0  0  0  0  0  0
  -30.4308  -13.0518   19.5458 C   0  0  0  0  0  0
  -29.5534  -12.6523   18.3244 C   0  0  0  0  0  0
  -28.1233  -12.3007   18.7632 C   0  0  0  0  0  0
  -27.6001  -13.3039   19.8163 C   0  0  2  0  0  0
  -28.6165  -13.6137   20.9407 C   0  0  0  0  0  0
  -25.2339  -13.8278   20.5779 C   0  0  0  0  0  0
  -24.1724  -13.0433   20.9281 C   0  0  0  0  0  0
  -24.6420  -11.6942   20.8760 C   0  0  0  0  0  0
  -23.9121  -10.4290   21.0392 C   0  0  0  0  0  0
  -24.3656   -9.4203   21.9176 C   0  0  0  0  0  0
  -23.6317   -8.2244   22.0751 C   0  0  0  0  0  0
  -22.4297   -8.0287   21.3543 C   0  0  0  0  0  0
  -21.9942   -9.0262   20.4644 C   0  0  0  0  0  0
  -22.7284  -10.2133   20.3050 C   0  0  0  0  0  0
  -21.6861   -6.0741   22.5280 C   0  0  0  0  0  0
  -21.4019   -6.5641   23.8214 C   0  0  0  0  0  0
  -21.3661   -5.6792   24.9174 C   0  0  0  0  0  0
  -21.6043   -4.3055   24.7223 C   0  0  0  0  0  0
  -21.8819   -3.8150   23.4344 C   0  0  0  0  0  0
  -21.9196   -4.6968   22.3401 C   0  0  0  0  0  0
  -22.7737  -13.5167   21.1918 C   0  0  0  0  0  0
  -22.1663   -4.2153   21.0978 F   0  0  0  0  0  0
  -21.5628   -3.4537   25.7735 F   0  0  0  0  0  0
  -29.8009  -14.2276   20.2978 N   0  0  0  0  0  0
  -26.2787  -12.9602   20.3226 N   0  0  0  0  0  0
  -25.9366  -11.6676   20.5697 N   0  0  0  0  0  0
  -22.0400  -12.8144   22.0470 N   0  0  0  0  0  0
  -25.3927  -15.2018   20.4209 N   0  0  0  0  0  0
  -31.5269  -15.5741   20.1272 O   0  0  0  0  0  0
  -21.6652   -6.8889   21.4244 O   0  0  0  0  0  0
  -22.3410  -14.5464   20.6754 O   0  0  0  0  0  0
  -24.6831  -31.8005   23.1520 C   0  0  0  0  0  0
  -25.9416  -32.4470   23.8062 C   0  0  1  0  0  0
  -27.2270  -26.7126   20.2116 C   0  0  0  0  0  0
  -25.5999  -33.8295   24.1952 N   0  0  0  0  0  0
  -23.5090  -30.4026   21.5058 C   0  0  2  0  0  0
  -24.9673  -28.7466   20.1166 C   0  0  0  0  0  0
  -22.7764  -29.4315   22.4712 C   0  0  0  0  0  0
  -18.0340  -28.1428   22.8453 C   0  0  0  0  0  0
  -24.1494  -36.7151   23.2652 C   0  0  0  0  0  0
  -26.0893  -30.5362   21.4157 C   0  0  0  0  0  0
  -26.1558  -29.1023   20.7655 C   0  0  0  0  0  0
  -27.2712  -28.1127   20.7822 C   0  0  0  0  0  0
  -26.0070  -26.5657   19.5039 C   0  0  0  0  0  0
  -24.9313  -27.5036   19.4624 C   0  0  0  0  0  0
  -23.7628  -29.7007   20.1405 C   0  0  0  0  0  0
  -25.4143  -36.2893   24.0284 C   0  0  1  0  0  0
  -20.5975  -28.3784   23.1150 C   0  0  2  0  0  0
  -20.6806  -26.9441   22.5417 C   0  0  0  0  0  0
  -19.5789  -26.6374   21.5223 C   0  0  0  0  0  0
  -18.1964  -26.7960   22.1608 C   0  0  0  0  0  0
  -19.1606  -28.8931   23.2782 C   0  0  0  0  0  0
  -18.9511  -30.1513   23.8830 C   0  0  0  0  0  0
  -17.6502  -30.6609   24.0556 C   0  0  0  0  0  0
  -25.9124  -34.9285   23.4953 C   0  0  0  0  0  0
  -16.5391  -29.9089   23.6354 C   0  0  0  0  0  0
  -16.7320  -28.6514   23.0364 C   0  0  0  0  0  0
  -26.4597  -31.6501   25.0680 C   0  0  0  0  0  0
  -25.3662  -31.3835   26.1298 C   0  0  0  0  0  0
  -27.0516  -30.2833   24.6581 C   0  0  0  0  0  0
  -27.6058  -32.4356   25.7487 C   0  0  0  0  0  0
  -27.5566  -37.1730   24.8463 C   0  0  0  0  0  0
  -21.4413  -29.3027   22.3465 N   0  0  0  0  0  0
  -26.4267  -37.3655   23.9414 N   0  0  0  0  0  0
  -24.7838  -30.9457   22.0770 N   0  0  0  0  0  0
  -23.4210  -28.7916   23.3054 O   0  0  0  0  0  0
  -28.1786  -25.4884   20.2976 O   0  0  0  0  0  0
  -26.5761  -34.8863   22.4568 O   0  0  0  0  0  0
  -23.5850  -32.1073   23.6478 O   0  0  0  0  0  0
  -28.9860  -21.0792   19.1925 C   0  0  0  0  0  0
  -28.6340  -22.0687   20.2519 C   0  0  0  0  0  0
  -29.3204  -19.5837   19.2293 C   0  0  0  0  0  0
  -28.7150  -21.1248   21.4081 C   0  0  0  0  0  0
  -29.0447  -19.6139   21.4611 C   0  0  0  0  0  0
  -29.3943  -18.6383   20.3774 C   0  0  0  0  0  0
  -29.5499  -18.9383   17.8765 C   0  0  0  0  0  0
  -28.3590  -21.7878   22.7334 C   0  0  0  0  0  0
  -28.9791  -18.9698   22.8412 C   0  0  0  0  0  0
  -27.8851  -23.7782   20.0781 C   0  0  0  0  0  0
  -29.4746  -16.9157   20.4372 N   0  0  0  0  0  0
  -31.4273  -13.3118   19.1870 H   0  0  0  0  0  0
  -30.5822  -12.1987   20.2093 H   0  0  0  0  0  0
  -30.0012  -11.8138   17.7894 H   0  0  0  0  0  0
  -29.5215  -13.4847   17.6199 H   0  0  0  0  0  0
  -28.1441  -11.2992   19.1946 H   0  0  0  0  0  0
  -27.4549  -12.2528   17.9025 H   0  0  0  0  0  0
  -27.4708  -14.2320   19.2579 H   0  0  0  0  0  0
  -28.8647  -12.7230   21.5196 H   0  0  0  0  0  0
  -28.1888  -14.3288   21.6452 H   0  0  0  0  0  0
  -25.2795   -9.5676   22.4762 H   0  0  0  0  0  0
  -24.0018   -7.4636   22.7474 H   0  0  0  0  0  0
  -21.0869   -8.8789   19.8954 H   0  0  0  0  0  0
  -22.3740  -10.9674   19.6163 H   0  0  0  0  0  0
  -21.2015   -7.6150   23.9720 H   0  0  0  0  0  0
  -21.1480   -6.0520   25.9076 H   0  0  0  0  0  0
  -22.0598   -2.7612   23.2845 H   0  0  0  0  0  0
  -22.4045  -11.9828   22.4875 H   0  0  0  0  0  0
  -21.1008  -13.1139   22.2661 H   0  0  0  0  0  0
  -24.6157  -15.8451   20.5274 H   0  0  0  0  0  0
  -26.2217  -15.6427   20.0460 H   0  0  0  0  0  0
  -26.7493  -32.4944   23.0771 H   0  0  0  0  0  0
  -25.0080  -33.9340   25.0061 H   0  0  0  0  0  0
  -22.8339  -31.2397   21.3165 H   0  0  0  0  0  0
  -23.3780  -35.9456   23.3253 H   0  0  0  0  0  0
  -24.3561  -36.8871   22.2078 H   0  0  0  0  0  0
  -23.7230  -37.6304   23.6767 H   0  0  0  0  0  0
  -26.2919  -31.2617   20.6268 H   0  0  0  0  0  0
  -26.9400  -30.6033   22.0812 H   0  0  0  0  0  0
  -28.1630  -28.3891   21.3268 H   0  0  0  0  0  0
  -25.8396  -25.6238   19.0014 H   0  0  0  0  0  0
  -24.0344  -27.2222   18.9277 H   0  0  0  0  0  0
  -23.9377  -30.4614   19.3790 H   0  0  0  0  0  0
  -22.8679  -29.1669   19.8157 H   0  0  0  0  0  0
  -25.1350  -36.1654   25.0774 H   0  0  0  0  0  0
  -21.0059  -28.3416   24.1275 H   0  0  0  0  0  0
  -20.5665  -26.2409   23.3681 H   0  0  0  0  0  0
  -21.6671  -26.7381   22.1243 H   0  0  0  0  0  0
  -19.6947  -25.6265   21.1301 H   0  0  0  0  0  0
  -19.6748  -27.3144   20.6724 H   0  0  0  0  0  0
  -17.4245  -26.6726   21.3994 H   0  0  0  0  0  0
  -18.0328  -26.0112   22.9008 H   0  0  0  0  0  0
  -19.7986  -30.7347   24.2170 H   0  0  0  0  0  0
  -17.5051  -31.6279   24.5174 H   0  0  0  0  0  0
  -15.5388  -30.2968   23.7721 H   0  0  0  0  0  0
  -15.8720  -28.0811   22.7115 H   0  0  0  0  0  0
  -24.5911  -30.7097   25.7626 H   0  0  0  0  0  0
  -24.8771  -32.3054   26.4456 H   0  0  0  0  0  0
  -25.7843  -30.9209   27.0246 H   0  0  0  0  0  0
  -26.3224  -29.6458   24.1571 H   0  0  0  0  0  0
  -27.3931  -29.7274   25.5324 H   0  0  0  0  0  0
  -27.9212  -30.3948   24.0103 H   0  0  0  0  0  0
  -27.2621  -33.3750   26.1832 H   0  0  0  0  0  0
  -28.3981  -32.6765   25.0386 H   0  0  0  0  0  0
  -28.0596  -31.8634   26.5589 H   0  0  0  0  0  0
  -28.2547  -38.0057   24.7508 H   0  0  0  0  0  0
  -28.1094  -36.2582   24.6282 H   0  0  0  0  0  0
  -27.2287  -37.1355   25.8865 H   0  0  0  0  0  0
  -20.9718  -29.8679   21.6528 H   0  0  0  0  0  0
  -26.0093  -38.2700   24.1438 H   0  0  0  0  0  0
  -28.9395  -21.5006   18.1980 H   0  0  0  0  0  0
  -29.8652  -19.6683   17.1308 H   0  0  0  0  0  0
  -28.6334  -18.4634   17.5257 H   0  0  0  0  0  0
  -30.3259  -18.1746   17.9385 H   0  0  0  0  0  0
  -28.1879  -22.8585   22.6253 H   0  0  0  0  0  0
  -29.1673  -21.6760   23.4557 H   0  0  0  0  0  0
  -27.4508  -21.3565   23.1544 H   0  0  0  0  0  0
  -29.6848  -19.4442   23.5226 H   0  0  0  0  0  0
  -29.2315  -17.9107   22.8224 H   0  0  0  0  0  0
  -27.9771  -19.0534   23.2617 H   0  0  0  0  0  0
  -26.9546  -23.6544   20.6324 H   0  0  0  0  0  0
  -27.5591  -23.7551   19.0383 H   0  0  0  0  0  0
  -28.5469  -16.5838   20.6566 H   0  0  0  0  0  0
  1 25  1  0  0  0
  1 30  2  0  0  0
  1 81  1  0  0  0
  2  3  1  0  0  0
  2 25  1  0  0  0
  2 82  1  0  0  0
  2 83  1  0  0  0
  3  4  1  0  0  0
  3 84  1  0  0  0
  3 85  1  0  0  0
  4  5  1  0  0  0
  4 86  1  0  0  0
  4 87  1  0  0  0
  5  6  1  0  0  0
  5 26  1  0  0  0
  5 88  1  0  0  0
  6 25  1  0  0  0
  6 89  1  0  0  0
  6 90  1  0  0  0
  7  8  2  0  0  0
  7 26  1  0  0  0
  7 29  1  0  0  0
  8  9  1  0  0  0
  8 22  1  0  0  0
  9 10  1  0  0  0
  9 27  2  0  0  0
 10 11  2  0  0  0
 10 15  1  0  0  0
 11 12  1  0  0  0
 11 91  1  0  0  0
 12 13  2  0  0  0
 12 92  1  0  0  0
 13 14  1  0  0  0
 13 31  1  0  0  0
 14 15  2  0  0  0
 14 93  1  0  0  0
 15 94  1  0  0  0
 16 17  2  0  0  0
 16 21  1  0  0  0
 16 31  1  0  0  0
 17 18  1  0  0  0
 17 95  1  0  0  0
 18 19  2  0  0  0
 18 96  1  0  0  0
 19 20  1  0  0  0
 19 24  1  0  0  0
 20 21  2  0  0  0
 20 97  1  0  0  0
 21 23  1  0  0  0
 22 28  1  0  0  0
 22 32  2  0  0  0
 26 27  1  0  0  0
 28 98  1  0  0  0
 28 99  1  0  0  0
 29100  1  0  0  0
 29101  1  0  0  0
 33 34  1  0  0  0
 33 66  1  0  0  0
 33 70  2  0  0  0
 34 36  1  0  0  0
 34 59  1  0  0  0
 34102  1  0  0  0
 35 44  2  0  0  0
 35 45  1  0  0  0
 35 68  1  0  0  0
 36 56  1  0  0  0
 36103  1  0  0  0
 37 39  1  0  0  0
 37 47  1  0  0  0
 37 66  1  0  0  0
 37104  1  0  0  0
 38 43  2  0  0  0
 38 46  1  0  0  0
 38 47  1  0  0  0
 39 64  1  0  0  0
 39 67  2  0  0  0
 40 52  1  0  0  0
 40 53  2  0  0  0
 40 58  1  0  0  0
 41105  1  0  0  0
 41106  1  0  0  0
 41107  1  0  0  0
 41 48  1  0  0  0
 42 43  1  0  0  0
 42 66  1  0  0  0
 42108  1  0  0  0
 42109  1  0  0  0
 43 44  1  0  0  0
 44110  1  0  0  0
 45 46  2  0  0  0
 45111  1  0  0  0
 46112  1  0  0  0
 47113  1  0  0  0
 47114  1  0  0  0
 48 56  1  0  0  0
 48 65  1  0  0  0
 48115  1  0  0  0
 49 50  1  0  0  0
 49 53  1  0  0  0
 49 64  1  0  0  0
 49116  1  0  0  0
 50 51  1  0  0  0
 50117  1  0  0  0
 50118  1  0  0  0
 51 52  1  0  0  0
 51119  1  0  0  0
 51120  1  0  0  0
 52121  1  0  0  0
 52122  1  0  0  0
 53 54  1  0  0  0
 54 55  2  0  0  0
 54123  1  0  0  0
 55 57  1  0  0  0
 55124  1  0  0  0
 56 69  2  0  0  0
 57 58  2  0  0  0
 57125  1  0  0  0
 58126  1  0  0  0
 59 60  1  0  0  0
 59 61  1  0  0  0
 59 62  1  0  0  0
 60127  1  0  0  0
 60128  1  0  0  0
 60129  1  0  0  0
 61130  1  0  0  0
 61131  1  0  0  0
 61132  1  0  0  0
 62133  1  0  0  0
 62134  1  0  0  0
 62135  1  0  0  0
 63 65  1  0  0  0
 63136  1  0  0  0
 63137  1  0  0  0
 63138  1  0  0  0
 64139  1  0  0  0
 65140  1  0  0  0
 68 80  1  0  0  0
 71 72  2  0  0  0
 71 73  1  0  0  0
 71141  1  0  0  0
 72 74  1  0  0  0
 72 80  1  0  0  0
 73 76  2  0  0  0
 73 77  1  0  0  0
 74 75  2  0  0  0
 74 78  1  0  0  0
 75 76  1  0  0  0
 75 79  1  0  0  0
 76 81  1  0  0  0
 77142  1  0  0  0
 77143  1  0  0  0
 77144  1  0  0  0
 78145  1  0  0  0
 78146  1  0  0  0
 78147  1  0  0  0
 79148  1  0  0  0
 79149  1  0  0  0
 79150  1  0  0  0
 80151  1  0  0  0
 80152  1  0  0  0
 81153  1  0  0  0
M  ISO  4   1 100  68 101  80 101  81 100
M  END
> <chiral flag>
0

> <version>
0

> <s_m_source_file>
/data/baiqing/PycharmProjects/Reinvent-master-3.2/result/LINK_invent/BTK/process_docking_weight1_custom_sum_contain_oxygen_bond_distance_aromatic_linkinvent_7_9_3/rearranged_h_0018.sdf

> <i_m_source_file_index>
72

> <r_mmod_Potential_Energy-OPLS-2005>
2247.7802734375

> <r_mmod_Stretch_Energy-OPLS-2005>
928.017883300781

> <r_mmod_Bend_Energy-OPLS-2005>
643.117004394531

> <r_mmod_Torsional_Energy-OPLS-2005>
258.969970703125

> <r_mmod_Improper_Torsional_Energy-OPLS-2005>
9.75687694549561

> <r_mmod_Van_der_Waal_Energy-OPLS-2005>
135.254302978516

> <r_mmod_Electrostatic_Energy-OPLS-2005>
-387.425537109375

> <r_mmod_Solvation_Energy-OPLS-2005>
-209.918426513672

> <b_mmod_Minimization_Converged-OPLS-2005>
0

> <r_mmod_RMS_Derivative-OPLS-2005>
0.535999119281769

$$$$
73
                    3D
 Structure written by MMmdl.
147155  0  0  1  0            999 V2000
  -30.3051  -15.5934   20.3326 C   0  0  0  0  0  0
  -30.4361  -13.0506   19.5315 C   0  0  0  0  0  0
  -29.5566  -12.6404   18.3151 C   0  0  0  0  0  0
  -28.1195  -12.3044   18.7500 C   0  0  0  0  0  0
  -27.5978  -13.3068   19.8062 C   0  0  2  0  0  0
  -28.6199  -13.6118   20.9261 C   0  0  0  0  0  0
  -25.2313  -13.8272   20.5779 C   0  0  0  0  0  0
  -24.1710  -13.0425   20.9300 C   0  0  0  0  0  0
  -24.6420  -11.6942   20.8772 C   0  0  0  0  0  0
  -23.9110  -10.4297   21.0418 C   0  0  0  0  0  0
  -24.3642   -9.4202   21.9195 C   0  0  0  0  0  0
  -23.6303   -8.2241   22.0759 C   0  0  0  0  0  0
  -22.4278   -8.0301   21.3552 C   0  0  0  0  0  0
  -21.9917   -9.0282   20.4655 C   0  0  0  0  0  0
  -22.7272  -10.2152   20.3066 C   0  0  0  0  0  0
  -21.6853   -6.0747   22.5279 C   0  0  0  0  0  0
  -21.4024   -6.5645   23.8221 C   0  0  0  0  0  0
  -21.3656   -5.6791   24.9173 C   0  0  0  0  0  0
  -21.6036   -4.3055   24.7224 C   0  0  0  0  0  0
  -21.8816   -3.8151   23.4344 C   0  0  0  0  0  0
  -21.9189   -4.6968   22.3403 C   0  0  0  0  0  0
  -22.7717  -13.5163   21.1933 C   0  0  0  0  0  0
  -22.1662   -4.2162   21.0974 F   0  0  0  0  0  0
  -21.5617   -3.4526   25.7739 F   0  0  0  0  0  0
  -29.8009  -14.2245   20.2741 N   0  0  0  0  0  0
  -26.2773  -12.9628   20.3178 N   0  0  0  0  0  0
  -25.9366  -11.6704   20.5668 N   0  0  0  0  0  0
  -22.0367  -12.8178   22.0495 N   0  0  0  0  0  0
  -25.3828  -15.2009   20.4235 N   0  0  0  0  0  0
  -31.5415  -15.5652   20.1899 O   0  0  0  0  0  0
  -21.6634   -6.8896   21.4249 O   0  0  0  0  0  0
  -22.3406  -14.5465   20.6768 O   0  0  0  0  0  0
  -24.6825  -31.8021   23.1549 C   0  0  0  0  0  0
  -25.9409  -32.4485   23.8105 C   0  0  1  0  0  0
  -27.2371  -26.7161   20.2258 C   0  0  0  0  0  0
  -25.5982  -33.8316   24.1979 N   0  0  0  0  0  0
  -23.5094  -30.4051   21.5078 C   0  0  2  0  0  0
  -24.9715  -28.7488   20.1223 C   0  0  0  0  0  0
  -22.7769  -29.4330   22.4714 C   0  0  0  0  0  0
  -18.0339  -28.1437   22.8446 C   0  0  0  0  0  0
  -24.1498  -36.7166   23.2660 C   0  0  0  0  0  0
  -26.0911  -30.5393   21.4213 C   0  0  0  0  0  0
  -26.1605  -29.1054   20.7711 C   0  0  0  0  0  0
  -27.2785  -28.1185   20.7901 C   0  0  0  0  0  0
  -26.0154  -26.5670   19.5188 C   0  0  0  0  0  0
  -24.9404  -27.5039   19.4706 C   0  0  0  0  0  0
  -23.7664  -29.7030   20.1430 C   0  0  0  0  0  0
  -25.4159  -36.2906   24.0278 C   0  0  1  0  0  0
  -20.5969  -28.3793   23.1138 C   0  0  2  0  0  0
  -20.6810  -26.9453   22.5404 C   0  0  0  0  0  0
  -19.5790  -26.6370   21.5220 C   0  0  0  0  0  0
  -18.1966  -26.7959   22.1618 C   0  0  0  0  0  0
  -19.1604  -28.8942   23.2766 C   0  0  0  0  0  0
  -18.9508  -30.1520   23.8818 C   0  0  0  0  0  0
  -17.6497  -30.6611   24.0552 C   0  0  0  0  0  0
  -25.9120  -34.9293   23.4964 C   0  0  0  0  0  0
  -16.5389  -29.9091   23.6352 C   0  0  0  0  0  0
  -16.7318  -28.6519   23.0359 C   0  0  0  0  0  0
  -26.4582  -31.6533   25.0745 C   0  0  0  0  0  0
  -25.3623  -31.3863   26.1344 C   0  0  0  0  0  0
  -27.0509  -30.2862   24.6664 C   0  0  0  0  0  0
  -27.6013  -32.4403   25.7576 C   0  0  0  0  0  0
  -27.5545  -37.1785   24.8494 C   0  0  0  0  0  0
  -21.4409  -29.3039   22.3459 N   0  0  0  0  0  0
  -26.4296  -37.3642   23.9345 N   0  0  0  0  0  0
  -24.7842  -30.9483   22.0799 N   0  0  0  0  0  0
  -23.4221  -28.7922   23.3054 O   0  0  0  0  0  0
  -28.2008  -25.4991   20.2872 O   0  0  0  0  0  0
  -26.5749  -34.8854   22.4573 O   0  0  0  0  0  0
  -23.5847  -32.1098   23.6498 O   0  0  0  0  0  0
  -30.1989  -19.8174   20.5681 C   0  0  0  0  0  0
  -27.7691  -20.8386   20.0552 C   0  0  0  0  0  0
  -29.8814  -21.3347   20.5799 C   0  0  0  0  0  0
  -28.5888  -22.0533   20.2947 C   0  0  0  0  0  0
  -29.3350  -18.6157   20.3220 C   0  0  0  0  0  0
  -28.0739  -19.3513   20.0685 C   0  0  0  0  0  0
  -31.0572  -22.2151   20.9701 C   0  0  0  0  0  0
  -27.8672  -23.7828   20.2889 C   0  0  0  0  0  0
  -29.4694  -16.8993   20.3399 N   0  0  0  0  0  0
  -26.7154  -18.3366   19.7345 Cl  0  0  0  0  0  0
  -31.4277  -13.3207   19.1668 H   0  0  0  0  0  0
  -30.5971  -12.2031   20.1999 H   0  0  0  0  0  0
  -30.0017  -11.7906   17.7950 H   0  0  0  0  0  0
  -29.5360  -13.4598   17.5950 H   0  0  0  0  0  0
  -28.1251  -11.3010   19.1778 H   0  0  0  0  0  0
  -27.4543  -12.2638   17.8847 H   0  0  0  0  0  0
  -27.4652  -14.2378   19.2544 H   0  0  0  0  0  0
  -28.8684  -12.7176   21.5001 H   0  0  0  0  0  0
  -28.1986  -14.3257   21.6351 H   0  0  0  0  0  0
  -25.2796   -9.5668   22.4757 H   0  0  0  0  0  0
  -24.0013   -7.4630   22.7479 H   0  0  0  0  0  0
  -21.0846   -8.8817   19.8970 H   0  0  0  0  0  0
  -22.3746  -10.9693   19.6170 H   0  0  0  0  0  0
  -21.2029   -7.6157   23.9724 H   0  0  0  0  0  0
  -21.1474   -6.0522   25.9082 H   0  0  0  0  0  0
  -22.0593   -2.7615   23.2827 H   0  0  0  0  0  0
  -22.3985  -11.9871   22.4938 H   0  0  0  0  0  0
  -21.0977  -13.1214   22.2671 H   0  0  0  0  0  0
  -24.5975  -15.8321   20.5411 H   0  0  0  0  0  0
  -26.1980  -15.6579   20.0405 H   0  0  0  0  0  0
  -26.7504  -32.4969   23.0834 H   0  0  0  0  0  0
  -25.0050  -33.9385   25.0075 H   0  0  0  0  0  0
  -22.8345  -31.2422   21.3188 H   0  0  0  0  0  0
  -23.3720  -35.9548   23.3432 H   0  0  0  0  0  0
  -24.3505  -36.8714   22.2044 H   0  0  0  0  0  0
  -23.7352  -37.6420   23.6669 H   0  0  0  0  0  0
  -26.2986  -31.2653   20.6340 H   0  0  0  0  0  0
  -26.9387  -30.6033   22.0915 H   0  0  0  0  0  0
  -28.1715  -28.3998   21.3309 H   0  0  0  0  0  0
  -25.8531  -25.6261   19.0140 H   0  0  0  0  0  0
  -24.0467  -27.2210   18.9316 H   0  0  0  0  0  0
  -23.9474  -30.4667   19.3860 H   0  0  0  0  0  0
  -22.8710  -29.1738   19.8101 H   0  0  0  0  0  0
  -25.1393  -36.1691   25.0775 H   0  0  0  0  0  0
  -21.0059  -28.3426   24.1259 H   0  0  0  0  0  0
  -20.5693  -26.2420   23.3667 H   0  0  0  0  0  0
  -21.6670  -26.7417   22.1215 H   0  0  0  0  0  0
  -19.6955  -25.6254   21.1305 H   0  0  0  0  0  0
  -19.6729  -27.3131   20.6706 H   0  0  0  0  0  0
  -17.4236  -26.6681   21.4018 H   0  0  0  0  0  0
  -18.0363  -26.0135   22.9052 H   0  0  0  0  0  0
  -19.7986  -30.7347   24.2162 H   0  0  0  0  0  0
  -17.5053  -31.6286   24.5167 H   0  0  0  0  0  0
  -15.5387  -30.2970   23.7733 H   0  0  0  0  0  0
  -15.8713  -28.0813   22.7123 H   0  0  0  0  0  0
  -24.5824  -30.7203   25.7645 H   0  0  0  0  0  0
  -24.8792  -32.3092   26.4562 H   0  0  0  0  0  0
  -25.7775  -30.9164   27.0266 H   0  0  0  0  0  0
  -26.3228  -29.6480   24.1652 H   0  0  0  0  0  0
  -27.3905  -29.7326   25.5427 H   0  0  0  0  0  0
  -27.9230  -30.3983   24.0219 H   0  0  0  0  0  0
  -27.2521  -33.3736   26.2005 H   0  0  0  0  0  0
  -28.3909  -32.6924   25.0486 H   0  0  0  0  0  0
  -28.0597  -31.8648   26.5628 H   0  0  0  0  0  0
  -28.2676  -37.9958   24.7317 H   0  0  0  0  0  0
  -28.0921  -36.2475   24.6628 H   0  0  0  0  0  0
  -27.2206  -37.1803   25.8886 H   0  0  0  0  0  0
  -20.9727  -29.8687   21.6502 H   0  0  0  0  0  0
  -26.0149  -38.2723   24.1205 H   0  0  0  0  0  0
  -31.2250  -19.5667   20.7967 H   0  0  0  0  0  0
  -26.7320  -21.0579   19.8490 H   0  0  0  0  0  0
  -31.7386  -21.6876   21.6408 H   0  0  0  0  0  0
  -30.7329  -23.1170   21.4912 H   0  0  0  0  0  0
  -31.6290  -22.5141   20.0912 H   0  0  0  0  0  0
  -27.2271  -23.7185   21.1691 H   0  0  0  0  0  0
  -27.1670  -23.7009   19.4580 H   0  0  0  0  0  0
  -28.5202  -16.5556   20.2962 H   0  0  0  0  0  0
  1 25  1  0  0  0
  1 30  2  0  0  0
  1 79  1  0  0  0
  2  3  1  0  0  0
  2 25  1  0  0  0
  2 81  1  0  0  0
  2 82  1  0  0  0
  3  4  1  0  0  0
  3 83  1  0  0  0
  3 84  1  0  0  0
  4  5  1  0  0  0
  4 85  1  0  0  0
  4 86  1  0  0  0
  5  6  1  0  0  0
  5 26  1  0  0  0
  5 87  1  0  0  0
  6 25  1  0  0  0
  6 88  1  0  0  0
  6 89  1  0  0  0
  7  8  2  0  0  0
  7 26  1  0  0  0
  7 29  1  0  0  0
  8  9  1  0  0  0
  8 22  1  0  0  0
  9 10  1  0  0  0
  9 27  2  0  0  0
 10 11  2  0  0  0
 10 15  1  0  0  0
 11 12  1  0  0  0
 11 90  1  0  0  0
 12 13  2  0  0  0
 12 91  1  0  0  0
 13 14  1  0  0  0
 13 31  1  0  0  0
 14 15  2  0  0  0
 14 92  1  0  0  0
 15 93  1  0  0  0
 16 17  2  0  0  0
 16 21  1  0  0  0
 16 31  1  0  0  0
 17 18  1  0  0  0
 17 94  1  0  0  0
 18 19  2  0  0  0
 18 95  1  0  0  0
 19 20  1  0  0  0
 19 24  1  0  0  0
 20 21  2  0  0  0
 20 96  1  0  0  0
 21 23  1  0  0  0
 22 28  1  0  0  0
 22 32  2  0  0  0
 26 27  1  0  0  0
 28 97  1  0  0  0
 28 98  1  0  0  0
 29 99  1  0  0  0
 29100  1  0  0  0
 33 34  1  0  0  0
 33 66  1  0  0  0
 33 70  2  0  0  0
 34 36  1  0  0  0
 34 59  1  0  0  0
 34101  1  0  0  0
 35 44  2  0  0  0
 35 45  1  0  0  0
 35 68  1  0  0  0
 36 56  1  0  0  0
 36102  1  0  0  0
 37 39  1  0  0  0
 37 47  1  0  0  0
 37 66  1  0  0  0
 37103  1  0  0  0
 38 43  2  0  0  0
 38 46  1  0  0  0
 38 47  1  0  0  0
 39 64  1  0  0  0
 39 67  2  0  0  0
 40 52  1  0  0  0
 40 53  2  0  0  0
 40 58  1  0  0  0
 41104  1  0  0  0
 41105  1  0  0  0
 41106  1  0  0  0
 41 48  1  0  0  0
 42 43  1  0  0  0
 42 66  1  0  0  0
 42107  1  0  0  0
 42108  1  0  0  0
 43 44  1  0  0  0
 44109  1  0  0  0
 45 46  2  0  0  0
 45110  1  0  0  0
 46111  1  0  0  0
 47112  1  0  0  0
 47113  1  0  0  0
 48 56  1  0  0  0
 48 65  1  0  0  0
 48114  1  0  0  0
 49 50  1  0  0  0
 49 53  1  0  0  0
 49 64  1  0  0  0
 49115  1  0  0  0
 50 51  1  0  0  0
 50116  1  0  0  0
 50117  1  0  0  0
 51 52  1  0  0  0
 51118  1  0  0  0
 51119  1  0  0  0
 52120  1  0  0  0
 52121  1  0  0  0
 53 54  1  0  0  0
 54 55  2  0  0  0
 54122  1  0  0  0
 55 57  1  0  0  0
 55123  1  0  0  0
 56 69  2  0  0  0
 57 58  2  0  0  0
 57124  1  0  0  0
 58125  1  0  0  0
 59 60  1  0  0  0
 59 61  1  0  0  0
 59 62  1  0  0  0
 60126  1  0  0  0
 60127  1  0  0  0
 60128  1  0  0  0
 61129  1  0  0  0
 61130  1  0  0  0
 61131  1  0  0  0
 62132  1  0  0  0
 62133  1  0  0  0
 62134  1  0  0  0
 63 65  1  0  0  0
 63135  1  0  0  0
 63136  1  0  0  0
 63137  1  0  0  0
 64138  1  0  0  0
 65139  1  0  0  0
 68 78  1  0  0  0
 71 73  2  0  0  0
 71 75  1  0  0  0
 71140  1  0  0  0
 72 74  2  0  0  0
 72 76  1  0  0  0
 72141  1  0  0  0
 73 74  1  0  0  0
 73 77  1  0  0  0
 74 78  1  0  0  0
 75 76  2  0  0  0
 75 79  1  0  0  0
 76 80  1  0  0  0
 77142  1  0  0  0
 77143  1  0  0  0
 77144  1  0  0  0
 78145  1  0  0  0
 78146  1  0  0  0
 79147  1  0  0  0
M  ISO  4   1 100  68 101  78 101  79 100
M  END
> <chiral flag>
0

> <version>
0

> <s_m_source_file>
/data/baiqing/PycharmProjects/Reinvent-master-3.2/result/LINK_invent/BTK/process_docking_weight1_custom_sum_contain_oxygen_bond_distance_aromatic_linkinvent_7_9_3/rearranged_h_0018.sdf

> <i_m_source_file_index>
73

> <r_mmod_Potential_Energy-OPLS-2005>
2240.44458007812

> <r_mmod_Stretch_Energy-OPLS-2005>
913.002502441406

> <r_mmod_Bend_Energy-OPLS-2005>
695.700561523438

> <r_mmod_Torsional_Energy-OPLS-2005>
226.981842041016

> <r_mmod_Improper_Torsional_Energy-OPLS-2005>
5.06171560287476

> <r_mmod_Van_der_Waal_Energy-OPLS-2005>
127.285507202148

> <r_mmod_Electrostatic_Energy-OPLS-2005>
-383.821136474609

> <r_mmod_Solvation_Energy-OPLS-2005>
-203.146728515625

> <b_mmod_Minimization_Converged-OPLS-2005>
0

> <r_mmod_RMS_Derivative-OPLS-2005>
2.98534059524536

$$$$
74
                    3D
 Structure written by MMmdl.
158165  0  0  1  0            999 V2000
  -30.4609  -15.1837   20.3815 C   0  0  0  0  0  0
  -30.4379  -12.7493   19.5147 C   0  0  0  0  0  0
  -29.5289  -12.5604   18.2757 C   0  0  0  0  0  0
  -28.0721  -12.3029   18.7021 C   0  0  0  0  0  0
  -27.6135  -13.2686   19.8241 C   0  0  2  0  0  0
  -28.6527  -13.4073   20.9560 C   0  0  0  0  0  0
  -25.2399  -13.8213   20.5776 C   0  0  0  0  0  0
  -24.1751  -13.0410   20.9269 C   0  0  0  0  0  0
  -24.6394  -11.6905   20.8767 C   0  0  0  0  0  0
  -23.9097  -10.4275   21.0412 C   0  0  0  0  0  0
  -24.3639   -9.4191   21.9190 C   0  0  0  0  0  0
  -23.6309   -8.2237   22.0762 C   0  0  0  0  0  0
  -22.4291   -8.0287   21.3558 C   0  0  0  0  0  0
  -21.9929   -9.0256   20.4654 C   0  0  0  0  0  0
  -22.7264  -10.2130   20.3060 C   0  0  0  0  0  0
  -21.6853   -6.0746   22.5282 C   0  0  0  0  0  0
  -21.4014   -6.5647   23.8218 C   0  0  0  0  0  0
  -21.3654   -5.6802   24.9177 C   0  0  0  0  0  0
  -21.6047   -4.3064   24.7227 C   0  0  0  0  0  0
  -21.8820   -3.8155   23.4349 C   0  0  0  0  0  0
  -21.9189   -4.6974   22.3407 C   0  0  0  0  0  0
  -22.7762  -13.5170   21.1903 C   0  0  0  0  0  0
  -22.1653   -4.2158   21.0983 F   0  0  0  0  0  0
  -21.5629   -3.4546   25.7739 F   0  0  0  0  0  0
  -29.8933  -13.8883   20.3309 N   0  0  0  0  0  0
  -26.2827  -12.9490   20.3226 N   0  0  0  0  0  0
  -25.9333  -11.6597   20.5725 N   0  0  0  0  0  0
  -22.0418  -12.8168   22.0459 N   0  0  0  0  0  0
  -25.4002  -15.1945   20.4244 N   0  0  0  0  0  0
  -31.6846  -15.2036   20.1895 O   0  0  0  0  0  0
  -21.6647   -6.8889   21.4247 O   0  0  0  0  0  0
  -22.3447  -14.5469   20.6730 O   0  0  0  0  0  0
  -24.6576  -31.8291   23.1740 C   0  0  0  0  0  0
  -25.9279  -32.4620   23.8188 C   0  0  1  0  0  0
  -27.2203  -26.9734   20.1930 C   0  0  0  0  0  0
  -25.5964  -33.8433   24.2094 N   0  0  0  0  0  0
  -23.4691  -30.4412   21.5232 C   0  0  2  0  0  0
  -24.9210  -28.8281   20.1229 C   0  0  0  0  0  0
  -22.7635  -29.4473   22.4821 C   0  0  0  0  0  0
  -18.0326  -28.1402   22.8477 C   0  0  0  0  0  0
  -24.1487  -36.7216   23.2646 C   0  0  0  0  0  0
  -26.0348  -30.6518   21.3945 C   0  0  0  0  0  0
  -26.1051  -29.2426   20.7470 C   0  0  0  0  0  0
  -27.2540  -28.3383   20.7509 C   0  0  0  0  0  0
  -26.0054  -26.6931   19.5318 C   0  0  0  0  0  0
  -24.8923  -27.5711   19.4967 C   0  0  0  0  0  0
  -23.7072  -29.7534   20.1512 C   0  0  0  0  0  0
  -25.4127  -36.2986   24.0306 C   0  0  1  0  0  0
  -20.5940  -28.3739   23.1208 C   0  0  2  0  0  0
  -20.6800  -26.9431   22.5401 C   0  0  0  0  0  0
  -19.5766  -26.6376   21.5219 C   0  0  0  0  0  0
  -18.1953  -26.7936   22.1627 C   0  0  0  0  0  0
  -19.1586  -28.8897   23.2833 C   0  0  0  0  0  0
  -18.9491  -30.1491   23.8857 C   0  0  0  0  0  0
  -17.6477  -30.6597   24.0552 C   0  0  0  0  0  0
  -25.9086  -34.9372   23.5016 C   0  0  0  0  0  0
  -16.5374  -29.9085   23.6337 C   0  0  0  0  0  0
  -16.7307  -28.6501   23.0358 C   0  0  0  0  0  0
  -26.4547  -31.6549   25.0698 C   0  0  0  0  0  0
  -25.3677  -31.3788   26.1356 C   0  0  0  0  0  0
  -27.0433  -30.2925   24.6380 C   0  0  0  0  0  0
  -27.6039  -32.4352   25.7494 C   0  0  0  0  0  0
  -27.5566  -37.1767   24.8465 C   0  0  0  0  0  0
  -21.4311  -29.3046   22.3570 N   0  0  0  0  0  0
  -26.4272  -37.3721   23.9413 N   0  0  0  0  0  0
  -24.7417  -31.0003   22.0852 N   0  0  0  0  0  0
  -23.4208  -28.8053   23.3053 O   0  0  0  0  0  0
  -28.2599  -25.9203   20.1867 O   0  0  0  0  0  0
  -26.5695  -34.8901   22.4612 O   0  0  0  0  0  0
  -23.5655  -32.1227   23.6866 O   0  0  0  0  0  0
  -27.0635  -18.6027   21.6014 C   0  0  0  0  0  0
  -27.0574  -18.0134   19.1453 C   0  0  0  0  0  0
  -26.4790  -20.2914   19.8557 C   0  0  0  0  0  0
  -28.7046  -22.7928   19.9264 C   0  0  0  0  0  0
  -29.1034  -21.1959   20.6367 C   0  0  0  0  0  0
  -29.9291  -18.0625   20.5420 C   0  0  0  0  0  0
  -28.1079  -24.3422   20.5773 C   0  0  0  0  0  0
  -28.9344  -19.4917   20.1071 C   0  0  1  0  0  0
  -27.4121  -19.1017   20.1845 C   0  0  0  0  0  0
  -29.6767  -16.4250   20.4494 N   0  0  0  0  0  0
  -31.4627  -12.9388   19.1926 H   0  0  0  0  0  0
  -30.4800  -11.8340   20.1062 H   0  0  0  0  0  0
  -29.8916  -11.7369   17.6584 H   0  0  0  0  0  0
  -29.5726  -13.4548   17.6529 H   0  0  0  0  0  0
  -28.0097  -11.2735   19.0580 H   0  0  0  0  0  0
  -27.4048  -12.3679   17.8415 H   0  0  0  0  0  0
  -27.5360  -14.2443   19.3423 H   0  0  0  0  0  0
  -28.8031  -12.4610   21.4776 H   0  0  0  0  0  0
  -28.3111  -14.1263   21.7026 H   0  0  0  0  0  0
  -25.2777   -9.5671   22.4777 H   0  0  0  0  0  0
  -24.0015   -7.4627   22.7487 H   0  0  0  0  0  0
  -21.0857   -8.8773   19.8970 H   0  0  0  0  0  0
  -22.3709  -10.9674   19.6183 H   0  0  0  0  0  0
  -21.2000   -7.6152   23.9717 H   0  0  0  0  0  0
  -21.1482   -6.0534   25.9083 H   0  0  0  0  0  0
  -22.0602   -2.7614   23.2844 H   0  0  0  0  0  0
  -22.4021  -11.9836   22.4863 H   0  0  0  0  0  0
  -21.1039  -13.1202   22.2651 H   0  0  0  0  0  0
  -24.6259  -15.8373   20.5506 H   0  0  0  0  0  0
  -26.2341  -15.6430   20.0734 H   0  0  0  0  0  0
  -26.7343  -32.5185   23.0906 H   0  0  0  0  0  0
  -25.0075  -33.9515   25.0218 H   0  0  0  0  0  0
  -22.7797  -31.2712   21.3525 H   0  0  0  0  0  0
  -23.3764  -35.9532   23.3281 H   0  0  0  0  0  0
  -24.3553  -36.8884   22.2061 H   0  0  0  0  0  0
  -23.7225  -37.6394   23.6714 H   0  0  0  0  0  0
  -26.2032  -31.3918   20.6106 H   0  0  0  0  0  0
  -26.8996  -30.7119   22.0438 H   0  0  0  0  0  0
  -28.1594  -28.6603   21.2459 H   0  0  0  0  0  0
  -25.9004  -25.7335   19.0464 H   0  0  0  0  0  0
  -23.9919  -27.2453   18.9944 H   0  0  0  0  0  0
  -23.8654  -30.5171   19.3897 H   0  0  0  0  0  0
  -22.8172  -29.2072   19.8342 H   0  0  0  0  0  0
  -25.1326  -36.1779   25.0797 H   0  0  0  0  0  0
  -21.0034  -28.3334   24.1327 H   0  0  0  0  0  0
  -20.5684  -26.2360   23.3637 H   0  0  0  0  0  0
  -21.6665  -26.7419   22.1200 H   0  0  0  0  0  0
  -19.6917  -25.6279   21.1273 H   0  0  0  0  0  0
  -19.6690  -27.3166   20.6735 H   0  0  0  0  0  0
  -17.4218  -26.6694   21.4032 H   0  0  0  0  0  0
  -18.0344  -26.0090   22.9032 H   0  0  0  0  0  0
  -19.7966  -30.7334   24.2188 H   0  0  0  0  0  0
  -17.5029  -31.6269   24.5171 H   0  0  0  0  0  0
  -15.5367  -30.2965   23.7691 H   0  0  0  0  0  0
  -15.8706  -28.0810   22.7083 H   0  0  0  0  0  0
  -24.5877  -30.7119   25.7663 H   0  0  0  0  0  0
  -24.8848  -32.2987   26.4659 H   0  0  0  0  0  0
  -25.7910  -30.9033   27.0208 H   0  0  0  0  0  0
  -26.3086  -29.6616   24.1359 H   0  0  0  0  0  0
  -27.3963  -29.7272   25.5013 H   0  0  0  0  0  0
  -27.9027  -30.4136   23.9783 H   0  0  0  0  0  0
  -27.2614  -33.3697   26.1952 H   0  0  0  0  0  0
  -28.3912  -32.6833   25.0366 H   0  0  0  0  0  0
  -28.0636  -31.8551   26.5505 H   0  0  0  0  0  0
  -28.2571  -38.0077   24.7523 H   0  0  0  0  0  0
  -28.1074  -36.2601   24.6283 H   0  0  0  0  0  0
  -27.2283  -37.1410   25.8870 H   0  0  0  0  0  0
  -20.9565  -29.8738   21.6702 H   0  0  0  0  0  0
  -26.0117  -38.2778   24.1430 H   0  0  0  0  0  0
  -25.9961  -18.4022   21.6993 H   0  0  0  0  0  0
  -27.3263  -19.3400   22.3602 H   0  0  0  0  0  0
  -27.5810  -17.6782   21.8555 H   0  0  0  0  0  0
  -25.9920  -17.7801   19.1700 H   0  0  0  0  0  0
  -27.5723  -17.0728   19.3024 H   0  0  0  0  0  0
  -27.2876  -18.3411   18.1300 H   0  0  0  0  0  0
  -25.4346  -19.9791   19.8052 H   0  0  0  0  0  0
  -26.7207  -20.7306   18.8878 H   0  0  0  0  0  0
  -26.5156  -21.0783   20.6093 H   0  0  0  0  0  0
  -28.0579  -22.5874   19.0753 H   0  0  0  0  0  0
  -29.6404  -23.0744   19.4441 H   0  0  0  0  0  0
  -30.1717  -21.2820   20.8391 H   0  0  0  0  0  0
  -28.6779  -21.2204   21.6396 H   0  0  0  0  0  0
  -30.1731  -18.2063   21.5945 H   0  0  0  0  0  0
  -30.8838  -18.2154   20.0379 H   0  0  0  0  0  0
  -28.4888  -24.3403   21.5994 H   0  0  0  0  0  0
  -27.0372  -24.1929   20.7156 H   0  0  0  0  0  0
  -29.1431  -19.5847   19.0409 H   0  0  0  0  0  0
  -28.6947  -16.2034   20.5165 H   0  0  0  0  0  0
  1 25  1  0  0  0
  1 30  2  0  0  0
  1 80  1  0  0  0
  2  3  1  0  0  0
  2 25  1  0  0  0
  2 81  1  0  0  0
  2 82  1  0  0  0
  3  4  1  0  0  0
  3 83  1  0  0  0
  3 84  1  0  0  0
  4  5  1  0  0  0
  4 85  1  0  0  0
  4 86  1  0  0  0
  5  6  1  0  0  0
  5 26  1  0  0  0
  5 87  1  0  0  0
  6 25  1  0  0  0
  6 88  1  0  0  0
  6 89  1  0  0  0
  7  8  2  0  0  0
  7 26  1  0  0  0
  7 29  1  0  0  0
  8  9  1  0  0  0
  8 22  1  0  0  0
  9 10  1  0  0  0
  9 27  2  0  0  0
 10 11  2  0  0  0
 10 15  1  0  0  0
 11 12  1  0  0  0
 11 90  1  0  0  0
 12 13  2  0  0  0
 12 91  1  0  0  0
 13 14  1  0  0  0
 13 31  1  0  0  0
 14 15  2  0  0  0
 14 92  1  0  0  0
 15 93  1  0  0  0
 16 17  2  0  0  0
 16 21  1  0  0  0
 16 31  1  0  0  0
 17 18  1  0  0  0
 17 94  1  0  0  0
 18 19  2  0  0  0
 18 95  1  0  0  0
 19 20  1  0  0  0
 19 24  1  0  0  0
 20 21  2  0  0  0
 20 96  1  0  0  0
 21 23  1  0  0  0
 22 28  1  0  0  0
 22 32  2  0  0  0
 26 27  1  0  0  0
 28 97  1  0  0  0
 28 98  1  0  0  0
 29 99  1  0  0  0
 29100  1  0  0  0
 33 34  1  0  0  0
 33 66  1  0  0  0
 33 70  2  0  0  0
 34 36  1  0  0  0
 34 59  1  0  0  0
 34101  1  0  0  0
 35 44  2  0  0  0
 35 45  1  0  0  0
 35 68  1  0  0  0
 36 56  1  0  0  0
 36102  1  0  0  0
 37 39  1  0  0  0
 37 47  1  0  0  0
 37 66  1  0  0  0
 37103  1  0  0  0
 38 43  2  0  0  0
 38 46  1  0  0  0
 38 47  1  0  0  0
 39 64  1  0  0  0
 39 67  2  0  0  0
 40 52  1  0  0  0
 40 53  2  0  0  0
 40 58  1  0  0  0
 41104  1  0  0  0
 41105  1  0  0  0
 41106  1  0  0  0
 41 48  1  0  0  0
 42 43  1  0  0  0
 42 66  1  0  0  0
 42107  1  0  0  0
 42108  1  0  0  0
 43 44  1  0  0  0
 44109  1  0  0  0
 45 46  2  0  0  0
 45110  1  0  0  0
 46111  1  0  0  0
 47112  1  0  0  0
 47113  1  0  0  0
 48 56  1  0  0  0
 48 65  1  0  0  0
 48114  1  0  0  0
 49 50  1  0  0  0
 49 53  1  0  0  0
 49 64  1  0  0  0
 49115  1  0  0  0
 50 51  1  0  0  0
 50116  1  0  0  0
 50117  1  0  0  0
 51 52  1  0  0  0
 51118  1  0  0  0
 51119  1  0  0  0
 52120  1  0  0  0
 52121  1  0  0  0
 53 54  1  0  0  0
 54 55  2  0  0  0
 54122  1  0  0  0
 55 57  1  0  0  0
 55123  1  0  0  0
 56 69  2  0  0  0
 57 58  2  0  0  0
 57124  1  0  0  0
 58125  1  0  0  0
 59 60  1  0  0  0
 59 61  1  0  0  0
 59 62  1  0  0  0
 60126  1  0  0  0
 60127  1  0  0  0
 60128  1  0  0  0
 61129  1  0  0  0
 61130  1  0  0  0
 61131  1  0  0  0
 62132  1  0  0  0
 62133  1  0  0  0
 62134  1  0  0  0
 63 65  1  0  0  0
 63135  1  0  0  0
 63136  1  0  0  0
 63137  1  0  0  0
 64138  1  0  0  0
 65139  1  0  0  0
 68 77  1  0  0  0
 71140  1  0  0  0
 71141  1  0  0  0
 71142  1  0  0  0
 71 79  1  0  0  0
 72 79  1  0  0  0
 72143  1  0  0  0
 72144  1  0  0  0
 72145  1  0  0  0
 73 79  1  0  0  0
 73146  1  0  0  0
 73147  1  0  0  0
 73148  1  0  0  0
 74 75  1  0  0  0
 74 77  1  0  0  0
 74149  1  0  0  0
 74150  1  0  0  0
 75151  1  0  0  0
 75152  1  0  0  0
 75 78  1  0  0  0
 76 78  1  0  0  0
 76 80  1  0  0  0
 76153  1  0  0  0
 76154  1  0  0  0
 77155  1  0  0  0
 77156  1  0  0  0
 78 79  1  0  0  0
 78157  1  0  0  0
 80158  1  0  0  0
M  ISO  4   1 100  68 101  77 101  80 100
M  END
> <chiral flag>
0

> <version>
0

> <s_m_source_file>
/data/baiqing/PycharmProjects/Reinvent-master-3.2/result/LINK_invent/BTK/process_docking_weight1_custom_sum_contain_oxygen_bond_distance_aromatic_linkinvent_7_9_3/rearranged_h_0018.sdf

> <i_m_source_file_index>
74

> <r_mmod_Potential_Energy-OPLS-2005>
1188.83215332031

> <r_mmod_Stretch_Energy-OPLS-2005>
572.77294921875

> <r_mmod_Bend_Energy-OPLS-2005>
431.276916503906

> <r_mmod_Torsional_Energy-OPLS-2005>
260.536468505859

> <r_mmod_Improper_Torsional_Energy-OPLS-2005>
3.91936564445496

> <r_mmod_Van_der_Waal_Energy-OPLS-2005>
111.566421508789

> <r_mmod_Electrostatic_Energy-OPLS-2005>
-374.568267822266

> <r_mmod_Solvation_Energy-OPLS-2005>
-194.069931030273

> <b_mmod_Minimization_Converged-OPLS-2005>
0

> <r_mmod_RMS_Derivative-OPLS-2005>
1.74171769618988

$$$$
75
                    3D
 Structure written by MMmdl.
150158  0  0  1  0            999 V2000
  -30.4124  -15.3404   20.3768 C   0  0  0  0  0  0
  -30.4410  -12.8613   19.5272 C   0  0  0  0  0  0
  -29.5363  -12.6059   18.2924 C   0  0  0  0  0  0
  -28.0876  -12.3122   18.7188 C   0  0  0  0  0  0
  -27.6138  -13.2775   19.8324 C   0  0  2  0  0  0
  -28.6536  -13.4250   20.9644 C   0  0  0  0  0  0
  -25.2329  -13.8223   20.5698 C   0  0  0  0  0  0
  -24.1713  -13.0404   20.9254 C   0  0  0  0  0  0
  -24.6397  -11.6917   20.8763 C   0  0  0  0  0  0
  -23.9093  -10.4278   21.0402 C   0  0  0  0  0  0
  -24.3633   -9.4195   21.9186 C   0  0  0  0  0  0
  -23.6299   -8.2236   22.0753 C   0  0  0  0  0  0
  -22.4283   -8.0275   21.3539 C   0  0  0  0  0  0
  -21.9926   -9.0250   20.4639 C   0  0  0  0  0  0
  -22.7263  -10.2124   20.3050 C   0  0  0  0  0  0
  -21.6854   -6.0726   22.5277 C   0  0  0  0  0  0
  -21.4009   -6.5629   23.8211 C   0  0  0  0  0  0
  -21.3665   -5.6786   24.9176 C   0  0  0  0  0  0
  -21.6045   -4.3048   24.7227 C   0  0  0  0  0  0
  -21.8820   -3.8137   23.4351 C   0  0  0  0  0  0
  -21.9192   -4.6952   22.3404 C   0  0  0  0  0  0
  -22.7727  -13.5152   21.1909 C   0  0  0  0  0  0
  -22.1661   -4.2137   21.0983 F   0  0  0  0  0  0
  -21.5637   -3.4535   25.7743 F   0  0  0  0  0  0
  -29.8683  -14.0050   20.3479 N   0  0  0  0  0  0
  -26.2810  -12.9533   20.3247 N   0  0  0  0  0  0
  -25.9344  -11.6629   20.5746 N   0  0  0  0  0  0
  -22.0387  -12.8138   22.0468 N   0  0  0  0  0  0
  -25.3810  -15.1950   20.4025 N   0  0  0  0  0  0
  -31.6101  -15.3311   20.0455 O   0  0  0  0  0  0
  -21.6640   -6.8875   21.4240 O   0  0  0  0  0  0
  -22.3408  -14.5457   20.6756 O   0  0  0  0  0  0
  -24.6660  -31.8188   23.1662 C   0  0  0  0  0  0
  -25.9319  -32.4555   23.8146 C   0  0  1  0  0  0
  -27.2236  -26.8890   20.1837 C   0  0  0  0  0  0
  -25.5981  -33.8379   24.2042 N   0  0  0  0  0  0
  -23.4832  -30.4276   21.5169 C   0  0  2  0  0  0
  -24.9391  -28.8082   20.1088 C   0  0  0  0  0  0
  -22.7683  -29.4403   22.4769 C   0  0  0  0  0  0
  -18.0317  -28.1406   22.8451 C   0  0  0  0  0  0
  -24.1493  -36.7194   23.2646 C   0  0  0  0  0  0
  -26.0543  -30.6118   21.4025 C   0  0  0  0  0  0
  -26.1221  -29.1978   20.7472 C   0  0  0  0  0  0
  -27.2552  -28.2586   20.7615 C   0  0  0  0  0  0
  -26.0127  -26.6645   19.4895 C   0  0  0  0  0  0
  -24.9118  -27.5628   19.4596 C   0  0  0  0  0  0
  -23.7255  -29.7402   20.1443 C   0  0  0  0  0  0
  -25.4132  -36.2946   24.0295 C   0  0  1  0  0  0
  -20.5947  -28.3752   23.1177 C   0  0  2  0  0  0
  -20.6797  -26.9428   22.5407 C   0  0  0  0  0  0
  -19.5778  -26.6371   21.5214 C   0  0  0  0  0  0
  -18.1950  -26.7937   22.1610 C   0  0  0  0  0  0
  -19.1579  -28.8899   23.2796 C   0  0  0  0  0  0
  -18.9499  -30.1487   23.8837 C   0  0  0  0  0  0
  -17.6499  -30.6599   24.0552 C   0  0  0  0  0  0
  -25.9108  -34.9331   23.4992 C   0  0  0  0  0  0
  -16.5384  -29.9088   23.6342 C   0  0  0  0  0  0
  -16.7300  -28.6509   23.0356 C   0  0  0  0  0  0
  -26.4566  -31.6512   25.0685 C   0  0  0  0  0  0
  -25.3684  -31.3798   26.1336 C   0  0  0  0  0  0
  -27.0456  -30.2863   24.6443 C   0  0  0  0  0  0
  -27.6052  -32.4330   25.7492 C   0  0  0  0  0  0
  -27.5560  -37.1744   24.8462 C   0  0  0  0  0  0
  -21.4347  -29.3035   22.3518 N   0  0  0  0  0  0
  -26.4265  -37.3688   23.9413 N   0  0  0  0  0  0
  -24.7562  -30.9806   22.0822 N   0  0  0  0  0  0
  -23.4207  -28.7973   23.3027 O   0  0  0  0  0  0
  -28.2105  -25.7578   20.2919 O   0  0  0  0  0  0
  -26.5730  -34.8875   22.4592 O   0  0  0  0  0  0
  -23.5718  -32.1184   23.6720 O   0  0  0  0  0  0
  -29.8381  -20.1431   21.8465 C   0  0  0  0  0  0
  -29.7875  -21.4378   22.4338 C   0  0  0  0  0  0
  -29.3946  -19.8682   20.5370 C   0  0  0  0  0  0
  -28.7441  -22.6247   20.5030 C   0  0  0  0  0  0
  -29.2766  -22.6143   21.8154 C   0  0  0  0  0  0
  -28.8409  -21.1847   19.9092 C   0  0  0  0  0  0
  -28.5835  -16.6347   21.5182 C   0  0  0  0  0  0
  -29.7299  -18.2313   19.9384 C   0  0  0  0  0  0
  -28.0037  -24.1363   19.9426 C   0  0  0  0  0  0
  -29.6630  -16.6471   20.5378 N   0  0  0  0  0  0
  -29.2958  -24.0703   22.7461 Cl  0  0  0  0  0  0
  -28.2389  -21.0175   18.3009 Cl  0  0  0  0  0  0
  -31.4522  -13.0775   19.1804 H   0  0  0  0  0  0
  -30.5415  -11.9534   20.1246 H   0  0  0  0  0  0
  -29.9267  -11.7815   17.6939 H   0  0  0  0  0  0
  -29.5549  -13.4859   17.6479 H   0  0  0  0  0  0
  -28.0536  -11.2861   19.0873 H   0  0  0  0  0  0
  -27.4179  -12.3503   17.8592 H   0  0  0  0  0  0
  -27.5327  -14.2513   19.3481 H   0  0  0  0  0  0
  -28.8514  -12.4609   21.4359 H   0  0  0  0  0  0
  -28.2705  -14.0535   21.7637 H   0  0  0  0  0  0
  -25.2776   -9.5671   22.4766 H   0  0  0  0  0  0
  -23.9998   -7.4628   22.7479 H   0  0  0  0  0  0
  -21.0857   -8.8778   19.8944 H   0  0  0  0  0  0
  -22.3728  -10.9664   19.6157 H   0  0  0  0  0  0
  -21.1992   -7.6136   23.9711 H   0  0  0  0  0  0
  -21.1489   -6.0514   25.9080 H   0  0  0  0  0  0
  -22.0591   -2.7595   23.2857 H   0  0  0  0  0  0
  -22.4016  -11.9811   22.4870 H   0  0  0  0  0  0
  -21.0989  -13.1130   22.2653 H   0  0  0  0  0  0
  -24.6015  -15.8333   20.5164 H   0  0  0  0  0  0
  -26.2163  -15.6475   20.0560 H   0  0  0  0  0  0
  -26.7386  -32.5070   23.0859 H   0  0  0  0  0  0
  -25.0079  -33.9458   25.0160 H   0  0  0  0  0  0
  -22.7971  -31.2592   21.3425 H   0  0  0  0  0  0
  -23.3766  -35.9512   23.3267 H   0  0  0  0  0  0
  -24.3578  -36.8886   22.2071 H   0  0  0  0  0  0
  -23.7238  -37.6362   23.6736 H   0  0  0  0  0  0
  -26.2356  -31.3490   20.6195 H   0  0  0  0  0  0
  -26.9147  -30.6721   22.0571 H   0  0  0  0  0  0
  -28.1457  -28.5530   21.2980 H   0  0  0  0  0  0
  -25.8780  -25.7156   18.9915 H   0  0  0  0  0  0
  -24.0144  -27.2580   18.9382 H   0  0  0  0  0  0
  -23.8798  -30.5088   19.3865 H   0  0  0  0  0  0
  -22.8348  -29.1965   19.8256 H   0  0  0  0  0  0
  -25.1325  -36.1739   25.0785 H   0  0  0  0  0  0
  -21.0025  -28.3374   24.1304 H   0  0  0  0  0  0
  -20.5669  -26.2377   23.3657 H   0  0  0  0  0  0
  -21.6661  -26.7391   22.1219 H   0  0  0  0  0  0
  -19.6951  -25.6273   21.1268 H   0  0  0  0  0  0
  -19.6726  -27.3158   20.6729 H   0  0  0  0  0  0
  -17.4225  -26.6671   21.4011 H   0  0  0  0  0  0
  -18.0337  -26.0089   22.9014 H   0  0  0  0  0  0
  -19.7984  -30.7304   24.2179 H   0  0  0  0  0  0
  -17.5060  -31.6268   24.5172 H   0  0  0  0  0  0
  -15.5384  -30.2984   23.7705 H   0  0  0  0  0  0
  -15.8693  -28.0820   22.7113 H   0  0  0  0  0  0
  -24.5929  -30.7059   25.7680 H   0  0  0  0  0  0
  -24.8800  -32.3005   26.4538 H   0  0  0  0  0  0
  -25.7916  -30.9153   27.0251 H   0  0  0  0  0  0
  -26.3125  -29.6538   24.1424 H   0  0  0  0  0  0
  -27.3941  -29.7228   25.5109 H   0  0  0  0  0  0
  -27.9085  -30.4014   23.9883 H   0  0  0  0  0  0
  -27.2643  -33.3741   26.1819 H   0  0  0  0  0  0
  -28.3998  -32.6701   25.0406 H   0  0  0  0  0  0
  -28.0549  -31.8604   26.5615 H   0  0  0  0  0  0
  -28.2535  -38.0077   24.7519 H   0  0  0  0  0  0
  -28.1096  -36.2600   24.6273 H   0  0  0  0  0  0
  -27.2280  -37.1362   25.8863 H   0  0  0  0  0  0
  -20.9616  -29.8738   21.6646 H   0  0  0  0  0  0
  -26.0109  -38.2733   24.1451 H   0  0  0  0  0  0
  -30.2702  -19.3372   22.4232 H   0  0  0  0  0  0
  -30.1699  -21.5360   23.4398 H   0  0  0  0  0  0
  -28.8803  -16.1197   22.4325 H   0  0  0  0  0  0
  -27.7114  -16.1433   21.0996 H   0  0  0  0  0  0
  -28.2702  -17.6371   21.8082 H   0  0  0  0  0  0
  -30.7557  -18.3100   19.5770 H   0  0  0  0  0  0
  -29.1420  -18.1744   19.0224 H   0  0  0  0  0  0
  -26.9500  -23.9655   20.1632 H   0  0  0  0  0  0
  -28.0621  -24.0794   18.8552 H   0  0  0  0  0  0
  1 25  1  0  0  0
  1 30  2  0  0  0
  1 80  1  0  0  0
  2  3  1  0  0  0
  2 25  1  0  0  0
  2 83  1  0  0  0
  2 84  1  0  0  0
  3  4  1  0  0  0
  3 85  1  0  0  0
  3 86  1  0  0  0
  4  5  1  0  0  0
  4 87  1  0  0  0
  4 88  1  0  0  0
  5  6  1  0  0  0
  5 26  1  0  0  0
  5 89  1  0  0  0
  6 25  1  0  0  0
  6 90  1  0  0  0
  6 91  1  0  0  0
  7  8  2  0  0  0
  7 26  1  0  0  0
  7 29  1  0  0  0
  8  9  1  0  0  0
  8 22  1  0  0  0
  9 10  1  0  0  0
  9 27  2  0  0  0
 10 11  2  0  0  0
 10 15  1  0  0  0
 11 12  1  0  0  0
 11 92  1  0  0  0
 12 13  2  0  0  0
 12 93  1  0  0  0
 13 14  1  0  0  0
 13 31  1  0  0  0
 14 15  2  0  0  0
 14 94  1  0  0  0
 15 95  1  0  0  0
 16 17  2  0  0  0
 16 21  1  0  0  0
 16 31  1  0  0  0
 17 18  1  0  0  0
 17 96  1  0  0  0
 18 19  2  0  0  0
 18 97  1  0  0  0
 19 20  1  0  0  0
 19 24  1  0  0  0
 20 21  2  0  0  0
 20 98  1  0  0  0
 21 23  1  0  0  0
 22 28  1  0  0  0
 22 32  2  0  0  0
 26 27  1  0  0  0
 28 99  1  0  0  0
 28100  1  0  0  0
 29101  1  0  0  0
 29102  1  0  0  0
 33 34  1  0  0  0
 33 66  1  0  0  0
 33 70  2  0  0  0
 34 36  1  0  0  0
 34 59  1  0  0  0
 34103  1  0  0  0
 35 44  2  0  0  0
 35 45  1  0  0  0
 35 68  1  0  0  0
 36 56  1  0  0  0
 36104  1  0  0  0
 37 39  1  0  0  0
 37 47  1  0  0  0
 37 66  1  0  0  0
 37105  1  0  0  0
 38 43  2  0  0  0
 38 46  1  0  0  0
 38 47  1  0  0  0
 39 64  1  0  0  0
 39 67  2  0  0  0
 40 52  1  0  0  0
 40 53  2  0  0  0
 40 58  1  0  0  0
 41106  1  0  0  0
 41107  1  0  0  0
 41108  1  0  0  0
 41 48  1  0  0  0
 42 43  1  0  0  0
 42 66  1  0  0  0
 42109  1  0  0  0
 42110  1  0  0  0
 43 44  1  0  0  0
 44111  1  0  0  0
 45 46  2  0  0  0
 45112  1  0  0  0
 46113  1  0  0  0
 47114  1  0  0  0
 47115  1  0  0  0
 48 56  1  0  0  0
 48 65  1  0  0  0
 48116  1  0  0  0
 49 50  1  0  0  0
 49 53  1  0  0  0
 49 64  1  0  0  0
 49117  1  0  0  0
 50 51  1  0  0  0
 50118  1  0  0  0
 50119  1  0  0  0
 51 52  1  0  0  0
 51120  1  0  0  0
 51121  1  0  0  0
 52122  1  0  0  0
 52123  1  0  0  0
 53 54  1  0  0  0
 54 55  2  0  0  0
 54124  1  0  0  0
 55 57  1  0  0  0
 55125  1  0  0  0
 56 69  2  0  0  0
 57 58  2  0  0  0
 57126  1  0  0  0
 58127  1  0  0  0
 59 60  1  0  0  0
 59 61  1  0  0  0
 59 62  1  0  0  0
 60128  1  0  0  0
 60129  1  0  0  0
 60130  1  0  0  0
 61131  1  0  0  0
 61132  1  0  0  0
 61133  1  0  0  0
 62134  1  0  0  0
 62135  1  0  0  0
 62136  1  0  0  0
 63 65  1  0  0  0
 63137  1  0  0  0
 63138  1  0  0  0
 63139  1  0  0  0
 64140  1  0  0  0
 65141  1  0  0  0
 68 79  1  0  0  0
 71 72  2  0  0  0
 71 73  1  0  0  0
 71142  1  0  0  0
 72 75  1  0  0  0
 72143  1  0  0  0
 73 76  2  0  0  0
 73 78  1  0  0  0
 74 75  2  0  0  0
 74 76  1  0  0  0
 74 79  1  0  0  0
 75 81  1  0  0  0
 76 82  1  0  0  0
 77 80  1  0  0  0
 77144  1  0  0  0
 77145  1  0  0  0
 77146  1  0  0  0
 78 80  1  0  0  0
 78147  1  0  0  0
 78148  1  0  0  0
 79149  1  0  0  0
 79150  1  0  0  0
M  ISO  4   1 100  68 101  79 101  80 100
M  END
> <chiral flag>
0

> <version>
0

> <s_m_source_file>
/data/baiqing/PycharmProjects/Reinvent-master-3.2/result/LINK_invent/BTK/process_docking_weight1_custom_sum_contain_oxygen_bond_distance_aromatic_linkinvent_7_9_3/rearranged_h_0018.sdf

> <i_m_source_file_index>
75

> <r_mmod_Potential_Energy-OPLS-2005>
1530.94848632812

> <r_mmod_Stretch_Energy-OPLS-2005>
664.497680664062

> <r_mmod_Bend_Energy-OPLS-2005>
444.759704589844

> <r_mmod_Torsional_Energy-OPLS-2005>
259.603240966797

> <r_mmod_Improper_Torsional_Energy-OPLS-2005>
6.02592754364014

> <r_mmod_Van_der_Waal_Energy-OPLS-2005>
124.532623291016

> <r_mmod_Electrostatic_Energy-OPLS-2005>
-283.562835693359

> <r_mmod_Solvation_Energy-OPLS-2005>
-207.07470703125

> <b_mmod_Minimization_Converged-OPLS-2005>
0

> <r_mmod_RMS_Derivative-OPLS-2005>
1.36948943138123

$$$$
76
                    3D
 Structure written by MMmdl.
148155  0  0  1  0            999 V2000
  -30.5477  -14.9224   20.4281 C   0  0  0  0  0  0
  -30.4431  -12.5720   19.4844 C   0  0  0  0  0  0
  -29.5163  -12.5211   18.2472 C   0  0  0  0  0  0
  -28.0497  -12.3051   18.6691 C   0  0  0  0  0  0
  -27.6324  -13.2278   19.8429 C   0  0  2  0  0  0
  -28.6815  -13.2224   20.9769 C   0  0  0  0  0  0
  -25.2508  -13.8163   20.5736 C   0  0  0  0  0  0
  -24.1777  -13.0419   20.9191 C   0  0  0  0  0  0
  -24.6364  -11.6896   20.8738 C   0  0  0  0  0  0
  -23.9044  -10.4280   21.0408 C   0  0  0  0  0  0
  -24.3603   -9.4200   21.9187 C   0  0  0  0  0  0
  -23.6285   -8.2232   22.0754 C   0  0  0  0  0  0
  -22.4269   -8.0268   21.3539 C   0  0  0  0  0  0
  -21.9898   -9.0242   20.4645 C   0  0  0  0  0  0
  -22.7219  -10.2124   20.3059 C   0  0  0  0  0  0
  -21.6848   -6.0731   22.5278 C   0  0  0  0  0  0
  -21.4011   -6.5638   23.8211 C   0  0  0  0  0  0
  -21.3661   -5.6792   24.9174 C   0  0  0  0  0  0
  -21.6046   -4.3053   24.7225 C   0  0  0  0  0  0
  -21.8820   -3.8144   23.4347 C   0  0  0  0  0  0
  -21.9192   -4.6960   22.3403 C   0  0  0  0  0  0
  -22.7809  -13.5219   21.1861 C   0  0  0  0  0  0
  -22.1661   -4.2147   21.0979 F   0  0  0  0  0  0
  -21.5631   -3.4538   25.7739 F   0  0  0  0  0  0
  -29.9502  -13.6599   20.3768 N   0  0  0  0  0  0
  -26.2902  -12.9346   20.3289 N   0  0  0  0  0  0
  -25.9293  -11.6495   20.5750 N   0  0  0  0  0  0
  -22.0456  -12.8218   22.0425 N   0  0  0  0  0  0
  -25.4279  -15.1882   20.4263 N   0  0  0  0  0  0
  -31.7584  -14.9694   20.1665 O   0  0  0  0  0  0
  -21.6631   -6.8869   21.4238 O   0  0  0  0  0  0
  -22.3495  -14.5525   20.6708 O   0  0  0  0  0  0
  -24.6408  -31.8463   23.1903 C   0  0  0  0  0  0
  -25.9191  -32.4709   23.8282 C   0  0  1  0  0  0
  -27.2179  -27.1643   20.1436 C   0  0  0  0  0  0
  -25.5948  -33.8515   24.2202 N   0  0  0  0  0  0
  -23.4426  -30.4672   21.5354 C   0  0  2  0  0  0
  -24.8913  -28.8988   20.1100 C   0  0  0  0  0  0
  -22.7553  -29.4559   22.4864 C   0  0  0  0  0  0
  -18.0305  -28.1393   22.8476 C   0  0  0  0  0  0
  -24.1488  -36.7264   23.2642 C   0  0  0  0  0  0
  -25.9968  -30.7294   21.3839 C   0  0  0  0  0  0
  -26.0684  -29.3432   20.7255 C   0  0  0  0  0  0
  -27.2332  -28.4918   20.7255 C   0  0  0  0  0  0
  -26.0136  -26.8145   19.4922 C   0  0  0  0  0  0
  -24.8752  -27.6469   19.4788 C   0  0  0  0  0  0
  -23.6672  -29.7981   20.1539 C   0  0  0  0  0  0
  -25.4121  -36.3041   24.0315 C   0  0  1  0  0  0
  -20.5914  -28.3716   23.1241 C   0  0  2  0  0  0
  -20.6793  -26.9421   22.5406 C   0  0  0  0  0  0
  -19.5769  -26.6377   21.5214 C   0  0  0  0  0  0
  -18.1949  -26.7930   22.1624 C   0  0  0  0  0  0
  -19.1559  -28.8872   23.2852 C   0  0  0  0  0  0
  -18.9477  -30.1468   23.8879 C   0  0  0  0  0  0
  -17.6474  -30.6591   24.0558 C   0  0  0  0  0  0
  -25.9069  -34.9415   23.5065 C   0  0  0  0  0  0
  -16.5366  -29.9085   23.6333 C   0  0  0  0  0  0
  -16.7290  -28.6502   23.0355 C   0  0  0  0  0  0
  -26.4523  -31.6568   25.0714 C   0  0  0  0  0  0
  -25.3714  -31.3752   26.1413 C   0  0  0  0  0  0
  -27.0384  -30.2968   24.6271 C   0  0  0  0  0  0
  -27.6053  -32.4330   25.7503 C   0  0  0  0  0  0
  -27.5572  -37.1789   24.8465 C   0  0  0  0  0  0
  -21.4247  -29.3049   22.3615 N   0  0  0  0  0  0
  -26.4285  -37.3751   23.9406 N   0  0  0  0  0  0
  -24.7133  -31.0344   22.0922 N   0  0  0  0  0  0
  -23.4208  -28.8101   23.3001 O   0  0  0  0  0  0
  -28.2800  -26.1977   20.2116 O   0  0  0  0  0  0
  -26.5653  -34.8905   22.4642 O   0  0  0  0  0  0
  -23.5533  -32.1324   23.7140 O   0  0  0  0  0  0
  -28.6268  -21.8205   20.2542 C   0  0  0  0  0  0
  -29.6554  -20.5437   20.3931 C   0  0  0  0  0  0
  -29.0488  -23.4092   20.3522 C   0  0  0  0  0  0
  -29.1958  -18.9291   20.4121 C   0  0  0  0  0  0
  -30.2464  -17.6207   20.4527 C   0  0  0  0  0  0
  -27.9994  -24.6808   20.0659 C   0  0  0  0  0  0
  -29.7818  -16.1276   20.5569 N   0  0  0  0  0  0
  -27.4365  -21.5610   20.0629 O   0  0  0  0  0  0
  -28.4214  -16.0379   20.7659 F   0  0  0  0  0  0
  -31.4738  -12.7354   19.1657 H   0  0  0  0  0  0
  -30.4456  -11.6143   20.0074 H   0  0  0  0  0  0
  -29.8316  -11.7255   17.5706 H   0  0  0  0  0  0
  -29.6021  -13.4524   17.6852 H   0  0  0  0  0  0
  -27.9441  -11.2619   18.9687 H   0  0  0  0  0  0
  -27.3833  -12.4462   17.8173 H   0  0  0  0  0  0
  -27.5989  -14.2284   19.4143 H   0  0  0  0  0  0
  -28.7748  -12.2278   21.4153 H   0  0  0  0  0  0
  -28.3860  -13.8804   21.7946 H   0  0  0  0  0  0
  -25.2747   -9.5685   22.4760 H   0  0  0  0  0  0
  -23.9999   -7.4626   22.7473 H   0  0  0  0  0  0
  -21.0830   -8.8759   19.8953 H   0  0  0  0  0  0
  -22.3675  -10.9665   19.6172 H   0  0  0  0  0  0
  -21.1998   -7.6145   23.9715 H   0  0  0  0  0  0
  -21.1487   -6.0520   25.9078 H   0  0  0  0  0  0
  -22.0598   -2.7606   23.2845 H   0  0  0  0  0  0
  -22.4076  -11.9889   22.4829 H   0  0  0  0  0  0
  -21.1076  -13.1252   22.2630 H   0  0  0  0  0  0
  -24.6876  -15.8595   20.5927 H   0  0  0  0  0  0
  -26.3334  -15.6196   20.2718 H   0  0  0  0  0  0
  -26.7254  -32.5324   23.1011 H   0  0  0  0  0  0
  -25.0081  -33.9633   25.0339 H   0  0  0  0  0  0
  -22.7440  -31.2925   21.3830 H   0  0  0  0  0  0
  -23.3752  -35.9594   23.3297 H   0  0  0  0  0  0
  -24.3577  -36.8904   22.2059 H   0  0  0  0  0  0
  -23.7238  -37.6457   23.6684 H   0  0  0  0  0  0
  -26.1464  -31.4841   20.6106 H   0  0  0  0  0  0
  -26.8702  -30.7809   22.0226 H   0  0  0  0  0  0
  -28.1307  -28.8266   21.2264 H   0  0  0  0  0  0
  -25.9150  -25.8584   19.0017 H   0  0  0  0  0  0
  -23.9759  -27.3020   18.9871 H   0  0  0  0  0  0
  -23.8027  -30.5736   19.3991 H   0  0  0  0  0  0
  -22.7825  -29.2396   19.8436 H   0  0  0  0  0  0
  -25.1306  -36.1873   25.0806 H   0  0  0  0  0  0
  -21.0005  -28.3310   24.1362 H   0  0  0  0  0  0
  -20.5693  -26.2327   23.3623 H   0  0  0  0  0  0
  -21.6659  -26.7436   22.1200 H   0  0  0  0  0  0
  -19.6934  -25.6282   21.1260 H   0  0  0  0  0  0
  -19.6709  -27.3173   20.6732 H   0  0  0  0  0  0
  -17.4216  -26.6666   21.4030 H   0  0  0  0  0  0
  -18.0355  -26.0083   22.9032 H   0  0  0  0  0  0
  -19.7952  -30.7288   24.2244 H   0  0  0  0  0  0
  -17.5029  -31.6271   24.5163 H   0  0  0  0  0  0
  -15.5367  -30.2985   23.7667 H   0  0  0  0  0  0
  -15.8688  -28.0818   22.7083 H   0  0  0  0  0  0
  -24.5900  -30.7088   25.7737 H   0  0  0  0  0  0
  -24.8895  -32.2934   26.4782 H   0  0  0  0  0  0
  -25.8005  -30.8967   27.0224 H   0  0  0  0  0  0
  -26.2994  -29.6697   24.1270 H   0  0  0  0  0  0
  -27.4000  -29.7258   25.4832 H   0  0  0  0  0  0
  -27.8898  -30.4214   23.9577 H   0  0  0  0  0  0
  -27.2646  -33.3646   26.2032 H   0  0  0  0  0  0
  -28.3898  -32.6862   25.0361 H   0  0  0  0  0  0
  -28.0682  -31.8485   26.5465 H   0  0  0  0  0  0
  -28.2583  -38.0090   24.7509 H   0  0  0  0  0  0
  -28.1071  -36.2618   24.6296 H   0  0  0  0  0  0
  -27.2290  -37.1443   25.8868 H   0  0  0  0  0  0
  -20.9448  -29.8768   21.6806 H   0  0  0  0  0  0
  -26.0152  -38.2816   24.1420 H   0  0  0  0  0  0
  -30.2347  -20.7298   21.2976 H   0  0  0  0  0  0
  -30.3673  -20.6638   19.5768 H   0  0  0  0  0  0
  -29.9062  -23.5324   19.6909 H   0  0  0  0  0  0
  -29.4446  -23.5397   21.3589 H   0  0  0  0  0  0
  -28.5257  -18.8136   21.2642 H   0  0  0  0  0  0
  -28.5508  -18.7810   19.5455 H   0  0  0  0  0  0
  -30.8788  -17.6803   19.5664 H   0  0  0  0  0  0
  -30.9259  -17.7747   21.2909 H   0  0  0  0  0  0
  -27.6705  -24.5420   19.0361 H   0  0  0  0  0  0
  -27.1163  -24.4815   20.6745 H   0  0  0  0  0  0
  1 25  1  0  0  0
  1 30  2  0  0  0
  1 77  1  0  0  0
  2  3  1  0  0  0
  2 25  1  0  0  0
  2 80  1  0  0  0
  2 81  1  0  0  0
  3  4  1  0  0  0
  3 82  1  0  0  0
  3 83  1  0  0  0
  4  5  1  0  0  0
  4 84  1  0  0  0
  4 85  1  0  0  0
  5  6  1  0  0  0
  5 26  1  0  0  0
  5 86  1  0  0  0
  6 25  1  0  0  0
  6 87  1  0  0  0
  6 88  1  0  0  0
  7  8  2  0  0  0
  7 26  1  0  0  0
  7 29  1  0  0  0
  8  9  1  0  0  0
  8 22  1  0  0  0
  9 10  1  0  0  0
  9 27  2  0  0  0
 10 11  2  0  0  0
 10 15  1  0  0  0
 11 12  1  0  0  0
 11 89  1  0  0  0
 12 13  2  0  0  0
 12 90  1  0  0  0
 13 14  1  0  0  0
 13 31  1  0  0  0
 14 15  2  0  0  0
 14 91  1  0  0  0
 15 92  1  0  0  0
 16 17  2  0  0  0
 16 21  1  0  0  0
 16 31  1  0  0  0
 17 18  1  0  0  0
 17 93  1  0  0  0
 18 19  2  0  0  0
 18 94  1  0  0  0
 19 20  1  0  0  0
 19 24  1  0  0  0
 20 21  2  0  0  0
 20 95  1  0  0  0
 21 23  1  0  0  0
 22 28  1  0  0  0
 22 32  2  0  0  0
 26 27  1  0  0  0
 28 96  1  0  0  0
 28 97  1  0  0  0
 29 98  1  0  0  0
 29 99  1  0  0  0
 33 34  1  0  0  0
 33 66  1  0  0  0
 33 70  2  0  0  0
 34 36  1  0  0  0
 34 59  1  0  0  0
 34100  1  0  0  0
 35 44  2  0  0  0
 35 45  1  0  0  0
 35 68  1  0  0  0
 36 56  1  0  0  0
 36101  1  0  0  0
 37 39  1  0  0  0
 37 47  1  0  0  0
 37 66  1  0  0  0
 37102  1  0  0  0
 38 43  2  0  0  0
 38 46  1  0  0  0
 38 47  1  0  0  0
 39 64  1  0  0  0
 39 67  2  0  0  0
 40 52  1  0  0  0
 40 53  2  0  0  0
 40 58  1  0  0  0
 41103  1  0  0  0
 41104  1  0  0  0
 41105  1  0  0  0
 41 48  1  0  0  0
 42 43  1  0  0  0
 42 66  1  0  0  0
 42106  1  0  0  0
 42107  1  0  0  0
 43 44  1  0  0  0
 44108  1  0  0  0
 45 46  2  0  0  0
 45109  1  0  0  0
 46110  1  0  0  0
 47111  1  0  0  0
 47112  1  0  0  0
 48 56  1  0  0  0
 48 65  1  0  0  0
 48113  1  0  0  0
 49 50  1  0  0  0
 49 53  1  0  0  0
 49 64  1  0  0  0
 49114  1  0  0  0
 50 51  1  0  0  0
 50115  1  0  0  0
 50116  1  0  0  0
 51 52  1  0  0  0
 51117  1  0  0  0
 51118  1  0  0  0
 52119  1  0  0  0
 52120  1  0  0  0
 53 54  1  0  0  0
 54 55  2  0  0  0
 54121  1  0  0  0
 55 57  1  0  0  0
 55122  1  0  0  0
 56 69  2  0  0  0
 57 58  2  0  0  0
 57123  1  0  0  0
 58124  1  0  0  0
 59 60  1  0  0  0
 59 61  1  0  0  0
 59 62  1  0  0  0
 60125  1  0  0  0
 60126  1  0  0  0
 60127  1  0  0  0
 61128  1  0  0  0
 61129  1  0  0  0
 61130  1  0  0  0
 62131  1  0  0  0
 62132  1  0  0  0
 62133  1  0  0  0
 63 65  1  0  0  0
 63134  1  0  0  0
 63135  1  0  0  0
 63136  1  0  0  0
 64137  1  0  0  0
 65138  1  0  0  0
 68 76  1  0  0  0
 71 72  1  0  0  0
 71 73  1  0  0  0
 71 78  2  0  0  0
 72 74  1  0  0  0
 72139  1  0  0  0
 72140  1  0  0  0
 73 76  1  0  0  0
 73141  1  0  0  0
 73142  1  0  0  0
 74 75  1  0  0  0
 74143  1  0  0  0
 74144  1  0  0  0
 75 77  1  0  0  0
 75145  1  0  0  0
 75146  1  0  0  0
 76147  1  0  0  0
 76148  1  0  0  0
 77 79  1  0  0  0
M  ISO  4   1 100  68 101  76 101  77 100
M  END
> <chiral flag>
0

> <version>
0

> <s_m_source_file>
/data/baiqing/PycharmProjects/Reinvent-master-3.2/result/LINK_invent/BTK/process_docking_weight1_custom_sum_contain_oxygen_bond_distance_aromatic_linkinvent_7_9_3/rearranged_h_0018.sdf

> <i_m_source_file_index>
76

> <r_mmod_Potential_Energy-OPLS-2005>
480.039825439453

> <r_mmod_Stretch_Energy-OPLS-2005>
239.401123046875

> <r_mmod_Bend_Energy-OPLS-2005>
232.568466186523

> <r_mmod_Torsional_Energy-OPLS-2005>
200.209365844727

> <r_mmod_Improper_Torsional_Energy-OPLS-2005>
4.40225267410278

> <r_mmod_Van_der_Waal_Energy-OPLS-2005>
119.758995056152

> <r_mmod_Electrostatic_Energy-OPLS-2005>
-282.594390869141

> <r_mmod_Solvation_Energy-OPLS-2005>
-201.226928710938

> <b_mmod_Minimization_Converged-OPLS-2005>
0

> <r_mmod_RMS_Derivative-OPLS-2005>
0.528784871101379

$$$$
77
                    3D
 Structure written by MMmdl.
156164  0  0  1  0            999 V2000
  -30.2958  -15.6029   20.3284 C   0  0  0  0  0  0
  -30.4274  -13.0502   19.5489 C   0  0  0  0  0  0
  -29.5514  -12.6589   18.3245 C   0  0  0  0  0  0
  -28.1211  -12.3068   18.7602 C   0  0  0  0  0  0
  -27.5975  -13.3065   19.8163 C   0  0  2  0  0  0
  -28.6139  -13.6148   20.9407 C   0  0  0  0  0  0
  -25.2323  -13.8287   20.5787 C   0  0  0  0  0  0
  -24.1710  -13.0433   20.9290 C   0  0  0  0  0  0
  -24.6414  -11.6944   20.8772 C   0  0  0  0  0  0
  -23.9121  -10.4291   21.0405 C   0  0  0  0  0  0
  -24.3654   -9.4203   21.9187 C   0  0  0  0  0  0
  -23.6317   -8.2243   22.0757 C   0  0  0  0  0  0
  -22.4298   -8.0287   21.3547 C   0  0  0  0  0  0
  -21.9951   -9.0258   20.4641 C   0  0  0  0  0  0
  -22.7292  -10.2133   20.3049 C   0  0  0  0  0  0
  -21.6857   -6.0744   22.5282 C   0  0  0  0  0  0
  -21.4017   -6.5643   23.8216 C   0  0  0  0  0  0
  -21.3663   -5.6796   24.9176 C   0  0  0  0  0  0
  -21.6051   -4.3059   24.7225 C   0  0  0  0  0  0
  -21.8819   -3.8148   23.4345 C   0  0  0  0  0  0
  -21.9194   -4.6972   22.3404 C   0  0  0  0  0  0
  -22.7721  -13.5165   21.1923 C   0  0  0  0  0  0
  -22.1659   -4.2160   21.0981 F   0  0  0  0  0  0
  -21.5630   -3.4537   25.7731 F   0  0  0  0  0  0
  -29.7991  -14.2282   20.2984 N   0  0  0  0  0  0
  -26.2766  -12.9611   20.3224 N   0  0  0  0  0  0
  -25.9358  -11.6682   20.5703 N   0  0  0  0  0  0
  -22.0381  -12.8134   22.0468 N   0  0  0  0  0  0
  -25.3918  -15.2030   20.4208 N   0  0  0  0  0  0
  -31.5256  -15.5740   20.1259 O   0  0  0  0  0  0
  -21.6649   -6.8893   21.4248 O   0  0  0  0  0  0
  -22.3394  -14.5461   20.6764 O   0  0  0  0  0  0
  -24.6833  -31.8008   23.1535 C   0  0  0  0  0  0
  -25.9420  -32.4481   23.8070 C   0  0  1  0  0  0
  -27.2265  -26.7129   20.2138 C   0  0  0  0  0  0
  -25.6000  -33.8301   24.1958 N   0  0  0  0  0  0
  -23.5096  -30.4035   21.5063 C   0  0  2  0  0  0
  -24.9681  -28.7479   20.1182 C   0  0  0  0  0  0
  -22.7766  -29.4317   22.4711 C   0  0  0  0  0  0
  -18.0333  -28.1425   22.8464 C   0  0  0  0  0  0
  -24.1474  -36.7143   23.2656 C   0  0  0  0  0  0
  -26.0893  -30.5383   21.4163 C   0  0  0  0  0  0
  -26.1563  -29.1034   20.7672 C   0  0  0  0  0  0
  -27.2717  -28.1136   20.7832 C   0  0  0  0  0  0
  -26.0062  -26.5663   19.5064 C   0  0  0  0  0  0
  -24.9316  -27.5048   19.4645 C   0  0  0  0  0  0
  -23.7642  -29.7023   20.1409 C   0  0  0  0  0  0
  -25.4129  -36.2894   24.0283 C   0  0  1  0  0  0
  -20.5972  -28.3782   23.1144 C   0  0  2  0  0  0
  -20.6798  -26.9443   22.5404 C   0  0  0  0  0  0
  -19.5776  -26.6375   21.5214 C   0  0  0  0  0  0
  -18.1952  -26.7961   22.1608 C   0  0  0  0  0  0
  -19.1602  -28.8929   23.2782 C   0  0  0  0  0  0
  -18.9509  -30.1514   23.8825 C   0  0  0  0  0  0
  -17.6504  -30.6616   24.0552 C   0  0  0  0  0  0
  -25.9117  -34.9291   23.4952 C   0  0  0  0  0  0
  -16.5391  -29.9099   23.6362 C   0  0  0  0  0  0
  -16.7317  -28.6519   23.0381 C   0  0  0  0  0  0
  -26.4594  -31.6526   25.0696 C   0  0  0  0  0  0
  -25.3649  -31.3828   26.1300 C   0  0  0  0  0  0
  -27.0549  -30.2882   24.6589 C   0  0  0  0  0  0
  -27.6033  -32.4393   25.7524 C   0  0  0  0  0  0
  -27.5549  -37.1719   24.8466 C   0  0  0  0  0  0
  -21.4413  -29.3033   22.3467 N   0  0  0  0  0  0
  -26.4246  -37.3669   23.9429 N   0  0  0  0  0  0
  -24.7838  -30.9462   22.0784 N   0  0  0  0  0  0
  -23.4212  -28.7908   23.3049 O   0  0  0  0  0  0
  -28.1789  -25.4890   20.2912 O   0  0  0  0  0  0
  -26.5747  -34.8867   22.4562 O   0  0  0  0  0  0
  -23.5854  -32.1070   23.6497 O   0  0  0  0  0  0
  -28.6256  -21.0988   21.3969 C   0  0  0  0  0  0
  -29.0721  -21.1204   19.1880 C   0  0  0  0  0  0
  -28.6284  -22.0658   20.2608 C   0  0  0  0  0  0
  -28.9485  -19.5907   21.4427 C   0  0  0  0  0  0
  -29.3963  -19.6091   19.2331 C   0  0  0  0  0  0
  -29.3826  -18.6416   20.3714 C   0  0  0  0  0  0
  -28.1793  -21.7384   22.7075 C   0  0  0  0  0  0
  -29.1564  -21.7905   17.8200 C   0  0  0  0  0  0
  -28.7738  -18.9168   22.7998 C   0  0  0  0  0  0
  -29.7286  -18.9527   17.9000 C   0  0  0  0  0  0
  -27.8670  -23.7765   20.1245 C   0  0  0  0  0  0
  -29.4709  -16.9166   20.4307 N   0  0  0  0  0  0
  -31.4278  -13.3041   19.1971 H   0  0  0  0  0  0
  -30.5687  -12.1938   20.2109 H   0  0  0  0  0  0
  -29.9976  -11.8242   17.7829 H   0  0  0  0  0  0
  -29.5194  -13.4977   17.6276 H   0  0  0  0  0  0
  -28.1404  -11.3029   19.1864 H   0  0  0  0  0  0
  -27.4538  -12.2668   17.8987 H   0  0  0  0  0  0
  -27.4675  -14.2358   19.2599 H   0  0  0  0  0  0
  -28.8595  -12.7226   21.5187 H   0  0  0  0  0  0
  -28.1860  -14.3289   21.6458 H   0  0  0  0  0  0
  -25.2791   -9.5678   22.4777 H   0  0  0  0  0  0
  -24.0020   -7.4639   22.7484 H   0  0  0  0  0  0
  -21.0889   -8.8778   19.8941 H   0  0  0  0  0  0
  -22.3752  -10.9671   19.6159 H   0  0  0  0  0  0
  -21.2006   -7.6149   23.9723 H   0  0  0  0  0  0
  -21.1490   -6.0520   25.9084 H   0  0  0  0  0  0
  -22.0596   -2.7610   23.2837 H   0  0  0  0  0  0
  -22.4013  -11.9802   22.4854 H   0  0  0  0  0  0
  -21.0986  -13.1131   22.2665 H   0  0  0  0  0  0
  -24.6152  -15.8487   20.5184 H   0  0  0  0  0  0
  -26.2209  -15.6396   20.0402 H   0  0  0  0  0  0
  -26.7509  -32.4963   23.0786 H   0  0  0  0  0  0
  -25.0101  -33.9336   25.0086 H   0  0  0  0  0  0
  -22.8354  -31.2412   21.3177 H   0  0  0  0  0  0
  -23.3766  -35.9437   23.3247 H   0  0  0  0  0  0
  -24.3542  -36.8889   22.2086 H   0  0  0  0  0  0
  -23.7200  -37.6283   23.6788 H   0  0  0  0  0  0
  -26.2879  -31.2643   20.6265 H   0  0  0  0  0  0
  -26.9417  -30.6091   22.0796 H   0  0  0  0  0  0
  -28.1638  -28.3905   21.3268 H   0  0  0  0  0  0
  -25.8383  -25.6254   19.0019 H   0  0  0  0  0  0
  -24.0355  -27.2261   18.9277 H   0  0  0  0  0  0
  -23.9400  -30.4622   19.3785 H   0  0  0  0  0  0
  -22.8701  -29.1678   19.8164 H   0  0  0  0  0  0
  -25.1335  -36.1641   25.0771 H   0  0  0  0  0  0
  -21.0042  -28.3403   24.1274 H   0  0  0  0  0  0
  -20.5663  -26.2403   23.3660 H   0  0  0  0  0  0
  -21.6662  -26.7391   22.1220 H   0  0  0  0  0  0
  -19.6917  -25.6262   21.1304 H   0  0  0  0  0  0
  -19.6723  -27.3135   20.6704 H   0  0  0  0  0  0
  -17.4230  -26.6734   21.3996 H   0  0  0  0  0  0
  -18.0312  -26.0108   22.8998 H   0  0  0  0  0  0
  -19.7989  -30.7348   24.2153 H   0  0  0  0  0  0
  -17.5065  -31.6290   24.5166 H   0  0  0  0  0  0
  -15.5390  -30.2983   23.7738 H   0  0  0  0  0  0
  -15.8712  -28.0819   22.7144 H   0  0  0  0  0  0
  -24.5887  -30.7120   25.7603 H   0  0  0  0  0  0
  -24.8764  -32.3037   26.4494 H   0  0  0  0  0  0
  -25.7821  -30.9162   27.0234 H   0  0  0  0  0  0
  -26.3276  -29.6485   24.1584 H   0  0  0  0  0  0
  -27.4010  -29.7344   25.5327 H   0  0  0  0  0  0
  -27.9238  -30.4050   24.0110 H   0  0  0  0  0  0
  -27.2581  -33.3789   26.1851 H   0  0  0  0  0  0
  -28.3975  -32.6805   25.0446 H   0  0  0  0  0  0
  -28.0549  -31.8685   26.5645 H   0  0  0  0  0  0
  -28.2516  -38.0059   24.7547 H   0  0  0  0  0  0
  -28.1087  -36.2585   24.6248 H   0  0  0  0  0  0
  -27.2261  -37.1309   25.8862 H   0  0  0  0  0  0
  -20.9707  -29.8722   21.6565 H   0  0  0  0  0  0
  -26.0056  -38.2698   24.1495 H   0  0  0  0  0  0
  -28.1422  -22.8253   22.6424 H   0  0  0  0  0  0
  -28.8724  -21.5141   23.5174 H   0  0  0  0  0  0
  -27.1842  -21.3931   22.9892 H   0  0  0  0  0  0
  -29.1861  -22.8765   17.9027 H   0  0  0  0  0  0
  -28.2929  -21.5277   17.2076 H   0  0  0  0  0  0
  -30.0613  -21.5122   17.2811 H   0  0  0  0  0  0
  -29.4813  -19.3244   23.5214 H   0  0  0  0  0  0
  -28.9498  -17.8429   22.7669 H   0  0  0  0  0  0
  -27.7629  -19.0604   23.1819 H   0  0  0  0  0  0
  -30.6780  -19.3253   17.5159 H   0  0  0  0  0  0
  -28.9497  -19.1523   17.1633 H   0  0  0  0  0  0
  -29.8177  -17.8700   17.9820 H   0  0  0  0  0  0
  -26.9974  -23.6673   20.7722 H   0  0  0  0  0  0
  -27.4241  -23.7361   19.1302 H   0  0  0  0  0  0
  -28.5439  -16.5814   20.6484 H   0  0  0  0  0  0
  1 25  1  0  0  0
  1 30  2  0  0  0
  1 82  1  0  0  0
  2  3  1  0  0  0
  2 25  1  0  0  0
  2 83  1  0  0  0
  2 84  1  0  0  0
  3  4  1  0  0  0
  3 85  1  0  0  0
  3 86  1  0  0  0
  4  5  1  0  0  0
  4 87  1  0  0  0
  4 88  1  0  0  0
  5  6  1  0  0  0
  5 26  1  0  0  0
  5 89  1  0  0  0
  6 25  1  0  0  0
  6 90  1  0  0  0
  6 91  1  0  0  0
  7  8  2  0  0  0
  7 26  1  0  0  0
  7 29  1  0  0  0
  8  9  1  0  0  0
  8 22  1  0  0  0
  9 10  1  0  0  0
  9 27  2  0  0  0
 10 11  2  0  0  0
 10 15  1  0  0  0
 11 12  1  0  0  0
 11 92  1  0  0  0
 12 13  2  0  0  0
 12 93  1  0  0  0
 13 14  1  0  0  0
 13 31  1  0  0  0
 14 15  2  0  0  0
 14 94  1  0  0  0
 15 95  1  0  0  0
 16 17  2  0  0  0
 16 21  1  0  0  0
 16 31  1  0  0  0
 17 18  1  0  0  0
 17 96  1  0  0  0
 18 19  2  0  0  0
 18 97  1  0  0  0
 19 20  1  0  0  0
 19 24  1  0  0  0
 20 21  2  0  0  0
 20 98  1  0  0  0
 21 23  1  0  0  0
 22 28  1  0  0  0
 22 32  2  0  0  0
 26 27  1  0  0  0
 28 99  1  0  0  0
 28100  1  0  0  0
 29101  1  0  0  0
 29102  1  0  0  0
 33 34  1  0  0  0
 33 66  1  0  0  0
 33 70  2  0  0  0
 34 36  1  0  0  0
 34 59  1  0  0  0
 34103  1  0  0  0
 35 44  2  0  0  0
 35 45  1  0  0  0
 35 68  1  0  0  0
 36 56  1  0  0  0
 36104  1  0  0  0
 37 39  1  0  0  0
 37 47  1  0  0  0
 37 66  1  0  0  0
 37105  1  0  0  0
 38 43  2  0  0  0
 38 46  1  0  0  0
 38 47  1  0  0  0
 39 64  1  0  0  0
 39 67  2  0  0  0
 40 52  1  0  0  0
 40 53  2  0  0  0
 40 58  1  0  0  0
 41106  1  0  0  0
 41107  1  0  0  0
 41108  1  0  0  0
 41 48  1  0  0  0
 42 43  1  0  0  0
 42 66  1  0  0  0
 42109  1  0  0  0
 42110  1  0  0  0
 43 44  1  0  0  0
 44111  1  0  0  0
 45 46  2  0  0  0
 45112  1  0  0  0
 46113  1  0  0  0
 47114  1  0  0  0
 47115  1  0  0  0
 48 56  1  0  0  0
 48 65  1  0  0  0
 48116  1  0  0  0
 49 50  1  0  0  0
 49 53  1  0  0  0
 49 64  1  0  0  0
 49117  1  0  0  0
 50 51  1  0  0  0
 50118  1  0  0  0
 50119  1  0  0  0
 51 52  1  0  0  0
 51120  1  0  0  0
 51121  1  0  0  0
 52122  1  0  0  0
 52123  1  0  0  0
 53 54  1  0  0  0
 54 55  2  0  0  0
 54124  1  0  0  0
 55 57  1  0  0  0
 55125  1  0  0  0
 56 69  2  0  0  0
 57 58  2  0  0  0
 57126  1  0  0  0
 58127  1  0  0  0
 59 60  1  0  0  0
 59 61  1  0  0  0
 59 62  1  0  0  0
 60128  1  0  0  0
 60129  1  0  0  0
 60130  1  0  0  0
 61131  1  0  0  0
 61132  1  0  0  0
 61133  1  0  0  0
 62134  1  0  0  0
 62135  1  0  0  0
 62136  1  0  0  0
 63 65  1  0  0  0
 63137  1  0  0  0
 63138  1  0  0  0
 63139  1  0  0  0
 64140  1  0  0  0
 65141  1  0  0  0
 68 81  1  0  0  0
 71 73  2  0  0  0
 71 74  1  0  0  0
 71 77  1  0  0  0
 72 73  1  0  0  0
 72 75  2  0  0  0
 72 78  1  0  0  0
 73 81  1  0  0  0
 74 76  2  0  0  0
 74 79  1  0  0  0
 75 76  1  0  0  0
 75 80  1  0  0  0
 76 82  1  0  0  0
 77142  1  0  0  0
 77143  1  0  0  0
 77144  1  0  0  0
 78145  1  0  0  0
 78146  1  0  0  0
 78147  1  0  0  0
 79148  1  0  0  0
 79149  1  0  0  0
 79150  1  0  0  0
 80151  1  0  0  0
 80152  1  0  0  0
 80153  1  0  0  0
 81154  1  0  0  0
 81155  1  0  0  0
 82156  1  0  0  0
M  ISO  4   1 100  68 101  81 101  82 100
M  END
> <chiral flag>
0

> <version>
0

> <s_m_source_file>
/data/baiqing/PycharmProjects/Reinvent-master-3.2/result/LINK_invent/BTK/process_docking_weight1_custom_sum_contain_oxygen_bond_distance_aromatic_linkinvent_7_9_3/rearranged_h_0018.sdf

> <i_m_source_file_index>
77

> <r_mmod_Potential_Energy-OPLS-2005>
2259.22241210938

> <r_mmod_Stretch_Energy-OPLS-2005>
940.248229980469

> <r_mmod_Bend_Energy-OPLS-2005>
638.989868164062

> <r_mmod_Torsional_Energy-OPLS-2005>
258.704620361328

> <r_mmod_Improper_Torsional_Energy-OPLS-2005>
9.39475345611572

> <r_mmod_Van_der_Waal_Energy-OPLS-2005>
142.759948730469

> <r_mmod_Electrostatic_Energy-OPLS-2005>
-390.464752197266

> <r_mmod_Solvation_Energy-OPLS-2005>
-210.310836791992

> <b_mmod_Minimization_Converged-OPLS-2005>
0

> <r_mmod_RMS_Derivative-OPLS-2005>
1.11194562911987

$$$$
78
                    3D
 Structure written by MMmdl.
159167  0  0  1  0            999 V2000
  -30.6651  -14.6929   20.3528 C   0  0  0  0  0  0
  -30.4164  -12.4039   19.4324 C   0  0  0  0  0  0
  -29.4872  -12.4387   18.2016 C   0  0  0  0  0  0
  -28.0136  -12.3076   18.6300 C   0  0  0  0  0  0
  -27.6340  -13.2258   19.8246 C   0  0  2  0  0  0
  -28.6951  -13.1982   20.9437 C   0  0  0  0  0  0
  -25.2530  -13.8189   20.5747 C   0  0  0  0  0  0
  -24.1821  -13.0430   20.9250 C   0  0  0  0  0  0
  -24.6400  -11.6905   20.8757 C   0  0  0  0  0  0
  -23.9083  -10.4277   21.0408 C   0  0  0  0  0  0
  -24.3635   -9.4182   21.9180 C   0  0  0  0  0  0
  -23.6304   -8.2221   22.0749 C   0  0  0  0  0  0
  -22.4281   -8.0274   21.3548 C   0  0  0  0  0  0
  -21.9930   -9.0243   20.4642 C   0  0  0  0  0  0
  -22.7266  -10.2120   20.3055 C   0  0  0  0  0  0
  -21.6844   -6.0737   22.5280 C   0  0  0  0  0  0
  -21.4008   -6.5634   23.8218 C   0  0  0  0  0  0
  -21.3674   -5.6783   24.9173 C   0  0  0  0  0  0
  -21.6050   -4.3045   24.7218 C   0  0  0  0  0  0
  -21.8825   -3.8147   23.4330 C   0  0  0  0  0  0
  -21.9193   -4.6971   22.3388 C   0  0  0  0  0  0
  -22.7844  -13.5223   21.1888 C   0  0  0  0  0  0
  -22.1664   -4.2158   21.0966 F   0  0  0  0  0  0
  -21.5623   -3.4527   25.7724 F   0  0  0  0  0  0
  -29.9865  -13.5018   20.3193 N   0  0  0  0  0  0
  -26.2929  -12.9386   20.3227 N   0  0  0  0  0  0
  -25.9321  -11.6537   20.5739 N   0  0  0  0  0  0
  -22.0473  -12.8215   22.0418 N   0  0  0  0  0  0
  -25.4227  -15.1901   20.4232 N   0  0  0  0  0  0
  -31.8976  -14.6770   20.3505 O   0  0  0  0  0  0
  -21.6636   -6.8881   21.4243 O   0  0  0  0  0  0
  -22.3546  -14.5532   20.6731 O   0  0  0  0  0  0
  -24.6278  -31.8599   23.1988 C   0  0  0  0  0  0
  -25.9131  -32.4775   23.8330 C   0  0  1  0  0  0
  -27.2165  -27.3104   20.1318 C   0  0  0  0  0  0
  -25.5958  -33.8568   24.2283 N   0  0  0  0  0  0
  -23.4210  -30.4819   21.5403 C   0  0  2  0  0  0
  -24.8648  -28.9283   20.1118 C   0  0  0  0  0  0
  -22.7466  -29.4644   22.4910 C   0  0  0  0  0  0
  -18.0289  -28.1402   22.8462 C   0  0  0  0  0  0
  -24.1486  -36.7297   23.2639 C   0  0  0  0  0  0
  -25.9603  -30.7912   21.3633 C   0  0  0  0  0  0
  -26.0336  -29.4142   20.7140 C   0  0  0  0  0  0
  -27.2142  -28.6177   20.7091 C   0  0  0  0  0  0
  -26.0295  -26.8684   19.5148 C   0  0  0  0  0  0
  -24.8654  -27.6626   19.5025 C   0  0  0  0  0  0
  -23.6352  -29.8128   20.1564 C   0  0  0  0  0  0
  -25.4111  -36.3085   24.0326 C   0  0  1  0  0  0
  -20.5890  -28.3724   23.1271 C   0  0  2  0  0  0
  -20.6795  -26.9447   22.5408 C   0  0  0  0  0  0
  -19.5783  -26.6398   21.5211 C   0  0  0  0  0  0
  -18.1953  -26.7942   22.1606 C   0  0  0  0  0  0
  -19.1537  -28.8868   23.2871 C   0  0  0  0  0  0
  -18.9466  -30.1462   23.8898 C   0  0  0  0  0  0
  -17.6470  -30.6599   24.0563 C   0  0  0  0  0  0
  -25.9055  -34.9454   23.5104 C   0  0  0  0  0  0
  -16.5360  -29.9101   23.6319 C   0  0  0  0  0  0
  -16.7275  -28.6520   23.0331 C   0  0  0  0  0  0
  -26.4503  -31.6560   25.0682 C   0  0  0  0  0  0
  -25.3745  -31.3688   26.1406 C   0  0  0  0  0  0
  -27.0338  -30.2994   24.6118 C   0  0  0  0  0  0
  -27.6104  -32.4257   25.7421 C   0  0  0  0  0  0
  -27.5578  -37.1801   24.8466 C   0  0  0  0  0  0
  -21.4176  -29.3071   22.3647 N   0  0  0  0  0  0
  -26.4286  -37.3791   23.9409 N   0  0  0  0  0  0
  -24.6898  -31.0614   22.0917 N   0  0  0  0  0  0
  -23.4161  -28.8181   23.3013 O   0  0  0  0  0  0
  -28.3409  -26.4814   20.1263 O   0  0  0  0  0  0
  -26.5606  -34.8919   22.4660 O   0  0  0  0  0  0
  -23.5443  -32.1380   23.7317 O   0  0  0  0  0  0
  -29.9826  -19.3104   21.1939 C   0  0  0  0  0  0
  -28.9022  -19.9353   20.5121 C   0  0  0  0  0  0
  -29.6269  -17.0795   20.1114 C   0  0  0  0  0  0
  -30.3466  -17.9366   21.0057 C   0  0  0  0  0  0
  -28.1745  -19.0831   19.6392 C   0  0  0  0  0  0
  -28.5103  -17.7019   19.4604 C   0  0  0  0  0  0
  -28.5307  -24.2277   18.2780 C   0  0  0  0  0  0
  -30.5883  -15.8254   18.2640 C   0  0  0  0  0  0
  -28.4247  -21.4134   20.8341 C   0  0  0  0  0  0
  -28.2470  -25.1063   20.6825 C   0  0  0  0  0  0
  -28.1887  -23.8222   19.7230 C   0  0  2  0  0  0
  -30.0733  -15.7381   19.6538 N   0  0  0  0  0  0
  -29.0308  -22.5917   20.0947 N   0  3  0  0  0  0
  -31.7300  -17.3808   21.8794 Cl  0  0  0  0  0  0
  -26.8322  -19.7414   18.7619 Cl  0  0  0  0  0  0
  -27.5026  -16.7726   18.3967 Cl  0  0  0  0  0  0
  -31.4558  -12.5057   19.1154 H   0  0  0  0  0  0
  -30.3409  -11.4427   19.9448 H   0  0  0  0  0  0
  -29.7438  -11.6312   17.5136 H   0  0  0  0  0  0
  -29.6224  -13.3599   17.6383 H   0  0  0  0  0  0
  -27.8509  -11.2629   18.8980 H   0  0  0  0  0  0
  -27.3584  -12.5085   17.7812 H   0  0  0  0  0  0
  -27.6157  -14.2366   19.4241 H   0  0  0  0  0  0
  -28.7218  -12.2214   21.4306 H   0  0  0  0  0  0
  -28.4599  -13.9347   21.7128 H   0  0  0  0  0  0
  -25.2786   -9.5636   22.4759 H   0  0  0  0  0  0
  -24.0001   -7.4611   22.7466 H   0  0  0  0  0  0
  -21.0862   -8.8766   19.8942 H   0  0  0  0  0  0
  -22.3738  -10.9657   19.6165 H   0  0  0  0  0  0
  -21.1993   -7.6145   23.9727 H   0  0  0  0  0  0
  -21.1506   -6.0503   25.9077 H   0  0  0  0  0  0
  -22.0598   -2.7611   23.2820 H   0  0  0  0  0  0
  -22.4105  -11.9903   22.4838 H   0  0  0  0  0  0
  -21.1074  -13.1224   22.2562 H   0  0  0  0  0  0
  -24.6497  -15.8368   20.5242 H   0  0  0  0  0  0
  -26.2452  -15.6154   20.0138 H   0  0  0  0  0  0
  -26.7193  -32.5445   23.1074 H   0  0  0  0  0  0
  -25.0155  -33.9726   25.0458 H   0  0  0  0  0  0
  -22.7207  -31.3062   21.3933 H   0  0  0  0  0  0
  -23.3760  -35.9623   23.3301 H   0  0  0  0  0  0
  -24.3596  -36.8908   22.2061 H   0  0  0  0  0  0
  -23.7213  -37.6489   23.6649 H   0  0  0  0  0  0
  -26.0874  -31.5502   20.5888 H   0  0  0  0  0  0
  -26.8449  -30.8468   21.9864 H   0  0  0  0  0  0
  -28.1167  -28.9881   21.1748 H   0  0  0  0  0  0
  -25.9983  -25.8994   19.0389 H   0  0  0  0  0  0
  -23.9713  -27.2847   19.0250 H   0  0  0  0  0  0
  -23.7569  -30.5867   19.3978 H   0  0  0  0  0  0
  -22.7544  -29.2436   19.8554 H   0  0  0  0  0  0
  -25.1290  -36.1952   25.0818 H   0  0  0  0  0  0
  -20.9986  -28.3317   24.1396 H   0  0  0  0  0  0
  -20.5739  -26.2334   23.3610 H   0  0  0  0  0  0
  -21.6663  -26.7513   22.1192 H   0  0  0  0  0  0
  -19.6975  -25.6314   21.1249 H   0  0  0  0  0  0
  -19.6732  -27.3198   20.6736 H   0  0  0  0  0  0
  -17.4229  -26.6662   21.4008 H   0  0  0  0  0  0
  -18.0367  -26.0097   22.9016 H   0  0  0  0  0  0
  -19.7945  -30.7268   24.2273 H   0  0  0  0  0  0
  -17.5031  -31.6279   24.5176 H   0  0  0  0  0  0
  -15.5368  -30.3017   23.7649 H   0  0  0  0  0  0
  -15.8665  -28.0860   22.7045 H   0  0  0  0  0  0
  -24.5948  -30.7005   25.7725 H   0  0  0  0  0  0
  -24.8898  -32.2836   26.4827 H   0  0  0  0  0  0
  -25.8066  -30.8869   27.0184 H   0  0  0  0  0  0
  -26.2888  -29.6731   24.1187 H   0  0  0  0  0  0
  -27.4097  -29.7258   25.4606 H   0  0  0  0  0  0
  -27.8728  -30.4301   23.9278 H   0  0  0  0  0  0
  -27.2788  -33.3587   26.1983 H   0  0  0  0  0  0
  -28.3890  -32.6742   25.0201 H   0  0  0  0  0  0
  -28.0776  -31.8363   26.5323 H   0  0  0  0  0  0
  -28.2594  -38.0110   24.7528 H   0  0  0  0  0  0
  -28.1064  -36.2631   24.6250 H   0  0  0  0  0  0
  -27.2297  -37.1397   25.8873 H   0  0  0  0  0  0
  -20.9351  -29.8762   21.6832 H   0  0  0  0  0  0
  -26.0173  -38.2864   24.1428 H   0  0  0  0  0  0
  -30.5587  -19.8986   21.8940 H   0  0  0  0  0  0
  -28.5600  -23.3641   17.6127 H   0  0  0  0  0  0
  -29.4938  -24.7388   18.2195 H   0  0  0  0  0  0
  -27.7798  -24.9069   17.8753 H   0  0  0  0  0  0
  -31.1724  -16.7375   18.1288 H   0  0  0  0  0  0
  -29.7885  -15.8423   17.5274 H   0  0  0  0  0  0
  -31.2453  -15.0048   17.9642 H   0  0  0  0  0  0
  -28.5814  -21.5804   21.9004 H   0  0  0  0  0  0
  -27.3429  -21.4521   20.7206 H   0  0  0  0  0  0
  -29.1214  -25.0007   21.3251 H   0  0  0  0  0  0
  -27.4042  -25.0560   21.3738 H   0  0  0  0  0  0
  -27.1487  -23.4961   19.6883 H   0  0  0  0  0  0
  -29.3338  -22.2071   19.2154 H   0  0  0  0  0  0
  -29.8735  -22.8710   20.5748 H   0  0  0  0  0  0
  1 25  1  0  0  0
  1 30  2  0  0  0
  1 82  1  0  0  0
  2  3  1  0  0  0
  2 25  1  0  0  0
  2 87  1  0  0  0
  2 88  1  0  0  0
  3  4  1  0  0  0
  3 89  1  0  0  0
  3 90  1  0  0  0
  4  5  1  0  0  0
  4 91  1  0  0  0
  4 92  1  0  0  0
  5  6  1  0  0  0
  5 26  1  0  0  0
  5 93  1  0  0  0
  6 25  1  0  0  0
  6 94  1  0  0  0
  6 95  1  0  0  0
  7  8  2  0  0  0
  7 26  1  0  0  0
  7 29  1  0  0  0
  8  9  1  0  0  0
  8 22  1  0  0  0
  9 10  1  0  0  0
  9 27  2  0  0  0
 10 11  2  0  0  0
 10 15  1  0  0  0
 11 12  1  0  0  0
 11 96  1  0  0  0
 12 13  2  0  0  0
 12 97  1  0  0  0
 13 14  1  0  0  0
 13 31  1  0  0  0
 14 15  2  0  0  0
 14 98  1  0  0  0
 15 99  1  0  0  0
 16 17  2  0  0  0
 16 21  1  0  0  0
 16 31  1  0  0  0
 17 18  1  0  0  0
 17100  1  0  0  0
 18 19  2  0  0  0
 18101  1  0  0  0
 19 20  1  0  0  0
 19 24  1  0  0  0
 20 21  2  0  0  0
 20102  1  0  0  0
 21 23  1  0  0  0
 22 28  1  0  0  0
 22 32  2  0  0  0
 26 27  1  0  0  0
 28103  1  0  0  0
 28104  1  0  0  0
 29105  1  0  0  0
 29106  1  0  0  0
 33 34  1  0  0  0
 33 66  1  0  0  0
 33 70  2  0  0  0
 34 36  1  0  0  0
 34 59  1  0  0  0
 34107  1  0  0  0
 35 44  2  0  0  0
 35 45  1  0  0  0
 35 68  1  0  0  0
 36 56  1  0  0  0
 36108  1  0  0  0
 37 39  1  0  0  0
 37 47  1  0  0  0
 37 66  1  0  0  0
 37109  1  0  0  0
 38 43  2  0  0  0
 38 46  1  0  0  0
 38 47  1  0  0  0
 39 64  1  0  0  0
 39 67  2  0  0  0
 40 52  1  0  0  0
 40 53  2  0  0  0
 40 58  1  0  0  0
 41110  1  0  0  0
 41111  1  0  0  0
 41112  1  0  0  0
 41 48  1  0  0  0
 42 43  1  0  0  0
 42 66  1  0  0  0
 42113  1  0  0  0
 42114  1  0  0  0
 43 44  1  0  0  0
 44115  1  0  0  0
 45 46  2  0  0  0
 45116  1  0  0  0
 46117  1  0  0  0
 47118  1  0  0  0
 47119  1  0  0  0
 48 56  1  0  0  0
 48 65  1  0  0  0
 48120  1  0  0  0
 49 50  1  0  0  0
 49 53  1  0  0  0
 49 64  1  0  0  0
 49121  1  0  0  0
 50 51  1  0  0  0
 50122  1  0  0  0
 50123  1  0  0  0
 51 52  1  0  0  0
 51124  1  0  0  0
 51125  1  0  0  0
 52126  1  0  0  0
 52127  1  0  0  0
 53 54  1  0  0  0
 54 55  2  0  0  0
 54128  1  0  0  0
 55 57  1  0  0  0
 55129  1  0  0  0
 56 69  2  0  0  0
 57 58  2  0  0  0
 57130  1  0  0  0
 58131  1  0  0  0
 59 60  1  0  0  0
 59 61  1  0  0  0
 59 62  1  0  0  0
 60132  1  0  0  0
 60133  1  0  0  0
 60134  1  0  0  0
 61135  1  0  0  0
 61136  1  0  0  0
 61137  1  0  0  0
 62138  1  0  0  0
 62139  1  0  0  0
 62140  1  0  0  0
 63 65  1  0  0  0
 63141  1  0  0  0
 63142  1  0  0  0
 63143  1  0  0  0
 64144  1  0  0  0
 65145  1  0  0  0
 68 80  1  0  0  0
 71 72  2  0  0  0
 71 74  1  0  0  0
 71146  1  0  0  0
 72 75  1  0  0  0
 72 79  1  0  0  0
 73 74  2  0  0  0
 73 76  1  0  0  0
 73 82  1  0  0  0
 74 84  1  0  0  0
 75 76  2  0  0  0
 75 85  1  0  0  0
 76 86  1  0  0  0
 77147  1  0  0  0
 77148  1  0  0  0
 77149  1  0  0  0
 77 81  1  0  0  0
 78 82  1  0  0  0
 78150  1  0  0  0
 78151  1  0  0  0
 78152  1  0  0  0
 79 83  1  0  0  0
 79153  1  0  0  0
 79154  1  0  0  0
 80 81  1  0  0  0
 80155  1  0  0  0
 80156  1  0  0  0
 81 83  1  0  0  0
 81157  1  0  0  0
 83158  1  0  0  0
 83159  1  0  0  0
M  CHG  1  83   1
M  ISO  4   1 100  68 101  80 101  82 100
M  END
> <chiral flag>
0

> <version>
0

> <s_m_source_file>
/data/baiqing/PycharmProjects/Reinvent-master-3.2/result/LINK_invent/BTK/process_docking_weight1_custom_sum_contain_oxygen_bond_distance_aromatic_linkinvent_7_9_3/rearranged_h_0018.sdf

> <i_m_source_file_index>
78

> <r_mmod_Potential_Energy-OPLS-2005>
193.417053222656

> <r_mmod_Stretch_Energy-OPLS-2005>
96.4857788085938

> <r_mmod_Bend_Energy-OPLS-2005>
173.968276977539

> <r_mmod_Torsional_Energy-OPLS-2005>
353.235473632812

> <r_mmod_Improper_Torsional_Energy-OPLS-2005>
34.7065505981445

> <r_mmod_Van_der_Waal_Energy-OPLS-2005>
140.40576171875

> <r_mmod_Electrostatic_Energy-OPLS-2005>
-218.406173706055

> <r_mmod_Solvation_Energy-OPLS-2005>
-465.32958984375

> <b_mmod_Minimization_Converged-OPLS-2005>
0

> <r_mmod_RMS_Derivative-OPLS-2005>
2.95521521568298

$$$$
79
                    3D
 Structure written by MMmdl.
150158  0  0  1  0            999 V2000
  -30.4417  -15.1848   20.3823 C   0  0  0  0  0  0
  -30.4476  -12.7484   19.5232 C   0  0  0  0  0  0
  -29.5368  -12.5721   18.2818 C   0  0  0  0  0  0
  -28.0784  -12.3128   18.7015 C   0  0  0  0  0  0
  -27.6198  -13.2682   19.8318 C   0  0  2  0  0  0
  -28.6569  -13.3876   20.9692 C   0  0  0  0  0  0
  -25.2394  -13.8213   20.5695 C   0  0  0  0  0  0
  -24.1746  -13.0416   20.9230 C   0  0  0  0  0  0
  -24.6406  -11.6918   20.8757 C   0  0  0  0  0  0
  -23.9095  -10.4284   21.0405 C   0  0  0  0  0  0
  -24.3637   -9.4199   21.9185 C   0  0  0  0  0  0
  -23.6302   -8.2239   22.0755 C   0  0  0  0  0  0
  -22.4284   -8.0282   21.3544 C   0  0  0  0  0  0
  -21.9927   -9.0257   20.4645 C   0  0  0  0  0  0
  -22.7264  -10.2130   20.3054 C   0  0  0  0  0  0
  -21.6854   -6.0736   22.5279 C   0  0  0  0  0  0
  -21.4016   -6.5640   23.8213 C   0  0  0  0  0  0
  -21.3660   -5.6792   24.9175 C   0  0  0  0  0  0
  -21.6044   -4.3054   24.7226 C   0  0  0  0  0  0
  -21.8817   -3.8146   23.4346 C   0  0  0  0  0  0
  -21.9193   -4.6963   22.3402 C   0  0  0  0  0  0
  -22.7766  -13.5179   21.1893 C   0  0  0  0  0  0
  -22.1660   -4.2148   21.0977 F   0  0  0  0  0  0
  -21.5629   -3.4537   25.7738 F   0  0  0  0  0  0
  -29.9052  -13.8736   20.3603 N   0  0  0  0  0  0
  -26.2848  -12.9494   20.3232 N   0  0  0  0  0  0
  -25.9348  -11.6605   20.5735 N   0  0  0  0  0  0
  -22.0429  -12.8164   22.0455 N   0  0  0  0  0  0
  -25.3975  -15.1933   20.4081 N   0  0  0  0  0  0
  -31.6511  -15.2349   20.1227 O   0  0  0  0  0  0
  -21.6641   -6.8883   21.4242 O   0  0  0  0  0  0
  -22.3438  -14.5479   20.6737 O   0  0  0  0  0  0
  -24.6579  -31.8274   23.1735 C   0  0  0  0  0  0
  -25.9281  -32.4604   23.8185 C   0  0  1  0  0  0
  -27.2248  -26.9825   20.1783 C   0  0  0  0  0  0
  -25.5969  -33.8419   24.2091 N   0  0  0  0  0  0
  -23.4704  -30.4400   21.5212 C   0  0  2  0  0  0
  -24.9245  -28.8350   20.1111 C   0  0  0  0  0  0
  -22.7641  -29.4457   22.4789 C   0  0  0  0  0  0
  -18.0317  -28.1407   22.8466 C   0  0  0  0  0  0
  -24.1494  -36.7220   23.2646 C   0  0  0  0  0  0
  -26.0356  -30.6530   21.3941 C   0  0  0  0  0  0
  -26.1062  -29.2477   20.7391 C   0  0  0  0  0  0
  -27.2525  -28.3422   20.7470 C   0  0  0  0  0  0
  -26.0140  -26.7051   19.5065 C   0  0  0  0  0  0
  -24.9004  -27.5830   19.4747 C   0  0  0  0  0  0
  -23.7079  -29.7567   20.1464 C   0  0  0  0  0  0
  -25.4130  -36.2974   24.0299 C   0  0  1  0  0  0
  -20.5938  -28.3746   23.1196 C   0  0  2  0  0  0
  -20.6795  -26.9429   22.5403 C   0  0  0  0  0  0
  -19.5771  -26.6376   21.5214 C   0  0  0  0  0  0
  -18.1953  -26.7939   22.1622 C   0  0  0  0  0  0
  -19.1578  -28.8895   23.2821 C   0  0  0  0  0  0
  -18.9491  -30.1486   23.8855 C   0  0  0  0  0  0
  -17.6487  -30.6598   24.0556 C   0  0  0  0  0  0
  -25.9091  -34.9357   23.5013 C   0  0  0  0  0  0
  -16.5375  -29.9088   23.6341 C   0  0  0  0  0  0
  -16.7301  -28.6508   23.0359 C   0  0  0  0  0  0
  -26.4551  -31.6538   25.0697 C   0  0  0  0  0  0
  -25.3698  -31.3780   26.1370 C   0  0  0  0  0  0
  -27.0440  -30.2910   24.6395 C   0  0  0  0  0  0
  -27.6042  -32.4346   25.7506 C   0  0  0  0  0  0
  -27.5566  -37.1767   24.8464 C   0  0  0  0  0  0
  -21.4315  -29.3042   22.3547 N   0  0  0  0  0  0
  -26.4277  -37.3708   23.9404 N   0  0  0  0  0  0
  -24.7421  -30.9994   22.0838 N   0  0  0  0  0  0
  -23.4212  -28.8020   23.3008 O   0  0  0  0  0  0
  -28.2509  -25.9200   20.2588 O   0  0  0  0  0  0
  -26.5698  -34.8887   22.4607 O   0  0  0  0  0  0
  -23.5660  -32.1214   23.6864 O   0  0  0  0  0  0
  -30.2373  -20.4236   19.8366 C   0  0  0  0  0  0
  -29.1166  -21.2097   20.3479 C   0  0  0  0  0  0
  -28.2075  -20.2275   20.9216 C   0  0  0  0  0  0
  -29.5469  -17.9763   20.4522 C   0  0  0  0  0  0
  -30.4505  -18.9545   19.8708 C   0  0  0  0  0  0
  -28.4118  -18.7478   20.9571 C   0  0  0  0  0  0
  -26.9460  -20.7756   21.5700 C   0  0  0  0  0  0
  -29.1166  -22.9488   20.4550 C   0  0  0  0  0  0
  -28.0346  -24.3106   20.1074 C   0  0  0  0  0  0
  -29.5979  -16.3711   20.5458 N   0  0  0  0  0  0
  -31.9062  -18.3750   19.1482 Cl  0  0  0  0  0  0
  -27.1762  -17.7954   21.7071 Cl  0  0  0  0  0  0
  -31.4700  -12.9482   19.1990 H   0  0  0  0  0  0
  -30.4984  -11.8255   20.1028 H   0  0  0  0  0  0
  -29.8999  -11.7564   17.6552 H   0  0  0  0  0  0
  -29.5835  -13.4735   17.6690 H   0  0  0  0  0  0
  -28.0130  -11.2802   19.0458 H   0  0  0  0  0  0
  -27.4138  -12.3912   17.8404 H   0  0  0  0  0  0
  -27.5512  -14.2500   19.3620 H   0  0  0  0  0  0
  -28.8007  -12.4337   21.4781 H   0  0  0  0  0  0
  -28.3119  -14.0935   21.7263 H   0  0  0  0  0  0
  -25.2780   -9.5671   22.4764 H   0  0  0  0  0  0
  -24.0005   -7.4629   22.7477 H   0  0  0  0  0  0
  -21.0858   -8.8780   19.8950 H   0  0  0  0  0  0
  -22.3727  -10.9669   19.6163 H   0  0  0  0  0  0
  -21.2009   -7.6149   23.9717 H   0  0  0  0  0  0
  -21.1485   -6.0522   25.9078 H   0  0  0  0  0  0
  -22.0596   -2.7608   23.2846 H   0  0  0  0  0  0
  -22.4068  -11.9836   22.4843 H   0  0  0  0  0  0
  -21.1044  -13.1171   22.2665 H   0  0  0  0  0  0
  -24.6296  -15.8398   20.5492 H   0  0  0  0  0  0
  -26.2450  -15.6524   20.1053 H   0  0  0  0  0  0
  -26.7349  -32.5161   23.0903 H   0  0  0  0  0  0
  -25.0072  -33.9506   25.0212 H   0  0  0  0  0  0
  -22.7809  -31.2695   21.3523 H   0  0  0  0  0  0
  -23.3757  -35.9551   23.3285 H   0  0  0  0  0  0
  -24.3570  -36.8891   22.2065 H   0  0  0  0  0  0
  -23.7255  -37.6405   23.6719 H   0  0  0  0  0  0
  -26.2076  -31.3971   20.6153 H   0  0  0  0  0  0
  -26.8988  -30.7093   22.0455 H   0  0  0  0  0  0
  -28.1499  -28.6565   21.2610 H   0  0  0  0  0  0
  -25.8987  -25.7453   19.0239 H   0  0  0  0  0  0
  -24.0013  -27.2618   18.9666 H   0  0  0  0  0  0
  -23.8597  -30.5255   19.3876 H   0  0  0  0  0  0
  -22.8192  -29.2074   19.8307 H   0  0  0  0  0  0
  -25.1329  -36.1773   25.0791 H   0  0  0  0  0  0
  -21.0028  -28.3352   24.1320 H   0  0  0  0  0  0
  -20.5674  -26.2363   23.3640 H   0  0  0  0  0  0
  -21.6659  -26.7411   22.1209 H   0  0  0  0  0  0
  -19.6931  -25.6276   21.1271 H   0  0  0  0  0  0
  -19.6711  -27.3164   20.6722 H   0  0  0  0  0  0
  -17.4219  -26.6679   21.4028 H   0  0  0  0  0  0
  -18.0350  -26.0095   22.9029 H   0  0  0  0  0  0
  -19.7967  -30.7311   24.2207 H   0  0  0  0  0  0
  -17.5040  -31.6273   24.5167 H   0  0  0  0  0  0
  -15.5375  -30.2977   23.7690 H   0  0  0  0  0  0
  -15.8700  -28.0815   22.7094 H   0  0  0  0  0  0
  -24.5887  -30.7118   25.7694 H   0  0  0  0  0  0
  -24.8883  -32.2982   26.4690 H   0  0  0  0  0  0
  -25.7949  -30.9025   27.0218 H   0  0  0  0  0  0
  -26.3093  -29.6597   24.1383 H   0  0  0  0  0  0
  -27.3970  -29.7261   25.5034 H   0  0  0  0  0  0
  -27.9036  -30.4100   23.9796 H   0  0  0  0  0  0
  -27.2600  -33.3684   26.1968 H   0  0  0  0  0  0
  -28.3919  -32.6851   25.0388 H   0  0  0  0  0  0
  -28.0637  -31.8554   26.5526 H   0  0  0  0  0  0
  -28.2564  -38.0079   24.7498 H   0  0  0  0  0  0
  -28.1079  -36.2603   24.6304 H   0  0  0  0  0  0
  -27.2281  -37.1425   25.8866 H   0  0  0  0  0  0
  -20.9556  -29.8744   21.6695 H   0  0  0  0  0  0
  -26.0124  -38.2765   24.1415 H   0  0  0  0  0  0
  -31.0412  -20.9943   19.3943 H   0  0  0  0  0  0
  -26.9008  -20.4888   22.6208 H   0  0  0  0  0  0
  -26.0600  -20.3853   21.0682 H   0  0  0  0  0  0
  -26.8943  -21.8621   21.5265 H   0  0  0  0  0  0
  -30.0243  -23.2123   19.9120 H   0  0  0  0  0  0
  -29.3929  -23.1087   21.4969 H   0  0  0  0  0  0
  -27.1248  -24.1110   20.6737 H   0  0  0  0  0  0
  -27.7373  -24.1788   19.0671 H   0  0  0  0  0  0
  -28.6843  -16.0434   20.8188 H   0  0  0  0  0  0
  1 25  1  0  0  0
  1 30  2  0  0  0
  1 80  1  0  0  0
  2  3  1  0  0  0
  2 25  1  0  0  0
  2 83  1  0  0  0
  2 84  1  0  0  0
  3  4  1  0  0  0
  3 85  1  0  0  0
  3 86  1  0  0  0
  4  5  1  0  0  0
  4 87  1  0  0  0
  4 88  1  0  0  0
  5  6  1  0  0  0
  5 26  1  0  0  0
  5 89  1  0  0  0
  6 25  1  0  0  0
  6 90  1  0  0  0
  6 91  1  0  0  0
  7  8  2  0  0  0
  7 26  1  0  0  0
  7 29  1  0  0  0
  8  9  1  0  0  0
  8 22  1  0  0  0
  9 10  1  0  0  0
  9 27  2  0  0  0
 10 11  2  0  0  0
 10 15  1  0  0  0
 11 12  1  0  0  0
 11 92  1  0  0  0
 12 13  2  0  0  0
 12 93  1  0  0  0
 13 14  1  0  0  0
 13 31  1  0  0  0
 14 15  2  0  0  0
 14 94  1  0  0  0
 15 95  1  0  0  0
 16 17  2  0  0  0
 16 21  1  0  0  0
 16 31  1  0  0  0
 17 18  1  0  0  0
 17 96  1  0  0  0
 18 19  2  0  0  0
 18 97  1  0  0  0
 19 20  1  0  0  0
 19 24  1  0  0  0
 20 21  2  0  0  0
 20 98  1  0  0  0
 21 23  1  0  0  0
 22 28  1  0  0  0
 22 32  2  0  0  0
 26 27  1  0  0  0
 28 99  1  0  0  0
 28100  1  0  0  0
 29101  1  0  0  0
 29102  1  0  0  0
 33 34  1  0  0  0
 33 66  1  0  0  0
 33 70  2  0  0  0
 34 36  1  0  0  0
 34 59  1  0  0  0
 34103  1  0  0  0
 35 44  2  0  0  0
 35 45  1  0  0  0
 35 68  1  0  0  0
 36 56  1  0  0  0
 36104  1  0  0  0
 37 39  1  0  0  0
 37 47  1  0  0  0
 37 66  1  0  0  0
 37105  1  0  0  0
 38 43  2  0  0  0
 38 46  1  0  0  0
 38 47  1  0  0  0
 39 64  1  0  0  0
 39 67  2  0  0  0
 40 52  1  0  0  0
 40 53  2  0  0  0
 40 58  1  0  0  0
 41106  1  0  0  0
 41107  1  0  0  0
 41108  1  0  0  0
 41 48  1  0  0  0
 42 43  1  0  0  0
 42 66  1  0  0  0
 42109  1  0  0  0
 42110  1  0  0  0
 43 44  1  0  0  0
 44111  1  0  0  0
 45 46  2  0  0  0
 45112  1  0  0  0
 46113  1  0  0  0
 47114  1  0  0  0
 47115  1  0  0  0
 48 56  1  0  0  0
 48 65  1  0  0  0
 48116  1  0  0  0
 49 50  1  0  0  0
 49 53  1  0  0  0
 49 64  1  0  0  0
 49117  1  0  0  0
 50 51  1  0  0  0
 50118  1  0  0  0
 50119  1  0  0  0
 51 52  1  0  0  0
 51120  1  0  0  0
 51121  1  0  0  0
 52122  1  0  0  0
 52123  1  0  0  0
 53 54  1  0  0  0
 54 55  2  0  0  0
 54124  1  0  0  0
 55 57  1  0  0  0
 55125  1  0  0  0
 56 69  2  0  0  0
 57 58  2  0  0  0
 57126  1  0  0  0
 58127  1  0  0  0
 59 60  1  0  0  0
 59 61  1  0  0  0
 59 62  1  0  0  0
 60128  1  0  0  0
 60129  1  0  0  0
 60130  1  0  0  0
 61131  1  0  0  0
 61132  1  0  0  0
 61133  1  0  0  0
 62134  1  0  0  0
 62135  1  0  0  0
 62136  1  0  0  0
 63 65  1  0  0  0
 63137  1  0  0  0
 63138  1  0  0  0
 63139  1  0  0  0
 64140  1  0  0  0
 65141  1  0  0  0
 68 79  1  0  0  0
 71 72  2  0  0  0
 71 75  1  0  0  0
 71142  1  0  0  0
 72 73  1  0  0  0
 72 78  1  0  0  0
 73 76  2  0  0  0
 73 77  1  0  0  0
 74 75  2  0  0  0
 74 76  1  0  0  0
 74 80  1  0  0  0
 75 81  1  0  0  0
 76 82  1  0  0  0
 77143  1  0  0  0
 77144  1  0  0  0
 77145  1  0  0  0
 78 79  1  0  0  0
 78146  1  0  0  0
 78147  1  0  0  0
 79148  1  0  0  0
 79149  1  0  0  0
 80150  1  0  0  0
M  ISO  4   1 100  68 101  79 101  80 100
M  END
> <chiral flag>
0

> <version>
0

> <s_m_source_file>
/data/baiqing/PycharmProjects/Reinvent-master-3.2/result/LINK_invent/BTK/process_docking_weight1_custom_sum_contain_oxygen_bond_distance_aromatic_linkinvent_7_9_3/rearranged_h_0018.sdf

> <i_m_source_file_index>
79

> <r_mmod_Potential_Energy-OPLS-2005>
981.833312988281

> <r_mmod_Stretch_Energy-OPLS-2005>
456.074340820312

> <r_mmod_Bend_Energy-OPLS-2005>
411.928405761719

> <r_mmod_Torsional_Energy-OPLS-2005>
214.472686767578

> <r_mmod_Improper_Torsional_Energy-OPLS-2005>
4.52982902526855

> <r_mmod_Van_der_Waal_Energy-OPLS-2005>
125.066452026367

> <r_mmod_Electrostatic_Energy-OPLS-2005>
-399.713897705078

> <r_mmod_Solvation_Energy-OPLS-2005>
-208.038208007812

> <b_mmod_Minimization_Converged-OPLS-2005>
0

> <r_mmod_RMS_Derivative-OPLS-2005>
0.692124605178833

$$$$
80
                    3D
 Structure written by MMmdl.
176184  0  0  1  0            999 V2000
  -30.6722  -14.4615   20.5361 C   0  0  0  0  0  0
  -30.4309  -12.2814   19.4394 C   0  0  0  0  0  0
  -29.5092  -12.4964   18.2190 C   0  0  0  0  0  0
  -28.0254  -12.3634   18.6208 C   0  0  0  0  0  0
  -27.6672  -13.1943   19.8826 C   0  0  2  0  0  0
  -28.7053  -12.9626   21.0080 C   0  0  0  0  0  0
  -25.2620  -13.8131   20.5666 C   0  0  0  0  0  0
  -24.1853  -13.0424   20.9181 C   0  0  0  0  0  0
  -24.6387  -11.6893   20.8736 C   0  0  0  0  0  0
  -23.9045  -10.4280   21.0397 C   0  0  0  0  0  0
  -24.3597   -9.4204   21.9177 C   0  0  0  0  0  0
  -23.6280   -8.2242   22.0753 C   0  0  0  0  0  0
  -22.4265   -8.0273   21.3542 C   0  0  0  0  0  0
  -21.9888   -9.0244   20.4646 C   0  0  0  0  0  0
  -22.7214  -10.2126   20.3055 C   0  0  0  0  0  0
  -21.6847   -6.0727   22.5277 C   0  0  0  0  0  0
  -21.4006   -6.5633   23.8208 C   0  0  0  0  0  0
  -21.3667   -5.6789   24.9174 C   0  0  0  0  0  0
  -21.6053   -4.3053   24.7221 C   0  0  0  0  0  0
  -21.8823   -3.8139   23.4342 C   0  0  0  0  0  0
  -21.9189   -4.6954   22.3399 C   0  0  0  0  0  0
  -22.7875  -13.5249   21.1831 C   0  0  0  0  0  0
  -22.1662   -4.2146   21.0974 F   0  0  0  0  0  0
  -21.5635   -3.4534   25.7732 F   0  0  0  0  0  0
  -30.0453  -13.2584   20.4683 N   0  0  0  0  0  0
  -26.3049  -12.9277   20.3381 N   0  0  0  0  0  0
  -25.9309  -11.6451   20.5751 N   0  0  0  0  0  0
  -22.0496  -12.8251   22.0389 N   0  0  0  0  0  0
  -25.4310  -15.1845   20.4053 N   0  0  0  0  0  0
  -31.8025  -14.6697   20.0864 O   0  0  0  0  0  0
  -21.6641   -6.8864   21.4237 O   0  0  0  0  0  0
  -22.3575  -14.5561   20.6686 O   0  0  0  0  0  0
  -24.6130  -31.8691   23.2107 C   0  0  0  0  0  0
  -25.9029  -32.4826   23.8402 C   0  0  1  0  0  0
  -27.2306  -27.4385   20.1081 C   0  0  0  0  0  0
  -25.5897  -33.8628   24.2334 N   0  0  0  0  0  0
  -23.4021  -30.4939   21.5487 C   0  0  2  0  0  0
  -24.8491  -28.9660   20.1105 C   0  0  0  0  0  0
  -22.7410  -29.4668   22.4956 C   0  0  0  0  0  0
  -18.0278  -28.1367   22.8494 C   0  0  0  0  0  0
  -24.1482  -36.7307   23.2639 C   0  0  0  0  0  0
  -25.9306  -30.8377   21.3646 C   0  0  0  0  0  0
  -26.0081  -29.4747   20.7084 C   0  0  0  0  0  0
  -27.2030  -28.7198   20.7020 C   0  0  0  0  0  0
  -26.0583  -26.9564   19.4789 C   0  0  0  0  0  0
  -24.8683  -27.7058   19.4907 C   0  0  0  0  0  0
  -23.6110  -29.8296   20.1620 C   0  0  0  0  0  0
  -25.4107  -36.3122   24.0342 C   0  0  1  0  0  0
  -20.5868  -28.3663   23.1302 C   0  0  2  0  0  0
  -20.6763  -26.9395   22.5414 C   0  0  0  0  0  0
  -19.5741  -26.6375   21.5207 C   0  0  0  0  0  0
  -18.1920  -26.7910   22.1625 C   0  0  0  0  0  0
  -19.1531  -28.8832   23.2893 C   0  0  0  0  0  0
  -18.9464  -30.1437   23.8906 C   0  0  0  0  0  0
  -17.6467  -30.6575   24.0568 C   0  0  0  0  0  0
  -25.9037  -34.9480   23.5134 C   0  0  0  0  0  0
  -16.5358  -29.9081   23.6325 C   0  0  0  0  0  0
  -16.7269  -28.6495   23.0345 C   0  0  0  0  0  0
  -26.4470  -31.6604   25.0724 C   0  0  0  0  0  0
  -25.3751  -31.3714   26.1490 C   0  0  0  0  0  0
  -27.0291  -30.3046   24.6073 C   0  0  0  0  0  0
  -27.6040  -32.4328   25.7491 C   0  0  0  0  0  0
  -27.5579  -37.1807   24.8467 C   0  0  0  0  0  0
  -21.4136  -29.3044   22.3711 N   0  0  0  0  0  0
  -26.4294  -37.3809   23.9415 N   0  0  0  0  0  0
  -24.6664  -31.0814   22.0993 N   0  0  0  0  0  0
  -23.4199  -28.8202   23.2980 O   0  0  0  0  0  0
  -28.3839  -26.6810   20.1721 O   0  0  0  0  0  0
  -26.5594  -34.8927   22.4693 O   0  0  0  0  0  0
  -23.5329  -32.1440   23.7508 O   0  0  0  0  0  0
  -30.6897  -20.6403   20.3468 C   0  0  0  0  0  0
  -29.9618  -20.0801   21.4202 C   0  0  0  0  0  0
  -29.6370  -18.6939   21.3491 C   0  0  0  0  0  0
  -31.0567  -19.8383   19.2524 C   0  0  0  0  0  0
  -30.0492  -17.9623   20.2031 C   0  0  0  0  0  0
  -28.8373  -18.0045   22.4542 C   0  0  0  0  0  0
  -31.1320  -21.5342   15.7086 C   0  0  0  0  0  0
  -32.7179  -21.5625   18.3527 C   0  0  0  0  0  0
  -30.1255  -23.0641   23.7486 C   0  0  0  0  0  0
  -29.5322  -20.9638   22.6033 C   0  0  0  0  0  0
  -29.5907  -16.5421   19.8785 C   0  0  0  0  0  0
  -30.6166  -20.9132   17.0189 C   0  0  0  0  0  0
  -29.2132  -24.6112   21.2569 C   0  0  0  0  0  0
  -28.8320  -23.1482   21.6228 C   0  0  0  0  0  0
  -28.1943  -25.2601   20.2983 C   0  0  0  0  0  0
  -31.7148  -20.4459   18.0034 C   0  0  2  0  0  0
  -30.7406  -18.5298   19.1979 N   0  0  0  0  0  0
  -29.8536  -15.4735   20.8470 N   0  0  0  0  0  0
  -29.8450  -22.4142   22.4439 N   0  3  1  0  0  0
  -32.4301  -19.5000   17.3887 F   0  0  0  0  0  0
  -31.4789  -12.3762   19.1480 H   0  0  0  0  0  0
  -30.3201  -11.2678   19.8273 H   0  0  0  0  0  0
  -29.7503  -11.7731   17.4388 H   0  0  0  0  0  0
  -29.6903  -13.4820   17.7865 H   0  0  0  0  0  0
  -27.8294  -11.3069   18.8060 H   0  0  0  0  0  0
  -27.3845  -12.6486   17.7866 H   0  0  0  0  0  0
  -27.7111  -14.2412   19.5889 H   0  0  0  0  0  0
  -28.6708  -11.9261   21.3461 H   0  0  0  0  0  0
  -28.4715  -13.5640   21.8882 H   0  0  0  0  0  0
  -25.2738   -9.5698   22.4749 H   0  0  0  0  0  0
  -24.0000   -7.4639   22.7472 H   0  0  0  0  0  0
  -21.0818   -8.8756   19.8946 H   0  0  0  0  0  0
  -22.3660  -10.9666   19.6174 H   0  0  0  0  0  0
  -21.1994   -7.6140   23.9710 H   0  0  0  0  0  0
  -21.1493   -6.0517   25.9080 H   0  0  0  0  0  0
  -22.0593   -2.7601   23.2838 H   0  0  0  0  0  0
  -22.4075  -11.9917   22.4816 H   0  0  0  0  0  0
  -21.1115  -13.1295   22.2567 H   0  0  0  0  0  0
  -24.6532  -15.8280   20.4993 H   0  0  0  0  0  0
  -26.2675  -15.6234   20.0455 H   0  0  0  0  0  0
  -26.7092  -32.5551   23.1164 H   0  0  0  0  0  0
  -25.0086  -33.9802   25.0505 H   0  0  0  0  0  0
  -22.6909  -31.3098   21.4091 H   0  0  0  0  0  0
  -23.3753  -35.9629   23.3318 H   0  0  0  0  0  0
  -24.3575  -36.8907   22.2050 H   0  0  0  0  0  0
  -23.7216  -37.6510   23.6636 H   0  0  0  0  0  0
  -26.0482  -31.6049   20.5985 H   0  0  0  0  0  0
  -26.8174  -30.8880   21.9847 H   0  0  0  0  0  0
  -28.0943  -29.1046   21.1777 H   0  0  0  0  0  0
  -26.0497  -25.9978   18.9792 H   0  0  0  0  0  0
  -23.9797  -27.3114   19.0162 H   0  0  0  0  0  0
  -23.7199  -30.6054   19.4030 H   0  0  0  0  0  0
  -22.7363  -29.2477   19.8653 H   0  0  0  0  0  0
  -25.1275  -36.1997   25.0834 H   0  0  0  0  0  0
  -20.9973  -28.3222   24.1412 H   0  0  0  0  0  0
  -20.5649  -26.2269   23.3601 H   0  0  0  0  0  0
  -21.6630  -26.7406   22.1216 H   0  0  0  0  0  0
  -19.6900  -25.6289   21.1224 H   0  0  0  0  0  0
  -19.6676  -27.3194   20.6742 H   0  0  0  0  0  0
  -17.4187  -26.6664   21.4027 H   0  0  0  0  0  0
  -18.0322  -26.0039   22.9010 H   0  0  0  0  0  0
  -19.7948  -30.7241   24.2270 H   0  0  0  0  0  0
  -17.5035  -31.6256   24.5168 H   0  0  0  0  0  0
  -15.5366  -30.3000   23.7626 H   0  0  0  0  0  0
  -15.8665  -28.0825   22.7051 H   0  0  0  0  0  0
  -24.5916  -30.7059   25.7856 H   0  0  0  0  0  0
  -24.8960  -32.2875   26.4951 H   0  0  0  0  0  0
  -25.8135  -30.8897   27.0239 H   0  0  0  0  0  0
  -26.2825  -29.6833   24.1115 H   0  0  0  0  0  0
  -27.4066  -29.7255   25.4508 H   0  0  0  0  0  0
  -27.8658  -30.4380   23.9211 H   0  0  0  0  0  0
  -27.2646  -33.3624   26.2076 H   0  0  0  0  0  0
  -28.3852  -32.6901   25.0325 H   0  0  0  0  0  0
  -28.0696  -31.8449   26.5413 H   0  0  0  0  0  0
  -28.2604  -38.0099   24.7525 H   0  0  0  0  0  0
  -28.1068  -36.2631   24.6281 H   0  0  0  0  0  0
  -27.2296  -37.1450   25.8871 H   0  0  0  0  0  0
  -20.9273  -29.8806   21.6983 H   0  0  0  0  0  0
  -26.0185  -38.2886   24.1430 H   0  0  0  0  0  0
  -30.9442  -21.6863   20.3166 H   0  0  0  0  0  0
  -28.1361  -17.2813   22.0394 H   0  0  0  0  0  0
  -28.2347  -18.6865   23.0508 H   0  0  0  0  0  0
  -29.5084  -17.4750   23.1324 H   0  0  0  0  0  0
  -30.3028  -21.8393   15.0705 H   0  0  0  0  0  0
  -31.7388  -20.8260   15.1447 H   0  0  0  0  0  0
  -31.7354  -22.4223   15.8919 H   0  0  0  0  0  0
  -32.2217  -22.4544   18.7318 H   0  0  0  0  0  0
  -33.2971  -21.8628   17.4810 H   0  0  0  0  0  0
  -33.4295  -21.2242   19.1059 H   0  0  0  0  0  0
  -30.5184  -24.0709   23.6212 H   0  0  0  0  0  0
  -30.8830  -22.5144   24.3080 H   0  0  0  0  0  0
  -29.2265  -23.1270   24.3631 H   0  0  0  0  0  0
  -30.0394  -20.5606   23.4807 H   0  0  0  0  0  0
  -28.4637  -20.8569   22.7931 H   0  0  0  0  0  0
  -28.5115  -16.5869   19.7328 H   0  0  0  0  0  0
  -29.9825  -16.2610   18.8970 H   0  0  0  0  0  0
  -29.9766  -20.0633   16.7746 H   0  0  0  0  0  0
  -29.9658  -21.6309   17.5195 H   0  0  0  0  0  0
  -30.2083  -24.6495   20.8134 H   0  0  0  0  0  0
  -29.2484  -25.2156   22.1629 H   0  0  0  0  0  0
  -28.6611  -22.5955   20.6988 H   0  0  0  0  0  0
  -27.8737  -23.1424   22.1460 H   0  0  0  0  0  0
  -27.2028  -25.0256   20.6914 H   0  0  0  0  0  0
  -28.2636  -24.8039   19.3101 H   0  0  0  0  0  0
  -29.0368  -15.1985   21.3681 H   0  0  0  0  0  0
  -30.7141  -22.4110   21.9306 H   0  0  0  0  0  0
  1 25  1  0  0  0
  1 30  2  0  0  0
  1 88  1  0  0  0
  2  3  1  0  0  0
  2 25  1  0  0  0
  2 91  1  0  0  0
  2 92  1  0  0  0
  3  4  1  0  0  0
  3 93  1  0  0  0
  3 94  1  0  0  0
  4  5  1  0  0  0
  4 95  1  0  0  0
  4 96  1  0  0  0
  5  6  1  0  0  0
  5 26  1  0  0  0
  5 97  1  0  0  0
  6 25  1  0  0  0
  6 98  1  0  0  0
  6 99  1  0  0  0
  7  8  2  0  0  0
  7 26  1  0  0  0
  7 29  1  0  0  0
  8  9  1  0  0  0
  8 22  1  0  0  0
  9 10  1  0  0  0
  9 27  2  0  0  0
 10 11  2  0  0  0
 10 15  1  0  0  0
 11 12  1  0  0  0
 11100  1  0  0  0
 12 13  2  0  0  0
 12101  1  0  0  0
 13 14  1  0  0  0
 13 31  1  0  0  0
 14 15  2  0  0  0
 14102  1  0  0  0
 15103  1  0  0  0
 16 17  2  0  0  0
 16 21  1  0  0  0
 16 31  1  0  0  0
 17 18  1  0  0  0
 17104  1  0  0  0
 18 19  2  0  0  0
 18105  1  0  0  0
 19 20  1  0  0  0
 19 24  1  0  0  0
 20 21  2  0  0  0
 20106  1  0  0  0
 21 23  1  0  0  0
 22 28  1  0  0  0
 22 32  2  0  0  0
 26 27  1  0  0  0
 28107  1  0  0  0
 28108  1  0  0  0
 29109  1  0  0  0
 29110  1  0  0  0
 33 34  1  0  0  0
 33 66  1  0  0  0
 33 70  2  0  0  0
 34 36  1  0  0  0
 34 59  1  0  0  0
 34111  1  0  0  0
 35 44  2  0  0  0
 35 45  1  0  0  0
 35 68  1  0  0  0
 36 56  1  0  0  0
 36112  1  0  0  0
 37 39  1  0  0  0
 37 47  1  0  0  0
 37 66  1  0  0  0
 37113  1  0  0  0
 38 43  2  0  0  0
 38 46  1  0  0  0
 38 47  1  0  0  0
 39 64  1  0  0  0
 39 67  2  0  0  0
 40 52  1  0  0  0
 40 53  2  0  0  0
 40 58  1  0  0  0
 41114  1  0  0  0
 41115  1  0  0  0
 41116  1  0  0  0
 41 48  1  0  0  0
 42 43  1  0  0  0
 42 66  1  0  0  0
 42117  1  0  0  0
 42118  1  0  0  0
 43 44  1  0  0  0
 44119  1  0  0  0
 45 46  2  0  0  0
 45120  1  0  0  0
 46121  1  0  0  0
 47122  1  0  0  0
 47123  1  0  0  0
 48 56  1  0  0  0
 48 65  1  0  0  0
 48124  1  0  0  0
 49 50  1  0  0  0
 49 53  1  0  0  0
 49 64  1  0  0  0
 49125  1  0  0  0
 50 51  1  0  0  0
 50126  1  0  0  0
 50127  1  0  0  0
 51 52  1  0  0  0
 51128  1  0  0  0
 51129  1  0  0  0
 52130  1  0  0  0
 52131  1  0  0  0
 53 54  1  0  0  0
 54 55  2  0  0  0
 54132  1  0  0  0
 55 57  1  0  0  0
 55133  1  0  0  0
 56 69  2  0  0  0
 57 58  2  0  0  0
 57134  1  0  0  0
 58135  1  0  0  0
 59 60  1  0  0  0
 59 61  1  0  0  0
 59 62  1  0  0  0
 60136  1  0  0  0
 60137  1  0  0  0
 60138  1  0  0  0
 61139  1  0  0  0
 61140  1  0  0  0
 61141  1  0  0  0
 62142  1  0  0  0
 62143  1  0  0  0
 62144  1  0  0  0
 63 65  1  0  0  0
 63145  1  0  0  0
 63146  1  0  0  0
 63147  1  0  0  0
 64148  1  0  0  0
 65149  1  0  0  0
 68 85  1  0  0  0
 71 72  2  0  0  0
 71 74  1  0  0  0
 71150  1  0  0  0
 72 73  1  0  0  0
 72 80  1  0  0  0
 73 75  2  0  0  0
 73 76  1  0  0  0
 74 86  1  0  0  0
 74 87  2  0  0  0
 75 81  1  0  0  0
 75 87  1  0  0  0
 76151  1  0  0  0
 76152  1  0  0  0
 76153  1  0  0  0
 77 82  1  0  0  0
 77154  1  0  0  0
 77155  1  0  0  0
 77156  1  0  0  0
 78157  1  0  0  0
 78158  1  0  0  0
 78159  1  0  0  0
 78 86  1  0  0  0
 79160  1  0  0  0
 79161  1  0  0  0
 79162  1  0  0  0
 79 89  1  0  0  0
 80 89  1  0  0  0
 80163  1  0  0  0
 80164  1  0  0  0
 81 88  1  0  0  0
 81165  1  0  0  0
 81166  1  0  0  0
 82 86  1  0  0  0
 82167  1  0  0  0
 82168  1  0  0  0
 83 84  1  0  0  0
 83 85  1  0  0  0
 83169  1  0  0  0
 83170  1  0  0  0
 84 89  1  0  0  0
 84171  1  0  0  0
 84172  1  0  0  0
 85173  1  0  0  0
 85174  1  0  0  0
 86 90  1  0  0  0
 88175  1  0  0  0
 89176  1  0  0  0
M  CHG  1  89   1
M  ISO  4   1 100  68 101  85 101  88 100
M  END
> <chiral flag>
0

> <version>
0

> <s_m_source_file>
/data/baiqing/PycharmProjects/Reinvent-master-3.2/result/LINK_invent/BTK/process_docking_weight1_custom_sum_contain_oxygen_bond_distance_aromatic_linkinvent_7_9_3/rearranged_h_0018.sdf

> <i_m_source_file_index>
80

> <r_mmod_Potential_Energy-OPLS-2005>
-417.011962890625

> <r_mmod_Stretch_Energy-OPLS-2005>
40.3824005126953

> <r_mmod_Bend_Energy-OPLS-2005>
105.628288269043

> <r_mmod_Torsional_Energy-OPLS-2005>
246.013061523438

> <r_mmod_Improper_Torsional_Energy-OPLS-2005>
12.5305604934692

> <r_mmod_Van_der_Waal_Energy-OPLS-2005>
170.830856323242

> <r_mmod_Electrostatic_Energy-OPLS-2005>
-521.297912597656

> <r_mmod_Solvation_Energy-OPLS-2005>
-485.652282714844

> <b_mmod_Minimization_Converged-OPLS-2005>
0

> <r_mmod_RMS_Derivative-OPLS-2005>
2.15718936920166

$$$$
81
                    3D
 Structure written by MMmdl.
165173  0  0  1  0            999 V2000
  -30.4951  -15.0191   20.4089 C   0  0  0  0  0  0
  -30.4492  -12.6287   19.5178 C   0  0  0  0  0  0
  -29.5340  -12.5473   18.2713 C   0  0  0  0  0  0
  -28.0671  -12.3188   18.6826 C   0  0  0  0  0  0
  -27.6321  -13.2522   19.8423 C   0  0  2  0  0  0
  -28.6716  -13.2900   20.9845 C   0  0  0  0  0  0
  -25.2475  -13.8216   20.5708 C   0  0  0  0  0  0
  -24.1796  -13.0436   20.9226 C   0  0  0  0  0  0
  -24.6408  -11.6927   20.8740 C   0  0  0  0  0  0
  -23.9084  -10.4299   21.0389 C   0  0  0  0  0  0
  -24.3631   -9.4214   21.9169 C   0  0  0  0  0  0
  -23.6305   -8.2251   22.0740 C   0  0  0  0  0  0
  -22.4288   -8.0281   21.3539 C   0  0  0  0  0  0
  -21.9923   -9.0253   20.4638 C   0  0  0  0  0  0
  -22.7250  -10.2134   20.3044 C   0  0  0  0  0  0
  -21.6861   -6.0734   22.5277 C   0  0  0  0  0  0
  -21.4016   -6.5635   23.8210 C   0  0  0  0  0  0
  -21.3665   -5.6785   24.9170 C   0  0  0  0  0  0
  -21.6046   -4.3047   24.7221 C   0  0  0  0  0  0
  -21.8822   -3.8141   23.4341 C   0  0  0  0  0  0
  -21.9192   -4.6961   22.3399 C   0  0  0  0  0  0
  -22.7810  -13.5200   21.1875 C   0  0  0  0  0  0
  -22.1659   -4.2145   21.0979 F   0  0  0  0  0  0
  -21.5633   -3.4533   25.7735 F   0  0  0  0  0  0
  -29.9471  -13.7288   20.3984 N   0  0  0  0  0  0
  -26.2905  -12.9455   20.3245 N   0  0  0  0  0  0
  -25.9347  -11.6583   20.5727 N   0  0  0  0  0  0
  -22.0456  -12.8190   22.0434 N   0  0  0  0  0  0
  -25.4149  -15.1944   20.4121 N   0  0  0  0  0  0
  -31.6789  -15.1178   20.0662 O   0  0  0  0  0  0
  -21.6645   -6.8881   21.4242 O   0  0  0  0  0  0
  -22.3498  -14.5494   20.6701 O   0  0  0  0  0  0
  -24.6479  -31.8388   23.1842 C   0  0  0  0  0  0
  -25.9225  -32.4666   23.8255 C   0  0  1  0  0  0
  -27.2136  -27.0728   20.1621 C   0  0  0  0  0  0
  -25.5955  -33.8475   24.2162 N   0  0  0  0  0  0
  -23.4550  -30.4555   21.5299 C   0  0  2  0  0  0
  -24.9089  -28.8769   20.1030 C   0  0  0  0  0  0
  -22.7595  -29.4509   22.4832 C   0  0  0  0  0  0
  -18.0304  -28.1396   22.8476 C   0  0  0  0  0  0
  -24.1493  -36.7240   23.2641 C   0  0  0  0  0  0
  -26.0157  -30.6906   21.3964 C   0  0  0  0  0  0
  -26.0855  -29.2971   20.7361 C   0  0  0  0  0  0
  -27.2357  -28.4110   20.7499 C   0  0  0  0  0  0
  -26.0232  -26.7878   19.4563 C   0  0  0  0  0  0
  -24.8962  -27.6401   19.4422 C   0  0  0  0  0  0
  -23.6855  -29.7829   20.1497 C   0  0  0  0  0  0
  -25.4127  -36.3013   24.0311 C   0  0  1  0  0  0
  -20.5923  -28.3722   23.1225 C   0  0  2  0  0  0
  -20.6791  -26.9420   22.5406 C   0  0  0  0  0  0
  -19.5767  -26.6374   21.5214 C   0  0  0  0  0  0
  -18.1945  -26.7933   22.1620 C   0  0  0  0  0  0
  -19.1563  -28.8878   23.2841 C   0  0  0  0  0  0
  -18.9478  -30.1473   23.8869 C   0  0  0  0  0  0
  -17.6476  -30.6593   24.0552 C   0  0  0  0  0  0
  -25.9084  -34.9389   23.5046 C   0  0  0  0  0  0
  -16.5365  -29.9082   23.6339 C   0  0  0  0  0  0
  -16.7290  -28.6497   23.0366 C   0  0  0  0  0  0
  -26.4526  -31.6560   25.0721 C   0  0  0  0  0  0
  -25.3688  -31.3780   26.1401 C   0  0  0  0  0  0
  -27.0405  -30.2944   24.6359 C   0  0  0  0  0  0
  -27.6048  -32.4335   25.7513 C   0  0  0  0  0  0
  -27.5576  -37.1776   24.8461 C   0  0  0  0  0  0
  -21.4280  -29.3037   22.3589 N   0  0  0  0  0  0
  -26.4285  -37.3733   23.9406 N   0  0  0  0  0  0
  -24.7260  -31.0179   22.0913 N   0  0  0  0  0  0
  -23.4217  -28.8061   23.3003 O   0  0  0  0  0  0
  -28.2365  -26.0355   20.2681 O   0  0  0  0  0  0
  -26.5674  -34.8895   22.4631 O   0  0  0  0  0  0
  -23.5582  -32.1298   23.7016 O   0  0  0  0  0  0
  -29.2168  -18.9542   21.3618 C   0  0  0  0  0  0
  -30.0380  -18.4215   18.9957 C   0  0  0  0  0  0
  -29.5596  -20.5886   21.2053 C   0  0  0  0  0  0
  -29.3983  -21.1534   18.8634 C   0  0  0  0  0  0
  -29.4908  -17.7415   20.2890 C   0  0  1  0  0  0
  -29.1771  -19.6398   18.3713 C   0  0  0  0  0  0
  -27.6616  -19.3350   18.3685 C   0  0  0  0  0  0
  -29.6024  -19.6682   16.8827 C   0  0  0  0  0  0
  -26.8396  -24.1720   21.2098 C   0  0  0  0  0  0
  -29.0967  -23.1922   20.4596 C   0  0  0  0  0  0
  -27.9676  -24.4624   20.1999 C   0  0  2  0  0  0
  -29.6576  -16.1659   20.6228 N   0  0  0  0  0  0
  -28.8968  -21.5960   20.2130 N   0  3  2  0  0  0
  -31.4815  -12.7987   19.2086 H   0  0  0  0  0  0
  -30.4546  -11.6783   20.0544 H   0  0  0  0  0  0
  -29.8660  -11.7480   17.6074 H   0  0  0  0  0  0
  -29.6143  -13.4732   17.6992 H   0  0  0  0  0  0
  -27.9724  -11.2779   18.9952 H   0  0  0  0  0  0
  -27.4061  -12.4394   17.8237 H   0  0  0  0  0  0
  -27.5897  -14.2523   19.4099 H   0  0  0  0  0  0
  -28.7708  -12.3116   21.4574 H   0  0  0  0  0  0
  -28.3566  -13.9802   21.7680 H   0  0  0  0  0  0
  -25.2769   -9.5688   22.4748 H   0  0  0  0  0  0
  -24.0013   -7.4638   22.7457 H   0  0  0  0  0  0
  -21.0851   -8.8760   19.8951 H   0  0  0  0  0  0
  -22.3691  -10.9665   19.6153 H   0  0  0  0  0  0
  -21.2009   -7.6144   23.9712 H   0  0  0  0  0  0
  -21.1486   -6.0516   25.9074 H   0  0  0  0  0  0
  -22.0599   -2.7605   23.2838 H   0  0  0  0  0  0
  -22.4074  -11.9873   22.4863 H   0  0  0  0  0  0
  -21.1059  -13.1206   22.2601 H   0  0  0  0  0  0
  -24.6425  -15.8427   20.5167 H   0  0  0  0  0  0
  -26.2506  -15.6316   20.0475 H   0  0  0  0  0  0
  -26.7289  -32.5257   23.0983 H   0  0  0  0  0  0
  -25.0073  -33.9593   25.0287 H   0  0  0  0  0  0
  -22.7596  -31.2828   21.3720 H   0  0  0  0  0  0
  -23.3768  -35.9559   23.3277 H   0  0  0  0  0  0
  -24.3580  -36.8903   22.2062 H   0  0  0  0  0  0
  -23.7237  -37.6419   23.6705 H   0  0  0  0  0  0
  -26.1815  -31.4440   20.6248 H   0  0  0  0  0  0
  -26.8818  -30.7409   22.0449 H   0  0  0  0  0  0
  -28.1242  -28.7243   21.2796 H   0  0  0  0  0  0
  -25.9262  -25.8467   18.9356 H   0  0  0  0  0  0
  -24.0059  -27.3222   18.9165 H   0  0  0  0  0  0
  -23.8214  -30.5569   19.3936 H   0  0  0  0  0  0
  -22.8005  -29.2240   19.8397 H   0  0  0  0  0  0
  -25.1321  -36.1831   25.0804 H   0  0  0  0  0  0
  -21.0011  -28.3315   24.1350 H   0  0  0  0  0  0
  -20.5678  -26.2337   23.3631 H   0  0  0  0  0  0
  -21.6658  -26.7423   22.1206 H   0  0  0  0  0  0
  -19.6928  -25.6274   21.1270 H   0  0  0  0  0  0
  -19.6710  -27.3163   20.6727 H   0  0  0  0  0  0
  -17.4220  -26.6675   21.4021 H   0  0  0  0  0  0
  -18.0340  -26.0082   22.9021 H   0  0  0  0  0  0
  -19.7956  -30.7291   24.2233 H   0  0  0  0  0  0
  -17.5029  -31.6277   24.5149 H   0  0  0  0  0  0
  -15.5365  -30.2976   23.7681 H   0  0  0  0  0  0
  -15.8686  -28.0803   22.7111 H   0  0  0  0  0  0
  -24.5865  -30.7137   25.7711 H   0  0  0  0  0  0
  -24.8885  -32.2978   26.4751 H   0  0  0  0  0  0
  -25.7944  -30.8990   27.0229 H   0  0  0  0  0  0
  -26.3049  -29.6649   24.1342 H   0  0  0  0  0  0
  -27.3959  -29.7269   25.4970 H   0  0  0  0  0  0
  -27.8981  -30.4161   23.9740 H   0  0  0  0  0  0
  -27.2637  -33.3657   26.2034 H   0  0  0  0  0  0
  -28.3897  -32.6863   25.0370 H   0  0  0  0  0  0
  -28.0679  -31.8499   26.5481 H   0  0  0  0  0  0
  -28.2572  -38.0091   24.7520 H   0  0  0  0  0  0
  -28.1095  -36.2621   24.6275 H   0  0  0  0  0  0
  -27.2296  -37.1400   25.8863 H   0  0  0  0  0  0
  -20.9495  -29.8746   21.6759 H   0  0  0  0  0  0
  -26.0144  -38.2795   24.1420 H   0  0  0  0  0  0
  -28.1733  -18.8842   21.6716 H   0  0  0  0  0  0
  -29.7641  -18.6505   22.2542 H   0  0  0  0  0  0
  -30.1240  -17.6257   18.2547 H   0  0  0  0  0  0
  -31.0630  -18.7526   19.1679 H   0  0  0  0  0  0
  -30.6396  -20.6857   21.0867 H   0  0  0  0  0  0
  -29.3666  -21.0116   22.1914 H   0  0  0  0  0  0
  -28.9229  -21.8250   18.1465 H   0  0  0  0  0  0
  -30.4633  -21.3844   18.8014 H   0  0  0  0  0  0
  -28.4655  -17.5579   19.9761 H   0  0  0  0  0  0
  -27.2300  -19.3633   19.3686 H   0  0  0  0  0  0
  -27.4554  -18.3485   17.9511 H   0  0  0  0  0  0
  -27.1064  -20.0590   17.7711 H   0  0  0  0  0  0
  -30.6656  -19.8891   16.7759 H   0  0  0  0  0  0
  -29.0586  -20.4234   16.3137 H   0  0  0  0  0  0
  -29.4196  -18.7153   16.3840 H   0  0  0  0  0  0
  -26.5384  -23.1258   21.1707 H   0  0  0  0  0  0
  -25.9371  -24.7517   21.0348 H   0  0  0  0  0  0
  -27.1696  -24.3810   22.2272 H   0  0  0  0  0  0
  -29.3864  -23.2842   21.5062 H   0  0  0  0  0  0
  -30.0028  -23.4723   19.9212 H   0  0  0  0  0  0
  -27.5784  -24.2931   19.1959 H   0  0  0  0  0  0
  -28.7815  -15.8191   20.9851 H   0  0  0  0  0  0
  -27.9038  -21.4186   20.2510 H   0  0  0  0  0  0
  1 25  1  0  0  0
  1 30  2  0  0  0
  1 82  1  0  0  0
  2  3  1  0  0  0
  2 25  1  0  0  0
  2 84  1  0  0  0
  2 85  1  0  0  0
  3  4  1  0  0  0
  3 86  1  0  0  0
  3 87  1  0  0  0
  4  5  1  0  0  0
  4 88  1  0  0  0
  4 89  1  0  0  0
  5  6  1  0  0  0
  5 26  1  0  0  0
  5 90  1  0  0  0
  6 25  1  0  0  0
  6 91  1  0  0  0
  6 92  1  0  0  0
  7  8  2  0  0  0
  7 26  1  0  0  0
  7 29  1  0  0  0
  8  9  1  0  0  0
  8 22  1  0  0  0
  9 10  1  0  0  0
  9 27  2  0  0  0
 10 11  2  0  0  0
 10 15  1  0  0  0
 11 12  1  0  0  0
 11 93  1  0  0  0
 12 13  2  0  0  0
 12 94  1  0  0  0
 13 14  1  0  0  0
 13 31  1  0  0  0
 14 15  2  0  0  0
 14 95  1  0  0  0
 15 96  1  0  0  0
 16 17  2  0  0  0
 16 21  1  0  0  0
 16 31  1  0  0  0
 17 18  1  0  0  0
 17 97  1  0  0  0
 18 19  2  0  0  0
 18 98  1  0  0  0
 19 20  1  0  0  0
 19 24  1  0  0  0
 20 21  2  0  0  0
 20 99  1  0  0  0
 21 23  1  0  0  0
 22 28  1  0  0  0
 22 32  2  0  0  0
 26 27  1  0  0  0
 28100  1  0  0  0
 28101  1  0  0  0
 29102  1  0  0  0
 29103  1  0  0  0
 33 34  1  0  0  0
 33 66  1  0  0  0
 33 70  2  0  0  0
 34 36  1  0  0  0
 34 59  1  0  0  0
 34104  1  0  0  0
 35 44  2  0  0  0
 35 45  1  0  0  0
 35 68  1  0  0  0
 36 56  1  0  0  0
 36105  1  0  0  0
 37 39  1  0  0  0
 37 47  1  0  0  0
 37 66  1  0  0  0
 37106  1  0  0  0
 38 43  2  0  0  0
 38 46  1  0  0  0
 38 47  1  0  0  0
 39 64  1  0  0  0
 39 67  2  0  0  0
 40 52  1  0  0  0
 40 53  2  0  0  0
 40 58  1  0  0  0
 41107  1  0  0  0
 41108  1  0  0  0
 41109  1  0  0  0
 41 48  1  0  0  0
 42 43  1  0  0  0
 42 66  1  0  0  0
 42110  1  0  0  0
 42111  1  0  0  0
 43 44  1  0  0  0
 44112  1  0  0  0
 45 46  2  0  0  0
 45113  1  0  0  0
 46114  1  0  0  0
 47115  1  0  0  0
 47116  1  0  0  0
 48 56  1  0  0  0
 48 65  1  0  0  0
 48117  1  0  0  0
 49 50  1  0  0  0
 49 53  1  0  0  0
 49 64  1  0  0  0
 49118  1  0  0  0
 50 51  1  0  0  0
 50119  1  0  0  0
 50120  1  0  0  0
 51 52  1  0  0  0
 51121  1  0  0  0
 51122  1  0  0  0
 52123  1  0  0  0
 52124  1  0  0  0
 53 54  1  0  0  0
 54 55  2  0  0  0
 54125  1  0  0  0
 55 57  1  0  0  0
 55126  1  0  0  0
 56 69  2  0  0  0
 57 58  2  0  0  0
 57127  1  0  0  0
 58128  1  0  0  0
 59 60  1  0  0  0
 59 61  1  0  0  0
 59 62  1  0  0  0
 60129  1  0  0  0
 60130  1  0  0  0
 60131  1  0  0  0
 61132  1  0  0  0
 61133  1  0  0  0
 61134  1  0  0  0
 62135  1  0  0  0
 62136  1  0  0  0
 62137  1  0  0  0
 63 65  1  0  0  0
 63138  1  0  0  0
 63139  1  0  0  0
 63140  1  0  0  0
 64141  1  0  0  0
 65142  1  0  0  0
 68 81  1  0  0  0
 71 73  1  0  0  0
 71 75  1  0  0  0
 71143  1  0  0  0
 71144  1  0  0  0
 72 75  1  0  0  0
 72 76  1  0  0  0
 72145  1  0  0  0
 72146  1  0  0  0
 73 83  1  0  0  0
 73147  1  0  0  0
 73148  1  0  0  0
 74 76  1  0  0  0
 74 83  1  0  0  0
 74149  1  0  0  0
 74150  1  0  0  0
 75 82  1  0  0  0
 75151  1  0  0  0
 76 77  1  0  0  0
 76 78  1  0  0  0
 77152  1  0  0  0
 77153  1  0  0  0
 77154  1  0  0  0
 78155  1  0  0  0
 78156  1  0  0  0
 78157  1  0  0  0
 79158  1  0  0  0
 79159  1  0  0  0
 79160  1  0  0  0
 79 81  1  0  0  0
 80 81  1  0  0  0
 80161  1  0  0  0
 80162  1  0  0  0
 80 83  1  0  0  0
 81163  1  0  0  0
 82164  1  0  0  0
 83165  1  0  0  0
M  CHG  1  83   1
M  ISO  4   1 100  68 101  81 101  82 100
M  END
> <chiral flag>
0

> <version>
0

> <s_m_source_file>
/data/baiqing/PycharmProjects/Reinvent-master-3.2/result/LINK_invent/BTK/process_docking_weight1_custom_sum_contain_oxygen_bond_distance_aromatic_linkinvent_7_9_3/rearranged_h_0018.sdf

> <i_m_source_file_index>
81

> <r_mmod_Potential_Energy-OPLS-2005>
749.526916503906

> <r_mmod_Stretch_Energy-OPLS-2005>
332.699584960938

> <r_mmod_Bend_Energy-OPLS-2005>
410.507537841797

> <r_mmod_Torsional_Energy-OPLS-2005>
278.002960205078

> <r_mmod_Improper_Torsional_Energy-OPLS-2005>
4.66710376739502

> <r_mmod_Van_der_Waal_Energy-OPLS-2005>
118.975845336914

> <r_mmod_Electrostatic_Energy-OPLS-2005>
-219.180038452148

> <r_mmod_Solvation_Energy-OPLS-2005>
-429.628662109375

> <b_mmod_Minimization_Converged-OPLS-2005>
0

> <r_mmod_RMS_Derivative-OPLS-2005>
1.33248841762543

$$$$
82
                    3D
 Structure written by MMmdl.
153161  0  0  1  0            999 V2000
  -30.2980  -15.6017   20.3309 C   0  0  0  0  0  0
  -30.4308  -13.0518   19.5458 C   0  0  0  0  0  0
  -29.5534  -12.6523   18.3244 C   0  0  0  0  0  0
  -28.1233  -12.3007   18.7632 C   0  0  0  0  0  0
  -27.6001  -13.3039   19.8163 C   0  0  2  0  0  0
  -28.6165  -13.6137   20.9407 C   0  0  0  0  0  0
  -25.2339  -13.8278   20.5779 C   0  0  0  0  0  0
  -24.1724  -13.0433   20.9281 C   0  0  0  0  0  0
  -24.6420  -11.6942   20.8760 C   0  0  0  0  0  0
  -23.9121  -10.4290   21.0392 C   0  0  0  0  0  0
  -24.3656   -9.4203   21.9176 C   0  0  0  0  0  0
  -23.6317   -8.2244   22.0751 C   0  0  0  0  0  0
  -22.4297   -8.0287   21.3543 C   0  0  0  0  0  0
  -21.9942   -9.0262   20.4644 C   0  0  0  0  0  0
  -22.7284  -10.2133   20.3050 C   0  0  0  0  0  0
  -21.6861   -6.0741   22.5280 C   0  0  0  0  0  0
  -21.4019   -6.5641   23.8214 C   0  0  0  0  0  0
  -21.3661   -5.6792   24.9174 C   0  0  0  0  0  0
  -21.6043   -4.3055   24.7223 C   0  0  0  0  0  0
  -21.8819   -3.8150   23.4344 C   0  0  0  0  0  0
  -21.9196   -4.6968   22.3401 C   0  0  0  0  0  0
  -22.7737  -13.5167   21.1918 C   0  0  0  0  0  0
  -22.1663   -4.2153   21.0978 F   0  0  0  0  0  0
  -21.5628   -3.4537   25.7735 F   0  0  0  0  0  0
  -29.8009  -14.2276   20.2978 N   0  0  0  0  0  0
  -26.2787  -12.9602   20.3226 N   0  0  0  0  0  0
  -25.9366  -11.6676   20.5697 N   0  0  0  0  0  0
  -22.0400  -12.8144   22.0470 N   0  0  0  0  0  0
  -25.3927  -15.2018   20.4209 N   0  0  0  0  0  0
  -31.5269  -15.5741   20.1272 O   0  0  0  0  0  0
  -21.6652   -6.8889   21.4244 O   0  0  0  0  0  0
  -22.3410  -14.5464   20.6754 O   0  0  0  0  0  0
  -24.6831  -31.8005   23.1520 C   0  0  0  0  0  0
  -25.9416  -32.4470   23.8062 C   0  0  1  0  0  0
  -27.2270  -26.7126   20.2116 C   0  0  0  0  0  0
  -25.5999  -33.8295   24.1952 N   0  0  0  0  0  0
  -23.5090  -30.4026   21.5058 C   0  0  2  0  0  0
  -24.9673  -28.7466   20.1166 C   0  0  0  0  0  0
  -22.7764  -29.4315   22.4712 C   0  0  0  0  0  0
  -18.0340  -28.1428   22.8453 C   0  0  0  0  0  0
  -24.1494  -36.7151   23.2652 C   0  0  0  0  0  0
  -26.0893  -30.5362   21.4157 C   0  0  0  0  0  0
  -26.1558  -29.1023   20.7655 C   0  0  0  0  0  0
  -27.2712  -28.1127   20.7822 C   0  0  0  0  0  0
  -26.0070  -26.5657   19.5039 C   0  0  0  0  0  0
  -24.9313  -27.5036   19.4624 C   0  0  0  0  0  0
  -23.7628  -29.7007   20.1405 C   0  0  0  0  0  0
  -25.4143  -36.2893   24.0284 C   0  0  1  0  0  0
  -20.5975  -28.3784   23.1150 C   0  0  2  0  0  0
  -20.6806  -26.9441   22.5417 C   0  0  0  0  0  0
  -19.5789  -26.6374   21.5223 C   0  0  0  0  0  0
  -18.1964  -26.7960   22.1608 C   0  0  0  0  0  0
  -19.1606  -28.8931   23.2782 C   0  0  0  0  0  0
  -18.9511  -30.1513   23.8830 C   0  0  0  0  0  0
  -17.6502  -30.6609   24.0556 C   0  0  0  0  0  0
  -25.9124  -34.9285   23.4953 C   0  0  0  0  0  0
  -16.5391  -29.9089   23.6354 C   0  0  0  0  0  0
  -16.7320  -28.6514   23.0364 C   0  0  0  0  0  0
  -26.4597  -31.6501   25.0680 C   0  0  0  0  0  0
  -25.3662  -31.3835   26.1298 C   0  0  0  0  0  0
  -27.0516  -30.2833   24.6581 C   0  0  0  0  0  0
  -27.6058  -32.4356   25.7487 C   0  0  0  0  0  0
  -27.5566  -37.1730   24.8463 C   0  0  0  0  0  0
  -21.4413  -29.3027   22.3465 N   0  0  0  0  0  0
  -26.4267  -37.3655   23.9414 N   0  0  0  0  0  0
  -24.7838  -30.9457   22.0770 N   0  0  0  0  0  0
  -23.4210  -28.7916   23.3054 O   0  0  0  0  0  0
  -28.1786  -25.4884   20.2976 O   0  0  0  0  0  0
  -26.5761  -34.8863   22.4568 O   0  0  0  0  0  0
  -23.5850  -32.1073   23.6478 O   0  0  0  0  0  0
  -28.9860  -21.0792   19.1925 C   0  0  0  0  0  0
  -28.6340  -22.0687   20.2519 C   0  0  0  0  0  0
  -29.3204  -19.5837   19.2293 C   0  0  0  0  0  0
  -28.7150  -21.1248   21.4081 C   0  0  0  0  0  0
  -29.0447  -19.6139   21.4611 C   0  0  0  0  0  0
  -29.3943  -18.6383   20.3774 C   0  0  0  0  0  0
  -29.5499  -18.9383   17.8765 C   0  0  0  0  0  0
  -28.3590  -21.7878   22.7334 C   0  0  0  0  0  0
  -28.9791  -18.9698   22.8412 C   0  0  0  0  0  0
  -27.8851  -23.7782   20.0781 C   0  0  0  0  0  0
  -29.4746  -16.9157   20.4372 N   0  0  0  0  0  0
  -31.4273  -13.3118   19.1870 H   0  0  0  0  0  0
  -30.5822  -12.1987   20.2093 H   0  0  0  0  0  0
  -30.0012  -11.8138   17.7894 H   0  0  0  0  0  0
  -29.5215  -13.4847   17.6199 H   0  0  0  0  0  0
  -28.1441  -11.2992   19.1946 H   0  0  0  0  0  0
  -27.4549  -12.2528   17.9025 H   0  0  0  0  0  0
  -27.4708  -14.2320   19.2579 H   0  0  0  0  0  0
  -28.8647  -12.7230   21.5196 H   0  0  0  0  0  0
  -28.1888  -14.3288   21.6452 H   0  0  0  0  0  0
  -25.2795   -9.5676   22.4762 H   0  0  0  0  0  0
  -24.0018   -7.4636   22.7474 H   0  0  0  0  0  0
  -21.0869   -8.8789   19.8954 H   0  0  0  0  0  0
  -22.3740  -10.9674   19.6163 H   0  0  0  0  0  0
  -21.2015   -7.6150   23.9720 H   0  0  0  0  0  0
  -21.1480   -6.0520   25.9076 H   0  0  0  0  0  0
  -22.0598   -2.7612   23.2845 H   0  0  0  0  0  0
  -22.4045  -11.9828   22.4875 H   0  0  0  0  0  0
  -21.1008  -13.1139   22.2661 H   0  0  0  0  0  0
  -24.6157  -15.8451   20.5274 H   0  0  0  0  0  0
  -26.2217  -15.6427   20.0460 H   0  0  0  0  0  0
  -26.7493  -32.4944   23.0771 H   0  0  0  0  0  0
  -25.0080  -33.9340   25.0061 H   0  0  0  0  0  0
  -22.8339  -31.2397   21.3165 H   0  0  0  0  0  0
  -23.3780  -35.9456   23.3253 H   0  0  0  0  0  0
  -24.3561  -36.8871   22.2078 H   0  0  0  0  0  0
  -23.7230  -37.6304   23.6767 H   0  0  0  0  0  0
  -26.2919  -31.2617   20.6268 H   0  0  0  0  0  0
  -26.9400  -30.6033   22.0812 H   0  0  0  0  0  0
  -28.1630  -28.3891   21.3268 H   0  0  0  0  0  0
  -25.8396  -25.6238   19.0014 H   0  0  0  0  0  0
  -24.0344  -27.2222   18.9277 H   0  0  0  0  0  0
  -23.9377  -30.4614   19.3790 H   0  0  0  0  0  0
  -22.8679  -29.1669   19.8157 H   0  0  0  0  0  0
  -25.1350  -36.1654   25.0774 H   0  0  0  0  0  0
  -21.0059  -28.3416   24.1275 H   0  0  0  0  0  0
  -20.5665  -26.2409   23.3681 H   0  0  0  0  0  0
  -21.6671  -26.7381   22.1243 H   0  0  0  0  0  0
  -19.6947  -25.6265   21.1301 H   0  0  0  0  0  0
  -19.6748  -27.3144   20.6724 H   0  0  0  0  0  0
  -17.4245  -26.6726   21.3994 H   0  0  0  0  0  0
  -18.0328  -26.0112   22.9008 H   0  0  0  0  0  0
  -19.7986  -30.7347   24.2170 H   0  0  0  0  0  0
  -17.5051  -31.6279   24.5174 H   0  0  0  0  0  0
  -15.5388  -30.2968   23.7721 H   0  0  0  0  0  0
  -15.8720  -28.0811   22.7115 H   0  0  0  0  0  0
  -24.5911  -30.7097   25.7626 H   0  0  0  0  0  0
  -24.8771  -32.3054   26.4456 H   0  0  0  0  0  0
  -25.7843  -30.9209   27.0246 H   0  0  0  0  0  0
  -26.3224  -29.6458   24.1571 H   0  0  0  0  0  0
  -27.3931  -29.7274   25.5324 H   0  0  0  0  0  0
  -27.9212  -30.3948   24.0103 H   0  0  0  0  0  0
  -27.2621  -33.3750   26.1832 H   0  0  0  0  0  0
  -28.3981  -32.6765   25.0386 H   0  0  0  0  0  0
  -28.0596  -31.8634   26.5589 H   0  0  0  0  0  0
  -28.2547  -38.0057   24.7508 H   0  0  0  0  0  0
  -28.1094  -36.2582   24.6282 H   0  0  0  0  0  0
  -27.2287  -37.1355   25.8865 H   0  0  0  0  0  0
  -20.9718  -29.8679   21.6528 H   0  0  0  0  0  0
  -26.0093  -38.2700   24.1438 H   0  0  0  0  0  0
  -28.9395  -21.5006   18.1980 H   0  0  0  0  0  0
  -29.8652  -19.6683   17.1308 H   0  0  0  0  0  0
  -28.6334  -18.4634   17.5257 H   0  0  0  0  0  0
  -30.3259  -18.1746   17.9385 H   0  0  0  0  0  0
  -28.1879  -22.8585   22.6253 H   0  0  0  0  0  0
  -29.1673  -21.6760   23.4557 H   0  0  0  0  0  0
  -27.4508  -21.3565   23.1544 H   0  0  0  0  0  0
  -29.6848  -19.4442   23.5226 H   0  0  0  0  0  0
  -29.2315  -17.9107   22.8224 H   0  0  0  0  0  0
  -27.9771  -19.0534   23.2617 H   0  0  0  0  0  0
  -26.9546  -23.6544   20.6324 H   0  0  0  0  0  0
  -27.5591  -23.7551   19.0383 H   0  0  0  0  0  0
  -28.5469  -16.5838   20.6566 H   0  0  0  0  0  0
  1 25  1  0  0  0
  1 30  2  0  0  0
  1 81  1  0  0  0
  2  3  1  0  0  0
  2 25  1  0  0  0
  2 82  1  0  0  0
  2 83  1  0  0  0
  3  4  1  0  0  0
  3 84  1  0  0  0
  3 85  1  0  0  0
  4  5  1  0  0  0
  4 86  1  0  0  0
  4 87  1  0  0  0
  5  6  1  0  0  0
  5 26  1  0  0  0
  5 88  1  0  0  0
  6 25  1  0  0  0
  6 89  1  0  0  0
  6 90  1  0  0  0
  7  8  2  0  0  0
  7 26  1  0  0  0
  7 29  1  0  0  0
  8  9  1  0  0  0
  8 22  1  0  0  0
  9 10  1  0  0  0
  9 27  2  0  0  0
 10 11  2  0  0  0
 10 15  1  0  0  0
 11 12  1  0  0  0
 11 91  1  0  0  0
 12 13  2  0  0  0
 12 92  1  0  0  0
 13 14  1  0  0  0
 13 31  1  0  0  0
 14 15  2  0  0  0
 14 93  1  0  0  0
 15 94  1  0  0  0
 16 17  2  0  0  0
 16 21  1  0  0  0
 16 31  1  0  0  0
 17 18  1  0  0  0
 17 95  1  0  0  0
 18 19  2  0  0  0
 18 96  1  0  0  0
 19 20  1  0  0  0
 19 24  1  0  0  0
 20 21  2  0  0  0
 20 97  1  0  0  0
 21 23  1  0  0  0
 22 28  1  0  0  0
 22 32  2  0  0  0
 26 27  1  0  0  0
 28 98  1  0  0  0
 28 99  1  0  0  0
 29100  1  0  0  0
 29101  1  0  0  0
 33 34  1  0  0  0
 33 66  1  0  0  0
 33 70  2  0  0  0
 34 36  1  0  0  0
 34 59  1  0  0  0
 34102  1  0  0  0
 35 44  2  0  0  0
 35 45  1  0  0  0
 35 68  1  0  0  0
 36 56  1  0  0  0
 36103  1  0  0  0
 37 39  1  0  0  0
 37 47  1  0  0  0
 37 66  1  0  0  0
 37104  1  0  0  0
 38 43  2  0  0  0
 38 46  1  0  0  0
 38 47  1  0  0  0
 39 64  1  0  0  0
 39 67  2  0  0  0
 40 52  1  0  0  0
 40 53  2  0  0  0
 40 58  1  0  0  0
 41105  1  0  0  0
 41106  1  0  0  0
 41107  1  0  0  0
 41 48  1  0  0  0
 42 43  1  0  0  0
 42 66  1  0  0  0
 42108  1  0  0  0
 42109  1  0  0  0
 43 44  1  0  0  0
 44110  1  0  0  0
 45 46  2  0  0  0
 45111  1  0  0  0
 46112  1  0  0  0
 47113  1  0  0  0
 47114  1  0  0  0
 48 56  1  0  0  0
 48 65  1  0  0  0
 48115  1  0  0  0
 49 50  1  0  0  0
 49 53  1  0  0  0
 49 64  1  0  0  0
 49116  1  0  0  0
 50 51  1  0  0  0
 50117  1  0  0  0
 50118  1  0  0  0
 51 52  1  0  0  0
 51119  1  0  0  0
 51120  1  0  0  0
 52121  1  0  0  0
 52122  1  0  0  0
 53 54  1  0  0  0
 54 55  2  0  0  0
 54123  1  0  0  0
 55 57  1  0  0  0
 55124  1  0  0  0
 56 69  2  0  0  0
 57 58  2  0  0  0
 57125  1  0  0  0
 58126  1  0  0  0
 59 60  1  0  0  0
 59 61  1  0  0  0
 59 62  1  0  0  0
 60127  1  0  0  0
 60128  1  0  0  0
 60129  1  0  0  0
 61130  1  0  0  0
 61131  1  0  0  0
 61132  1  0  0  0
 62133  1  0  0  0
 62134  1  0  0  0
 62135  1  0  0  0
 63 65  1  0  0  0
 63136  1  0  0  0
 63137  1  0  0  0
 63138  1  0  0  0
 64139  1  0  0  0
 65140  1  0  0  0
 68 80  1  0  0  0
 71 72  2  0  0  0
 71 73  1  0  0  0
 71141  1  0  0  0
 72 74  1  0  0  0
 72 80  1  0  0  0
 73 76  2  0  0  0
 73 77  1  0  0  0
 74 75  2  0  0  0
 74 78  1  0  0  0
 75 76  1  0  0  0
 75 79  1  0  0  0
 76 81  1  0  0  0
 77142  1  0  0  0
 77143  1  0  0  0
 77144  1  0  0  0
 78145  1  0  0  0
 78146  1  0  0  0
 78147  1  0  0  0
 79148  1  0  0  0
 79149  1  0  0  0
 79150  1  0  0  0
 80151  1  0  0  0
 80152  1  0  0  0
 81153  1  0  0  0
M  ISO  4   1 100  68 101  80 101  81 100
M  END
> <chiral flag>
0

> <version>
0

> <s_m_source_file>
/data/baiqing/PycharmProjects/Reinvent-master-3.2/result/LINK_invent/BTK/process_docking_weight1_custom_sum_contain_oxygen_bond_distance_aromatic_linkinvent_7_9_3/rearranged_h_0018.sdf

> <i_m_source_file_index>
82

> <r_mmod_Potential_Energy-OPLS-2005>
2247.7802734375

> <r_mmod_Stretch_Energy-OPLS-2005>
928.017883300781

> <r_mmod_Bend_Energy-OPLS-2005>
643.117004394531

> <r_mmod_Torsional_Energy-OPLS-2005>
258.969970703125

> <r_mmod_Improper_Torsional_Energy-OPLS-2005>
9.75687694549561

> <r_mmod_Van_der_Waal_Energy-OPLS-2005>
135.254302978516

> <r_mmod_Electrostatic_Energy-OPLS-2005>
-387.425537109375

> <r_mmod_Solvation_Energy-OPLS-2005>
-209.918426513672

> <b_mmod_Minimization_Converged-OPLS-2005>
0

> <r_mmod_RMS_Derivative-OPLS-2005>
0.535999119281769

$$$$
83
                    3D
 Structure written by MMmdl.
153161  0  0  1  0            999 V2000
  -30.2459  -15.7721   20.3181 C   0  0  0  0  0  0
  -30.4154  -13.1836   19.5416 C   0  0  0  0  0  0
  -29.5557  -12.6900   18.3383 C   0  0  0  0  0  0
  -28.1406  -12.3022   18.7893 C   0  0  0  0  0  0
  -27.5912  -13.3207   19.8109 C   0  0  2  0  0  0
  -28.5983  -13.7112   20.9215 C   0  0  0  0  0  0
  -25.2306  -13.8304   20.5821 C   0  0  0  0  0  0
  -24.1707  -13.0436   20.9302 C   0  0  0  0  0  0
  -24.6427  -11.6952   20.8768 C   0  0  0  0  0  0
  -23.9133  -10.4294   21.0398 C   0  0  0  0  0  0
  -24.3664   -9.4206   21.9182 C   0  0  0  0  0  0
  -23.6320   -8.2250   22.0755 C   0  0  0  0  0  0
  -22.4301   -8.0294   21.3547 C   0  0  0  0  0  0
  -21.9950   -9.0271   20.4645 C   0  0  0  0  0  0
  -22.7299  -10.2139   20.3052 C   0  0  0  0  0  0
  -21.6861   -6.0749   22.5281 C   0  0  0  0  0  0
  -21.4018   -6.5647   23.8214 C   0  0  0  0  0  0
  -21.3658   -5.6799   24.9174 C   0  0  0  0  0  0
  -21.6043   -4.3061   24.7222 C   0  0  0  0  0  0
  -21.8818   -3.8156   23.4344 C   0  0  0  0  0  0
  -21.9193   -4.6975   22.3400 C   0  0  0  0  0  0
  -22.7714  -13.5157   21.1928 C   0  0  0  0  0  0
  -22.1661   -4.2161   21.0978 F   0  0  0  0  0  0
  -21.5624   -3.4543   25.7734 F   0  0  0  0  0  0
  -29.7490  -14.3781   20.2564 N   0  0  0  0  0  0
  -26.2765  -12.9657   20.3254 N   0  0  0  0  0  0
  -25.9378  -11.6714   20.5697 N   0  0  0  0  0  0
  -22.0381  -12.8129   22.0477 N   0  0  0  0  0  0
  -25.3880  -15.2049   20.4274 N   0  0  0  0  0  0
  -31.4854  -15.6925   20.1789 O   0  0  0  0  0  0
  -21.6650   -6.8898   21.4246 O   0  0  0  0  0  0
  -22.3383  -14.5454   20.6764 O   0  0  0  0  0  0
  -24.6941  -31.7879   23.1427 C   0  0  0  0  0  0
  -25.9473  -32.4410   23.8015 C   0  0  1  0  0  0
  -27.2297  -26.5961   20.2275 C   0  0  0  0  0  0
  -25.6010  -33.8238   24.1901 N   0  0  0  0  0  0
  -23.5251  -30.3850   21.4993 C   0  0  2  0  0  0
  -24.9836  -28.7028   20.1228 C   0  0  0  0  0  0
  -22.7809  -29.4252   22.4682 C   0  0  0  0  0  0
  -18.0347  -28.1427   22.8455 C   0  0  0  0  0  0
  -24.1494  -36.7119   23.2655 C   0  0  0  0  0  0
  -26.1105  -30.4860   21.4222 C   0  0  0  0  0  0
  -26.1753  -29.0385   20.7759 C   0  0  0  0  0  0
  -27.2793  -28.0170   20.7906 C   0  0  0  0  0  0
  -26.0028  -26.4964   19.5160 C   0  0  0  0  0  0
  -24.9426  -27.4585   19.4685 C   0  0  0  0  0  0
  -23.7852  -29.6715   20.1399 C   0  0  0  0  0  0
  -25.4149  -36.2863   24.0279 C   0  0  1  0  0  0
  -20.5987  -28.3793   23.1125 C   0  0  2  0  0  0
  -20.6803  -26.9442   22.5404 C   0  0  0  0  0  0
  -19.5780  -26.6375   21.5214 C   0  0  0  0  0  0
  -18.1967  -26.7953   22.1623 C   0  0  0  0  0  0
  -19.1615  -28.8937   23.2768 C   0  0  0  0  0  0
  -18.9517  -30.1519   23.8818 C   0  0  0  0  0  0
  -17.6504  -30.6608   24.0550 C   0  0  0  0  0  0
  -25.9135  -34.9254   23.4935 C   0  0  0  0  0  0
  -16.5394  -29.9087   23.6354 C   0  0  0  0  0  0
  -16.7325  -28.6509   23.0373 C   0  0  0  0  0  0
  -26.4621  -31.6480   25.0675 C   0  0  0  0  0  0
  -25.3666  -31.3818   26.1277 C   0  0  0  0  0  0
  -27.0569  -30.2810   24.6639 C   0  0  0  0  0  0
  -27.6054  -32.4358   25.7499 C   0  0  0  0  0  0
  -27.5560  -37.1720   24.8471 C   0  0  0  0  0  0
  -21.4446  -29.3017   22.3428 N   0  0  0  0  0  0
  -26.4269  -37.3633   23.9409 N   0  0  0  0  0  0
  -24.8014  -30.9219   22.0739 N   0  0  0  0  0  0
  -23.4199  -28.7872   23.3080 O   0  0  0  0  0  0
  -28.1794  -25.3291   20.2911 O   0  0  0  0  0  0
  -26.5787  -34.8854   22.4560 O   0  0  0  0  0  0
  -23.5938  -32.1004   23.6313 O   0  0  0  0  0  0
  -30.8942  -19.4472   20.3223 C   0  0  0  0  0  0
  -31.2570  -20.8408   20.3169 C   0  0  0  0  0  0
  -30.3567  -21.9809   20.3104 C   0  0  0  0  0  0
  -28.9353  -21.8791   20.2822 C   0  0  0  0  0  0
  -28.6438  -20.2640   20.2938 C   0  0  0  0  0  0
  -29.5828  -18.9233   20.3190 C   0  0  0  0  0  0
  -32.7598  -21.0952   20.3108 C   0  0  0  0  0  0
  -30.9190  -23.4011   20.3254 C   0  0  0  0  0  0
  -27.1684  -19.9254   20.2780 C   0  0  0  0  0  0
  -27.9560  -23.5320   20.2091 C   0  0  0  0  0  0
  -29.4636  -17.1618   20.3443 N   0  0  0  0  0  0
  -31.3974  -13.4679   19.1619 H   0  0  0  0  0  0
  -30.6114  -12.3657   20.2372 H   0  0  0  0  0  0
  -30.0384  -11.8476   17.8410 H   0  0  0  0  0  0
  -29.4919  -13.4884   17.5974 H   0  0  0  0  0  0
  -28.1952  -11.3170   19.2546 H   0  0  0  0  0  0
  -27.4723  -12.2051   17.9328 H   0  0  0  0  0  0
  -27.4350  -14.2232   19.2179 H   0  0  0  0  0  0
  -28.8910  -12.8523   21.5275 H   0  0  0  0  0  0
  -28.1386  -14.4246   21.6070 H   0  0  0  0  0  0
  -25.2805   -9.5676   22.4767 H   0  0  0  0  0  0
  -24.0019   -7.4642   22.7482 H   0  0  0  0  0  0
  -21.0878   -8.8807   19.8953 H   0  0  0  0  0  0
  -22.3764  -10.9683   19.6163 H   0  0  0  0  0  0
  -21.2017   -7.6158   23.9722 H   0  0  0  0  0  0
  -21.1476   -6.0527   25.9077 H   0  0  0  0  0  0
  -22.0596   -2.7619   23.2840 H   0  0  0  0  0  0
  -22.4027  -11.9803   22.4867 H   0  0  0  0  0  0
  -21.0988  -13.1118   22.2682 H   0  0  0  0  0  0
  -24.6152  -15.8515   20.5438 H   0  0  0  0  0  0
  -26.2269  -15.6487   20.0795 H   0  0  0  0  0  0
  -26.7566  -32.4864   23.0731 H   0  0  0  0  0  0
  -25.0060  -33.9252   24.9994 H   0  0  0  0  0  0
  -22.8567  -31.2252   21.2998 H   0  0  0  0  0  0
  -23.3779  -35.9425   23.3275 H   0  0  0  0  0  0
  -24.3551  -36.8820   22.2076 H   0  0  0  0  0  0
  -23.7233  -37.6278   23.6759 H   0  0  0  0  0  0
  -26.3226  -31.2024   20.6275 H   0  0  0  0  0  0
  -26.9580  -30.5602   22.0908 H   0  0  0  0  0  0
  -28.1753  -28.2843   21.3329 H   0  0  0  0  0  0
  -25.8172  -25.5609   19.0077 H   0  0  0  0  0  0
  -24.0457  -27.1901   18.9271 H   0  0  0  0  0  0
  -23.9696  -30.4264   19.3748 H   0  0  0  0  0  0
  -22.8877  -29.1432   19.8137 H   0  0  0  0  0  0
  -25.1361  -36.1617   25.0769 H   0  0  0  0  0  0
  -21.0073  -28.3427   24.1249 H   0  0  0  0  0  0
  -20.5653  -26.2414   23.3672 H   0  0  0  0  0  0
  -21.6663  -26.7362   22.1231 H   0  0  0  0  0  0
  -19.6928  -25.6264   21.1296 H   0  0  0  0  0  0
  -19.6727  -27.3139   20.6709 H   0  0  0  0  0  0
  -17.4232  -26.6694   21.4033 H   0  0  0  0  0  0
  -18.0361  -26.0113   22.9039 H   0  0  0  0  0  0
  -19.7990  -30.7359   24.2151 H   0  0  0  0  0  0
  -17.5052  -31.6281   24.5167 H   0  0  0  0  0  0
  -15.5390  -30.2963   23.7723 H   0  0  0  0  0  0
  -15.8725  -28.0799   22.7137 H   0  0  0  0  0  0
  -24.5878  -30.7140   25.7575 H   0  0  0  0  0  0
  -24.8828  -32.3044   26.4492 H   0  0  0  0  0  0
  -25.7829  -30.9119   27.0196 H   0  0  0  0  0  0
  -26.3310  -29.6402   24.1625 H   0  0  0  0  0  0
  -27.3954  -29.7286   25.5415 H   0  0  0  0  0  0
  -27.9305  -30.3919   24.0212 H   0  0  0  0  0  0
  -27.2585  -33.3729   26.1865 H   0  0  0  0  0  0
  -28.3972  -32.6806   25.0407 H   0  0  0  0  0  0
  -28.0608  -31.8631   26.5588 H   0  0  0  0  0  0
  -28.2554  -38.0037   24.7509 H   0  0  0  0  0  0
  -28.1081  -36.2558   24.6317 H   0  0  0  0  0  0
  -27.2268  -37.1374   25.8871 H   0  0  0  0  0  0
  -20.9773  -29.8645   21.6456 H   0  0  0  0  0  0
  -26.0092  -38.2680   24.1417 H   0  0  0  0  0  0
  -31.6919  -18.7171   20.3312 H   0  0  0  0  0  0
  -33.3370  -20.1738   20.2295 H   0  0  0  0  0  0
  -33.0713  -21.5876   21.2324 H   0  0  0  0  0  0
  -33.0438  -21.7198   19.4631 H   0  0  0  0  0  0
  -31.9870  -23.4724   20.5149 H   0  0  0  0  0  0
  -30.4424  -23.9882   21.1107 H   0  0  0  0  0  0
  -30.7243  -23.8923   19.3715 H   0  0  0  0  0  0
  -26.5509  -20.8209   20.2100 H   0  0  0  0  0  0
  -26.8950  -19.3921   21.1889 H   0  0  0  0  0  0
  -26.9355  -19.2875   19.4252 H   0  0  0  0  0  0
  -27.1953  -23.3689   20.9723 H   0  0  0  0  0  0
  -27.4061  -23.4187   19.2748 H   0  0  0  0  0  0
  -28.4877  -16.9071   20.3906 H   0  0  0  0  0  0
  1 25  1  0  0  0
  1 30  2  0  0  0
  1 81  1  0  0  0
  2  3  1  0  0  0
  2 25  1  0  0  0
  2 82  1  0  0  0
  2 83  1  0  0  0
  3  4  1  0  0  0
  3 84  1  0  0  0
  3 85  1  0  0  0
  4  5  1  0  0  0
  4 86  1  0  0  0
  4 87  1  0  0  0
  5  6  1  0  0  0
  5 26  1  0  0  0
  5 88  1  0  0  0
  6 25  1  0  0  0
  6 89  1  0  0  0
  6 90  1  0  0  0
  7  8  2  0  0  0
  7 26  1  0  0  0
  7 29  1  0  0  0
  8  9  1  0  0  0
  8 22  1  0  0  0
  9 10  1  0  0  0
  9 27  2  0  0  0
 10 11  2  0  0  0
 10 15  1  0  0  0
 11 12  1  0  0  0
 11 91  1  0  0  0
 12 13  2  0  0  0
 12 92  1  0  0  0
 13 14  1  0  0  0
 13 31  1  0  0  0
 14 15  2  0  0  0
 14 93  1  0  0  0
 15 94  1  0  0  0
 16 17  2  0  0  0
 16 21  1  0  0  0
 16 31  1  0  0  0
 17 18  1  0  0  0
 17 95  1  0  0  0
 18 19  2  0  0  0
 18 96  1  0  0  0
 19 20  1  0  0  0
 19 24  1  0  0  0
 20 21  2  0  0  0
 20 97  1  0  0  0
 21 23  1  0  0  0
 22 28  1  0  0  0
 22 32  2  0  0  0
 26 27  1  0  0  0
 28 98  1  0  0  0
 28 99  1  0  0  0
 29100  1  0  0  0
 29101  1  0  0  0
 33 34  1  0  0  0
 33 66  1  0  0  0
 33 70  2  0  0  0
 34 36  1  0  0  0
 34 59  1  0  0  0
 34102  1  0  0  0
 35 44  2  0  0  0
 35 45  1  0  0  0
 35 68  1  0  0  0
 36 56  1  0  0  0
 36103  1  0  0  0
 37 39  1  0  0  0
 37 47  1  0  0  0
 37 66  1  0  0  0
 37104  1  0  0  0
 38 43  2  0  0  0
 38 46  1  0  0  0
 38 47  1  0  0  0
 39 64  1  0  0  0
 39 67  2  0  0  0
 40 52  1  0  0  0
 40 53  2  0  0  0
 40 58  1  0  0  0
 41105  1  0  0  0
 41106  1  0  0  0
 41107  1  0  0  0
 41 48  1  0  0  0
 42 43  1  0  0  0
 42 66  1  0  0  0
 42108  1  0  0  0
 42109  1  0  0  0
 43 44  1  0  0  0
 44110  1  0  0  0
 45 46  2  0  0  0
 45111  1  0  0  0
 46112  1  0  0  0
 47113  1  0  0  0
 47114  1  0  0  0
 48 56  1  0  0  0
 48 65  1  0  0  0
 48115  1  0  0  0
 49 50  1  0  0  0
 49 53  1  0  0  0
 49 64  1  0  0  0
 49116  1  0  0  0
 50 51  1  0  0  0
 50117  1  0  0  0
 50118  1  0  0  0
 51 52  1  0  0  0
 51119  1  0  0  0
 51120  1  0  0  0
 52121  1  0  0  0
 52122  1  0  0  0
 53 54  1  0  0  0
 54 55  2  0  0  0
 54123  1  0  0  0
 55 57  1  0  0  0
 55124  1  0  0  0
 56 69  2  0  0  0
 57 58  2  0  0  0
 57125  1  0  0  0
 58126  1  0  0  0
 59 60  1  0  0  0
 59 61  1  0  0  0
 59 62  1  0  0  0
 60127  1  0  0  0
 60128  1  0  0  0
 60129  1  0  0  0
 61130  1  0  0  0
 61131  1  0  0  0
 61132  1  0  0  0
 62133  1  0  0  0
 62134  1  0  0  0
 62135  1  0  0  0
 63 65  1  0  0  0
 63136  1  0  0  0
 63137  1  0  0  0
 63138  1  0  0  0
 64139  1  0  0  0
 65140  1  0  0  0
 68 80  1  0  0  0
 71 72  2  0  0  0
 71 76  1  0  0  0
 71141  1  0  0  0
 72 73  1  0  0  0
 72 77  1  0  0  0
 73 74  2  0  0  0
 73 78  1  0  0  0
 74 75  1  0  0  0
 74 80  1  0  0  0
 75 76  2  0  0  0
 75 79  1  0  0  0
 76 81  1  0  0  0
 77142  1  0  0  0
 77143  1  0  0  0
 77144  1  0  0  0
 78145  1  0  0  0
 78146  1  0  0  0
 78147  1  0  0  0
 79148  1  0  0  0
 79149  1  0  0  0
 79150  1  0  0  0
 80151  1  0  0  0
 80152  1  0  0  0
 81153  1  0  0  0
M  ISO  4   1 100  68 101  80 101  81 100
M  END
> <chiral flag>
0

> <version>
0

> <s_m_source_file>
/data/baiqing/PycharmProjects/Reinvent-master-3.2/result/LINK_invent/BTK/process_docking_weight1_custom_sum_contain_oxygen_bond_distance_aromatic_linkinvent_7_9_3/rearranged_h_0018.sdf

> <i_m_source_file_index>
83

> <r_mmod_Potential_Energy-OPLS-2005>
2814.38500976562

> <r_mmod_Stretch_Energy-OPLS-2005>
1268.65014648438

> <r_mmod_Bend_Energy-OPLS-2005>
639.809631347656

> <r_mmod_Torsional_Energy-OPLS-2005>
222.874649047852

> <r_mmod_Improper_Torsional_Energy-OPLS-2005>
3.90321707725525

> <r_mmod_Van_der_Waal_Energy-OPLS-2005>
131.543884277344

> <r_mmod_Electrostatic_Energy-OPLS-2005>
-370.007080078125

> <r_mmod_Solvation_Energy-OPLS-2005>
-210.074722290039

> <b_mmod_Minimization_Converged-OPLS-2005>
0

> <r_mmod_RMS_Derivative-OPLS-2005>
0.566254615783691

$$$$
84
                    3D
 Structure written by MMmdl.
160168  0  0  1  0            999 V2000
  -30.4973  -14.8447   20.4534 C   0  0  0  0  0  0
  -30.4481  -12.5172   19.4781 C   0  0  0  0  0  0
  -29.5168  -12.5251   18.2423 C   0  0  0  0  0  0
  -28.0440  -12.3274   18.6557 C   0  0  0  0  0  0
  -27.6419  -13.2237   19.8550 C   0  0  2  0  0  0
  -28.6826  -13.1467   20.9916 C   0  0  0  0  0  0
  -25.2528  -13.8169   20.5708 C   0  0  0  0  0  0
  -24.1814  -13.0427   20.9203 C   0  0  0  0  0  0
  -24.6395  -11.6894   20.8744 C   0  0  0  0  0  0
  -23.9066  -10.4282   21.0410 C   0  0  0  0  0  0
  -24.3617   -9.4200   21.9185 C   0  0  0  0  0  0
  -23.6291   -8.2242   22.0758 C   0  0  0  0  0  0
  -22.4274   -8.0287   21.3551 C   0  0  0  0  0  0
  -21.9907   -9.0257   20.4644 C   0  0  0  0  0  0
  -22.7241  -10.2130   20.3057 C   0  0  0  0  0  0
  -21.6850   -6.0737   22.5280 C   0  0  0  0  0  0
  -21.4009   -6.5637   23.8210 C   0  0  0  0  0  0
  -21.3659   -5.6795   24.9174 C   0  0  0  0  0  0
  -21.6046   -4.3055   24.7225 C   0  0  0  0  0  0
  -21.8820   -3.8147   23.4343 C   0  0  0  0  0  0
  -21.9192   -4.6966   22.3405 C   0  0  0  0  0  0
  -22.7842  -13.5230   21.1848 C   0  0  0  0  0  0
  -22.1663   -4.2153   21.0983 F   0  0  0  0  0  0
  -21.5628   -3.4542   25.7734 F   0  0  0  0  0  0
  -29.9715  -13.5638   20.4203 N   0  0  0  0  0  0
  -26.2938  -12.9353   20.3285 N   0  0  0  0  0  0
  -25.9314  -11.6507   20.5738 N   0  0  0  0  0  0
  -22.0483  -12.8233   22.0403 N   0  0  0  0  0  0
  -25.4249  -15.1900   20.4140 N   0  0  0  0  0  0
  -31.6725  -15.0121   20.0991 O   0  0  0  0  0  0
  -21.6649   -6.8882   21.4242 O   0  0  0  0  0  0
  -22.3532  -14.5542   20.6690 O   0  0  0  0  0  0
  -24.6397  -31.8468   23.1902 C   0  0  0  0  0  0
  -25.9191  -32.4700   23.8278 C   0  0  1  0  0  0
  -27.2077  -27.1767   20.1376 C   0  0  0  0  0  0
  -25.5956  -33.8513   24.2184 N   0  0  0  0  0  0
  -23.4410  -30.4673   21.5331 C   0  0  2  0  0  0
  -24.8920  -28.9134   20.0974 C   0  0  0  0  0  0
  -22.7557  -29.4543   22.4842 C   0  0  0  0  0  0
  -18.0303  -28.1389   22.8505 C   0  0  0  0  0  0
  -24.1499  -36.7258   23.2631 C   0  0  0  0  0  0
  -25.9950  -30.7309   21.3894 C   0  0  0  0  0  0
  -26.0638  -29.3492   20.7275 C   0  0  0  0  0  0
  -27.2240  -28.4933   20.7393 C   0  0  0  0  0  0
  -26.0207  -26.8490   19.4477 C   0  0  0  0  0  0
  -24.8837  -27.6779   19.4376 C   0  0  0  0  0  0
  -23.6658  -29.8070   20.1468 C   0  0  0  0  0  0
  -25.4112  -36.3009   24.0305 C   0  0  1  0  0  0
  -20.5916  -28.3697   23.1271 C   0  0  2  0  0  0
  -20.6786  -26.9407   22.5434 C   0  0  0  0  0  0
  -19.5748  -26.6370   21.5251 C   0  0  0  0  0  0
  -18.1926  -26.7937   22.1645 C   0  0  0  0  0  0
  -19.1563  -28.8860   23.2889 C   0  0  0  0  0  0
  -18.9481  -30.1463   23.8895 C   0  0  0  0  0  0
  -17.6475  -30.6586   24.0571 C   0  0  0  0  0  0
  -25.9078  -34.9404   23.5042 C   0  0  0  0  0  0
  -16.5366  -29.9076   23.6347 C   0  0  0  0  0  0
  -16.7286  -28.6500   23.0367 C   0  0  0  0  0  0
  -26.4504  -31.6565   25.0724 C   0  0  0  0  0  0
  -25.3694  -31.3811   26.1435 C   0  0  0  0  0  0
  -27.0348  -30.2939   24.6318 C   0  0  0  0  0  0
  -27.6025  -32.4327   25.7508 C   0  0  0  0  0  0
  -27.5590  -37.1733   24.8421 C   0  0  0  0  0  0
  -21.4241  -29.3033   22.3628 N   0  0  0  0  0  0
  -26.4246  -37.3746   23.9454 N   0  0  0  0  0  0
  -24.7105  -31.0359   22.0920 N   0  0  0  0  0  0
  -23.4222  -28.8089   23.2984 O   0  0  0  0  0  0
  -28.2464  -26.1925   20.2249 O   0  0  0  0  0  0
  -26.5674  -34.8897   22.4629 O   0  0  0  0  0  0
  -23.5513  -32.1335   23.7118 O   0  0  0  0  0  0
  -29.6458  -19.6081   19.4528 C   0  0  0  0  0  0
  -28.8327  -20.3593   20.3655 C   0  0  0  0  0  0
  -28.3792  -19.5580   21.4669 C   0  0  0  0  0  0
  -28.7042  -18.1431   21.6146 C   0  0  0  0  0  0
  -29.5020  -17.3946   20.6726 C   0  0  0  0  0  0
  -29.9740  -18.1913   19.5783 C   0  0  0  0  0  0
  -27.4309  -20.2220   22.4656 C   0  0  0  0  0  0
  -28.1205  -17.3991   22.8163 C   0  0  0  0  0  0
  -31.2438  -18.2388   17.5300 C   0  0  0  0  0  0
  -28.2268  -21.8432   20.0056 C   0  0  0  0  0  0
  -28.7959  -23.3523   20.3899 C   0  0  0  0  0  0
  -27.9224  -24.7071   19.9756 C   0  0  0  0  0  0
  -29.6217  -15.8867   20.7984 N   0  0  0  0  0  0
  -30.6936  -17.5094   18.6191 O   0  0  0  0  0  0
  -31.4796  -12.6932   19.1692 H   0  0  0  0  0  0
  -30.4459  -11.5346   19.9541 H   0  0  0  0  0  0
  -29.8121  -11.7426   17.5429 H   0  0  0  0  0  0
  -29.6259  -13.4703   17.7071 H   0  0  0  0  0  0
  -27.9166  -11.2769   18.9225 H   0  0  0  0  0  0
  -27.3834  -12.5077   17.8080 H   0  0  0  0  0  0
  -27.6359  -14.2472   19.4790 H   0  0  0  0  0  0
  -28.7442  -12.1332   21.3913 H   0  0  0  0  0  0
  -28.3944  -13.7801   21.8314 H   0  0  0  0  0  0
  -25.2757   -9.5689   22.4766 H   0  0  0  0  0  0
  -24.0001   -7.4636   22.7477 H   0  0  0  0  0  0
  -21.0841   -8.8761   19.8957 H   0  0  0  0  0  0
  -22.3685  -10.9669   19.6176 H   0  0  0  0  0  0
  -21.1998   -7.6144   23.9717 H   0  0  0  0  0  0
  -21.1481   -6.0522   25.9074 H   0  0  0  0  0  0
  -22.0601   -2.7615   23.2841 H   0  0  0  0  0  0
  -22.4087  -11.9896   22.4818 H   0  0  0  0  0  0
  -21.1103  -13.1269   22.2584 H   0  0  0  0  0  0
  -24.6537  -15.8391   20.5234 H   0  0  0  0  0  0
  -26.2624  -15.6321   20.0574 H   0  0  0  0  0  0
  -26.7256  -32.5300   23.1003 H   0  0  0  0  0  0
  -25.0079  -33.9667   25.0304 H   0  0  0  0  0  0
  -22.7413  -31.2911   21.3807 H   0  0  0  0  0  0
  -23.3782  -35.9563   23.3171 H   0  0  0  0  0  0
  -24.3621  -36.9019   22.2074 H   0  0  0  0  0  0
  -23.7226  -37.6404   23.6751 H   0  0  0  0  0  0
  -26.1562  -31.4908   20.6240 H   0  0  0  0  0  0
  -26.8635  -30.7699   22.0351 H   0  0  0  0  0  0
  -28.1117  -28.8144   21.2638 H   0  0  0  0  0  0
  -25.9326  -25.9170   18.9107 H   0  0  0  0  0  0
  -24.0006  -27.3495   18.9077 H   0  0  0  0  0  0
  -23.7924  -30.5861   19.3937 H   0  0  0  0  0  0
  -22.7844  -29.2415   19.8373 H   0  0  0  0  0  0
  -25.1278  -36.1791   25.0783 H   0  0  0  0  0  0
  -21.0018  -28.3273   24.1396 H   0  0  0  0  0  0
  -20.5728  -26.2290   23.3639 H   0  0  0  0  0  0
  -21.6627  -26.7440   22.1186 H   0  0  0  0  0  0
  -19.6910  -25.6293   21.1259 H   0  0  0  0  0  0
  -19.6683  -27.3205   20.6808 H   0  0  0  0  0  0
  -17.4209  -26.6746   21.4027 H   0  0  0  0  0  0
  -18.0266  -26.0076   22.9022 H   0  0  0  0  0  0
  -19.7962  -30.7302   24.2227 H   0  0  0  0  0  0
  -17.5026  -31.6270   24.5167 H   0  0  0  0  0  0
  -15.5368  -30.2976   23.7667 H   0  0  0  0  0  0
  -15.8691  -28.0820   22.7069 H   0  0  0  0  0  0
  -24.5853  -30.7159   25.7789 H   0  0  0  0  0  0
  -24.8932  -32.3043   26.4754 H   0  0  0  0  0  0
  -25.7979  -30.9067   27.0275 H   0  0  0  0  0  0
  -26.2968  -29.6676   24.1296 H   0  0  0  0  0  0
  -27.3909  -29.7211   25.4896 H   0  0  0  0  0  0
  -27.8892  -30.4138   23.9654 H   0  0  0  0  0  0
  -27.2589  -33.3631   26.2026 H   0  0  0  0  0  0
  -28.3864  -32.6875   25.0368 H   0  0  0  0  0  0
  -28.0650  -31.8509   26.5489 H   0  0  0  0  0  0
  -28.2424  -38.0199   24.7654 H   0  0  0  0  0  0
  -28.1248  -36.2741   24.5947 H   0  0  0  0  0  0
  -27.2368  -37.1009   25.8823 H   0  0  0  0  0  0
  -20.9399  -29.8800   21.6886 H   0  0  0  0  0  0
  -26.0082  -38.2764   24.1605 H   0  0  0  0  0  0
  -29.9575  -20.1479   18.5725 H   0  0  0  0  0  0
  -27.6954  -21.2664   22.6244 H   0  0  0  0  0  0
  -27.4293  -19.7708   23.4554 H   0  0  0  0  0  0
  -26.4069  -20.1815   22.0911 H   0  0  0  0  0  0
  -27.0310  -17.4096   22.7750 H   0  0  0  0  0  0
  -28.4327  -17.8715   23.7475 H   0  0  0  0  0  0
  -28.4299  -16.3606   22.9008 H   0  0  0  0  0  0
  -31.8959  -17.5851   16.9503 H   0  0  0  0  0  0
  -31.8486  -19.0757   17.8780 H   0  0  0  0  0  0
  -30.4686  -18.6061   16.8563 H   0  0  0  0  0  0
  -27.1936  -21.8274   20.3571 H   0  0  0  0  0  0
  -28.1005  -21.8354   18.9223 H   0  0  0  0  0  0
  -29.7908  -23.4452   19.9535 H   0  0  0  0  0  0
  -28.9488  -23.3844   21.4675 H   0  0  0  0  0  0
  -26.9398  -24.5353   20.4172 H   0  0  0  0  0  0
  -27.7731  -24.6338   18.8980 H   0  0  0  0  0  0
  -28.7969  -15.4900   21.2212 H   0  0  0  0  0  0
  1 25  1  0  0  0
  1 30  2  0  0  0
  1 83  1  0  0  0
  2  3  1  0  0  0
  2 25  1  0  0  0
  2 85  1  0  0  0
  2 86  1  0  0  0
  3  4  1  0  0  0
  3 87  1  0  0  0
  3 88  1  0  0  0
  4  5  1  0  0  0
  4 89  1  0  0  0
  4 90  1  0  0  0
  5  6  1  0  0  0
  5 26  1  0  0  0
  5 91  1  0  0  0
  6 25  1  0  0  0
  6 92  1  0  0  0
  6 93  1  0  0  0
  7  8  2  0  0  0
  7 26  1  0  0  0
  7 29  1  0  0  0
  8  9  1  0  0  0
  8 22  1  0  0  0
  9 10  1  0  0  0
  9 27  2  0  0  0
 10 11  2  0  0  0
 10 15  1  0  0  0
 11 12  1  0  0  0
 11 94  1  0  0  0
 12 13  2  0  0  0
 12 95  1  0  0  0
 13 14  1  0  0  0
 13 31  1  0  0  0
 14 15  2  0  0  0
 14 96  1  0  0  0
 15 97  1  0  0  0
 16 17  2  0  0  0
 16 21  1  0  0  0
 16 31  1  0  0  0
 17 18  1  0  0  0
 17 98  1  0  0  0
 18 19  2  0  0  0
 18 99  1  0  0  0
 19 20  1  0  0  0
 19 24  1  0  0  0
 20 21  2  0  0  0
 20100  1  0  0  0
 21 23  1  0  0  0
 22 28  1  0  0  0
 22 32  2  0  0  0
 26 27  1  0  0  0
 28101  1  0  0  0
 28102  1  0  0  0
 29103  1  0  0  0
 29104  1  0  0  0
 33 34  1  0  0  0
 33 66  1  0  0  0
 33 70  2  0  0  0
 34 36  1  0  0  0
 34 59  1  0  0  0
 34105  1  0  0  0
 35 44  2  0  0  0
 35 45  1  0  0  0
 35 68  1  0  0  0
 36 56  1  0  0  0
 36106  1  0  0  0
 37 39  1  0  0  0
 37 47  1  0  0  0
 37 66  1  0  0  0
 37107  1  0  0  0
 38 43  2  0  0  0
 38 46  1  0  0  0
 38 47  1  0  0  0
 39 64  1  0  0  0
 39 67  2  0  0  0
 40 52  1  0  0  0
 40 53  2  0  0  0
 40 58  1  0  0  0
 41108  1  0  0  0
 41109  1  0  0  0
 41110  1  0  0  0
 41 48  1  0  0  0
 42 43  1  0  0  0
 42 66  1  0  0  0
 42111  1  0  0  0
 42112  1  0  0  0
 43 44  1  0  0  0
 44113  1  0  0  0
 45 46  2  0  0  0
 45114  1  0  0  0
 46115  1  0  0  0
 47116  1  0  0  0
 47117  1  0  0  0
 48 56  1  0  0  0
 48 65  1  0  0  0
 48118  1  0  0  0
 49 50  1  0  0  0
 49 53  1  0  0  0
 49 64  1  0  0  0
 49119  1  0  0  0
 50 51  1  0  0  0
 50120  1  0  0  0
 50121  1  0  0  0
 51 52  1  0  0  0
 51122  1  0  0  0
 51123  1  0  0  0
 52124  1  0  0  0
 52125  1  0  0  0
 53 54  1  0  0  0
 54 55  2  0  0  0
 54126  1  0  0  0
 55 57  1  0  0  0
 55127  1  0  0  0
 56 69  2  0  0  0
 57 58  2  0  0  0
 57128  1  0  0  0
 58129  1  0  0  0
 59 60  1  0  0  0
 59 61  1  0  0  0
 59 62  1  0  0  0
 60130  1  0  0  0
 60131  1  0  0  0
 60132  1  0  0  0
 61133  1  0  0  0
 61134  1  0  0  0
 61135  1  0  0  0
 62136  1  0  0  0
 62137  1  0  0  0
 62138  1  0  0  0
 63 65  1  0  0  0
 63139  1  0  0  0
 63140  1  0  0  0
 63141  1  0  0  0
 64142  1  0  0  0
 65143  1  0  0  0
 68 82  1  0  0  0
 71 72  2  0  0  0
 71 76  1  0  0  0
 71144  1  0  0  0
 72 73  1  0  0  0
 72 80  1  0  0  0
 73 74  2  0  0  0
 73 77  1  0  0  0
 74 75  1  0  0  0
 74 78  1  0  0  0
 75 76  2  0  0  0
 75 83  1  0  0  0
 76 84  1  0  0  0
 77145  1  0  0  0
 77146  1  0  0  0
 77147  1  0  0  0
 78148  1  0  0  0
 78149  1  0  0  0
 78150  1  0  0  0
 79 84  1  0  0  0
 79151  1  0  0  0
 79152  1  0  0  0
 79153  1  0  0  0
 80 81  1  0  0  0
 80154  1  0  0  0
 80155  1  0  0  0
 81 82  1  0  0  0
 81156  1  0  0  0
 81157  1  0  0  0
 82158  1  0  0  0
 82159  1  0  0  0
 83160  1  0  0  0
M  ISO  4   1 100  68 101  82 101  83 100
M  END
> <chiral flag>
0

> <version>
0

> <s_m_source_file>
/data/baiqing/PycharmProjects/Reinvent-master-3.2/result/LINK_invent/BTK/process_docking_weight1_custom_sum_contain_oxygen_bond_distance_aromatic_linkinvent_7_9_3/rearranged_h_0018.sdf

> <i_m_source_file_index>
84

> <r_mmod_Potential_Energy-OPLS-2005>
324.601959228516

> <r_mmod_Stretch_Energy-OPLS-2005>
194.474838256836

> <r_mmod_Bend_Energy-OPLS-2005>
239.602066040039

> <r_mmod_Torsional_Energy-OPLS-2005>
227.033767700195

> <r_mmod_Improper_Torsional_Energy-OPLS-2005>
6.09387826919556

> <r_mmod_Van_der_Waal_Energy-OPLS-2005>
149.945587158203

> <r_mmod_Electrostatic_Energy-OPLS-2005>
-421.723449707031

> <r_mmod_Solvation_Energy-OPLS-2005>
-218.438369750977

> <b_mmod_Minimization_Converged-OPLS-2005>
0

> <r_mmod_RMS_Derivative-OPLS-2005>
3.44402813911438

$$$$
85
                    3D
 Structure written by MMmdl.
173181  0  0  1  0            999 V2000
  -30.4457  -14.9911   20.4484 C   0  0  0  0  0  0
  -30.4595  -12.6345   19.4602 C   0  0  0  0  0  0
  -29.5193  -12.5532   18.2277 C   0  0  0  0  0  0
  -28.0478  -12.3237   18.6392 C   0  0  0  0  0  0
  -27.6258  -13.2302   19.8207 C   0  0  2  0  0  0
  -28.6794  -13.1700   20.9381 C   0  0  0  0  0  0
  -25.2514  -13.8188   20.5709 C   0  0  0  0  0  0
  -24.1781  -13.0418   20.9204 C   0  0  0  0  0  0
  -24.6389  -11.6921   20.8738 C   0  0  0  0  0  0
  -23.9097  -10.4310   21.0438 C   0  0  0  0  0  0
  -24.3652   -9.4241   21.9226 C   0  0  0  0  0  0
  -23.6317   -8.2289   22.0777 C   0  0  0  0  0  0
  -22.4267   -8.0348   21.3599 C   0  0  0  0  0  0
  -21.9925   -9.0307   20.4660 C   0  0  0  0  0  0
  -22.7282  -10.2180   20.3073 C   0  0  0  0  0  0
  -21.6880   -6.0763   22.5339 C   0  0  0  0  0  0
  -21.4020   -6.5654   23.8261 C   0  0  0  0  0  0
  -21.3649   -5.6797   24.9216 C   0  0  0  0  0  0
  -21.6046   -4.3047   24.7242 C   0  0  0  0  0  0
  -21.8811   -3.8154   23.4373 C   0  0  0  0  0  0
  -21.9183   -4.6988   22.3440 C   0  0  0  0  0  0
  -22.7824  -13.5240   21.1870 C   0  0  0  0  0  0
  -22.1631   -4.2177   21.1001 F   0  0  0  0  0  0
  -21.5651   -3.4505   25.7732 F   0  0  0  0  0  0
  -29.9239  -13.6942   20.3567 N   0  0  0  0  0  0
  -26.2872  -12.9348   20.3142 N   0  0  0  0  0  0
  -25.9312  -11.6500   20.5697 N   0  0  0  0  0  0
  -22.0434  -12.8268   22.0461 N   0  0  0  0  0  0
  -25.4184  -15.1913   20.4290 N   0  0  0  0  0  0
  -31.6669  -15.1069   20.2844 O   0  0  0  0  0  0
  -21.6637   -6.8927   21.4309 O   0  0  0  0  0  0
  -22.3521  -14.5545   20.6737 O   0  0  0  0  0  0
  -24.6403  -31.8422   23.1877 C   0  0  0  0  0  0
  -25.9197  -32.4680   23.8245 C   0  0  1  0  0  0
  -27.2128  -27.1257   20.1287 C   0  0  0  0  0  0
  -25.5951  -33.8483   24.2148 N   0  0  0  0  0  0
  -23.4394  -30.4630   21.5353 C   0  0  2  0  0  0
  -24.8903  -28.8927   20.1091 C   0  0  0  0  0  0
  -22.7519  -29.4515   22.4861 C   0  0  0  0  0  0
  -18.0282  -28.1372   22.8470 C   0  0  0  0  0  0
  -24.1493  -36.7207   23.2634 C   0  0  0  0  0  0
  -25.9969  -30.7150   21.3898 C   0  0  0  0  0  0
  -26.0715  -29.3256   20.7267 C   0  0  0  0  0  0
  -27.2315  -28.4573   20.7225 C   0  0  0  0  0  0
  -26.0080  -26.8126   19.4561 C   0  0  0  0  0  0
  -24.8741  -27.6510   19.4611 C   0  0  0  0  0  0
  -23.6660  -29.7956   20.1546 C   0  0  0  0  0  0
  -25.4137  -36.2995   24.0287 C   0  0  1  0  0  0
  -20.5884  -28.3658   23.1244 C   0  0  2  0  0  0
  -20.6754  -26.9370   22.5404 C   0  0  0  0  0  0
  -19.5743  -26.6316   21.5206 C   0  0  0  0  0  0
  -18.1917  -26.7915   22.1604 C   0  0  0  0  0  0
  -19.1534  -28.8839   23.2847 C   0  0  0  0  0  0
  -18.9467  -30.1429   23.8894 C   0  0  0  0  0  0
  -17.6473  -30.6589   24.0563 C   0  0  0  0  0  0
  -25.9066  -34.9385   23.5009 C   0  0  0  0  0  0
  -16.5351  -29.9083   23.6370 C   0  0  0  0  0  0
  -16.7267  -28.6487   23.0403 C   0  0  0  0  0  0
  -26.4549  -31.6567   25.0676 C   0  0  0  0  0  0
  -25.3699  -31.3763   26.1317 C   0  0  0  0  0  0
  -27.0404  -30.2949   24.6287 C   0  0  0  0  0  0
  -27.6062  -32.4322   25.7467 C   0  0  0  0  0  0
  -27.5582  -37.1772   24.8474 C   0  0  0  0  0  0
  -21.4204  -29.2970   22.3606 N   0  0  0  0  0  0
  -26.4293  -37.3733   23.9403 N   0  0  0  0  0  0
  -24.7122  -31.0281   22.0914 N   0  0  0  0  0  0
  -23.4189  -28.8098   23.3018 O   0  0  0  0  0  0
  -28.2678  -26.1342   20.2197 O   0  0  0  0  0  0
  -26.5659  -34.8888   22.4593 O   0  0  0  0  0  0
  -23.5527  -32.1272   23.7127 O   0  0  0  0  0  0
  -28.8158  -20.1646   20.4983 C   0  0  0  0  0  0
  -29.5011  -18.8702   20.1545 C   0  0  0  0  0  0
  -27.7408  -19.9942   21.4137 C   0  0  0  0  0  0
  -28.4305  -17.6651   21.9824 C   0  0  0  0  0  0
  -29.2915  -17.5579   20.8381 C   0  0  0  0  0  0
  -27.6180  -18.8250   22.2311 C   0  0  0  0  0  0
  -30.4203  -18.8405   18.9444 C   0  0  0  0  0  0
  -26.5989  -21.0075   21.3533 C   0  0  0  0  0  0
  -29.2870  -16.5620   24.1300 C   0  0  0  0  0  0
  -26.7190  -20.5424   24.8725 C   0  0  0  0  0  0
  -24.6937  -18.9904   24.7286 C   0  0  0  0  0  0
  -28.9792  -21.6756   19.7923 C   0  0  0  0  0  0
  -28.3112  -16.4728   22.9481 C   0  0  0  0  0  0
  -28.7842  -23.2266   20.4969 C   0  0  0  0  0  0
  -28.1775  -24.6333   19.7569 C   0  0  0  0  0  0
  -25.8427  -19.6706   23.9675 C   0  0  0  0  0  0
  -29.5507  -16.1083   20.3189 N   0  0  0  0  0  0
  -26.6353  -18.6717   23.2480 N   0  0  0  0  0  0
  -31.4794  -12.8616   19.1374 H   0  0  0  0  0  0
  -30.5089  -11.6688   19.9660 H   0  0  0  0  0  0
  -29.8498  -11.7630   17.5509 H   0  0  0  0  0  0
  -29.5821  -13.4812   17.6577 H   0  0  0  0  0  0
  -27.9356  -11.2784   18.9313 H   0  0  0  0  0  0
  -27.3827  -12.4775   17.7881 H   0  0  0  0  0  0
  -27.5992  -14.2381   19.4144 H   0  0  0  0  0  0
  -28.8033  -12.1389   21.2681 H   0  0  0  0  0  0
  -28.3649  -13.6955   21.8289 H   0  0  0  0  0  0
  -25.2785   -9.5701   22.4792 H   0  0  0  0  0  0
  -24.0000   -7.4632   22.7476 H   0  0  0  0  0  0
  -21.0868   -8.8881   19.8936 H   0  0  0  0  0  0
  -22.3787  -10.9739   19.6183 H   0  0  0  0  0  0
  -21.2009   -7.6144   23.9767 H   0  0  0  0  0  0
  -21.1465   -6.0525   25.9133 H   0  0  0  0  0  0
  -22.0567   -2.7611   23.2886 H   0  0  0  0  0  0
  -22.3903  -11.9833   22.4796 H   0  0  0  0  0  0
  -21.1064  -13.1388   22.2622 H   0  0  0  0  0  0
  -24.6734  -15.8495   20.6320 H   0  0  0  0  0  0
  -26.2721  -15.6464   20.1400 H   0  0  0  0  0  0
  -26.7223  -32.5304   23.0925 H   0  0  0  0  0  0
  -25.0135  -33.9621   25.0321 H   0  0  0  0  0  0
  -22.7394  -31.2882   21.3859 H   0  0  0  0  0  0
  -23.3773  -35.9531   23.3286 H   0  0  0  0  0  0
  -24.3567  -36.8846   22.2050 H   0  0  0  0  0  0
  -23.7233  -37.6385   23.6683 H   0  0  0  0  0  0
  -26.1593  -31.4848   20.6319 H   0  0  0  0  0  0
  -26.8564  -30.7583   22.0432 H   0  0  0  0  0  0
  -28.1301  -28.7842   21.2273 H   0  0  0  0  0  0
  -25.8936  -25.8847   18.9209 H   0  0  0  0  0  0
  -23.9707  -27.3255   18.9618 H   0  0  0  0  0  0
  -23.7958  -30.5689   19.3951 H   0  0  0  0  0  0
  -22.7793  -29.2407   19.8471 H   0  0  0  0  0  0
  -25.1356  -36.1791   25.0784 H   0  0  0  0  0  0
  -20.9949  -28.3230   24.1366 H   0  0  0  0  0  0
  -20.5645  -26.2239   23.3581 H   0  0  0  0  0  0
  -21.6618  -26.7391   22.1197 H   0  0  0  0  0  0
  -19.6892  -25.6172   21.1338 H   0  0  0  0  0  0
  -19.6743  -27.3037   20.6660 H   0  0  0  0  0  0
  -17.4196  -26.6657   21.3992 H   0  0  0  0  0  0
  -18.0300  -26.0061   22.8996 H   0  0  0  0  0  0
  -19.7959  -30.7215   24.2285 H   0  0  0  0  0  0
  -17.5064  -31.6297   24.5130 H   0  0  0  0  0  0
  -15.5362  -30.3010   23.7709 H   0  0  0  0  0  0
  -15.8648  -28.0799   22.7167 H   0  0  0  0  0  0
  -24.5906  -30.7104   25.7599 H   0  0  0  0  0  0
  -24.8855  -32.2944   26.4644 H   0  0  0  0  0  0
  -25.7923  -30.8983   27.0147 H   0  0  0  0  0  0
  -26.3019  -29.6656   24.1297 H   0  0  0  0  0  0
  -27.3973  -29.7291   25.4906 H   0  0  0  0  0  0
  -27.8964  -30.4144   23.9635 H   0  0  0  0  0  0
  -27.2673  -33.3651   26.1983 H   0  0  0  0  0  0
  -28.3937  -32.6819   25.0344 H   0  0  0  0  0  0
  -28.0655  -31.8462   26.5436 H   0  0  0  0  0  0
  -28.2598  -38.0076   24.7531 H   0  0  0  0  0  0
  -28.1081  -36.2598   24.6306 H   0  0  0  0  0  0
  -27.2280  -37.1411   25.8874 H   0  0  0  0  0  0
  -20.9358  -29.8649   21.6779 H   0  0  0  0  0  0
  -26.0133  -38.2779   24.1457 H   0  0  0  0  0  0
  -31.4329  -18.5804   19.2472 H   0  0  0  0  0  0
  -30.4666  -19.7847   18.4050 H   0  0  0  0  0  0
  -30.0920  -18.0806   18.2363 H   0  0  0  0  0  0
  -26.5703  -21.5689   20.4235 H   0  0  0  0  0  0
  -26.6116  -21.7095   22.1855 H   0  0  0  0  0  0
  -25.6468  -20.4811   21.3306 H   0  0  0  0  0  0
  -29.0903  -17.4318   24.7576 H   0  0  0  0  0  0
  -30.3202  -16.6121   23.7791 H   0  0  0  0  0  0
  -29.2081  -15.6763   24.7592 H   0  0  0  0  0  0
  -26.1214  -21.3037   25.3756 H   0  0  0  0  0  0
  -27.4772  -21.0731   24.2957 H   0  0  0  0  0  0
  -27.2285  -19.9492   25.6318 H   0  0  0  0  0  0
  -24.0373  -19.7326   25.1884 H   0  0  0  0  0  0
  -25.0424  -18.3207   25.5124 H   0  0  0  0  0  0
  -24.0716  -18.4054   24.0466 H   0  0  0  0  0  0
  -28.3177  -21.6547   18.9265 H   0  0  0  0  0  0
  -29.9727  -21.6986   19.3475 H   0  0  0  0  0  0
  -28.5426  -15.5589   22.4484 H   0  0  0  0  0  0
  -27.2920  -16.3065   23.2976 H   0  0  0  0  0  0
  -28.1954  -23.1233   21.4055 H   0  0  0  0  0  0
  -29.7719  -23.4838   20.8837 H   0  0  0  0  0  0
  -28.6199  -24.6654   18.7593 H   0  0  0  0  0  0
  -27.1301  -24.3915   19.5859 H   0  0  0  0  0  0
  -25.3119  -20.3246   23.2913 H   0  0  0  0  0  0
  -28.6590  -15.6971   20.0971 H   0  0  0  0  0  0
  -26.6631  -17.7743   23.7186 H   0  0  0  0  0  0
  1 25  1  0  0  0
  1 30  2  0  0  0
  1 87  1  0  0  0
  2  3  1  0  0  0
  2 25  1  0  0  0
  2 89  1  0  0  0
  2 90  1  0  0  0
  3  4  1  0  0  0
  3 91  1  0  0  0
  3 92  1  0  0  0
  4  5  1  0  0  0
  4 93  1  0  0  0
  4 94  1  0  0  0
  5  6  1  0  0  0
  5 26  1  0  0  0
  5 95  1  0  0  0
  6 25  1  0  0  0
  6 96  1  0  0  0
  6 97  1  0  0  0
  7  8  2  0  0  0
  7 26  1  0  0  0
  7 29  1  0  0  0
  8  9  1  0  0  0
  8 22  1  0  0  0
  9 10  1  0  0  0
  9 27  2  0  0  0
 10 11  2  0  0  0
 10 15  1  0  0  0
 11 12  1  0  0  0
 11 98  1  0  0  0
 12 13  2  0  0  0
 12 99  1  0  0  0
 13 14  1  0  0  0
 13 31  1  0  0  0
 14 15  2  0  0  0
 14100  1  0  0  0
 15101  1  0  0  0
 16 17  2  0  0  0
 16 21  1  0  0  0
 16 31  1  0  0  0
 17 18  1  0  0  0
 17102  1  0  0  0
 18 19  2  0  0  0
 18103  1  0  0  0
 19 20  1  0  0  0
 19 24  1  0  0  0
 20 21  2  0  0  0
 20104  1  0  0  0
 21 23  1  0  0  0
 22 28  1  0  0  0
 22 32  2  0  0  0
 26 27  1  0  0  0
 28105  1  0  0  0
 28106  1  0  0  0
 29107  1  0  0  0
 29108  1  0  0  0
 33 34  1  0  0  0
 33 66  1  0  0  0
 33 70  2  0  0  0
 34 36  1  0  0  0
 34 59  1  0  0  0
 34109  1  0  0  0
 35 44  2  0  0  0
 35 45  1  0  0  0
 35 68  1  0  0  0
 36 56  1  0  0  0
 36110  1  0  0  0
 37 39  1  0  0  0
 37 47  1  0  0  0
 37 66  1  0  0  0
 37111  1  0  0  0
 38 43  2  0  0  0
 38 46  1  0  0  0
 38 47  1  0  0  0
 39 64  1  0  0  0
 39 67  2  0  0  0
 40 52  1  0  0  0
 40 53  2  0  0  0
 40 58  1  0  0  0
 41112  1  0  0  0
 41113  1  0  0  0
 41114  1  0  0  0
 41 48  1  0  0  0
 42 43  1  0  0  0
 42 66  1  0  0  0
 42115  1  0  0  0
 42116  1  0  0  0
 43 44  1  0  0  0
 44117  1  0  0  0
 45 46  2  0  0  0
 45118  1  0  0  0
 46119  1  0  0  0
 47120  1  0  0  0
 47121  1  0  0  0
 48 56  1  0  0  0
 48 65  1  0  0  0
 48122  1  0  0  0
 49 50  1  0  0  0
 49 53  1  0  0  0
 49 64  1  0  0  0
 49123  1  0  0  0
 50 51  1  0  0  0
 50124  1  0  0  0
 50125  1  0  0  0
 51 52  1  0  0  0
 51126  1  0  0  0
 51127  1  0  0  0
 52128  1  0  0  0
 52129  1  0  0  0
 53 54  1  0  0  0
 54 55  2  0  0  0
 54130  1  0  0  0
 55 57  1  0  0  0
 55131  1  0  0  0
 56 69  2  0  0  0
 57 58  2  0  0  0
 57132  1  0  0  0
 58133  1  0  0  0
 59 60  1  0  0  0
 59 61  1  0  0  0
 59 62  1  0  0  0
 60134  1  0  0  0
 60135  1  0  0  0
 60136  1  0  0  0
 61137  1  0  0  0
 61138  1  0  0  0
 61139  1  0  0  0
 62140  1  0  0  0
 62141  1  0  0  0
 62142  1  0  0  0
 63 65  1  0  0  0
 63143  1  0  0  0
 63144  1  0  0  0
 63145  1  0  0  0
 64146  1  0  0  0
 65147  1  0  0  0
 68 85  1  0  0  0
 71 72  2  0  0  0
 71 73  1  0  0  0
 71 82  1  0  0  0
 72 75  1  0  0  0
 72 77  1  0  0  0
 73 76  2  0  0  0
 73 78  1  0  0  0
 74 75  2  0  0  0
 74 76  1  0  0  0
 74 83  1  0  0  0
 75 87  1  0  0  0
 76 88  1  0  0  0
 77148  1  0  0  0
 77149  1  0  0  0
 77150  1  0  0  0
 78151  1  0  0  0
 78152  1  0  0  0
 78153  1  0  0  0
 79 83  1  0  0  0
 79154  1  0  0  0
 79155  1  0  0  0
 79156  1  0  0  0
 80157  1  0  0  0
 80158  1  0  0  0
 80159  1  0  0  0
 80 86  1  0  0  0
 81 86  1  0  0  0
 81160  1  0  0  0
 81161  1  0  0  0
 81162  1  0  0  0
 82 84  1  0  0  0
 82163  1  0  0  0
 82164  1  0  0  0
 83165  1  0  0  0
 83166  1  0  0  0
 84 85  1  0  0  0
 84167  1  0  0  0
 84168  1  0  0  0
 85169  1  0  0  0
 85170  1  0  0  0
 86 88  1  0  0  0
 86171  1  0  0  0
 87172  1  0  0  0
 88173  1  0  0  0
M  ISO  4   1 100  68 101  85 101  87 100
M  END
> <chiral flag>
0

> <version>
0

> <s_m_source_file>
/data/baiqing/PycharmProjects/Reinvent-master-3.2/result/LINK_invent/BTK/process_docking_weight1_custom_sum_contain_oxygen_bond_distance_aromatic_linkinvent_7_9_3/rearranged_h_0018.sdf

> <i_m_source_file_index>
85

> <r_mmod_Potential_Energy-OPLS-2005>
719.18603515625

> <r_mmod_Stretch_Energy-OPLS-2005>
322.205810546875

> <r_mmod_Bend_Energy-OPLS-2005>
343.142242431641

> <r_mmod_Torsional_Energy-OPLS-2005>
298.381195068359

> <r_mmod_Improper_Torsional_Energy-OPLS-2005>
19.7185440063477

> <r_mmod_Van_der_Waal_Energy-OPLS-2005>
156.372848510742

> <r_mmod_Electrostatic_Energy-OPLS-2005>
-438.210571289062

> <r_mmod_Solvation_Energy-OPLS-2005>
-198.688446044922

> <b_mmod_Minimization_Converged-OPLS-2005>
0

> <r_mmod_RMS_Derivative-OPLS-2005>
5.96912622451782

$$$$
86
                    3D
 Structure written by MMmdl.
165173  0  0  1  0            999 V2000
  -30.7556  -14.5127   20.5800 C   0  0  0  0  0  0
  -30.4119  -12.3456   19.4293 C   0  0  0  0  0  0
  -29.4872  -12.5100   18.2078 C   0  0  0  0  0  0
  -28.0166  -12.3265   18.6245 C   0  0  0  0  0  0
  -27.6506  -13.1910   19.8563 C   0  0  2  0  0  0
  -28.7009  -13.0500   20.9874 C   0  0  0  0  0  0
  -25.2590  -13.8118   20.5674 C   0  0  0  0  0  0
  -24.1837  -13.0416   20.9192 C   0  0  0  0  0  0
  -24.6384  -11.6876   20.8778 C   0  0  0  0  0  0
  -23.9060  -10.4269   21.0446 C   0  0  0  0  0  0
  -24.3612   -9.4174   21.9210 C   0  0  0  0  0  0
  -23.6277   -8.2217   22.0766 C   0  0  0  0  0  0
  -22.4258   -8.0277   21.3558 C   0  0  0  0  0  0
  -21.9908   -9.0251   20.4652 C   0  0  0  0  0  0
  -22.7243  -10.2126   20.3067 C   0  0  0  0  0  0
  -21.6838   -6.0741   22.5291 C   0  0  0  0  0  0
  -21.4007   -6.5642   23.8227 C   0  0  0  0  0  0
  -21.3652   -5.6798   24.9183 C   0  0  0  0  0  0
  -21.6034   -4.3060   24.7228 C   0  0  0  0  0  0
  -21.8813   -3.8158   23.4352 C   0  0  0  0  0  0
  -21.9184   -4.6980   22.3408 C   0  0  0  0  0  0
  -22.7860  -13.5233   21.1843 C   0  0  0  0  0  0
  -22.1649   -4.2165   21.0982 F   0  0  0  0  0  0
  -21.5635   -3.4545   25.7741 F   0  0  0  0  0  0
  -30.0278  -13.3621   20.4310 N   0  0  0  0  0  0
  -26.2977  -12.9235   20.3308 N   0  0  0  0  0  0
  -25.9299  -11.6428   20.5800 N   0  0  0  0  0  0
  -22.0484  -12.8232   22.0385 N   0  0  0  0  0  0
  -25.4343  -15.1830   20.4061 N   0  0  0  0  0  0
  -31.8715  -14.6245   20.0601 O   0  0  0  0  0  0
  -21.6621   -6.8876   21.4250 O   0  0  0  0  0  0
  -22.3564  -14.5553   20.6701 O   0  0  0  0  0  0
  -24.6171  -31.8681   23.2112 C   0  0  0  0  0  0
  -25.9066  -32.4814   23.8399 C   0  0  1  0  0  0
  -27.2149  -27.4092   20.0797 C   0  0  0  0  0  0
  -25.5913  -33.8610   24.2323 N   0  0  0  0  0  0
  -23.4030  -30.4988   21.5530 C   0  0  2  0  0  0
  -24.8433  -28.9731   20.1064 C   0  0  0  0  0  0
  -22.7409  -29.4685   22.4966 C   0  0  0  0  0  0
  -18.0291  -28.1404   22.8498 C   0  0  0  0  0  0
  -24.1488  -36.7310   23.2637 C   0  0  0  0  0  0
  -25.9358  -30.8221   21.3713 C   0  0  0  0  0  0
  -26.0033  -29.4550   20.7210 C   0  0  0  0  0  0
  -27.1849  -28.6729   20.7218 C   0  0  0  0  0  0
  -26.0326  -26.9667   19.4431 C   0  0  0  0  0  0
  -24.8538  -27.7280   19.4647 C   0  0  0  0  0  0
  -23.6093  -29.8440   20.1616 C   0  0  0  0  0  0
  -25.4101  -36.3105   24.0336 C   0  0  1  0  0  0
  -20.5878  -28.3706   23.1321 C   0  0  2  0  0  0
  -20.6801  -26.9446   22.5420 C   0  0  0  0  0  0
  -19.5777  -26.6416   21.5227 C   0  0  0  0  0  0
  -18.1941  -26.7967   22.1610 C   0  0  0  0  0  0
  -19.1540  -28.8866   23.2924 C   0  0  0  0  0  0
  -18.9474  -30.1476   23.8938 C   0  0  0  0  0  0
  -17.6482  -30.6606   24.0590 C   0  0  0  0  0  0
  -25.9036  -34.9469   23.5122 C   0  0  0  0  0  0
  -16.5373  -29.9117   23.6347 C   0  0  0  0  0  0
  -16.7283  -28.6547   23.0347 C   0  0  0  0  0  0
  -26.4464  -31.6594   25.0736 C   0  0  0  0  0  0
  -25.3686  -31.3715   26.1461 C   0  0  0  0  0  0
  -27.0299  -30.3041   24.6117 C   0  0  0  0  0  0
  -27.6078  -32.4290   25.7469 C   0  0  0  0  0  0
  -27.5573  -37.1807   24.8458 C   0  0  0  0  0  0
  -21.4145  -29.3065   22.3711 N   0  0  0  0  0  0
  -26.4278  -37.3801   23.9416 N   0  0  0  0  0  0
  -24.6706  -31.0776   22.1024 N   0  0  0  0  0  0
  -23.4193  -28.8204   23.2990 O   0  0  0  0  0  0
  -28.3728  -26.6475   20.1411 O   0  0  0  0  0  0
  -26.5600  -34.8937   22.4687 O   0  0  0  0  0  0
  -23.5361  -32.1442   23.7489 O   0  0  0  0  0  0
  -28.4954  -18.5727   22.0499 C   0  0  0  0  0  0
  -29.0013  -17.7601   21.0125 C   0  0  0  0  0  0
  -28.3584  -20.5198   20.5494 C   0  0  0  0  0  0
  -28.9859  -19.7407   19.5313 C   0  0  0  0  0  0
  -28.1760  -19.9280   21.8225 C   0  0  0  0  0  0
  -29.3075  -18.3720   19.7719 C   0  0  0  0  0  0
  -29.2642  -20.3103   18.1446 C   0  0  0  0  0  0
  -27.2152  -23.8652   17.9540 C   0  0  0  0  0  0
  -31.2836  -16.2816   22.1667 C   0  0  0  0  0  0
  -29.0185  -16.2248   21.1919 C   0  0  0  0  0  0
  -27.6628  -21.8733   20.2679 C   0  0  0  0  0  0
  -28.6100  -25.5509   19.2305 C   0  0  0  0  0  0
  -27.7580  -24.2345   19.3648 C   0  0  2  0  0  0
  -30.3005  -15.5100   21.3972 N   0  0  0  0  0  0
  -28.5020  -23.0768   19.9807 N   0  3  0  0  0  0
  -27.6036  -20.6381   22.8238 F   0  0  0  0  0  0
  -29.9934  -17.4097   18.5046 Cl  0  0  0  0  0  0
  -31.4564  -12.4224   19.1200 H   0  0  0  0  0  0
  -30.3108  -11.3452   19.8514 H   0  0  0  0  0  0
  -29.7478  -11.7866   17.4336 H   0  0  0  0  0  0
  -29.6281  -13.4990   17.7688 H   0  0  0  0  0  0
  -27.8575  -11.2714   18.8512 H   0  0  0  0  0  0
  -27.3560  -12.5620   17.7889 H   0  0  0  0  0  0
  -27.6511  -14.2066   19.4773 H   0  0  0  0  0  0
  -28.6996  -12.0318   21.3774 H   0  0  0  0  0  0
  -28.4507  -13.6810   21.8396 H   0  0  0  0  0  0
  -25.2764   -9.5639   22.4797 H   0  0  0  0  0  0
  -23.9984   -7.4600   22.7478 H   0  0  0  0  0  0
  -21.0850   -8.8766   19.8949 H   0  0  0  0  0  0
  -22.3716  -10.9676   19.6179 H   0  0  0  0  0  0
  -21.1999   -7.6156   23.9741 H   0  0  0  0  0  0
  -21.1482   -6.0526   25.9084 H   0  0  0  0  0  0
  -22.0604   -2.7631   23.2859 H   0  0  0  0  0  0
  -22.4067  -11.9870   22.4750 H   0  0  0  0  0  0
  -21.1115  -13.1298   22.2608 H   0  0  0  0  0  0
  -24.6667  -15.8371   20.5050 H   0  0  0  0  0  0
  -26.2776  -15.6174   20.0553 H   0  0  0  0  0  0
  -26.7128  -32.5527   23.1156 H   0  0  0  0  0  0
  -25.0086  -33.9790   25.0481 H   0  0  0  0  0  0
  -22.6957  -31.3190   21.4203 H   0  0  0  0  0  0
  -23.3750  -35.9644   23.3283 H   0  0  0  0  0  0
  -24.3597  -36.8927   22.2058 H   0  0  0  0  0  0
  -23.7233  -37.6508   23.6658 H   0  0  0  0  0  0
  -26.0455  -31.5805   20.5962 H   0  0  0  0  0  0
  -26.8270  -30.8796   21.9830 H   0  0  0  0  0  0
  -28.0741  -29.0310   21.2222 H   0  0  0  0  0  0
  -25.9665  -26.0320   18.9230 H   0  0  0  0  0  0
  -23.9685  -27.3568   18.9690 H   0  0  0  0  0  0
  -23.7182  -30.6269   19.4119 H   0  0  0  0  0  0
  -22.7299  -29.2729   19.8585 H   0  0  0  0  0  0
  -25.1271  -36.1957   25.0825 H   0  0  0  0  0  0
  -21.0001  -28.3299   24.1430 H   0  0  0  0  0  0
  -20.5771  -26.2310   23.3606 H   0  0  0  0  0  0
  -21.6678  -26.7522   22.1181 H   0  0  0  0  0  0
  -19.6957  -25.6323   21.1277 H   0  0  0  0  0  0
  -19.6736  -27.3235   20.6769 H   0  0  0  0  0  0
  -17.4230  -26.6762   21.3995 H   0  0  0  0  0  0
  -18.0316  -26.0077   22.8969 H   0  0  0  0  0  0
  -19.7935  -30.7304   24.2323 H   0  0  0  0  0  0
  -17.5022  -31.6295   24.5162 H   0  0  0  0  0  0
  -15.5384  -30.3044   23.7635 H   0  0  0  0  0  0
  -15.8677  -28.0901   22.7012 H   0  0  0  0  0  0
  -24.5994  -30.6885   25.7832 H   0  0  0  0  0  0
  -24.8699  -32.2847   26.4730 H   0  0  0  0  0  0
  -25.8019  -30.9082   27.0333 H   0  0  0  0  0  0
  -26.2860  -29.6811   24.1146 H   0  0  0  0  0  0
  -27.4058  -29.7271   25.4572 H   0  0  0  0  0  0
  -27.8682  -30.4384   23.9275 H   0  0  0  0  0  0
  -27.2796  -33.3678   26.1949 H   0  0  0  0  0  0
  -28.3927  -32.6673   25.0276 H   0  0  0  0  0  0
  -28.0677  -31.8430   26.5445 H   0  0  0  0  0  0
  -28.2574  -38.0125   24.7537 H   0  0  0  0  0  0
  -28.1096  -36.2664   24.6235 H   0  0  0  0  0  0
  -27.2320  -37.1378   25.8870 H   0  0  0  0  0  0
  -20.9309  -29.8760   21.6898 H   0  0  0  0  0  0
  -26.0156  -38.2866   24.1471 H   0  0  0  0  0  0
  -28.2596  -18.1374   23.0103 H   0  0  0  0  0  0
  -28.8446  -21.2975   17.9791 H   0  0  0  0  0  0
  -28.8509  -19.6606   17.3720 H   0  0  0  0  0  0
  -30.3416  -20.3764   17.9861 H   0  0  0  0  0  0
  -26.7191  -24.7071   17.4728 H   0  0  0  0  0  0
  -26.4729  -23.0693   17.9587 H   0  0  0  0  0  0
  -28.0232  -23.5718   17.2840 H   0  0  0  0  0  0
  -30.8247  -16.7488   23.0385 H   0  0  0  0  0  0
  -31.7276  -17.0641   21.5492 H   0  0  0  0  0  0
  -32.0949  -15.6460   22.5287 H   0  0  0  0  0  0
  -28.5426  -15.8532   20.2938 H   0  0  0  0  0  0
  -28.3488  -15.9620   22.0119 H   0  0  0  0  0  0
  -26.9997  -22.1302   21.0941 H   0  0  0  0  0  0
  -26.9873  -21.6627   19.4432 H   0  0  0  0  0  0
  -28.5225  -25.9614   18.2238 H   0  0  0  0  0  0
  -29.6658  -25.2932   19.3188 H   0  0  0  0  0  0
  -26.9103  -24.4317   20.0222 H   0  0  0  0  0  0
  -29.2710  -22.8152   19.3851 H   0  0  0  0  0  0
  -28.8980  -23.3742   20.8601 H   0  0  0  0  0  0
  1 25  1  0  0  0
  1 30  2  0  0  0
  1 84  1  0  0  0
  2  3  1  0  0  0
  2 25  1  0  0  0
  2 88  1  0  0  0
  2 89  1  0  0  0
  3  4  1  0  0  0
  3 90  1  0  0  0
  3 91  1  0  0  0
  4  5  1  0  0  0
  4 92  1  0  0  0
  4 93  1  0  0  0
  5  6  1  0  0  0
  5 26  1  0  0  0
  5 94  1  0  0  0
  6 25  1  0  0  0
  6 95  1  0  0  0
  6 96  1  0  0  0
  7  8  2  0  0  0
  7 26  1  0  0  0
  7 29  1  0  0  0
  8  9  1  0  0  0
  8 22  1  0  0  0
  9 10  1  0  0  0
  9 27  2  0  0  0
 10 11  2  0  0  0
 10 15  1  0  0  0
 11 12  1  0  0  0
 11 97  1  0  0  0
 12 13  2  0  0  0
 12 98  1  0  0  0
 13 14  1  0  0  0
 13 31  1  0  0  0
 14 15  2  0  0  0
 14 99  1  0  0  0
 15100  1  0  0  0
 16 17  2  0  0  0
 16 21  1  0  0  0
 16 31  1  0  0  0
 17 18  1  0  0  0
 17101  1  0  0  0
 18 19  2  0  0  0
 18102  1  0  0  0
 19 20  1  0  0  0
 19 24  1  0  0  0
 20 21  2  0  0  0
 20103  1  0  0  0
 21 23  1  0  0  0
 22 28  1  0  0  0
 22 32  2  0  0  0
 26 27  1  0  0  0
 28104  1  0  0  0
 28105  1  0  0  0
 29106  1  0  0  0
 29107  1  0  0  0
 33 34  1  0  0  0
 33 66  1  0  0  0
 33 70  2  0  0  0
 34 36  1  0  0  0
 34 59  1  0  0  0
 34108  1  0  0  0
 35 44  2  0  0  0
 35 45  1  0  0  0
 35 68  1  0  0  0
 36 56  1  0  0  0
 36109  1  0  0  0
 37 39  1  0  0  0
 37 47  1  0  0  0
 37 66  1  0  0  0
 37110  1  0  0  0
 38 43  2  0  0  0
 38 46  1  0  0  0
 38 47  1  0  0  0
 39 64  1  0  0  0
 39 67  2  0  0  0
 40 52  1  0  0  0
 40 53  2  0  0  0
 40 58  1  0  0  0
 41111  1  0  0  0
 41112  1  0  0  0
 41113  1  0  0  0
 41 48  1  0  0  0
 42 43  1  0  0  0
 42 66  1  0  0  0
 42114  1  0  0  0
 42115  1  0  0  0
 43 44  1  0  0  0
 44116  1  0  0  0
 45 46  2  0  0  0
 45117  1  0  0  0
 46118  1  0  0  0
 47119  1  0  0  0
 47120  1  0  0  0
 48 56  1  0  0  0
 48 65  1  0  0  0
 48121  1  0  0  0
 49 50  1  0  0  0
 49 53  1  0  0  0
 49 64  1  0  0  0
 49122  1  0  0  0
 50 51  1  0  0  0
 50123  1  0  0  0
 50124  1  0  0  0
 51 52  1  0  0  0
 51125  1  0  0  0
 51126  1  0  0  0
 52127  1  0  0  0
 52128  1  0  0  0
 53 54  1  0  0  0
 54 55  2  0  0  0
 54129  1  0  0  0
 55 57  1  0  0  0
 55130  1  0  0  0
 56 69  2  0  0  0
 57 58  2  0  0  0
 57131  1  0  0  0
 58132  1  0  0  0
 59 60  1  0  0  0
 59 61  1  0  0  0
 59 62  1  0  0  0
 60133  1  0  0  0
 60134  1  0  0  0
 60135  1  0  0  0
 61136  1  0  0  0
 61137  1  0  0  0
 61138  1  0  0  0
 62139  1  0  0  0
 62140  1  0  0  0
 62141  1  0  0  0
 63 65  1  0  0  0
 63142  1  0  0  0
 63143  1  0  0  0
 63144  1  0  0  0
 64145  1  0  0  0
 65146  1  0  0  0
 68 82  1  0  0  0
 71 72  2  0  0  0
 71 75  1  0  0  0
 71147  1  0  0  0
 72 76  1  0  0  0
 72 80  1  0  0  0
 73 74  1  0  0  0
 73 75  2  0  0  0
 73 81  1  0  0  0
 74 76  2  0  0  0
 74 77  1  0  0  0
 75 86  1  0  0  0
 76 87  1  0  0  0
 77148  1  0  0  0
 77149  1  0  0  0
 77150  1  0  0  0
 78151  1  0  0  0
 78152  1  0  0  0
 78153  1  0  0  0
 78 83  1  0  0  0
 79 84  1  0  0  0
 79154  1  0  0  0
 79155  1  0  0  0
 79156  1  0  0  0
 80 84  1  0  0  0
 80157  1  0  0  0
 80158  1  0  0  0
 81 85  1  0  0  0
 81159  1  0  0  0
 81160  1  0  0  0
 82 83  1  0  0  0
 82161  1  0  0  0
 82162  1  0  0  0
 83 85  1  0  0  0
 83163  1  0  0  0
 85164  1  0  0  0
 85165  1  0  0  0
M  CHG  1  85   1
M  ISO  4   1 100  68 101  82 101  84 100
M  END
> <chiral flag>
0

> <version>
0

> <s_m_source_file>
/data/baiqing/PycharmProjects/Reinvent-master-3.2/result/LINK_invent/BTK/process_docking_weight1_custom_sum_contain_oxygen_bond_distance_aromatic_linkinvent_7_9_3/rearranged_h_0018.sdf

> <i_m_source_file_index>
86

> <r_mmod_Potential_Energy-OPLS-2005>
-3.81016206741333

> <r_mmod_Stretch_Energy-OPLS-2005>
51.9322471618652

> <r_mmod_Bend_Energy-OPLS-2005>
137.93115234375

> <r_mmod_Torsional_Energy-OPLS-2005>
270.092407226562

> <r_mmod_Improper_Torsional_Energy-OPLS-2005>
6.39386367797852

> <r_mmod_Van_der_Waal_Energy-OPLS-2005>
163.278030395508

> <r_mmod_Electrostatic_Energy-OPLS-2005>
-217.487243652344

> <r_mmod_Solvation_Energy-OPLS-2005>
-437.8134765625

> <b_mmod_Minimization_Converged-OPLS-2005>
0

> <r_mmod_RMS_Derivative-OPLS-2005>
3.01606512069702

$$$$
88
                    3D
 Structure written by MMmdl.
157165  0  0  1  0            999 V2000
  -30.4889  -15.0628   20.4360 C   0  0  0  0  0  0
  -30.4495  -12.6907   19.4578 C   0  0  0  0  0  0
  -29.5053  -12.5538   18.2369 C   0  0  0  0  0  0
  -28.0461  -12.3030   18.6740 C   0  0  0  0  0  0
  -27.6225  -13.2202   19.8470 C   0  0  2  0  0  0
  -28.6937  -13.2207   20.9634 C   0  0  0  0  0  0
  -25.2354  -13.8080   20.5692 C   0  0  0  0  0  0
  -24.1692  -13.0335   20.9245 C   0  0  0  0  0  0
  -24.6322  -11.6848   20.8800 C   0  0  0  0  0  0
  -23.9019  -10.4243   21.0434 C   0  0  0  0  0  0
  -24.3587   -9.4167   21.9197 C   0  0  0  0  0  0
  -23.6264   -8.2208   22.0758 C   0  0  0  0  0  0
  -22.4248   -8.0248   21.3547 C   0  0  0  0  0  0
  -21.9884   -9.0218   20.4647 C   0  0  0  0  0  0
  -22.7215  -10.2093   20.3056 C   0  0  0  0  0  0
  -21.6830   -6.0714   22.5281 C   0  0  0  0  0  0
  -21.4006   -6.5630   23.8215 C   0  0  0  0  0  0
  -21.3661   -5.6783   24.9176 C   0  0  0  0  0  0
  -21.6039   -4.3040   24.7230 C   0  0  0  0  0  0
  -21.8814   -3.8136   23.4344 C   0  0  0  0  0  0
  -21.9188   -4.6950   22.3399 C   0  0  0  0  0  0
  -22.7727  -13.5146   21.1876 C   0  0  0  0  0  0
  -22.1657   -4.2142   21.0977 F   0  0  0  0  0  0
  -21.5633   -3.4524   25.7732 F   0  0  0  0  0  0
  -29.9144  -13.7749   20.3482 N   0  0  0  0  0  0
  -26.2840  -12.9301   20.3358 N   0  0  0  0  0  0
  -25.9264  -11.6455   20.5858 N   0  0  0  0  0  0
  -22.0366  -12.8173   22.0457 N   0  0  0  0  0  0
  -25.3759  -15.1797   20.3955 N   0  0  0  0  0  0
  -31.7087  -15.0869   20.2128 O   0  0  0  0  0  0
  -21.6621   -6.8849   21.4232 O   0  0  0  0  0  0
  -22.3418  -14.5456   20.6710 O   0  0  0  0  0  0
  -24.6430  -31.8423   23.1869 C   0  0  0  0  0  0
  -25.9182  -32.4715   23.8260 C   0  0  1  0  0  0
  -27.2117  -27.1045   20.1605 C   0  0  0  0  0  0
  -25.5935  -33.8525   24.2179 N   0  0  0  0  0  0
  -23.4526  -30.4628   21.5313 C   0  0  2  0  0  0
  -24.9011  -28.8885   20.1064 C   0  0  0  0  0  0
  -22.7594  -29.4532   22.4803 C   0  0  0  0  0  0
  -18.0322  -28.1465   22.8504 C   0  0  0  0  0  0
  -24.1477  -36.7230   23.2652 C   0  0  0  0  0  0
  -26.0084  -30.7052   21.3925 C   0  0  0  0  0  0
  -26.0780  -29.3134   20.7352 C   0  0  0  0  0  0
  -27.2310  -28.4378   20.7488 C   0  0  0  0  0  0
  -26.0088  -26.7912   19.4878 C   0  0  0  0  0  0
  -24.8819  -27.6407   19.4667 C   0  0  0  0  0  0
  -23.6820  -29.7976   20.1484 C   0  0  0  0  0  0
  -25.4118  -36.3034   24.0333 C   0  0  1  0  0  0
  -20.5931  -28.3766   23.1234 C   0  0  2  0  0  0
  -20.6835  -26.9470   22.5417 C   0  0  0  0  0  0
  -19.5793  -26.6401   21.5266 C   0  0  0  0  0  0
  -18.1957  -26.8001   22.1643 C   0  0  0  0  0  0
  -19.1584  -28.8929   23.2866 C   0  0  0  0  0  0
  -18.9515  -30.1515   23.8891 C   0  0  0  0  0  0
  -17.6528  -30.6661   24.0581 C   0  0  0  0  0  0
  -25.9066  -34.9427   23.5056 C   0  0  0  0  0  0
  -16.5400  -29.9181   23.6360 C   0  0  0  0  0  0
  -16.7304  -28.6591   23.0381 C   0  0  0  0  0  0
  -26.4522  -31.6602   25.0707 C   0  0  0  0  0  0
  -25.3676  -31.3830   26.1383 C   0  0  0  0  0  0
  -27.0429  -30.3019   24.6269 C   0  0  0  0  0  0
  -27.6036  -32.4394   25.7493 C   0  0  0  0  0  0
  -27.5566  -37.1764   24.8466 C   0  0  0  0  0  0
  -21.4275  -29.3063   22.3580 N   0  0  0  0  0  0
  -26.4267  -37.3757   23.9437 N   0  0  0  0  0  0
  -24.7211  -31.0257   22.0921 N   0  0  0  0  0  0
  -23.4218  -28.8058   23.2947 O   0  0  0  0  0  0
  -28.2446  -26.0889   20.2439 O   0  0  0  0  0  0
  -26.5643  -34.8934   22.4634 O   0  0  0  0  0  0
  -23.5530  -32.1304   23.7051 O   0  0  0  0  0  0
  -28.9482  -23.2928   20.4100 C   0  0  0  0  0  0
  -29.3974  -19.9337   21.9536 C   0  0  0  0  0  0
  -30.1416  -18.5347   21.9933 C   0  0  0  0  0  0
  -29.4883  -19.1279   19.7574 C   0  0  0  0  0  0
  -29.5564  -20.5798   20.5563 C   0  0  1  0  0  0
  -30.1926  -17.8620   20.5810 C   0  0  2  0  0  0
  -27.3132  -21.5396   19.8292 C   0  0  0  0  0  0
  -28.2850  -16.3650   20.6884 C   0  0  0  0  0  0
  -27.9121  -24.5629   20.0479 C   0  0  0  0  0  0
  -28.6606  -21.8858   20.2785 N   0  0  0  0  0  0
  -29.7419  -16.3210   20.5516 N   0  0  0  0  0  0
  -30.0653  -23.6179   20.8230 O   0  0  0  0  0  0
  -31.4568  -12.9142   19.1034 H   0  0  0  0  0  0
  -30.5359  -11.7422   19.9914 H   0  0  0  0  0  0
  -29.8436  -11.7508   17.5803 H   0  0  0  0  0  0
  -29.5506  -13.4693   17.6443 H   0  0  0  0  0  0
  -27.9619  -11.2591   18.9782 H   0  0  0  0  0  0
  -27.3672  -12.4304   17.8306 H   0  0  0  0  0  0
  -27.5713  -14.2036   19.3945 H   0  0  0  0  0  0
  -28.8551  -12.2002   21.3145 H   0  0  0  0  0  0
  -28.4035  -13.7526   21.8657 H   0  0  0  0  0  0
  -25.2714   -9.5648   22.4794 H   0  0  0  0  0  0
  -23.9970   -7.4588   22.7474 H   0  0  0  0  0  0
  -21.0820   -8.8729   19.8944 H   0  0  0  0  0  0
  -22.3669  -10.9636   19.6175 H   0  0  0  0  0  0
  -21.1997   -7.6135   23.9713 H   0  0  0  0  0  0
  -21.1489   -6.0515   25.9083 H   0  0  0  0  0  0
  -22.0589   -2.7595   23.2837 H   0  0  0  0  0  0
  -22.3991  -11.9857   22.4893 H   0  0  0  0  0  0
  -21.0988  -13.1201   22.2653 H   0  0  0  0  0  0
  -24.5825  -15.8071   20.4827 H   0  0  0  0  0  0
  -26.2171  -15.6396   20.0779 H   0  0  0  0  0  0
  -26.7218  -32.5320   23.0962 H   0  0  0  0  0  0
  -25.0096  -33.9658   25.0329 H   0  0  0  0  0  0
  -22.7550  -31.2883   21.3761 H   0  0  0  0  0  0
  -23.3782  -35.9512   23.3289 H   0  0  0  0  0  0
  -24.3534  -36.8871   22.2052 H   0  0  0  0  0  0
  -23.7190  -37.6408   23.6703 H   0  0  0  0  0  0
  -26.1673  -31.4519   20.6140 H   0  0  0  0  0  0
  -26.8760  -30.7561   22.0376 H   0  0  0  0  0  0
  -28.1219  -28.7544   21.2711 H   0  0  0  0  0  0
  -25.8961  -25.8404   18.9902 H   0  0  0  0  0  0
  -23.9842  -27.3119   18.9631 H   0  0  0  0  0  0
  -23.8380  -30.5781   19.4016 H   0  0  0  0  0  0
  -22.7956  -29.2510   19.8222 H   0  0  0  0  0  0
  -25.1311  -36.1846   25.0825 H   0  0  0  0  0  0
  -21.0022  -28.3393   24.1360 H   0  0  0  0  0  0
  -20.5832  -26.2364   23.3638 H   0  0  0  0  0  0
  -21.6689  -26.7568   22.1153 H   0  0  0  0  0  0
  -19.6979  -25.6309   21.1329 H   0  0  0  0  0  0
  -19.6786  -27.3191   20.6788 H   0  0  0  0  0  0
  -17.4262  -26.6762   21.4020 H   0  0  0  0  0  0
  -18.0331  -26.0178   22.9044 H   0  0  0  0  0  0
  -19.7991  -30.7336   24.2247 H   0  0  0  0  0  0
  -17.5106  -31.6346   24.5190 H   0  0  0  0  0  0
  -15.5409  -30.3111   23.7725 H   0  0  0  0  0  0
  -15.8676  -28.0931   22.7108 H   0  0  0  0  0  0
  -24.5841  -30.7218   25.7680 H   0  0  0  0  0  0
  -24.8896  -32.3046   26.4715 H   0  0  0  0  0  0
  -25.7893  -30.9040   27.0214 H   0  0  0  0  0  0
  -26.3068  -29.6727   24.1259 H   0  0  0  0  0  0
  -27.4080  -29.7346   25.4835 H   0  0  0  0  0  0
  -27.8953  -30.4351   23.9603 H   0  0  0  0  0  0
  -27.2640  -33.3753   26.1947 H   0  0  0  0  0  0
  -28.3908  -32.6838   25.0349 H   0  0  0  0  0  0
  -28.0624  -31.8581   26.5491 H   0  0  0  0  0  0
  -28.2550  -38.0095   24.7552 H   0  0  0  0  0  0
  -28.1079  -36.2614   24.6239 H   0  0  0  0  0  0
  -27.2261  -37.1331   25.8861 H   0  0  0  0  0  0
  -20.9465  -29.8745   21.6753 H   0  0  0  0  0  0
  -26.0121  -38.2794   24.1536 H   0  0  0  0  0  0
  -29.7341  -20.5964   22.7531 H   0  0  0  0  0  0
  -28.3345  -19.7568   22.1308 H   0  0  0  0  0  0
  -29.6726  -17.8850   22.7323 H   0  0  0  0  0  0
  -31.1596  -18.6948   22.3491 H   0  0  0  0  0  0
  -29.9516  -19.2372   18.7746 H   0  0  0  0  0  0
  -28.4477  -18.8851   19.5477 H   0  0  0  0  0  0
  -30.5895  -20.9259   20.4930 H   0  0  0  0  0  0
  -31.2394  -17.8526   20.2697 H   0  0  0  0  0  0
  -26.5512  -22.1252   20.3468 H   0  0  0  0  0  0
  -27.0702  -20.4983   20.0347 H   0  0  0  0  0  0
  -27.2166  -21.7077   18.7550 H   0  0  0  0  0  0
  -27.9214  -17.3067   21.0982 H   0  0  0  0  0  0
  -27.8881  -15.6430   21.3884 H   0  0  0  0  0  0
  -27.8168  -16.2670   19.7103 H   0  0  0  0  0  0
  -26.9931  -24.3762   20.6049 H   0  0  0  0  0  0
  -27.6573  -24.4278   18.9972 H   0  0  0  0  0  0
  1 25  1  0  0  0
  1 30  2  0  0  0
  1 81  1  0  0  0
  2  3  1  0  0  0
  2 25  1  0  0  0
  2 83  1  0  0  0
  2 84  1  0  0  0
  3  4  1  0  0  0
  3 85  1  0  0  0
  3 86  1  0  0  0
  4  5  1  0  0  0
  4 87  1  0  0  0
  4 88  1  0  0  0
  5  6  1  0  0  0
  5 26  1  0  0  0
  5 89  1  0  0  0
  6 25  1  0  0  0
  6 90  1  0  0  0
  6 91  1  0  0  0
  7  8  2  0  0  0
  7 26  1  0  0  0
  7 29  1  0  0  0
  8  9  1  0  0  0
  8 22  1  0  0  0
  9 10  1  0  0  0
  9 27  2  0  0  0
 10 11  2  0  0  0
 10 15  1  0  0  0
 11 12  1  0  0  0
 11 92  1  0  0  0
 12 13  2  0  0  0
 12 93  1  0  0  0
 13 14  1  0  0  0
 13 31  1  0  0  0
 14 15  2  0  0  0
 14 94  1  0  0  0
 15 95  1  0  0  0
 16 17  2  0  0  0
 16 21  1  0  0  0
 16 31  1  0  0  0
 17 18  1  0  0  0
 17 96  1  0  0  0
 18 19  2  0  0  0
 18 97  1  0  0  0
 19 20  1  0  0  0
 19 24  1  0  0  0
 20 21  2  0  0  0
 20 98  1  0  0  0
 21 23  1  0  0  0
 22 28  1  0  0  0
 22 32  2  0  0  0
 26 27  1  0  0  0
 28 99  1  0  0  0
 28100  1  0  0  0
 29101  1  0  0  0
 29102  1  0  0  0
 33 34  1  0  0  0
 33 66  1  0  0  0
 33 70  2  0  0  0
 34 36  1  0  0  0
 34 59  1  0  0  0
 34103  1  0  0  0
 35 44  2  0  0  0
 35 45  1  0  0  0
 35 68  1  0  0  0
 36 56  1  0  0  0
 36104  1  0  0  0
 37 39  1  0  0  0
 37 47  1  0  0  0
 37 66  1  0  0  0
 37105  1  0  0  0
 38 43  2  0  0  0
 38 46  1  0  0  0
 38 47  1  0  0  0
 39 64  1  0  0  0
 39 67  2  0  0  0
 40 52  1  0  0  0
 40 53  2  0  0  0
 40 58  1  0  0  0
 41106  1  0  0  0
 41107  1  0  0  0
 41108  1  0  0  0
 41 48  1  0  0  0
 42 43  1  0  0  0
 42 66  1  0  0  0
 42109  1  0  0  0
 42110  1  0  0  0
 43 44  1  0  0  0
 44111  1  0  0  0
 45 46  2  0  0  0
 45112  1  0  0  0
 46113  1  0  0  0
 47114  1  0  0  0
 47115  1  0  0  0
 48 56  1  0  0  0
 48 65  1  0  0  0
 48116  1  0  0  0
 49 50  1  0  0  0
 49 53  1  0  0  0
 49 64  1  0  0  0
 49117  1  0  0  0
 50 51  1  0  0  0
 50118  1  0  0  0
 50119  1  0  0  0
 51 52  1  0  0  0
 51120  1  0  0  0
 51121  1  0  0  0
 52122  1  0  0  0
 52123  1  0  0  0
 53 54  1  0  0  0
 54 55  2  0  0  0
 54124  1  0  0  0
 55 57  1  0  0  0
 55125  1  0  0  0
 56 69  2  0  0  0
 57 58  2  0  0  0
 57126  1  0  0  0
 58127  1  0  0  0
 59 60  1  0  0  0
 59 61  1  0  0  0
 59 62  1  0  0  0
 60128  1  0  0  0
 60129  1  0  0  0
 60130  1  0  0  0
 61131  1  0  0  0
 61132  1  0  0  0
 61133  1  0  0  0
 62134  1  0  0  0
 62135  1  0  0  0
 62136  1  0  0  0
 63 65  1  0  0  0
 63137  1  0  0  0
 63138  1  0  0  0
 63139  1  0  0  0
 64140  1  0  0  0
 65141  1  0  0  0
 68 79  1  0  0  0
 71 79  1  0  0  0
 71 80  1  0  0  0
 71 82  2  0  0  0
 72 73  1  0  0  0
 72 75  1  0  0  0
 72142  1  0  0  0
 72143  1  0  0  0
 73 76  1  0  0  0
 73144  1  0  0  0
 73145  1  0  0  0
 74 75  1  0  0  0
 74 76  1  0  0  0
 74146  1  0  0  0
 74147  1  0  0  0
 75 80  1  0  0  0
 75148  1  0  0  0
 76 81  1  0  0  0
 76149  1  0  0  0
 77 80  1  0  0  0
 77150  1  0  0  0
 77151  1  0  0  0
 77152  1  0  0  0
 78 81  1  0  0  0
 78153  1  0  0  0
 78154  1  0  0  0
 78155  1  0  0  0
 79156  1  0  0  0
 79157  1  0  0  0
M  ISO  4   1 100  68 101  79 101  81 100
M  END
> <chiral flag>
0

> <version>
0

> <s_m_source_file>
/data/baiqing/PycharmProjects/Reinvent-master-3.2/result/LINK_invent/BTK/process_docking_weight1_custom_sum_contain_oxygen_bond_distance_aromatic_linkinvent_7_9_3/rearranged_h_0018.sdf

> <i_m_source_file_index>
87

> <r_mmod_Potential_Energy-OPLS-2005>
909.257141113281

> <r_mmod_Stretch_Energy-OPLS-2005>
317.002716064453

> <r_mmod_Bend_Energy-OPLS-2005>
332.618041992188

> <r_mmod_Torsional_Energy-OPLS-2005>
344.77978515625

> <r_mmod_Improper_Torsional_Energy-OPLS-2005>
4.42999458312988

> <r_mmod_Van_der_Waal_Energy-OPLS-2005>
131.989669799805

> <r_mmod_Electrostatic_Energy-OPLS-2005>
-236.489105224609

> <r_mmod_Solvation_Energy-OPLS-2005>
-233.123046875

> <b_mmod_Minimization_Converged-OPLS-2005>
0

> <r_mmod_RMS_Derivative-OPLS-2005>
3.95279145240784

$$$$
89
                    3D
 Structure written by MMmdl.
163171  0  0  1  0            999 V2000
  -30.7313  -14.3802   20.4743 C   0  0  0  0  0  0
  -30.4079  -12.2104   19.3898 C   0  0  0  0  0  0
  -29.4834  -12.4677   18.1860 C   0  0  0  0  0  0
  -28.0146  -12.2918   18.6212 C   0  0  0  0  0  0
  -27.6539  -13.1673   19.8568 C   0  0  2  0  0  0
  -28.7158  -12.9695   20.9676 C   0  0  0  0  0  0
  -25.2522  -13.8095   20.5610 C   0  0  0  0  0  0
  -24.1797  -13.0444   20.9138 C   0  0  0  0  0  0
  -24.6304  -11.6849   20.8818 C   0  0  0  0  0  0
  -23.9023  -10.4286   21.0473 C   0  0  0  0  0  0
  -24.3585   -9.4155   21.9211 C   0  0  0  0  0  0
  -23.6277   -8.2180   22.0754 C   0  0  0  0  0  0
  -22.4260   -8.0236   21.3528 C   0  0  0  0  0  0
  -21.9879   -9.0218   20.4609 C   0  0  0  0  0  0
  -22.7220  -10.2101   20.3049 C   0  0  0  0  0  0
  -21.6826   -6.0713   22.5297 C   0  0  0  0  0  0
  -21.4038   -6.5619   23.8233 C   0  0  0  0  0  0
  -21.3634   -5.6771   24.9193 C   0  0  0  0  0  0
  -21.6027   -4.3037   24.7265 C   0  0  0  0  0  0
  -21.8822   -3.8130   23.4391 C   0  0  0  0  0  0
  -21.9159   -4.6945   22.3425 C   0  0  0  0  0  0
  -22.7827  -13.5223   21.1868 C   0  0  0  0  0  0
  -22.1605   -4.2115   21.1013 F   0  0  0  0  0  0
  -21.5576   -3.4507   25.7782 F   0  0  0  0  0  0
  -30.0361  -13.2281   20.3722 N   0  0  0  0  0  0
  -26.2954  -12.9194   20.3294 N   0  0  0  0  0  0
  -25.9196  -11.6405   20.5785 N   0  0  0  0  0  0
  -22.0481  -12.8227   22.0419 N   0  0  0  0  0  0
  -25.4211  -15.1835   20.3811 N   0  0  0  0  0  0
  -31.8953  -14.5231   20.1081 O   0  0  0  0  0  0
  -21.6595   -6.8839   21.4257 O   0  0  0  0  0  0
  -22.3566  -14.5517   20.6641 O   0  0  0  0  0  0
  -24.6214  -31.8875   23.2267 C   0  0  0  0  0  0
  -25.9157  -32.4863   23.8575 C   0  0  1  0  0  0
  -27.1591  -27.3800   20.0892 C   0  0  0  0  0  0
  -25.6107  -33.8665   24.2433 N   0  0  0  0  0  0
  -23.3962  -30.5371   21.5728 C   0  0  2  0  0  0
  -24.8188  -29.0025   20.1189 C   0  0  0  0  0  0
  -22.7432  -29.4790   22.4919 C   0  0  0  0  0  0
  -18.0388  -28.1013   22.8356 C   0  0  0  0  0  0
  -24.1482  -36.7269   23.2645 C   0  0  0  0  0  0
  -25.9494  -30.8051   21.4093 C   0  0  0  0  0  0
  -26.0038  -29.4650   20.7064 C   0  0  0  0  0  0
  -27.1829  -28.6714   20.6832 C   0  0  0  0  0  0
  -25.9606  -26.9652   19.4646 C   0  0  0  0  0  0
  -24.7974  -27.7508   19.4977 C   0  0  0  0  0  0
  -23.6068  -29.9130   20.1743 C   0  0  0  0  0  0
  -25.4127  -36.3139   24.0354 C   0  0  1  0  0  0
  -20.5953  -28.3792   23.1344 C   0  0  2  0  0  0
  -20.7319  -26.9482   22.5596 C   0  0  0  0  0  0
  -19.6210  -26.5322   21.5990 C   0  0  0  0  0  0
  -18.2136  -26.7478   22.1626 C   0  0  0  0  0  0
  -19.1478  -28.8576   23.2851 C   0  0  0  0  0  0
  -18.9162  -30.1042   23.9073 C   0  0  0  0  0  0
  -17.6087  -30.6062   24.0578 C   0  0  0  0  0  0
  -25.9123  -34.9489   23.5159 C   0  0  0  0  0  0
  -16.5123  -29.8430   23.6140 C   0  0  0  0  0  0
  -16.7315  -28.5906   23.0083 C   0  0  0  0  0  0
  -26.4540  -31.6717   25.0941 C   0  0  0  0  0  0
  -25.3765  -31.3816   26.1622 C   0  0  0  0  0  0
  -27.0400  -30.3124   24.6535 C   0  0  0  0  0  0
  -27.6181  -32.4437   25.7615 C   0  0  0  0  0  0
  -27.5595  -37.1842   24.8502 C   0  0  0  0  0  0
  -21.4153  -29.3542   22.4120 N   0  0  0  0  0  0
  -26.4301  -37.3831   23.9449 N   0  0  0  0  0  0
  -24.6739  -31.0956   22.1176 N   0  0  0  0  0  0
  -23.4277  -28.7842   23.2486 O   0  0  0  0  0  0
  -28.2463  -26.5155   20.1629 O   0  0  0  0  0  0
  -26.5549  -34.8953   22.4618 O   0  0  0  0  0  0
  -23.5408  -32.1662   23.7640 O   0  0  0  0  0  0
  -30.3423  -20.0694   21.1759 C   0  0  0  0  0  0
  -30.8678  -18.7934   21.4654 C   0  0  0  0  0  0
  -29.9748  -17.7337   21.7887 C   0  0  0  0  0  0
  -28.5798  -17.9909   21.9091 C   0  0  0  0  0  0
  -28.9560  -20.3393   21.2197 C   0  0  0  0  0  0
  -28.0731  -19.2898   21.6115 C   0  0  0  0  0  0
  -28.3567  -22.7591   21.3951 C   0  0  0  0  0  0
  -32.3711  -18.5611   21.3520 C   0  0  0  0  0  0
  -27.6503  -16.8505   22.3612 C   0  0  0  0  0  0
  -28.5733  -21.7267   19.2343 C   0  0  0  0  0  0
  -30.4889  -16.3057   21.9398 C   0  0  0  0  0  0
  -28.9106  -24.1144   20.8148 C   0  0  0  0  0  0
  -27.8975  -25.0928   20.1519 C   0  0  0  0  0  0
  -30.0109  -15.4342   20.8682 N   0  0  0  0  0  0
  -28.5169  -21.6065   20.6827 N   0  0  0  0  0  0
  -27.7858  -22.7726   22.4896 O   0  0  0  0  0  0
  -26.3709  -19.5764   21.6553 Cl  0  0  0  0  0  0
  -31.4622  -12.2510   19.1136 H   0  0  0  0  0  0
  -30.2548  -11.2091   19.7893 H   0  0  0  0  0  0
  -29.7325  -11.7874   17.3630 H   0  0  0  0  0  0
  -29.6378  -13.4849   17.8182 H   0  0  0  0  0  0
  -27.8544  -11.2416   18.8561 H   0  0  0  0  0  0
  -27.3499  -12.5135   17.7850 H   0  0  0  0  0  0
  -27.7079  -14.1999   19.5312 H   0  0  0  0  0  0
  -28.6832  -11.9523   21.3589 H   0  0  0  0  0  0
  -28.5078  -13.6105   21.8305 H   0  0  0  0  0  0
  -25.2766   -9.5548   22.4744 H   0  0  0  0  0  0
  -23.9936   -7.4552   22.7443 H   0  0  0  0  0  0
  -21.0793   -8.8768   19.8938 H   0  0  0  0  0  0
  -22.3739  -10.9624   19.6088 H   0  0  0  0  0  0
  -21.2120   -7.6136   23.9762 H   0  0  0  0  0  0
  -21.1427   -6.0491   25.9078 H   0  0  0  0  0  0
  -22.0663   -2.7616   23.2928 H   0  0  0  0  0  0
  -22.4112  -11.9879   22.4828 H   0  0  0  0  0  0
  -21.1144  -13.1230   22.2763 H   0  0  0  0  0  0
  -24.6446  -15.8342   20.4238 H   0  0  0  0  0  0
  -26.2912  -15.6392   20.1551 H   0  0  0  0  0  0
  -26.7132  -32.5349   23.1256 H   0  0  0  0  0  0
  -25.0453  -33.9855   25.0687 H   0  0  0  0  0  0
  -22.7015  -31.3712   21.4676 H   0  0  0  0  0  0
  -23.3776  -35.9577   23.3337 H   0  0  0  0  0  0
  -24.3661  -36.8789   22.2077 H   0  0  0  0  0  0
  -23.7122  -37.6447   23.6591 H   0  0  0  0  0  0
  -26.1662  -31.6093   20.7074 H   0  0  0  0  0  0
  -26.7952  -30.7780   22.0834 H   0  0  0  0  0  0
  -28.0849  -29.0389   21.1538 H   0  0  0  0  0  0
  -25.8791  -26.0310   18.9372 H   0  0  0  0  0  0
  -23.8844  -27.3824   19.0480 H   0  0  0  0  0  0
  -23.7916  -30.7296   19.4757 H   0  0  0  0  0  0
  -22.7085  -29.4358   19.7737 H   0  0  0  0  0  0
  -25.1269  -36.2083   25.0842 H   0  0  0  0  0  0
  -20.9955  -28.3514   24.1502 H   0  0  0  0  0  0
  -20.7130  -26.2385   23.3857 H   0  0  0  0  0  0
  -21.7072  -26.7971   22.0985 H   0  0  0  0  0  0
  -19.7619  -25.4756   21.3690 H   0  0  0  0  0  0
  -19.7506  -27.0641   20.6625 H   0  0  0  0  0  0
  -17.4753  -26.6180   21.3691 H   0  0  0  0  0  0
  -17.9723  -25.9575   22.8837 H   0  0  0  0  0  0
  -19.7492  -30.6748   24.2791 H   0  0  0  0  0  0
  -17.4523  -31.5617   24.5308 H   0  0  0  0  0  0
  -15.5010  -30.2096   23.7430 H   0  0  0  0  0  0
  -15.8936  -27.9962   22.6800 H   0  0  0  0  0  0
  -24.6030  -30.7119   25.7814 H   0  0  0  0  0  0
  -24.8872  -32.2976   26.5022 H   0  0  0  0  0  0
  -25.8114  -30.8977   27.0403 H   0  0  0  0  0  0
  -26.2994  -29.6848   24.1583 H   0  0  0  0  0  0
  -27.3980  -29.7467   25.5154 H   0  0  0  0  0  0
  -27.8976  -30.4272   23.9877 H   0  0  0  0  0  0
  -27.2936  -33.3747   26.2256 H   0  0  0  0  0  0
  -28.3981  -32.6973   25.0425 H   0  0  0  0  0  0
  -28.0960  -31.8573   26.5474 H   0  0  0  0  0  0
  -28.2639  -38.0109   24.7573 H   0  0  0  0  0  0
  -28.1061  -36.2667   24.6316 H   0  0  0  0  0  0
  -27.2396  -37.1492   25.8922 H   0  0  0  0  0  0
  -20.9327  -30.0677   21.8800 H   0  0  0  0  0  0
  -26.0204  -38.2914   24.1432 H   0  0  0  0  0  0
  -30.9981  -20.8537   20.8241 H   0  0  0  0  0  0
  -32.8756  -19.4717   21.0439 H   0  0  0  0  0  0
  -32.5638  -17.8099   20.5887 H   0  0  0  0  0  0
  -32.8064  -18.2120   22.2922 H   0  0  0  0  0  0
  -27.7219  -16.6952   23.4376 H   0  0  0  0  0  0
  -27.8548  -15.9067   21.8610 H   0  0  0  0  0  0
  -26.5966  -17.0384   22.1498 H   0  0  0  0  0  0
  -27.7230  -22.2971   18.8526 H   0  0  0  0  0  0
  -28.5438  -20.7440   18.7732 H   0  0  0  0  0  0
  -29.5072  -22.2017   18.9349 H   0  0  0  0  0  0
  -30.1845  -15.9088   22.9162 H   0  0  0  0  0  0
  -31.5691  -16.2734   21.9925 H   0  0  0  0  0  0
  -29.3588  -24.6450   21.6483 H   0  0  0  0  0  0
  -29.7308  -23.9347   20.1160 H   0  0  0  0  0  0
  -26.9314  -24.9313   20.6361 H   0  0  0  0  0  0
  -27.7569  -24.8081   19.1059 H   0  0  0  0  0  0
  -29.0086  -15.4274   20.6809 H   0  0  0  0  0  0
  1 25  1  0  0  0
  1 30  2  0  0  0
  1 84  1  0  0  0
  2  3  1  0  0  0
  2 25  1  0  0  0
  2 88  1  0  0  0
  2 89  1  0  0  0
  3  4  1  0  0  0
  3 90  1  0  0  0
  3 91  1  0  0  0
  4  5  1  0  0  0
  4 92  1  0  0  0
  4 93  1  0  0  0
  5  6  1  0  0  0
  5 26  1  0  0  0
  5 94  1  0  0  0
  6 25  1  0  0  0
  6 95  1  0  0  0
  6 96  1  0  0  0
  7  8  2  0  0  0
  7 26  1  0  0  0
  7 29  1  0  0  0
  8  9  1  0  0  0
  8 22  1  0  0  0
  9 10  1  0  0  0
  9 27  2  0  0  0
 10 11  2  0  0  0
 10 15  1  0  0  0
 11 12  1  0  0  0
 11 97  1  0  0  0
 12 13  2  0  0  0
 12 98  1  0  0  0
 13 14  1  0  0  0
 13 31  1  0  0  0
 14 15  2  0  0  0
 14 99  1  0  0  0
 15100  1  0  0  0
 16 17  2  0  0  0
 16 21  1  0  0  0
 16 31  1  0  0  0
 17 18  1  0  0  0
 17101  1  0  0  0
 18 19  2  0  0  0
 18102  1  0  0  0
 19 20  1  0  0  0
 19 24  1  0  0  0
 20 21  2  0  0  0
 20103  1  0  0  0
 21 23  1  0  0  0
 22 28  1  0  0  0
 22 32  2  0  0  0
 26 27  1  0  0  0
 28104  1  0  0  0
 28105  1  0  0  0
 29106  1  0  0  0
 29107  1  0  0  0
 33 34  1  0  0  0
 33 66  1  0  0  0
 33 70  2  0  0  0
 34 36  1  0  0  0
 34 59  1  0  0  0
 34108  1  0  0  0
 35 44  2  0  0  0
 35 45  1  0  0  0
 35 68  1  0  0  0
 36 56  1  0  0  0
 36109  1  0  0  0
 37 39  1  0  0  0
 37 47  1  0  0  0
 37 66  1  0  0  0
 37110  1  0  0  0
 38 43  2  0  0  0
 38 46  1  0  0  0
 38 47  1  0  0  0
 39 64  1  0  0  0
 39 67  2  0  0  0
 40 52  1  0  0  0
 40 53  2  0  0  0
 40 58  1  0  0  0
 41111  1  0  0  0
 41112  1  0  0  0
 41113  1  0  0  0
 41 48  1  0  0  0
 42 43  1  0  0  0
 42 66  1  0  0  0
 42114  1  0  0  0
 42115  1  0  0  0
 43 44  1  0  0  0
 44116  1  0  0  0
 45 46  2  0  0  0
 45117  1  0  0  0
 46118  1  0  0  0
 47119  1  0  0  0
 47120  1  0  0  0
 48 56  1  0  0  0
 48 65  1  0  0  0
 48121  1  0  0  0
 49 50  1  0  0  0
 49 53  1  0  0  0
 49 64  1  0  0  0
 49122  1  0  0  0
 50 51  1  0  0  0
 50123  1  0  0  0
 50124  1  0  0  0
 51 52  1  0  0  0
 51125  1  0  0  0
 51126  1  0  0  0
 52127  1  0  0  0
 52128  1  0  0  0
 53 54  1  0  0  0
 54 55  2  0  0  0
 54129  1  0  0  0
 55 57  1  0  0  0
 55130  1  0  0  0
 56 69  2  0  0  0
 57 58  2  0  0  0
 57131  1  0  0  0
 58132  1  0  0  0
 59 60  1  0  0  0
 59 61  1  0  0  0
 59 62  1  0  0  0
 60133  1  0  0  0
 60134  1  0  0  0
 60135  1  0  0  0
 61136  1  0  0  0
 61137  1  0  0  0
 61138  1  0  0  0
 62139  1  0  0  0
 62140  1  0  0  0
 62141  1  0  0  0
 63 65  1  0  0  0
 63142  1  0  0  0
 63143  1  0  0  0
 63144  1  0  0  0
 64145  1  0  0  0
 65146  1  0  0  0
 68 83  1  0  0  0
 71 72  2  0  0  0
 71 75  1  0  0  0
 71147  1  0  0  0
 72 73  1  0  0  0
 72 78  1  0  0  0
 73 74  2  0  0  0
 73 81  1  0  0  0
 74 76  1  0  0  0
 74 79  1  0  0  0
 75 76  2  0  0  0
 75 85  1  0  0  0
 76 87  1  0  0  0
 77 82  1  0  0  0
 77 85  1  0  0  0
 77 86  2  0  0  0
 78148  1  0  0  0
 78149  1  0  0  0
 78150  1  0  0  0
 79151  1  0  0  0
 79152  1  0  0  0
 79153  1  0  0  0
 80 85  1  0  0  0
 80154  1  0  0  0
 80155  1  0  0  0
 80156  1  0  0  0
 81 84  1  0  0  0
 81157  1  0  0  0
 81158  1  0  0  0
 82 83  1  0  0  0
 82159  1  0  0  0
 82160  1  0  0  0
 83161  1  0  0  0
 83162  1  0  0  0
 84163  1  0  0  0
M  ISO  4   1 100  68 101  83 101  84 100
M  END
> <chiral flag>
0

> <version>
0

> <s_m_source_file>
/data/baiqing/PycharmProjects/Reinvent-master-3.2/result/LINK_invent/BTK/process_docking_weight1_custom_sum_contain_oxygen_bond_distance_aromatic_linkinvent_7_9_3/rearranged_h_0018.sdf

> <i_m_source_file_index>
88

> <r_mmod_Potential_Energy-OPLS-2005>
85.8311996459961

> <r_mmod_Stretch_Energy-OPLS-2005>
51.1362991333008

> <r_mmod_Bend_Energy-OPLS-2005>
114.591430664062

> <r_mmod_Torsional_Energy-OPLS-2005>
345.953338623047

> <r_mmod_Improper_Torsional_Energy-OPLS-2005>
6.226149559021

> <r_mmod_Van_der_Waal_Energy-OPLS-2005>
173.354797363281

> <r_mmod_Electrostatic_Energy-OPLS-2005>
-423.744598388672

> <r_mmod_Solvation_Energy-OPLS-2005>
-223.724670410156

> <b_mmod_Minimization_Converged-OPLS-2005>
0

> <r_mmod_RMS_Derivative-OPLS-2005>
21.0096092224121

$$$$
90
                    3D
 Structure written by MMmdl.
168176  0  0  1  0            999 V2000
  -30.5509  -14.8484   20.4559 C   0  0  0  0  0  0
  -30.4582  -12.5327   19.4570 C   0  0  0  0  0  0
  -29.5249  -12.5537   18.2247 C   0  0  0  0  0  0
  -28.0486  -12.3544   18.6287 C   0  0  0  0  0  0
  -27.6486  -13.2295   19.8475 C   0  0  2  0  0  0
  -28.7047  -13.1304   20.9678 C   0  0  0  0  0  0
  -25.2503  -13.8130   20.5560 C   0  0  0  0  0  0
  -24.1814  -13.0409   20.9153 C   0  0  0  0  0  0
  -24.6412  -11.6892   20.8760 C   0  0  0  0  0  0
  -23.9069  -10.4262   21.0422 C   0  0  0  0  0  0
  -24.3604   -9.4179   21.9214 C   0  0  0  0  0  0
  -23.6267   -8.2216   22.0791 C   0  0  0  0  0  0
  -22.4266   -8.0247   21.3556 C   0  0  0  0  0  0
  -21.9910   -9.0225   20.4659 C   0  0  0  0  0  0
  -22.7250  -10.2096   20.3072 C   0  0  0  0  0  0
  -21.6842   -6.0718   22.5281 C   0  0  0  0  0  0
  -21.4020   -6.5626   23.8224 C   0  0  0  0  0  0
  -21.3693   -5.6785   24.9198 C   0  0  0  0  0  0
  -21.6038   -4.3047   24.7255 C   0  0  0  0  0  0
  -21.8791   -3.8129   23.4376 C   0  0  0  0  0  0
  -21.9170   -4.6942   22.3419 C   0  0  0  0  0  0
  -22.7832  -13.5203   21.1745 C   0  0  0  0  0  0
  -22.1622   -4.2120   21.1002 F   0  0  0  0  0  0
  -21.5662   -3.4531   25.7768 F   0  0  0  0  0  0
  -29.9844  -13.5797   20.3980 N   0  0  0  0  0  0
  -26.2979  -12.9354   20.3226 N   0  0  0  0  0  0
  -25.9349  -11.6509   20.5745 N   0  0  0  0  0  0
  -22.0419  -12.8282   22.0314 N   0  0  0  0  0  0
  -25.4061  -15.1842   20.3821 N   0  0  0  0  0  0
  -31.7456  -14.9605   20.1603 O   0  0  0  0  0  0
  -21.6616   -6.8857   21.4246 O   0  0  0  0  0  0
  -22.3529  -14.5461   20.6498 O   0  0  0  0  0  0
  -24.6383  -31.8507   23.1915 C   0  0  0  0  0  0
  -25.9210  -32.4700   23.8257 C   0  0  1  0  0  0
  -27.2368  -27.2085   20.1201 C   0  0  0  0  0  0
  -25.6008  -33.8504   24.2230 N   0  0  0  0  0  0
  -23.4362  -30.4744   21.5349 C   0  0  2  0  0  0
  -24.8879  -28.9116   20.1039 C   0  0  0  0  0  0
  -22.7497  -29.4633   22.4871 C   0  0  0  0  0  0
  -18.0313  -28.1399   22.8483 C   0  0  0  0  0  0
  -24.1507  -36.7252   23.2633 C   0  0  0  0  0  0
  -25.9857  -30.7474   21.3780 C   0  0  0  0  0  0
  -26.0612  -29.3620   20.7223 C   0  0  0  0  0  0
  -27.2318  -28.5227   20.7244 C   0  0  0  0  0  0
  -26.0385  -26.8526   19.4590 C   0  0  0  0  0  0
  -24.8880  -27.6667   19.4598 C   0  0  0  0  0  0
  -23.6556  -29.7997   20.1538 C   0  0  0  0  0  0
  -25.4128  -36.3030   24.0331 C   0  0  1  0  0  0
  -20.5919  -28.3738   23.1256 C   0  0  2  0  0  0
  -20.6820  -26.9462   22.5412 C   0  0  0  0  0  0
  -19.5786  -26.6388   21.5237 C   0  0  0  0  0  0
  -18.1955  -26.7946   22.1619 C   0  0  0  0  0  0
  -19.1557  -28.8888   23.2859 C   0  0  0  0  0  0
  -18.9465  -30.1483   23.8888 C   0  0  0  0  0  0
  -17.6456  -30.6601   24.0559 C   0  0  0  0  0  0
  -25.9086  -34.9406   23.5074 C   0  0  0  0  0  0
  -16.5360  -29.9089   23.6338 C   0  0  0  0  0  0
  -16.7291  -28.6511   23.0363 C   0  0  0  0  0  0
  -26.4550  -31.6507   25.0652 C   0  0  0  0  0  0
  -25.3722  -31.3710   26.1336 C   0  0  0  0  0  0
  -27.0429  -30.2910   24.6198 C   0  0  0  0  0  0
  -27.6099  -32.4226   25.7449 C   0  0  0  0  0  0
  -27.5584  -37.1775   24.8457 C   0  0  0  0  0  0
  -21.4200  -29.3074   22.3597 N   0  0  0  0  0  0
  -26.4287  -37.3742   23.9415 N   0  0  0  0  0  0
  -24.7063  -31.0429   22.0913 N   0  0  0  0  0  0
  -23.4181  -28.8187   23.3008 O   0  0  0  0  0  0
  -28.3199  -26.2700   20.1762 O   0  0  0  0  0  0
  -26.5615  -34.8907   22.4617 O   0  0  0  0  0  0
  -23.5532  -32.1378   23.7192 O   0  0  0  0  0  0
  -28.6261  -19.6882   21.3184 C   0  0  0  0  0  0
  -29.1976  -20.4923   20.2969 C   0  0  0  0  0  0
  -28.7826  -18.2597   21.4885 C   0  0  0  0  0  0
  -30.1224  -19.7426   19.4906 C   0  0  0  0  0  0
  -30.3817  -18.3094   19.6722 C   0  0  0  0  0  0
  -29.6813  -17.4786   20.6400 C   0  0  0  0  0  0
  -30.7994  -20.4927   18.3475 C   0  0  0  0  0  0
  -31.4087  -17.6286   18.7652 C   0  0  0  0  0  0
  -26.3626  -18.0014   22.1664 C   0  0  0  0  0  0
  -28.0769  -18.3272   23.9591 C   0  0  0  0  0  0
  -27.8739  -16.1629   22.8275 C   0  0  0  0  0  0
  -28.5398  -21.9556   19.9621 C   0  0  0  0  0  0
  -29.0778  -23.4969   20.2325 C   0  0  0  0  0  0
  -28.0924  -24.7839   19.8721 C   0  0  0  0  0  0
  -27.8175  -17.6797   22.5780 C   0  0  0  0  0  0
  -29.7041  -15.9494   20.6896 N   0  0  0  0  0  0
  -31.4864  -12.7112   19.1410 H   0  0  0  0  0  0
  -30.4626  -11.5521   19.9352 H   0  0  0  0  0  0
  -29.8327  -11.7901   17.5096 H   0  0  0  0  0  0
  -29.6258  -13.5129   17.7121 H   0  0  0  0  0  0
  -27.9077  -11.3005   18.8673 H   0  0  0  0  0  0
  -27.4041  -12.5633   17.7747 H   0  0  0  0  0  0
  -27.6420  -14.2595   19.4918 H   0  0  0  0  0  0
  -28.7772  -12.0977   21.3152 H   0  0  0  0  0  0
  -28.4330  -13.7072   21.8452 H   0  0  0  0  0  0
  -25.2727   -9.5666   22.4839 H   0  0  0  0  0  0
  -23.9959   -7.4619   22.7535 H   0  0  0  0  0  0
  -21.0845   -8.8718   19.8979 H   0  0  0  0  0  0
  -22.3673  -10.9637   19.6190 H   0  0  0  0  0  0
  -21.1989   -7.6123   23.9738 H   0  0  0  0  0  0
  -21.1582   -6.0519   25.9106 H   0  0  0  0  0  0
  -22.0540   -2.7581   23.2894 H   0  0  0  0  0  0
  -22.3952  -12.0025   22.4902 H   0  0  0  0  0  0
  -21.1038  -13.1421   22.2328 H   0  0  0  0  0  0
  -24.6458  -15.8398   20.5366 H   0  0  0  0  0  0
  -26.2381  -15.6314   20.0262 H   0  0  0  0  0  0
  -26.7270  -32.5361   23.0988 H   0  0  0  0  0  0
  -25.0199  -33.9623   25.0407 H   0  0  0  0  0  0
  -22.7380  -31.3005   21.3828 H   0  0  0  0  0  0
  -23.3789  -35.9559   23.3249 H   0  0  0  0  0  0
  -24.3619  -36.8917   22.2057 H   0  0  0  0  0  0
  -23.7254  -37.6438   23.6682 H   0  0  0  0  0  0
  -26.1212  -31.5049   20.6043 H   0  0  0  0  0  0
  -26.8648  -30.8076   22.0073 H   0  0  0  0  0  0
  -28.1205  -28.8640   21.2381 H   0  0  0  0  0  0
  -25.9627  -25.9115   18.9376 H   0  0  0  0  0  0
  -23.9961  -27.3225   18.9523 H   0  0  0  0  0  0
  -23.7628  -30.5724   19.3916 H   0  0  0  0  0  0
  -22.7756  -29.2241   19.8566 H   0  0  0  0  0  0
  -25.1313  -36.1840   25.0822 H   0  0  0  0  0  0
  -21.0035  -28.3370   24.1364 H   0  0  0  0  0  0
  -20.5794  -26.2356   23.3627 H   0  0  0  0  0  0
  -21.6672  -26.7521   22.1151 H   0  0  0  0  0  0
  -19.6955  -25.6290   21.1284 H   0  0  0  0  0  0
  -19.6742  -27.3181   20.6757 H   0  0  0  0  0  0
  -17.4252  -26.6738   21.3993 H   0  0  0  0  0  0
  -18.0314  -26.0082   22.8993 H   0  0  0  0  0  0
  -19.7943  -30.7301   24.2250 H   0  0  0  0  0  0
  -17.5024  -31.6292   24.5126 H   0  0  0  0  0  0
  -15.5363  -30.2978   23.7694 H   0  0  0  0  0  0
  -15.8689  -28.0825   22.7088 H   0  0  0  0  0  0
  -24.5900  -30.7078   25.7639 H   0  0  0  0  0  0
  -24.8910  -32.2904   26.4665 H   0  0  0  0  0  0
  -25.7968  -30.8912   27.0155 H   0  0  0  0  0  0
  -26.3052  -29.6588   24.1248 H   0  0  0  0  0  0
  -27.4133  -29.7246   25.4755 H   0  0  0  0  0  0
  -27.8901  -30.4182   23.9457 H   0  0  0  0  0  0
  -27.2712  -33.3527   26.2020 H   0  0  0  0  0  0
  -28.3918  -32.6753   25.0271 H   0  0  0  0  0  0
  -28.0734  -31.8310   26.5359 H   0  0  0  0  0  0
  -28.2556  -38.0108   24.7522 H   0  0  0  0  0  0
  -28.1111  -36.2637   24.6232 H   0  0  0  0  0  0
  -27.2296  -37.1353   25.8852 H   0  0  0  0  0  0
  -20.9402  -29.8734   21.6733 H   0  0  0  0  0  0
  -26.0151  -38.2805   24.1420 H   0  0  0  0  0  0
  -27.9211  -20.2045   21.9535 H   0  0  0  0  0  0
  -30.5666  -21.5554   18.3460 H   0  0  0  0  0  0
  -30.4796  -20.0903   17.3860 H   0  0  0  0  0  0
  -31.8848  -20.4131   18.4089 H   0  0  0  0  0  0
  -31.7310  -18.2131   17.9041 H   0  0  0  0  0  0
  -31.0134  -16.7040   18.3491 H   0  0  0  0  0  0
  -32.3050  -17.3968   19.3448 H   0  0  0  0  0  0
  -26.1183  -19.0576   22.2800 H   0  0  0  0  0  0
  -25.6387  -17.4517   22.7672 H   0  0  0  0  0  0
  -26.1780  -17.7452   21.1230 H   0  0  0  0  0  0
  -27.9086  -19.4025   23.9655 H   0  0  0  0  0  0
  -29.0948  -18.1503   24.3069 H   0  0  0  0  0  0
  -27.3958  -17.9244   24.7111 H   0  0  0  0  0  0
  -27.5364  -15.6245   21.9495 H   0  0  0  0  0  0
  -27.1981  -15.8579   23.6266 H   0  0  0  0  0  0
  -28.8679  -15.8243   23.1215 H   0  0  0  0  0  0
  -27.5754  -21.9300   20.4705 H   0  0  0  0  0  0
  -28.2627  -21.9064   18.9087 H   0  0  0  0  0  0
  -30.0027  -23.6325   19.6713 H   0  0  0  0  0  0
  -29.3598  -23.5767   21.2810 H   0  0  0  0  0  0
  -27.1291  -24.5299   20.3121 H   0  0  0  0  0  0
  -27.9345  -24.7383   18.7930 H   0  0  0  0  0  0
  -28.8167  -15.5930   21.0116 H   0  0  0  0  0  0
  1 25  1  0  0  0
  1 30  2  0  0  0
  1 86  1  0  0  0
  2  3  1  0  0  0
  2 25  1  0  0  0
  2 87  1  0  0  0
  2 88  1  0  0  0
  3  4  1  0  0  0
  3 89  1  0  0  0
  3 90  1  0  0  0
  4  5  1  0  0  0
  4 91  1  0  0  0
  4 92  1  0  0  0
  5  6  1  0  0  0
  5 26  1  0  0  0
  5 93  1  0  0  0
  6 25  1  0  0  0
  6 94  1  0  0  0
  6 95  1  0  0  0
  7  8  2  0  0  0
  7 26  1  0  0  0
  7 29  1  0  0  0
  8  9  1  0  0  0
  8 22  1  0  0  0
  9 10  1  0  0  0
  9 27  2  0  0  0
 10 11  2  0  0  0
 10 15  1  0  0  0
 11 12  1  0  0  0
 11 96  1  0  0  0
 12 13  2  0  0  0
 12 97  1  0  0  0
 13 14  1  0  0  0
 13 31  1  0  0  0
 14 15  2  0  0  0
 14 98  1  0  0  0
 15 99  1  0  0  0
 16 17  2  0  0  0
 16 21  1  0  0  0
 16 31  1  0  0  0
 17 18  1  0  0  0
 17100  1  0  0  0
 18 19  2  0  0  0
 18101  1  0  0  0
 19 20  1  0  0  0
 19 24  1  0  0  0
 20 21  2  0  0  0
 20102  1  0  0  0
 21 23  1  0  0  0
 22 28  1  0  0  0
 22 32  2  0  0  0
 26 27  1  0  0  0
 28103  1  0  0  0
 28104  1  0  0  0
 29105  1  0  0  0
 29106  1  0  0  0
 33 34  1  0  0  0
 33 66  1  0  0  0
 33 70  2  0  0  0
 34 36  1  0  0  0
 34 59  1  0  0  0
 34107  1  0  0  0
 35 44  2  0  0  0
 35 45  1  0  0  0
 35 68  1  0  0  0
 36 56  1  0  0  0
 36108  1  0  0  0
 37 39  1  0  0  0
 37 47  1  0  0  0
 37 66  1  0  0  0
 37109  1  0  0  0
 38 43  2  0  0  0
 38 46  1  0  0  0
 38 47  1  0  0  0
 39 64  1  0  0  0
 39 67  2  0  0  0
 40 52  1  0  0  0
 40 53  2  0  0  0
 40 58  1  0  0  0
 41110  1  0  0  0
 41111  1  0  0  0
 41112  1  0  0  0
 41 48  1  0  0  0
 42 43  1  0  0  0
 42 66  1  0  0  0
 42113  1  0  0  0
 42114  1  0  0  0
 43 44  1  0  0  0
 44115  1  0  0  0
 45 46  2  0  0  0
 45116  1  0  0  0
 46117  1  0  0  0
 47118  1  0  0  0
 47119  1  0  0  0
 48 56  1  0  0  0
 48 65  1  0  0  0
 48120  1  0  0  0
 49 50  1  0  0  0
 49 53  1  0  0  0
 49 64  1  0  0  0
 49121  1  0  0  0
 50 51  1  0  0  0
 50122  1  0  0  0
 50123  1  0  0  0
 51 52  1  0  0  0
 51124  1  0  0  0
 51125  1  0  0  0
 52126  1  0  0  0
 52127  1  0  0  0
 53 54  1  0  0  0
 54 55  2  0  0  0
 54128  1  0  0  0
 55 57  1  0  0  0
 55129  1  0  0  0
 56 69  2  0  0  0
 57 58  2  0  0  0
 57130  1  0  0  0
 58131  1  0  0  0
 59 60  1  0  0  0
 59 61  1  0  0  0
 59 62  1  0  0  0
 60132  1  0  0  0
 60133  1  0  0  0
 60134  1  0  0  0
 61135  1  0  0  0
 61136  1  0  0  0
 61137  1  0  0  0
 62138  1  0  0  0
 62139  1  0  0  0
 62140  1  0  0  0
 63 65  1  0  0  0
 63141  1  0  0  0
 63142  1  0  0  0
 63143  1  0  0  0
 64144  1  0  0  0
 65145  1  0  0  0
 68 84  1  0  0  0
 71 72  2  0  0  0
 71 73  1  0  0  0
 71146  1  0  0  0
 72 74  1  0  0  0
 72 82  1  0  0  0
 73 76  2  0  0  0
 73 85  1  0  0  0
 74 75  2  0  0  0
 74 77  1  0  0  0
 75 76  1  0  0  0
 75 78  1  0  0  0
 76 86  1  0  0  0
 77147  1  0  0  0
 77148  1  0  0  0
 77149  1  0  0  0
 78150  1  0  0  0
 78151  1  0  0  0
 78152  1  0  0  0
 79153  1  0  0  0
 79154  1  0  0  0
 79155  1  0  0  0
 79 85  1  0  0  0
 80 85  1  0  0  0
 80156  1  0  0  0
 80157  1  0  0  0
 80158  1  0  0  0
 81 85  1  0  0  0
 81159  1  0  0  0
 81160  1  0  0  0
 81161  1  0  0  0
 82 83  1  0  0  0
 82162  1  0  0  0
 82163  1  0  0  0
 83 84  1  0  0  0
 83164  1  0  0  0
 83165  1  0  0  0
 84166  1  0  0  0
 84167  1  0  0  0
 86168  1  0  0  0
M  ISO  4   1 100  68 101  84 101  86 100
M  END
> <chiral flag>
0

> <version>
0

> <s_m_source_file>
/data/baiqing/PycharmProjects/Reinvent-master-3.2/result/LINK_invent/BTK/process_docking_weight1_custom_sum_contain_oxygen_bond_distance_aromatic_linkinvent_7_9_3/rearranged_h_0018.sdf

> <i_m_source_file_index>
89

> <r_mmod_Potential_Energy-OPLS-2005>
396.418609619141

> <r_mmod_Stretch_Energy-OPLS-2005>
206.126586914062

> <r_mmod_Bend_Energy-OPLS-2005>
275.828826904297

> <r_mmod_Torsional_Energy-OPLS-2005>
235.138961791992

> <r_mmod_Improper_Torsional_Energy-OPLS-2005>
7.03074836730957

> <r_mmod_Van_der_Waal_Energy-OPLS-2005>
160.703247070312

> <r_mmod_Electrostatic_Energy-OPLS-2005>
-422.713745117188

> <r_mmod_Solvation_Energy-OPLS-2005>
-191.007308959961

> <b_mmod_Minimization_Converged-OPLS-2005>
0

> <r_mmod_RMS_Derivative-OPLS-2005>
4.70595550537109

$$$$
91
                    3D
 Structure written by MMmdl.
153161  0  0  1  0            999 V2000
  -30.2459  -15.7721   20.3181 C   0  0  0  0  0  0
  -30.4154  -13.1836   19.5416 C   0  0  0  0  0  0
  -29.5557  -12.6900   18.3383 C   0  0  0  0  0  0
  -28.1406  -12.3022   18.7893 C   0  0  0  0  0  0
  -27.5912  -13.3207   19.8109 C   0  0  2  0  0  0
  -28.5983  -13.7112   20.9215 C   0  0  0  0  0  0
  -25.2306  -13.8304   20.5821 C   0  0  0  0  0  0
  -24.1707  -13.0436   20.9302 C   0  0  0  0  0  0
  -24.6427  -11.6952   20.8768 C   0  0  0  0  0  0
  -23.9133  -10.4294   21.0398 C   0  0  0  0  0  0
  -24.3664   -9.4206   21.9182 C   0  0  0  0  0  0
  -23.6320   -8.2250   22.0755 C   0  0  0  0  0  0
  -22.4301   -8.0294   21.3547 C   0  0  0  0  0  0
  -21.9950   -9.0271   20.4645 C   0  0  0  0  0  0
  -22.7299  -10.2139   20.3052 C   0  0  0  0  0  0
  -21.6861   -6.0749   22.5281 C   0  0  0  0  0  0
  -21.4018   -6.5647   23.8214 C   0  0  0  0  0  0
  -21.3658   -5.6799   24.9174 C   0  0  0  0  0  0
  -21.6043   -4.3061   24.7222 C   0  0  0  0  0  0
  -21.8818   -3.8156   23.4344 C   0  0  0  0  0  0
  -21.9193   -4.6975   22.3400 C   0  0  0  0  0  0
  -22.7714  -13.5157   21.1928 C   0  0  0  0  0  0
  -22.1661   -4.2161   21.0978 F   0  0  0  0  0  0
  -21.5624   -3.4543   25.7734 F   0  0  0  0  0  0
  -29.7490  -14.3781   20.2564 N   0  0  0  0  0  0
  -26.2765  -12.9657   20.3254 N   0  0  0  0  0  0
  -25.9378  -11.6714   20.5697 N   0  0  0  0  0  0
  -22.0381  -12.8129   22.0477 N   0  0  0  0  0  0
  -25.3880  -15.2049   20.4274 N   0  0  0  0  0  0
  -31.4854  -15.6925   20.1789 O   0  0  0  0  0  0
  -21.6650   -6.8898   21.4246 O   0  0  0  0  0  0
  -22.3383  -14.5454   20.6764 O   0  0  0  0  0  0
  -24.6941  -31.7879   23.1427 C   0  0  0  0  0  0
  -25.9473  -32.4410   23.8015 C   0  0  1  0  0  0
  -27.2297  -26.5961   20.2275 C   0  0  0  0  0  0
  -25.6010  -33.8238   24.1901 N   0  0  0  0  0  0
  -23.5251  -30.3850   21.4993 C   0  0  2  0  0  0
  -24.9836  -28.7028   20.1228 C   0  0  0  0  0  0
  -22.7809  -29.4252   22.4682 C   0  0  0  0  0  0
  -18.0347  -28.1427   22.8455 C   0  0  0  0  0  0
  -24.1494  -36.7119   23.2655 C   0  0  0  0  0  0
  -26.1105  -30.4860   21.4222 C   0  0  0  0  0  0
  -26.1753  -29.0385   20.7759 C   0  0  0  0  0  0
  -27.2793  -28.0170   20.7906 C   0  0  0  0  0  0
  -26.0028  -26.4964   19.5160 C   0  0  0  0  0  0
  -24.9426  -27.4585   19.4685 C   0  0  0  0  0  0
  -23.7852  -29.6715   20.1399 C   0  0  0  0  0  0
  -25.4149  -36.2863   24.0279 C   0  0  1  0  0  0
  -20.5987  -28.3793   23.1125 C   0  0  2  0  0  0
  -20.6803  -26.9442   22.5404 C   0  0  0  0  0  0
  -19.5780  -26.6375   21.5214 C   0  0  0  0  0  0
  -18.1967  -26.7953   22.1623 C   0  0  0  0  0  0
  -19.1615  -28.8937   23.2768 C   0  0  0  0  0  0
  -18.9517  -30.1519   23.8818 C   0  0  0  0  0  0
  -17.6504  -30.6608   24.0550 C   0  0  0  0  0  0
  -25.9135  -34.9254   23.4935 C   0  0  0  0  0  0
  -16.5394  -29.9087   23.6354 C   0  0  0  0  0  0
  -16.7325  -28.6509   23.0373 C   0  0  0  0  0  0
  -26.4621  -31.6480   25.0675 C   0  0  0  0  0  0
  -25.3666  -31.3818   26.1277 C   0  0  0  0  0  0
  -27.0569  -30.2810   24.6639 C   0  0  0  0  0  0
  -27.6054  -32.4358   25.7499 C   0  0  0  0  0  0
  -27.5560  -37.1720   24.8471 C   0  0  0  0  0  0
  -21.4446  -29.3017   22.3428 N   0  0  0  0  0  0
  -26.4269  -37.3633   23.9409 N   0  0  0  0  0  0
  -24.8014  -30.9219   22.0739 N   0  0  0  0  0  0
  -23.4199  -28.7872   23.3080 O   0  0  0  0  0  0
  -28.1794  -25.3291   20.2911 O   0  0  0  0  0  0
  -26.5787  -34.8854   22.4560 O   0  0  0  0  0  0
  -23.5938  -32.1004   23.6313 O   0  0  0  0  0  0
  -30.8942  -19.4472   20.3223 C   0  0  0  0  0  0
  -31.2570  -20.8408   20.3169 C   0  0  0  0  0  0
  -30.3567  -21.9809   20.3104 C   0  0  0  0  0  0
  -28.9353  -21.8791   20.2822 C   0  0  0  0  0  0
  -28.6438  -20.2640   20.2938 C   0  0  0  0  0  0
  -29.5828  -18.9233   20.3190 C   0  0  0  0  0  0
  -32.7598  -21.0952   20.3108 C   0  0  0  0  0  0
  -30.9190  -23.4011   20.3254 C   0  0  0  0  0  0
  -27.1684  -19.9254   20.2780 C   0  0  0  0  0  0
  -27.9560  -23.5320   20.2091 C   0  0  0  0  0  0
  -29.4636  -17.1618   20.3443 N   0  0  0  0  0  0
  -31.3974  -13.4679   19.1619 H   0  0  0  0  0  0
  -30.6114  -12.3657   20.2372 H   0  0  0  0  0  0
  -30.0384  -11.8476   17.8410 H   0  0  0  0  0  0
  -29.4919  -13.4884   17.5974 H   0  0  0  0  0  0
  -28.1952  -11.3170   19.2546 H   0  0  0  0  0  0
  -27.4723  -12.2051   17.9328 H   0  0  0  0  0  0
  -27.4350  -14.2232   19.2179 H   0  0  0  0  0  0
  -28.8910  -12.8523   21.5275 H   0  0  0  0  0  0
  -28.1386  -14.4246   21.6070 H   0  0  0  0  0  0
  -25.2805   -9.5676   22.4767 H   0  0  0  0  0  0
  -24.0019   -7.4642   22.7482 H   0  0  0  0  0  0
  -21.0878   -8.8807   19.8953 H   0  0  0  0  0  0
  -22.3764  -10.9683   19.6163 H   0  0  0  0  0  0
  -21.2017   -7.6158   23.9722 H   0  0  0  0  0  0
  -21.1476   -6.0527   25.9077 H   0  0  0  0  0  0
  -22.0596   -2.7619   23.2840 H   0  0  0  0  0  0
  -22.4027  -11.9803   22.4867 H   0  0  0  0  0  0
  -21.0988  -13.1118   22.2682 H   0  0  0  0  0  0
  -24.6152  -15.8515   20.5438 H   0  0  0  0  0  0
  -26.2269  -15.6487   20.0795 H   0  0  0  0  0  0
  -26.7566  -32.4864   23.0731 H   0  0  0  0  0  0
  -25.0060  -33.9252   24.9994 H   0  0  0  0  0  0
  -22.8567  -31.2252   21.2998 H   0  0  0  0  0  0
  -23.3779  -35.9425   23.3275 H   0  0  0  0  0  0
  -24.3551  -36.8820   22.2076 H   0  0  0  0  0  0
  -23.7233  -37.6278   23.6759 H   0  0  0  0  0  0
  -26.3226  -31.2024   20.6275 H   0  0  0  0  0  0
  -26.9580  -30.5602   22.0908 H   0  0  0  0  0  0
  -28.1753  -28.2843   21.3329 H   0  0  0  0  0  0
  -25.8172  -25.5609   19.0077 H   0  0  0  0  0  0
  -24.0457  -27.1901   18.9271 H   0  0  0  0  0  0
  -23.9696  -30.4264   19.3748 H   0  0  0  0  0  0
  -22.8877  -29.1432   19.8137 H   0  0  0  0  0  0
  -25.1361  -36.1617   25.0769 H   0  0  0  0  0  0
  -21.0073  -28.3427   24.1249 H   0  0  0  0  0  0
  -20.5653  -26.2414   23.3672 H   0  0  0  0  0  0
  -21.6663  -26.7362   22.1231 H   0  0  0  0  0  0
  -19.6928  -25.6264   21.1296 H   0  0  0  0  0  0
  -19.6727  -27.3139   20.6709 H   0  0  0  0  0  0
  -17.4232  -26.6694   21.4033 H   0  0  0  0  0  0
  -18.0361  -26.0113   22.9039 H   0  0  0  0  0  0
  -19.7990  -30.7359   24.2151 H   0  0  0  0  0  0
  -17.5052  -31.6281   24.5167 H   0  0  0  0  0  0
  -15.5390  -30.2963   23.7723 H   0  0  0  0  0  0
  -15.8725  -28.0799   22.7137 H   0  0  0  0  0  0
  -24.5878  -30.7140   25.7575 H   0  0  0  0  0  0
  -24.8828  -32.3044   26.4492 H   0  0  0  0  0  0
  -25.7829  -30.9119   27.0196 H   0  0  0  0  0  0
  -26.3310  -29.6402   24.1625 H   0  0  0  0  0  0
  -27.3954  -29.7286   25.5415 H   0  0  0  0  0  0
  -27.9305  -30.3919   24.0212 H   0  0  0  0  0  0
  -27.2585  -33.3729   26.1865 H   0  0  0  0  0  0
  -28.3972  -32.6806   25.0407 H   0  0  0  0  0  0
  -28.0608  -31.8631   26.5588 H   0  0  0  0  0  0
  -28.2554  -38.0037   24.7509 H   0  0  0  0  0  0
  -28.1081  -36.2558   24.6317 H   0  0  0  0  0  0
  -27.2268  -37.1374   25.8871 H   0  0  0  0  0  0
  -20.9773  -29.8645   21.6456 H   0  0  0  0  0  0
  -26.0092  -38.2680   24.1417 H   0  0  0  0  0  0
  -31.6919  -18.7171   20.3312 H   0  0  0  0  0  0
  -33.3370  -20.1738   20.2295 H   0  0  0  0  0  0
  -33.0713  -21.5876   21.2324 H   0  0  0  0  0  0
  -33.0438  -21.7198   19.4631 H   0  0  0  0  0  0
  -31.9870  -23.4724   20.5149 H   0  0  0  0  0  0
  -30.4424  -23.9882   21.1107 H   0  0  0  0  0  0
  -30.7243  -23.8923   19.3715 H   0  0  0  0  0  0
  -26.5509  -20.8209   20.2100 H   0  0  0  0  0  0
  -26.8950  -19.3921   21.1889 H   0  0  0  0  0  0
  -26.9355  -19.2875   19.4252 H   0  0  0  0  0  0
  -27.1953  -23.3689   20.9723 H   0  0  0  0  0  0
  -27.4061  -23.4187   19.2748 H   0  0  0  0  0  0
  -28.4877  -16.9071   20.3906 H   0  0  0  0  0  0
  1 25  1  0  0  0
  1 30  2  0  0  0
  1 81  1  0  0  0
  2  3  1  0  0  0
  2 25  1  0  0  0
  2 82  1  0  0  0
  2 83  1  0  0  0
  3  4  1  0  0  0
  3 84  1  0  0  0
  3 85  1  0  0  0
  4  5  1  0  0  0
  4 86  1  0  0  0
  4 87  1  0  0  0
  5  6  1  0  0  0
  5 26  1  0  0  0
  5 88  1  0  0  0
  6 25  1  0  0  0
  6 89  1  0  0  0
  6 90  1  0  0  0
  7  8  2  0  0  0
  7 26  1  0  0  0
  7 29  1  0  0  0
  8  9  1  0  0  0
  8 22  1  0  0  0
  9 10  1  0  0  0
  9 27  2  0  0  0
 10 11  2  0  0  0
 10 15  1  0  0  0
 11 12  1  0  0  0
 11 91  1  0  0  0
 12 13  2  0  0  0
 12 92  1  0  0  0
 13 14  1  0  0  0
 13 31  1  0  0  0
 14 15  2  0  0  0
 14 93  1  0  0  0
 15 94  1  0  0  0
 16 17  2  0  0  0
 16 21  1  0  0  0
 16 31  1  0  0  0
 17 18  1  0  0  0
 17 95  1  0  0  0
 18 19  2  0  0  0
 18 96  1  0  0  0
 19 20  1  0  0  0
 19 24  1  0  0  0
 20 21  2  0  0  0
 20 97  1  0  0  0
 21 23  1  0  0  0
 22 28  1  0  0  0
 22 32  2  0  0  0
 26 27  1  0  0  0
 28 98  1  0  0  0
 28 99  1  0  0  0
 29100  1  0  0  0
 29101  1  0  0  0
 33 34  1  0  0  0
 33 66  1  0  0  0
 33 70  2  0  0  0
 34 36  1  0  0  0
 34 59  1  0  0  0
 34102  1  0  0  0
 35 44  2  0  0  0
 35 45  1  0  0  0
 35 68  1  0  0  0
 36 56  1  0  0  0
 36103  1  0  0  0
 37 39  1  0  0  0
 37 47  1  0  0  0
 37 66  1  0  0  0
 37104  1  0  0  0
 38 43  2  0  0  0
 38 46  1  0  0  0
 38 47  1  0  0  0
 39 64  1  0  0  0
 39 67  2  0  0  0
 40 52  1  0  0  0
 40 53  2  0  0  0
 40 58  1  0  0  0
 41105  1  0  0  0
 41106  1  0  0  0
 41107  1  0  0  0
 41 48  1  0  0  0
 42 43  1  0  0  0
 42 66  1  0  0  0
 42108  1  0  0  0
 42109  1  0  0  0
 43 44  1  0  0  0
 44110  1  0  0  0
 45 46  2  0  0  0
 45111  1  0  0  0
 46112  1  0  0  0
 47113  1  0  0  0
 47114  1  0  0  0
 48 56  1  0  0  0
 48 65  1  0  0  0
 48115  1  0  0  0
 49 50  1  0  0  0
 49 53  1  0  0  0
 49 64  1  0  0  0
 49116  1  0  0  0
 50 51  1  0  0  0
 50117  1  0  0  0
 50118  1  0  0  0
 51 52  1  0  0  0
 51119  1  0  0  0
 51120  1  0  0  0
 52121  1  0  0  0
 52122  1  0  0  0
 53 54  1  0  0  0
 54 55  2  0  0  0
 54123  1  0  0  0
 55 57  1  0  0  0
 55124  1  0  0  0
 56 69  2  0  0  0
 57 58  2  0  0  0
 57125  1  0  0  0
 58126  1  0  0  0
 59 60  1  0  0  0
 59 61  1  0  0  0
 59 62  1  0  0  0
 60127  1  0  0  0
 60128  1  0  0  0
 60129  1  0  0  0
 61130  1  0  0  0
 61131  1  0  0  0
 61132  1  0  0  0
 62133  1  0  0  0
 62134  1  0  0  0
 62135  1  0  0  0
 63 65  1  0  0  0
 63136  1  0  0  0
 63137  1  0  0  0
 63138  1  0  0  0
 64139  1  0  0  0
 65140  1  0  0  0
 68 80  1  0  0  0
 71 72  2  0  0  0
 71 76  1  0  0  0
 71141  1  0  0  0
 72 73  1  0  0  0
 72 77  1  0  0  0
 73 74  2  0  0  0
 73 78  1  0  0  0
 74 75  1  0  0  0
 74 80  1  0  0  0
 75 76  2  0  0  0
 75 79  1  0  0  0
 76 81  1  0  0  0
 77142  1  0  0  0
 77143  1  0  0  0
 77144  1  0  0  0
 78145  1  0  0  0
 78146  1  0  0  0
 78147  1  0  0  0
 79148  1  0  0  0
 79149  1  0  0  0
 79150  1  0  0  0
 80151  1  0  0  0
 80152  1  0  0  0
 81153  1  0  0  0
M  ISO  4   1 100  68 101  80 101  81 100
M  END
> <chiral flag>
0

> <version>
0

> <s_m_source_file>
/data/baiqing/PycharmProjects/Reinvent-master-3.2/result/LINK_invent/BTK/process_docking_weight1_custom_sum_contain_oxygen_bond_distance_aromatic_linkinvent_7_9_3/rearranged_h_0018.sdf

> <i_m_source_file_index>
90

> <r_mmod_Potential_Energy-OPLS-2005>
2814.38500976562

> <r_mmod_Stretch_Energy-OPLS-2005>
1268.65014648438

> <r_mmod_Bend_Energy-OPLS-2005>
639.809631347656

> <r_mmod_Torsional_Energy-OPLS-2005>
222.874649047852

> <r_mmod_Improper_Torsional_Energy-OPLS-2005>
3.90321707725525

> <r_mmod_Van_der_Waal_Energy-OPLS-2005>
131.543884277344

> <r_mmod_Electrostatic_Energy-OPLS-2005>
-370.007080078125

> <r_mmod_Solvation_Energy-OPLS-2005>
-210.074722290039

> <b_mmod_Minimization_Converged-OPLS-2005>
0

> <r_mmod_RMS_Derivative-OPLS-2005>
0.566254615783691

$$$$
92
                    3D
 Structure written by MMmdl.
169177  0  0  1  0            999 V2000
  -30.5879  -14.8484   20.4290 C   0  0  0  0  0  0
  -30.4297  -12.5214   19.4883 C   0  0  0  0  0  0
  -29.5126  -12.5147   18.2455 C   0  0  0  0  0  0
  -28.0422  -12.3231   18.6615 C   0  0  0  0  0  0
  -27.6322  -13.2435   19.8421 C   0  0  2  0  0  0
  -28.6757  -13.2383   20.9793 C   0  0  0  0  0  0
  -25.2466  -13.8218   20.5702 C   0  0  0  0  0  0
  -24.1779  -13.0446   20.9225 C   0  0  0  0  0  0
  -24.6393  -11.6931   20.8760 C   0  0  0  0  0  0
  -23.9078  -10.4298   21.0410 C   0  0  0  0  0  0
  -24.3625   -9.4209   21.9186 C   0  0  0  0  0  0
  -23.6295   -8.2246   22.0756 C   0  0  0  0  0  0
  -22.4278   -8.0285   21.3547 C   0  0  0  0  0  0
  -21.9919   -9.0259   20.4649 C   0  0  0  0  0  0
  -22.7252  -10.2136   20.3058 C   0  0  0  0  0  0
  -21.6855   -6.0736   22.5278 C   0  0  0  0  0  0
  -21.4015   -6.5638   23.8212 C   0  0  0  0  0  0
  -21.3660   -5.6790   24.9175 C   0  0  0  0  0  0
  -21.6045   -4.3054   24.7224 C   0  0  0  0  0  0
  -21.8819   -3.8147   23.4346 C   0  0  0  0  0  0
  -21.9193   -4.6964   22.3402 C   0  0  0  0  0  0
  -22.7801  -13.5219   21.1880 C   0  0  0  0  0  0
  -22.1661   -4.2148   21.0979 F   0  0  0  0  0  0
  -21.5630   -3.4538   25.7738 F   0  0  0  0  0  0
  -29.9621  -13.6132   20.3827 N   0  0  0  0  0  0
  -26.2892  -12.9445   20.3262 N   0  0  0  0  0  0
  -25.9322  -11.6580   20.5752 N   0  0  0  0  0  0
  -22.0451  -12.8201   22.0430 N   0  0  0  0  0  0
  -25.4134  -15.1944   20.4113 N   0  0  0  0  0  0
  -31.7893  -14.9008   20.1507 O   0  0  0  0  0  0
  -21.6644   -6.8880   21.4240 O   0  0  0  0  0  0
  -22.3483  -14.5522   20.6727 O   0  0  0  0  0  0
  -24.6372  -31.8481   23.1897 C   0  0  0  0  0  0
  -25.9167  -32.4713   23.8275 C   0  0  1  0  0  0
  -27.2217  -27.1940   20.1543 C   0  0  0  0  0  0
  -25.5938  -33.8517   24.2195 N   0  0  0  0  0  0
  -23.4381  -30.4653   21.5348 C   0  0  2  0  0  0
  -24.8871  -28.8929   20.1142 C   0  0  0  0  0  0
  -22.7533  -29.4563   22.4891 C   0  0  0  0  0  0
  -18.0296  -28.1390   22.8476 C   0  0  0  0  0  0
  -24.1494  -36.7265   23.2642 C   0  0  0  0  0  0
  -25.9870  -30.7414   21.3773 C   0  0  0  0  0  0
  -26.0607  -29.3552   20.7243 C   0  0  0  0  0  0
  -27.2325  -28.5216   20.7230 C   0  0  0  0  0  0
  -26.0262  -26.8082   19.5160 C   0  0  0  0  0  0
  -24.8777  -27.6304   19.4967 C   0  0  0  0  0  0
  -23.6611  -29.7898   20.1547 C   0  0  0  0  0  0
  -25.4126  -36.3042   24.0317 C   0  0  1  0  0  0
  -20.5902  -28.3708   23.1255 C   0  0  2  0  0  0
  -20.6784  -26.9418   22.5414 C   0  0  0  0  0  0
  -19.5763  -26.6379   21.5217 C   0  0  0  0  0  0
  -18.1937  -26.7930   22.1618 C   0  0  0  0  0  0
  -19.1550  -28.8868   23.2854 C   0  0  0  0  0  0
  -18.9470  -30.1463   23.8882 C   0  0  0  0  0  0
  -17.6470  -30.6590   24.0562 C   0  0  0  0  0  0
  -25.9074  -34.9417   23.5065 C   0  0  0  0  0  0
  -16.5360  -29.9087   23.6334 C   0  0  0  0  0  0
  -16.7282  -28.6505   23.0353 C   0  0  0  0  0  0
  -26.4509  -31.6565   25.0696 C   0  0  0  0  0  0
  -25.3704  -31.3740   26.1394 C   0  0  0  0  0  0
  -27.0367  -30.2971   24.6235 C   0  0  0  0  0  0
  -27.6044  -32.4323   25.7481 C   0  0  0  0  0  0
  -27.5575  -37.1787   24.8461 C   0  0  0  0  0  0
  -21.4234  -29.3038   22.3634 N   0  0  0  0  0  0
  -26.4289  -37.3751   23.9403 N   0  0  0  0  0  0
  -24.7068  -31.0386   22.0902 N   0  0  0  0  0  0
  -23.4197  -28.8128   23.3039 O   0  0  0  0  0  0
  -28.3173  -26.2786   20.1623 O   0  0  0  0  0  0
  -26.5660  -34.8912   22.4644 O   0  0  0  0  0  0
  -23.5506  -32.1334   23.7159 O   0  0  0  0  0  0
  -29.0196  -21.0458   19.1025 C   0  0  0  0  0  0
  -28.8840  -21.1513   21.4626 C   0  0  0  0  0  0
  -28.7445  -21.8951   20.2249 C   0  0  0  0  0  0
  -29.6150  -18.9380   20.3741 C   0  0  0  0  0  0
  -29.4278  -19.6639   19.1595 C   0  0  0  0  0  0
  -29.3233  -19.7516   21.5213 C   0  0  0  0  0  0
  -28.6088  -21.7957   22.7556 C   0  0  0  0  0  0
  -27.4045  -21.6665   23.3723 C   0  0  0  0  0  0
  -29.8097  -22.5350   23.3340 C   0  0  0  0  0  0
  -27.0870  -22.2625   24.7374 C   0  0  0  0  0  0
  -25.8575  -19.6432   23.5751 C   0  0  0  0  0  0
  -27.2676  -24.9034   21.9161 C   0  0  0  0  0  0
  -28.2288  -23.4384   19.9072 C   0  0  0  0  0  0
  -30.3891  -17.4931   20.4141 C   0  0  0  0  0  0
  -26.2311  -20.8946   22.7688 C   0  0  0  0  0  0
  -28.2942  -24.8609   20.7720 C   0  0  1  0  0  0
  -29.8499  -16.0399   20.5655 N   0  0  0  0  0  0
  -29.6933  -19.0366   17.9889 F   0  0  0  0  0  0
  -29.5671  -19.0033   23.0676 Cl  0  0  0  0  0  0
  -31.4687  -12.6530   19.1825 H   0  0  0  0  0  0
  -30.3918  -11.5609   20.0045 H   0  0  0  0  0  0
  -29.8134  -11.7242   17.5567 H   0  0  0  0  0  0
  -29.6215  -13.4543   17.7014 H   0  0  0  0  0  0
  -27.9181  -11.2783   18.9491 H   0  0  0  0  0  0
  -27.3823  -12.4834   17.8083 H   0  0  0  0  0  0
  -27.6079  -14.2535   19.4324 H   0  0  0  0  0  0
  -28.7366  -12.2580   21.4539 H   0  0  0  0  0  0
  -28.3955  -13.9448   21.7620 H   0  0  0  0  0  0
  -25.2768   -9.5686   22.4766 H   0  0  0  0  0  0
  -24.0006   -7.4638   22.7476 H   0  0  0  0  0  0
  -21.0854   -8.8782   19.8951 H   0  0  0  0  0  0
  -22.3713  -10.9677   19.6169 H   0  0  0  0  0  0
  -21.2005   -7.6146   23.9715 H   0  0  0  0  0  0
  -21.1482   -6.0521   25.9078 H   0  0  0  0  0  0
  -22.0597   -2.7609   23.2847 H   0  0  0  0  0  0
  -22.4077  -11.9861   22.4809 H   0  0  0  0  0  0
  -21.1066  -13.1216   22.2640 H   0  0  0  0  0  0
  -24.6429  -15.8444   20.5230 H   0  0  0  0  0  0
  -26.2542  -15.6358   20.0628 H   0  0  0  0  0  0
  -26.7233  -32.5346   23.1009 H   0  0  0  0  0  0
  -25.0052  -33.9636   25.0320 H   0  0  0  0  0  0
  -22.7386  -31.2896   21.3801 H   0  0  0  0  0  0
  -23.3759  -35.9593   23.3298 H   0  0  0  0  0  0
  -24.3580  -36.8910   22.2056 H   0  0  0  0  0  0
  -23.7255  -37.6462   23.6691 H   0  0  0  0  0  0
  -26.1332  -31.4981   20.6052 H   0  0  0  0  0  0
  -26.8608  -30.7931   22.0153 H   0  0  0  0  0  0
  -28.1344  -28.8742   21.2028 H   0  0  0  0  0  0
  -25.9741  -25.8367   19.0457 H   0  0  0  0  0  0
  -23.9793  -27.2708   19.0137 H   0  0  0  0  0  0
  -23.7930  -30.5619   19.3956 H   0  0  0  0  0  0
  -22.7776  -29.2261   19.8495 H   0  0  0  0  0  0
  -25.1315  -36.1869   25.0810 H   0  0  0  0  0  0
  -20.9984  -28.3299   24.1380 H   0  0  0  0  0  0
  -20.5688  -26.2322   23.3629 H   0  0  0  0  0  0
  -21.6652  -26.7441   22.1210 H   0  0  0  0  0  0
  -19.6935  -25.6287   21.1258 H   0  0  0  0  0  0
  -19.6707  -27.3185   20.6740 H   0  0  0  0  0  0
  -17.4214  -26.6679   21.4014 H   0  0  0  0  0  0
  -18.0324  -26.0077   22.9016 H   0  0  0  0  0  0
  -19.7952  -30.7273   24.2250 H   0  0  0  0  0  0
  -17.5031  -31.6272   24.5163 H   0  0  0  0  0  0
  -15.5363  -30.2984   23.7672 H   0  0  0  0  0  0
  -15.8681  -28.0824   22.7072 H   0  0  0  0  0  0
  -24.5916  -30.7047   25.7720 H   0  0  0  0  0  0
  -24.8846  -32.2910   26.4735 H   0  0  0  0  0  0
  -25.7990  -30.8985   27.0224 H   0  0  0  0  0  0
  -26.2964  -29.6699   24.1249 H   0  0  0  0  0  0
  -27.4013  -29.7258   25.4781 H   0  0  0  0  0  0
  -27.8859  -30.4223   23.9513 H   0  0  0  0  0  0
  -27.2647  -33.3651   26.1991 H   0  0  0  0  0  0
  -28.3887  -32.6836   25.0329 H   0  0  0  0  0  0
  -28.0675  -31.8491   26.5451 H   0  0  0  0  0  0
  -28.2580  -38.0091   24.7503 H   0  0  0  0  0  0
  -28.1081  -36.2620   24.6292 H   0  0  0  0  0  0
  -27.2291  -37.1437   25.8862 H   0  0  0  0  0  0
  -20.9440  -29.8741   21.6808 H   0  0  0  0  0  0
  -26.0159  -38.2821   24.1407 H   0  0  0  0  0  0
  -28.9194  -21.4739   18.1156 H   0  0  0  0  0  0
  -30.1659  -23.2907   22.6358 H   0  0  0  0  0  0
  -30.6262  -21.8305   23.4942 H   0  0  0  0  0  0
  -29.6257  -23.0258   24.2853 H   0  0  0  0  0  0
  -27.6506  -23.1660   24.9590 H   0  0  0  0  0  0
  -27.2834  -21.5293   25.5199 H   0  0  0  0  0  0
  -26.0350  -22.5426   24.7947 H   0  0  0  0  0  0
  -25.0161  -19.1247   23.1151 H   0  0  0  0  0  0
  -25.5700  -19.8925   24.5968 H   0  0  0  0  0  0
  -26.6887  -18.9400   23.6232 H   0  0  0  0  0  0
  -27.4100  -24.0975   22.6184 H   0  0  0  0  0  0
  -26.2454  -24.8387   21.5442 H   0  0  0  0  0  0
  -27.3591  -25.8213   22.4971 H   0  0  0  0  0  0
  -27.1909  -23.3244   19.5942 H   0  0  0  0  0  0
  -28.7501  -23.6843   18.9818 H   0  0  0  0  0  0
  -31.1481  -17.5963   21.1901 H   0  0  0  0  0  0
  -30.9756  -17.4723   19.4946 H   0  0  0  0  0  0
  -26.4249  -20.6021   21.7379 H   0  0  0  0  0  0
  -25.3735  -21.5663   22.7146 H   0  0  0  0  0  0
  -29.2770  -24.8314   21.2402 H   0  0  0  0  0  0
  -28.8630  -15.9396   20.7460 H   0  0  0  0  0  0
  1 25  1  0  0  0
  1 30  2  0  0  0
  1 87  1  0  0  0
  2  3  1  0  0  0
  2 25  1  0  0  0
  2 90  1  0  0  0
  2 91  1  0  0  0
  3  4  1  0  0  0
  3 92  1  0  0  0
  3 93  1  0  0  0
  4  5  1  0  0  0
  4 94  1  0  0  0
  4 95  1  0  0  0
  5  6  1  0  0  0
  5 26  1  0  0  0
  5 96  1  0  0  0
  6 25  1  0  0  0
  6 97  1  0  0  0
  6 98  1  0  0  0
  7  8  2  0  0  0
  7 26  1  0  0  0
  7 29  1  0  0  0
  8  9  1  0  0  0
  8 22  1  0  0  0
  9 10  1  0  0  0
  9 27  2  0  0  0
 10 11  2  0  0  0
 10 15  1  0  0  0
 11 12  1  0  0  0
 11 99  1  0  0  0
 12 13  2  0  0  0
 12100  1  0  0  0
 13 14  1  0  0  0
 13 31  1  0  0  0
 14 15  2  0  0  0
 14101  1  0  0  0
 15102  1  0  0  0
 16 17  2  0  0  0
 16 21  1  0  0  0
 16 31  1  0  0  0
 17 18  1  0  0  0
 17103  1  0  0  0
 18 19  2  0  0  0
 18104  1  0  0  0
 19 20  1  0  0  0
 19 24  1  0  0  0
 20 21  2  0  0  0
 20105  1  0  0  0
 21 23  1  0  0  0
 22 28  1  0  0  0
 22 32  2  0  0  0
 26 27  1  0  0  0
 28106  1  0  0  0
 28107  1  0  0  0
 29108  1  0  0  0
 29109  1  0  0  0
 33 34  1  0  0  0
 33 66  1  0  0  0
 33 70  2  0  0  0
 34 36  1  0  0  0
 34 59  1  0  0  0
 34110  1  0  0  0
 35 44  2  0  0  0
 35 45  1  0  0  0
 35 68  1  0  0  0
 36 56  1  0  0  0
 36111  1  0  0  0
 37 39  1  0  0  0
 37 47  1  0  0  0
 37 66  1  0  0  0
 37112  1  0  0  0
 38 43  2  0  0  0
 38 46  1  0  0  0
 38 47  1  0  0  0
 39 64  1  0  0  0
 39 67  2  0  0  0
 40 52  1  0  0  0
 40 53  2  0  0  0
 40 58  1  0  0  0
 41113  1  0  0  0
 41114  1  0  0  0
 41115  1  0  0  0
 41 48  1  0  0  0
 42 43  1  0  0  0
 42 66  1  0  0  0
 42116  1  0  0  0
 42117  1  0  0  0
 43 44  1  0  0  0
 44118  1  0  0  0
 45 46  2  0  0  0
 45119  1  0  0  0
 46120  1  0  0  0
 47121  1  0  0  0
 47122  1  0  0  0
 48 56  1  0  0  0
 48 65  1  0  0  0
 48123  1  0  0  0
 49 50  1  0  0  0
 49 53  1  0  0  0
 49 64  1  0  0  0
 49124  1  0  0  0
 50 51  1  0  0  0
 50125  1  0  0  0
 50126  1  0  0  0
 51 52  1  0  0  0
 51127  1  0  0  0
 51128  1  0  0  0
 52129  1  0  0  0
 52130  1  0  0  0
 53 54  1  0  0  0
 54 55  2  0  0  0
 54131  1  0  0  0
 55 57  1  0  0  0
 55132  1  0  0  0
 56 69  2  0  0  0
 57 58  2  0  0  0
 57133  1  0  0  0
 58134  1  0  0  0
 59 60  1  0  0  0
 59 61  1  0  0  0
 59 62  1  0  0  0
 60135  1  0  0  0
 60136  1  0  0  0
 60137  1  0  0  0
 61138  1  0  0  0
 61139  1  0  0  0
 61140  1  0  0  0
 62141  1  0  0  0
 62142  1  0  0  0
 62143  1  0  0  0
 63 65  1  0  0  0
 63144  1  0  0  0
 63145  1  0  0  0
 63146  1  0  0  0
 64147  1  0  0  0
 65148  1  0  0  0
 68 86  1  0  0  0
 71 73  2  0  0  0
 71 75  1  0  0  0
 71149  1  0  0  0
 72 73  1  0  0  0
 72 76  2  0  0  0
 72 77  1  0  0  0
 73 83  1  0  0  0
 74 75  2  0  0  0
 74 76  1  0  0  0
 74 84  1  0  0  0
 75 88  1  0  0  0
 76 89  1  0  0  0
 77 78  2  0  0  0
 77 79  1  0  0  0
 78 80  1  0  0  0
 78 85  1  0  0  0
 79150  1  0  0  0
 79151  1  0  0  0
 79152  1  0  0  0
 80153  1  0  0  0
 80154  1  0  0  0
 80155  1  0  0  0
 81 85  1  0  0  0
 81156  1  0  0  0
 81157  1  0  0  0
 81158  1  0  0  0
 82159  1  0  0  0
 82160  1  0  0  0
 82161  1  0  0  0
 82 86  1  0  0  0
 83 86  1  0  0  0
 83162  1  0  0  0
 83163  1  0  0  0
 84 87  1  0  0  0
 84164  1  0  0  0
 84165  1  0  0  0
 85166  1  0  0  0
 85167  1  0  0  0
 86168  1  0  0  0
 87169  1  0  0  0
M  ISO  4   1 100  68 101  86 101  87 100
M  END
> <chiral flag>
0

> <version>
0

> <s_m_source_file>
/data/baiqing/PycharmProjects/Reinvent-master-3.2/result/LINK_invent/BTK/process_docking_weight1_custom_sum_contain_oxygen_bond_distance_aromatic_linkinvent_7_9_3/rearranged_h_0018.sdf

> <i_m_source_file_index>
91

> <r_mmod_Potential_Energy-OPLS-2005>
449.246124267578

> <r_mmod_Stretch_Energy-OPLS-2005>
200.8134765625

> <r_mmod_Bend_Energy-OPLS-2005>
281.633392333984

> <r_mmod_Torsional_Energy-OPLS-2005>
261.640167236328

> <r_mmod_Improper_Torsional_Energy-OPLS-2005>
7.63532209396362

> <r_mmod_Van_der_Waal_Energy-OPLS-2005>
134.803634643555

> <r_mmod_Electrostatic_Energy-OPLS-2005>
-381.772491455078

> <r_mmod_Solvation_Energy-OPLS-2005>
-187.378890991211

> <b_mmod_Minimization_Converged-OPLS-2005>
0

> <r_mmod_RMS_Derivative-OPLS-2005>
0.783520400524139

$$$$
93
                    3D
 Structure written by MMmdl.
159167  0  0  1  0            999 V2000
  -30.4685  -15.1851   20.3413 C   0  0  0  0  0  0
  -30.4510  -12.7479   19.5065 C   0  0  0  0  0  0
  -29.5336  -12.5638   18.2723 C   0  0  0  0  0  0
  -28.0764  -12.3091   18.6981 C   0  0  0  0  0  0
  -27.6216  -13.2697   19.8257 C   0  0  2  0  0  0
  -28.6674  -13.4053   20.9549 C   0  0  0  0  0  0
  -25.2448  -13.8255   20.5766 C   0  0  0  0  0  0
  -24.1788  -13.0452   20.9281 C   0  0  0  0  0  0
  -24.6418  -11.6946   20.8755 C   0  0  0  0  0  0
  -23.9108  -10.4303   21.0373 C   0  0  0  0  0  0
  -24.3638   -9.4222   21.9160 C   0  0  0  0  0  0
  -23.6314   -8.2254   22.0750 C   0  0  0  0  0  0
  -22.4301   -8.0281   21.3538 C   0  0  0  0  0  0
  -21.9933   -9.0264   20.4643 C   0  0  0  0  0  0
  -22.7269  -10.2146   20.3041 C   0  0  0  0  0  0
  -21.6875   -6.0731   22.5258 C   0  0  0  0  0  0
  -21.4021   -6.5629   23.8190 C   0  0  0  0  0  0
  -21.3677   -5.6785   24.9156 C   0  0  0  0  0  0
  -21.6053   -4.3047   24.7204 C   0  0  0  0  0  0
  -21.8828   -3.8138   23.4323 C   0  0  0  0  0  0
  -21.9202   -4.6959   22.3382 C   0  0  0  0  0  0
  -22.7785  -13.5190   21.1910 C   0  0  0  0  0  0
  -22.1649   -4.2141   21.0961 F   0  0  0  0  0  0
  -21.5654   -3.4529   25.7716 F   0  0  0  0  0  0
  -29.9162  -13.8805   20.3324 N   0  0  0  0  0  0
  -26.2876  -12.9518   20.3224 N   0  0  0  0  0  0
  -25.9356  -11.6627   20.5715 N   0  0  0  0  0  0
  -22.0434  -12.8180   22.0464 N   0  0  0  0  0  0
  -25.4098  -15.1986   20.4176 N   0  0  0  0  0  0
  -31.6826  -15.2218   20.1052 O   0  0  0  0  0  0
  -21.6664   -6.8879   21.4229 O   0  0  0  0  0  0
  -22.3457  -14.5477   20.6742 O   0  0  0  0  0  0
  -24.6606  -31.8259   23.1716 C   0  0  0  0  0  0
  -25.9292  -32.4609   23.8190 C   0  0  1  0  0  0
  -27.2418  -26.9872   20.1598 C   0  0  0  0  0  0
  -25.5963  -33.8428   24.2087 N   0  0  0  0  0  0
  -23.4754  -30.4353   21.5197 C   0  0  2  0  0  0
  -24.9312  -28.8333   20.1060 C   0  0  0  0  0  0
  -22.7659  -29.4451   22.4804 C   0  0  0  0  0  0
  -18.0312  -28.1396   22.8466 C   0  0  0  0  0  0
  -24.1489  -36.7222   23.2645 C   0  0  0  0  0  0
  -26.0416  -30.6522   21.3923 C   0  0  0  0  0  0
  -26.1136  -29.2480   20.7316 C   0  0  0  0  0  0
  -27.2657  -28.3483   20.7272 C   0  0  0  0  0  0
  -26.0269  -26.7052   19.4972 C   0  0  0  0  0  0
  -24.9127  -27.5820   19.4641 C   0  0  0  0  0  0
  -23.7105  -29.7501   20.1458 C   0  0  0  0  0  0
  -25.4130  -36.2983   24.0306 C   0  0  1  0  0  0
  -20.5934  -28.3740   23.1200 C   0  0  2  0  0  0
  -20.6790  -26.9430   22.5405 C   0  0  0  0  0  0
  -19.5773  -26.6374   21.5209 C   0  0  0  0  0  0
  -18.1954  -26.7933   22.1611 C   0  0  0  0  0  0
  -19.1573  -28.8896   23.2818 C   0  0  0  0  0  0
  -18.9479  -30.1482   23.8855 C   0  0  0  0  0  0
  -17.6477  -30.6597   24.0546 C   0  0  0  0  0  0
  -25.9100  -34.9362   23.5022 C   0  0  0  0  0  0
  -16.5365  -29.9085   23.6335 C   0  0  0  0  0  0
  -16.7295  -28.6496   23.0369 C   0  0  0  0  0  0
  -26.4555  -31.6548   25.0715 C   0  0  0  0  0  0
  -25.3692  -31.3769   26.1378 C   0  0  0  0  0  0
  -27.0439  -30.2908   24.6441 C   0  0  0  0  0  0
  -27.6051  -32.4361   25.7515 C   0  0  0  0  0  0
  -27.5580  -37.1760   24.8459 C   0  0  0  0  0  0
  -21.4328  -29.3026   22.3550 N   0  0  0  0  0  0
  -26.4273  -37.3725   23.9420 N   0  0  0  0  0  0
  -24.7468  -30.9966   22.0818 N   0  0  0  0  0  0
  -23.4217  -28.8023   23.3047 O   0  0  0  0  0  0
  -28.2784  -25.9313   20.2369 O   0  0  0  0  0  0
  -26.5717  -34.8893   22.4618 O   0  0  0  0  0  0
  -23.5680  -32.1195   23.6826 O   0  0  0  0  0  0
  -30.1972  -20.4238   19.5433 C   0  0  0  0  0  0
  -28.3556  -20.2579   20.9699 C   0  0  0  0  0  0
  -29.1744  -21.2180   20.2477 C   0  0  0  0  0  0
  -30.3930  -18.9363   19.5976 C   0  0  0  0  0  0
  -28.5398  -18.7792   21.0108 C   0  0  0  0  0  0
  -29.5853  -17.9897   20.3587 C   0  0  0  0  0  0
  -31.1764  -21.2267   18.6892 C   0  0  0  0  0  0
  -27.2023  -20.8538   21.7726 C   0  0  0  0  0  0
  -31.5380  -18.3048   18.8072 C   0  0  0  0  0  0
  -27.5379  -17.9936   21.8541 C   0  0  0  0  0  0
  -29.1512  -22.9571   20.4414 C   0  0  0  0  0  0
  -28.1147  -24.3263   19.9891 C   0  0  0  0  0  0
  -29.6307  -16.3833   20.4525 N   0  0  0  0  0  0
  -31.4689  -12.9487   19.1684 H   0  0  0  0  0  0
  -30.5117  -11.8334   20.0973 H   0  0  0  0  0  0
  -29.8958  -11.7389   17.6572 H   0  0  0  0  0  0
  -29.5793  -13.4585   17.6488 H   0  0  0  0  0  0
  -28.0103  -11.2775   19.0434 H   0  0  0  0  0  0
  -27.4081  -12.3902   17.8390 H   0  0  0  0  0  0
  -27.5489  -14.2485   19.3490 H   0  0  0  0  0  0
  -28.8101  -12.4617   21.4834 H   0  0  0  0  0  0
  -28.3288  -14.1303   21.6972 H   0  0  0  0  0  0
  -25.2776   -9.5720   22.4734 H   0  0  0  0  0  0
  -24.0027   -7.4654   22.7473 H   0  0  0  0  0  0
  -21.0861   -8.8791   19.8943 H   0  0  0  0  0  0
  -22.3708  -10.9686   19.6150 H   0  0  0  0  0  0
  -21.1994   -7.6134   23.9694 H   0  0  0  0  0  0
  -21.1498   -6.0503   25.9063 H   0  0  0  0  0  0
  -22.0595   -2.7602   23.2816 H   0  0  0  0  0  0
  -22.4059  -11.9855   22.4876 H   0  0  0  0  0  0
  -21.1027  -13.1183   22.2605 H   0  0  0  0  0  0
  -24.6495  -15.8552   20.5511 H   0  0  0  0  0  0
  -26.2378  -15.6308   20.0314 H   0  0  0  0  0  0
  -26.7382  -32.5149   23.0928 H   0  0  0  0  0  0
  -25.0036  -33.9523   25.0189 H   0  0  0  0  0  0
  -22.7851  -31.2641   21.3499 H   0  0  0  0  0  0
  -23.3776  -35.9530   23.3256 H   0  0  0  0  0  0
  -24.3571  -36.8921   22.2070 H   0  0  0  0  0  0
  -23.7220  -37.6384   23.6735 H   0  0  0  0  0  0
  -26.2188  -31.4018   20.6203 H   0  0  0  0  0  0
  -26.9025  -30.7001   22.0476 H   0  0  0  0  0  0
  -28.1693  -28.6713   21.2213 H   0  0  0  0  0  0
  -25.9130  -25.7448   19.0145 H   0  0  0  0  0  0
  -24.0222  -27.2610   18.9410 H   0  0  0  0  0  0
  -23.8460  -30.5178   19.3825 H   0  0  0  0  0  0
  -22.8260  -29.1908   19.8393 H   0  0  0  0  0  0
  -25.1326  -36.1768   25.0800 H   0  0  0  0  0  0
  -21.0010  -28.3327   24.1326 H   0  0  0  0  0  0
  -20.5652  -26.2364   23.3636 H   0  0  0  0  0  0
  -21.6658  -26.7421   22.1211 H   0  0  0  0  0  0
  -19.6940  -25.6272   21.1277 H   0  0  0  0  0  0
  -19.6710  -27.3148   20.6711 H   0  0  0  0  0  0
  -17.4222  -26.6668   21.4012 H   0  0  0  0  0  0
  -18.0354  -26.0085   22.9016 H   0  0  0  0  0  0
  -19.7955  -30.7306   24.2206 H   0  0  0  0  0  0
  -17.5029  -31.6271   24.5153 H   0  0  0  0  0  0
  -15.5360  -30.2972   23.7706 H   0  0  0  0  0  0
  -15.8682  -28.0800   22.7127 H   0  0  0  0  0  0
  -24.5887  -30.7116   25.7673 H   0  0  0  0  0  0
  -24.8871  -32.2955   26.4730 H   0  0  0  0  0  0
  -25.7941  -30.8970   27.0203 H   0  0  0  0  0  0
  -26.3088  -29.6596   24.1441 H   0  0  0  0  0  0
  -27.3939  -29.7274   25.5102 H   0  0  0  0  0  0
  -27.9051  -30.4078   23.9863 H   0  0  0  0  0  0
  -27.2613  -33.3685   26.2009 H   0  0  0  0  0  0
  -28.3907  -32.6898   25.0385 H   0  0  0  0  0  0
  -28.0685  -31.8552   26.5497 H   0  0  0  0  0  0
  -28.2557  -38.0093   24.7555 H   0  0  0  0  0  0
  -28.1108  -36.2628   24.6214 H   0  0  0  0  0  0
  -27.2309  -37.1321   25.8859 H   0  0  0  0  0  0
  -20.9576  -29.8707   21.6675 H   0  0  0  0  0  0
  -26.0114  -38.2781   24.1434 H   0  0  0  0  0  0
  -30.8351  -22.2371   18.4884 H   0  0  0  0  0  0
  -31.3034  -20.8076   17.6932 H   0  0  0  0  0  0
  -32.1478  -21.2766   19.1830 H   0  0  0  0  0  0
  -27.1753  -21.9401   21.7288 H   0  0  0  0  0  0
  -27.2652  -20.5849   22.8276 H   0  0  0  0  0  0
  -26.2437  -20.5089   21.3829 H   0  0  0  0  0  0
  -31.7667  -18.7974   17.8663 H   0  0  0  0  0  0
  -31.3040  -17.2794   18.5263 H   0  0  0  0  0  0
  -32.4459  -18.2857   19.4103 H   0  0  0  0  0  0
  -27.6369  -18.2682   22.9036 H   0  0  0  0  0  0
  -27.6522  -16.9137   21.8052 H   0  0  0  0  0  0
  -26.5188  -18.2077   21.5351 H   0  0  0  0  0  0
  -30.1446  -23.2862   20.1520 H   0  0  0  0  0  0
  -29.2193  -23.0509   21.5245 H   0  0  0  0  0  0
  -27.1338  -24.0860   20.3949 H   0  0  0  0  0  0
  -27.9845  -24.2460   18.9095 H   0  0  0  0  0  0
  -28.7178  -16.0422   20.7051 H   0  0  0  0  0  0
  1 25  1  0  0  0
  1 30  2  0  0  0
  1 83  1  0  0  0
  2  3  1  0  0  0
  2 25  1  0  0  0
  2 84  1  0  0  0
  2 85  1  0  0  0
  3  4  1  0  0  0
  3 86  1  0  0  0
  3 87  1  0  0  0
  4  5  1  0  0  0
  4 88  1  0  0  0
  4 89  1  0  0  0
  5  6  1  0  0  0
  5 26  1  0  0  0
  5 90  1  0  0  0
  6 25  1  0  0  0
  6 91  1  0  0  0
  6 92  1  0  0  0
  7  8  2  0  0  0
  7 26  1  0  0  0
  7 29  1  0  0  0
  8  9  1  0  0  0
  8 22  1  0  0  0
  9 10  1  0  0  0
  9 27  2  0  0  0
 10 11  2  0  0  0
 10 15  1  0  0  0
 11 12  1  0  0  0
 11 93  1  0  0  0
 12 13  2  0  0  0
 12 94  1  0  0  0
 13 14  1  0  0  0
 13 31  1  0  0  0
 14 15  2  0  0  0
 14 95  1  0  0  0
 15 96  1  0  0  0
 16 17  2  0  0  0
 16 21  1  0  0  0
 16 31  1  0  0  0
 17 18  1  0  0  0
 17 97  1  0  0  0
 18 19  2  0  0  0
 18 98  1  0  0  0
 19 20  1  0  0  0
 19 24  1  0  0  0
 20 21  2  0  0  0
 20 99  1  0  0  0
 21 23  1  0  0  0
 22 28  1  0  0  0
 22 32  2  0  0  0
 26 27  1  0  0  0
 28100  1  0  0  0
 28101  1  0  0  0
 29102  1  0  0  0
 29103  1  0  0  0
 33 34  1  0  0  0
 33 66  1  0  0  0
 33 70  2  0  0  0
 34 36  1  0  0  0
 34 59  1  0  0  0
 34104  1  0  0  0
 35 44  2  0  0  0
 35 45  1  0  0  0
 35 68  1  0  0  0
 36 56  1  0  0  0
 36105  1  0  0  0
 37 39  1  0  0  0
 37 47  1  0  0  0
 37 66  1  0  0  0
 37106  1  0  0  0
 38 43  2  0  0  0
 38 46  1  0  0  0
 38 47  1  0  0  0
 39 64  1  0  0  0
 39 67  2  0  0  0
 40 52  1  0  0  0
 40 53  2  0  0  0
 40 58  1  0  0  0
 41107  1  0  0  0
 41108  1  0  0  0
 41109  1  0  0  0
 41 48  1  0  0  0
 42 43  1  0  0  0
 42 66  1  0  0  0
 42110  1  0  0  0
 42111  1  0  0  0
 43 44  1  0  0  0
 44112  1  0  0  0
 45 46  2  0  0  0
 45113  1  0  0  0
 46114  1  0  0  0
 47115  1  0  0  0
 47116  1  0  0  0
 48 56  1  0  0  0
 48 65  1  0  0  0
 48117  1  0  0  0
 49 50  1  0  0  0
 49 53  1  0  0  0
 49 64  1  0  0  0
 49118  1  0  0  0
 50 51  1  0  0  0
 50119  1  0  0  0
 50120  1  0  0  0
 51 52  1  0  0  0
 51121  1  0  0  0
 51122  1  0  0  0
 52123  1  0  0  0
 52124  1  0  0  0
 53 54  1  0  0  0
 54 55  2  0  0  0
 54125  1  0  0  0
 55 57  1  0  0  0
 55126  1  0  0  0
 56 69  2  0  0  0
 57 58  2  0  0  0
 57127  1  0  0  0
 58128  1  0  0  0
 59 60  1  0  0  0
 59 61  1  0  0  0
 59 62  1  0  0  0
 60129  1  0  0  0
 60130  1  0  0  0
 60131  1  0  0  0
 61132  1  0  0  0
 61133  1  0  0  0
 61134  1  0  0  0
 62135  1  0  0  0
 62136  1  0  0  0
 62137  1  0  0  0
 63 65  1  0  0  0
 63138  1  0  0  0
 63139  1  0  0  0
 63140  1  0  0  0
 64141  1  0  0  0
 65142  1  0  0  0
 68 82  1  0  0  0
 71 73  2  0  0  0
 71 74  1  0  0  0
 71 77  1  0  0  0
 72 73  1  0  0  0
 72 75  2  0  0  0
 72 78  1  0  0  0
 73 81  1  0  0  0
 74 76  2  0  0  0
 74 79  1  0  0  0
 75 76  1  0  0  0
 75 80  1  0  0  0
 76 83  1  0  0  0
 77143  1  0  0  0
 77144  1  0  0  0
 77145  1  0  0  0
 78146  1  0  0  0
 78147  1  0  0  0
 78148  1  0  0  0
 79149  1  0  0  0
 79150  1  0  0  0
 79151  1  0  0  0
 80152  1  0  0  0
 80153  1  0  0  0
 80154  1  0  0  0
 81 82  1  0  0  0
 81155  1  0  0  0
 81156  1  0  0  0
 82157  1  0  0  0
 82158  1  0  0  0
 83159  1  0  0  0
M  ISO  4   1 100  68 101  82 101  83 100
M  END
> <chiral flag>
0

> <version>
0

> <s_m_source_file>
/data/baiqing/PycharmProjects/Reinvent-master-3.2/result/LINK_invent/BTK/process_docking_weight1_custom_sum_contain_oxygen_bond_distance_aromatic_linkinvent_7_9_3/rearranged_h_0018.sdf

> <i_m_source_file_index>
92

> <r_mmod_Potential_Energy-OPLS-2005>
1003.29949951172

> <r_mmod_Stretch_Energy-OPLS-2005>
476.992401123047

> <r_mmod_Bend_Energy-OPLS-2005>
408.97509765625

> <r_mmod_Torsional_Energy-OPLS-2005>
221.726745605469

> <r_mmod_Improper_Torsional_Energy-OPLS-2005>
5.61864042282104

> <r_mmod_Van_der_Waal_Energy-OPLS-2005>
143.560684204102

> <r_mmod_Electrostatic_Energy-OPLS-2005>
-421.317932128906

> <r_mmod_Solvation_Energy-OPLS-2005>
-206.803894042969

> <b_mmod_Minimization_Converged-OPLS-2005>
0

> <r_mmod_RMS_Derivative-OPLS-2005>
3.06085157394409

$$$$
