0
                    3D
 Structure written by MMmdl.
159167  0  0  1  0            999 V2000
  -30.7387  -14.4064   20.6182 C   0  0  0  0  0  0
  -30.4168  -12.2842   19.4092 C   0  0  0  0  0  0
  -29.4900  -12.5125   18.1998 C   0  0  0  0  0  0
  -28.0122  -12.3775   18.6142 C   0  0  0  0  0  0
  -27.6664  -13.2054   19.8811 C   0  0  2  0  0  0
  -28.7055  -12.9593   20.9983 C   0  0  0  0  0  0
  -25.2606  -13.8160   20.5676 C   0  0  0  0  0  0
  -24.1847  -13.0440   20.9168 C   0  0  0  0  0  0
  -24.6400  -11.6906   20.8733 C   0  0  0  0  0  0
  -23.9063  -10.4293   21.0405 C   0  0  0  0  0  0
  -24.3613   -9.4208   21.9187 C   0  0  0  0  0  0
  -23.6286   -8.2245   22.0759 C   0  0  0  0  0  0
  -22.4271   -8.0283   21.3548 C   0  0  0  0  0  0
  -21.9905   -9.0257   20.4651 C   0  0  0  0  0  0
  -22.7234  -10.2136   20.3057 C   0  0  0  0  0  0
  -21.6852   -6.0731   22.5276 C   0  0  0  0  0  0
  -21.4016   -6.5637   23.8209 C   0  0  0  0  0  0
  -21.3660   -5.6792   24.9172 C   0  0  0  0  0  0
  -21.6044   -4.3053   24.7225 C   0  0  0  0  0  0
  -21.8819   -3.8144   23.4346 C   0  0  0  0  0  0
  -21.9193   -4.6958   22.3401 C   0  0  0  0  0  0
  -22.7873  -13.5245   21.1830 C   0  0  0  0  0  0
  -22.1662   -4.2142   21.0980 F   0  0  0  0  0  0
  -21.5628   -3.4539   25.7740 F   0  0  0  0  0  0
  -30.0436  -13.2508   20.4526 N   0  0  0  0  0  0
  -26.3048  -12.9330   20.3386 N   0  0  0  0  0  0
  -25.9327  -11.6489   20.5766 N   0  0  0  0  0  0
  -22.0508  -12.8243   22.0389 N   0  0  0  0  0  0
  -25.4337  -15.1873   20.4081 N   0  0  0  0  0  0
  -31.8225  -14.6283   20.0713 O   0  0  0  0  0  0
  -21.6639   -6.8876   21.4239 O   0  0  0  0  0  0
  -22.3563  -14.5554   20.6685 O   0  0  0  0  0  0
  -24.6123  -31.8686   23.2112 C   0  0  0  0  0  0
  -25.9020  -32.4827   23.8402 C   0  0  1  0  0  0
  -27.2444  -27.4530   20.0866 C   0  0  0  0  0  0
  -25.5879  -33.8626   24.2332 N   0  0  0  0  0  0
  -23.3997  -30.4914   21.5505 C   0  0  2  0  0  0
  -24.8463  -28.9553   20.1176 C   0  0  0  0  0  0
  -22.7400  -29.4658   22.4998 C   0  0  0  0  0  0
  -18.0276  -28.1367   22.8494 C   0  0  0  0  0  0
  -24.1482  -36.7319   23.2638 C   0  0  0  0  0  0
  -25.9261  -30.8376   21.3624 C   0  0  0  0  0  0
  -26.0028  -29.4720   20.7122 C   0  0  0  0  0  0
  -27.2003  -28.7262   20.6970 C   0  0  0  0  0  0
  -26.0658  -26.9424   19.4930 C   0  0  0  0  0  0
  -24.8708  -27.6879   19.5096 C   0  0  0  0  0  0
  -23.6081  -29.8212   20.1653 C   0  0  0  0  0  0
  -25.4099  -36.3112   24.0340 C   0  0  1  0  0  0
  -20.5866  -28.3645   23.1328 C   0  0  2  0  0  0
  -20.6764  -26.9387   22.5415 C   0  0  0  0  0  0
  -19.5739  -26.6378   21.5209 C   0  0  0  0  0  0
  -18.1920  -26.7918   22.1622 C   0  0  0  0  0  0
  -19.1526  -28.8824   23.2912 C   0  0  0  0  0  0
  -18.9453  -30.1433   23.8918 C   0  0  0  0  0  0
  -17.6454  -30.6577   24.0562 C   0  0  0  0  0  0
  -25.9018  -34.9477   23.5131 C   0  0  0  0  0  0
  -16.5344  -29.9077   23.6322 C   0  0  0  0  0  0
  -16.7266  -28.6493   23.0346 C   0  0  0  0  0  0
  -26.4460  -31.6612   25.0726 C   0  0  0  0  0  0
  -25.3743  -31.3714   26.1493 C   0  0  0  0  0  0
  -27.0292  -30.3062   24.6085 C   0  0  0  0  0  0
  -27.6035  -32.4344   25.7479 C   0  0  0  0  0  0
  -27.5583  -37.1813   24.8465 C   0  0  0  0  0  0
  -21.4133  -29.3018   22.3739 N   0  0  0  0  0  0
  -26.4291  -37.3793   23.9413 N   0  0  0  0  0  0
  -24.6641  -31.0801   22.0999 N   0  0  0  0  0  0
  -23.4182  -28.8208   23.3039 O   0  0  0  0  0  0
  -28.4447  -26.7742   20.1003 O   0  0  0  0  0  0
  -26.5584  -34.8921   22.4693 O   0  0  0  0  0  0
  -23.5319  -32.1436   23.7512 O   0  0  0  0  0  0
  -28.5750  -20.5110   20.3097 C   0  0  0  0  0  0
  -27.7595  -21.1461   19.3294 C   0  0  0  0  0  0
  -29.6076  -21.4012   20.3713 C   0  0  0  0  0  0
  -28.3255  -19.2219   21.0605 C   0  0  0  0  0  0
  -28.7362  -17.9701   20.2575 C   0  0  0  0  0  0
  -30.2376  -17.6305   20.3427 C   0  0  0  0  0  0
  -29.9110  -24.8894   19.8871 C   0  0  0  0  0  0
  -30.2742  -23.5768   19.1628 C   0  0  0  0  0  0
  -30.6094  -16.7210   21.5350 C   0  0  0  0  0  0
  -28.5061  -25.4437   19.5896 C   0  0  0  0  0  0
  -28.2391  -22.2810   18.8318 N   0  0  0  0  0  0
  -29.4134  -22.4473   19.4867 N   0  0  0  0  0  0
  -30.1305  -15.3475   21.3548 N   0  0  0  0  0  0
  -26.2494  -20.5189   18.7803 Cl  0  0  0  0  0  0
  -31.0033  -21.3031   21.3756 Cl  0  0  0  0  0  0
  -31.4618  -12.3732   19.1075 H   0  0  0  0  0  0
  -30.3050  -11.2672   19.7882 H   0  0  0  0  0  0
  -29.7215  -11.7988   17.4084 H   0  0  0  0  0  0
  -29.6675  -13.5037   17.7799 H   0  0  0  0  0  0
  -27.8168  -11.3206   18.7993 H   0  0  0  0  0  0
  -27.3612  -12.6655   17.7878 H   0  0  0  0  0  0
  -27.7217  -14.2582   19.6027 H   0  0  0  0  0  0
  -28.6683  -11.9187   21.3246 H   0  0  0  0  0  0
  -28.4656  -13.5455   21.8860 H   0  0  0  0  0  0
  -25.2758   -9.5681   22.4764 H   0  0  0  0  0  0
  -23.9991   -7.4638   22.7483 H   0  0  0  0  0  0
  -21.0833   -8.8779   19.8960 H   0  0  0  0  0  0
  -22.3695  -10.9677   19.6166 H   0  0  0  0  0  0
  -21.2012   -7.6146   23.9709 H   0  0  0  0  0  0
  -21.1482   -6.0524   25.9075 H   0  0  0  0  0  0
  -22.0600   -2.7604   23.2851 H   0  0  0  0  0  0
  -22.4112  -11.9895   22.4768 H   0  0  0  0  0  0
  -21.1133  -13.1287   22.2597 H   0  0  0  0  0  0
  -24.6694  -15.8451   20.5141 H   0  0  0  0  0  0
  -26.2891  -15.6215   20.0859 H   0  0  0  0  0  0
  -26.7092  -32.5542   23.1170 H   0  0  0  0  0  0
  -25.0044  -33.9790   25.0489 H   0  0  0  0  0  0
  -22.6870  -31.3073   21.4123 H   0  0  0  0  0  0
  -23.3728  -35.9670   23.3306 H   0  0  0  0  0  0
  -24.3574  -36.8927   22.2051 H   0  0  0  0  0  0
  -23.7253  -37.6531   23.6649 H   0  0  0  0  0  0
  -26.0363  -31.6027   20.5925 H   0  0  0  0  0  0
  -26.8152  -30.8918   21.9790 H   0  0  0  0  0  0
  -28.0954  -29.1269   21.1525 H   0  0  0  0  0  0
  -26.0514  -25.9772   19.0083 H   0  0  0  0  0  0
  -23.9807  -27.2808   19.0500 H   0  0  0  0  0  0
  -23.7187  -30.5941   19.4035 H   0  0  0  0  0  0
  -22.7327  -29.2396   19.8709 H   0  0  0  0  0  0
  -25.1278  -36.1980   25.0835 H   0  0  0  0  0  0
  -20.9952  -28.3196   24.1451 H   0  0  0  0  0  0
  -20.5660  -26.2249   23.3594 H   0  0  0  0  0  0
  -21.6639  -26.7431   22.1215 H   0  0  0  0  0  0
  -19.6885  -25.6290   21.1236 H   0  0  0  0  0  0
  -19.6675  -27.3189   20.6738 H   0  0  0  0  0  0
  -17.4192  -26.6670   21.4021 H   0  0  0  0  0  0
  -18.0314  -26.0057   22.9015 H   0  0  0  0  0  0
  -19.7927  -30.7248   24.2289 H   0  0  0  0  0  0
  -17.5008  -31.6261   24.5152 H   0  0  0  0  0  0
  -15.5343  -30.2983   23.7627 H   0  0  0  0  0  0
  -15.8672  -28.0816   22.7043 H   0  0  0  0  0  0
  -24.5890  -30.7080   25.7852 H   0  0  0  0  0  0
  -24.8958  -32.2869   26.4981 H   0  0  0  0  0  0
  -25.8115  -30.8864   27.0230 H   0  0  0  0  0  0
  -26.2829  -29.6823   24.1152 H   0  0  0  0  0  0
  -27.4089  -29.7299   25.4531 H   0  0  0  0  0  0
  -27.8653  -30.4393   23.9213 H   0  0  0  0  0  0
  -27.2638  -33.3622   26.2095 H   0  0  0  0  0  0
  -28.3818  -32.6951   25.0294 H   0  0  0  0  0  0
  -28.0738  -31.8455   26.5363 H   0  0  0  0  0  0
  -28.2606  -38.0106   24.7514 H   0  0  0  0  0  0
  -28.1076  -36.2639   24.6288 H   0  0  0  0  0  0
  -27.2306  -37.1472   25.8869 H   0  0  0  0  0  0
  -20.9274  -29.8749   21.6985 H   0  0  0  0  0  0
  -26.0176  -38.2874   24.1399 H   0  0  0  0  0  0
  -27.2638  -19.1412   21.2973 H   0  0  0  0  0  0
  -28.8293  -19.2223   22.0273 H   0  0  0  0  0  0
  -28.4389  -18.0946   19.2152 H   0  0  0  0  0  0
  -28.1640  -17.1146   20.6180 H   0  0  0  0  0  0
  -30.8221  -18.5500   20.3857 H   0  0  0  0  0  0
  -30.5490  -17.1448   19.4167 H   0  0  0  0  0  0
  -30.6460  -25.6404   19.5956 H   0  0  0  0  0  0
  -30.0306  -24.7578   20.9629 H   0  0  0  0  0  0
  -31.3025  -23.3038   19.4002 H   0  0  0  0  0  0
  -30.2498  -23.7320   18.0834 H   0  0  0  0  0  0
  -30.1950  -17.1228   22.4602 H   0  0  0  0  0  0
  -31.6928  -16.7150   21.6701 H   0  0  0  0  0  0
  -27.7507  -24.8111   20.0580 H   0  0  0  0  0  0
  -28.3240  -25.4525   18.5139 H   0  0  0  0  0  0
  -29.2487  -15.0990   21.7781 H   0  0  0  0  0  0
  1 25  1  0  0  0
  1 30  2  0  0  0
  1 83  1  0  0  0
  2  3  1  0  0  0
  2 25  1  0  0  0
  2 86  1  0  0  0
  2 87  1  0  0  0
  3  4  1  0  0  0
  3 88  1  0  0  0
  3 89  1  0  0  0
  4  5  1  0  0  0
  4 90  1  0  0  0
  4 91  1  0  0  0
  5  6  1  0  0  0
  5 26  1  0  0  0
  5 92  1  0  0  0
  6 25  1  0  0  0
  6 93  1  0  0  0
  6 94  1  0  0  0
  7  8  2  0  0  0
  7 26  1  0  0  0
  7 29  1  0  0  0
  8  9  1  0  0  0
  8 22  1  0  0  0
  9 10  1  0  0  0
  9 27  2  0  0  0
 10 11  2  0  0  0
 10 15  1  0  0  0
 11 12  1  0  0  0
 11 95  1  0  0  0
 12 13  2  0  0  0
 12 96  1  0  0  0
 13 14  1  0  0  0
 13 31  1  0  0  0
 14 15  2  0  0  0
 14 97  1  0  0  0
 15 98  1  0  0  0
 16 17  2  0  0  0
 16 21  1  0  0  0
 16 31  1  0  0  0
 17 18  1  0  0  0
 17 99  1  0  0  0
 18 19  2  0  0  0
 18100  1  0  0  0
 19 20  1  0  0  0
 19 24  1  0  0  0
 20 21  2  0  0  0
 20101  1  0  0  0
 21 23  1  0  0  0
 22 28  1  0  0  0
 22 32  2  0  0  0
 26 27  1  0  0  0
 28102  1  0  0  0
 28103  1  0  0  0
 29104  1  0  0  0
 29105  1  0  0  0
 33 34  1  0  0  0
 33 66  1  0  0  0
 33 70  2  0  0  0
 34 36  1  0  0  0
 34 59  1  0  0  0
 34106  1  0  0  0
 35 44  2  0  0  0
 35 45  1  0  0  0
 35 68  1  0  0  0
 36 56  1  0  0  0
 36107  1  0  0  0
 37 39  1  0  0  0
 37 47  1  0  0  0
 37 66  1  0  0  0
 37108  1  0  0  0
 38 43  2  0  0  0
 38 46  1  0  0  0
 38 47  1  0  0  0
 39 64  1  0  0  0
 39 67  2  0  0  0
 40 52  1  0  0  0
 40 53  2  0  0  0
 40 58  1  0  0  0
 41109  1  0  0  0
 41110  1  0  0  0
 41111  1  0  0  0
 41 48  1  0  0  0
 42 43  1  0  0  0
 42 66  1  0  0  0
 42112  1  0  0  0
 42113  1  0  0  0
 43 44  1  0  0  0
 44114  1  0  0  0
 45 46  2  0  0  0
 45115  1  0  0  0
 46116  1  0  0  0
 47117  1  0  0  0
 47118  1  0  0  0
 48 56  1  0  0  0
 48 65  1  0  0  0
 48119  1  0  0  0
 49 50  1  0  0  0
 49 53  1  0  0  0
 49 64  1  0  0  0
 49120  1  0  0  0
 50 51  1  0  0  0
 50121  1  0  0  0
 50122  1  0  0  0
 51 52  1  0  0  0
 51123  1  0  0  0
 51124  1  0  0  0
 52125  1  0  0  0
 52126  1  0  0  0
 53 54  1  0  0  0
 54 55  2  0  0  0
 54127  1  0  0  0
 55 57  1  0  0  0
 55128  1  0  0  0
 56 69  2  0  0  0
 57 58  2  0  0  0
 57129  1  0  0  0
 58130  1  0  0  0
 59 60  1  0  0  0
 59 61  1  0  0  0
 59 62  1  0  0  0
 60131  1  0  0  0
 60132  1  0  0  0
 60133  1  0  0  0
 61134  1  0  0  0
 61135  1  0  0  0
 61136  1  0  0  0
 62137  1  0  0  0
 62138  1  0  0  0
 62139  1  0  0  0
 63 65  1  0  0  0
 63140  1  0  0  0
 63141  1  0  0  0
 63142  1  0  0  0
 64143  1  0  0  0
 65144  1  0  0  0
 68 80  1  0  0  0
 71 72  1  0  0  0
 71 73  2  0  0  0
 71 74  1  0  0  0
 72 81  2  0  0  0
 72 84  1  0  0  0
 73 82  1  0  0  0
 73 85  1  0  0  0
 74 75  1  0  0  0
 74145  1  0  0  0
 74146  1  0  0  0
 75 76  1  0  0  0
 75147  1  0  0  0
 75148  1  0  0  0
 76 79  1  0  0  0
 76149  1  0  0  0
 76150  1  0  0  0
 77 78  1  0  0  0
 77 80  1  0  0  0
 77151  1  0  0  0
 77152  1  0  0  0
 78 82  1  0  0  0
 78153  1  0  0  0
 78154  1  0  0  0
 79 83  1  0  0  0
 79155  1  0  0  0
 79156  1  0  0  0
 80157  1  0  0  0
 80158  1  0  0  0
 81 82  1  0  0  0
 83159  1  0  0  0
M  ISO  4   1 100  68 101  80 101  83 100
M  END
> <chiral flag>
0

> <version>
0

> <s_m_source_file>
/data/baiqing/PycharmProjects/Reinvent-master-3.2/result/LINK_invent/BTK/process_docking_weight1_custom_sum_contain_oxygen_bond_distance_aromatic_linkinvent_7_9_3/rearranged_h_0031.sdf

> <i_m_source_file_index>
1

> <r_mmod_Potential_Energy-OPLS-2005>
-107.996742248535

> <r_mmod_Stretch_Energy-OPLS-2005>
31.7516269683838

> <r_mmod_Bend_Energy-OPLS-2005>
110.389663696289

> <r_mmod_Torsional_Energy-OPLS-2005>
212.518280029297

> <r_mmod_Improper_Torsional_Energy-OPLS-2005>
2.37775111198425

> <r_mmod_Van_der_Waal_Energy-OPLS-2005>
119.585754394531

> <r_mmod_Electrostatic_Energy-OPLS-2005>
-384.120330810547

> <r_mmod_Solvation_Energy-OPLS-2005>
-209.338806152344

> <b_mmod_Minimization_Converged-OPLS-2005>
0

> <r_mmod_RMS_Derivative-OPLS-2005>
0.892531514167786

$$$$
1
                    3D
 Structure written by MMmdl.
160169  0  0  1  0            999 V2000
  -30.5618  -14.7782   20.4732 C   0  0  0  0  0  0
  -30.4491  -12.4730   19.4800 C   0  0  0  0  0  0
  -29.5195  -12.5019   18.2432 C   0  0  0  0  0  0
  -28.0462  -12.3180   18.6568 C   0  0  0  0  0  0
  -27.6477  -13.2194   19.8536 C   0  0  2  0  0  0
  -28.6911  -13.1440   20.9910 C   0  0  0  0  0  0
  -25.2485  -13.8099   20.5484 C   0  0  0  0  0  0
  -24.1825  -13.0399   20.9227 C   0  0  0  0  0  0
  -24.6414  -11.6879   20.8823 C   0  0  0  0  0  0
  -23.9077  -10.4265   21.0453 C   0  0  0  0  0  0
  -24.3625   -9.4161   21.9215 C   0  0  0  0  0  0
  -23.6279   -8.2207   22.0766 C   0  0  0  0  0  0
  -22.4268   -8.0265   21.3545 C   0  0  0  0  0  0
  -21.9904   -9.0254   20.4656 C   0  0  0  0  0  0
  -22.7252  -10.2125   20.3084 C   0  0  0  0  0  0
  -21.6848   -6.0723   22.5271 C   0  0  0  0  0  0
  -21.4022   -6.5627   23.8205 C   0  0  0  0  0  0
  -21.3656   -5.6787   24.9163 C   0  0  0  0  0  0
  -21.6043   -4.3050   24.7221 C   0  0  0  0  0  0
  -21.8816   -3.8133   23.4345 C   0  0  0  0  0  0
  -21.9182   -4.6950   22.3401 C   0  0  0  0  0  0
  -22.7850  -13.5196   21.1848 C   0  0  0  0  0  0
  -22.1651   -4.2135   21.0971 F   0  0  0  0  0  0
  -21.5618   -3.4527   25.7735 F   0  0  0  0  0  0
  -29.9915  -13.5238   20.4201 N   0  0  0  0  0  0
  -26.2963  -12.9325   20.3259 N   0  0  0  0  0  0
  -25.9356  -11.6502   20.5847 N   0  0  0  0  0  0
  -22.0475  -12.8227   22.0423 N   0  0  0  0  0  0
  -25.4007  -15.1744   20.3355 N   0  0  0  0  0  0
  -31.7362  -14.9346   20.1187 O   0  0  0  0  0  0
  -21.6628   -6.8865   21.4227 O   0  0  0  0  0  0
  -22.3553  -14.5485   20.6643 O   0  0  0  0  0  0
  -24.6293  -31.8546   23.1955 C   0  0  0  0  0  0
  -25.9110  -32.4749   23.8304 C   0  0  1  0  0  0
  -27.2290  -27.2724   20.1319 C   0  0  0  0  0  0
  -25.5911  -33.8555   24.2242 N   0  0  0  0  0  0
  -23.4257  -30.4748   21.5395 C   0  0  2  0  0  0
  -24.8729  -28.9163   20.1158 C   0  0  0  0  0  0
  -22.7489  -29.4596   22.4906 C   0  0  0  0  0  0
  -18.0303  -28.1378   22.8474 C   0  0  0  0  0  0
  -24.1495  -36.7297   23.2630 C   0  0  0  0  0  0
  -25.9694  -30.7737   21.3687 C   0  0  0  0  0  0
  -26.0450  -29.3946   20.7152 C   0  0  0  0  0  0
  -27.2267  -28.5884   20.7044 C   0  0  0  0  0  0
  -26.0279  -26.8481   19.5245 C   0  0  0  0  0  0
  -24.8684  -27.6499   19.5099 C   0  0  0  0  0  0
  -23.6434  -29.8028   20.1578 C   0  0  0  0  0  0
  -25.4109  -36.3067   24.0329 C   0  0  1  0  0  0
  -20.5900  -28.3688   23.1267 C   0  0  2  0  0  0
  -20.6782  -26.9400   22.5417 C   0  0  0  0  0  0
  -19.5771  -26.6372   21.5207 C   0  0  0  0  0  0
  -18.1948  -26.7918   22.1615 C   0  0  0  0  0  0
  -19.1545  -28.8851   23.2872 C   0  0  0  0  0  0
  -18.9472  -30.1444   23.8906 C   0  0  0  0  0  0
  -17.6467  -30.6569   24.0569 C   0  0  0  0  0  0
  -25.9053  -34.9432   23.5094 C   0  0  0  0  0  0
  -16.5363  -29.9076   23.6315 C   0  0  0  0  0  0
  -16.7281  -28.6493   23.0337 C   0  0  0  0  0  0
  -26.4491  -31.6575   25.0683 C   0  0  0  0  0  0
  -25.3735  -31.3756   26.1435 C   0  0  0  0  0  0
  -27.0305  -30.2985   24.6141 C   0  0  0  0  0  0
  -27.6062  -32.4307   25.7432 C   0  0  0  0  0  0
  -27.5596  -37.1778   24.8441 C   0  0  0  0  0  0
  -21.4195  -29.3034   22.3652 N   0  0  0  0  0  0
  -26.4285  -37.3764   23.9419 N   0  0  0  0  0  0
  -24.6941  -31.0523   22.0919 N   0  0  0  0  0  0
  -23.4189  -28.8143   23.3009 O   0  0  0  0  0  0
  -28.3600  -26.4273   20.1422 O   0  0  0  0  0  0
  -26.5636  -34.8913   22.4671 O   0  0  0  0  0  0
  -23.5444  -32.1357   23.7272 O   0  0  0  0  0  0
  -28.5612  -19.5498   20.9748 C   0  0  0  0  0  0
  -30.7800  -18.1111   20.0948 C   0  0  0  0  0  0
  -29.5824  -20.3249   20.3687 C   0  0  0  0  0  0
  -28.6185  -18.1200   21.1126 C   0  0  0  0  0  0
  -29.7328  -17.3286   20.6644 C   0  0  0  0  0  0
  -30.7123  -19.5440   19.9503 C   0  0  0  0  0  0
  -29.5790  -22.8366   21.4082 C   0  0  0  0  0  0
  -28.1586  -22.4358   19.4353 C   0  0  0  0  0  0
  -29.5191  -24.3971   21.1235 C   0  0  0  0  0  0
  -28.1093  -23.9948   19.1353 C   0  0  0  0  0  0
  -29.4489  -21.9163   20.1516 C   0  0  2  0  0  0
  -28.2540  -24.9452   20.3781 C   0  0  2  0  0  0
  -27.3986  -17.4777   21.7567 C   0  0  0  0  0  0
  -29.7133  -15.8367   20.7852 N   0  0  0  0  0  0
  -32.0712  -20.3225   19.2190 Cl  0  0  0  0  0  0
  -31.4854  -12.6239   19.1741 H   0  0  0  0  0  0
  -30.4172  -11.4967   19.9665 H   0  0  0  0  0  0
  -29.8046  -11.7172   17.5405 H   0  0  0  0  0  0
  -29.6380  -13.4476   17.7115 H   0  0  0  0  0  0
  -27.9093  -11.2693   18.9281 H   0  0  0  0  0  0
  -27.3874  -12.4980   17.8063 H   0  0  0  0  0  0
  -27.6452  -14.2409   19.4746 H   0  0  0  0  0  0
  -28.7392  -12.1386   21.4119 H   0  0  0  0  0  0
  -28.4151  -13.8002   21.8173 H   0  0  0  0  0  0
  -25.2783   -9.5612   22.4780 H   0  0  0  0  0  0
  -23.9970   -7.4589   22.7488 H   0  0  0  0  0  0
  -21.0827   -8.8805   19.8969 H   0  0  0  0  0  0
  -22.3742  -10.9677   19.6190 H   0  0  0  0  0  0
  -21.2038   -7.6151   23.9706 H   0  0  0  0  0  0
  -21.1472   -6.0521   25.9069 H   0  0  0  0  0  0
  -22.0601   -2.7590   23.2859 H   0  0  0  0  0  0
  -22.4095  -11.9912   22.4858 H   0  0  0  0  0  0
  -21.1101  -13.1277   22.2599 H   0  0  0  0  0  0
  -24.5347  -15.6969   20.2459 H   0  0  0  0  0  0
  -26.0671  -15.4458   19.6252 H   0  0  0  0  0  0
  -26.7171  -32.5414   23.1042 H   0  0  0  0  0  0
  -25.0016  -33.9682   25.0359 H   0  0  0  0  0  0
  -22.7218  -31.2962   21.3896 H   0  0  0  0  0  0
  -23.3729  -35.9661   23.3309 H   0  0  0  0  0  0
  -24.3589  -36.8896   22.2042 H   0  0  0  0  0  0
  -23.7275  -37.6521   23.6632 H   0  0  0  0  0  0
  -26.0985  -31.5305   20.5941 H   0  0  0  0  0  0
  -26.8505  -30.8301   21.9957 H   0  0  0  0  0  0
  -28.1304  -28.9553   21.1715 H   0  0  0  0  0  0
  -25.9645  -25.8795   19.0586 H   0  0  0  0  0  0
  -23.9691  -27.2735   19.0407 H   0  0  0  0  0  0
  -23.7662  -30.5761   19.3985 H   0  0  0  0  0  0
  -22.7626  -29.2339   19.8540 H   0  0  0  0  0  0
  -25.1281  -36.1917   25.0818 H   0  0  0  0  0  0
  -20.9999  -28.3281   24.1385 H   0  0  0  0  0  0
  -20.5643  -26.2305   23.3626 H   0  0  0  0  0  0
  -21.6657  -26.7395   22.1243 H   0  0  0  0  0  0
  -19.6935  -25.6283   21.1230 H   0  0  0  0  0  0
  -19.6713  -27.3190   20.6746 H   0  0  0  0  0  0
  -17.4213  -26.6646   21.4028 H   0  0  0  0  0  0
  -18.0365  -26.0062   22.9013 H   0  0  0  0  0  0
  -19.7950  -30.7253   24.2283 H   0  0  0  0  0  0
  -17.5022  -31.6249   24.5171 H   0  0  0  0  0  0
  -15.5360  -30.2986   23.7617 H   0  0  0  0  0  0
  -15.8691  -28.0810   22.7044 H   0  0  0  0  0  0
  -24.5914  -30.7076   25.7810 H   0  0  0  0  0  0
  -24.8926  -32.2944   26.4809 H   0  0  0  0  0  0
  -25.8081  -30.8995   27.0233 H   0  0  0  0  0  0
  -26.2861  -29.6751   24.1170 H   0  0  0  0  0  0
  -27.4002  -29.7227   25.4633 H   0  0  0  0  0  0
  -27.8739  -30.4255   23.9349 H   0  0  0  0  0  0
  -27.2672  -33.3593   26.2032 H   0  0  0  0  0  0
  -28.3844  -32.6886   25.0235 H   0  0  0  0  0  0
  -28.0758  -31.8419   26.5319 H   0  0  0  0  0  0
  -28.2573  -38.0114   24.7535 H   0  0  0  0  0  0
  -28.1128  -36.2652   24.6177 H   0  0  0  0  0  0
  -27.2339  -37.1327   25.8847 H   0  0  0  0  0  0
  -20.9371  -29.8765   21.6873 H   0  0  0  0  0  0
  -26.0168  -38.2826   24.1469 H   0  0  0  0  0  0
  -27.6893  -20.0737   21.3394 H   0  0  0  0  0  0
  -31.6640  -17.6083   19.7347 H   0  0  0  0  0  0
  -28.7993  -22.5791   22.1255 H   0  0  0  0  0  0
  -30.5268  -22.6181   21.9005 H   0  0  0  0  0  0
  -28.0498  -21.8995   18.4922 H   0  0  0  0  0  0
  -27.2853  -22.1691   20.0314 H   0  0  0  0  0  0
  -30.4040  -24.6741   20.5470 H   0  0  0  0  0  0
  -29.6135  -24.9296   22.0708 H   0  0  0  0  0  0
  -27.1732  -24.1989   18.6219 H   0  0  0  0  0  0
  -28.8893  -24.2351   18.4134 H   0  0  0  0  0  0
  -30.2687  -22.2012   19.4933 H   0  0  0  0  0  0
  -27.3951  -24.7810   21.0318 H   0  0  0  0  0  0
  -27.1629  -17.9897   22.6910 H   0  0  0  0  0  0
  -27.5180  -16.4200   21.9835 H   0  0  0  0  0  0
  -26.5319  -17.5880   21.1029 H   0  0  0  0  0  0
  -28.8177  -15.4878   21.0899 H   0  0  0  0  0  0
  1 25  1  0  0  0
  1 30  2  0  0  0
  1 84  1  0  0  0
  2  3  1  0  0  0
  2 25  1  0  0  0
  2 86  1  0  0  0
  2 87  1  0  0  0
  3  4  1  0  0  0
  3 88  1  0  0  0
  3 89  1  0  0  0
  4  5  1  0  0  0
  4 90  1  0  0  0
  4 91  1  0  0  0
  5  6  1  0  0  0
  5 26  1  0  0  0
  5 92  1  0  0  0
  6 25  1  0  0  0
  6 93  1  0  0  0
  6 94  1  0  0  0
  7  8  2  0  0  0
  7 26  1  0  0  0
  7 29  1  0  0  0
  8  9  1  0  0  0
  8 22  1  0  0  0
  9 10  1  0  0  0
  9 27  2  0  0  0
 10 11  2  0  0  0
 10 15  1  0  0  0
 11 12  1  0  0  0
 11 95  1  0  0  0
 12 13  2  0  0  0
 12 96  1  0  0  0
 13 14  1  0  0  0
 13 31  1  0  0  0
 14 15  2  0  0  0
 14 97  1  0  0  0
 15 98  1  0  0  0
 16 17  2  0  0  0
 16 21  1  0  0  0
 16 31  1  0  0  0
 17 18  1  0  0  0
 17 99  1  0  0  0
 18 19  2  0  0  0
 18100  1  0  0  0
 19 20  1  0  0  0
 19 24  1  0  0  0
 20 21  2  0  0  0
 20101  1  0  0  0
 21 23  1  0  0  0
 22 28  1  0  0  0
 22 32  2  0  0  0
 26 27  1  0  0  0
 28102  1  0  0  0
 28103  1  0  0  0
 29104  1  0  0  0
 29105  1  0  0  0
 33 34  1  0  0  0
 33 66  1  0  0  0
 33 70  2  0  0  0
 34 36  1  0  0  0
 34 59  1  0  0  0
 34106  1  0  0  0
 35 44  2  0  0  0
 35 45  1  0  0  0
 35 68  1  0  0  0
 36 56  1  0  0  0
 36107  1  0  0  0
 37 39  1  0  0  0
 37 47  1  0  0  0
 37 66  1  0  0  0
 37108  1  0  0  0
 38 43  2  0  0  0
 38 46  1  0  0  0
 38 47  1  0  0  0
 39 64  1  0  0  0
 39 67  2  0  0  0
 40 52  1  0  0  0
 40 53  2  0  0  0
 40 58  1  0  0  0
 41109  1  0  0  0
 41110  1  0  0  0
 41111  1  0  0  0
 41 48  1  0  0  0
 42 43  1  0  0  0
 42 66  1  0  0  0
 42112  1  0  0  0
 42113  1  0  0  0
 43 44  1  0  0  0
 44114  1  0  0  0
 45 46  2  0  0  0
 45115  1  0  0  0
 46116  1  0  0  0
 47117  1  0  0  0
 47118  1  0  0  0
 48 56  1  0  0  0
 48 65  1  0  0  0
 48119  1  0  0  0
 49 50  1  0  0  0
 49 53  1  0  0  0
 49 64  1  0  0  0
 49120  1  0  0  0
 50 51  1  0  0  0
 50121  1  0  0  0
 50122  1  0  0  0
 51 52  1  0  0  0
 51123  1  0  0  0
 51124  1  0  0  0
 52125  1  0  0  0
 52126  1  0  0  0
 53 54  1  0  0  0
 54 55  2  0  0  0
 54127  1  0  0  0
 55 57  1  0  0  0
 55128  1  0  0  0
 56 69  2  0  0  0
 57 58  2  0  0  0
 57129  1  0  0  0
 58130  1  0  0  0
 59 60  1  0  0  0
 59 61  1  0  0  0
 59 62  1  0  0  0
 60131  1  0  0  0
 60132  1  0  0  0
 60133  1  0  0  0
 61134  1  0  0  0
 61135  1  0  0  0
 61136  1  0  0  0
 62137  1  0  0  0
 62138  1  0  0  0
 62139  1  0  0  0
 63 65  1  0  0  0
 63140  1  0  0  0
 63141  1  0  0  0
 63142  1  0  0  0
 64143  1  0  0  0
 65144  1  0  0  0
 68 82  1  0  0  0
 71 73  2  0  0  0
 71 74  1  0  0  0
 71145  1  0  0  0
 72 75  1  0  0  0
 72 76  2  0  0  0
 72146  1  0  0  0
 73 76  1  0  0  0
 73 81  1  0  0  0
 74 75  2  0  0  0
 74 83  1  0  0  0
 75 84  1  0  0  0
 76 85  1  0  0  0
 77 79  1  0  0  0
 77 81  1  0  0  0
 77147  1  0  0  0
 77148  1  0  0  0
 78 80  1  0  0  0
 78 81  1  0  0  0
 78149  1  0  0  0
 78150  1  0  0  0
 79 82  1  0  0  0
 79151  1  0  0  0
 79152  1  0  0  0
 80 82  1  0  0  0
 80153  1  0  0  0
 80154  1  0  0  0
 81155  1  0  0  0
 82156  1  0  0  0
 83157  1  0  0  0
 83158  1  0  0  0
 83159  1  0  0  0
 84160  1  0  0  0
M  ISO  4   1 100  68 101  82 101  84 100
M  END
> <chiral flag>
0

> <version>
0

> <s_m_source_file>
/data/baiqing/PycharmProjects/Reinvent-master-3.2/result/LINK_invent/BTK/process_docking_weight1_custom_sum_contain_oxygen_bond_distance_aromatic_linkinvent_7_9_3/rearranged_h_0031.sdf

> <i_m_source_file_index>
2

> <r_mmod_Potential_Energy-OPLS-2005>
175.938049316406

> <r_mmod_Stretch_Energy-OPLS-2005>
115.585411071777

> <r_mmod_Bend_Energy-OPLS-2005>
171.725677490234

> <r_mmod_Torsional_Energy-OPLS-2005>
242.906707763672

> <r_mmod_Improper_Torsional_Energy-OPLS-2005>
8.22828388214111

> <r_mmod_Van_der_Waal_Energy-OPLS-2005>
133.845169067383

> <r_mmod_Electrostatic_Energy-OPLS-2005>
-388.968841552734

> <r_mmod_Solvation_Energy-OPLS-2005>
-194.862396240234

> <b_mmod_Minimization_Converged-OPLS-2005>
0

> <r_mmod_RMS_Derivative-OPLS-2005>
3.09487748146057

$$$$
2
                    3D
 Structure written by MMmdl.
153161  0  0  1  0            999 V2000
  -30.5642  -14.9714   20.4215 C   0  0  0  0  0  0
  -30.4377  -12.6074   19.5021 C   0  0  0  0  0  0
  -29.5218  -12.5379   18.2582 C   0  0  0  0  0  0
  -28.0615  -12.3044   18.6864 C   0  0  0  0  0  0
  -27.6296  -13.2534   19.8350 C   0  0  2  0  0  0
  -28.6703  -13.3138   20.9724 C   0  0  0  0  0  0
  -25.2471  -13.8231   20.5699 C   0  0  0  0  0  0
  -24.1786  -13.0452   20.9231 C   0  0  0  0  0  0
  -24.6401  -11.6940   20.8756 C   0  0  0  0  0  0
  -23.9074  -10.4306   21.0410 C   0  0  0  0  0  0
  -24.3607   -9.4227   21.9189 C   0  0  0  0  0  0
  -23.6288   -8.2263   22.0752 C   0  0  0  0  0  0
  -22.4277   -8.0280   21.3542 C   0  0  0  0  0  0
  -21.9909   -9.0264   20.4653 C   0  0  0  0  0  0
  -22.7241  -10.2151   20.3064 C   0  0  0  0  0  0
  -21.6876   -6.0724   22.5276 C   0  0  0  0  0  0
  -21.4024   -6.5634   23.8203 C   0  0  0  0  0  0
  -21.3663   -5.6792   24.9168 C   0  0  0  0  0  0
  -21.6048   -4.3054   24.7228 C   0  0  0  0  0  0
  -21.8819   -3.8144   23.4351 C   0  0  0  0  0  0
  -21.9192   -4.6950   22.3402 C   0  0  0  0  0  0
  -22.7814  -13.5224   21.1909 C   0  0  0  0  0  0
  -22.1665   -4.2130   21.0981 F   0  0  0  0  0  0
  -21.5622   -3.4532   25.7742 F   0  0  0  0  0  0
  -29.9476  -13.7187   20.3697 N   0  0  0  0  0  0
  -26.2900  -12.9475   20.3242 N   0  0  0  0  0  0
  -25.9329  -11.6603   20.5744 N   0  0  0  0  0  0
  -22.0454  -12.8220   22.0471 N   0  0  0  0  0  0
  -25.4123  -15.1951   20.4091 N   0  0  0  0  0  0
  -31.7702  -15.0062   20.1601 O   0  0  0  0  0  0
  -21.6655   -6.8869   21.4242 O   0  0  0  0  0  0
  -22.3505  -14.5536   20.6771 O   0  0  0  0  0  0
  -24.6452  -31.8419   23.1846 C   0  0  0  0  0  0
  -25.9212  -32.4682   23.8251 C   0  0  1  0  0  0
  -27.2328  -27.1223   20.1590 C   0  0  0  0  0  0
  -25.5947  -33.8488   24.2164 N   0  0  0  0  0  0
  -23.4504  -30.4569   21.5308 C   0  0  2  0  0  0
  -24.9035  -28.8759   20.1131 C   0  0  0  0  0  0
  -22.7575  -29.4538   22.4867 C   0  0  0  0  0  0
  -18.0308  -28.1395   22.8476 C   0  0  0  0  0  0
  -24.1494  -36.7249   23.2639 C   0  0  0  0  0  0
  -26.0067  -30.7107   21.3844 C   0  0  0  0  0  0
  -26.0812  -29.3194   20.7270 C   0  0  0  0  0  0
  -27.2450  -28.4605   20.7292 C   0  0  0  0  0  0
  -26.0263  -26.7796   19.5094 C   0  0  0  0  0  0
  -24.8891  -27.6191   19.4881 C   0  0  0  0  0  0
  -23.6787  -29.7774   20.1544 C   0  0  0  0  0  0
  -25.4126  -36.3022   24.0309 C   0  0  1  0  0  0
  -20.5926  -28.3725   23.1232 C   0  0  2  0  0  0
  -20.6791  -26.9428   22.5402 C   0  0  0  0  0  0
  -19.5763  -26.6383   21.5210 C   0  0  0  0  0  0
  -18.1945  -26.7933   22.1623 C   0  0  0  0  0  0
  -19.1568  -28.8878   23.2842 C   0  0  0  0  0  0
  -18.9479  -30.1474   23.8872 C   0  0  0  0  0  0
  -17.6474  -30.6594   24.0559 C   0  0  0  0  0  0
  -25.9082  -34.9395   23.5049 C   0  0  0  0  0  0
  -16.5367  -29.9084   23.6336 C   0  0  0  0  0  0
  -16.7290  -28.6499   23.0361 C   0  0  0  0  0  0
  -26.4521  -31.6559   25.0700 C   0  0  0  0  0  0
  -25.3696  -31.3750   26.1392 C   0  0  0  0  0  0
  -27.0390  -30.2948   24.6299 C   0  0  0  0  0  0
  -27.6045  -32.4331   25.7489 C   0  0  0  0  0  0
  -27.5578  -37.1779   24.8465 C   0  0  0  0  0  0
  -21.4265  -29.3042   22.3600 N   0  0  0  0  0  0
  -26.4291  -37.3735   23.9407 N   0  0  0  0  0  0
  -24.7207  -31.0264   22.0880 N   0  0  0  0  0  0
  -23.4205  -28.8091   23.3037 O   0  0  0  0  0  0
  -28.2932  -26.1379   20.2364 O   0  0  0  0  0  0
  -26.5674  -34.8900   22.4634 O   0  0  0  0  0  0
  -23.5564  -32.1300   23.7059 O   0  0  0  0  0  0
  -27.4903  -21.3013   19.8084 C   0  0  0  0  0  0
  -27.9971  -18.8667   19.8662 C   0  0  0  0  0  0
  -27.1152  -19.9473   19.6168 C   0  0  0  0  0  0
  -28.7729  -21.6729   20.2607 C   0  0  0  0  0  0
  -29.3113  -19.0625   20.3308 C   0  0  0  0  0  0
  -29.6690  -20.5040   20.5140 C   0  0  0  0  0  0
  -25.7207  -19.6442   19.1080 C   0  0  0  0  0  0
  -29.0836  -23.2957   20.4455 C   0  0  0  0  0  0
  -30.2577  -17.7154   20.5587 C   0  0  0  0  0  0
  -28.0497  -24.5956   20.0767 C   0  0  0  0  0  0
  -29.8223  -16.1834   20.5611 N   0  0  0  0  0  0
  -31.2688  -20.8531   21.0621 Cl  0  0  0  0  0  0
  -31.4730  -12.7549   19.1924 H   0  0  0  0  0  0
  -30.4217  -11.6622   20.0482 H   0  0  0  0  0  0
  -29.8512  -11.7394   17.5914 H   0  0  0  0  0  0
  -29.5976  -13.4655   17.6878 H   0  0  0  0  0  0
  -27.9829  -11.2704   19.0232 H   0  0  0  0  0  0
  -27.3878  -12.3953   17.8344 H   0  0  0  0  0  0
  -27.5840  -14.2459   19.3869 H   0  0  0  0  0  0
  -28.7587  -12.3538   21.4821 H   0  0  0  0  0  0
  -28.3683  -14.0396   21.7291 H   0  0  0  0  0  0
  -25.2743   -9.5716   22.4773 H   0  0  0  0  0  0
  -23.9990   -7.4671   22.7486 H   0  0  0  0  0  0
  -21.0830   -8.8804   19.8974 H   0  0  0  0  0  0
  -22.3691  -10.9685   19.6180 H   0  0  0  0  0  0
  -21.2020   -7.6141   23.9692 H   0  0  0  0  0  0
  -21.1492   -6.0527   25.9062 H   0  0  0  0  0  0
  -22.0588   -2.7592   23.2869 H   0  0  0  0  0  0
  -22.4007  -11.9861   22.4849 H   0  0  0  0  0  0
  -21.1061  -13.1264   22.2633 H   0  0  0  0  0  0
  -24.6443  -15.8480   20.5191 H   0  0  0  0  0  0
  -26.2546  -15.6331   20.0600 H   0  0  0  0  0  0
  -26.7272  -32.5288   23.0975 H   0  0  0  0  0  0
  -25.0057  -33.9595   25.0286 H   0  0  0  0  0  0
  -22.7531  -31.2831   21.3708 H   0  0  0  0  0  0
  -23.3763  -35.9580   23.3292 H   0  0  0  0  0  0
  -24.3572  -36.8896   22.2058 H   0  0  0  0  0  0
  -23.7259  -37.6439   23.6687 H   0  0  0  0  0  0
  -26.1645  -31.4644   20.6127 H   0  0  0  0  0  0
  -26.8757  -30.7633   22.0289 H   0  0  0  0  0  0
  -28.1432  -28.7987   21.2260 H   0  0  0  0  0  0
  -25.9318  -25.8161   19.0336 H   0  0  0  0  0  0
  -23.9883  -27.2712   19.0034 H   0  0  0  0  0  0
  -23.8137  -30.5473   19.3939 H   0  0  0  0  0  0
  -22.7949  -29.2162   19.8460 H   0  0  0  0  0  0
  -25.1322  -36.1835   25.0803 H   0  0  0  0  0  0
  -21.0005  -28.3316   24.1359 H   0  0  0  0  0  0
  -20.5684  -26.2341   23.3623 H   0  0  0  0  0  0
  -21.6656  -26.7435   22.1203 H   0  0  0  0  0  0
  -19.6933  -25.6285   21.1257 H   0  0  0  0  0  0
  -19.6703  -27.3178   20.6725 H   0  0  0  0  0  0
  -17.4216  -26.6676   21.4024 H   0  0  0  0  0  0
  -18.0351  -26.0078   22.9022 H   0  0  0  0  0  0
  -19.7957  -30.7294   24.2231 H   0  0  0  0  0  0
  -17.5033  -31.6272   24.5164 H   0  0  0  0  0  0
  -15.5367  -30.2980   23.7678 H   0  0  0  0  0  0
  -15.8688  -28.0806   22.7100 H   0  0  0  0  0  0
  -24.5896  -30.7075   25.7706 H   0  0  0  0  0  0
  -24.8864  -32.2936   26.4734 H   0  0  0  0  0  0
  -25.7982  -30.8978   27.0218 H   0  0  0  0  0  0
  -26.3012  -29.6667   24.1297 H   0  0  0  0  0  0
  -27.3979  -29.7248   25.4881 H   0  0  0  0  0  0
  -27.8926  -30.4168   23.9631 H   0  0  0  0  0  0
  -27.2629  -33.3660   26.1987 H   0  0  0  0  0  0
  -28.3898  -32.6854   25.0347 H   0  0  0  0  0  0
  -28.0666  -31.8509   26.5475 H   0  0  0  0  0  0
  -28.2581  -38.0084   24.7516 H   0  0  0  0  0  0
  -28.1087  -36.2620   24.6289 H   0  0  0  0  0  0
  -27.2292  -37.1416   25.8861 H   0  0  0  0  0  0
  -20.9489  -29.8726   21.6747 H   0  0  0  0  0  0
  -26.0153  -38.2800   24.1408 H   0  0  0  0  0  0
  -26.7712  -22.0797   19.5961 H   0  0  0  0  0  0
  -27.6601  -17.8572   19.6810 H   0  0  0  0  0  0
  -24.9947  -20.3567   19.5018 H   0  0  0  0  0  0
  -25.4005  -18.6444   19.4049 H   0  0  0  0  0  0
  -25.7024  -19.7029   18.0191 H   0  0  0  0  0  0
  -30.0161  -23.4690   19.9084 H   0  0  0  0  0  0
  -29.3566  -23.4102   21.4956 H   0  0  0  0  0  0
  -30.7597  -17.8751   21.5143 H   0  0  0  0  0  0
  -31.0553  -17.7961   19.8176 H   0  0  0  0  0  0
  -27.1287  -24.3979   20.6263 H   0  0  0  0  0  0
  -27.7901  -24.4609   19.0259 H   0  0  0  0  0  0
  -28.8384  -16.0367   20.7231 H   0  0  0  0  0  0
  1 25  1  0  0  0
  1 30  2  0  0  0
  1 81  1  0  0  0
  2  3  1  0  0  0
  2 25  1  0  0  0
  2 83  1  0  0  0
  2 84  1  0  0  0
  3  4  1  0  0  0
  3 85  1  0  0  0
  3 86  1  0  0  0
  4  5  1  0  0  0
  4 87  1  0  0  0
  4 88  1  0  0  0
  5  6  1  0  0  0
  5 26  1  0  0  0
  5 89  1  0  0  0
  6 25  1  0  0  0
  6 90  1  0  0  0
  6 91  1  0  0  0
  7  8  2  0  0  0
  7 26  1  0  0  0
  7 29  1  0  0  0
  8  9  1  0  0  0
  8 22  1  0  0  0
  9 10  1  0  0  0
  9 27  2  0  0  0
 10 11  2  0  0  0
 10 15  1  0  0  0
 11 12  1  0  0  0
 11 92  1  0  0  0
 12 13  2  0  0  0
 12 93  1  0  0  0
 13 14  1  0  0  0
 13 31  1  0  0  0
 14 15  2  0  0  0
 14 94  1  0  0  0
 15 95  1  0  0  0
 16 17  2  0  0  0
 16 21  1  0  0  0
 16 31  1  0  0  0
 17 18  1  0  0  0
 17 96  1  0  0  0
 18 19  2  0  0  0
 18 97  1  0  0  0
 19 20  1  0  0  0
 19 24  1  0  0  0
 20 21  2  0  0  0
 20 98  1  0  0  0
 21 23  1  0  0  0
 22 28  1  0  0  0
 22 32  2  0  0  0
 26 27  1  0  0  0
 28 99  1  0  0  0
 28100  1  0  0  0
 29101  1  0  0  0
 29102  1  0  0  0
 33 34  1  0  0  0
 33 66  1  0  0  0
 33 70  2  0  0  0
 34 36  1  0  0  0
 34 59  1  0  0  0
 34103  1  0  0  0
 35 44  2  0  0  0
 35 45  1  0  0  0
 35 68  1  0  0  0
 36 56  1  0  0  0
 36104  1  0  0  0
 37 39  1  0  0  0
 37 47  1  0  0  0
 37 66  1  0  0  0
 37105  1  0  0  0
 38 43  2  0  0  0
 38 46  1  0  0  0
 38 47  1  0  0  0
 39 64  1  0  0  0
 39 67  2  0  0  0
 40 52  1  0  0  0
 40 53  2  0  0  0
 40 58  1  0  0  0
 41106  1  0  0  0
 41107  1  0  0  0
 41108  1  0  0  0
 41 48  1  0  0  0
 42 43  1  0  0  0
 42 66  1  0  0  0
 42109  1  0  0  0
 42110  1  0  0  0
 43 44  1  0  0  0
 44111  1  0  0  0
 45 46  2  0  0  0
 45112  1  0  0  0
 46113  1  0  0  0
 47114  1  0  0  0
 47115  1  0  0  0
 48 56  1  0  0  0
 48 65  1  0  0  0
 48116  1  0  0  0
 49 50  1  0  0  0
 49 53  1  0  0  0
 49 64  1  0  0  0
 49117  1  0  0  0
 50 51  1  0  0  0
 50118  1  0  0  0
 50119  1  0  0  0
 51 52  1  0  0  0
 51120  1  0  0  0
 51121  1  0  0  0
 52122  1  0  0  0
 52123  1  0  0  0
 53 54  1  0  0  0
 54 55  2  0  0  0
 54124  1  0  0  0
 55 57  1  0  0  0
 55125  1  0  0  0
 56 69  2  0  0  0
 57 58  2  0  0  0
 57126  1  0  0  0
 58127  1  0  0  0
 59 60  1  0  0  0
 59 61  1  0  0  0
 59 62  1  0  0  0
 60128  1  0  0  0
 60129  1  0  0  0
 60130  1  0  0  0
 61131  1  0  0  0
 61132  1  0  0  0
 61133  1  0  0  0
 62134  1  0  0  0
 62135  1  0  0  0
 62136  1  0  0  0
 63 65  1  0  0  0
 63137  1  0  0  0
 63138  1  0  0  0
 63139  1  0  0  0
 64140  1  0  0  0
 65141  1  0  0  0
 68 80  1  0  0  0
 71 73  2  0  0  0
 71 74  1  0  0  0
 71142  1  0  0  0
 72 73  1  0  0  0
 72 75  2  0  0  0
 72143  1  0  0  0
 73 77  1  0  0  0
 74 76  2  0  0  0
 74 78  1  0  0  0
 75 76  1  0  0  0
 75 79  1  0  0  0
 76 82  1  0  0  0
 77144  1  0  0  0
 77145  1  0  0  0
 77146  1  0  0  0
 78 80  1  0  0  0
 78147  1  0  0  0
 78148  1  0  0  0
 79 81  1  0  0  0
 79149  1  0  0  0
 79150  1  0  0  0
 80151  1  0  0  0
 80152  1  0  0  0
 81153  1  0  0  0
M  ISO  4   1 100  68 101  80 101  81 100
M  END
> <chiral flag>
0

> <version>
0

> <s_m_source_file>
/data/baiqing/PycharmProjects/Reinvent-master-3.2/result/LINK_invent/BTK/process_docking_weight1_custom_sum_contain_oxygen_bond_distance_aromatic_linkinvent_7_9_3/rearranged_h_0031.sdf

> <i_m_source_file_index>
3

> <r_mmod_Potential_Energy-OPLS-2005>
456.939147949219

> <r_mmod_Stretch_Energy-OPLS-2005>
278.317993164062

> <r_mmod_Bend_Energy-OPLS-2005>
246.857864379883

> <r_mmod_Torsional_Energy-OPLS-2005>
197.050262451172

> <r_mmod_Improper_Torsional_Energy-OPLS-2005>
4.24231767654419

> <r_mmod_Van_der_Waal_Energy-OPLS-2005>
122.703590393066

> <r_mmod_Electrostatic_Energy-OPLS-2005>
-388.140441894531

> <r_mmod_Solvation_Energy-OPLS-2005>
-211.349212646484

> <b_mmod_Minimization_Converged-OPLS-2005>
0

> <r_mmod_RMS_Derivative-OPLS-2005>
2.556077003479

$$$$
3
                    3D
 Structure written by MMmdl.
169178  0  0  1  0            999 V2000
  -30.6314  -14.7123   20.4740 C   0  0  0  0  0  0
  -30.4289  -12.4393   19.4757 C   0  0  0  0  0  0
  -29.5082  -12.5044   18.2390 C   0  0  0  0  0  0
  -28.0363  -12.3170   18.6536 C   0  0  0  0  0  0
  -27.6399  -13.2136   19.8559 C   0  0  2  0  0  0
  -28.6835  -13.1596   20.9927 C   0  0  0  0  0  0
  -25.2500  -13.8085   20.5697 C   0  0  0  0  0  0
  -24.1778  -13.0368   20.9227 C   0  0  0  0  0  0
  -24.6365  -11.6850   20.8776 C   0  0  0  0  0  0
  -23.9041  -10.4232   21.0440 C   0  0  0  0  0  0
  -24.3593   -9.4135   21.9198 C   0  0  0  0  0  0
  -23.6252   -8.2183   22.0749 C   0  0  0  0  0  0
  -22.4239   -8.0238   21.3538 C   0  0  0  0  0  0
  -21.9894   -9.0220   20.4652 C   0  0  0  0  0  0
  -22.7226  -10.2094   20.3079 C   0  0  0  0  0  0
  -21.6819   -6.0700   22.5278 C   0  0  0  0  0  0
  -21.3978   -6.5611   23.8210 C   0  0  0  0  0  0
  -21.3669   -5.6778   24.9181 C   0  0  0  0  0  0
  -21.6056   -4.3040   24.7239 C   0  0  0  0  0  0
  -21.8809   -3.8123   23.4360 C   0  0  0  0  0  0
  -21.9165   -4.6926   22.3410 C   0  0  0  0  0  0
  -22.7817  -13.5217   21.1846 C   0  0  0  0  0  0
  -22.1648   -4.2110   21.0987 F   0  0  0  0  0  0
  -21.5653   -3.4535   25.7761 F   0  0  0  0  0  0
  -29.9909  -13.4975   20.4120 N   0  0  0  0  0  0
  -26.2914  -12.9280   20.3299 N   0  0  0  0  0  0
  -25.9297  -11.6440   20.5800 N   0  0  0  0  0  0
  -22.0457  -12.8209   22.0406 N   0  0  0  0  0  0
  -25.4135  -15.1774   20.4112 N   0  0  0  0  0  0
  -31.8135  -14.8077   20.1361 O   0  0  0  0  0  0
  -21.6601   -6.8840   21.4239 O   0  0  0  0  0  0
  -22.3515  -14.5498   20.6648 O   0  0  0  0  0  0
  -24.6262  -31.8577   23.1981 C   0  0  0  0  0  0
  -25.9101  -32.4770   23.8322 C   0  0  1  0  0  0
  -27.2311  -27.3032   20.1473 C   0  0  0  0  0  0
  -25.5937  -33.8578   24.2257 N   0  0  0  0  0  0
  -23.4204  -30.4767   21.5406 C   0  0  2  0  0  0
  -24.8711  -28.9161   20.1208 C   0  0  0  0  0  0
  -22.7474  -29.4608   22.4932 C   0  0  0  0  0  0
  -18.0280  -28.1370   22.8505 C   0  0  0  0  0  0
  -24.1501  -36.7287   23.2639 C   0  0  0  0  0  0
  -25.9600  -30.7864   21.3675 C   0  0  0  0  0  0
  -26.0371  -29.4061   20.7231 C   0  0  0  0  0  0
  -27.2231  -28.6126   20.7219 C   0  0  0  0  0  0
  -26.0464  -26.8581   19.5275 C   0  0  0  0  0  0
  -24.8768  -27.6474   19.5136 C   0  0  0  0  0  0
  -23.6385  -29.7998   20.1598 C   0  0  0  0  0  0
  -25.4132  -36.3084   24.0311 C   0  0  1  0  0  0
  -20.5896  -28.3662   23.1267 C   0  0  2  0  0  0
  -20.6756  -26.9386   22.5378 C   0  0  0  0  0  0
  -19.5703  -26.6348   21.5204 C   0  0  0  0  0  0
  -18.1888  -26.7916   22.1629 C   0  0  0  0  0  0
  -19.1548  -28.8833   23.2892 C   0  0  0  0  0  0
  -18.9473  -30.1443   23.8896 C   0  0  0  0  0  0
  -17.6470  -30.6569   24.0572 C   0  0  0  0  0  0
  -25.9072  -34.9458   23.5090 C   0  0  0  0  0  0
  -16.5356  -29.9080   23.6337 C   0  0  0  0  0  0
  -16.7273  -28.6492   23.0359 C   0  0  0  0  0  0
  -26.4486  -31.6583   25.0695 C   0  0  0  0  0  0
  -25.3725  -31.3706   26.1429 C   0  0  0  0  0  0
  -27.0320  -30.3015   24.6116 C   0  0  0  0  0  0
  -27.6044  -32.4322   25.7461 C   0  0  0  0  0  0
  -27.5582  -37.1803   24.8463 C   0  0  0  0  0  0
  -21.4195  -29.3015   22.3670 N   0  0  0  0  0  0
  -26.4301  -37.3785   23.9394 N   0  0  0  0  0  0
  -24.6878  -31.0590   22.0921 N   0  0  0  0  0  0
  -23.4201  -28.8179   23.3026 O   0  0  0  0  0  0
  -28.3579  -26.4697   20.1269 O   0  0  0  0  0  0
  -26.5652  -34.8938   22.4665 O   0  0  0  0  0  0
  -23.5433  -32.1375   23.7313 O   0  0  0  0  0  0
  -27.4294  -20.6888   20.0039 C   0  0  0  0  0  0
  -29.6029  -19.8792   20.7058 C   0  0  0  0  0  0
  -27.0799  -19.3813   19.5979 C   0  0  0  0  0  0
  -28.7023  -20.9959   20.5114 C   0  0  0  0  0  0
  -29.2849  -18.5138   20.3283 C   0  0  0  0  0  0
  -28.0328  -18.3269   19.6847 C   0  0  0  0  0  0
  -22.7091  -19.5903   19.0143 C   0  0  0  0  0  0
  -23.6115  -19.7819   17.7844 C   0  0  0  0  0  0
  -23.2943  -18.5558   19.9874 C   0  0  0  0  0  0
  -25.0420  -20.1636   18.2011 C   0  0  0  0  0  0
  -24.7320  -18.9204   20.3873 C   0  0  0  0  0  0
  -25.6372  -19.1050   19.1537 C   0  0  0  0  0  0
  -28.9744  -22.4857   20.9692 C   0  0  0  0  0  0
  -30.3089  -17.3064   20.5427 C   0  0  0  0  0  0
  -28.5034  -23.7540   20.0887 C   0  0  0  0  0  0
  -28.3174  -25.1652   20.8378 C   0  0  0  0  0  0
  -29.8845  -15.8474   20.7126 N   0  0  0  0  0  0
  -27.6747  -16.8091   18.9408 Cl  0  0  0  0  0  0
  -31.4719  -12.5590   19.1747 H   0  0  0  0  0  0
  -30.3698  -11.4611   19.9546 H   0  0  0  0  0  0
  -29.7950  -11.7404   17.5149 H   0  0  0  0  0  0
  -29.6304  -13.4666   17.7378 H   0  0  0  0  0  0
  -27.9001  -11.2677   18.9194 H   0  0  0  0  0  0
  -27.3747  -12.5042   17.8063 H   0  0  0  0  0  0
  -27.6292  -14.2267   19.4687 H   0  0  0  0  0  0
  -28.7133  -12.1684   21.4463 H   0  0  0  0  0  0
  -28.4140  -13.8536   21.7911 H   0  0  0  0  0  0
  -25.2737   -9.5577   22.4776 H   0  0  0  0  0  0
  -23.9937   -7.4552   22.7450 H   0  0  0  0  0  0
  -21.0839   -8.8754   19.8946 H   0  0  0  0  0  0
  -22.3697  -10.9646   19.6199 H   0  0  0  0  0  0
  -21.1942   -7.6115   23.9705 H   0  0  0  0  0  0
  -21.1536   -6.0511   25.9090 H   0  0  0  0  0  0
  -22.0587   -2.7586   23.2875 H   0  0  0  0  0  0
  -22.4107  -11.9898   22.4808 H   0  0  0  0  0  0
  -21.1082  -13.1219   22.2634 H   0  0  0  0  0  0
  -24.6395  -15.8210   20.5116 H   0  0  0  0  0  0
  -26.2288  -15.6047   19.9867 H   0  0  0  0  0  0
  -26.7164  -32.5434   23.1064 H   0  0  0  0  0  0
  -25.0066  -33.9735   25.0387 H   0  0  0  0  0  0
  -22.7134  -31.2959   21.3917 H   0  0  0  0  0  0
  -23.3775  -35.9607   23.3307 H   0  0  0  0  0  0
  -24.3578  -36.8924   22.2055 H   0  0  0  0  0  0
  -23.7260  -37.6487   23.6671 H   0  0  0  0  0  0
  -26.0892  -31.5456   20.5954 H   0  0  0  0  0  0
  -26.8418  -30.8440   21.9924 H   0  0  0  0  0  0
  -28.1234  -28.9921   21.1866 H   0  0  0  0  0  0
  -26.0267  -25.8856   19.0560 H   0  0  0  0  0  0
  -23.9824  -27.2632   19.0411 H   0  0  0  0  0  0
  -23.7535  -30.5708   19.3961 H   0  0  0  0  0  0
  -22.7593  -29.2261   19.8637 H   0  0  0  0  0  0
  -25.1328  -36.1927   25.0802 H   0  0  0  0  0  0
  -20.9985  -28.3214   24.1382 H   0  0  0  0  0  0
  -20.5647  -26.2280   23.3585 H   0  0  0  0  0  0
  -21.6619  -26.7397   22.1170 H   0  0  0  0  0  0
  -19.6847  -25.6262   21.1219 H   0  0  0  0  0  0
  -19.6622  -27.3165   20.6742 H   0  0  0  0  0  0
  -17.4153  -26.6688   21.4027 H   0  0  0  0  0  0
  -18.0254  -26.0037   22.8989 H   0  0  0  0  0  0
  -19.7953  -30.7276   24.2237 H   0  0  0  0  0  0
  -17.5034  -31.6250   24.5190 H   0  0  0  0  0  0
  -15.5364  -30.2992   23.7645 H   0  0  0  0  0  0
  -15.8675  -28.0831   22.7036 H   0  0  0  0  0  0
  -24.5901  -30.7050   25.7759 H   0  0  0  0  0  0
  -24.8906  -32.2871   26.4863 H   0  0  0  0  0  0
  -25.8078  -30.8882   27.0195 H   0  0  0  0  0  0
  -26.2865  -29.6771   24.1170 H   0  0  0  0  0  0
  -27.4087  -29.7271   25.4592 H   0  0  0  0  0  0
  -27.8719  -30.4333   23.9282 H   0  0  0  0  0  0
  -27.2646  -33.3633   26.2018 H   0  0  0  0  0  0
  -28.3858  -32.6869   25.0282 H   0  0  0  0  0  0
  -28.0691  -31.8444   26.5394 H   0  0  0  0  0  0
  -28.2611  -38.0097   24.7528 H   0  0  0  0  0  0
  -28.1083  -36.2632   24.6284 H   0  0  0  0  0  0
  -27.2284  -37.1440   25.8866 H   0  0  0  0  0  0
  -20.9358  -29.8759   21.6917 H   0  0  0  0  0  0
  -26.0179  -38.2853   24.1422 H   0  0  0  0  0  0
  -26.6979  -21.4796   19.9525 H   0  0  0  0  0  0
  -30.5623  -20.0723   21.1652 H   0  0  0  0  0  0
  -21.7119  -19.2768   18.7021 H   0  0  0  0  0  0
  -22.5877  -20.5455   19.5284 H   0  0  0  0  0  0
  -23.1984  -20.5584   17.1397 H   0  0  0  0  0  0
  -23.6290  -18.8655   17.1919 H   0  0  0  0  0  0
  -23.2787  -17.5644   19.5323 H   0  0  0  0  0  0
  -22.6692  -18.4916   20.8787 H   0  0  0  0  0  0
  -25.0089  -21.1432   18.6743 H   0  0  0  0  0  0
  -25.6671  -20.2645   17.3135 H   0  0  0  0  0  0
  -25.1415  -18.1398   21.0299 H   0  0  0  0  0  0
  -24.7241  -19.8341   20.9822 H   0  0  0  0  0  0
  -25.5997  -18.1767   18.5896 H   0  0  0  0  0  0
  -30.0414  -22.5881   21.1670 H   0  0  0  0  0  0
  -28.4951  -22.5717   21.9438 H   0  0  0  0  0  0
  -30.9283  -17.5575   21.4037 H   0  0  0  0  0  0
  -30.9813  -17.3477   19.6851 H   0  0  0  0  0  0
  -27.5545  -23.5249   19.6052 H   0  0  0  0  0  0
  -29.2138  -23.8734   19.2701 H   0  0  0  0  0  0
  -29.1306  -25.2330   21.5605 H   0  0  0  0  0  0
  -27.4195  -25.1213   21.4558 H   0  0  0  0  0  0
  -28.9140  -15.6958   20.9442 H   0  0  0  0  0  0
  1 25  1  0  0  0
  1 30  2  0  0  0
  1 87  1  0  0  0
  2  3  1  0  0  0
  2 25  1  0  0  0
  2 89  1  0  0  0
  2 90  1  0  0  0
  3  4  1  0  0  0
  3 91  1  0  0  0
  3 92  1  0  0  0
  4  5  1  0  0  0
  4 93  1  0  0  0
  4 94  1  0  0  0
  5  6  1  0  0  0
  5 26  1  0  0  0
  5 95  1  0  0  0
  6 25  1  0  0  0
  6 96  1  0  0  0
  6 97  1  0  0  0
  7  8  2  0  0  0
  7 26  1  0  0  0
  7 29  1  0  0  0
  8  9  1  0  0  0
  8 22  1  0  0  0
  9 10  1  0  0  0
  9 27  2  0  0  0
 10 11  2  0  0  0
 10 15  1  0  0  0
 11 12  1  0  0  0
 11 98  1  0  0  0
 12 13  2  0  0  0
 12 99  1  0  0  0
 13 14  1  0  0  0
 13 31  1  0  0  0
 14 15  2  0  0  0
 14100  1  0  0  0
 15101  1  0  0  0
 16 17  2  0  0  0
 16 21  1  0  0  0
 16 31  1  0  0  0
 17 18  1  0  0  0
 17102  1  0  0  0
 18 19  2  0  0  0
 18103  1  0  0  0
 19 20  1  0  0  0
 19 24  1  0  0  0
 20 21  2  0  0  0
 20104  1  0  0  0
 21 23  1  0  0  0
 22 28  1  0  0  0
 22 32  2  0  0  0
 26 27  1  0  0  0
 28105  1  0  0  0
 28106  1  0  0  0
 29107  1  0  0  0
 29108  1  0  0  0
 33 34  1  0  0  0
 33 66  1  0  0  0
 33 70  2  0  0  0
 34 36  1  0  0  0
 34 59  1  0  0  0
 34109  1  0  0  0
 35 44  2  0  0  0
 35 45  1  0  0  0
 35 68  1  0  0  0
 36 56  1  0  0  0
 36110  1  0  0  0
 37 39  1  0  0  0
 37 47  1  0  0  0
 37 66  1  0  0  0
 37111  1  0  0  0
 38 43  2  0  0  0
 38 46  1  0  0  0
 38 47  1  0  0  0
 39 64  1  0  0  0
 39 67  2  0  0  0
 40 52  1  0  0  0
 40 53  2  0  0  0
 40 58  1  0  0  0
 41112  1  0  0  0
 41113  1  0  0  0
 41114  1  0  0  0
 41 48  1  0  0  0
 42 43  1  0  0  0
 42 66  1  0  0  0
 42115  1  0  0  0
 42116  1  0  0  0
 43 44  1  0  0  0
 44117  1  0  0  0
 45 46  2  0  0  0
 45118  1  0  0  0
 46119  1  0  0  0
 47120  1  0  0  0
 47121  1  0  0  0
 48 56  1  0  0  0
 48 65  1  0  0  0
 48122  1  0  0  0
 49 50  1  0  0  0
 49 53  1  0  0  0
 49 64  1  0  0  0
 49123  1  0  0  0
 50 51  1  0  0  0
 50124  1  0  0  0
 50125  1  0  0  0
 51 52  1  0  0  0
 51126  1  0  0  0
 51127  1  0  0  0
 52128  1  0  0  0
 52129  1  0  0  0
 53 54  1  0  0  0
 54 55  2  0  0  0
 54130  1  0  0  0
 55 57  1  0  0  0
 55131  1  0  0  0
 56 69  2  0  0  0
 57 58  2  0  0  0
 57132  1  0  0  0
 58133  1  0  0  0
 59 60  1  0  0  0
 59 61  1  0  0  0
 59 62  1  0  0  0
 60134  1  0  0  0
 60135  1  0  0  0
 60136  1  0  0  0
 61137  1  0  0  0
 61138  1  0  0  0
 61139  1  0  0  0
 62140  1  0  0  0
 62141  1  0  0  0
 62142  1  0  0  0
 63 65  1  0  0  0
 63143  1  0  0  0
 63144  1  0  0  0
 63145  1  0  0  0
 64146  1  0  0  0
 65147  1  0  0  0
 68 86  1  0  0  0
 71 73  2  0  0  0
 71 74  1  0  0  0
 71148  1  0  0  0
 72 74  2  0  0  0
 72 75  1  0  0  0
 72149  1  0  0  0
 73 76  1  0  0  0
 73 82  1  0  0  0
 74 83  1  0  0  0
 75 76  2  0  0  0
 75 84  1  0  0  0
 76 88  1  0  0  0
 77 78  1  0  0  0
 77 79  1  0  0  0
 77150  1  0  0  0
 77151  1  0  0  0
 78 80  1  0  0  0
 78152  1  0  0  0
 78153  1  0  0  0
 79 81  1  0  0  0
 79154  1  0  0  0
 79155  1  0  0  0
 80 82  1  0  0  0
 80156  1  0  0  0
 80157  1  0  0  0
 81 82  1  0  0  0
 81158  1  0  0  0
 81159  1  0  0  0
 82160  1  0  0  0
 83 85  1  0  0  0
 83161  1  0  0  0
 83162  1  0  0  0
 84 87  1  0  0  0
 84163  1  0  0  0
 84164  1  0  0  0
 85 86  1  0  0  0
 85165  1  0  0  0
 85166  1  0  0  0
 86167  1  0  0  0
 86168  1  0  0  0
 87169  1  0  0  0
M  ISO  4   1 100  68 101  86 101  87 100
M  END
> <chiral flag>
0

> <version>
0

> <s_m_source_file>
/data/baiqing/PycharmProjects/Reinvent-master-3.2/result/LINK_invent/BTK/process_docking_weight1_custom_sum_contain_oxygen_bond_distance_aromatic_linkinvent_7_9_3/rearranged_h_0031.sdf

> <i_m_source_file_index>
4

> <r_mmod_Potential_Energy-OPLS-2005>
143.821823120117

> <r_mmod_Stretch_Energy-OPLS-2005>
104.456733703613

> <r_mmod_Bend_Energy-OPLS-2005>
154.710906982422

> <r_mmod_Torsional_Energy-OPLS-2005>
255.536849975586

> <r_mmod_Improper_Torsional_Energy-OPLS-2005>
5.8857421875

> <r_mmod_Van_der_Waal_Energy-OPLS-2005>
139.422271728516

> <r_mmod_Electrostatic_Energy-OPLS-2005>
-394.764709472656

> <r_mmod_Solvation_Energy-OPLS-2005>
-186.546508789062

> <b_mmod_Minimization_Converged-OPLS-2005>
0

> <r_mmod_RMS_Derivative-OPLS-2005>
2.97402763366699

$$$$
4
                    3D
 Structure written by MMmdl.
151159  0  0  1  0            999 V2000
  -30.3698  -15.3394   20.3601 C   0  0  0  0  0  0
  -30.4522  -12.8498   19.5446 C   0  0  0  0  0  0
  -29.5519  -12.5958   18.3043 C   0  0  0  0  0  0
  -28.1004  -12.3026   18.7248 C   0  0  0  0  0  0
  -27.6152  -13.2800   19.8222 C   0  0  2  0  0  0
  -28.6421  -13.4667   20.9582 C   0  0  0  0  0  0
  -25.2414  -13.8251   20.5745 C   0  0  0  0  0  0
  -24.1758  -13.0439   20.9240 C   0  0  0  0  0  0
  -24.6413  -11.6937   20.8738 C   0  0  0  0  0  0
  -23.9102  -10.4295   21.0393 C   0  0  0  0  0  0
  -24.3641   -9.4210   21.9177 C   0  0  0  0  0  0
  -23.6306   -8.2248   22.0750 C   0  0  0  0  0  0
  -22.4285   -8.0288   21.3546 C   0  0  0  0  0  0
  -21.9929   -9.0260   20.4643 C   0  0  0  0  0  0
  -22.7267  -10.2133   20.3050 C   0  0  0  0  0  0
  -21.6856   -6.0742   22.5282 C   0  0  0  0  0  0
  -21.4016   -6.5642   23.8217 C   0  0  0  0  0  0
  -21.3660   -5.6793   24.9175 C   0  0  0  0  0  0
  -21.6048   -4.3056   24.7223 C   0  0  0  0  0  0
  -21.8818   -3.8150   23.4342 C   0  0  0  0  0  0
  -21.9191   -4.6969   22.3400 C   0  0  0  0  0  0
  -22.7776  -13.5194   21.1898 C   0  0  0  0  0  0
  -22.1660   -4.2156   21.0976 F   0  0  0  0  0  0
  -21.5626   -3.4538   25.7733 F   0  0  0  0  0  0
  -29.8792  -13.9925   20.3542 N   0  0  0  0  0  0
  -26.2845  -12.9533   20.3196 N   0  0  0  0  0  0
  -25.9358  -11.6634   20.5684 N   0  0  0  0  0  0
  -22.0435  -12.8170   22.0451 N   0  0  0  0  0  0
  -25.4067  -15.1987   20.4231 N   0  0  0  0  0  0
  -31.5865  -15.3662   20.1136 O   0  0  0  0  0  0
  -21.6644   -6.8888   21.4246 O   0  0  0  0  0  0
  -22.3458  -14.5498   20.6741 O   0  0  0  0  0  0
  -24.6673  -31.8193   23.1655 C   0  0  0  0  0  0
  -25.9332  -32.4568   23.8138 C   0  0  1  0  0  0
  -27.2232  -26.8790   20.1939 C   0  0  0  0  0  0
  -25.5989  -33.8384   24.2046 N   0  0  0  0  0  0
  -23.4854  -30.4289   21.5161 C   0  0  2  0  0  0
  -24.9405  -28.8061   20.1140 C   0  0  0  0  0  0
  -22.7692  -29.4422   22.4761 C   0  0  0  0  0  0
  -18.0332  -28.1418   22.8468 C   0  0  0  0  0  0
  -24.1495  -36.7186   23.2649 C   0  0  0  0  0  0
  -26.0580  -30.6105   21.4032 C   0  0  0  0  0  0
  -26.1262  -29.1945   20.7501 C   0  0  0  0  0  0
  -27.2606  -28.2546   20.7617 C   0  0  0  0  0  0
  -26.0058  -26.6570   19.5077 C   0  0  0  0  0  0
  -24.9086  -27.5589   19.4711 C   0  0  0  0  0  0
  -23.7283  -29.7398   20.1448 C   0  0  0  0  0  0
  -25.4134  -36.2947   24.0301 C   0  0  1  0  0  0
  -20.5958  -28.3769   23.1178 C   0  0  2  0  0  0
  -20.6807  -26.9446   22.5402 C   0  0  0  0  0  0
  -19.5777  -26.6381   21.5221 C   0  0  0  0  0  0
  -18.1959  -26.7953   22.1622 C   0  0  0  0  0  0
  -19.1593  -28.8912   23.2812 C   0  0  0  0  0  0
  -18.9502  -30.1503   23.8847 C   0  0  0  0  0  0
  -17.6496  -30.6606   24.0558 C   0  0  0  0  0  0
  -25.9106  -34.9340   23.4993 C   0  0  0  0  0  0
  -16.5386  -29.9092   23.6351 C   0  0  0  0  0  0
  -16.7311  -28.6515   23.0367 C   0  0  0  0  0  0
  -26.4568  -31.6527   25.0683 C   0  0  0  0  0  0
  -25.3685  -31.3786   26.1331 C   0  0  0  0  0  0
  -27.0469  -30.2886   24.6450 C   0  0  0  0  0  0
  -27.6049  -32.4356   25.7481 C   0  0  0  0  0  0
  -27.5565  -37.1746   24.8470 C   0  0  0  0  0  0
  -21.4355  -29.3049   22.3514 N   0  0  0  0  0  0
  -26.4267  -37.3695   23.9420 N   0  0  0  0  0  0
  -24.7587  -30.9813   22.0816 N   0  0  0  0  0  0
  -23.4216  -28.8001   23.3025 O   0  0  0  0  0  0
  -28.2097  -25.7400   20.2708 O   0  0  0  0  0  0
  -26.5719  -34.8892   22.4590 O   0  0  0  0  0  0
  -23.5729  -32.1180   23.6720 O   0  0  0  0  0  0
  -29.2240  -19.6830   19.1961 C   0  0  0  0  0  0
  -28.9128  -19.7174   21.5055 C   0  0  0  0  0  0
  -29.2620  -21.3829   19.1769 C   0  0  0  0  0  0
  -28.9364  -21.4137   21.5126 C   0  0  0  0  0  0
  -29.6739  -18.6990   20.4452 C   0  0  1  0  0  0
  -28.4705  -22.3430   20.2488 C   0  0  1  0  0  0
  -29.4558  -16.8659   20.5273 C   0  0  0  0  0  0
  -27.8797  -24.1072   20.1365 C   0  0  0  0  0  0
  -31.4678  -13.0694   19.2138 H   0  0  0  0  0  0
  -30.5342  -11.9477   20.1530 H   0  0  0  0  0  0
  -29.9464  -11.7698   17.7114 H   0  0  0  0  0  0
  -29.5725  -13.4751   17.6584 H   0  0  0  0  0  0
  -28.0680  -11.2816   19.1065 H   0  0  0  0  0  0
  -27.4347  -12.3287   17.8610 H   0  0  0  0  0  0
  -27.5267  -14.2436   19.3192 H   0  0  0  0  0  0
  -28.8162  -12.5347   21.4977 H   0  0  0  0  0  0
  -28.2663  -14.1821   21.6913 H   0  0  0  0  0  0
  -25.2784   -9.5684   22.4756 H   0  0  0  0  0  0
  -24.0011   -7.4640   22.7472 H   0  0  0  0  0  0
  -21.0860   -8.8788   19.8947 H   0  0  0  0  0  0
  -22.3731  -10.9673   19.6158 H   0  0  0  0  0  0
  -21.2011   -7.6153   23.9726 H   0  0  0  0  0  0
  -21.1481   -6.0518   25.9080 H   0  0  0  0  0  0
  -22.0594   -2.7614   23.2835 H   0  0  0  0  0  0
  -22.4059  -11.9833   22.4838 H   0  0  0  0  0  0
  -21.1054  -13.1186   22.2665 H   0  0  0  0  0  0
  -24.6412  -15.8518   20.5505 H   0  0  0  0  0  0
  -26.2626  -15.6449   20.1195 H   0  0  0  0  0  0
  -26.7402  -32.5087   23.0848 H   0  0  0  0  0  0
  -25.0106  -33.9462   25.0176 H   0  0  0  0  0  0
  -22.8020  -31.2620   21.3401 H   0  0  0  0  0  0
  -23.3777  -35.9494   23.3270 H   0  0  0  0  0  0
  -24.3576  -36.8872   22.2072 H   0  0  0  0  0  0
  -23.7233  -37.6353   23.6733 H   0  0  0  0  0  0
  -26.2438  -31.3477   20.6208 H   0  0  0  0  0  0
  -26.9166  -30.6698   22.0598 H   0  0  0  0  0  0
  -28.1562  -28.5535   21.2876 H   0  0  0  0  0  0
  -25.8610  -25.7077   19.0149 H   0  0  0  0  0  0
  -24.0093  -27.2527   18.9538 H   0  0  0  0  0  0
  -23.8876  -30.5065   19.3860 H   0  0  0  0  0  0
  -22.8374  -29.1968   19.8243 H   0  0  0  0  0  0
  -25.1335  -36.1723   25.0791 H   0  0  0  0  0  0
  -21.0049  -28.3377   24.1299 H   0  0  0  0  0  0
  -20.5697  -26.2389   23.3647 H   0  0  0  0  0  0
  -21.6669  -26.7422   22.1200 H   0  0  0  0  0  0
  -19.6942  -25.6279   21.1282 H   0  0  0  0  0  0
  -19.6714  -27.3168   20.6734 H   0  0  0  0  0  0
  -17.4229  -26.6704   21.4024 H   0  0  0  0  0  0
  -18.0344  -26.0108   22.9026 H   0  0  0  0  0  0
  -19.7976  -30.7335   24.2190 H   0  0  0  0  0  0
  -17.5049  -31.6285   24.5164 H   0  0  0  0  0  0
  -15.5384  -30.2980   23.7717 H   0  0  0  0  0  0
  -15.8709  -28.0824   22.7107 H   0  0  0  0  0  0
  -24.5888  -30.7119   25.7633 H   0  0  0  0  0  0
  -24.8852  -32.2988   26.4622 H   0  0  0  0  0  0
  -25.7909  -30.9034   27.0193 H   0  0  0  0  0  0
  -26.3140  -29.6552   24.1441 H   0  0  0  0  0  0
  -27.3965  -29.7268   25.5121 H   0  0  0  0  0  0
  -27.9100  -30.4055   23.9895 H   0  0  0  0  0  0
  -27.2610  -33.3717   26.1892 H   0  0  0  0  0  0
  -28.3933  -32.6822   25.0359 H   0  0  0  0  0  0
  -28.0635  -31.8594   26.5525 H   0  0  0  0  0  0
  -28.2552  -38.0071   24.7529 H   0  0  0  0  0  0
  -28.1089  -36.2596   24.6270 H   0  0  0  0  0  0
  -27.2292  -37.1357   25.8876 H   0  0  0  0  0  0
  -20.9619  -29.8715   21.6615 H   0  0  0  0  0  0
  -26.0102  -38.2743   24.1446 H   0  0  0  0  0  0
  -29.7983  -19.3533   18.3296 H   0  0  0  0  0  0
  -28.1979  -19.4070   18.9488 H   0  0  0  0  0  0
  -27.8582  -19.4395   21.4805 H   0  0  0  0  0  0
  -29.2375  -19.4091   22.5003 H   0  0  0  0  0  0
  -28.9269  -21.6878   18.1846 H   0  0  0  0  0  0
  -30.3120  -21.6779   19.2032 H   0  0  0  0  0  0
  -29.9506  -21.7186   21.7749 H   0  0  0  0  0  0
  -28.3358  -21.7288   22.3665 H   0  0  0  0  0  0
  -30.7441  -18.8547   20.5890 H   0  0  0  0  0  0
  -27.4699  -21.9322   20.1075 H   0  0  0  0  0  0
  -28.5872  -16.6809   19.8958 H   0  0  0  0  0  0
  -29.0577  -16.7280   21.5322 H   0  0  0  0  0  0
  -27.0158  -24.0657   20.8008 H   0  0  0  0  0  0
  -27.4408  -24.0970   19.1394 H   0  0  0  0  0  0
  1 25  1  0  0  0
  1 30  2  0  0  0
  1 77  1  0  0  0
  2  3  1  0  0  0
  2 25  1  0  0  0
  2 79  1  0  0  0
  2 80  1  0  0  0
  3  4  1  0  0  0
  3 81  1  0  0  0
  3 82  1  0  0  0
  4  5  1  0  0  0
  4 83  1  0  0  0
  4 84  1  0  0  0
  5  6  1  0  0  0
  5 26  1  0  0  0
  5 85  1  0  0  0
  6 25  1  0  0  0
  6 86  1  0  0  0
  6 87  1  0  0  0
  7  8  2  0  0  0
  7 26  1  0  0  0
  7 29  1  0  0  0
  8  9  1  0  0  0
  8 22  1  0  0  0
  9 10  1  0  0  0
  9 27  2  0  0  0
 10 11  2  0  0  0
 10 15  1  0  0  0
 11 12  1  0  0  0
 11 88  1  0  0  0
 12 13  2  0  0  0
 12 89  1  0  0  0
 13 14  1  0  0  0
 13 31  1  0  0  0
 14 15  2  0  0  0
 14 90  1  0  0  0
 15 91  1  0  0  0
 16 17  2  0  0  0
 16 21  1  0  0  0
 16 31  1  0  0  0
 17 18  1  0  0  0
 17 92  1  0  0  0
 18 19  2  0  0  0
 18 93  1  0  0  0
 19 20  1  0  0  0
 19 24  1  0  0  0
 20 21  2  0  0  0
 20 94  1  0  0  0
 21 23  1  0  0  0
 22 28  1  0  0  0
 22 32  2  0  0  0
 26 27  1  0  0  0
 28 95  1  0  0  0
 28 96  1  0  0  0
 29 97  1  0  0  0
 29 98  1  0  0  0
 33 34  1  0  0  0
 33 66  1  0  0  0
 33 70  2  0  0  0
 34 36  1  0  0  0
 34 59  1  0  0  0
 34 99  1  0  0  0
 35 44  2  0  0  0
 35 45  1  0  0  0
 35 68  1  0  0  0
 36 56  1  0  0  0
 36100  1  0  0  0
 37 39  1  0  0  0
 37 47  1  0  0  0
 37 66  1  0  0  0
 37101  1  0  0  0
 38 43  2  0  0  0
 38 46  1  0  0  0
 38 47  1  0  0  0
 39 64  1  0  0  0
 39 67  2  0  0  0
 40 52  1  0  0  0
 40 53  2  0  0  0
 40 58  1  0  0  0
 41102  1  0  0  0
 41103  1  0  0  0
 41104  1  0  0  0
 41 48  1  0  0  0
 42 43  1  0  0  0
 42 66  1  0  0  0
 42105  1  0  0  0
 42106  1  0  0  0
 43 44  1  0  0  0
 44107  1  0  0  0
 45 46  2  0  0  0
 45108  1  0  0  0
 46109  1  0  0  0
 47110  1  0  0  0
 47111  1  0  0  0
 48 56  1  0  0  0
 48 65  1  0  0  0
 48112  1  0  0  0
 49 50  1  0  0  0
 49 53  1  0  0  0
 49 64  1  0  0  0
 49113  1  0  0  0
 50 51  1  0  0  0
 50114  1  0  0  0
 50115  1  0  0  0
 51 52  1  0  0  0
 51116  1  0  0  0
 51117  1  0  0  0
 52118  1  0  0  0
 52119  1  0  0  0
 53 54  1  0  0  0
 54 55  2  0  0  0
 54120  1  0  0  0
 55 57  1  0  0  0
 55121  1  0  0  0
 56 69  2  0  0  0
 57 58  2  0  0  0
 57122  1  0  0  0
 58123  1  0  0  0
 59 60  1  0  0  0
 59 61  1  0  0  0
 59 62  1  0  0  0
 60124  1  0  0  0
 60125  1  0  0  0
 60126  1  0  0  0
 61127  1  0  0  0
 61128  1  0  0  0
 61129  1  0  0  0
 62130  1  0  0  0
 62131  1  0  0  0
 62132  1  0  0  0
 63 65  1  0  0  0
 63133  1  0  0  0
 63134  1  0  0  0
 63135  1  0  0  0
 64136  1  0  0  0
 65137  1  0  0  0
 68 78  1  0  0  0
 71 73  1  0  0  0
 71 75  1  0  0  0
 71138  1  0  0  0
 71139  1  0  0  0
 72 74  1  0  0  0
 72 75  1  0  0  0
 72140  1  0  0  0
 72141  1  0  0  0
 73 76  1  0  0  0
 73142  1  0  0  0
 73143  1  0  0  0
 74 76  1  0  0  0
 74144  1  0  0  0
 74145  1  0  0  0
 75 77  1  0  0  0
 75146  1  0  0  0
 76 78  1  0  0  0
 76147  1  0  0  0
 77148  1  0  0  0
 77149  1  0  0  0
 78150  1  0  0  0
 78151  1  0  0  0
M  ISO  4   1 100  68 101  77 100  78 101
M  END
> <chiral flag>
0

> <version>
0

> <s_m_source_file>
/data/baiqing/PycharmProjects/Reinvent-master-3.2/result/LINK_invent/BTK/process_docking_weight1_custom_sum_contain_oxygen_bond_distance_aromatic_linkinvent_7_9_3/rearranged_h_0031.sdf

> <i_m_source_file_index>
5

> <r_mmod_Potential_Energy-OPLS-2005>
1697.06433105469

> <r_mmod_Stretch_Energy-OPLS-2005>
680.652526855469

> <r_mmod_Bend_Energy-OPLS-2005>
629.686279296875

> <r_mmod_Torsional_Energy-OPLS-2005>
213.965408325195

> <r_mmod_Improper_Torsional_Energy-OPLS-2005>
2.47607684135437

> <r_mmod_Van_der_Waal_Energy-OPLS-2005>
112.148017883301

> <r_mmod_Electrostatic_Energy-OPLS-2005>
-290.260589599609

> <r_mmod_Solvation_Energy-OPLS-2005>
-190.952789306641

> <b_mmod_Minimization_Converged-OPLS-2005>
0

> <r_mmod_RMS_Derivative-OPLS-2005>
0.945980131626129

$$$$
5
                    3D
 Structure written by MMmdl.
159167  0  0  1  0            999 V2000
  -30.6960  -14.5906   20.5188 C   0  0  0  0  0  0
  -30.4201  -12.3702   19.4499 C   0  0  0  0  0  0
  -29.4973  -12.4957   18.2202 C   0  0  0  0  0  0
  -28.0225  -12.3421   18.6365 C   0  0  0  0  0  0
  -27.6500  -13.2234   19.8593 C   0  0  2  0  0  0
  -28.6963  -13.1022   20.9902 C   0  0  0  0  0  0
  -25.2539  -13.8193   20.5694 C   0  0  0  0  0  0
  -24.1815  -13.0443   20.9194 C   0  0  0  0  0  0
  -24.6395  -11.6916   20.8746 C   0  0  0  0  0  0
  -23.9070  -10.4296   21.0406 C   0  0  0  0  0  0
  -24.3619   -9.4209   21.9184 C   0  0  0  0  0  0
  -23.6293   -8.2245   22.0752 C   0  0  0  0  0  0
  -22.4277   -8.0283   21.3542 C   0  0  0  0  0  0
  -21.9915   -9.0255   20.4643 C   0  0  0  0  0  0
  -22.7243  -10.2134   20.3055 C   0  0  0  0  0  0
  -21.6853   -6.0736   22.5279 C   0  0  0  0  0  0
  -21.4017   -6.5638   23.8212 C   0  0  0  0  0  0
  -21.3660   -5.6790   24.9174 C   0  0  0  0  0  0
  -21.6043   -4.3056   24.7226 C   0  0  0  0  0  0
  -21.8817   -3.8148   23.4346 C   0  0  0  0  0  0
  -21.9193   -4.6964   22.3403 C   0  0  0  0  0  0
  -22.7836  -13.5226   21.1863 C   0  0  0  0  0  0
  -22.1659   -4.2150   21.0981 F   0  0  0  0  0  0
  -21.5630   -3.4540   25.7738 F   0  0  0  0  0  0
  -30.0128  -13.4103   20.4157 N   0  0  0  0  0  0
  -26.2976  -12.9390   20.3328 N   0  0  0  0  0  0
  -25.9328  -11.6537   20.5772 N   0  0  0  0  0  0
  -22.0489  -12.8209   22.0421 N   0  0  0  0  0  0
  -25.4238  -15.1915   20.4110 N   0  0  0  0  0  0
  -31.8642  -14.6869   20.1380 O   0  0  0  0  0  0
  -21.6639   -6.8880   21.4240 O   0  0  0  0  0  0
  -22.3517  -14.5534   20.6718 O   0  0  0  0  0  0
  -24.6259  -31.8645   23.2092 C   0  0  0  0  0  0
  -25.9120  -32.4804   23.8398 C   0  0  1  0  0  0
  -27.2088  -27.3275   20.0970 C   0  0  0  0  0  0
  -25.5947  -33.8604   24.2311 N   0  0  0  0  0  0
  -23.4176  -30.4952   21.5527 C   0  0  2  0  0  0
  -24.8606  -28.9692   20.1093 C   0  0  0  0  0  0
  -22.7480  -29.4649   22.4945 C   0  0  0  0  0  0
  -18.0287  -28.1386   22.8487 C   0  0  0  0  0  0
  -24.1494  -36.7295   23.2637 C   0  0  0  0  0  0
  -25.9639  -30.7942   21.3872 C   0  0  0  0  0  0
  -26.0338  -29.4269   20.7224 C   0  0  0  0  0  0
  -27.2094  -28.6154   20.7180 C   0  0  0  0  0  0
  -26.0090  -26.9502   19.4353 C   0  0  0  0  0  0
  -24.8503  -27.7342   19.4591 C   0  0  0  0  0  0
  -23.6306  -29.8464   20.1636 C   0  0  0  0  0  0
  -25.4116  -36.3092   24.0330 C   0  0  1  0  0  0
  -20.5891  -28.3690   23.1280 C   0  0  2  0  0  0
  -20.6780  -26.9413   22.5399 C   0  0  0  0  0  0
  -19.5746  -26.6378   21.5214 C   0  0  0  0  0  0
  -18.1925  -26.7929   22.1623 C   0  0  0  0  0  0
  -19.1541  -28.8854   23.2879 C   0  0  0  0  0  0
  -18.9466  -30.1458   23.8892 C   0  0  0  0  0  0
  -17.6468  -30.6590   24.0561 C   0  0  0  0  0  0
  -25.9052  -34.9462   23.5110 C   0  0  0  0  0  0
  -16.5356  -29.9087   23.6338 C   0  0  0  0  0  0
  -16.7275  -28.6508   23.0355 C   0  0  0  0  0  0
  -26.4505  -31.6605   25.0758 C   0  0  0  0  0  0
  -25.3734  -31.3741   26.1477 C   0  0  0  0  0  0
  -27.0363  -30.3030   24.6220 C   0  0  0  0  0  0
  -27.6057  -32.4354   25.7525 C   0  0  0  0  0  0
  -27.5581  -37.1801   24.8466 C   0  0  0  0  0  0
  -21.4195  -29.3058   22.3691 N   0  0  0  0  0  0
  -26.4295  -37.3782   23.9409 N   0  0  0  0  0  0
  -24.6877  -31.0666   22.1054 N   0  0  0  0  0  0
  -23.4214  -28.8158   23.2993 O   0  0  0  0  0  0
  -28.2987  -26.4336   20.1642 O   0  0  0  0  0  0
  -26.5601  -34.8924   22.4665 O   0  0  0  0  0  0
  -23.5426  -32.1446   23.7413 O   0  0  0  0  0  0
  -29.4529  -21.4422   19.3949 C   0  0  0  0  0  0
  -29.7530  -22.1396   21.6755 C   0  0  0  0  0  0
  -29.8429  -21.1055   20.7065 C   0  0  0  0  0  0
  -28.9563  -22.7346   19.0654 C   0  0  0  0  0  0
  -29.2560  -23.4422   21.3648 C   0  0  0  0  0  0
  -28.8336  -23.7721   20.0472 C   0  0  0  0  0  0
  -28.5121  -22.9501   17.6258 C   0  0  0  0  0  0
  -29.1399  -24.4690   22.4780 C   0  0  0  0  0  0
  -30.4813  -19.7200   21.0442 C   0  0  0  0  0  0
  -27.9937  -25.0578   19.7197 C   0  0  0  0  0  0
  -29.7215  -18.3615   20.7546 C   0  0  0  0  0  0
  -30.6036  -17.0793   21.0553 C   0  0  0  0  0  0
  -30.0082  -15.7101   20.8933 N   0  0  0  0  0  0
  -31.4642  -12.4622   19.1472 H   0  0  0  0  0  0
  -30.3276  -11.3812   19.9014 H   0  0  0  0  0  0
  -29.7550  -11.7411   17.4758 H   0  0  0  0  0  0
  -29.6461  -13.4642   17.7400 H   0  0  0  0  0  0
  -27.8582  -11.2906   18.8761 H   0  0  0  0  0  0
  -27.3656  -12.5661   17.7950 H   0  0  0  0  0  0
  -27.6636  -14.2552   19.5074 H   0  0  0  0  0  0
  -28.6977  -12.0947   21.4086 H   0  0  0  0  0  0
  -28.4528  -13.7716   21.8166 H   0  0  0  0  0  0
  -25.2763   -9.5685   22.4758 H   0  0  0  0  0  0
  -24.0003   -7.4636   22.7473 H   0  0  0  0  0  0
  -21.0849   -8.8773   19.8948 H   0  0  0  0  0  0
  -22.3703  -10.9672   19.6164 H   0  0  0  0  0  0
  -21.2007   -7.6147   23.9717 H   0  0  0  0  0  0
  -21.1484   -6.0522   25.9076 H   0  0  0  0  0  0
  -22.0596   -2.7610   23.2847 H   0  0  0  0  0  0
  -22.4109  -11.9858   22.4786 H   0  0  0  0  0  0
  -21.1114  -13.1234   22.2654 H   0  0  0  0  0  0
  -24.6568  -15.8462   20.5209 H   0  0  0  0  0  0
  -26.2742  -15.6322   20.0834 H   0  0  0  0  0  0
  -26.7186  -32.5474   23.1143 H   0  0  0  0  0  0
  -25.0147  -33.9772   25.0493 H   0  0  0  0  0  0
  -22.7097  -31.3162   21.4170 H   0  0  0  0  0  0
  -23.3764  -35.9621   23.3304 H   0  0  0  0  0  0
  -24.3584  -36.8906   22.2048 H   0  0  0  0  0  0
  -23.7242  -37.6495   23.6660 H   0  0  0  0  0  0
  -26.1043  -31.5617   20.6247 H   0  0  0  0  0  0
  -26.8414  -30.8321   22.0206 H   0  0  0  0  0  0
  -28.1022  -28.9569   21.2227 H   0  0  0  0  0  0
  -25.8984  -26.0275   18.8881 H   0  0  0  0  0  0
  -23.9567  -27.3834   18.9620 H   0  0  0  0  0  0
  -23.7502  -30.6307   19.4150 H   0  0  0  0  0  0
  -22.7501  -29.2800   19.8547 H   0  0  0  0  0  0
  -25.1296  -36.1941   25.0822 H   0  0  0  0  0  0
  -20.9978  -28.3253   24.1404 H   0  0  0  0  0  0
  -20.5699  -26.2296   23.3598 H   0  0  0  0  0  0
  -21.6645  -26.7450   22.1177 H   0  0  0  0  0  0
  -19.6908  -25.6288   21.1247 H   0  0  0  0  0  0
  -19.6681  -27.3190   20.6746 H   0  0  0  0  0  0
  -17.4194  -26.6688   21.4025 H   0  0  0  0  0  0
  -18.0316  -26.0068   22.9017 H   0  0  0  0  0  0
  -19.7943  -30.7277   24.2251 H   0  0  0  0  0  0
  -17.5022  -31.6274   24.5156 H   0  0  0  0  0  0
  -15.5358  -30.2986   23.7673 H   0  0  0  0  0  0
  -15.8672  -28.0829   22.7069 H   0  0  0  0  0  0
  -24.5916  -30.7081   25.7803 H   0  0  0  0  0  0
  -24.8923  -32.2912   26.4890 H   0  0  0  0  0  0
  -25.8051  -30.8927   27.0259 H   0  0  0  0  0  0
  -26.2954  -29.6772   24.1230 H   0  0  0  0  0  0
  -27.4054  -29.7286   25.4724 H   0  0  0  0  0  0
  -27.8826  -30.4325   23.9469 H   0  0  0  0  0  0
  -27.2662  -33.3661   26.2083 H   0  0  0  0  0  0
  -28.3875  -32.6904   25.0358 H   0  0  0  0  0  0
  -28.0723  -31.8500   26.5456 H   0  0  0  0  0  0
  -28.2588  -38.0108   24.7524 H   0  0  0  0  0  0
  -28.1091  -36.2637   24.6286 H   0  0  0  0  0  0
  -27.2299  -37.1435   25.8869 H   0  0  0  0  0  0
  -20.9362  -29.8821   21.6942 H   0  0  0  0  0  0
  -26.0177  -38.2857   24.1417 H   0  0  0  0  0  0
  -29.5360  -20.6881   18.6241 H   0  0  0  0  0  0
  -30.0721  -21.9301   22.6875 H   0  0  0  0  0  0
  -28.7675  -22.1002   16.9925 H   0  0  0  0  0  0
  -28.9971  -23.8260   17.1933 H   0  0  0  0  0  0
  -27.4304  -23.0824   17.5738 H   0  0  0  0  0  0
  -29.4888  -24.0702   23.4308 H   0  0  0  0  0  0
  -28.1037  -24.7836   22.6064 H   0  0  0  0  0  0
  -29.7397  -25.3503   22.2473 H   0  0  0  0  0  0
  -30.7574  -19.7292   22.0991 H   0  0  0  0  0  0
  -31.4310  -19.6917   20.5084 H   0  0  0  0  0  0
  -27.0338  -24.7653   20.1480 H   0  0  0  0  0  0
  -27.8599  -25.1335   18.6436 H   0  0  0  0  0  0
  -29.4091  -18.3407   19.7098 H   0  0  0  0  0  0
  -28.8076  -18.3296   21.3487 H   0  0  0  0  0  0
  -30.9605  -17.1412   22.0844 H   0  0  0  0  0  0
  -31.5004  -17.1536   20.4375 H   0  0  0  0  0  0
  -29.0368  -15.5872   21.1393 H   0  0  0  0  0  0
  1 25  1  0  0  0
  1 30  2  0  0  0
  1 83  1  0  0  0
  2  3  1  0  0  0
  2 25  1  0  0  0
  2 84  1  0  0  0
  2 85  1  0  0  0
  3  4  1  0  0  0
  3 86  1  0  0  0
  3 87  1  0  0  0
  4  5  1  0  0  0
  4 88  1  0  0  0
  4 89  1  0  0  0
  5  6  1  0  0  0
  5 26  1  0  0  0
  5 90  1  0  0  0
  6 25  1  0  0  0
  6 91  1  0  0  0
  6 92  1  0  0  0
  7  8  2  0  0  0
  7 26  1  0  0  0
  7 29  1  0  0  0
  8  9  1  0  0  0
  8 22  1  0  0  0
  9 10  1  0  0  0
  9 27  2  0  0  0
 10 11  2  0  0  0
 10 15  1  0  0  0
 11 12  1  0  0  0
 11 93  1  0  0  0
 12 13  2  0  0  0
 12 94  1  0  0  0
 13 14  1  0  0  0
 13 31  1  0  0  0
 14 15  2  0  0  0
 14 95  1  0  0  0
 15 96  1  0  0  0
 16 17  2  0  0  0
 16 21  1  0  0  0
 16 31  1  0  0  0
 17 18  1  0  0  0
 17 97  1  0  0  0
 18 19  2  0  0  0
 18 98  1  0  0  0
 19 20  1  0  0  0
 19 24  1  0  0  0
 20 21  2  0  0  0
 20 99  1  0  0  0
 21 23  1  0  0  0
 22 28  1  0  0  0
 22 32  2  0  0  0
 26 27  1  0  0  0
 28100  1  0  0  0
 28101  1  0  0  0
 29102  1  0  0  0
 29103  1  0  0  0
 33 34  1  0  0  0
 33 66  1  0  0  0
 33 70  2  0  0  0
 34 36  1  0  0  0
 34 59  1  0  0  0
 34104  1  0  0  0
 35 44  2  0  0  0
 35 45  1  0  0  0
 35 68  1  0  0  0
 36 56  1  0  0  0
 36105  1  0  0  0
 37 39  1  0  0  0
 37 47  1  0  0  0
 37 66  1  0  0  0
 37106  1  0  0  0
 38 43  2  0  0  0
 38 46  1  0  0  0
 38 47  1  0  0  0
 39 64  1  0  0  0
 39 67  2  0  0  0
 40 52  1  0  0  0
 40 53  2  0  0  0
 40 58  1  0  0  0
 41107  1  0  0  0
 41108  1  0  0  0
 41109  1  0  0  0
 41 48  1  0  0  0
 42 43  1  0  0  0
 42 66  1  0  0  0
 42110  1  0  0  0
 42111  1  0  0  0
 43 44  1  0  0  0
 44112  1  0  0  0
 45 46  2  0  0  0
 45113  1  0  0  0
 46114  1  0  0  0
 47115  1  0  0  0
 47116  1  0  0  0
 48 56  1  0  0  0
 48 65  1  0  0  0
 48117  1  0  0  0
 49 50  1  0  0  0
 49 53  1  0  0  0
 49 64  1  0  0  0
 49118  1  0  0  0
 50 51  1  0  0  0
 50119  1  0  0  0
 50120  1  0  0  0
 51 52  1  0  0  0
 51121  1  0  0  0
 51122  1  0  0  0
 52123  1  0  0  0
 52124  1  0  0  0
 53 54  1  0  0  0
 54 55  2  0  0  0
 54125  1  0  0  0
 55 57  1  0  0  0
 55126  1  0  0  0
 56 69  2  0  0  0
 57 58  2  0  0  0
 57127  1  0  0  0
 58128  1  0  0  0
 59 60  1  0  0  0
 59 61  1  0  0  0
 59 62  1  0  0  0
 60129  1  0  0  0
 60130  1  0  0  0
 60131  1  0  0  0
 61132  1  0  0  0
 61133  1  0  0  0
 61134  1  0  0  0
 62135  1  0  0  0
 62136  1  0  0  0
 62137  1  0  0  0
 63 65  1  0  0  0
 63138  1  0  0  0
 63139  1  0  0  0
 63140  1  0  0  0
 64141  1  0  0  0
 65142  1  0  0  0
 68 80  1  0  0  0
 71 73  2  0  0  0
 71 74  1  0  0  0
 71143  1  0  0  0
 72 73  1  0  0  0
 72 75  2  0  0  0
 72144  1  0  0  0
 73 79  1  0  0  0
 74 76  2  0  0  0
 74 77  1  0  0  0
 75 76  1  0  0  0
 75 78  1  0  0  0
 76 80  1  0  0  0
 77145  1  0  0  0
 77146  1  0  0  0
 77147  1  0  0  0
 78148  1  0  0  0
 78149  1  0  0  0
 78150  1  0  0  0
 79 81  1  0  0  0
 79151  1  0  0  0
 79152  1  0  0  0
 80153  1  0  0  0
 80154  1  0  0  0
 81 82  1  0  0  0
 81155  1  0  0  0
 81156  1  0  0  0
 82 83  1  0  0  0
 82157  1  0  0  0
 82158  1  0  0  0
 83159  1  0  0  0
M  ISO  4   1 100  68 101  80 101  83 100
M  END
> <chiral flag>
0

> <version>
0

> <s_m_source_file>
/data/baiqing/PycharmProjects/Reinvent-master-3.2/result/LINK_invent/BTK/process_docking_weight1_custom_sum_contain_oxygen_bond_distance_aromatic_linkinvent_7_9_3/rearranged_h_0031.sdf

> <i_m_source_file_index>
6

> <r_mmod_Potential_Energy-OPLS-2005>
71.9763641357422

> <r_mmod_Stretch_Energy-OPLS-2005>
72.4519348144531

> <r_mmod_Bend_Energy-OPLS-2005>
142.08918762207

> <r_mmod_Torsional_Energy-OPLS-2005>
206.685028076172

> <r_mmod_Improper_Torsional_Energy-OPLS-2005>
5.89614343643188

> <r_mmod_Van_der_Waal_Energy-OPLS-2005>
163.062255859375

> <r_mmod_Electrostatic_Energy-OPLS-2005>
-360.298126220703

> <r_mmod_Solvation_Energy-OPLS-2005>
-204.725601196289

> <b_mmod_Minimization_Converged-OPLS-2005>
0

> <r_mmod_RMS_Derivative-OPLS-2005>
0.863979578018188

$$$$
6
                    3D
 Structure written by MMmdl.
147155  0  0  1  0            999 V2000
  -30.4076  -15.3251   20.3695 C   0  0  0  0  0  0
  -30.4408  -12.8583   19.5080 C   0  0  0  0  0  0
  -29.5352  -12.5816   18.2811 C   0  0  0  0  0  0
  -28.0881  -12.2920   18.7182 C   0  0  0  0  0  0
  -27.6067  -13.2753   19.8135 C   0  0  2  0  0  0
  -28.6433  -13.4774   20.9377 C   0  0  0  0  0  0
  -25.2379  -13.8239   20.5750 C   0  0  0  0  0  0
  -24.1736  -13.0426   20.9263 C   0  0  0  0  0  0
  -24.6391  -11.6924   20.8759 C   0  0  0  0  0  0
  -23.9083  -10.4287   21.0400 C   0  0  0  0  0  0
  -24.3627   -9.4202   21.9179 C   0  0  0  0  0  0
  -23.6298   -8.2240   22.0750 C   0  0  0  0  0  0
  -22.4279   -8.0278   21.3542 C   0  0  0  0  0  0
  -21.9918   -9.0252   20.4642 C   0  0  0  0  0  0
  -22.7252  -10.2127   20.3052 C   0  0  0  0  0  0
  -21.6856   -6.0730   22.5275 C   0  0  0  0  0  0
  -21.4019   -6.5634   23.8210 C   0  0  0  0  0  0
  -21.3663   -5.6786   24.9173 C   0  0  0  0  0  0
  -21.6045   -4.3049   24.7224 C   0  0  0  0  0  0
  -21.8817   -3.8139   23.4345 C   0  0  0  0  0  0
  -21.9193   -4.6956   22.3401 C   0  0  0  0  0  0
  -22.7753  -13.5183   21.1907 C   0  0  0  0  0  0
  -22.1659   -4.2139   21.0978 F   0  0  0  0  0  0
  -21.5630   -3.4534   25.7739 F   0  0  0  0  0  0
  -29.8553  -14.0100   20.2906 N   0  0  0  0  0  0
  -26.2802  -12.9510   20.3201 N   0  0  0  0  0  0
  -25.9328  -11.6616   20.5708 N   0  0  0  0  0  0
  -22.0406  -12.8178   22.0465 N   0  0  0  0  0  0
  -25.3997  -15.1980   20.4193 N   0  0  0  0  0  0
  -31.6426  -15.3153   20.2467 O   0  0  0  0  0  0
  -21.6642   -6.8876   21.4238 O   0  0  0  0  0  0
  -22.3434  -14.5478   20.6734 O   0  0  0  0  0  0
  -24.6664  -31.8198   23.1671 C   0  0  0  0  0  0
  -25.9329  -32.4567   23.8150 C   0  0  1  0  0  0
  -27.2192  -26.8901   20.2010 C   0  0  0  0  0  0
  -25.5982  -33.8385   24.2059 N   0  0  0  0  0  0
  -23.4825  -30.4290   21.5178 C   0  0  2  0  0  0
  -24.9347  -28.8019   20.1223 C   0  0  0  0  0  0
  -22.7677  -29.4422   22.4783 C   0  0  0  0  0  0
  -18.0324  -28.1408   22.8463 C   0  0  0  0  0  0
  -24.1496  -36.7203   23.2648 C   0  0  0  0  0  0
  -26.0533  -30.6155   21.4006 C   0  0  0  0  0  0
  -26.1213  -29.1984   20.7523 C   0  0  0  0  0  0
  -27.2601  -28.2675   20.7573 C   0  0  0  0  0  0
  -25.9987  -26.6472   19.5330 C   0  0  0  0  0  0
  -24.9000  -27.5468   19.4922 C   0  0  0  0  0  0
  -23.7250  -29.7375   20.1478 C   0  0  0  0  0  0
  -25.4140  -36.2960   24.0295 C   0  0  1  0  0  0
  -20.5948  -28.3755   23.1185 C   0  0  2  0  0  0
  -20.6801  -26.9436   22.5401 C   0  0  0  0  0  0
  -19.5776  -26.6376   21.5213 C   0  0  0  0  0  0
  -18.1958  -26.7939   22.1621 C   0  0  0  0  0  0
  -19.1585  -28.8903   23.2809 C   0  0  0  0  0  0
  -18.9493  -30.1492   23.8846 C   0  0  0  0  0  0
  -17.6486  -30.6598   24.0551 C   0  0  0  0  0  0
  -25.9103  -34.9339   23.5002 C   0  0  0  0  0  0
  -16.5376  -29.9084   23.6343 C   0  0  0  0  0  0
  -16.7305  -28.6503   23.0363 C   0  0  0  0  0  0
  -26.4572  -31.6523   25.0690 C   0  0  0  0  0  0
  -25.3690  -31.3778   26.1338 C   0  0  0  0  0  0
  -27.0470  -30.2885   24.6437 C   0  0  0  0  0  0
  -27.6056  -32.4338   25.7499 C   0  0  0  0  0  0
  -27.5569  -37.1768   24.8472 C   0  0  0  0  0  0
  -21.4343  -29.3039   22.3530 N   0  0  0  0  0  0
  -26.4288  -37.3695   23.9396 N   0  0  0  0  0  0
  -24.7560  -30.9828   22.0824 N   0  0  0  0  0  0
  -23.4207  -28.7996   23.3043 O   0  0  0  0  0  0
  -28.2471  -25.7972   20.1831 O   0  0  0  0  0  0
  -26.5716  -34.8877   22.4600 O   0  0  0  0  0  0
  -23.5728  -32.1182   23.6746 O   0  0  0  0  0  0
  -30.7693  -18.5633   21.4988 C   0  0  0  0  0  0
  -30.9832  -19.8995   21.9312 C   0  0  0  0  0  0
  -29.0438  -19.4968   20.0907 C   0  0  0  0  0  0
  -29.2475  -20.9903   20.4976 C   0  0  0  0  0  0
  -29.7813  -18.2043   20.5597 C   0  0  0  0  0  0
  -30.2790  -21.0473   21.4711 C   0  0  0  0  0  0
  -28.6652  -22.5545   19.8875 C   0  0  0  0  0  0
  -28.1451  -24.1740   20.5721 C   0  0  0  0  0  0
  -29.6189  -16.5990   20.2978 N   0  0  0  0  0  0
  -30.7764  -22.5709   22.1138 Cl  0  0  0  0  0  0
  -31.4498  -13.0883   19.1634 H   0  0  0  0  0  0
  -30.5390  -11.9681   20.1315 H   0  0  0  0  0  0
  -29.9277  -11.7474   17.6979 H   0  0  0  0  0  0
  -29.5469  -13.4504   17.6214 H   0  0  0  0  0  0
  -28.0591  -11.2729   19.1058 H   0  0  0  0  0  0
  -27.4164  -12.3122   17.8588 H   0  0  0  0  0  0
  -27.5098  -14.2332   19.3007 H   0  0  0  0  0  0
  -28.8361  -12.5510   21.4809 H   0  0  0  0  0  0
  -28.2732  -14.1983   21.6687 H   0  0  0  0  0  0
  -25.2767   -9.5684   22.4761 H   0  0  0  0  0  0
  -24.0001   -7.4634   22.7476 H   0  0  0  0  0  0
  -21.0846   -8.8774   19.8952 H   0  0  0  0  0  0
  -22.3705  -10.9666   19.6164 H   0  0  0  0  0  0
  -21.2013   -7.6143   23.9713 H   0  0  0  0  0  0
  -21.1489   -6.0517   25.9077 H   0  0  0  0  0  0
  -22.0595   -2.7601   23.2848 H   0  0  0  0  0  0
  -22.4031  -11.9856   22.4879 H   0  0  0  0  0  0
  -21.1017  -13.1192   22.2652 H   0  0  0  0  0  0
  -24.6277  -15.8456   20.5354 H   0  0  0  0  0  0
  -26.2430  -15.6452   20.0865 H   0  0  0  0  0  0
  -26.7396  -32.5097   23.0862 H   0  0  0  0  0  0
  -25.0076  -33.9455   25.0173 H   0  0  0  0  0  0
  -22.7978  -31.2613   21.3418 H   0  0  0  0  0  0
  -23.3760  -35.9533   23.3305 H   0  0  0  0  0  0
  -24.3560  -36.8857   22.2062 H   0  0  0  0  0  0
  -23.7257  -37.6390   23.6711 H   0  0  0  0  0  0
  -26.2331  -31.3511   20.6154 H   0  0  0  0  0  0
  -26.9139  -30.6786   22.0549 H   0  0  0  0  0  0
  -28.1672  -28.5794   21.2553 H   0  0  0  0  0  0
  -25.8748  -25.6911   19.0440 H   0  0  0  0  0  0
  -23.9992  -27.2371   18.9804 H   0  0  0  0  0  0
  -23.8872  -30.5017   19.3868 H   0  0  0  0  0  0
  -22.8334  -29.1952   19.8286 H   0  0  0  0  0  0
  -25.1344  -36.1759   25.0788 H   0  0  0  0  0  0
  -21.0033  -28.3362   24.1309 H   0  0  0  0  0  0
  -20.5684  -26.2371   23.3641 H   0  0  0  0  0  0
  -21.6663  -26.7409   22.1206 H   0  0  0  0  0  0
  -19.6937  -25.6272   21.1280 H   0  0  0  0  0  0
  -19.6721  -27.3152   20.6717 H   0  0  0  0  0  0
  -17.4227  -26.6675   21.4026 H   0  0  0  0  0  0
  -18.0357  -26.0095   22.9032 H   0  0  0  0  0  0
  -19.7968  -30.7322   24.2196 H   0  0  0  0  0  0
  -17.5036  -31.6273   24.5161 H   0  0  0  0  0  0
  -15.5374  -30.2970   23.7697 H   0  0  0  0  0  0
  -15.8702  -28.0804   22.7113 H   0  0  0  0  0  0
  -24.5882  -30.7122   25.7640 H   0  0  0  0  0  0
  -24.8867  -32.2980   26.4645 H   0  0  0  0  0  0
  -25.7910  -30.9015   27.0196 H   0  0  0  0  0  0
  -26.3137  -29.6552   24.1430 H   0  0  0  0  0  0
  -27.3980  -29.7260   25.5099 H   0  0  0  0  0  0
  -27.9089  -30.4061   23.9866 H   0  0  0  0  0  0
  -27.2618  -33.3683   26.1947 H   0  0  0  0  0  0
  -28.3937  -32.6830   25.0381 H   0  0  0  0  0  0
  -28.0647  -31.8550   26.5524 H   0  0  0  0  0  0
  -28.2591  -38.0057   24.7478 H   0  0  0  0  0  0
  -28.1060  -36.2579   24.6358 H   0  0  0  0  0  0
  -27.2272  -37.1477   25.8872 H   0  0  0  0  0  0
  -20.9610  -29.8715   21.6637 H   0  0  0  0  0  0
  -26.0139  -38.2759   24.1376 H   0  0  0  0  0  0
  -31.3819  -17.7883   21.9375 H   0  0  0  0  0  0
  -31.7604  -20.0588   22.6646 H   0  0  0  0  0  0
  -28.2803  -19.3358   19.3427 H   0  0  0  0  0  0
  -27.8726  -22.2820   19.1913 H   0  0  0  0  0  0
  -29.4873  -22.8305   19.2276 H   0  0  0  0  0  0
  -28.6415  -24.1950   21.5403 H   0  0  0  0  0  0
  -27.0994  -24.0351   20.8476 H   0  0  0  0  0  0
  -28.6635  -16.3663   20.0724 H   0  0  0  0  0  0
  1 25  1  0  0  0
  1 30  2  0  0  0
  1 79  1  0  0  0
  2  3  1  0  0  0
  2 25  1  0  0  0
  2 81  1  0  0  0
  2 82  1  0  0  0
  3  4  1  0  0  0
  3 83  1  0  0  0
  3 84  1  0  0  0
  4  5  1  0  0  0
  4 85  1  0  0  0
  4 86  1  0  0  0
  5  6  1  0  0  0
  5 26  1  0  0  0
  5 87  1  0  0  0
  6 25  1  0  0  0
  6 88  1  0  0  0
  6 89  1  0  0  0
  7  8  2  0  0  0
  7 26  1  0  0  0
  7 29  1  0  0  0
  8  9  1  0  0  0
  8 22  1  0  0  0
  9 10  1  0  0  0
  9 27  2  0  0  0
 10 11  2  0  0  0
 10 15  1  0  0  0
 11 12  1  0  0  0
 11 90  1  0  0  0
 12 13  2  0  0  0
 12 91  1  0  0  0
 13 14  1  0  0  0
 13 31  1  0  0  0
 14 15  2  0  0  0
 14 92  1  0  0  0
 15 93  1  0  0  0
 16 17  2  0  0  0
 16 21  1  0  0  0
 16 31  1  0  0  0
 17 18  1  0  0  0
 17 94  1  0  0  0
 18 19  2  0  0  0
 18 95  1  0  0  0
 19 20  1  0  0  0
 19 24  1  0  0  0
 20 21  2  0  0  0
 20 96  1  0  0  0
 21 23  1  0  0  0
 22 28  1  0  0  0
 22 32  2  0  0  0
 26 27  1  0  0  0
 28 97  1  0  0  0
 28 98  1  0  0  0
 29 99  1  0  0  0
 29100  1  0  0  0
 33 34  1  0  0  0
 33 66  1  0  0  0
 33 70  2  0  0  0
 34 36  1  0  0  0
 34 59  1  0  0  0
 34101  1  0  0  0
 35 44  2  0  0  0
 35 45  1  0  0  0
 35 68  1  0  0  0
 36 56  1  0  0  0
 36102  1  0  0  0
 37 39  1  0  0  0
 37 47  1  0  0  0
 37 66  1  0  0  0
 37103  1  0  0  0
 38 43  2  0  0  0
 38 46  1  0  0  0
 38 47  1  0  0  0
 39 64  1  0  0  0
 39 67  2  0  0  0
 40 52  1  0  0  0
 40 53  2  0  0  0
 40 58  1  0  0  0
 41104  1  0  0  0
 41105  1  0  0  0
 41106  1  0  0  0
 41 48  1  0  0  0
 42 43  1  0  0  0
 42 66  1  0  0  0
 42107  1  0  0  0
 42108  1  0  0  0
 43 44  1  0  0  0
 44109  1  0  0  0
 45 46  2  0  0  0
 45110  1  0  0  0
 46111  1  0  0  0
 47112  1  0  0  0
 47113  1  0  0  0
 48 56  1  0  0  0
 48 65  1  0  0  0
 48114  1  0  0  0
 49 50  1  0  0  0
 49 53  1  0  0  0
 49 64  1  0  0  0
 49115  1  0  0  0
 50 51  1  0  0  0
 50116  1  0  0  0
 50117  1  0  0  0
 51 52  1  0  0  0
 51118  1  0  0  0
 51119  1  0  0  0
 52120  1  0  0  0
 52121  1  0  0  0
 53 54  1  0  0  0
 54 55  2  0  0  0
 54122  1  0  0  0
 55 57  1  0  0  0
 55123  1  0  0  0
 56 69  2  0  0  0
 57 58  2  0  0  0
 57124  1  0  0  0
 58125  1  0  0  0
 59 60  1  0  0  0
 59 61  1  0  0  0
 59 62  1  0  0  0
 60126  1  0  0  0
 60127  1  0  0  0
 60128  1  0  0  0
 61129  1  0  0  0
 61130  1  0  0  0
 61131  1  0  0  0
 62132  1  0  0  0
 62133  1  0  0  0
 62134  1  0  0  0
 63 65  1  0  0  0
 63135  1  0  0  0
 63136  1  0  0  0
 63137  1  0  0  0
 64138  1  0  0  0
 65139  1  0  0  0
 68 78  1  0  0  0
 71 72  2  0  0  0
 71 75  1  0  0  0
 71140  1  0  0  0
 72 76  1  0  0  0
 72141  1  0  0  0
 73 74  1  0  0  0
 73 75  2  0  0  0
 73142  1  0  0  0
 74 76  2  0  0  0
 74 77  1  0  0  0
 75 79  1  0  0  0
 76 80  1  0  0  0
 77 78  1  0  0  0
 77143  1  0  0  0
 77144  1  0  0  0
 78145  1  0  0  0
 78146  1  0  0  0
 79147  1  0  0  0
M  ISO  4   1 100  68 101  78 101  79 100
M  END
> <chiral flag>
0

> <version>
0

> <s_m_source_file>
/data/baiqing/PycharmProjects/Reinvent-master-3.2/result/LINK_invent/BTK/process_docking_weight1_custom_sum_contain_oxygen_bond_distance_aromatic_linkinvent_7_9_3/rearranged_h_0031.sdf

> <i_m_source_file_index>
7

> <r_mmod_Potential_Energy-OPLS-2005>
1421.25366210938

> <r_mmod_Stretch_Energy-OPLS-2005>
651.313537597656

> <r_mmod_Bend_Energy-OPLS-2005>
453.85205078125

> <r_mmod_Torsional_Energy-OPLS-2005>
248.75813293457

> <r_mmod_Improper_Torsional_Energy-OPLS-2005>
8.16686820983887

> <r_mmod_Van_der_Waal_Energy-OPLS-2005>
123.675491333008

> <r_mmod_Electrostatic_Energy-OPLS-2005>
-366.520172119141

> <r_mmod_Solvation_Energy-OPLS-2005>
-212.598480224609

> <b_mmod_Minimization_Converged-OPLS-2005>
0

> <r_mmod_RMS_Derivative-OPLS-2005>
0.610270619392395

$$$$
7
                    3D
 Structure written by MMmdl.
168178  0  0  1  0            999 V2000
  -30.7324  -14.6301   20.5023 C   0  0  0  0  0  0
  -30.4069  -12.3978   19.4619 C   0  0  0  0  0  0
  -29.4904  -12.4816   18.2264 C   0  0  0  0  0  0
  -28.0216  -12.3027   18.6475 C   0  0  0  0  0  0
  -27.6359  -13.2079   19.8443 C   0  0  2  0  0  0
  -28.6871  -13.1532   20.9814 C   0  0  0  0  0  0
  -25.2492  -13.8144   20.5677 C   0  0  0  0  0  0
  -24.1777  -13.0410   20.9221 C   0  0  0  0  0  0
  -24.6352  -11.6886   20.8778 C   0  0  0  0  0  0
  -23.9035  -10.4273   21.0428 C   0  0  0  0  0  0
  -24.3596   -9.4187   21.9196 C   0  0  0  0  0  0
  -23.6278   -8.2222   22.0754 C   0  0  0  0  0  0
  -22.4258   -8.0271   21.3544 C   0  0  0  0  0  0
  -21.9895   -9.0244   20.4646 C   0  0  0  0  0  0
  -22.7219  -10.2125   20.3065 C   0  0  0  0  0  0
  -21.6837   -6.0735   22.5281 C   0  0  0  0  0  0
  -21.4004   -6.5641   23.8216 C   0  0  0  0  0  0
  -21.3655   -5.6793   24.9177 C   0  0  0  0  0  0
  -21.6043   -4.3056   24.7226 C   0  0  0  0  0  0
  -21.8814   -3.8147   23.4345 C   0  0  0  0  0  0
  -21.9181   -4.6964   22.3402 C   0  0  0  0  0  0
  -22.7807  -13.5214   21.1874 C   0  0  0  0  0  0
  -22.1653   -4.2150   21.0979 F   0  0  0  0  0  0
  -21.5628   -3.4540   25.7738 F   0  0  0  0  0  0
  -29.9952  -13.4728   20.3950 N   0  0  0  0  0  0
  -26.2899  -12.9306   20.3286 N   0  0  0  0  0  0
  -25.9272  -11.6477   20.5795 N   0  0  0  0  0  0
  -22.0453  -12.8217   22.0446 N   0  0  0  0  0  0
  -25.4154  -15.1863   20.4043 N   0  0  0  0  0  0
  -31.9186  -14.6064   20.1619 O   0  0  0  0  0  0
  -21.6620   -6.8874   21.4241 O   0  0  0  0  0  0
  -22.3495  -14.5516   20.6713 O   0  0  0  0  0  0
  -24.6227  -31.8630   23.2059 C   0  0  0  0  0  0
  -25.9087  -32.4800   23.8373 C   0  0  1  0  0  0
  -27.2179  -27.3436   20.1160 C   0  0  0  0  0  0
  -25.5922  -33.8601   24.2294 N   0  0  0  0  0  0
  -23.4143  -30.4885   21.5483 C   0  0  2  0  0  0
  -24.8591  -28.9509   20.1106 C   0  0  0  0  0  0
  -22.7460  -29.4637   22.4950 C   0  0  0  0  0  0
  -18.0284  -28.1385   22.8484 C   0  0  0  0  0  0
  -24.1491  -36.7304   23.2641 C   0  0  0  0  0  0
  -25.9535  -30.8022   21.3736 C   0  0  0  0  0  0
  -26.0269  -29.4323   20.7153 C   0  0  0  0  0  0
  -27.2097  -28.6401   20.7094 C   0  0  0  0  0  0
  -26.0296  -26.9143   19.4797 C   0  0  0  0  0  0
  -24.8619  -27.6967   19.4838 C   0  0  0  0  0  0
  -23.6260  -29.8270   20.1619 C   0  0  0  0  0  0
  -25.4118  -36.3098   24.0329 C   0  0  1  0  0  0
  -20.5879  -28.3689   23.1286 C   0  0  2  0  0  0
  -20.6785  -26.9420   22.5400 C   0  0  0  0  0  0
  -19.5753  -26.6379   21.5214 C   0  0  0  0  0  0
  -18.1931  -26.7925   22.1629 C   0  0  0  0  0  0
  -19.1534  -28.8853   23.2879 C   0  0  0  0  0  0
  -18.9462  -30.1456   23.8896 C   0  0  0  0  0  0
  -17.6467  -30.6596   24.0557 C   0  0  0  0  0  0
  -25.9049  -34.9465   23.5110 C   0  0  0  0  0  0
  -16.5356  -29.9094   23.6329 C   0  0  0  0  0  0
  -16.7274  -28.6507   23.0353 C   0  0  0  0  0  0
  -26.4488  -31.6605   25.0735 C   0  0  0  0  0  0
  -25.3722  -31.3715   26.1459 C   0  0  0  0  0  0
  -27.0349  -30.3043   24.6165 C   0  0  0  0  0  0
  -27.6039  -32.4351   25.7509 C   0  0  0  0  0  0
  -27.5584  -37.1809   24.8469 C   0  0  0  0  0  0
  -21.4177  -29.3052   22.3694 N   0  0  0  0  0  0
  -26.4301  -37.3786   23.9404 N   0  0  0  0  0  0
  -24.6819  -31.0670   22.0999 N   0  0  0  0  0  0
  -23.4198  -28.8165   23.3006 O   0  0  0  0  0  0
  -28.3444  -26.5141   20.1651 O   0  0  0  0  0  0
  -26.5612  -34.8924   22.4675 O   0  0  0  0  0  0
  -23.5398  -32.1421   23.7402 O   0  0  0  0  0  0
  -28.2521  -20.9032   21.4176 C   0  0  0  0  0  0
  -29.2958  -20.3839   20.6918 C   0  0  0  0  0  0
  -29.9328  -21.5394   20.1008 C   0  0  0  0  0  0
  -29.2395  -22.6854   20.4514 C   0  0  0  0  0  0
  -29.4202  -24.1704   20.1076 C   0  0  0  0  0  0
  -30.6345  -18.3458   21.6143 C   0  0  0  0  0  0
  -28.5188  -17.8744   20.5576 C   0  0  0  0  0  0
  -27.5469  -24.7038   21.6862 C   0  0  0  0  0  0
  -31.1549  -16.9045   21.3243 C   0  0  0  0  0  0
  -28.9005  -16.3651   20.3479 C   0  0  0  0  0  0
  -29.6885  -18.8779   20.5310 C   0  0  0  0  0  0
  -28.1443  -25.0550   20.3048 C   0  0  1  0  0  0
  -27.2270  -23.1944   21.8971 C   0  0  2  0  0  0
  -31.1573  -21.5095   19.2226 C   0  0  0  0  0  0
  -27.0262  -22.8944   23.3930 C   0  0  0  0  0  0
  -28.2216  -22.2922   21.3005 N   0  0  0  0  0  0
  -30.1827  -15.8449   20.9017 N   0  0  0  0  0  0
  -31.4504  -12.4702   19.1508 H   0  0  0  0  0  0
  -30.3169  -11.4228   19.9441 H   0  0  0  0  0  0
  -29.7657  -11.7167   17.4993 H   0  0  0  0  0  0
  -29.6209  -13.4434   17.7280 H   0  0  0  0  0  0
  -27.8831  -11.2552   18.9175 H   0  0  0  0  0  0
  -27.3583  -12.4880   17.8019 H   0  0  0  0  0  0
  -27.6148  -14.2074   19.4224 H   0  0  0  0  0  0
  -28.7100  -12.1612   21.4344 H   0  0  0  0  0  0
  -28.4374  -13.8415   21.7897 H   0  0  0  0  0  0
  -25.2735   -9.5664   22.4778 H   0  0  0  0  0  0
  -23.9986   -7.4604   22.7465 H   0  0  0  0  0  0
  -21.0830   -8.8762   19.8946 H   0  0  0  0  0  0
  -22.3676  -10.9670   19.6183 H   0  0  0  0  0  0
  -21.2003   -7.6148   23.9724 H   0  0  0  0  0  0
  -21.1481   -6.0520   25.9081 H   0  0  0  0  0  0
  -22.0594   -2.7609   23.2840 H   0  0  0  0  0  0
  -22.4059  -11.9886   22.4853 H   0  0  0  0  0  0
  -21.1077  -13.1257   22.2656 H   0  0  0  0  0  0
  -24.6474  -15.8391   20.5184 H   0  0  0  0  0  0
  -26.2663  -15.6297   20.0860 H   0  0  0  0  0  0
  -26.7161  -32.5473   23.1126 H   0  0  0  0  0  0
  -25.0085  -33.9749   25.0450 H   0  0  0  0  0  0
  -22.7054  -31.3079   21.4091 H   0  0  0  0  0  0
  -23.3753  -35.9638   23.3304 H   0  0  0  0  0  0
  -24.3580  -36.8930   22.2056 H   0  0  0  0  0  0
  -23.7249  -37.6506   23.6668 H   0  0  0  0  0  0
  -26.0824  -31.5685   20.6083 H   0  0  0  0  0  0
  -26.8355  -30.8486   22.0014 H   0  0  0  0  0  0
  -28.1052  -29.0039   21.1941 H   0  0  0  0  0  0
  -25.9681  -25.9683   18.9669 H   0  0  0  0  0  0
  -23.9688  -27.3264   18.9983 H   0  0  0  0  0  0
  -23.7418  -30.6053   19.4068 H   0  0  0  0  0  0
  -22.7475  -29.2540   19.8608 H   0  0  0  0  0  0
  -25.1298  -36.1964   25.0823 H   0  0  0  0  0  0
  -20.9962  -28.3272   24.1411 H   0  0  0  0  0  0
  -20.5719  -26.2300   23.3596 H   0  0  0  0  0  0
  -21.6653  -26.7484   22.1178 H   0  0  0  0  0  0
  -19.6919  -25.6286   21.1260 H   0  0  0  0  0  0
  -19.6687  -27.3176   20.6732 H   0  0  0  0  0  0
  -17.4201  -26.6664   21.4032 H   0  0  0  0  0  0
  -18.0328  -26.0070   22.9028 H   0  0  0  0  0  0
  -19.7940  -30.7258   24.2276 H   0  0  0  0  0  0
  -17.5030  -31.6278   24.5158 H   0  0  0  0  0  0
  -15.5359  -30.3001   23.7654 H   0  0  0  0  0  0
  -15.8668  -28.0832   22.7076 H   0  0  0  0  0  0
  -24.5897  -30.7074   25.7769 H   0  0  0  0  0  0
  -24.8906  -32.2870   26.4904 H   0  0  0  0  0  0
  -25.8043  -30.8872   27.0223 H   0  0  0  0  0  0
  -26.2929  -29.6778   24.1202 H   0  0  0  0  0  0
  -27.4087  -29.7314   25.4659 H   0  0  0  0  0  0
  -27.8772  -30.4352   23.9367 H   0  0  0  0  0  0
  -27.2650  -33.3657   26.2071 H   0  0  0  0  0  0
  -28.3854  -32.6907   25.0344 H   0  0  0  0  0  0
  -28.0701  -31.8494   26.5440 H   0  0  0  0  0  0
  -28.2598  -38.0111   24.7536 H   0  0  0  0  0  0
  -28.1086  -36.2643   24.6288 H   0  0  0  0  0  0
  -27.2290  -37.1451   25.8867 H   0  0  0  0  0  0
  -20.9350  -29.8789   21.6919 H   0  0  0  0  0  0
  -26.0187  -38.2866   24.1395 H   0  0  0  0  0  0
  -27.5080  -20.3926   22.0152 H   0  0  0  0  0  0
  -29.7616  -24.2666   19.0767 H   0  0  0  0  0  0
  -30.2252  -24.5712   20.7238 H   0  0  0  0  0  0
  -31.4921  -19.0142   21.7020 H   0  0  0  0  0  0
  -30.1386  -18.3733   22.5855 H   0  0  0  0  0  0
  -28.0068  -17.9662   21.5167 H   0  0  0  0  0  0
  -27.7786  -18.1593   19.8084 H   0  0  0  0  0  0
  -26.6377  -25.2790   21.8623 H   0  0  0  0  0  0
  -28.2552  -25.0301   22.4485 H   0  0  0  0  0  0
  -31.6953  -16.5475   22.2025 H   0  0  0  0  0  0
  -31.9067  -17.0174   20.5402 H   0  0  0  0  0  0
  -28.8963  -16.1586   19.2759 H   0  0  0  0  0  0
  -28.0869  -15.7997   20.7895 H   0  0  0  0  0  0
  -30.1829  -18.7889   19.5626 H   0  0  0  0  0  0
  -27.4575  -24.6983   19.5413 H   0  0  0  0  0  0
  -26.2878  -22.9862   21.3820 H   0  0  0  0  0  0
  -31.7858  -20.6505   19.4585 H   0  0  0  0  0  0
  -31.7571  -22.4096   19.3662 H   0  0  0  0  0  0
  -30.8709  -21.4511   18.1727 H   0  0  0  0  0  0
  -27.9572  -23.0140   23.9481 H   0  0  0  0  0  0
  -26.6671  -21.8798   23.5617 H   0  0  0  0  0  0
  -26.2927  -23.5712   23.8312 H   0  0  0  0  0  0
  1 25  1  0  0  0
  1 30  2  0  0  0
  1 87  1  0  0  0
  2  3  1  0  0  0
  2 25  1  0  0  0
  2 88  1  0  0  0
  2 89  1  0  0  0
  3  4  1  0  0  0
  3 90  1  0  0  0
  3 91  1  0  0  0
  4  5  1  0  0  0
  4 92  1  0  0  0
  4 93  1  0  0  0
  5  6  1  0  0  0
  5 26  1  0  0  0
  5 94  1  0  0  0
  6 25  1  0  0  0
  6 95  1  0  0  0
  6 96  1  0  0  0
  7  8  2  0  0  0
  7 26  1  0  0  0
  7 29  1  0  0  0
  8  9  1  0  0  0
  8 22  1  0  0  0
  9 10  1  0  0  0
  9 27  2  0  0  0
 10 11  2  0  0  0
 10 15  1  0  0  0
 11 12  1  0  0  0
 11 97  1  0  0  0
 12 13  2  0  0  0
 12 98  1  0  0  0
 13 14  1  0  0  0
 13 31  1  0  0  0
 14 15  2  0  0  0
 14 99  1  0  0  0
 15100  1  0  0  0
 16 17  2  0  0  0
 16 21  1  0  0  0
 16 31  1  0  0  0
 17 18  1  0  0  0
 17101  1  0  0  0
 18 19  2  0  0  0
 18102  1  0  0  0
 19 20  1  0  0  0
 19 24  1  0  0  0
 20 21  2  0  0  0
 20103  1  0  0  0
 21 23  1  0  0  0
 22 28  1  0  0  0
 22 32  2  0  0  0
 26 27  1  0  0  0
 28104  1  0  0  0
 28105  1  0  0  0
 29106  1  0  0  0
 29107  1  0  0  0
 33 34  1  0  0  0
 33 66  1  0  0  0
 33 70  2  0  0  0
 34 36  1  0  0  0
 34 59  1  0  0  0
 34108  1  0  0  0
 35 44  2  0  0  0
 35 45  1  0  0  0
 35 68  1  0  0  0
 36 56  1  0  0  0
 36109  1  0  0  0
 37 39  1  0  0  0
 37 47  1  0  0  0
 37 66  1  0  0  0
 37110  1  0  0  0
 38 43  2  0  0  0
 38 46  1  0  0  0
 38 47  1  0  0  0
 39 64  1  0  0  0
 39 67  2  0  0  0
 40 52  1  0  0  0
 40 53  2  0  0  0
 40 58  1  0  0  0
 41111  1  0  0  0
 41112  1  0  0  0
 41113  1  0  0  0
 41 48  1  0  0  0
 42 43  1  0  0  0
 42 66  1  0  0  0
 42114  1  0  0  0
 42115  1  0  0  0
 43 44  1  0  0  0
 44116  1  0  0  0
 45 46  2  0  0  0
 45117  1  0  0  0
 46118  1  0  0  0
 47119  1  0  0  0
 47120  1  0  0  0
 48 56  1  0  0  0
 48 65  1  0  0  0
 48121  1  0  0  0
 49 50  1  0  0  0
 49 53  1  0  0  0
 49 64  1  0  0  0
 49122  1  0  0  0
 50 51  1  0  0  0
 50123  1  0  0  0
 50124  1  0  0  0
 51 52  1  0  0  0
 51125  1  0  0  0
 51126  1  0  0  0
 52127  1  0  0  0
 52128  1  0  0  0
 53 54  1  0  0  0
 54 55  2  0  0  0
 54129  1  0  0  0
 55 57  1  0  0  0
 55130  1  0  0  0
 56 69  2  0  0  0
 57 58  2  0  0  0
 57131  1  0  0  0
 58132  1  0  0  0
 59 60  1  0  0  0
 59 61  1  0  0  0
 59 62  1  0  0  0
 60133  1  0  0  0
 60134  1  0  0  0
 60135  1  0  0  0
 61136  1  0  0  0
 61137  1  0  0  0
 61138  1  0  0  0
 62139  1  0  0  0
 62140  1  0  0  0
 62141  1  0  0  0
 63 65  1  0  0  0
 63142  1  0  0  0
 63143  1  0  0  0
 63144  1  0  0  0
 64145  1  0  0  0
 65146  1  0  0  0
 68 82  1  0  0  0
 71 72  2  0  0  0
 71 86  1  0  0  0
 71147  1  0  0  0
 72 73  1  0  0  0
 72 81  1  0  0  0
 73 74  2  0  0  0
 73 84  1  0  0  0
 74 75  1  0  0  0
 74 86  1  0  0  0
 75 82  1  0  0  0
 75148  1  0  0  0
 75149  1  0  0  0
 76 79  1  0  0  0
 76 81  1  0  0  0
 76150  1  0  0  0
 76151  1  0  0  0
 77 80  1  0  0  0
 77 81  1  0  0  0
 77152  1  0  0  0
 77153  1  0  0  0
 78 82  1  0  0  0
 78 83  1  0  0  0
 78154  1  0  0  0
 78155  1  0  0  0
 79 87  1  0  0  0
 79156  1  0  0  0
 79157  1  0  0  0
 80 87  1  0  0  0
 80158  1  0  0  0
 80159  1  0  0  0
 81160  1  0  0  0
 82161  1  0  0  0
 83 85  1  0  0  0
 83 86  1  0  0  0
 83162  1  0  0  0
 84163  1  0  0  0
 84164  1  0  0  0
 84165  1  0  0  0
 85166  1  0  0  0
 85167  1  0  0  0
 85168  1  0  0  0
M  ISO  4   1 100  68 101  82 101  87 100
M  END
> <chiral flag>
0

> <version>
0

> <s_m_source_file>
/data/baiqing/PycharmProjects/Reinvent-master-3.2/result/LINK_invent/BTK/process_docking_weight1_custom_sum_contain_oxygen_bond_distance_aromatic_linkinvent_7_9_3/rearranged_h_0031.sdf

> <i_m_source_file_index>
8

> <r_mmod_Potential_Energy-OPLS-2005>
237.595245361328

> <r_mmod_Stretch_Energy-OPLS-2005>
71.5873718261719

> <r_mmod_Bend_Energy-OPLS-2005>
157.121795654297

> <r_mmod_Torsional_Energy-OPLS-2005>
340.54931640625

> <r_mmod_Improper_Torsional_Energy-OPLS-2005>
4.14759492874146

> <r_mmod_Van_der_Waal_Energy-OPLS-2005>
137.479644775391

> <r_mmod_Electrostatic_Energy-OPLS-2005>
-326.290893554688

> <r_mmod_Solvation_Energy-OPLS-2005>
-197.093292236328

> <b_mmod_Minimization_Converged-OPLS-2005>
0

> <r_mmod_RMS_Derivative-OPLS-2005>
1.07848346233368

$$$$
8
                    3D
 Structure written by MMmdl.
155164  0  0  1  0            999 V2000
  -30.6159  -14.6011   20.4894 C   0  0  0  0  0  0
  -30.4395  -12.3634   19.4417 C   0  0  0  0  0  0
  -29.5063  -12.5006   18.2176 C   0  0  0  0  0  0
  -28.0296  -12.3298   18.6314 C   0  0  0  0  0  0
  -27.6548  -13.1982   19.8609 C   0  0  2  0  0  0
  -28.7000  -13.0401   20.9865 C   0  0  0  0  0  0
  -25.2594  -13.8117   20.5672 C   0  0  0  0  0  0
  -24.1840  -13.0405   20.9190 C   0  0  0  0  0  0
  -24.6387  -11.6878   20.8756 C   0  0  0  0  0  0
  -23.9046  -10.4280   21.0419 C   0  0  0  0  0  0
  -24.3611   -9.4206   21.9197 C   0  0  0  0  0  0
  -23.6292   -8.2242   22.0759 C   0  0  0  0  0  0
  -22.4271   -8.0288   21.3548 C   0  0  0  0  0  0
  -21.9896   -9.0257   20.4643 C   0  0  0  0  0  0
  -22.7217  -10.2141   20.3055 C   0  0  0  0  0  0
  -21.6851   -6.0736   22.5283 C   0  0  0  0  0  0
  -21.4018   -6.5640   23.8220 C   0  0  0  0  0  0
  -21.3662   -5.6789   24.9183 C   0  0  0  0  0  0
  -21.6039   -4.3045   24.7218 C   0  0  0  0  0  0
  -21.8823   -3.8146   23.4337 C   0  0  0  0  0  0
  -21.9192   -4.6971   22.3404 C   0  0  0  0  0  0
  -22.7871  -13.5247   21.1830 C   0  0  0  0  0  0
  -22.1658   -4.2163   21.0980 F   0  0  0  0  0  0
  -21.5629   -3.4531   25.7726 F   0  0  0  0  0  0
  -30.0213  -13.3711   20.4322 N   0  0  0  0  0  0
  -26.3001  -12.9255   20.3318 N   0  0  0  0  0  0
  -25.9307  -11.6429   20.5781 N   0  0  0  0  0  0
  -22.0487  -12.8285   22.0398 N   0  0  0  0  0  0
  -25.4282  -15.1840   20.4108 N   0  0  0  0  0  0
  -31.7738  -14.7662   20.0916 O   0  0  0  0  0  0
  -21.6630   -6.8881   21.4245 O   0  0  0  0  0  0
  -22.3573  -14.5545   20.6651 O   0  0  0  0  0  0
  -24.6175  -31.8649   23.2016 C   0  0  0  0  0  0
  -25.9041  -32.4775   23.8372 C   0  0  1  0  0  0
  -27.2375  -27.3856   20.1143 C   0  0  0  0  0  0
  -25.5885  -33.8572   24.2307 N   0  0  0  0  0  0
  -23.4086  -30.4854   21.5469 C   0  0  2  0  0  0
  -24.8552  -28.9396   20.1182 C   0  0  0  0  0  0
  -22.7421  -29.4651   22.4995 C   0  0  0  0  0  0
  -18.0283  -28.1387   22.8489 C   0  0  0  0  0  0
  -24.1488  -36.7302   23.2640 C   0  0  0  0  0  0
  -25.9394  -30.8209   21.3545 C   0  0  0  0  0  0
  -26.0201  -29.4477   20.7088 C   0  0  0  0  0  0
  -27.2150  -28.6817   20.6957 C   0  0  0  0  0  0
  -26.0558  -26.9069   19.5093 C   0  0  0  0  0  0
  -24.8716  -27.6709   19.5123 C   0  0  0  0  0  0
  -23.6162  -29.8097   20.1642 C   0  0  0  0  0  0
  -25.4103  -36.3074   24.0339 C   0  0  1  0  0  0
  -20.5872  -28.3662   23.1316 C   0  0  2  0  0  0
  -20.6776  -26.9393   22.5424 C   0  0  0  0  0  0
  -19.5761  -26.6390   21.5210 C   0  0  0  0  0  0
  -18.1936  -26.7936   22.1614 C   0  0  0  0  0  0
  -19.1536  -28.8841   23.2903 C   0  0  0  0  0  0
  -18.9463  -30.1455   23.8916 C   0  0  0  0  0  0
  -17.6465  -30.6590   24.0572 C   0  0  0  0  0  0
  -25.9022  -34.9443   23.5122 C   0  0  0  0  0  0
  -16.5349  -29.9097   23.6327 C   0  0  0  0  0  0
  -16.7272  -28.6515   23.0333 C   0  0  0  0  0  0
  -26.4390  -31.6517   25.0704 C   0  0  0  0  0  0
  -25.3606  -31.3644   26.1410 C   0  0  0  0  0  0
  -27.0183  -30.2966   24.6042 C   0  0  0  0  0  0
  -27.5955  -32.4178   25.7519 C   0  0  0  0  0  0
  -27.5584  -37.1806   24.8462 C   0  0  0  0  0  0
  -21.4144  -29.3018   22.3727 N   0  0  0  0  0  0
  -26.4297  -37.3758   23.9405 N   0  0  0  0  0  0
  -24.6752  -31.0709   22.0943 N   0  0  0  0  0  0
  -23.4171  -28.8210   23.3072 O   0  0  0  0  0  0
  -28.3970  -26.6194   20.1080 O   0  0  0  0  0  0
  -26.5598  -34.8889   22.4698 O   0  0  0  0  0  0
  -23.5352  -32.1441   23.7374 O   0  0  0  0  0  0
  -28.1863  -20.4726   20.5135 C   0  0  0  0  0  0
  -30.4098  -22.1438   20.2986 C   0  0  0  0  0  0
  -29.4627  -19.9085   20.7713 C   0  0  0  0  0  0
  -29.1314  -22.7132   20.0597 C   0  0  0  0  0  0
  -30.5783  -20.7749   20.6438 C   0  0  0  0  0  0
  -28.0174  -21.8394   20.1656 C   0  0  0  0  0  0
  -29.0187  -16.4728   19.7142 C   0  0  0  0  0  0
  -29.7430  -15.8057   20.8742 C   0  0  2  0  0  0
  -30.0439  -17.2833   20.4549 C   0  0  2  0  0  0
  -29.5842  -18.4666   21.3498 C   0  0  0  0  0  0
  -28.9956  -24.1981   19.5986 C   0  0  0  0  0  0
  -28.3152  -25.2333   20.5595 C   0  0  0  0  0  0
  -32.1769  -20.1871   20.9335 Cl  0  0  0  0  0  0
  -26.4189  -22.4224   19.8677 Cl  0  0  0  0  0  0
  -31.4812  -12.4841   19.1417 H   0  0  0  0  0  0
  -30.3667  -11.3619   19.8691 H   0  0  0  0  0  0
  -29.7720  -11.7621   17.4590 H   0  0  0  0  0  0
  -29.6431  -13.4797   17.7576 H   0  0  0  0  0  0
  -27.8744  -11.2758   18.8656 H   0  0  0  0  0  0
  -27.3715  -12.5555   17.7926 H   0  0  0  0  0  0
  -27.6711  -14.2293   19.5184 H   0  0  0  0  0  0
  -28.7050  -12.0153   21.3579 H   0  0  0  0  0  0
  -28.4472  -13.6574   21.8483 H   0  0  0  0  0  0
  -25.2747   -9.5711   22.4770 H   0  0  0  0  0  0
  -24.0012   -7.4639   22.7482 H   0  0  0  0  0  0
  -21.0814   -8.8759   19.8959 H   0  0  0  0  0  0
  -22.3652  -10.9685   19.6174 H   0  0  0  0  0  0
  -21.2005   -7.6147   23.9736 H   0  0  0  0  0  0
  -21.1481   -6.0510   25.9093 H   0  0  0  0  0  0
  -22.0595   -2.7609   23.2828 H   0  0  0  0  0  0
  -22.4048  -11.9960   22.4849 H   0  0  0  0  0  0
  -21.1115  -13.1373   22.2546 H   0  0  0  0  0  0
  -24.6592  -15.8339   20.5267 H   0  0  0  0  0  0
  -26.2826  -15.6308   20.1047 H   0  0  0  0  0  0
  -26.7140  -32.5478   23.1170 H   0  0  0  0  0  0
  -25.0051  -33.9743   25.0459 H   0  0  0  0  0  0
  -22.6990  -31.3039   21.4037 H   0  0  0  0  0  0
  -23.3737  -35.9652   23.3288 H   0  0  0  0  0  0
  -24.3619  -36.8911   22.2059 H   0  0  0  0  0  0
  -23.7264  -37.6515   23.6650 H   0  0  0  0  0  0
  -26.0424  -31.5814   20.5784 H   0  0  0  0  0  0
  -26.8308  -30.8887   21.9671 H   0  0  0  0  0  0
  -28.1132  -29.0748   21.1512 H   0  0  0  0  0  0
  -26.0449  -25.9379   19.0296 H   0  0  0  0  0  0
  -23.9768  -27.2764   19.0491 H   0  0  0  0  0  0
  -23.7198  -30.5810   19.3992 H   0  0  0  0  0  0
  -22.7392  -29.2279   19.8742 H   0  0  0  0  0  0
  -25.1289  -36.1949   25.0836 H   0  0  0  0  0  0
  -20.9978  -28.3222   24.1432 H   0  0  0  0  0  0
  -20.5687  -26.2253   23.3612 H   0  0  0  0  0  0
  -21.6649  -26.7452   22.1213 H   0  0  0  0  0  0
  -19.6917  -25.6303   21.1244 H   0  0  0  0  0  0
  -19.6710  -27.3204   20.6748 H   0  0  0  0  0  0
  -17.4206  -26.6686   21.4012 H   0  0  0  0  0  0
  -18.0334  -26.0081   22.9024 H   0  0  0  0  0  0
  -19.7943  -30.7273   24.2282 H   0  0  0  0  0  0
  -17.5019  -31.6280   24.5173 H   0  0  0  0  0  0
  -15.5354  -30.3009   23.7643 H   0  0  0  0  0  0
  -15.8668  -28.0856   22.7010 H   0  0  0  0  0  0
  -24.5668  -30.7166   25.7650 H   0  0  0  0  0  0
  -24.8896  -32.2817   26.4939 H   0  0  0  0  0  0
  -25.7859  -30.8647   27.0124 H   0  0  0  0  0  0
  -26.2639  -29.6693   24.1272 H   0  0  0  0  0  0
  -27.4148  -29.7225   25.4421 H   0  0  0  0  0  0
  -27.8397  -30.4285   23.9008 H   0  0  0  0  0  0
  -27.2579  -33.3449   26.2173 H   0  0  0  0  0  0
  -28.3798  -32.6734   25.0386 H   0  0  0  0  0  0
  -28.0565  -31.8218   26.5399 H   0  0  0  0  0  0
  -28.2598  -38.0105   24.7482 H   0  0  0  0  0  0
  -28.1082  -36.2632   24.6298 H   0  0  0  0  0  0
  -27.2304  -37.1457   25.8867 H   0  0  0  0  0  0
  -20.9315  -29.8689   21.6899 H   0  0  0  0  0  0
  -26.0176  -38.2838   24.1379 H   0  0  0  0  0  0
  -27.3048  -19.8555   20.6141 H   0  0  0  0  0  0
  -31.2947  -22.7595   20.2150 H   0  0  0  0  0  0
  -27.9706  -16.7261   19.8581 H   0  0  0  0  0  0
  -29.2728  -16.1564   18.7029 H   0  0  0  0  0  0
  -29.2057  -15.7080   21.8143 H   0  0  0  0  0  0
  -30.9905  -17.4494   19.9427 H   0  0  0  0  0  0
  -28.6179  -18.2041   21.7813 H   0  0  0  0  0  0
  -30.2635  -18.5093   22.2015 H   0  0  0  0  0  0
  -28.4581  -24.2007   18.6514 H   0  0  0  0  0  0
  -29.9936  -24.5671   19.3581 H   0  0  0  0  0  0
  -27.2889  -24.9370   20.7703 H   0  0  0  0  0  0
  -28.8276  -25.1927   21.5213 H   0  0  0  0  0  0
  1 25  1  0  0  0
  1 30  2  0  0  0
  1 78  1  0  0  0
  2  3  1  0  0  0
  2 25  1  0  0  0
  2 85  1  0  0  0
  2 86  1  0  0  0
  3  4  1  0  0  0
  3 87  1  0  0  0
  3 88  1  0  0  0
  4  5  1  0  0  0
  4 89  1  0  0  0
  4 90  1  0  0  0
  5  6  1  0  0  0
  5 26  1  0  0  0
  5 91  1  0  0  0
  6 25  1  0  0  0
  6 92  1  0  0  0
  6 93  1  0  0  0
  7  8  2  0  0  0
  7 26  1  0  0  0
  7 29  1  0  0  0
  8  9  1  0  0  0
  8 22  1  0  0  0
  9 10  1  0  0  0
  9 27  2  0  0  0
 10 11  2  0  0  0
 10 15  1  0  0  0
 11 12  1  0  0  0
 11 94  1  0  0  0
 12 13  2  0  0  0
 12 95  1  0  0  0
 13 14  1  0  0  0
 13 31  1  0  0  0
 14 15  2  0  0  0
 14 96  1  0  0  0
 15 97  1  0  0  0
 16 17  2  0  0  0
 16 21  1  0  0  0
 16 31  1  0  0  0
 17 18  1  0  0  0
 17 98  1  0  0  0
 18 19  2  0  0  0
 18 99  1  0  0  0
 19 20  1  0  0  0
 19 24  1  0  0  0
 20 21  2  0  0  0
 20100  1  0  0  0
 21 23  1  0  0  0
 22 28  1  0  0  0
 22 32  2  0  0  0
 26 27  1  0  0  0
 28101  1  0  0  0
 28102  1  0  0  0
 29103  1  0  0  0
 29104  1  0  0  0
 33 34  1  0  0  0
 33 66  1  0  0  0
 33 70  2  0  0  0
 34 36  1  0  0  0
 34 59  1  0  0  0
 34105  1  0  0  0
 35 44  2  0  0  0
 35 45  1  0  0  0
 35 68  1  0  0  0
 36 56  1  0  0  0
 36106  1  0  0  0
 37 39  1  0  0  0
 37 47  1  0  0  0
 37 66  1  0  0  0
 37107  1  0  0  0
 38 43  2  0  0  0
 38 46  1  0  0  0
 38 47  1  0  0  0
 39 64  1  0  0  0
 39 67  2  0  0  0
 40 52  1  0  0  0
 40 53  2  0  0  0
 40 58  1  0  0  0
 41108  1  0  0  0
 41109  1  0  0  0
 41110  1  0  0  0
 41 48  1  0  0  0
 42 43  1  0  0  0
 42 66  1  0  0  0
 42111  1  0  0  0
 42112  1  0  0  0
 43 44  1  0  0  0
 44113  1  0  0  0
 45 46  2  0  0  0
 45114  1  0  0  0
 46115  1  0  0  0
 47116  1  0  0  0
 47117  1  0  0  0
 48 56  1  0  0  0
 48 65  1  0  0  0
 48118  1  0  0  0
 49 50  1  0  0  0
 49 53  1  0  0  0
 49 64  1  0  0  0
 49119  1  0  0  0
 50 51  1  0  0  0
 50120  1  0  0  0
 50121  1  0  0  0
 51 52  1  0  0  0
 51122  1  0  0  0
 51123  1  0  0  0
 52124  1  0  0  0
 52125  1  0  0  0
 53 54  1  0  0  0
 54 55  2  0  0  0
 54126  1  0  0  0
 55 57  1  0  0  0
 55127  1  0  0  0
 56 69  2  0  0  0
 57 58  2  0  0  0
 57128  1  0  0  0
 58129  1  0  0  0
 59 60  1  0  0  0
 59 61  1  0  0  0
 59 62  1  0  0  0
 60130  1  0  0  0
 60131  1  0  0  0
 60132  1  0  0  0
 61133  1  0  0  0
 61134  1  0  0  0
 61135  1  0  0  0
 62136  1  0  0  0
 62137  1  0  0  0
 62138  1  0  0  0
 63 65  1  0  0  0
 63139  1  0  0  0
 63140  1  0  0  0
 63141  1  0  0  0
 64142  1  0  0  0
 65143  1  0  0  0
 68 82  1  0  0  0
 71 73  2  0  0  0
 71 76  1  0  0  0
 71144  1  0  0  0
 72 74  1  0  0  0
 72 75  2  0  0  0
 72145  1  0  0  0
 73 75  1  0  0  0
 73 80  1  0  0  0
 74 76  2  0  0  0
 74 81  1  0  0  0
 75 83  1  0  0  0
 76 84  1  0  0  0
 77 78  1  0  0  0
 77 79  1  0  0  0
 77146  1  0  0  0
 77147  1  0  0  0
 78 79  1  0  0  0
 78148  1  0  0  0
 79 80  1  0  0  0
 79149  1  0  0  0
 80150  1  0  0  0
 80151  1  0  0  0
 81 82  1  0  0  0
 81152  1  0  0  0
 81153  1  0  0  0
 82154  1  0  0  0
 82155  1  0  0  0
M  ISO  4   1 100  68 101  78 100  82 101
M  END
> <chiral flag>
0

> <version>
0

> <s_m_source_file>
/data/baiqing/PycharmProjects/Reinvent-master-3.2/result/LINK_invent/BTK/process_docking_weight1_custom_sum_contain_oxygen_bond_distance_aromatic_linkinvent_7_9_3/rearranged_h_0031.sdf

> <i_m_source_file_index>
9

> <r_mmod_Potential_Energy-OPLS-2005>
56.419807434082

> <r_mmod_Stretch_Energy-OPLS-2005>
58.3447914123535

> <r_mmod_Bend_Energy-OPLS-2005>
111.131401062012

> <r_mmod_Torsional_Energy-OPLS-2005>
225.018966674805

> <r_mmod_Improper_Torsional_Energy-OPLS-2005>
5.05987310409546

> <r_mmod_Van_der_Waal_Energy-OPLS-2005>
133.511703491211

> <r_mmod_Electrostatic_Energy-OPLS-2005>
-315.324768066406

> <r_mmod_Solvation_Energy-OPLS-2005>
-191.284622192383

> <b_mmod_Minimization_Converged-OPLS-2005>
0

> <r_mmod_RMS_Derivative-OPLS-2005>
2.96704912185669

$$$$
9
                    3D
 Structure written by MMmdl.
165173  0  0  1  0            999 V2000
  -30.7267  -14.4075   20.6503 C   0  0  0  0  0  0
  -30.4164  -12.3160   19.3683 C   0  0  0  0  0  0
  -29.4696  -12.5484   18.1753 C   0  0  0  0  0  0
  -27.9960  -12.4015   18.6015 C   0  0  0  0  0  0
  -27.6660  -13.2034   19.8873 C   0  0  2  0  0  0
  -28.7121  -12.9301   20.9883 C   0  0  0  0  0  0
  -25.2631  -13.8129   20.5672 C   0  0  0  0  0  0
  -24.1872  -13.0417   20.9157 C   0  0  0  0  0  0
  -24.6408  -11.6886   20.8715 C   0  0  0  0  0  0
  -23.9062  -10.4270   21.0356 C   0  0  0  0  0  0
  -24.3637   -9.4191   21.9131 C   0  0  0  0  0  0
  -23.6310   -8.2233   22.0730 C   0  0  0  0  0  0
  -22.4292   -8.0266   21.3539 C   0  0  0  0  0  0
  -21.9915   -9.0225   20.4627 C   0  0  0  0  0  0
  -22.7239  -10.2103   20.3015 C   0  0  0  0  0  0
  -21.6854   -6.0717   22.5261 C   0  0  0  0  0  0
  -21.4018   -6.5618   23.8179 C   0  0  0  0  0  0
  -21.3677   -5.6787   24.9153 C   0  0  0  0  0  0
  -21.6082   -4.3054   24.7217 C   0  0  0  0  0  0
  -21.8837   -3.8144   23.4347 C   0  0  0  0  0  0
  -21.9195   -4.6946   22.3398 C   0  0  0  0  0  0
  -22.7896  -13.5205   21.1839 C   0  0  0  0  0  0
  -22.1659   -4.2128   21.0980 F   0  0  0  0  0  0
  -21.5636   -3.4544   25.7725 F   0  0  0  0  0  0
  -30.0404  -13.2528   20.4363 N   0  0  0  0  0  0
  -26.3072  -12.9295   20.3456 N   0  0  0  0  0  0
  -25.9348  -11.6455   20.5811 N   0  0  0  0  0  0
  -22.0593  -12.8123   22.0381 N   0  0  0  0  0  0
  -25.4414  -15.1828   20.4025 N   0  0  0  0  0  0
  -31.8075  -14.6647   20.1090 O   0  0  0  0  0  0
  -21.6679   -6.8855   21.4213 O   0  0  0  0  0  0
  -22.3567  -14.5521   20.6718 O   0  0  0  0  0  0
  -24.6089  -31.8707   23.2128 C   0  0  0  0  0  0
  -25.8989  -32.4843   23.8427 C   0  0  1  0  0  0
  -27.2497  -27.4913   20.0852 C   0  0  0  0  0  0
  -25.5874  -33.8635   24.2353 N   0  0  0  0  0  0
  -23.3961  -30.4919   21.5491 C   0  0  2  0  0  0
  -24.8493  -28.9591   20.1174 C   0  0  0  0  0  0
  -22.7380  -29.4647   22.4978 C   0  0  0  0  0  0
  -18.0267  -28.1385   22.8477 C   0  0  0  0  0  0
  -24.1477  -36.7324   23.2638 C   0  0  0  0  0  0
  -25.9193  -30.8516   21.3624 C   0  0  0  0  0  0
  -26.0007  -29.4847   20.7184 C   0  0  0  0  0  0
  -27.2007  -28.7494   20.7156 C   0  0  0  0  0  0
  -26.0865  -26.9599   19.4914 C   0  0  0  0  0  0
  -24.8820  -27.6907   19.5091 C   0  0  0  0  0  0
  -23.6081  -29.8181   20.1647 C   0  0  0  0  0  0
  -25.4094  -36.3119   24.0348 C   0  0  1  0  0  0
  -20.5858  -28.3650   23.1329 C   0  0  2  0  0  0
  -20.6744  -26.9387   22.5413 C   0  0  0  0  0  0
  -19.5732  -26.6400   21.5195 C   0  0  0  0  0  0
  -18.1912  -26.7931   22.1601 C   0  0  0  0  0  0
  -19.1518  -28.8829   23.2915 C   0  0  0  0  0  0
  -18.9445  -30.1444   23.8917 C   0  0  0  0  0  0
  -17.6448  -30.6579   24.0577 C   0  0  0  0  0  0
  -25.9028  -34.9482   23.5145 C   0  0  0  0  0  0
  -16.5338  -29.9086   23.6342 C   0  0  0  0  0  0
  -16.7256  -28.6516   23.0333 C   0  0  0  0  0  0
  -26.4460  -31.6602   25.0721 C   0  0  0  0  0  0
  -25.3760  -31.3676   26.1483 C   0  0  0  0  0  0
  -27.0307  -30.3065   24.6069 C   0  0  0  0  0  0
  -27.6053  -32.4296   25.7472 C   0  0  0  0  0  0
  -27.5584  -37.1827   24.8453 C   0  0  0  0  0  0
  -21.4111  -29.3031   22.3726 N   0  0  0  0  0  0
  -26.4278  -37.3805   23.9413 N   0  0  0  0  0  0
  -24.6586  -31.0839   22.1018 N   0  0  0  0  0  0
  -23.4163  -28.8199   23.3010 O   0  0  0  0  0  0
  -28.4274  -26.7977   20.0478 O   0  0  0  0  0  0
  -26.5592  -34.8919   22.4707 O   0  0  0  0  0  0
  -23.5293  -32.1412   23.7562 O   0  0  0  0  0  0
  -31.5540  -20.4452   18.9497 C   0  0  0  0  0  0
  -31.5294  -22.1421   21.1871 C   0  0  0  0  0  0
  -31.5833  -21.8460   18.7659 C   0  0  0  0  0  0
  -31.5117  -19.8863   20.2475 C   0  0  0  0  0  0
  -31.5869  -22.7038   19.8951 C   0  0  0  0  0  0
  -31.5088  -20.7477   21.3671 C   0  0  0  0  0  0
  -31.6245  -22.3998   17.3494 C   0  0  0  0  0  0
  -31.5573  -18.3759   20.4462 C   0  0  0  0  0  0
  -31.6836  -24.2191   19.7582 C   0  0  0  0  0  0
  -30.3347  -17.7857   21.1880 C   0  0  0  0  0  0
  -30.6644  -16.5171   22.0175 C   0  0  0  0  0  0
  -30.4349  -26.1951   18.9383 C   0  0  0  0  0  0
  -29.0337  -26.7813   18.7610 C   0  0  0  0  0  0
  -30.1218  -15.2755   21.4684 N   0  0  0  0  0  0
  -30.3675  -24.8252   19.4947 N   0  3  0  0  0  0
  -31.5104  -20.2465   22.6260 F   0  0  0  0  0  0
  -31.4514  -12.4401   19.0456 H   0  0  0  0  0  0
  -30.3339  -11.2858   19.7184 H   0  0  0  0  0  0
  -29.6847  -11.8429   17.3721 H   0  0  0  0  0  0
  -29.6406  -13.5428   17.7598 H   0  0  0  0  0  0
  -27.7861  -11.3428   18.7571 H   0  0  0  0  0  0
  -27.3372  -12.7202   17.7908 H   0  0  0  0  0  0
  -27.7235  -14.2639   19.6373 H   0  0  0  0  0  0
  -28.6979  -11.8783   21.2749 H   0  0  0  0  0  0
  -28.4692  -13.4763   21.9009 H   0  0  0  0  0  0
  -25.2775   -9.5661   22.4729 H   0  0  0  0  0  0
  -24.0034   -7.4618   22.7441 H   0  0  0  0  0  0
  -21.0865   -8.8719   19.8920 H   0  0  0  0  0  0
  -22.3674  -10.9645   19.6150 H   0  0  0  0  0  0
  -21.2001   -7.6119   23.9663 H   0  0  0  0  0  0
  -21.1485   -6.0518   25.9038 H   0  0  0  0  0  0
  -22.0610   -2.7607   23.2848 H   0  0  0  0  0  0
  -22.4259  -11.9728   22.4642 H   0  0  0  0  0  0
  -21.1203  -13.1057   22.2663 H   0  0  0  0  0  0
  -24.6906  -15.8535   20.5104 H   0  0  0  0  0  0
  -26.3065  -15.6050   20.0884 H   0  0  0  0  0  0
  -26.7056  -32.5589   23.1210 H   0  0  0  0  0  0
  -25.0021  -33.9794   25.0498 H   0  0  0  0  0  0
  -22.6832  -31.3066   21.4046 H   0  0  0  0  0  0
  -23.3745  -35.9650   23.3263 H   0  0  0  0  0  0
  -24.3592  -36.8969   22.2062 H   0  0  0  0  0  0
  -23.7206  -37.6515   23.6661 H   0  0  0  0  0  0
  -26.0213  -31.6171   20.5917 H   0  0  0  0  0  0
  -26.8089  -30.9117   21.9754 H   0  0  0  0  0  0
  -28.0926  -29.1538   21.1759 H   0  0  0  0  0  0
  -26.1154  -25.9902   19.0149 H   0  0  0  0  0  0
  -23.9978  -27.2776   19.0432 H   0  0  0  0  0  0
  -23.7127  -30.5874   19.3994 H   0  0  0  0  0  0
  -22.7373  -29.2298   19.8707 H   0  0  0  0  0  0
  -25.1275  -36.1995   25.0849 H   0  0  0  0  0  0
  -20.9966  -28.3215   24.1449 H   0  0  0  0  0  0
  -20.5625  -26.2269   23.3609 H   0  0  0  0  0  0
  -21.6630  -26.7421   22.1235 H   0  0  0  0  0  0
  -19.6901  -25.6317   21.1220 H   0  0  0  0  0  0
  -19.6704  -27.3231   20.6747 H   0  0  0  0  0  0
  -17.4204  -26.6706   21.3986 H   0  0  0  0  0  0
  -18.0296  -26.0058   22.8979 H   0  0  0  0  0  0
  -19.7924  -30.7255   24.2294 H   0  0  0  0  0  0
  -17.5002  -31.6256   24.5177 H   0  0  0  0  0  0
  -15.5343  -30.2995   23.7636 H   0  0  0  0  0  0
  -15.8654  -28.0842   22.7022 H   0  0  0  0  0  0
  -24.5903  -30.7067   25.7809 H   0  0  0  0  0  0
  -24.9001  -32.2828   26.5007 H   0  0  0  0  0  0
  -25.8129  -30.8774   27.0192 H   0  0  0  0  0  0
  -26.2869  -29.6810   24.1130 H   0  0  0  0  0  0
  -27.4116  -29.7291   25.4503 H   0  0  0  0  0  0
  -27.8665  -30.4397   23.9196 H   0  0  0  0  0  0
  -27.2712  -33.3594   26.2070 H   0  0  0  0  0  0
  -28.3868  -32.6843   25.0306 H   0  0  0  0  0  0
  -28.0719  -31.8405   26.5375 H   0  0  0  0  0  0
  -28.2577  -38.0147   24.7526 H   0  0  0  0  0  0
  -28.1104  -36.2682   24.6239 H   0  0  0  0  0  0
  -27.2317  -37.1434   25.8858 H   0  0  0  0  0  0
  -20.9244  -29.8769   21.6981 H   0  0  0  0  0  0
  -26.0171  -38.2881   24.1430 H   0  0  0  0  0  0
  -31.5855  -19.7999   18.0817 H   0  0  0  0  0  0
  -31.5202  -22.7756   22.0629 H   0  0  0  0  0  0
  -31.4940  -21.6114   16.6079 H   0  0  0  0  0  0
  -32.5789  -22.8842   17.1471 H   0  0  0  0  0  0
  -30.8287  -23.1264   17.1895 H   0  0  0  0  0  0
  -32.4687  -18.1835   21.0128 H   0  0  0  0  0  0
  -31.6837  -17.8773   19.4835 H   0  0  0  0  0  0
  -32.3814  -24.4666   18.9571 H   0  0  0  0  0  0
  -32.1052  -24.6550   20.6647 H   0  0  0  0  0  0
  -29.5056  -17.6324   20.4930 H   0  0  0  0  0  0
  -29.9683  -18.5264   21.9025 H   0  0  0  0  0  0
  -30.2128  -16.6185   23.0080 H   0  0  0  0  0  0
  -31.7334  -16.4181   22.2034 H   0  0  0  0  0  0
  -31.0142  -26.8349   19.6071 H   0  0  0  0  0  0
  -30.9542  -26.1858   17.9769 H   0  0  0  0  0  0
  -28.4482  -26.1895   18.0562 H   0  0  0  0  0  0
  -29.1036  -27.7942   18.3541 H   0  0  0  0  0  0
  -29.2358  -14.9656   21.8424 H   0  0  0  0  0  0
  -29.8481  -24.8537   20.3602 H   0  0  0  0  0  0
  -29.8622  -24.2261   18.8618 H   0  0  0  0  0  0
  1 25  1  0  0  0
  1 30  2  0  0  0
  1 84  1  0  0  0
  2  3  1  0  0  0
  2 25  1  0  0  0
  2 87  1  0  0  0
  2 88  1  0  0  0
  3  4  1  0  0  0
  3 89  1  0  0  0
  3 90  1  0  0  0
  4  5  1  0  0  0
  4 91  1  0  0  0
  4 92  1  0  0  0
  5  6  1  0  0  0
  5 26  1  0  0  0
  5 93  1  0  0  0
  6 25  1  0  0  0
  6 94  1  0  0  0
  6 95  1  0  0  0
  7  8  2  0  0  0
  7 26  1  0  0  0
  7 29  1  0  0  0
  8  9  1  0  0  0
  8 22  1  0  0  0
  9 10  1  0  0  0
  9 27  2  0  0  0
 10 11  2  0  0  0
 10 15  1  0  0  0
 11 12  1  0  0  0
 11 96  1  0  0  0
 12 13  2  0  0  0
 12 97  1  0  0  0
 13 14  1  0  0  0
 13 31  1  0  0  0
 14 15  2  0  0  0
 14 98  1  0  0  0
 15 99  1  0  0  0
 16 17  2  0  0  0
 16 21  1  0  0  0
 16 31  1  0  0  0
 17 18  1  0  0  0
 17100  1  0  0  0
 18 19  2  0  0  0
 18101  1  0  0  0
 19 20  1  0  0  0
 19 24  1  0  0  0
 20 21  2  0  0  0
 20102  1  0  0  0
 21 23  1  0  0  0
 22 28  1  0  0  0
 22 32  2  0  0  0
 26 27  1  0  0  0
 28103  1  0  0  0
 28104  1  0  0  0
 29105  1  0  0  0
 29106  1  0  0  0
 33 34  1  0  0  0
 33 66  1  0  0  0
 33 70  2  0  0  0
 34 36  1  0  0  0
 34 59  1  0  0  0
 34107  1  0  0  0
 35 44  2  0  0  0
 35 45  1  0  0  0
 35 68  1  0  0  0
 36 56  1  0  0  0
 36108  1  0  0  0
 37 39  1  0  0  0
 37 47  1  0  0  0
 37 66  1  0  0  0
 37109  1  0  0  0
 38 43  2  0  0  0
 38 46  1  0  0  0
 38 47  1  0  0  0
 39 64  1  0  0  0
 39 67  2  0  0  0
 40 52  1  0  0  0
 40 53  2  0  0  0
 40 58  1  0  0  0
 41110  1  0  0  0
 41111  1  0  0  0
 41112  1  0  0  0
 41 48  1  0  0  0
 42 43  1  0  0  0
 42 66  1  0  0  0
 42113  1  0  0  0
 42114  1  0  0  0
 43 44  1  0  0  0
 44115  1  0  0  0
 45 46  2  0  0  0
 45116  1  0  0  0
 46117  1  0  0  0
 47118  1  0  0  0
 47119  1  0  0  0
 48 56  1  0  0  0
 48 65  1  0  0  0
 48120  1  0  0  0
 49 50  1  0  0  0
 49 53  1  0  0  0
 49 64  1  0  0  0
 49121  1  0  0  0
 50 51  1  0  0  0
 50122  1  0  0  0
 50123  1  0  0  0
 51 52  1  0  0  0
 51124  1  0  0  0
 51125  1  0  0  0
 52126  1  0  0  0
 52127  1  0  0  0
 53 54  1  0  0  0
 54 55  2  0  0  0
 54128  1  0  0  0
 55 57  1  0  0  0
 55129  1  0  0  0
 56 69  2  0  0  0
 57 58  2  0  0  0
 57130  1  0  0  0
 58131  1  0  0  0
 59 60  1  0  0  0
 59 61  1  0  0  0
 59 62  1  0  0  0
 60132  1  0  0  0
 60133  1  0  0  0
 60134  1  0  0  0
 61135  1  0  0  0
 61136  1  0  0  0
 61137  1  0  0  0
 62138  1  0  0  0
 62139  1  0  0  0
 62140  1  0  0  0
 63 65  1  0  0  0
 63141  1  0  0  0
 63142  1  0  0  0
 63143  1  0  0  0
 64144  1  0  0  0
 65145  1  0  0  0
 68 83  1  0  0  0
 71 73  2  0  0  0
 71 74  1  0  0  0
 71146  1  0  0  0
 72 75  2  0  0  0
 72 76  1  0  0  0
 72147  1  0  0  0
 73 75  1  0  0  0
 73 77  1  0  0  0
 74 76  2  0  0  0
 74 78  1  0  0  0
 75 79  1  0  0  0
 76 86  1  0  0  0
 77148  1  0  0  0
 77149  1  0  0  0
 77150  1  0  0  0
 78 80  1  0  0  0
 78151  1  0  0  0
 78152  1  0  0  0
 79 85  1  0  0  0
 79153  1  0  0  0
 79154  1  0  0  0
 80 81  1  0  0  0
 80155  1  0  0  0
 80156  1  0  0  0
 81 84  1  0  0  0
 81157  1  0  0  0
 81158  1  0  0  0
 82 83  1  0  0  0
 82 85  1  0  0  0
 82159  1  0  0  0
 82160  1  0  0  0
 83161  1  0  0  0
 83162  1  0  0  0
 84163  1  0  0  0
 85164  1  0  0  0
 85165  1  0  0  0
M  CHG  1  85   1
M  ISO  4   1 100  68 101  83 101  84 100
M  END
> <chiral flag>
0

> <version>
0

> <s_m_source_file>
/data/baiqing/PycharmProjects/Reinvent-master-3.2/result/LINK_invent/BTK/process_docking_weight1_custom_sum_contain_oxygen_bond_distance_aromatic_linkinvent_7_9_3/rearranged_h_0031.sdf

> <i_m_source_file_index>
10

> <r_mmod_Potential_Energy-OPLS-2005>
-242.840209960938

> <r_mmod_Stretch_Energy-OPLS-2005>
32.0817184448242

> <r_mmod_Bend_Energy-OPLS-2005>
88.3581161499023

> <r_mmod_Torsional_Energy-OPLS-2005>
233.556884765625

> <r_mmod_Improper_Torsional_Energy-OPLS-2005>
2.15447998046875

> <r_mmod_Van_der_Waal_Energy-OPLS-2005>
151.872573852539

> <r_mmod_Electrostatic_Energy-OPLS-2005>
-322.269073486328

> <r_mmod_Solvation_Energy-OPLS-2005>
-436.075897216797

> <b_mmod_Minimization_Converged-OPLS-2005>
0

> <r_mmod_RMS_Derivative-OPLS-2005>
4.53600740432739

$$$$
10
                    3D
 Structure written by MMmdl.
159167  0  0  1  0            999 V2000
  -30.4098  -15.3316   20.3696 C   0  0  0  0  0  0
  -30.4394  -12.8640   19.5088 C   0  0  0  0  0  0
  -29.5342  -12.5842   18.2820 C   0  0  0  0  0  0
  -28.0882  -12.2922   18.7205 C   0  0  0  0  0  0
  -27.6063  -13.2770   19.8139 C   0  0  2  0  0  0
  -28.6424  -13.4832   20.9378 C   0  0  0  0  0  0
  -25.2379  -13.8240   20.5757 C   0  0  0  0  0  0
  -24.1736  -13.0428   20.9267 C   0  0  0  0  0  0
  -24.6395  -11.6926   20.8765 C   0  0  0  0  0  0
  -23.9090  -10.4287   21.0405 C   0  0  0  0  0  0
  -24.3632   -9.4202   21.9185 C   0  0  0  0  0  0
  -23.6300   -8.2240   22.0755 C   0  0  0  0  0  0
  -22.4282   -8.0280   21.3545 C   0  0  0  0  0  0
  -21.9923   -9.0254   20.4645 C   0  0  0  0  0  0
  -22.7259  -10.2129   20.3054 C   0  0  0  0  0  0
  -21.6857   -6.0735   22.5278 C   0  0  0  0  0  0
  -21.4017   -6.5639   23.8212 C   0  0  0  0  0  0
  -21.3660   -5.6793   24.9174 C   0  0  0  0  0  0
  -21.6043   -4.3055   24.7225 C   0  0  0  0  0  0
  -21.8819   -3.8146   23.4347 C   0  0  0  0  0  0
  -21.9194   -4.6963   22.3402 C   0  0  0  0  0  0
  -22.7754  -13.5182   21.1911 C   0  0  0  0  0  0
  -22.1663   -4.2148   21.0980 F   0  0  0  0  0  0
  -21.5627   -3.4538   25.7739 F   0  0  0  0  0  0
  -29.8543  -14.0168   20.2908 N   0  0  0  0  0  0
  -26.2802  -12.9517   20.3206 N   0  0  0  0  0  0
  -25.9332  -11.6620   20.5710 N   0  0  0  0  0  0
  -22.0413  -12.8164   22.0463 N   0  0  0  0  0  0
  -25.3999  -15.1976   20.4199 N   0  0  0  0  0  0
  -31.6447  -15.3186   20.2533 O   0  0  0  0  0  0
  -21.6644   -6.8879   21.4240 O   0  0  0  0  0  0
  -22.3434  -14.5486   20.6750 O   0  0  0  0  0  0
  -24.6673  -31.8197   23.1669 C   0  0  0  0  0  0
  -25.9337  -32.4569   23.8148 C   0  0  1  0  0  0
  -27.2187  -26.8844   20.2000 C   0  0  0  0  0  0
  -25.5986  -33.8383   24.2051 N   0  0  0  0  0  0
  -23.4842  -30.4293   21.5178 C   0  0  2  0  0  0
  -24.9374  -28.8033   20.1218 C   0  0  0  0  0  0
  -22.7686  -29.4423   22.4778 C   0  0  0  0  0  0
  -18.0325  -28.1413   22.8465 C   0  0  0  0  0  0
  -24.1490  -36.7192   23.2649 C   0  0  0  0  0  0
  -26.0560  -30.6131   21.4027 C   0  0  0  0  0  0
  -26.1247  -29.1960   20.7532 C   0  0  0  0  0  0
  -27.2629  -28.2616   20.7594 C   0  0  0  0  0  0
  -25.9985  -26.6508   19.5273 C   0  0  0  0  0  0
  -24.9013  -27.5511   19.4880 C   0  0  0  0  0  0
  -23.7275  -29.7392   20.1477 C   0  0  0  0  0  0
  -25.4134  -36.2953   24.0295 C   0  0  1  0  0  0
  -20.5951  -28.3761   23.1178 C   0  0  2  0  0  0
  -20.6801  -26.9438   22.5400 C   0  0  0  0  0  0
  -19.5775  -26.6380   21.5212 C   0  0  0  0  0  0
  -18.1957  -26.7946   22.1621 C   0  0  0  0  0  0
  -19.1587  -28.8909   23.2807 C   0  0  0  0  0  0
  -18.9499  -30.1497   23.8845 C   0  0  0  0  0  0
  -17.6494  -30.6603   24.0554 C   0  0  0  0  0  0
  -25.9106  -34.9339   23.4997 C   0  0  0  0  0  0
  -16.5382  -29.9088   23.6347 C   0  0  0  0  0  0
  -16.7307  -28.6509   23.0366 C   0  0  0  0  0  0
  -26.4571  -31.6530   25.0695 C   0  0  0  0  0  0
  -25.3683  -31.3790   26.1340 C   0  0  0  0  0  0
  -27.0476  -30.2894   24.6455 C   0  0  0  0  0  0
  -27.6053  -32.4351   25.7502 C   0  0  0  0  0  0
  -27.5564  -37.1751   24.8468 C   0  0  0  0  0  0
  -21.4352  -29.3043   22.3522 N   0  0  0  0  0  0
  -26.4274  -37.3695   23.9409 N   0  0  0  0  0  0
  -24.7577  -30.9817   22.0829 N   0  0  0  0  0  0
  -23.4210  -28.8001   23.3044 O   0  0  0  0  0  0
  -28.2240  -25.7667   20.1831 O   0  0  0  0  0  0
  -26.5723  -34.8886   22.4598 O   0  0  0  0  0  0
  -23.5733  -32.1187   23.6734 O   0  0  0  0  0  0
  -29.1465  -19.9257   18.7584 C   0  0  0  0  0  0
  -28.5956  -22.3861   18.6659 C   0  0  0  0  0  0
  -28.8569  -21.1283   18.0489 C   0  0  0  0  0  0
  -29.2381  -19.8334   20.1636 C   0  0  0  0  0  0
  -28.5899  -22.5888   20.0605 C   0  0  0  0  0  0
  -28.9311  -21.2476   20.7804 C   0  0  0  0  0  0
  -27.4047  -20.7844   16.0041 C   0  0  0  0  0  0
  -29.1566  -20.2738   23.2281 C   0  0  0  0  0  0
  -28.8157  -21.0654   16.5321 C   0  0  0  0  0  0
  -28.9466  -21.4674   22.2959 C   0  0  0  0  0  0
  -29.8036  -18.2516   20.7601 C   0  0  0  0  0  0
  -28.0073  -24.1711   20.6163 C   0  0  0  0  0  0
  -29.6324  -16.6131   20.3800 N   0  0  0  0  0  0
  -31.4483  -13.0940   19.1641 H   0  0  0  0  0  0
  -30.5374  -11.9746   20.1335 H   0  0  0  0  0  0
  -29.9270  -11.7500   17.6988 H   0  0  0  0  0  0
  -29.5438  -13.4527   17.6217 H   0  0  0  0  0  0
  -28.0615  -11.2739   19.1104 H   0  0  0  0  0  0
  -27.4153  -12.3096   17.8622 H   0  0  0  0  0  0
  -27.5080  -14.2336   19.2993 H   0  0  0  0  0  0
  -28.8358  -12.5580   21.4830 H   0  0  0  0  0  0
  -28.2712  -14.2039   21.6682 H   0  0  0  0  0  0
  -25.2771   -9.5682   22.4769 H   0  0  0  0  0  0
  -24.0006   -7.4633   22.7477 H   0  0  0  0  0  0
  -21.0855   -8.8777   19.8950 H   0  0  0  0  0  0
  -22.3716  -10.9671   19.6167 H   0  0  0  0  0  0
  -21.2010   -7.6148   23.9715 H   0  0  0  0  0  0
  -21.1482   -6.0523   25.9077 H   0  0  0  0  0  0
  -22.0597   -2.7608   23.2848 H   0  0  0  0  0  0
  -22.4046  -11.9833   22.4852 H   0  0  0  0  0  0
  -21.1024  -13.1171   22.2668 H   0  0  0  0  0  0
  -24.6270  -15.8444   20.5330 H   0  0  0  0  0  0
  -26.2385  -15.6426   20.0728 H   0  0  0  0  0  0
  -26.7408  -32.5096   23.0862 H   0  0  0  0  0  0
  -25.0067  -33.9452   25.0157 H   0  0  0  0  0  0
  -22.8000  -31.2621   21.3420 H   0  0  0  0  0  0
  -23.3769  -35.9506   23.3285 H   0  0  0  0  0  0
  -24.3563  -36.8871   22.2069 H   0  0  0  0  0  0
  -23.7234  -37.6363   23.6730 H   0  0  0  0  0  0
  -26.2379  -31.3494   20.6187 H   0  0  0  0  0  0
  -26.9151  -30.6752   22.0587 H   0  0  0  0  0  0
  -28.1692  -28.5690   21.2620 H   0  0  0  0  0  0
  -25.8710  -25.6977   19.0338 H   0  0  0  0  0  0
  -24.0007  -27.2436   18.9744 H   0  0  0  0  0  0
  -23.8910  -30.5045   19.3881 H   0  0  0  0  0  0
  -22.8357  -29.1978   19.8272 H   0  0  0  0  0  0
  -25.1334  -36.1740   25.0785 H   0  0  0  0  0  0
  -21.0037  -28.3377   24.1302 H   0  0  0  0  0  0
  -20.5682  -26.2381   23.3647 H   0  0  0  0  0  0
  -21.6664  -26.7411   22.1206 H   0  0  0  0  0  0
  -19.6933  -25.6277   21.1277 H   0  0  0  0  0  0
  -19.6715  -27.3164   20.6721 H   0  0  0  0  0  0
  -17.4224  -26.6691   21.4026 H   0  0  0  0  0  0
  -18.0347  -26.0101   22.9030 H   0  0  0  0  0  0
  -19.7977  -30.7322   24.2196 H   0  0  0  0  0  0
  -17.5048  -31.6278   24.5165 H   0  0  0  0  0  0
  -15.5380  -30.2974   23.7706 H   0  0  0  0  0  0
  -15.8708  -28.0810   22.7113 H   0  0  0  0  0  0
  -24.5888  -30.7118   25.7644 H   0  0  0  0  0  0
  -24.8845  -32.2991   26.4626 H   0  0  0  0  0  0
  -25.7903  -30.9049   27.0211 H   0  0  0  0  0  0
  -26.3152  -29.6558   24.1441 H   0  0  0  0  0  0
  -27.3973  -29.7275   25.5125 H   0  0  0  0  0  0
  -27.9107  -30.4070   23.9901 H   0  0  0  0  0  0
  -27.2619  -33.3709   26.1926 H   0  0  0  0  0  0
  -28.3942  -32.6822   25.0385 H   0  0  0  0  0  0
  -28.0634  -31.8579   26.5542 H   0  0  0  0  0  0
  -28.2560  -38.0067   24.7515 H   0  0  0  0  0  0
  -28.1081  -36.2590   24.6296 H   0  0  0  0  0  0
  -27.2278  -37.1392   25.8870 H   0  0  0  0  0  0
  -20.9623  -29.8723   21.6631 H   0  0  0  0  0  0
  -26.0118  -38.2747   24.1435 H   0  0  0  0  0  0
  -29.3436  -19.0285   18.1864 H   0  0  0  0  0  0
  -28.3503  -23.2306   18.0360 H   0  0  0  0  0  0
  -27.3980  -20.7506   14.9144 H   0  0  0  0  0  0
  -26.7038  -21.5595   16.3156 H   0  0  0  0  0  0
  -27.0303  -19.8277   16.3691 H   0  0  0  0  0  0
  -28.3730  -19.5267   23.1035 H   0  0  0  0  0  0
  -29.1120  -20.6014   24.2671 H   0  0  0  0  0  0
  -30.1382  -19.8221   23.0886 H   0  0  0  0  0  0
  -29.5035  -20.2961   16.1781 H   0  0  0  0  0  0
  -29.1840  -22.0062   16.1200 H   0  0  0  0  0  0
  -27.9982  -21.9329   22.5678 H   0  0  0  0  0  0
  -29.7162  -22.2100   22.5121 H   0  0  0  0  0  0
  -29.4739  -18.2084   21.7897 H   0  0  0  0  0  0
  -30.8833  -18.3850   20.8345 H   0  0  0  0  0  0
  -28.2542  -24.1787   21.6775 H   0  0  0  0  0  0
  -26.9246  -24.0464   20.6077 H   0  0  0  0  0  0
  -28.6528  -16.3926   20.2825 H   0  0  0  0  0  0
  1 25  1  0  0  0
  1 30  2  0  0  0
  1 83  1  0  0  0
  2  3  1  0  0  0
  2 25  1  0  0  0
  2 84  1  0  0  0
  2 85  1  0  0  0
  3  4  1  0  0  0
  3 86  1  0  0  0
  3 87  1  0  0  0
  4  5  1  0  0  0
  4 88  1  0  0  0
  4 89  1  0  0  0
  5  6  1  0  0  0
  5 26  1  0  0  0
  5 90  1  0  0  0
  6 25  1  0  0  0
  6 91  1  0  0  0
  6 92  1  0  0  0
  7  8  2  0  0  0
  7 26  1  0  0  0
  7 29  1  0  0  0
  8  9  1  0  0  0
  8 22  1  0  0  0
  9 10  1  0  0  0
  9 27  2  0  0  0
 10 11  2  0  0  0
 10 15  1  0  0  0
 11 12  1  0  0  0
 11 93  1  0  0  0
 12 13  2  0  0  0
 12 94  1  0  0  0
 13 14  1  0  0  0
 13 31  1  0  0  0
 14 15  2  0  0  0
 14 95  1  0  0  0
 15 96  1  0  0  0
 16 17  2  0  0  0
 16 21  1  0  0  0
 16 31  1  0  0  0
 17 18  1  0  0  0
 17 97  1  0  0  0
 18 19  2  0  0  0
 18 98  1  0  0  0
 19 20  1  0  0  0
 19 24  1  0  0  0
 20 21  2  0  0  0
 20 99  1  0  0  0
 21 23  1  0  0  0
 22 28  1  0  0  0
 22 32  2  0  0  0
 26 27  1  0  0  0
 28100  1  0  0  0
 28101  1  0  0  0
 29102  1  0  0  0
 29103  1  0  0  0
 33 34  1  0  0  0
 33 66  1  0  0  0
 33 70  2  0  0  0
 34 36  1  0  0  0
 34 59  1  0  0  0
 34104  1  0  0  0
 35 44  2  0  0  0
 35 45  1  0  0  0
 35 68  1  0  0  0
 36 56  1  0  0  0
 36105  1  0  0  0
 37 39  1  0  0  0
 37 47  1  0  0  0
 37 66  1  0  0  0
 37106  1  0  0  0
 38 43  2  0  0  0
 38 46  1  0  0  0
 38 47  1  0  0  0
 39 64  1  0  0  0
 39 67  2  0  0  0
 40 52  1  0  0  0
 40 53  2  0  0  0
 40 58  1  0  0  0
 41107  1  0  0  0
 41108  1  0  0  0
 41109  1  0  0  0
 41 48  1  0  0  0
 42 43  1  0  0  0
 42 66  1  0  0  0
 42110  1  0  0  0
 42111  1  0  0  0
 43 44  1  0  0  0
 44112  1  0  0  0
 45 46  2  0  0  0
 45113  1  0  0  0
 46114  1  0  0  0
 47115  1  0  0  0
 47116  1  0  0  0
 48 56  1  0  0  0
 48 65  1  0  0  0
 48117  1  0  0  0
 49 50  1  0  0  0
 49 53  1  0  0  0
 49 64  1  0  0  0
 49118  1  0  0  0
 50 51  1  0  0  0
 50119  1  0  0  0
 50120  1  0  0  0
 51 52  1  0  0  0
 51121  1  0  0  0
 51122  1  0  0  0
 52123  1  0  0  0
 52124  1  0  0  0
 53 54  1  0  0  0
 54 55  2  0  0  0
 54125  1  0  0  0
 55 57  1  0  0  0
 55126  1  0  0  0
 56 69  2  0  0  0
 57 58  2  0  0  0
 57127  1  0  0  0
 58128  1  0  0  0
 59 60  1  0  0  0
 59 61  1  0  0  0
 59 62  1  0  0  0
 60129  1  0  0  0
 60130  1  0  0  0
 60131  1  0  0  0
 61132  1  0  0  0
 61133  1  0  0  0
 61134  1  0  0  0
 62135  1  0  0  0
 62136  1  0  0  0
 62137  1  0  0  0
 63 65  1  0  0  0
 63138  1  0  0  0
 63139  1  0  0  0
 63140  1  0  0  0
 64141  1  0  0  0
 65142  1  0  0  0
 68 82  1  0  0  0
 71 73  2  0  0  0
 71 74  1  0  0  0
 71143  1  0  0  0
 72 73  1  0  0  0
 72 75  2  0  0  0
 72144  1  0  0  0
 73 79  1  0  0  0
 74 76  2  0  0  0
 74 81  1  0  0  0
 75 76  1  0  0  0
 75 82  1  0  0  0
 76 80  1  0  0  0
 77 79  1  0  0  0
 77145  1  0  0  0
 77146  1  0  0  0
 77147  1  0  0  0
 78 80  1  0  0  0
 78148  1  0  0  0
 78149  1  0  0  0
 78150  1  0  0  0
 79151  1  0  0  0
 79152  1  0  0  0
 80153  1  0  0  0
 80154  1  0  0  0
 81 83  1  0  0  0
 81155  1  0  0  0
 81156  1  0  0  0
 82157  1  0  0  0
 82158  1  0  0  0
 83159  1  0  0  0
M  ISO  4   1 100  68 101  82 101  83 100
M  END
> <chiral flag>
0

> <version>
0

> <s_m_source_file>
/data/baiqing/PycharmProjects/Reinvent-master-3.2/result/LINK_invent/BTK/process_docking_weight1_custom_sum_contain_oxygen_bond_distance_aromatic_linkinvent_7_9_3/rearranged_h_0031.sdf

> <i_m_source_file_index>
11

> <r_mmod_Potential_Energy-OPLS-2005>
1415.92553710938

> <r_mmod_Stretch_Energy-OPLS-2005>
654.249572753906

> <r_mmod_Bend_Energy-OPLS-2005>
467.2314453125

> <r_mmod_Torsional_Energy-OPLS-2005>
241.035339355469

> <r_mmod_Improper_Torsional_Energy-OPLS-2005>
6.11679697036743

> <r_mmod_Van_der_Waal_Energy-OPLS-2005>
124.346321105957

> <r_mmod_Electrostatic_Energy-OPLS-2005>
-395.096221923828

> <r_mmod_Solvation_Energy-OPLS-2005>
-209.136444091797

> <b_mmod_Minimization_Converged-OPLS-2005>
0

> <r_mmod_RMS_Derivative-OPLS-2005>
0.464461505413055

$$$$
11
                    3D
 Structure written by MMmdl.
155163  0  0  1  0            999 V2000
  -30.7074  -14.5029   20.4970 C   0  0  0  0  0  0
  -30.4092  -12.2996   19.4520 C   0  0  0  0  0  0
  -29.5002  -12.4906   18.2200 C   0  0  0  0  0  0
  -28.0171  -12.3665   18.6223 C   0  0  0  0  0  0
  -27.6550  -13.2200   19.8687 C   0  0  2  0  0  0
  -28.6981  -13.0529   20.9993 C   0  0  0  0  0  0
  -25.2538  -13.8181   20.5671 C   0  0  0  0  0  0
  -24.1814  -13.0434   20.9172 C   0  0  0  0  0  0
  -24.6394  -11.6911   20.8726 C   0  0  0  0  0  0
  -23.9067  -10.4287   21.0386 C   0  0  0  0  0  0
  -24.3613   -9.4206   21.9169 C   0  0  0  0  0  0
  -23.6288   -8.2243   22.0749 C   0  0  0  0  0  0
  -22.4279   -8.0271   21.3536 C   0  0  0  0  0  0
  -21.9906   -9.0241   20.4639 C   0  0  0  0  0  0
  -22.7232  -10.2123   20.3041 C   0  0  0  0  0  0
  -21.6851   -6.0726   22.5272 C   0  0  0  0  0  0
  -21.4018   -6.5633   23.8205 C   0  0  0  0  0  0
  -21.3667   -5.6786   24.9166 C   0  0  0  0  0  0
  -21.6044   -4.3046   24.7217 C   0  0  0  0  0  0
  -21.8820   -3.8140   23.4339 C   0  0  0  0  0  0
  -21.9193   -4.6957   22.3395 C   0  0  0  0  0  0
  -22.7835  -13.5209   21.1847 C   0  0  0  0  0  0
  -22.1659   -4.2141   21.0974 F   0  0  0  0  0  0
  -21.5634   -3.4534   25.7731 F   0  0  0  0  0  0
  -30.0274  -13.3254   20.4353 N   0  0  0  0  0  0
  -26.2986  -12.9381   20.3343 N   0  0  0  0  0  0
  -25.9327  -11.6524   20.5765 N   0  0  0  0  0  0
  -22.0490  -12.8193   22.0414 N   0  0  0  0  0  0
  -25.4210  -15.1904   20.4074 N   0  0  0  0  0  0
  -31.8739  -14.6115   20.1133 O   0  0  0  0  0  0
  -21.6640   -6.8871   21.4237 O   0  0  0  0  0  0
  -22.3513  -14.5513   20.6703 O   0  0  0  0  0  0
  -24.6147  -31.8653   23.2066 C   0  0  0  0  0  0
  -25.9020  -32.4820   23.8367 C   0  0  1  0  0  0
  -27.2395  -27.4198   20.0835 C   0  0  0  0  0  0
  -25.5869  -33.8617   24.2289 N   0  0  0  0  0  0
  -23.4046  -30.4873   21.5483 C   0  0  2  0  0  0
  -24.8492  -28.9469   20.1161 C   0  0  0  0  0  0
  -22.7403  -29.4653   22.4993 C   0  0  0  0  0  0
  -18.0259  -28.1396   22.8482 C   0  0  0  0  0  0
  -24.1487  -36.7328   23.2636 C   0  0  0  0  0  0
  -25.9351  -30.8235   21.3655 C   0  0  0  0  0  0
  -26.0101  -29.4568   20.7103 C   0  0  0  0  0  0
  -27.2037  -28.6978   20.6926 C   0  0  0  0  0  0
  -26.0544  -26.9259   19.4881 C   0  0  0  0  0  0
  -24.8652  -27.6810   19.5072 C   0  0  0  0  0  0
  -23.6121  -29.8155   20.1653 C   0  0  0  0  0  0
  -25.4110  -36.3118   24.0330 C   0  0  1  0  0  0
  -20.5847  -28.3687   23.1319 C   0  0  2  0  0  0
  -20.6770  -26.9429   22.5429 C   0  0  0  0  0  0
  -19.5762  -26.6400   21.5212 C   0  0  0  0  0  0
  -18.1924  -26.7945   22.1604 C   0  0  0  0  0  0
  -19.1509  -28.8848   23.2895 C   0  0  0  0  0  0
  -18.9450  -30.1455   23.8914 C   0  0  0  0  0  0
  -17.6459  -30.6605   24.0568 C   0  0  0  0  0  0
  -25.9038  -34.9478   23.5115 C   0  0  0  0  0  0
  -16.5343  -29.9117   23.6335 C   0  0  0  0  0  0
  -16.7246  -28.6532   23.0340 C   0  0  0  0  0  0
  -26.4439  -31.6613   25.0707 C   0  0  0  0  0  0
  -25.3692  -31.3742   26.1447 C   0  0  0  0  0  0
  -27.0264  -30.3041   24.6115 C   0  0  0  0  0  0
  -27.6002  -32.4360   25.7466 C   0  0  0  0  0  0
  -27.5597  -37.1795   24.8445 C   0  0  0  0  0  0
  -21.4127  -29.3051   22.3731 N   0  0  0  0  0  0
  -26.4295  -37.3808   23.9415 N   0  0  0  0  0  0
  -24.6693  -31.0743   22.0981 N   0  0  0  0  0  0
  -23.4165  -28.8207   23.3045 O   0  0  0  0  0  0
  -28.4319  -26.7155   20.0977 O   0  0  0  0  0  0
  -26.5631  -34.8937   22.4698 O   0  0  0  0  0  0
  -23.5327  -32.1423   23.7449 O   0  0  0  0  0  0
  -28.8689  -21.8508   20.1193 C   0  0  0  0  0  0
  -30.5397  -22.2139   22.2624 C   0  0  0  0  0  0
  -28.8606  -23.1195   20.7625 C   0  0  0  0  0  0
  -29.7258  -23.2935   21.8658 C   0  0  0  0  0  0
  -29.7188  -20.8191   20.5993 C   0  0  0  0  0  0
  -27.9080  -24.2495   20.3327 C   0  0  0  0  0  0
  -29.8765  -19.4661   19.8861 C   0  0  0  0  0  0
  -29.6134  -18.1810   20.7364 C   0  0  0  0  0  0
  -30.3596  -16.9347   20.1762 C   0  0  0  0  0  0
  -28.5359  -25.4049   19.5020 C   0  0  0  0  0  0
  -30.5474  -21.0106   21.6473 N   0  0  0  0  0  0
  -29.9706  -15.6128   20.7231 N   0  0  0  0  0  0
  -29.7978  -24.7835   22.7393 Cl  0  0  0  0  0  0
  -31.4609  -12.3583   19.1652 H   0  0  0  0  0  0
  -30.2735  -11.3052   19.8795 H   0  0  0  0  0  0
  -29.7438  -11.7537   17.4534 H   0  0  0  0  0  0
  -29.6804  -13.4691   17.7719 H   0  0  0  0  0  0
  -27.8185  -11.3135   18.8231 H   0  0  0  0  0  0
  -27.3769  -12.6407   17.7829 H   0  0  0  0  0  0
  -27.6817  -14.2607   19.5447 H   0  0  0  0  0  0
  -28.6700  -12.0390   21.4008 H   0  0  0  0  0  0
  -28.4743  -13.7143   21.8379 H   0  0  0  0  0  0
  -25.2756   -9.5683   22.4740 H   0  0  0  0  0  0
  -23.9994   -7.4637   22.7471 H   0  0  0  0  0  0
  -21.0836   -8.8745   19.8948 H   0  0  0  0  0  0
  -22.3675  -10.9651   19.6145 H   0  0  0  0  0  0
  -21.2014   -7.6138   23.9703 H   0  0  0  0  0  0
  -21.1494   -6.0518   25.9069 H   0  0  0  0  0  0
  -22.0599   -2.7601   23.2836 H   0  0  0  0  0  0
  -22.4125  -11.9852   22.4787 H   0  0  0  0  0  0
  -21.1109  -13.1206   22.2634 H   0  0  0  0  0  0
  -24.6456  -15.8375   20.5011 H   0  0  0  0  0  0
  -26.2659  -15.6348   20.0718 H   0  0  0  0  0  0
  -26.7079  -32.5519   23.1122 H   0  0  0  0  0  0
  -24.9945  -33.9764   25.0379 H   0  0  0  0  0  0
  -22.6974  -31.3069   21.4076 H   0  0  0  0  0  0
  -23.3751  -35.9655   23.3286 H   0  0  0  0  0  0
  -24.3563  -36.8967   22.2052 H   0  0  0  0  0  0
  -23.7237  -37.6522   23.6669 H   0  0  0  0  0  0
  -26.0519  -31.5927   20.6005 H   0  0  0  0  0  0
  -26.8210  -30.8756   21.9868 H   0  0  0  0  0  0
  -28.1041  -29.0862   21.1495 H   0  0  0  0  0  0
  -26.0264  -25.9608   19.0054 H   0  0  0  0  0  0
  -23.9705  -27.2820   19.0501 H   0  0  0  0  0  0
  -23.7229  -30.5885   19.4036 H   0  0  0  0  0  0
  -22.7360  -29.2348   19.8697 H   0  0  0  0  0  0
  -25.1292  -36.1985   25.0825 H   0  0  0  0  0  0
  -20.9914  -28.3279   24.1447 H   0  0  0  0  0  0
  -20.5710  -26.2299   23.3622 H   0  0  0  0  0  0
  -21.6647  -26.7515   22.1217 H   0  0  0  0  0  0
  -19.6952  -25.6309   21.1254 H   0  0  0  0  0  0
  -19.6711  -27.3210   20.6740 H   0  0  0  0  0  0
  -17.4212  -26.6667   21.3998 H   0  0  0  0  0  0
  -18.0315  -26.0087   22.9002 H   0  0  0  0  0  0
  -19.7938  -30.7240   24.2305 H   0  0  0  0  0  0
  -17.5032  -31.6278   24.5181 H   0  0  0  0  0  0
  -15.5354  -30.3029   23.7665 H   0  0  0  0  0  0
  -15.8633  -28.0868   22.7047 H   0  0  0  0  0  0
  -24.5839  -30.7134   25.7772 H   0  0  0  0  0  0
  -24.8907  -32.2910   26.4905 H   0  0  0  0  0  0
  -25.8018  -30.8888   27.0203 H   0  0  0  0  0  0
  -26.2810  -29.6808   24.1160 H   0  0  0  0  0  0
  -27.3995  -29.7294   25.4601 H   0  0  0  0  0  0
  -27.8674  -30.4334   23.9296 H   0  0  0  0  0  0
  -27.2584  -33.3644   26.2062 H   0  0  0  0  0  0
  -28.3778  -32.6950   25.0268 H   0  0  0  0  0  0
  -28.0698  -31.8482   26.5360 H   0  0  0  0  0  0
  -28.2579  -38.0133   24.7567 H   0  0  0  0  0  0
  -28.1139  -36.2668   24.6191 H   0  0  0  0  0  0
  -27.2319  -37.1351   25.8845 H   0  0  0  0  0  0
  -20.9310  -29.8744   21.6918 H   0  0  0  0  0  0
  -26.0193  -38.2885   24.1454 H   0  0  0  0  0  0
  -28.2387  -21.6760   19.2581 H   0  0  0  0  0  0
  -31.2072  -22.3178   23.1054 H   0  0  0  0  0  0
  -27.4530  -24.6637   21.2328 H   0  0  0  0  0  0
  -27.0769  -23.8167   19.7777 H   0  0  0  0  0  0
  -30.8959  -19.4392   19.5001 H   0  0  0  0  0  0
  -29.2372  -19.4473   19.0026 H   0  0  0  0  0  0
  -28.5400  -18.0079   20.8084 H   0  0  0  0  0  0
  -29.9674  -18.3480   21.7537 H   0  0  0  0  0  0
  -31.4302  -17.0906   20.3242 H   0  0  0  0  0  0
  -30.2171  -16.8850   19.0944 H   0  0  0  0  0  0
  -28.1422  -25.4126   18.4847 H   0  0  0  0  0  0
  -29.6018  -25.2111   19.3800 H   0  0  0  0  0  0
  -29.0143  -15.4772   21.0157 H   0  0  0  0  0  0
  1 25  1  0  0  0
  1 30  2  0  0  0
  1 82  1  0  0  0
  2  3  1  0  0  0
  2 25  1  0  0  0
  2 84  1  0  0  0
  2 85  1  0  0  0
  3  4  1  0  0  0
  3 86  1  0  0  0
  3 87  1  0  0  0
  4  5  1  0  0  0
  4 88  1  0  0  0
  4 89  1  0  0  0
  5  6  1  0  0  0
  5 26  1  0  0  0
  5 90  1  0  0  0
  6 25  1  0  0  0
  6 91  1  0  0  0
  6 92  1  0  0  0
  7  8  2  0  0  0
  7 26  1  0  0  0
  7 29  1  0  0  0
  8  9  1  0  0  0
  8 22  1  0  0  0
  9 10  1  0  0  0
  9 27  2  0  0  0
 10 11  2  0  0  0
 10 15  1  0  0  0
 11 12  1  0  0  0
 11 93  1  0  0  0
 12 13  2  0  0  0
 12 94  1  0  0  0
 13 14  1  0  0  0
 13 31  1  0  0  0
 14 15  2  0  0  0
 14 95  1  0  0  0
 15 96  1  0  0  0
 16 17  2  0  0  0
 16 21  1  0  0  0
 16 31  1  0  0  0
 17 18  1  0  0  0
 17 97  1  0  0  0
 18 19  2  0  0  0
 18 98  1  0  0  0
 19 20  1  0  0  0
 19 24  1  0  0  0
 20 21  2  0  0  0
 20 99  1  0  0  0
 21 23  1  0  0  0
 22 28  1  0  0  0
 22 32  2  0  0  0
 26 27  1  0  0  0
 28100  1  0  0  0
 28101  1  0  0  0
 29102  1  0  0  0
 29103  1  0  0  0
 33 34  1  0  0  0
 33 66  1  0  0  0
 33 70  2  0  0  0
 34 36  1  0  0  0
 34 59  1  0  0  0
 34104  1  0  0  0
 35 44  2  0  0  0
 35 45  1  0  0  0
 35 68  1  0  0  0
 36 56  1  0  0  0
 36105  1  0  0  0
 37 39  1  0  0  0
 37 47  1  0  0  0
 37 66  1  0  0  0
 37106  1  0  0  0
 38 43  2  0  0  0
 38 46  1  0  0  0
 38 47  1  0  0  0
 39 64  1  0  0  0
 39 67  2  0  0  0
 40 52  1  0  0  0
 40 53  2  0  0  0
 40 58  1  0  0  0
 41107  1  0  0  0
 41108  1  0  0  0
 41109  1  0  0  0
 41 48  1  0  0  0
 42 43  1  0  0  0
 42 66  1  0  0  0
 42110  1  0  0  0
 42111  1  0  0  0
 43 44  1  0  0  0
 44112  1  0  0  0
 45 46  2  0  0  0
 45113  1  0  0  0
 46114  1  0  0  0
 47115  1  0  0  0
 47116  1  0  0  0
 48 56  1  0  0  0
 48 65  1  0  0  0
 48117  1  0  0  0
 49 50  1  0  0  0
 49 53  1  0  0  0
 49 64  1  0  0  0
 49118  1  0  0  0
 50 51  1  0  0  0
 50119  1  0  0  0
 50120  1  0  0  0
 51 52  1  0  0  0
 51121  1  0  0  0
 51122  1  0  0  0
 52123  1  0  0  0
 52124  1  0  0  0
 53 54  1  0  0  0
 54 55  2  0  0  0
 54125  1  0  0  0
 55 57  1  0  0  0
 55126  1  0  0  0
 56 69  2  0  0  0
 57 58  2  0  0  0
 57127  1  0  0  0
 58128  1  0  0  0
 59 60  1  0  0  0
 59 61  1  0  0  0
 59 62  1  0  0  0
 60129  1  0  0  0
 60130  1  0  0  0
 60131  1  0  0  0
 61132  1  0  0  0
 61133  1  0  0  0
 61134  1  0  0  0
 62135  1  0  0  0
 62136  1  0  0  0
 62137  1  0  0  0
 63 65  1  0  0  0
 63138  1  0  0  0
 63139  1  0  0  0
 63140  1  0  0  0
 64141  1  0  0  0
 65142  1  0  0  0
 68 80  1  0  0  0
 71 73  2  0  0  0
 71 75  1  0  0  0
 71143  1  0  0  0
 72 74  2  0  0  0
 72 81  1  0  0  0
 72144  1  0  0  0
 73 74  1  0  0  0
 73 76  1  0  0  0
 74 83  1  0  0  0
 75 77  1  0  0  0
 75 81  2  0  0  0
 76 80  1  0  0  0
 76145  1  0  0  0
 76146  1  0  0  0
 77 78  1  0  0  0
 77147  1  0  0  0
 77148  1  0  0  0
 78 79  1  0  0  0
 78149  1  0  0  0
 78150  1  0  0  0
 79 82  1  0  0  0
 79151  1  0  0  0
 79152  1  0  0  0
 80153  1  0  0  0
 80154  1  0  0  0
 82155  1  0  0  0
M  ISO  4   1 100  68 101  80 101  82 100
M  END
> <chiral flag>
0

> <version>
0

> <s_m_source_file>
/data/baiqing/PycharmProjects/Reinvent-master-3.2/result/LINK_invent/BTK/process_docking_weight1_custom_sum_contain_oxygen_bond_distance_aromatic_linkinvent_7_9_3/rearranged_h_0031.sdf

> <i_m_source_file_index>
12

> <r_mmod_Potential_Energy-OPLS-2005>
-144.304107666016

> <r_mmod_Stretch_Energy-OPLS-2005>
41.7873573303223

> <r_mmod_Bend_Energy-OPLS-2005>
107.052474975586

> <r_mmod_Torsional_Energy-OPLS-2005>
209.049194335938

> <r_mmod_Improper_Torsional_Energy-OPLS-2005>
8.2354154586792

> <r_mmod_Van_der_Waal_Energy-OPLS-2005>
150.688278198242

> <r_mmod_Electrostatic_Energy-OPLS-2005>
-455.514099121094

> <r_mmod_Solvation_Energy-OPLS-2005>
-224.874908447266

> <b_mmod_Minimization_Converged-OPLS-2005>
0

> <r_mmod_RMS_Derivative-OPLS-2005>
2.20190596580505

$$$$
12
                    3D
 Structure written by MMmdl.
159167  0  0  1  0            999 V2000
  -30.6506  -14.6038   20.5185 C   0  0  0  0  0  0
  -30.4334  -12.3762   19.4459 C   0  0  0  0  0  0
  -29.5025  -12.5075   18.2213 C   0  0  0  0  0  0
  -28.0268  -12.3468   18.6360 C   0  0  0  0  0  0
  -27.6543  -13.2167   19.8659 C   0  0  2  0  0  0
  -28.6993  -13.0660   20.9941 C   0  0  0  0  0  0
  -25.2571  -13.8179   20.5686 C   0  0  0  0  0  0
  -24.1831  -13.0448   20.9178 C   0  0  0  0  0  0
  -24.6396  -11.6915   20.8737 C   0  0  0  0  0  0
  -23.9063  -10.4297   21.0405 C   0  0  0  0  0  0
  -24.3612   -9.4217   21.9191 C   0  0  0  0  0  0
  -23.6293   -8.2247   22.0764 C   0  0  0  0  0  0
  -22.4279   -8.0276   21.3547 C   0  0  0  0  0  0
  -21.9911   -9.0245   20.4647 C   0  0  0  0  0  0
  -22.7233  -10.2132   20.3062 C   0  0  0  0  0  0
  -21.6852   -6.0734   22.5279 C   0  0  0  0  0  0
  -21.4005   -6.5634   23.8210 C   0  0  0  0  0  0
  -21.3673   -5.6791   24.9178 C   0  0  0  0  0  0
  -21.6052   -4.3054   24.7223 C   0  0  0  0  0  0
  -21.8812   -3.8145   23.4342 C   0  0  0  0  0  0
  -21.9188   -4.6963   22.3397 C   0  0  0  0  0  0
  -22.7848  -13.5233   21.1839 C   0  0  0  0  0  0
  -22.1657   -4.2149   21.0981 F   0  0  0  0  0  0
  -21.5654   -3.4540   25.7742 F   0  0  0  0  0  0
  -30.0151  -13.3950   20.4282 N   0  0  0  0  0  0
  -26.2999  -12.9362   20.3339 N   0  0  0  0  0  0
  -25.9324  -11.6513   20.5753 N   0  0  0  0  0  0
  -22.0481  -12.8223   22.0390 N   0  0  0  0  0  0
  -25.4305  -15.1898   20.4101 N   0  0  0  0  0  0
  -31.8114  -14.7548   20.1301 O   0  0  0  0  0  0
  -21.6642   -6.8873   21.4240 O   0  0  0  0  0  0
  -22.3529  -14.5537   20.6684 O   0  0  0  0  0  0
  -24.6228  -31.8617   23.2040 C   0  0  0  0  0  0
  -25.9090  -32.4782   23.8359 C   0  0  1  0  0  0
  -27.2232  -27.3419   20.1179 C   0  0  0  0  0  0
  -25.5917  -33.8582   24.2284 N   0  0  0  0  0  0
  -23.4157  -30.4846   21.5463 C   0  0  2  0  0  0
  -24.8613  -28.9434   20.1096 C   0  0  0  0  0  0
  -22.7467  -29.4626   22.4955 C   0  0  0  0  0  0
  -18.0285  -28.1374   22.8494 C   0  0  0  0  0  0
  -24.1488  -36.7299   23.2642 C   0  0  0  0  0  0
  -25.9536  -30.7996   21.3723 C   0  0  0  0  0  0
  -26.0276  -29.4281   20.7150 C   0  0  0  0  0  0
  -27.2101  -28.6371   20.7128 C   0  0  0  0  0  0
  -26.0384  -26.9067   19.4804 C   0  0  0  0  0  0
  -24.8672  -27.6868   19.4842 C   0  0  0  0  0  0
  -23.6287  -29.8209   20.1601 C   0  0  0  0  0  0
  -25.4113  -36.3088   24.0327 C   0  0  1  0  0  0
  -20.5883  -28.3673   23.1298 C   0  0  2  0  0  0
  -20.6772  -26.9398   22.5422 C   0  0  0  0  0  0
  -19.5741  -26.6376   21.5225 C   0  0  0  0  0  0
  -18.1922  -26.7918   22.1631 C   0  0  0  0  0  0
  -19.1536  -28.8841   23.2886 C   0  0  0  0  0  0
  -18.9463  -30.1451   23.8891 C   0  0  0  0  0  0
  -17.6462  -30.6575   24.0569 C   0  0  0  0  0  0
  -25.9049  -34.9451   23.5108 C   0  0  0  0  0  0
  -16.5353  -29.9077   23.6328 C   0  0  0  0  0  0
  -16.7274  -28.6497   23.0341 C   0  0  0  0  0  0
  -26.4480  -31.6579   25.0716 C   0  0  0  0  0  0
  -25.3728  -31.3710   26.1457 C   0  0  0  0  0  0
  -27.0322  -30.3009   24.6145 C   0  0  0  0  0  0
  -27.6037  -32.4314   25.7488 C   0  0  0  0  0  0
  -27.5577  -37.1809   24.8468 C   0  0  0  0  0  0
  -21.4187  -29.3024   22.3696 N   0  0  0  0  0  0
  -26.4292  -37.3783   23.9406 N   0  0  0  0  0  0
  -24.6824  -31.0654   22.0979 N   0  0  0  0  0  0
  -23.4203  -28.8173   23.3029 O   0  0  0  0  0  0
  -28.3503  -26.5173   20.1798 O   0  0  0  0  0  0
  -26.5623  -34.8917   22.4677 O   0  0  0  0  0  0
  -23.5396  -32.1413   23.7378 O   0  0  0  0  0  0
  -28.2120  -20.4698   19.9048 C   0  0  0  0  0  0
  -28.2547  -21.8916   19.9226 C   0  0  0  0  0  0
  -30.2083  -20.3688   21.2374 C   0  0  0  0  0  0
  -29.1797  -19.6672   20.5647 C   0  0  0  0  0  0
  -29.2678  -22.6012   20.6149 C   0  0  0  0  0  0
  -30.2575  -21.7972   21.2694 C   0  0  0  0  0  0
  -32.6108  -22.7613   21.1466 C   0  0  0  0  0  0
  -29.0145  -18.1072   20.5886 C   0  0  0  0  0  0
  -29.3170  -24.1753   20.6701 C   0  0  0  0  0  0
  -31.4088  -22.4335   22.0412 C   0  0  0  0  0  0
  -30.2392  -17.1368   20.8336 C   0  0  0  0  0  0
  -28.1638  -25.0599   20.0563 C   0  0  0  0  0  0
  -29.8834  -15.6762   20.8700 N   0  0  0  0  0  0
  -31.4731  -12.4988   19.1386 H   0  0  0  0  0  0
  -30.3667  -11.3771   19.8795 H   0  0  0  0  0  0
  -29.7634  -11.7674   17.4639 H   0  0  0  0  0  0
  -29.6458  -13.4837   17.7550 H   0  0  0  0  0  0
  -27.8607  -11.2934   18.8654 H   0  0  0  0  0  0
  -27.3719  -12.5841   17.7967 H   0  0  0  0  0  0
  -27.6756  -14.2523   19.5268 H   0  0  0  0  0  0
  -28.7053  -12.0439   21.3758 H   0  0  0  0  0  0
  -28.4532  -13.7021   21.8457 H   0  0  0  0  0  0
  -25.2754   -9.5700   22.4770 H   0  0  0  0  0  0
  -24.0005   -7.4641   22.7483 H   0  0  0  0  0  0
  -21.0848   -8.8753   19.8935 H   0  0  0  0  0  0
  -22.3692  -10.9669   19.6170 H   0  0  0  0  0  0
  -21.1981   -7.6146   23.9705 H   0  0  0  0  0  0
  -21.1517   -6.0532   25.9081 H   0  0  0  0  0  0
  -22.0580   -2.7604   23.2842 H   0  0  0  0  0  0
  -22.4074  -11.9876   22.4782 H   0  0  0  0  0  0
  -21.1099  -13.1261   22.2589 H   0  0  0  0  0  0
  -24.6642  -15.8458   20.5151 H   0  0  0  0  0  0
  -26.2758  -15.6236   20.0623 H   0  0  0  0  0  0
  -26.7164  -32.5466   23.1116 H   0  0  0  0  0  0
  -25.0063  -33.9731   25.0427 H   0  0  0  0  0  0
  -22.7075  -31.3035   21.4053 H   0  0  0  0  0  0
  -23.3744  -35.9641   23.3310 H   0  0  0  0  0  0
  -24.3595  -36.8915   22.2062 H   0  0  0  0  0  0
  -23.7240  -37.6500   23.6664 H   0  0  0  0  0  0
  -26.0825  -31.5650   20.6058 H   0  0  0  0  0  0
  -26.8353  -30.8486   21.9999 H   0  0  0  0  0  0
  -28.1025  -29.0011   21.2020 H   0  0  0  0  0  0
  -25.9958  -25.9502   18.9804 H   0  0  0  0  0  0
  -23.9742  -27.3121   19.0028 H   0  0  0  0  0  0
  -23.7469  -30.5984   19.4041 H   0  0  0  0  0  0
  -22.7499  -29.2485   19.8580 H   0  0  0  0  0  0
  -25.1293  -36.1949   25.0820 H   0  0  0  0  0  0
  -20.9967  -28.3242   24.1421 H   0  0  0  0  0  0
  -20.5686  -26.2278   23.3619 H   0  0  0  0  0  0
  -21.6639  -26.7434   22.1205 H   0  0  0  0  0  0
  -19.6904  -25.6292   21.1236 H   0  0  0  0  0  0
  -19.6667  -27.3204   20.6767 H   0  0  0  0  0  0
  -17.4197  -26.6673   21.4026 H   0  0  0  0  0  0
  -18.0308  -26.0057   22.9019 H   0  0  0  0  0  0
  -19.7944  -30.7272   24.2235 H   0  0  0  0  0  0
  -17.5017  -31.6252   24.5178 H   0  0  0  0  0  0
  -15.5351  -30.2973   23.7651 H   0  0  0  0  0  0
  -15.8679  -28.0824   22.7029 H   0  0  0  0  0  0
  -24.5892  -30.7065   25.7801 H   0  0  0  0  0  0
  -24.8931  -32.2870   26.4909 H   0  0  0  0  0  0
  -25.8069  -30.8877   27.0216 H   0  0  0  0  0  0
  -26.2884  -29.6759   24.1190 H   0  0  0  0  0  0
  -27.4060  -29.7261   25.4627 H   0  0  0  0  0  0
  -27.8732  -30.4309   23.9331 H   0  0  0  0  0  0
  -27.2635  -33.3603   26.2076 H   0  0  0  0  0  0
  -28.3837  -32.6890   25.0312 H   0  0  0  0  0  0
  -28.0711  -31.8434   26.5397 H   0  0  0  0  0  0
  -28.2599  -38.0102   24.7512 H   0  0  0  0  0  0
  -28.1061  -36.2632   24.6289 H   0  0  0  0  0  0
  -27.2302  -37.1457   25.8873 H   0  0  0  0  0  0
  -20.9365  -29.8754   21.6915 H   0  0  0  0  0  0
  -26.0171  -38.2857   24.1404 H   0  0  0  0  0  0
  -27.3970  -19.9902   19.3798 H   0  0  0  0  0  0
  -27.4770  -22.4316   19.4007 H   0  0  0  0  0  0
  -30.9678  -19.8040   21.7617 H   0  0  0  0  0  0
  -33.4238  -23.1898   21.7336 H   0  0  0  0  0  0
  -32.3491  -23.4814   20.3720 H   0  0  0  0  0  0
  -32.9944  -21.8669   20.6546 H   0  0  0  0  0  0
  -28.5531  -17.8225   19.6422 H   0  0  0  0  0  0
  -28.2635  -17.8953   21.3501 H   0  0  0  0  0  0
  -30.2542  -24.4892   20.2126 H   0  0  0  0  0  0
  -29.3874  -24.4584   21.7204 H   0  0  0  0  0  0
  -31.7317  -21.7507   22.8290 H   0  0  0  0  0  0
  -31.0765  -23.3268   22.5675 H   0  0  0  0  0  0
  -30.9895  -17.3075   20.0602 H   0  0  0  0  0  0
  -30.7131  -17.3866   21.7841 H   0  0  0  0  0  0
  -27.2350  -24.7673   20.5510 H   0  0  0  0  0  0
  -28.0506  -24.8184   18.9985 H   0  0  0  0  0  0
  -28.9395  -15.4556   21.1498 H   0  0  0  0  0  0
  1 25  1  0  0  0
  1 30  2  0  0  0
  1 83  1  0  0  0
  2  3  1  0  0  0
  2 25  1  0  0  0
  2 84  1  0  0  0
  2 85  1  0  0  0
  3  4  1  0  0  0
  3 86  1  0  0  0
  3 87  1  0  0  0
  4  5  1  0  0  0
  4 88  1  0  0  0
  4 89  1  0  0  0
  5  6  1  0  0  0
  5 26  1  0  0  0
  5 90  1  0  0  0
  6 25  1  0  0  0
  6 91  1  0  0  0
  6 92  1  0  0  0
  7  8  2  0  0  0
  7 26  1  0  0  0
  7 29  1  0  0  0
  8  9  1  0  0  0
  8 22  1  0  0  0
  9 10  1  0  0  0
  9 27  2  0  0  0
 10 11  2  0  0  0
 10 15  1  0  0  0
 11 12  1  0  0  0
 11 93  1  0  0  0
 12 13  2  0  0  0
 12 94  1  0  0  0
 13 14  1  0  0  0
 13 31  1  0  0  0
 14 15  2  0  0  0
 14 95  1  0  0  0
 15 96  1  0  0  0
 16 17  2  0  0  0
 16 21  1  0  0  0
 16 31  1  0  0  0
 17 18  1  0  0  0
 17 97  1  0  0  0
 18 19  2  0  0  0
 18 98  1  0  0  0
 19 20  1  0  0  0
 19 24  1  0  0  0
 20 21  2  0  0  0
 20 99  1  0  0  0
 21 23  1  0  0  0
 22 28  1  0  0  0
 22 32  2  0  0  0
 26 27  1  0  0  0
 28100  1  0  0  0
 28101  1  0  0  0
 29102  1  0  0  0
 29103  1  0  0  0
 33 34  1  0  0  0
 33 66  1  0  0  0
 33 70  2  0  0  0
 34 36  1  0  0  0
 34 59  1  0  0  0
 34104  1  0  0  0
 35 44  2  0  0  0
 35 45  1  0  0  0
 35 68  1  0  0  0
 36 56  1  0  0  0
 36105  1  0  0  0
 37 39  1  0  0  0
 37 47  1  0  0  0
 37 66  1  0  0  0
 37106  1  0  0  0
 38 43  2  0  0  0
 38 46  1  0  0  0
 38 47  1  0  0  0
 39 64  1  0  0  0
 39 67  2  0  0  0
 40 52  1  0  0  0
 40 53  2  0  0  0
 40 58  1  0  0  0
 41107  1  0  0  0
 41108  1  0  0  0
 41109  1  0  0  0
 41 48  1  0  0  0
 42 43  1  0  0  0
 42 66  1  0  0  0
 42110  1  0  0  0
 42111  1  0  0  0
 43 44  1  0  0  0
 44112  1  0  0  0
 45 46  2  0  0  0
 45113  1  0  0  0
 46114  1  0  0  0
 47115  1  0  0  0
 47116  1  0  0  0
 48 56  1  0  0  0
 48 65  1  0  0  0
 48117  1  0  0  0
 49 50  1  0  0  0
 49 53  1  0  0  0
 49 64  1  0  0  0
 49118  1  0  0  0
 50 51  1  0  0  0
 50119  1  0  0  0
 50120  1  0  0  0
 51 52  1  0  0  0
 51121  1  0  0  0
 51122  1  0  0  0
 52123  1  0  0  0
 52124  1  0  0  0
 53 54  1  0  0  0
 54 55  2  0  0  0
 54125  1  0  0  0
 55 57  1  0  0  0
 55126  1  0  0  0
 56 69  2  0  0  0
 57 58  2  0  0  0
 57127  1  0  0  0
 58128  1  0  0  0
 59 60  1  0  0  0
 59 61  1  0  0  0
 59 62  1  0  0  0
 60129  1  0  0  0
 60130  1  0  0  0
 60131  1  0  0  0
 61132  1  0  0  0
 61133  1  0  0  0
 61134  1  0  0  0
 62135  1  0  0  0
 62136  1  0  0  0
 62137  1  0  0  0
 63 65  1  0  0  0
 63138  1  0  0  0
 63139  1  0  0  0
 63140  1  0  0  0
 64141  1  0  0  0
 65142  1  0  0  0
 68 82  1  0  0  0
 71 72  2  0  0  0
 71 74  1  0  0  0
 71143  1  0  0  0
 72 75  1  0  0  0
 72144  1  0  0  0
 73 74  2  0  0  0
 73 76  1  0  0  0
 73145  1  0  0  0
 74 78  1  0  0  0
 75 76  2  0  0  0
 75 79  1  0  0  0
 76 80  1  0  0  0
 77 80  1  0  0  0
 77146  1  0  0  0
 77147  1  0  0  0
 77148  1  0  0  0
 78 81  1  0  0  0
 78149  1  0  0  0
 78150  1  0  0  0
 79 82  1  0  0  0
 79151  1  0  0  0
 79152  1  0  0  0
 80153  1  0  0  0
 80154  1  0  0  0
 81 83  1  0  0  0
 81155  1  0  0  0
 81156  1  0  0  0
 82157  1  0  0  0
 82158  1  0  0  0
 83159  1  0  0  0
M  ISO  4   1 100  68 101  82 101  83 100
M  END
> <chiral flag>
0

> <version>
0

> <s_m_source_file>
/data/baiqing/PycharmProjects/Reinvent-master-3.2/result/LINK_invent/BTK/process_docking_weight1_custom_sum_contain_oxygen_bond_distance_aromatic_linkinvent_7_9_3/rearranged_h_0031.sdf

> <i_m_source_file_index>
13

> <r_mmod_Potential_Energy-OPLS-2005>
-10.1868476867676

> <r_mmod_Stretch_Energy-OPLS-2005>
69.5276336669922

> <r_mmod_Bend_Energy-OPLS-2005>
122.894462585449

> <r_mmod_Torsional_Energy-OPLS-2005>
196.364486694336

> <r_mmod_Improper_Torsional_Energy-OPLS-2005>
4.48565864562988

> <r_mmod_Van_der_Waal_Energy-OPLS-2005>
143.56755065918

> <r_mmod_Electrostatic_Energy-OPLS-2005>
-377.512725830078

> <r_mmod_Solvation_Energy-OPLS-2005>
-208.530899047852

> <b_mmod_Minimization_Converged-OPLS-2005>
0

> <r_mmod_RMS_Derivative-OPLS-2005>
1.48006844520569

$$$$
13
                    3D
 Structure written by MMmdl.
155163  0  0  1  0            999 V2000
  -30.5473  -14.9645   20.4223 C   0  0  0  0  0  0
  -30.4375  -12.5992   19.5041 C   0  0  0  0  0  0
  -29.5219  -12.5322   18.2597 C   0  0  0  0  0  0
  -28.0556  -12.3152   18.6771 C   0  0  0  0  0  0
  -27.6271  -13.2509   19.8375 C   0  0  2  0  0  0
  -28.6690  -13.2928   20.9763 C   0  0  0  0  0  0
  -25.2401  -13.8157   20.5639 C   0  0  0  0  0  0
  -24.1757  -13.0397   20.9255 C   0  0  0  0  0  0
  -24.6397  -11.6896   20.8786 C   0  0  0  0  0  0
  -23.9082  -10.4271   21.0426 C   0  0  0  0  0  0
  -24.3627   -9.4183   21.9198 C   0  0  0  0  0  0
  -23.6294   -8.2224   22.0759 C   0  0  0  0  0  0
  -22.4278   -8.0272   21.3546 C   0  0  0  0  0  0
  -21.9920   -9.0248   20.4649 C   0  0  0  0  0  0
  -22.7256  -10.2122   20.3066 C   0  0  0  0  0  0
  -21.6850   -6.0731   22.5278 C   0  0  0  0  0  0
  -21.4012   -6.5637   23.8211 C   0  0  0  0  0  0
  -21.3658   -5.6790   24.9175 C   0  0  0  0  0  0
  -21.6045   -4.3053   24.7225 C   0  0  0  0  0  0
  -21.8819   -3.8144   23.4347 C   0  0  0  0  0  0
  -21.9192   -4.6960   22.3403 C   0  0  0  0  0  0
  -22.7780  -13.5179   21.1900 C   0  0  0  0  0  0
  -22.1661   -4.2145   21.0981 F   0  0  0  0  0  0
  -21.5630   -3.4538   25.7739 F   0  0  0  0  0  0
  -29.9446  -13.7057   20.3766 N   0  0  0  0  0  0
  -26.2866  -12.9431   20.3232 N   0  0  0  0  0  0
  -25.9334  -11.6562   20.5770 N   0  0  0  0  0  0
  -22.0429  -12.8175   22.0460 N   0  0  0  0  0  0
  -25.3937  -15.1842   20.3835 N   0  0  0  0  0  0
  -31.7512  -15.0157   20.1507 O   0  0  0  0  0  0
  -21.6637   -6.8873   21.4240 O   0  0  0  0  0  0
  -22.3467  -14.5483   20.6736 O   0  0  0  0  0  0
  -24.6453  -31.8427   23.1869 C   0  0  0  0  0  0
  -25.9216  -32.4688   23.8265 C   0  0  1  0  0  0
  -27.2183  -27.1187   20.1569 C   0  0  0  0  0  0
  -25.5957  -33.8495   24.2181 N   0  0  0  0  0  0
  -23.4497  -30.4617   21.5332 C   0  0  2  0  0  0
  -24.8996  -28.8848   20.1133 C   0  0  0  0  0  0
  -22.7578  -29.4541   22.4856 C   0  0  0  0  0  0
  -18.0308  -28.1398   22.8477 C   0  0  0  0  0  0
  -24.1493  -36.7251   23.2644 C   0  0  0  0  0  0
  -26.0074  -30.7111   21.3887 C   0  0  0  0  0  0
  -26.0785  -29.3204   20.7313 C   0  0  0  0  0  0
  -27.2390  -28.4553   20.7327 C   0  0  0  0  0  0
  -26.0112  -26.7896   19.5002 C   0  0  0  0  0  0
  -24.8802  -27.6335   19.4813 C   0  0  0  0  0  0
  -23.6776  -29.7897   20.1534 C   0  0  0  0  0  0
  -25.4126  -36.3027   24.0315 C   0  0  1  0  0  0
  -20.5922  -28.3725   23.1231 C   0  0  2  0  0  0
  -20.6793  -26.9427   22.5403 C   0  0  0  0  0  0
  -19.5765  -26.6382   21.5214 C   0  0  0  0  0  0
  -18.1946  -26.7935   22.1625 C   0  0  0  0  0  0
  -19.1565  -28.8880   23.2846 C   0  0  0  0  0  0
  -18.9481  -30.1476   23.8871 C   0  0  0  0  0  0
  -17.6477  -30.6593   24.0560 C   0  0  0  0  0  0
  -25.9077  -34.9403   23.5057 C   0  0  0  0  0  0
  -16.5367  -29.9085   23.6339 C   0  0  0  0  0  0
  -16.7292  -28.6505   23.0358 C   0  0  0  0  0  0
  -26.4530  -31.6563   25.0715 C   0  0  0  0  0  0
  -25.3708  -31.3756   26.1404 C   0  0  0  0  0  0
  -27.0404  -30.2959   24.6311 C   0  0  0  0  0  0
  -27.6054  -32.4335   25.7503 C   0  0  0  0  0  0
  -27.5574  -37.1784   24.8467 C   0  0  0  0  0  0
  -21.4268  -29.3048   22.3602 N   0  0  0  0  0  0
  -26.4288  -37.3742   23.9406 N   0  0  0  0  0  0
  -24.7208  -31.0268   22.0912 N   0  0  0  0  0  0
  -23.4212  -28.8093   23.3016 O   0  0  0  0  0  0
  -28.2744  -26.1298   20.2089 O   0  0  0  0  0  0
  -26.5664  -34.8904   22.4637 O   0  0  0  0  0  0
  -23.5567  -32.1310   23.7077 O   0  0  0  0  0  0
  -29.5859  -20.4823   20.2871 C   0  0  0  0  0  0
  -27.4965  -21.3557   21.0622 C   0  0  0  0  0  0
  -28.7402  -21.6880   20.5078 C   0  0  0  0  0  0
  -29.2151  -19.0786   20.6321 C   0  0  0  0  0  0
  -27.9397  -19.0248   21.2509 C   0  0  0  0  0  0
  -26.2225  -17.8378   22.7932 C   0  0  0  0  0  0
  -29.0858  -23.2940   20.2601 C   0  0  0  0  0  0
  -30.1514  -17.7075   20.4062 C   0  0  0  0  0  0
  -27.3723  -17.7120   21.7773 C   0  0  0  0  0  0
  -27.9880  -24.5883   20.2571 C   0  0  0  0  0  0
  -27.1240  -20.1019   21.4058 N   0  0  0  0  0  0
  -29.7825  -16.1633   20.5609 N   0  0  0  0  0  0
  -31.4722  -12.7529   19.1938 H   0  0  0  0  0  0
  -30.4280  -11.6506   20.0436 H   0  0  0  0  0  0
  -29.8448  -11.7319   17.5925 H   0  0  0  0  0  0
  -29.6083  -13.4595   17.6912 H   0  0  0  0  0  0
  -27.9551  -11.2749   18.9886 H   0  0  0  0  0  0
  -27.3928  -12.4416   17.8203 H   0  0  0  0  0  0
  -27.5864  -14.2508   19.4046 H   0  0  0  0  0  0
  -28.7587  -12.3216   21.4651 H   0  0  0  0  0  0
  -28.3644  -14.0015   21.7482 H   0  0  0  0  0  0
  -25.2767   -9.5657   22.4782 H   0  0  0  0  0  0
  -23.9996   -7.4611   22.7477 H   0  0  0  0  0  0
  -21.0852   -8.8772   19.8953 H   0  0  0  0  0  0
  -22.3716  -10.9667   19.6180 H   0  0  0  0  0  0
  -21.2004   -7.6145   23.9713 H   0  0  0  0  0  0
  -21.1483   -6.0522   25.9078 H   0  0  0  0  0  0
  -22.0600   -2.7606   23.2849 H   0  0  0  0  0  0
  -22.4051  -11.9842   22.4852 H   0  0  0  0  0  0
  -21.1045  -13.1197   22.2666 H   0  0  0  0  0  0
  -24.5984  -15.8099   20.4477 H   0  0  0  0  0  0
  -26.1820  -15.5947   19.9035 H   0  0  0  0  0  0
  -26.7282  -32.5289   23.0993 H   0  0  0  0  0  0
  -25.0083  -33.9608   25.0314 H   0  0  0  0  0  0
  -22.7533  -31.2882   21.3772 H   0  0  0  0  0  0
  -23.3760  -35.9578   23.3296 H   0  0  0  0  0  0
  -24.3576  -36.8894   22.2060 H   0  0  0  0  0  0
  -23.7244  -37.6442   23.6688 H   0  0  0  0  0  0
  -26.1658  -31.4644   20.6157 H   0  0  0  0  0  0
  -26.8768  -30.7616   22.0326 H   0  0  0  0  0  0
  -28.1379  -28.7864   21.2336 H   0  0  0  0  0  0
  -25.9046  -25.8407   18.9993 H   0  0  0  0  0  0
  -23.9820  -27.2959   18.9825 H   0  0  0  0  0  0
  -23.8172  -30.5636   19.3977 H   0  0  0  0  0  0
  -22.7919  -29.2335   19.8411 H   0  0  0  0  0  0
  -25.1316  -36.1854   25.0808 H   0  0  0  0  0  0
  -21.0014  -28.3316   24.1352 H   0  0  0  0  0  0
  -20.5691  -26.2340   23.3624 H   0  0  0  0  0  0
  -21.6658  -26.7434   22.1198 H   0  0  0  0  0  0
  -19.6927  -25.6287   21.1259 H   0  0  0  0  0  0
  -19.6700  -27.3180   20.6734 H   0  0  0  0  0  0
  -17.4216  -26.6680   21.4028 H   0  0  0  0  0  0
  -18.0344  -26.0084   22.9028 H   0  0  0  0  0  0
  -19.7956  -30.7301   24.2228 H   0  0  0  0  0  0
  -17.5029  -31.6270   24.5166 H   0  0  0  0  0  0
  -15.5366  -30.2978   23.7677 H   0  0  0  0  0  0
  -15.8693  -28.0815   22.7085 H   0  0  0  0  0  0
  -24.5895  -30.7096   25.7720 H   0  0  0  0  0  0
  -24.8888  -32.2939   26.4767 H   0  0  0  0  0  0
  -25.7984  -30.8968   27.0223 H   0  0  0  0  0  0
  -26.3032  -29.6672   24.1307 H   0  0  0  0  0  0
  -27.4002  -29.7268   25.4894 H   0  0  0  0  0  0
  -27.8943  -30.4194   23.9646 H   0  0  0  0  0  0
  -27.2644  -33.3657   26.2018 H   0  0  0  0  0  0
  -28.3899  -32.6860   25.0356 H   0  0  0  0  0  0
  -28.0686  -31.8502   26.5472 H   0  0  0  0  0  0
  -28.2588  -38.0085   24.7508 H   0  0  0  0  0  0
  -28.1074  -36.2613   24.6302 H   0  0  0  0  0  0
  -27.2289  -37.1442   25.8870 H   0  0  0  0  0  0
  -20.9484  -29.8754   21.6772 H   0  0  0  0  0  0
  -26.0153  -38.2810   24.1405 H   0  0  0  0  0  0
  -30.5633  -20.6398   19.8543 H   0  0  0  0  0  0
  -26.7719  -22.1276   21.2750 H   0  0  0  0  0  0
  -25.9124  -16.8539   23.1452 H   0  0  0  0  0  0
  -25.3482  -18.3153   22.3502 H   0  0  0  0  0  0
  -26.5256  -18.4231   23.6616 H   0  0  0  0  0  0
  -29.6291  -23.3399   19.3162 H   0  0  0  0  0  0
  -29.8328  -23.5346   21.0166 H   0  0  0  0  0  0
  -30.5478  -17.8001   19.3943 H   0  0  0  0  0  0
  -31.0217  -17.8536   21.0471 H   0  0  0  0  0  0
  -28.1703  -17.1718   22.2840 H   0  0  0  0  0  0
  -27.0627  -17.1157   20.9232 H   0  0  0  0  0  0
  -27.3750  -24.4643   21.1502 H   0  0  0  0  0  0
  -27.3241  -24.3625   19.4257 H   0  0  0  0  0  0
  -28.8058  -15.9793   20.7231 H   0  0  0  0  0  0
  1 25  1  0  0  0
  1 30  2  0  0  0
  1 82  1  0  0  0
  2  3  1  0  0  0
  2 25  1  0  0  0
  2 83  1  0  0  0
  2 84  1  0  0  0
  3  4  1  0  0  0
  3 85  1  0  0  0
  3 86  1  0  0  0
  4  5  1  0  0  0
  4 87  1  0  0  0
  4 88  1  0  0  0
  5  6  1  0  0  0
  5 26  1  0  0  0
  5 89  1  0  0  0
  6 25  1  0  0  0
  6 90  1  0  0  0
  6 91  1  0  0  0
  7  8  2  0  0  0
  7 26  1  0  0  0
  7 29  1  0  0  0
  8  9  1  0  0  0
  8 22  1  0  0  0
  9 10  1  0  0  0
  9 27  2  0  0  0
 10 11  2  0  0  0
 10 15  1  0  0  0
 11 12  1  0  0  0
 11 92  1  0  0  0
 12 13  2  0  0  0
 12 93  1  0  0  0
 13 14  1  0  0  0
 13 31  1  0  0  0
 14 15  2  0  0  0
 14 94  1  0  0  0
 15 95  1  0  0  0
 16 17  2  0  0  0
 16 21  1  0  0  0
 16 31  1  0  0  0
 17 18  1  0  0  0
 17 96  1  0  0  0
 18 19  2  0  0  0
 18 97  1  0  0  0
 19 20  1  0  0  0
 19 24  1  0  0  0
 20 21  2  0  0  0
 20 98  1  0  0  0
 21 23  1  0  0  0
 22 28  1  0  0  0
 22 32  2  0  0  0
 26 27  1  0  0  0
 28 99  1  0  0  0
 28100  1  0  0  0
 29101  1  0  0  0
 29102  1  0  0  0
 33 34  1  0  0  0
 33 66  1  0  0  0
 33 70  2  0  0  0
 34 36  1  0  0  0
 34 59  1  0  0  0
 34103  1  0  0  0
 35 44  2  0  0  0
 35 45  1  0  0  0
 35 68  1  0  0  0
 36 56  1  0  0  0
 36104  1  0  0  0
 37 39  1  0  0  0
 37 47  1  0  0  0
 37 66  1  0  0  0
 37105  1  0  0  0
 38 43  2  0  0  0
 38 46  1  0  0  0
 38 47  1  0  0  0
 39 64  1  0  0  0
 39 67  2  0  0  0
 40 52  1  0  0  0
 40 53  2  0  0  0
 40 58  1  0  0  0
 41106  1  0  0  0
 41107  1  0  0  0
 41108  1  0  0  0
 41 48  1  0  0  0
 42 43  1  0  0  0
 42 66  1  0  0  0
 42109  1  0  0  0
 42110  1  0  0  0
 43 44  1  0  0  0
 44111  1  0  0  0
 45 46  2  0  0  0
 45112  1  0  0  0
 46113  1  0  0  0
 47114  1  0  0  0
 47115  1  0  0  0
 48 56  1  0  0  0
 48 65  1  0  0  0
 48116  1  0  0  0
 49 50  1  0  0  0
 49 53  1  0  0  0
 49 64  1  0  0  0
 49117  1  0  0  0
 50 51  1  0  0  0
 50118  1  0  0  0
 50119  1  0  0  0
 51 52  1  0  0  0
 51120  1  0  0  0
 51121  1  0  0  0
 52122  1  0  0  0
 52123  1  0  0  0
 53 54  1  0  0  0
 54 55  2  0  0  0
 54124  1  0  0  0
 55 57  1  0  0  0
 55125  1  0  0  0
 56 69  2  0  0  0
 57 58  2  0  0  0
 57126  1  0  0  0
 58127  1  0  0  0
 59 60  1  0  0  0
 59 61  1  0  0  0
 59 62  1  0  0  0
 60128  1  0  0  0
 60129  1  0  0  0
 60130  1  0  0  0
 61131  1  0  0  0
 61132  1  0  0  0
 61133  1  0  0  0
 62134  1  0  0  0
 62135  1  0  0  0
 62136  1  0  0  0
 63 65  1  0  0  0
 63137  1  0  0  0
 63138  1  0  0  0
 63139  1  0  0  0
 64140  1  0  0  0
 65141  1  0  0  0
 68 80  1  0  0  0
 71 73  2  0  0  0
 71 74  1  0  0  0
 71142  1  0  0  0
 72 73  1  0  0  0
 72 81  2  0  0  0
 72143  1  0  0  0
 73 77  1  0  0  0
 74 75  2  0  0  0
 74 78  1  0  0  0
 75 79  1  0  0  0
 75 81  1  0  0  0
 76 79  1  0  0  0
 76144  1  0  0  0
 76145  1  0  0  0
 76146  1  0  0  0
 77 80  1  0  0  0
 77147  1  0  0  0
 77148  1  0  0  0
 78 82  1  0  0  0
 78149  1  0  0  0
 78150  1  0  0  0
 79151  1  0  0  0
 79152  1  0  0  0
 80153  1  0  0  0
 80154  1  0  0  0
 82155  1  0  0  0
M  ISO  4   1 100  68 101  80 101  82 100
M  END
> <chiral flag>
0

> <version>
0

> <s_m_source_file>
/data/baiqing/PycharmProjects/Reinvent-master-3.2/result/LINK_invent/BTK/process_docking_weight1_custom_sum_contain_oxygen_bond_distance_aromatic_linkinvent_7_9_3/rearranged_h_0031.sdf

> <i_m_source_file_index>
14

> <r_mmod_Potential_Energy-OPLS-2005>
356.812194824219

> <r_mmod_Stretch_Energy-OPLS-2005>
279.614959716797

> <r_mmod_Bend_Energy-OPLS-2005>
254.711898803711

> <r_mmod_Torsional_Energy-OPLS-2005>
210.452560424805

> <r_mmod_Improper_Torsional_Energy-OPLS-2005>
5.51888751983643

> <r_mmod_Van_der_Waal_Energy-OPLS-2005>
133.216506958008

> <r_mmod_Electrostatic_Energy-OPLS-2005>
-510.742950439453

> <r_mmod_Solvation_Energy-OPLS-2005>
-220.121963500977

> <b_mmod_Minimization_Converged-OPLS-2005>
0

> <r_mmod_RMS_Derivative-OPLS-2005>
0.275105774402618

$$$$
14
                    3D
 Structure written by MMmdl.
156164  0  0  1  0            999 V2000
  -30.5954  -14.8483   20.4223 C   0  0  0  0  0  0
  -30.4268  -12.5162   19.4981 C   0  0  0  0  0  0
  -29.5155  -12.5157   18.2515 C   0  0  0  0  0  0
  -28.0433  -12.3252   18.6633 C   0  0  0  0  0  0
  -27.6323  -13.2469   19.8426 C   0  0  2  0  0  0
  -28.6745  -13.2475   20.9815 C   0  0  0  0  0  0
  -25.2462  -13.8226   20.5715 C   0  0  0  0  0  0
  -24.1777  -13.0445   20.9231 C   0  0  0  0  0  0
  -24.6398  -11.6930   20.8769 C   0  0  0  0  0  0
  -23.9087  -10.4292   21.0413 C   0  0  0  0  0  0
  -24.3630   -9.4203   21.9190 C   0  0  0  0  0  0
  -23.6297   -8.2244   22.0758 C   0  0  0  0  0  0
  -22.4281   -8.0286   21.3547 C   0  0  0  0  0  0
  -21.9924   -9.0263   20.4652 C   0  0  0  0  0  0
  -22.7262  -10.2135   20.3058 C   0  0  0  0  0  0
  -21.6854   -6.0740   22.5280 C   0  0  0  0  0  0
  -21.4021   -6.5645   23.8217 C   0  0  0  0  0  0
  -21.3658   -5.6793   24.9179 C   0  0  0  0  0  0
  -21.6039   -4.3056   24.7224 C   0  0  0  0  0  0
  -21.8818   -3.8151   23.4348 C   0  0  0  0  0  0
  -21.9192   -4.6966   22.3405 C   0  0  0  0  0  0
  -22.7791  -13.5208   21.1879 C   0  0  0  0  0  0
  -22.1659   -4.2152   21.0982 F   0  0  0  0  0  0
  -21.5622   -3.4539   25.7739 F   0  0  0  0  0  0
  -29.9633  -13.6154   20.3860 N   0  0  0  0  0  0
  -26.2894  -12.9462   20.3267 N   0  0  0  0  0  0
  -25.9329  -11.6592   20.5761 N   0  0  0  0  0  0
  -22.0446  -12.8192   22.0435 N   0  0  0  0  0  0
  -25.4102  -15.1957   20.4129 N   0  0  0  0  0  0
  -31.7954  -14.8913   20.1378 O   0  0  0  0  0  0
  -21.6641   -6.8884   21.4244 O   0  0  0  0  0  0
  -22.3471  -14.5506   20.6715 O   0  0  0  0  0  0
  -24.6393  -31.8483   23.1945 C   0  0  0  0  0  0
  -25.9196  -32.4715   23.8307 C   0  0  1  0  0  0
  -27.2129  -27.1850   20.1429 C   0  0  0  0  0  0
  -25.5974  -33.8520   24.2243 N   0  0  0  0  0  0
  -23.4392  -30.4706   21.5391 C   0  0  2  0  0  0
  -24.8858  -28.9039   20.1117 C   0  0  0  0  0  0
  -22.7536  -29.4572   22.4895 C   0  0  0  0  0  0
  -18.0297  -28.1393   22.8488 C   0  0  0  0  0  0
  -24.1493  -36.7252   23.2637 C   0  0  0  0  0  0
  -25.9905  -30.7384   21.3837 C   0  0  0  0  0  0
  -26.0620  -29.3542   20.7241 C   0  0  0  0  0  0
  -27.2292  -28.5105   20.7219 C   0  0  0  0  0  0
  -26.0100  -26.8202   19.4987 C   0  0  0  0  0  0
  -24.8697  -27.6494   19.4841 C   0  0  0  0  0  0
  -23.6615  -29.8016   20.1570 C   0  0  0  0  0  0
  -25.4123  -36.3040   24.0320 C   0  0  1  0  0  0
  -20.5911  -28.3714   23.1255 C   0  0  2  0  0  0
  -20.6780  -26.9432   22.5409 C   0  0  0  0  0  0
  -19.5759  -26.6397   21.5205 C   0  0  0  0  0  0
  -18.1943  -26.7936   22.1623 C   0  0  0  0  0  0
  -19.1557  -28.8874   23.2864 C   0  0  0  0  0  0
  -18.9466  -30.1469   23.8900 C   0  0  0  0  0  0
  -17.6464  -30.6593   24.0565 C   0  0  0  0  0  0
  -25.9071  -34.9408   23.5080 C   0  0  0  0  0  0
  -16.5359  -29.9089   23.6336 C   0  0  0  0  0  0
  -16.7281  -28.6500   23.0364 C   0  0  0  0  0  0
  -26.4539  -31.6553   25.0716 C   0  0  0  0  0  0
  -25.3740  -31.3706   26.1417 C   0  0  0  0  0  0
  -27.0386  -30.2962   24.6232 C   0  0  0  0  0  0
  -27.6097  -32.4281   25.7493 C   0  0  0  0  0  0
  -27.5578  -37.1785   24.8469 C   0  0  0  0  0  0
  -21.4243  -29.3044   22.3626 N   0  0  0  0  0  0
  -26.4295  -37.3744   23.9402 N   0  0  0  0  0  0
  -24.7092  -31.0386   22.0949 N   0  0  0  0  0  0
  -23.4199  -28.8107   23.3016 O   0  0  0  0  0  0
  -28.2868  -26.2415   20.2033 O   0  0  0  0  0  0
  -26.5620  -34.8895   22.4641 O   0  0  0  0  0  0
  -23.5533  -32.1341   23.7203 O   0  0  0  0  0  0
  -29.5982  -19.7211   21.5229 C   0  0  0  0  0  0
  -29.3973  -19.7389   19.1725 C   0  0  0  0  0  0
  -29.6935  -18.9453   20.3281 C   0  0  0  0  0  0
  -29.3267  -21.1466   21.5594 C   0  0  0  0  0  0
  -29.1349  -21.1673   19.1864 C   0  0  0  0  0  0
  -29.1296  -21.9611   20.3843 C   0  0  0  0  0  0
  -29.3426  -21.8101   22.9250 C   0  0  0  0  0  0
  -28.9309  -21.8651   17.8525 C   0  0  0  0  0  0
  -29.2108  -23.6047   20.4027 C   0  0  0  0  0  0
  -30.4040  -17.4743   20.2333 C   0  0  0  0  0  0
  -28.0321  -24.7249   20.1223 C   0  0  0  0  0  0
  -29.8678  -16.0489   20.5404 N   0  0  0  0  0  0
  -31.4693  -12.6347   19.1987 H   0  0  0  0  0  0
  -30.3749  -11.5572   20.0171 H   0  0  0  0  0  0
  -29.8175  -11.7281   17.5599 H   0  0  0  0  0  0
  -29.6281  -13.4581   17.7133 H   0  0  0  0  0  0
  -27.9170  -11.2807   18.9513 H   0  0  0  0  0  0
  -27.3861  -12.4870   17.8081 H   0  0  0  0  0  0
  -27.6062  -14.2562   19.4302 H   0  0  0  0  0  0
  -28.7324  -12.2710   21.4645 H   0  0  0  0  0  0
  -28.3944  -13.9618   21.7579 H   0  0  0  0  0  0
  -25.2773   -9.5673   22.4771 H   0  0  0  0  0  0
  -24.0004   -7.4631   22.7472 H   0  0  0  0  0  0
  -21.0859   -8.8786   19.8953 H   0  0  0  0  0  0
  -22.3728  -10.9677   19.6165 H   0  0  0  0  0  0
  -21.2024   -7.6152   23.9725 H   0  0  0  0  0  0
  -21.1479   -6.0523   25.9080 H   0  0  0  0  0  0
  -22.0598   -2.7612   23.2849 H   0  0  0  0  0  0
  -22.4073  -11.9856   22.4823 H   0  0  0  0  0  0
  -21.1059  -13.1201   22.2631 H   0  0  0  0  0  0
  -24.6358  -15.8429   20.5190 H   0  0  0  0  0  0
  -26.2486  -15.6407   20.0621 H   0  0  0  0  0  0
  -26.7253  -32.5354   23.1028 H   0  0  0  0  0  0
  -25.0164  -33.9646   25.0418 H   0  0  0  0  0  0
  -22.7404  -31.2959   21.3895 H   0  0  0  0  0  0
  -23.3763  -35.9577   23.3295 H   0  0  0  0  0  0
  -24.3573  -36.8881   22.2050 H   0  0  0  0  0  0
  -23.7241  -37.6448   23.6665 H   0  0  0  0  0  0
  -26.1363  -31.4975   20.6149 H   0  0  0  0  0  0
  -26.8644  -30.7900   22.0210 H   0  0  0  0  0  0
  -28.1290  -28.8498   21.2155 H   0  0  0  0  0  0
  -25.9189  -25.8607   19.0137 H   0  0  0  0  0  0
  -23.9703  -27.3027   18.9935 H   0  0  0  0  0  0
  -23.7945  -30.5761   19.4010 H   0  0  0  0  0  0
  -22.7774  -29.2399   19.8501 H   0  0  0  0  0  0
  -25.1309  -36.1876   25.0812 H   0  0  0  0  0  0
  -21.0008  -28.3303   24.1369 H   0  0  0  0  0  0
  -20.5675  -26.2333   23.3618 H   0  0  0  0  0  0
  -21.6646  -26.7444   22.1208 H   0  0  0  0  0  0
  -19.6928  -25.6302   21.1245 H   0  0  0  0  0  0
  -19.6693  -27.3199   20.6729 H   0  0  0  0  0  0
  -17.4210  -26.6688   21.4029 H   0  0  0  0  0  0
  -18.0352  -26.0077   22.9022 H   0  0  0  0  0  0
  -19.7937  -30.7283   24.2289 H   0  0  0  0  0  0
  -17.5009  -31.6276   24.5157 H   0  0  0  0  0  0
  -15.5356  -30.2979   23.7657 H   0  0  0  0  0  0
  -15.8681  -28.0801   22.7092 H   0  0  0  0  0  0
  -24.5948  -30.7022   25.7728 H   0  0  0  0  0  0
  -24.8897  -32.2869   26.4807 H   0  0  0  0  0  0
  -25.8048  -30.8910   27.0214 H   0  0  0  0  0  0
  -26.2988  -29.6710   24.1219 H   0  0  0  0  0  0
  -27.4017  -29.7228   25.4770 H   0  0  0  0  0  0
  -27.8884  -30.4216   23.9519 H   0  0  0  0  0  0
  -27.2729  -33.3595   26.2048 H   0  0  0  0  0  0
  -28.3923  -32.6810   25.0328 H   0  0  0  0  0  0
  -28.0734  -31.8407   26.5430 H   0  0  0  0  0  0
  -28.2592  -38.0083   24.7507 H   0  0  0  0  0  0
  -28.1084  -36.2615   24.6318 H   0  0  0  0  0  0
  -27.2288  -37.1443   25.8870 H   0  0  0  0  0  0
  -20.9455  -29.8751   21.6796 H   0  0  0  0  0  0
  -26.0173  -38.2817   24.1408 H   0  0  0  0  0  0
  -29.8349  -19.2225   22.4536 H   0  0  0  0  0  0
  -29.4634  -19.2492   18.2104 H   0  0  0  0  0  0
  -29.1728  -21.0843   23.7216 H   0  0  0  0  0  0
  -28.5598  -22.5647   23.0043 H   0  0  0  0  0  0
  -30.3065  -22.2873   23.1061 H   0  0  0  0  0  0
  -29.0168  -21.1704   17.0169 H   0  0  0  0  0  0
  -29.6704  -22.6510   17.7020 H   0  0  0  0  0  0
  -27.9383  -22.3149   17.8081 H   0  0  0  0  0  0
  -30.0086  -23.8452   19.7006 H   0  0  0  0  0  0
  -29.6456  -23.8837   21.3614 H   0  0  0  0  0  0
  -31.3115  -17.5685   20.8308 H   0  0  0  0  0  0
  -30.7763  -17.4085   19.2095 H   0  0  0  0  0  0
  -27.2173  -24.5076   20.8136 H   0  0  0  0  0  0
  -27.6419  -24.5133   19.1276 H   0  0  0  0  0  0
  -28.8825  -15.9659   20.7361 H   0  0  0  0  0  0
  1 25  1  0  0  0
  1 30  2  0  0  0
  1 82  1  0  0  0
  2  3  1  0  0  0
  2 25  1  0  0  0
  2 83  1  0  0  0
  2 84  1  0  0  0
  3  4  1  0  0  0
  3 85  1  0  0  0
  3 86  1  0  0  0
  4  5  1  0  0  0
  4 87  1  0  0  0
  4 88  1  0  0  0
  5  6  1  0  0  0
  5 26  1  0  0  0
  5 89  1  0  0  0
  6 25  1  0  0  0
  6 90  1  0  0  0
  6 91  1  0  0  0
  7  8  2  0  0  0
  7 26  1  0  0  0
  7 29  1  0  0  0
  8  9  1  0  0  0
  8 22  1  0  0  0
  9 10  1  0  0  0
  9 27  2  0  0  0
 10 11  2  0  0  0
 10 15  1  0  0  0
 11 12  1  0  0  0
 11 92  1  0  0  0
 12 13  2  0  0  0
 12 93  1  0  0  0
 13 14  1  0  0  0
 13 31  1  0  0  0
 14 15  2  0  0  0
 14 94  1  0  0  0
 15 95  1  0  0  0
 16 17  2  0  0  0
 16 21  1  0  0  0
 16 31  1  0  0  0
 17 18  1  0  0  0
 17 96  1  0  0  0
 18 19  2  0  0  0
 18 97  1  0  0  0
 19 20  1  0  0  0
 19 24  1  0  0  0
 20 21  2  0  0  0
 20 98  1  0  0  0
 21 23  1  0  0  0
 22 28  1  0  0  0
 22 32  2  0  0  0
 26 27  1  0  0  0
 28 99  1  0  0  0
 28100  1  0  0  0
 29101  1  0  0  0
 29102  1  0  0  0
 33 34  1  0  0  0
 33 66  1  0  0  0
 33 70  2  0  0  0
 34 36  1  0  0  0
 34 59  1  0  0  0
 34103  1  0  0  0
 35 44  2  0  0  0
 35 45  1  0  0  0
 35 68  1  0  0  0
 36 56  1  0  0  0
 36104  1  0  0  0
 37 39  1  0  0  0
 37 47  1  0  0  0
 37 66  1  0  0  0
 37105  1  0  0  0
 38 43  2  0  0  0
 38 46  1  0  0  0
 38 47  1  0  0  0
 39 64  1  0  0  0
 39 67  2  0  0  0
 40 52  1  0  0  0
 40 53  2  0  0  0
 40 58  1  0  0  0
 41106  1  0  0  0
 41107  1  0  0  0
 41108  1  0  0  0
 41 48  1  0  0  0
 42 43  1  0  0  0
 42 66  1  0  0  0
 42109  1  0  0  0
 42110  1  0  0  0
 43 44  1  0  0  0
 44111  1  0  0  0
 45 46  2  0  0  0
 45112  1  0  0  0
 46113  1  0  0  0
 47114  1  0  0  0
 47115  1  0  0  0
 48 56  1  0  0  0
 48 65  1  0  0  0
 48116  1  0  0  0
 49 50  1  0  0  0
 49 53  1  0  0  0
 49 64  1  0  0  0
 49117  1  0  0  0
 50 51  1  0  0  0
 50118  1  0  0  0
 50119  1  0  0  0
 51 52  1  0  0  0
 51120  1  0  0  0
 51121  1  0  0  0
 52122  1  0  0  0
 52123  1  0  0  0
 53 54  1  0  0  0
 54 55  2  0  0  0
 54124  1  0  0  0
 55 57  1  0  0  0
 55125  1  0  0  0
 56 69  2  0  0  0
 57 58  2  0  0  0
 57126  1  0  0  0
 58127  1  0  0  0
 59 60  1  0  0  0
 59 61  1  0  0  0
 59 62  1  0  0  0
 60128  1  0  0  0
 60129  1  0  0  0
 60130  1  0  0  0
 61131  1  0  0  0
 61132  1  0  0  0
 61133  1  0  0  0
 62134  1  0  0  0
 62135  1  0  0  0
 62136  1  0  0  0
 63 65  1  0  0  0
 63137  1  0  0  0
 63138  1  0  0  0
 63139  1  0  0  0
 64140  1  0  0  0
 65141  1  0  0  0
 68 81  1  0  0  0
 71 73  2  0  0  0
 71 74  1  0  0  0
 71142  1  0  0  0
 72 73  1  0  0  0
 72 75  2  0  0  0
 72143  1  0  0  0
 73 80  1  0  0  0
 74 76  2  0  0  0
 74 77  1  0  0  0
 75 76  1  0  0  0
 75 78  1  0  0  0
 76 79  1  0  0  0
 77144  1  0  0  0
 77145  1  0  0  0
 77146  1  0  0  0
 78147  1  0  0  0
 78148  1  0  0  0
 78149  1  0  0  0
 79 81  1  0  0  0
 79150  1  0  0  0
 79151  1  0  0  0
 80 82  1  0  0  0
 80152  1  0  0  0
 80153  1  0  0  0
 81154  1  0  0  0
 81155  1  0  0  0
 82156  1  0  0  0
M  ISO  4   1 100  68 101  81 101  82 100
M  END
> <chiral flag>
0

> <version>
0

> <s_m_source_file>
/data/baiqing/PycharmProjects/Reinvent-master-3.2/result/LINK_invent/BTK/process_docking_weight1_custom_sum_contain_oxygen_bond_distance_aromatic_linkinvent_7_9_3/rearranged_h_0031.sdf

> <i_m_source_file_index>
15

> <r_mmod_Potential_Energy-OPLS-2005>
296.628326416016

> <r_mmod_Stretch_Energy-OPLS-2005>
184.531112670898

> <r_mmod_Bend_Energy-OPLS-2005>
226.976486206055

> <r_mmod_Torsional_Energy-OPLS-2005>
226.028686523438

> <r_mmod_Improper_Torsional_Energy-OPLS-2005>
10.0570735931396

> <r_mmod_Van_der_Waal_Energy-OPLS-2005>
137.272155761719

> <r_mmod_Electrostatic_Energy-OPLS-2005>
-419.075592041016

> <r_mmod_Solvation_Energy-OPLS-2005>
-207.553756713867

> <b_mmod_Minimization_Converged-OPLS-2005>
0

> <r_mmod_RMS_Derivative-OPLS-2005>
1.62934899330139

$$$$
15
                    3D
 Structure written by MMmdl.
187196  0  0  1  0            999 V2000
  -30.6019  -14.7789   20.4706 C   0  0  0  0  0  0
  -30.4327  -12.4799   19.4752 C   0  0  0  0  0  0
  -29.5099  -12.5151   18.2363 C   0  0  0  0  0  0
  -28.0361  -12.3327   18.6484 C   0  0  0  0  0  0
  -27.6373  -13.2370   19.8451 C   0  0  2  0  0  0
  -28.6846  -13.1757   20.9786 C   0  0  0  0  0  0
  -25.2496  -13.8206   20.5728 C   0  0  0  0  0  0
  -24.1797  -13.0445   20.9238 C   0  0  0  0  0  0
  -24.6387  -11.6922   20.8739 C   0  0  0  0  0  0
  -23.9064  -10.4293   21.0382 C   0  0  0  0  0  0
  -24.3617   -9.4210   21.9156 C   0  0  0  0  0  0
  -23.6315   -8.2236   22.0721 C   0  0  0  0  0  0
  -22.4293   -8.0260   21.3522 C   0  0  0  0  0  0
  -21.9921   -9.0232   20.4624 C   0  0  0  0  0  0
  -22.7236  -10.2125   20.3037 C   0  0  0  0  0  0
  -21.6851   -6.0735   22.5280 C   0  0  0  0  0  0
  -21.4003   -6.5637   23.8225 C   0  0  0  0  0  0
  -21.3669   -5.6778   24.9180 C   0  0  0  0  0  0
  -21.6060   -4.3050   24.7214 C   0  0  0  0  0  0
  -21.8828   -3.8138   23.4332 C   0  0  0  0  0  0
  -21.9190   -4.6961   22.3394 C   0  0  0  0  0  0
  -22.7815  -13.5222   21.1884 C   0  0  0  0  0  0
  -22.1662   -4.2151   21.0972 F   0  0  0  0  0  0
  -21.5637   -3.4525   25.7725 F   0  0  0  0  0  0
  -29.9815  -13.5482   20.4002 N   0  0  0  0  0  0
  -26.2914  -12.9425   20.3260 N   0  0  0  0  0  0
  -25.9309  -11.6556   20.5726 N   0  0  0  0  0  0
  -22.0465  -12.8217   22.0456 N   0  0  0  0  0  0
  -25.4146  -15.1929   20.4153 N   0  0  0  0  0  0
  -31.7915  -14.8719   20.1533 O   0  0  0  0  0  0
  -21.6638   -6.8878   21.4237 O   0  0  0  0  0  0
  -22.3492  -14.5509   20.6711 O   0  0  0  0  0  0
  -24.6367  -31.8523   23.1919 C   0  0  0  0  0  0
  -25.9170  -32.4729   23.8294 C   0  0  1  0  0  0
  -27.2275  -27.2093   20.1566 C   0  0  0  0  0  0
  -25.5942  -33.8534   24.2226 N   0  0  0  0  0  0
  -23.4366  -30.4682   21.5379 C   0  0  2  0  0  0
  -24.8855  -28.9034   20.1123 C   0  0  0  0  0  0
  -22.7545  -29.4580   22.4923 C   0  0  0  0  0  0
  -18.0292  -28.1400   22.8466 C   0  0  0  0  0  0
  -24.1491  -36.7261   23.2648 C   0  0  0  0  0  0
  -25.9853  -30.7489   21.3783 C   0  0  0  0  0  0
  -26.0587  -29.3656   20.7238 C   0  0  0  0  0  0
  -27.2314  -28.5346   20.7261 C   0  0  0  0  0  0
  -26.0288  -26.8241   19.5157 C   0  0  0  0  0  0
  -24.8801  -27.6434   19.4937 C   0  0  0  0  0  0
  -23.6574  -29.7963   20.1561 C   0  0  0  0  0  0
  -25.4119  -36.3056   24.0332 C   0  0  1  0  0  0
  -20.5904  -28.3702   23.1263 C   0  0  2  0  0  0
  -20.6791  -26.9413   22.5420 C   0  0  0  0  0  0
  -19.5769  -26.6371   21.5222 C   0  0  0  0  0  0
  -18.1939  -26.7934   22.1620 C   0  0  0  0  0  0
  -19.1547  -28.8870   23.2848 C   0  0  0  0  0  0
  -18.9475  -30.1474   23.8855 C   0  0  0  0  0  0
  -17.6477  -30.6593   24.0560 C   0  0  0  0  0  0
  -25.9076  -34.9428   23.5085 C   0  0  0  0  0  0
  -16.5367  -29.9091   23.6340 C   0  0  0  0  0  0
  -16.7279  -28.6525   23.0323 C   0  0  0  0  0  0
  -26.4498  -31.6563   25.0716 C   0  0  0  0  0  0
  -25.3668  -31.3763   26.1404 C   0  0  0  0  0  0
  -27.0373  -30.2976   24.6253 C   0  0  0  0  0  0
  -27.6074  -32.4275   25.7473 C   0  0  0  0  0  0
  -27.5578  -37.1784   24.8459 C   0  0  0  0  0  0
  -21.4240  -29.3027   22.3658 N   0  0  0  0  0  0
  -26.4288  -37.3761   23.9408 N   0  0  0  0  0  0
  -24.7054  -31.0447   22.0910 N   0  0  0  0  0  0
  -23.4215  -28.8146   23.3071 O   0  0  0  0  0  0
  -28.3192  -26.2931   20.2165 O   0  0  0  0  0  0
  -26.5673  -34.8921   22.4670 O   0  0  0  0  0  0
  -23.5489  -32.1373   23.7173 O   0  0  0  0  0  0
  -22.4541  -22.2513   19.9221 C   0  0  0  0  0  0
  -22.1282  -21.0914   20.8802 C   0  0  0  0  0  0
  -23.4556  -21.8158   18.8442 C   0  0  0  0  0  0
  -23.4000  -20.4575   21.4745 C   0  0  0  0  0  0
  -24.7233  -21.2184   19.4701 C   0  0  0  0  0  0
  -28.7263  -21.2149   21.5927 C   0  0  0  0  0  0
  -29.2300  -19.7000   21.7460 C   0  0  0  0  0  0
  -29.6703  -19.6524   19.3149 C   0  0  0  0  0  0
  -24.3837  -20.0083   20.3731 C   0  0  0  0  0  0
  -29.4088  -22.0714   20.4798 C   0  0  1  0  0  0
  -29.2221  -21.2000   19.1859 C   0  0  1  0  0  0
  -29.2184  -18.6976   20.5139 C   0  0  2  0  0  0
  -29.9859  -21.8259   18.0093 C   0  0  0  0  0  0
  -30.0017  -24.2020   21.8132 C   0  0  0  0  0  0
  -25.6248  -19.2920   20.9589 C   0  0  0  0  0  0
  -27.8314  -18.0061   20.3010 C   0  0  0  0  0  0
  -30.2640  -17.4146   20.7009 C   0  0  0  0  0  0
  -26.5989  -18.8109   19.8594 C   0  0  0  0  0  0
  -28.0984  -24.7785   20.2107 C   0  0  0  0  0  0
  -29.3441  -23.7476   20.4962 C   0  0  2  0  0  0
  -29.8428  -15.9253   20.7056 N   0  0  0  0  0  0
  -31.4720  -12.6136   19.1696 H   0  0  0  0  0  0
  -30.3852  -11.5021   19.9631 H   0  0  0  0  0  0
  -29.8002  -11.7409   17.5231 H   0  0  0  0  0  0
  -29.6284  -13.4676   17.7181 H   0  0  0  0  0  0
  -27.9006  -11.2853   18.9176 H   0  0  0  0  0  0
  -27.3757  -12.5122   17.7968 H   0  0  0  0  0  0
  -27.6256  -14.2582   19.4604 H   0  0  0  0  0  0
  -28.7347  -12.1736   21.4087 H   0  0  0  0  0  0
  -28.4149  -13.8468   21.7956 H   0  0  0  0  0  0
  -25.2751   -9.5704   22.4733 H   0  0  0  0  0  0
  -24.0032   -7.4628   22.7448 H   0  0  0  0  0  0
  -21.0843   -8.8757   19.8940 H   0  0  0  0  0  0
  -22.3677  -10.9662   19.6161 H   0  0  0  0  0  0
  -21.1975   -7.6133   23.9737 H   0  0  0  0  0  0
  -21.1499   -6.0493   25.9104 H   0  0  0  0  0  0
  -22.0592   -2.7592   23.2818 H   0  0  0  0  0  0
  -22.4056  -11.9889   22.4879 H   0  0  0  0  0  0
  -21.1065  -13.1229   22.2604 H   0  0  0  0  0  0
  -24.6434  -15.8390   20.5354 H   0  0  0  0  0  0
  -26.2550  -15.6394   20.0756 H   0  0  0  0  0  0
  -26.7261  -32.5359   23.1044 H   0  0  0  0  0  0
  -25.0020  -33.9652   25.0321 H   0  0  0  0  0  0
  -22.7338  -31.2889   21.3858 H   0  0  0  0  0  0
  -23.3778  -35.9567   23.3284 H   0  0  0  0  0  0
  -24.3592  -36.8912   22.2070 H   0  0  0  0  0  0
  -23.7219  -37.6443   23.6682 H   0  0  0  0  0  0
  -26.1302  -31.5076   20.6088 H   0  0  0  0  0  0
  -26.8605  -30.7979   22.0151 H   0  0  0  0  0  0
  -28.1277  -28.8868   21.2181 H   0  0  0  0  0  0
  -25.9539  -25.8597   19.0369 H   0  0  0  0  0  0
  -23.9863  -27.2831   19.0032 H   0  0  0  0  0  0
  -23.7795  -30.5687   19.3963 H   0  0  0  0  0  0
  -22.7762  -29.2276   19.8551 H   0  0  0  0  0  0
  -25.1305  -36.1893   25.0830 H   0  0  0  0  0  0
  -20.9953  -28.3286   24.1399 H   0  0  0  0  0  0
  -20.5686  -26.2323   23.3638 H   0  0  0  0  0  0
  -21.6658  -26.7440   22.1208 H   0  0  0  0  0  0
  -19.6938  -25.6268   21.1274 H   0  0  0  0  0  0
  -19.6716  -27.3167   20.6738 H   0  0  0  0  0  0
  -17.4220  -26.6660   21.4015 H   0  0  0  0  0  0
  -18.0326  -26.0090   22.9022 H   0  0  0  0  0  0
  -19.7963  -30.7288   24.2193 H   0  0  0  0  0  0
  -17.5045  -31.6258   24.5184 H   0  0  0  0  0  0
  -15.5369  -30.2978   23.7702 H   0  0  0  0  0  0
  -15.8678  -28.0857   22.7010 H   0  0  0  0  0  0
  -24.5822  -30.7155   25.7698 H   0  0  0  0  0  0
  -24.8877  -32.2958   26.4776 H   0  0  0  0  0  0
  -25.7913  -30.8938   27.0211 H   0  0  0  0  0  0
  -26.3011  -29.6685   24.1249 H   0  0  0  0  0  0
  -27.4027  -29.7275   25.4802 H   0  0  0  0  0  0
  -27.8868  -30.4267   23.9549 H   0  0  0  0  0  0
  -27.2741  -33.3583   26.2047 H   0  0  0  0  0  0
  -28.3872  -32.6796   25.0282 H   0  0  0  0  0  0
  -28.0738  -31.8378   26.5369 H   0  0  0  0  0  0
  -28.2591  -38.0086   24.7527 H   0  0  0  0  0  0
  -28.1078  -36.2630   24.6242 H   0  0  0  0  0  0
  -27.2308  -37.1366   25.8864 H   0  0  0  0  0  0
  -20.9467  -29.8746   21.6829 H   0  0  0  0  0  0
  -26.0168  -38.2831   24.1406 H   0  0  0  0  0  0
  -22.8647  -23.0929   20.4811 H   0  0  0  0  0  0
  -21.5388  -22.6109   19.4487 H   0  0  0  0  0  0
  -21.5608  -20.3284   20.3464 H   0  0  0  0  0  0
  -21.4797  -21.4504   21.6813 H   0  0  0  0  0  0
  -23.7187  -22.6619   18.2073 H   0  0  0  0  0  0
  -22.9953  -21.0749   18.1877 H   0  0  0  0  0  0
  -23.1206  -19.6083   22.1005 H   0  0  0  0  0  0
  -23.8887  -21.1754   22.1347 H   0  0  0  0  0  0
  -25.2564  -21.9790   20.0441 H   0  0  0  0  0  0
  -25.3845  -20.9380   18.6528 H   0  0  0  0  0  0
  -28.8752  -21.7060   22.5552 H   0  0  0  0  0  0
  -27.6573  -21.2620   21.4195 H   0  0  0  0  0  0
  -28.6923  -19.2372   22.5749 H   0  0  0  0  0  0
  -30.2606  -19.7678   22.0943 H   0  0  0  0  0  0
  -30.7611  -19.6688   19.3309 H   0  0  0  0  0  0
  -29.4243  -19.1446   18.3800 H   0  0  0  0  0  0
  -23.8644  -19.2745   19.7547 H   0  0  0  0  0  0
  -30.4678  -21.9120   20.6876 H   0  0  0  0  0  0
  -28.1678  -21.2542   18.9225 H   0  0  0  0  0  0
  -31.0515  -21.9118   18.2339 H   0  0  0  0  0  0
  -29.6135  -22.8221   17.7701 H   0  0  0  0  0  0
  -29.8883  -21.2188   17.1087 H   0  0  0  0  0  0
  -30.9412  -23.6779   21.9967 H   0  0  0  0  0  0
  -29.3491  -24.0148   22.6655 H   0  0  0  0  0  0
  -30.2326  -25.2683   21.8012 H   0  0  0  0  0  0
  -25.2890  -18.4254   21.5296 H   0  0  0  0  0  0
  -26.1128  -19.9297   21.6892 H   0  0  0  0  0  0
  -27.5748  -17.4068   21.1768 H   0  0  0  0  0  0
  -27.9793  -17.2875   19.4949 H   0  0  0  0  0  0
  -30.8108  -17.5627   21.6334 H   0  0  0  0  0  0
  -31.0349  -17.4976   19.9329 H   0  0  0  0  0  0
  -26.9256  -19.6198   19.2266 H   0  0  0  0  0  0
  -26.0169  -18.1666   19.1982 H   0  0  0  0  0  0
  -27.3232  -24.5677   20.9479 H   0  0  0  0  0  0
  -27.6698  -24.5042   19.2486 H   0  0  0  0  0  0
  -30.0578  -24.0313   19.7221 H   0  0  0  0  0  0
  -28.8715  -15.7511   20.9136 H   0  0  0  0  0  0
  1 25  1  0  0  0
  1 30  2  0  0  0
  1 91  1  0  0  0
  2  3  1  0  0  0
  2 25  1  0  0  0
  2 92  1  0  0  0
  2 93  1  0  0  0
  3  4  1  0  0  0
  3 94  1  0  0  0
  3 95  1  0  0  0
  4  5  1  0  0  0
  4 96  1  0  0  0
  4 97  1  0  0  0
  5  6  1  0  0  0
  5 26  1  0  0  0
  5 98  1  0  0  0
  6 25  1  0  0  0
  6 99  1  0  0  0
  6100  1  0  0  0
  7  8  2  0  0  0
  7 26  1  0  0  0
  7 29  1  0  0  0
  8  9  1  0  0  0
  8 22  1  0  0  0
  9 10  1  0  0  0
  9 27  2  0  0  0
 10 11  2  0  0  0
 10 15  1  0  0  0
 11 12  1  0  0  0
 11101  1  0  0  0
 12 13  2  0  0  0
 12102  1  0  0  0
 13 14  1  0  0  0
 13 31  1  0  0  0
 14 15  2  0  0  0
 14103  1  0  0  0
 15104  1  0  0  0
 16 17  2  0  0  0
 16 21  1  0  0  0
 16 31  1  0  0  0
 17 18  1  0  0  0
 17105  1  0  0  0
 18 19  2  0  0  0
 18106  1  0  0  0
 19 20  1  0  0  0
 19 24  1  0  0  0
 20 21  2  0  0  0
 20107  1  0  0  0
 21 23  1  0  0  0
 22 28  1  0  0  0
 22 32  2  0  0  0
 26 27  1  0  0  0
 28108  1  0  0  0
 28109  1  0  0  0
 29110  1  0  0  0
 29111  1  0  0  0
 33 34  1  0  0  0
 33 66  1  0  0  0
 33 70  2  0  0  0
 34 36  1  0  0  0
 34 59  1  0  0  0
 34112  1  0  0  0
 35 44  2  0  0  0
 35 45  1  0  0  0
 35 68  1  0  0  0
 36 56  1  0  0  0
 36113  1  0  0  0
 37 39  1  0  0  0
 37 47  1  0  0  0
 37 66  1  0  0  0
 37114  1  0  0  0
 38 43  2  0  0  0
 38 46  1  0  0  0
 38 47  1  0  0  0
 39 64  1  0  0  0
 39 67  2  0  0  0
 40 52  1  0  0  0
 40 53  2  0  0  0
 40 58  1  0  0  0
 41115  1  0  0  0
 41116  1  0  0  0
 41117  1  0  0  0
 41 48  1  0  0  0
 42 43  1  0  0  0
 42 66  1  0  0  0
 42118  1  0  0  0
 42119  1  0  0  0
 43 44  1  0  0  0
 44120  1  0  0  0
 45 46  2  0  0  0
 45121  1  0  0  0
 46122  1  0  0  0
 47123  1  0  0  0
 47124  1  0  0  0
 48 56  1  0  0  0
 48 65  1  0  0  0
 48125  1  0  0  0
 49 50  1  0  0  0
 49 53  1  0  0  0
 49 64  1  0  0  0
 49126  1  0  0  0
 50 51  1  0  0  0
 50127  1  0  0  0
 50128  1  0  0  0
 51 52  1  0  0  0
 51129  1  0  0  0
 51130  1  0  0  0
 52131  1  0  0  0
 52132  1  0  0  0
 53 54  1  0  0  0
 54 55  2  0  0  0
 54133  1  0  0  0
 55 57  1  0  0  0
 55134  1  0  0  0
 56 69  2  0  0  0
 57 58  2  0  0  0
 57135  1  0  0  0
 58136  1  0  0  0
 59 60  1  0  0  0
 59 61  1  0  0  0
 59 62  1  0  0  0
 60137  1  0  0  0
 60138  1  0  0  0
 60139  1  0  0  0
 61140  1  0  0  0
 61141  1  0  0  0
 61142  1  0  0  0
 62143  1  0  0  0
 62144  1  0  0  0
 62145  1  0  0  0
 63 65  1  0  0  0
 63146  1  0  0  0
 63147  1  0  0  0
 63148  1  0  0  0
 64149  1  0  0  0
 65150  1  0  0  0
 68 89  1  0  0  0
 71 72  1  0  0  0
 71 73  1  0  0  0
 71151  1  0  0  0
 71152  1  0  0  0
 72 74  1  0  0  0
 72153  1  0  0  0
 72154  1  0  0  0
 73 75  1  0  0  0
 73155  1  0  0  0
 73156  1  0  0  0
 74 79  1  0  0  0
 74157  1  0  0  0
 74158  1  0  0  0
 75 79  1  0  0  0
 75159  1  0  0  0
 75160  1  0  0  0
 76 77  1  0  0  0
 76161  1  0  0  0
 76162  1  0  0  0
 76 80  1  0  0  0
 77 82  1  0  0  0
 77163  1  0  0  0
 77164  1  0  0  0
 78 81  1  0  0  0
 78 82  1  0  0  0
 78165  1  0  0  0
 78166  1  0  0  0
 79 85  1  0  0  0
 79167  1  0  0  0
 80 81  1  0  0  0
 80 90  1  0  0  0
 80168  1  0  0  0
 81 83  1  0  0  0
 81169  1  0  0  0
 82 86  1  0  0  0
 82 87  1  0  0  0
 83170  1  0  0  0
 83171  1  0  0  0
 83172  1  0  0  0
 84173  1  0  0  0
 84174  1  0  0  0
 84175  1  0  0  0
 84 90  1  0  0  0
 85 88  1  0  0  0
 85176  1  0  0  0
 85177  1  0  0  0
 86 88  1  0  0  0
 86178  1  0  0  0
 86179  1  0  0  0
 87 91  1  0  0  0
 87180  1  0  0  0
 87181  1  0  0  0
 88182  1  0  0  0
 88183  1  0  0  0
 89 90  1  0  0  0
 89184  1  0  0  0
 89185  1  0  0  0
 90186  1  0  0  0
 91187  1  0  0  0
M  ISO  4   1 100  68 101  89 101  91 100
M  END
> <chiral flag>
0

> <version>
0

> <s_m_source_file>
/data/baiqing/PycharmProjects/Reinvent-master-3.2/result/LINK_invent/BTK/process_docking_weight1_custom_sum_contain_oxygen_bond_distance_aromatic_linkinvent_7_9_3/rearranged_h_0031.sdf

> <i_m_source_file_index>
16

> <r_mmod_Potential_Energy-OPLS-2005>
415.550903320312

> <r_mmod_Stretch_Energy-OPLS-2005>
180.291702270508

> <r_mmod_Bend_Energy-OPLS-2005>
276.238464355469

> <r_mmod_Torsional_Energy-OPLS-2005>
315.743530273438

> <r_mmod_Improper_Torsional_Energy-OPLS-2005>
4.09486865997314

> <r_mmod_Van_der_Waal_Energy-OPLS-2005>
115.947082519531

> <r_mmod_Electrostatic_Energy-OPLS-2005>
-402.540924072266

> <r_mmod_Solvation_Energy-OPLS-2005>
-182.491760253906

> <b_mmod_Minimization_Converged-OPLS-2005>
0

> <r_mmod_RMS_Derivative-OPLS-2005>
3.61531853675842

$$$$
16
                    3D
 Structure written by MMmdl.
156164  0  0  1  0            999 V2000
  -29.9632  -15.8483   20.6180 C   0  0  0  0  0  0
  -30.3630  -13.2924   19.6455 C   0  0  0  0  0  0
  -29.5618  -12.7628   18.4064 C   0  0  0  0  0  0
  -28.1467  -12.3238   18.8040 C   0  0  0  0  0  0
  -27.5636  -13.3087   19.8361 C   0  0  2  0  0  0
  -28.5063  -13.6421   21.0089 C   0  0  0  0  0  0
  -25.2105  -13.8244   20.5701 C   0  0  0  0  0  0
  -24.1561  -13.0384   20.9280 C   0  0  0  0  0  0
  -24.6288  -11.6897   20.8764 C   0  0  0  0  0  0
  -23.9027  -10.4259   21.0419 C   0  0  0  0  0  0
  -24.3611   -9.4188   21.9190 C   0  0  0  0  0  0
  -23.6300   -8.2217   22.0748 C   0  0  0  0  0  0
  -22.4277   -8.0255   21.3537 C   0  0  0  0  0  0
  -21.9902   -9.0217   20.4635 C   0  0  0  0  0  0
  -22.7212  -10.2100   20.3052 C   0  0  0  0  0  0
  -21.6853   -6.0727   22.5278 C   0  0  0  0  0  0
  -21.4016   -6.5633   23.8211 C   0  0  0  0  0  0
  -21.3658   -5.6786   24.9176 C   0  0  0  0  0  0
  -21.6041   -4.3047   24.7229 C   0  0  0  0  0  0
  -21.8817   -3.8139   23.4349 C   0  0  0  0  0  0
  -21.9196   -4.6957   22.3408 C   0  0  0  0  0  0
  -22.7607  -13.5131   21.1951 C   0  0  0  0  0  0
  -22.1659   -4.2138   21.0988 F   0  0  0  0  0  0
  -21.5633   -3.4534   25.7747 F   0  0  0  0  0  0
  -29.6119  -14.4157   20.4259 N   0  0  0  0  0  0
  -26.2483  -12.9535   20.3118 N   0  0  0  0  0  0
  -25.9205  -11.6617   20.5639 N   0  0  0  0  0  0
  -22.0302  -12.8113   22.0523 N   0  0  0  0  0  0
  -25.3706  -15.1986   20.4065 N   0  0  0  0  0  0
  -31.2042  -15.8606   20.4099 O   0  0  0  0  0  0
  -21.6627   -6.8865   21.4237 O   0  0  0  0  0  0
  -22.3303  -14.5446   20.6797 O   0  0  0  0  0  0
  -24.6973  -31.7512   23.3005 C   0  0  0  0  0  0
  -25.9289  -32.4516   23.9624 C   0  0  1  0  0  0
  -27.5780  -27.5238   19.0388 C   0  0  0  0  0  0
  -25.5631  -33.8526   24.2427 N   0  0  0  0  0  0
  -23.6108  -29.9840   21.6487 C   0  0  2  0  0  0
  -25.0913  -27.5082   20.0153 C   0  0  0  0  0  0
  -22.6763  -29.4026   22.6904 C   0  0  0  0  0  0
  -17.9922  -28.1444   22.8386 C   0  0  0  0  0  0
  -24.1454  -36.7226   23.2507 C   0  0  0  0  0  0
  -26.5145  -30.1552   22.3737 C   0  0  0  0  0  0
  -26.6445  -27.6627   20.6626 C   0  0  0  0  0  0
  -27.6896  -26.9743   20.2306 C   0  0  0  0  0  0
  -26.4414  -27.2007   18.2335 C   0  0  0  0  0  0
  -25.1359  -27.1251   18.7352 C   0  0  0  0  0  0
  -23.6759  -28.5635   20.4692 C   0  0  0  0  0  0
  -25.4083  -36.2996   24.0195 C   0  0  1  0  0  0
  -20.5251  -28.3620   23.1521 C   0  0  2  0  0  0
  -20.6206  -26.9311   22.5725 C   0  0  0  0  0  0
  -19.5481  -26.6393   21.5224 C   0  0  0  0  0  0
  -18.1627  -26.7974   22.1529 C   0  0  0  0  0  0
  -19.1101  -28.8915   23.2829 C   0  0  0  0  0  0
  -18.9106  -30.1500   23.8872 C   0  0  0  0  0  0
  -17.6130  -30.6635   24.0566 C   0  0  0  0  0  0
  -25.8971  -34.9272   23.5129 C   0  0  0  0  0  0
  -16.5023  -29.9145   23.6303 C   0  0  0  0  0  0
  -16.6932  -28.6584   23.0257 C   0  0  0  0  0  0
  -26.4154  -31.7447   25.3048 C   0  0  0  0  0  0
  -25.2494  -31.5888   26.2931 C   0  0  0  0  0  0
  -27.0334  -30.3222   25.2935 C   0  0  0  0  0  0
  -27.5476  -32.6050   25.9089 C   0  0  0  0  0  0
  -27.5517  -37.1752   24.8444 C   0  0  0  0  0  0
  -21.3795  -29.2837   22.4095 N   0  0  0  0  0  0
  -26.4320  -37.3643   23.9274 N   0  0  0  0  0  0
  -24.9129  -30.7077   22.4584 N   0  0  0  0  0  0
  -23.1746  -28.8916   23.6881 O   0  0  0  0  0  0
  -28.0569  -28.8102   19.1386 O   0  0  0  0  0  0
  -26.5697  -34.8601   22.4797 O   0  0  0  0  0  0
  -23.5618  -32.1527   23.5920 O   0  0  0  0  0  0
  -26.7948  -27.9135   23.0927 C   0  0  0  0  0  0
  -28.5169  -29.2973   21.2847 C   0  0  0  0  0  0
  -25.3963  -28.2143   22.3128 C   0  0  0  0  0  0
  -27.5239  -29.7504   20.1312 C   0  0  0  0  0  0
  -28.2058  -28.3985   22.5634 C   0  0  0  0  0  0
  -25.8455  -29.6713   20.3984 C   0  0  0  0  0  0
  -25.4100  -26.1715   22.3726 C   0  0  0  0  0  0
  -26.2852  -24.4064   21.6502 C   0  0  0  0  0  0
  -27.2592  -22.5952   21.9345 C   0  0  0  0  0  0
  -27.6591  -20.6847   21.2164 C   0  0  0  0  0  0
  -28.8564  -18.9933   21.3151 C   0  0  0  0  0  0
  -29.0365  -17.1649   20.8844 N   0  0  0  0  0  0
  -29.5644  -27.9063   23.5027 Cl  0  0  0  0  0  0
  -24.9964  -30.7551   19.2916 Cl  0  0  0  0  0  0
  -31.3286  -13.6613   19.2973 H   0  0  0  0  0  0
  -30.6117  -12.4619   20.3093 H   0  0  0  0  0  0
  -30.0923  -11.9424   17.9233 H   0  0  0  0  0  0
  -29.4917  -13.5609   17.6678 H   0  0  0  0  0  0
  -28.2056  -11.3282   19.2440 H   0  0  0  0  0  0
  -27.5018  -12.2403   17.9296 H   0  0  0  0  0  0
  -27.4296  -14.2303   19.2680 H   0  0  0  0  0  0
  -28.8311  -12.7500   21.5472 H   0  0  0  0  0  0
  -27.9984  -14.2710   21.7430 H   0  0  0  0  0  0
  -25.2757   -9.5673   22.4762 H   0  0  0  0  0  0
  -24.0005   -7.4606   22.7469 H   0  0  0  0  0  0
  -21.0832   -8.8739   19.8946 H   0  0  0  0  0  0
  -22.3673  -10.9648   19.6164 H   0  0  0  0  0  0
  -21.1998   -7.6139   23.9714 H   0  0  0  0  0  0
  -21.1485   -6.0517   25.9080 H   0  0  0  0  0  0
  -22.0600   -2.7600   23.2855 H   0  0  0  0  0  0
  -22.3968  -11.9789   22.4896 H   0  0  0  0  0  0
  -21.0916  -13.1110   22.2750 H   0  0  0  0  0  0
  -24.5687  -15.8184   20.4465 H   0  0  0  0  0  0
  -26.1549  -15.6051   19.9147 H   0  0  0  0  0  0
  -26.7757  -32.5279   23.2875 H   0  0  0  0  0  0
  -24.9708  -34.0041   25.0430 H   0  0  0  0  0  0
  -23.0524  -30.7978   21.1814 H   0  0  0  0  0  0
  -23.3688  -35.9594   23.3232 H   0  0  0  0  0  0
  -24.3547  -36.8764   22.1914 H   0  0  0  0  0  0
  -23.7268  -37.6455   23.6503 H   0  0  0  0  0  0
  -26.8684  -31.0804   21.8932 H   0  0  0  0  0  0
  -27.2392  -30.4053   23.0987 H   0  0  0  0  0  0
  -28.6737  -26.9930   20.6732 H   0  0  0  0  0  0
  -26.5183  -27.3956   17.1749 H   0  0  0  0  0  0
  -24.2761  -27.1287   18.0765 H   0  0  0  0  0  0
  -23.2159  -28.8821   19.5344 H   0  0  0  0  0  0
  -22.9463  -27.8243   20.7862 H   0  0  0  0  0  0
  -25.1224  -36.1937   25.0688 H   0  0  0  0  0  0
  -20.8713  -28.3099   24.1864 H   0  0  0  0  0  0
  -20.4684  -26.2287   23.3929 H   0  0  0  0  0  0
  -21.6152  -26.7031   22.1961 H   0  0  0  0  0  0
  -19.6694  -25.6308   21.1247 H   0  0  0  0  0  0
  -19.6589  -27.3257   20.6815 H   0  0  0  0  0  0
  -17.3929  -26.6701   21.3905 H   0  0  0  0  0  0
  -18.0036  -26.0126   22.8935 H   0  0  0  0  0  0
  -19.7577  -30.7272   24.2322 H   0  0  0  0  0  0
  -17.4663  -31.6302   24.5198 H   0  0  0  0  0  0
  -15.5019  -30.3060   23.7599 H   0  0  0  0  0  0
  -15.8325  -28.0927   22.6943 H   0  0  0  0  0  0
  -24.5406  -30.8212   25.9786 H   0  0  0  0  0  0
  -24.6908  -32.5154   26.4063 H   0  0  0  0  0  0
  -25.5824  -31.3191   27.2940 H   0  0  0  0  0  0
  -26.3637  -29.5663   24.8926 H   0  0  0  0  0  0
  -27.1801  -29.9896   26.3245 H   0  0  0  0  0  0
  -28.0504  -30.2680   24.8990 H   0  0  0  0  0  0
  -27.2017  -33.5972   26.1999 H   0  0  0  0  0  0
  -28.3671  -32.7510   25.2037 H   0  0  0  0  0  0
  -27.9719  -32.1720   26.8143 H   0  0  0  0  0  0
  -28.2594  -37.9967   24.7371 H   0  0  0  0  0  0
  -28.0955  -36.2502   24.6494 H   0  0  0  0  0  0
  -27.2177  -37.1612   25.8822 H   0  0  0  0  0  0
  -21.0107  -29.6914   21.5603 H   0  0  0  0  0  0
  -26.0191  -38.2748   24.1088 H   0  0  0  0  0  0
  -26.8159  -27.2552   23.9496 H   0  0  0  0  0  0
  -29.5676  -29.4042   21.0542 H   0  0  0  0  0  0
  -24.3994  -26.0232   21.9844 H   0  0  0  0  0  0
  -25.2383  -25.9429   23.4243 H   0  0  0  0  0  0
  -26.6416  -24.6829   20.6603 H   0  0  0  0  0  0
  -25.3308  -23.9411   21.4072 H   0  0  0  0  0  0
  -26.9004  -22.3528   22.9345 H   0  0  0  0  0  0
  -28.2757  -22.9421   22.1287 H   0  0  0  0  0  0
  -27.7169  -20.8940   20.1485 H   0  0  0  0  0  0
  -26.6743  -20.2290   21.3276 H   0  0  0  0  0  0
  -28.9968  -18.9151   22.3944 H   0  0  0  0  0  0
  -29.8243  -19.3743   20.9791 H   0  0  0  0  0  0
  -28.0981  -16.7897   20.8974 H   0  0  0  0  0  0
  1 25  1  0  0  0
  1 30  2  0  0  0
  1 82  1  0  0  0
  2  3  1  0  0  0
  2 25  1  0  0  0
  2 85  1  0  0  0
  2 86  1  0  0  0
  3  4  1  0  0  0
  3 87  1  0  0  0
  3 88  1  0  0  0
  4  5  1  0  0  0
  4 89  1  0  0  0
  4 90  1  0  0  0
  5  6  1  0  0  0
  5 26  1  0  0  0
  5 91  1  0  0  0
  6 25  1  0  0  0
  6 92  1  0  0  0
  6 93  1  0  0  0
  7  8  2  0  0  0
  7 26  1  0  0  0
  7 29  1  0  0  0
  8  9  1  0  0  0
  8 22  1  0  0  0
  9 10  1  0  0  0
  9 27  2  0  0  0
 10 11  2  0  0  0
 10 15  1  0  0  0
 11 12  1  0  0  0
 11 94  1  0  0  0
 12 13  2  0  0  0
 12 95  1  0  0  0
 13 14  1  0  0  0
 13 31  1  0  0  0
 14 15  2  0  0  0
 14 96  1  0  0  0
 15 97  1  0  0  0
 16 17  2  0  0  0
 16 21  1  0  0  0
 16 31  1  0  0  0
 17 18  1  0  0  0
 17 98  1  0  0  0
 18 19  2  0  0  0
 18 99  1  0  0  0
 19 20  1  0  0  0
 19 24  1  0  0  0
 20 21  2  0  0  0
 20100  1  0  0  0
 21 23  1  0  0  0
 22 28  1  0  0  0
 22 32  2  0  0  0
 26 27  1  0  0  0
 28101  1  0  0  0
 28102  1  0  0  0
 29103  1  0  0  0
 29104  1  0  0  0
 33 34  1  0  0  0
 33 66  1  0  0  0
 33 70  2  0  0  0
 34 36  1  0  0  0
 34 59  1  0  0  0
 34105  1  0  0  0
 35 44  2  0  0  0
 35 45  1  0  0  0
 35 68  1  0  0  0
 36 56  1  0  0  0
 36106  1  0  0  0
 37 39  1  0  0  0
 37 47  1  0  0  0
 37 66  1  0  0  0
 37107  1  0  0  0
 38 43  2  0  0  0
 38 46  1  0  0  0
 38 47  1  0  0  0
 39 64  1  0  0  0
 39 67  2  0  0  0
 40 52  1  0  0  0
 40 53  2  0  0  0
 40 58  1  0  0  0
 41108  1  0  0  0
 41109  1  0  0  0
 41110  1  0  0  0
 41 48  1  0  0  0
 42 43  1  0  0  0
 42 66  1  0  0  0
 42111  1  0  0  0
 42112  1  0  0  0
 43 44  1  0  0  0
 44113  1  0  0  0
 45 46  2  0  0  0
 45114  1  0  0  0
 46115  1  0  0  0
 47116  1  0  0  0
 47117  1  0  0  0
 48 56  1  0  0  0
 48 65  1  0  0  0
 48118  1  0  0  0
 49 50  1  0  0  0
 49 53  1  0  0  0
 49 64  1  0  0  0
 49119  1  0  0  0
 50 51  1  0  0  0
 50120  1  0  0  0
 50121  1  0  0  0
 51 52  1  0  0  0
 51122  1  0  0  0
 51123  1  0  0  0
 52124  1  0  0  0
 52125  1  0  0  0
 53 54  1  0  0  0
 54 55  2  0  0  0
 54126  1  0  0  0
 55 57  1  0  0  0
 55127  1  0  0  0
 56 69  2  0  0  0
 57 58  2  0  0  0
 57128  1  0  0  0
 58129  1  0  0  0
 59 60  1  0  0  0
 59 61  1  0  0  0
 59 62  1  0  0  0
 60130  1  0  0  0
 60131  1  0  0  0
 60132  1  0  0  0
 61133  1  0  0  0
 61134  1  0  0  0
 61135  1  0  0  0
 62136  1  0  0  0
 62137  1  0  0  0
 62138  1  0  0  0
 63 65  1  0  0  0
 63139  1  0  0  0
 63140  1  0  0  0
 63141  1  0  0  0
 64142  1  0  0  0
 65143  1  0  0  0
 68 74  1  0  0  0
 71 73  2  0  0  0
 71 75  1  0  0  0
 71144  1  0  0  0
 72 74  1  0  0  0
 72 75  2  0  0  0
 72145  1  0  0  0
 73 76  1  0  0  0
 73 77  1  0  0  0
 74 76  2  0  0  0
 75 83  1  0  0  0
 76 84  1  0  0  0
 77 78  1  0  0  0
 77146  1  0  0  0
 77147  1  0  0  0
 78 79  1  0  0  0
 78148  1  0  0  0
 78149  1  0  0  0
 79 80  1  0  0  0
 79150  1  0  0  0
 79151  1  0  0  0
 80 81  1  0  0  0
 80152  1  0  0  0
 80153  1  0  0  0
 81 82  1  0  0  0
 81154  1  0  0  0
 81155  1  0  0  0
 82156  1  0  0  0
M  ISO  4   1 100  68 101  74 101  82 100
M  END
> <chiral flag>
0

> <version>
0

> <s_m_source_file>
/data/baiqing/PycharmProjects/Reinvent-master-3.2/result/LINK_invent/BTK/process_docking_weight1_custom_sum_contain_oxygen_bond_distance_aromatic_linkinvent_7_9_3/rearranged_h_0031.sdf

> <i_m_source_file_index>
17

> <r_mmod_Potential_Energy-OPLS-2005>
16952.380859375

> <r_mmod_Stretch_Energy-OPLS-2005>
8620.896484375

> <r_mmod_Bend_Energy-OPLS-2005>
1488.1083984375

> <r_mmod_Torsional_Energy-OPLS-2005>
721.835815429688

> <r_mmod_Improper_Torsional_Energy-OPLS-2005>
105.671119689941

> <r_mmod_Van_der_Waal_Energy-OPLS-2005>
3309.62915039062

> <r_mmod_Electrostatic_Energy-OPLS-2005>
-352.653686523438

> <r_mmod_Solvation_Energy-OPLS-2005>
-200.877777099609

> <b_mmod_Minimization_Converged-OPLS-2005>
0

> <r_mmod_RMS_Derivative-OPLS-2005>
9.38379096984863

$$$$
17
                    3D
 Structure written by MMmdl.
156164  0  0  1  0            999 V2000
  -30.5426  -14.9669   20.4124 C   0  0  0  0  0  0
  -30.4336  -12.5966   19.5118 C   0  0  0  0  0  0
  -29.5257  -12.5516   18.2592 C   0  0  0  0  0  0
  -28.0590  -12.3287   18.6732 C   0  0  0  0  0  0
  -27.6279  -13.2578   19.8396 C   0  0  2  0  0  0
  -28.6637  -13.2991   20.9816 C   0  0  0  0  0  0
  -25.2431  -13.8219   20.5719 C   0  0  0  0  0  0
  -24.1757  -13.0433   20.9228 C   0  0  0  0  0  0
  -24.6371  -11.6921   20.8700 C   0  0  0  0  0  0
  -23.9058  -10.4292   21.0377 C   0  0  0  0  0  0
  -24.3617   -9.4207   21.9159 C   0  0  0  0  0  0
  -23.6289   -8.2239   22.0733 C   0  0  0  0  0  0
  -22.4254   -8.0277   21.3554 C   0  0  0  0  0  0
  -21.9889   -9.0250   20.4636 C   0  0  0  0  0  0
  -22.7231  -10.2122   20.3017 C   0  0  0  0  0  0
  -21.6865   -6.0696   22.5290 C   0  0  0  0  0  0
  -21.4043   -6.5609   23.8225 C   0  0  0  0  0  0
  -21.3647   -5.6769   24.9195 C   0  0  0  0  0  0
  -21.6024   -4.3027   24.7259 C   0  0  0  0  0  0
  -21.8817   -3.8111   23.4385 C   0  0  0  0  0  0
  -21.9210   -4.6920   22.3433 C   0  0  0  0  0  0
  -22.7775  -13.5191   21.1910 C   0  0  0  0  0  0
  -22.1685   -4.2095   21.1020 F   0  0  0  0  0  0
  -21.5601   -3.4522   25.7779 F   0  0  0  0  0  0
  -29.9470  -13.7038   20.3911 N   0  0  0  0  0  0
  -26.2859  -12.9475   20.3229 N   0  0  0  0  0  0
  -25.9298  -11.6587   20.5649 N   0  0  0  0  0  0
  -22.0418  -12.8181   22.0465 N   0  0  0  0  0  0
  -25.4069  -15.1943   20.4169 N   0  0  0  0  0  0
  -31.7378  -15.0246   20.1050 O   0  0  0  0  0  0
  -21.6631   -6.8853   21.4254 O   0  0  0  0  0  0
  -22.3474  -14.5511   20.6778 O   0  0  0  0  0  0
  -24.6459  -31.8416   23.1843 C   0  0  0  0  0  0
  -25.9240  -32.4678   23.8247 C   0  0  1  0  0  0
  -27.2211  -27.1088   20.1503 C   0  0  0  0  0  0
  -25.5959  -33.8470   24.2159 N   0  0  0  0  0  0
  -23.4490  -30.4622   21.5310 C   0  0  2  0  0  0
  -24.9008  -28.8840   20.1110 C   0  0  0  0  0  0
  -22.7577  -29.4548   22.4855 C   0  0  0  0  0  0
  -18.0333  -28.1414   22.8502 C   0  0  0  0  0  0
  -24.1486  -36.7259   23.2641 C   0  0  0  0  0  0
  -26.0064  -30.7079   21.3847 C   0  0  0  0  0  0
  -26.0794  -29.3143   20.7322 C   0  0  0  0  0  0
  -27.2406  -28.4435   20.7332 C   0  0  0  0  0  0
  -26.0167  -26.7919   19.4843 C   0  0  0  0  0  0
  -24.8841  -27.6366   19.4714 C   0  0  0  0  0  0
  -23.6772  -29.7885   20.1526 C   0  0  0  0  0  0
  -25.4116  -36.3007   24.0310 C   0  0  1  0  0  0
  -20.5944  -28.3741   23.1262 C   0  0  2  0  0  0
  -20.6789  -26.9449   22.5424 C   0  0  0  0  0  0
  -19.5747  -26.6399   21.5255 C   0  0  0  0  0  0
  -18.1940  -26.7955   22.1671 C   0  0  0  0  0  0
  -19.1585  -28.8907   23.2864 C   0  0  0  0  0  0
  -18.9479  -30.1507   23.8868 C   0  0  0  0  0  0
  -17.6459  -30.6583   24.0602 C   0  0  0  0  0  0
  -25.9077  -34.9397   23.5047 C   0  0  0  0  0  0
  -16.5365  -29.9081   23.6356 C   0  0  0  0  0  0
  -16.7314  -28.6529   23.0340 C   0  0  0  0  0  0
  -26.4523  -31.6538   25.0688 C   0  0  0  0  0  0
  -25.3684  -31.3785   26.1380 C   0  0  0  0  0  0
  -27.0380  -30.2916   24.6294 C   0  0  0  0  0  0
  -27.6025  -32.4317   25.7494 C   0  0  0  0  0  0
  -27.5573  -37.1784   24.8463 C   0  0  0  0  0  0
  -21.4270  -29.3050   22.3601 N   0  0  0  0  0  0
  -26.4269  -37.3736   23.9411 N   0  0  0  0  0  0
  -24.7211  -31.0241   22.0899 N   0  0  0  0  0  0
  -23.4236  -28.8116   23.3005 O   0  0  0  0  0  0
  -28.2730  -26.1049   20.1677 O   0  0  0  0  0  0
  -26.5675  -34.8916   22.4631 O   0  0  0  0  0  0
  -23.5571  -32.1327   23.7050 O   0  0  0  0  0  0
  -30.4367  -20.9017   19.2245 C   0  0  0  0  0  0
  -29.9185  -23.3399   19.1278 C   0  0  0  0  0  0
  -28.6592  -21.8471   20.5631 C   0  0  0  0  0  0
  -30.6668  -22.2042   18.7006 C   0  0  0  0  0  0
  -29.4228  -20.6287   20.1697 C   0  0  0  0  0  0
  -28.8759  -23.2458   20.0773 C   0  0  0  0  0  0
  -33.1236  -22.6805   18.1255 C   0  0  0  0  0  0
  -31.7120  -22.3725   17.6037 C   0  0  0  0  0  0
  -29.2150  -19.0615   20.6910 C   0  0  0  0  0  0
  -27.9607  -24.5875   20.4416 C   0  0  0  0  0  0
  -30.0655  -17.6839   20.1678 C   0  0  0  0  0  0
  -29.7771  -16.1660   20.5591 N   0  0  0  0  0  0
  -31.4736  -12.7347   19.2149 H   0  0  0  0  0  0
  -30.4054  -11.6450   20.0451 H   0  0  0  0  0  0
  -29.8530  -11.7691   17.5731 H   0  0  0  0  0  0
  -29.6223  -13.4906   17.7089 H   0  0  0  0  0  0
  -27.9578  -11.2875   18.9829 H   0  0  0  0  0  0
  -27.3958  -12.4579   17.8147 H   0  0  0  0  0  0
  -27.5900  -14.2593   19.4103 H   0  0  0  0  0  0
  -28.7411  -12.3311   21.4772 H   0  0  0  0  0  0
  -28.3518  -14.0108   21.7484 H   0  0  0  0  0  0
  -25.2758   -9.5674   22.4744 H   0  0  0  0  0  0
  -24.0005   -7.4593   22.7411 H   0  0  0  0  0  0
  -21.0825   -8.8764   19.8920 H   0  0  0  0  0  0
  -22.3706  -10.9655   19.6100 H   0  0  0  0  0  0
  -21.2077   -7.6121   23.9735 H   0  0  0  0  0  0
  -21.1442   -6.0490   25.9099 H   0  0  0  0  0  0
  -22.0599   -2.7563   23.2915 H   0  0  0  0  0  0
  -22.4057  -11.9917   22.4977 H   0  0  0  0  0  0
  -21.0982  -13.1121   22.2552 H   0  0  0  0  0  0
  -24.6292  -15.8356   20.5214 H   0  0  0  0  0  0
  -26.2473  -15.6442   20.0779 H   0  0  0  0  0  0
  -26.7301  -32.5290   23.0974 H   0  0  0  0  0  0
  -25.0014  -33.9554   25.0248 H   0  0  0  0  0  0
  -22.7544  -31.2896   21.3781 H   0  0  0  0  0  0
  -23.3722  -35.9621   23.3278 H   0  0  0  0  0  0
  -24.3581  -36.8905   22.2059 H   0  0  0  0  0  0
  -23.7285  -37.6460   23.6699 H   0  0  0  0  0  0
  -26.1647  -31.4568   20.6075 H   0  0  0  0  0  0
  -26.8731  -30.7646   22.0289 H   0  0  0  0  0  0
  -28.1395  -28.7708   21.2347 H   0  0  0  0  0  0
  -25.9185  -25.8519   18.9620 H   0  0  0  0  0  0
  -23.9900  -27.3077   18.9605 H   0  0  0  0  0  0
  -23.8123  -30.5606   19.3946 H   0  0  0  0  0  0
  -22.7891  -29.2323   19.8472 H   0  0  0  0  0  0
  -25.1308  -36.1821   25.0799 H   0  0  0  0  0  0
  -21.0078  -28.3333   24.1377 H   0  0  0  0  0  0
  -20.5723  -26.2356   23.3630 H   0  0  0  0  0  0
  -21.6647  -26.7452   22.1216 H   0  0  0  0  0  0
  -19.6885  -25.6313   21.1273 H   0  0  0  0  0  0
  -19.6655  -27.3213   20.6781 H   0  0  0  0  0  0
  -17.4217  -26.6755   21.4052 H   0  0  0  0  0  0
  -18.0300  -26.0079   22.9043 H   0  0  0  0  0  0
  -19.7935  -30.7378   24.2165 H   0  0  0  0  0  0
  -17.4999  -31.6262   24.5221 H   0  0  0  0  0  0
  -15.5362  -30.2967   23.7663 H   0  0  0  0  0  0
  -15.8728  -28.0856   22.7005 H   0  0  0  0  0  0
  -24.5859  -30.7126   25.7719 H   0  0  0  0  0  0
  -24.8884  -32.2986   26.4704 H   0  0  0  0  0  0
  -25.7946  -30.9032   27.0228 H   0  0  0  0  0  0
  -26.3005  -29.6622   24.1290 H   0  0  0  0  0  0
  -27.3940  -29.7244   25.4904 H   0  0  0  0  0  0
  -27.8943  -30.4085   23.9655 H   0  0  0  0  0  0
  -27.2581  -33.3634   26.2008 H   0  0  0  0  0  0
  -28.3885  -32.6850   25.0362 H   0  0  0  0  0  0
  -28.0637  -31.8486   26.5470 H   0  0  0  0  0  0
  -28.2580  -38.0082   24.7493 H   0  0  0  0  0  0
  -28.1070  -36.2618   24.6290 H   0  0  0  0  0  0
  -27.2310  -37.1456   25.8868 H   0  0  0  0  0  0
  -20.9468  -29.8763   21.6784 H   0  0  0  0  0  0
  -26.0122  -38.2809   24.1358 H   0  0  0  0  0  0
  -31.0543  -20.0884   18.8699 H   0  0  0  0  0  0
  -30.1398  -24.3038   18.6865 H   0  0  0  0  0  0
  -27.8475  -21.7037   21.2622 H   0  0  0  0  0  0
  -33.8295  -22.7990   17.3001 H   0  0  0  0  0  0
  -33.4990  -21.8772   18.7591 H   0  0  0  0  0  0
  -33.1429  -23.6035   18.7071 H   0  0  0  0  0  0
  -31.3925  -23.1642   16.9230 H   0  0  0  0  0  0
  -31.7405  -21.4655   16.9962 H   0  0  0  0  0  0
  -28.1512  -18.8558   20.5667 H   0  0  0  0  0  0
  -29.3581  -19.1068   21.7725 H   0  0  0  0  0  0
  -27.7863  -24.5309   21.5168 H   0  0  0  0  0  0
  -26.9938  -24.3487   20.0086 H   0  0  0  0  0  0
  -31.1234  -17.8584   20.3775 H   0  0  0  0  0  0
  -29.9991  -17.6984   19.0795 H   0  0  0  0  0  0
  -28.8237  -15.9931   20.8449 H   0  0  0  0  0  0
  1 25  1  0  0  0
  1 30  2  0  0  0
  1 82  1  0  0  0
  2  3  1  0  0  0
  2 25  1  0  0  0
  2 83  1  0  0  0
  2 84  1  0  0  0
  3  4  1  0  0  0
  3 85  1  0  0  0
  3 86  1  0  0  0
  4  5  1  0  0  0
  4 87  1  0  0  0
  4 88  1  0  0  0
  5  6  1  0  0  0
  5 26  1  0  0  0
  5 89  1  0  0  0
  6 25  1  0  0  0
  6 90  1  0  0  0
  6 91  1  0  0  0
  7  8  2  0  0  0
  7 26  1  0  0  0
  7 29  1  0  0  0
  8  9  1  0  0  0
  8 22  1  0  0  0
  9 10  1  0  0  0
  9 27  2  0  0  0
 10 11  2  0  0  0
 10 15  1  0  0  0
 11 12  1  0  0  0
 11 92  1  0  0  0
 12 13  2  0  0  0
 12 93  1  0  0  0
 13 14  1  0  0  0
 13 31  1  0  0  0
 14 15  2  0  0  0
 14 94  1  0  0  0
 15 95  1  0  0  0
 16 17  2  0  0  0
 16 21  1  0  0  0
 16 31  1  0  0  0
 17 18  1  0  0  0
 17 96  1  0  0  0
 18 19  2  0  0  0
 18 97  1  0  0  0
 19 20  1  0  0  0
 19 24  1  0  0  0
 20 21  2  0  0  0
 20 98  1  0  0  0
 21 23  1  0  0  0
 22 28  1  0  0  0
 22 32  2  0  0  0
 26 27  1  0  0  0
 28 99  1  0  0  0
 28100  1  0  0  0
 29101  1  0  0  0
 29102  1  0  0  0
 33 34  1  0  0  0
 33 66  1  0  0  0
 33 70  2  0  0  0
 34 36  1  0  0  0
 34 59  1  0  0  0
 34103  1  0  0  0
 35 44  2  0  0  0
 35 45  1  0  0  0
 35 68  1  0  0  0
 36 56  1  0  0  0
 36104  1  0  0  0
 37 39  1  0  0  0
 37 47  1  0  0  0
 37 66  1  0  0  0
 37105  1  0  0  0
 38 43  2  0  0  0
 38 46  1  0  0  0
 38 47  1  0  0  0
 39 64  1  0  0  0
 39 67  2  0  0  0
 40 52  1  0  0  0
 40 53  2  0  0  0
 40 58  1  0  0  0
 41106  1  0  0  0
 41107  1  0  0  0
 41108  1  0  0  0
 41 48  1  0  0  0
 42 43  1  0  0  0
 42 66  1  0  0  0
 42109  1  0  0  0
 42110  1  0  0  0
 43 44  1  0  0  0
 44111  1  0  0  0
 45 46  2  0  0  0
 45112  1  0  0  0
 46113  1  0  0  0
 47114  1  0  0  0
 47115  1  0  0  0
 48 56  1  0  0  0
 48 65  1  0  0  0
 48116  1  0  0  0
 49 50  1  0  0  0
 49 53  1  0  0  0
 49 64  1  0  0  0
 49117  1  0  0  0
 50 51  1  0  0  0
 50118  1  0  0  0
 50119  1  0  0  0
 51 52  1  0  0  0
 51120  1  0  0  0
 51121  1  0  0  0
 52122  1  0  0  0
 52123  1  0  0  0
 53 54  1  0  0  0
 54 55  2  0  0  0
 54124  1  0  0  0
 55 57  1  0  0  0
 55125  1  0  0  0
 56 69  2  0  0  0
 57 58  2  0  0  0
 57126  1  0  0  0
 58127  1  0  0  0
 59 60  1  0  0  0
 59 61  1  0  0  0
 59 62  1  0  0  0
 60128  1  0  0  0
 60129  1  0  0  0
 60130  1  0  0  0
 61131  1  0  0  0
 61132  1  0  0  0
 61133  1  0  0  0
 62134  1  0  0  0
 62135  1  0  0  0
 62136  1  0  0  0
 63 65  1  0  0  0
 63137  1  0  0  0
 63138  1  0  0  0
 63139  1  0  0  0
 64140  1  0  0  0
 65141  1  0  0  0
 68 80  1  0  0  0
 71 74  2  0  0  0
 71 75  1  0  0  0
 71142  1  0  0  0
 72 74  1  0  0  0
 72 76  2  0  0  0
 72143  1  0  0  0
 73 75  2  0  0  0
 73 76  1  0  0  0
 73144  1  0  0  0
 74 78  1  0  0  0
 75 79  1  0  0  0
 76 80  1  0  0  0
 77 78  1  0  0  0
 77145  1  0  0  0
 77146  1  0  0  0
 77147  1  0  0  0
 78148  1  0  0  0
 78149  1  0  0  0
 79 81  1  0  0  0
 79150  1  0  0  0
 79151  1  0  0  0
 80152  1  0  0  0
 80153  1  0  0  0
 81 82  1  0  0  0
 81154  1  0  0  0
 81155  1  0  0  0
 82156  1  0  0  0
M  ISO  4   1 100  68 101  80 101  82 100
M  END
> <chiral flag>
0

> <version>
0

> <s_m_source_file>
/data/baiqing/PycharmProjects/Reinvent-master-3.2/result/LINK_invent/BTK/process_docking_weight1_custom_sum_contain_oxygen_bond_distance_aromatic_linkinvent_7_9_3/rearranged_h_0031.sdf

> <i_m_source_file_index>
18

> <r_mmod_Potential_Energy-OPLS-2005>
519.333129882812

> <r_mmod_Stretch_Energy-OPLS-2005>
287.220764160156

> <r_mmod_Bend_Energy-OPLS-2005>
247.576217651367

> <r_mmod_Torsional_Energy-OPLS-2005>
222.086654663086

> <r_mmod_Improper_Torsional_Energy-OPLS-2005>
5.36932897567749

> <r_mmod_Van_der_Waal_Energy-OPLS-2005>
125.480567932129

> <r_mmod_Electrostatic_Energy-OPLS-2005>
-366.963317871094

> <r_mmod_Solvation_Energy-OPLS-2005>
-210.171691894531

> <b_mmod_Minimization_Converged-OPLS-2005>
0

> <r_mmod_RMS_Derivative-OPLS-2005>
4.58730888366699

$$$$
18
                    3D
 Structure written by MMmdl.
182191  0  0  1  0            999 V2000
  -30.8901  -14.1709   20.8340 C   0  0  0  0  0  0
  -30.4042  -12.2918   19.3358 C   0  0  0  0  0  0
  -29.4577  -12.5431   18.1582 C   0  0  0  0  0  0
  -27.9951  -12.3765   18.6000 C   0  0  0  0  0  0
  -27.6629  -13.2040   19.8665 C   0  0  2  0  0  0
  -28.7024  -12.9621   20.9806 C   0  0  0  0  0  0
  -25.2607  -13.8176   20.5667 C   0  0  0  0  0  0
  -24.1840  -13.0425   20.9157 C   0  0  0  0  0  0
  -24.6406  -11.6898   20.8724 C   0  0  0  0  0  0
  -23.9070  -10.4284   21.0395 C   0  0  0  0  0  0
  -24.3618   -9.4201   21.9185 C   0  0  0  0  0  0
  -23.6291   -8.2252   22.0758 C   0  0  0  0  0  0
  -22.4284   -8.0277   21.3551 C   0  0  0  0  0  0
  -21.9905   -9.0258   20.4653 C   0  0  0  0  0  0
  -22.7239  -10.2131   20.3058 C   0  0  0  0  0  0
  -21.6842   -6.0737   22.5283 C   0  0  0  0  0  0
  -21.4015   -6.5643   23.8211 C   0  0  0  0  0  0
  -21.3652   -5.6789   24.9176 C   0  0  0  0  0  0
  -21.6047   -4.3064   24.7227 C   0  0  0  0  0  0
  -21.8811   -3.8147   23.4351 C   0  0  0  0  0  0
  -21.9202   -4.6963   22.3406 C   0  0  0  0  0  0
  -22.7881  -13.5240   21.1838 C   0  0  0  0  0  0
  -22.1662   -4.2144   21.0982 F   0  0  0  0  0  0
  -21.5628   -3.4538   25.7746 F   0  0  0  0  0  0
  -30.0512  -13.1945   20.4361 N   0  0  0  0  0  0
  -26.3025  -12.9335   20.3342 N   0  0  0  0  0  0
  -25.9330  -11.6493   20.5743 N   0  0  0  0  0  0
  -22.0520  -12.8225   22.0378 N   0  0  0  0  0  0
  -25.4307  -15.1885   20.4098 N   0  0  0  0  0  0
  -31.7726  -14.6586   20.1193 O   0  0  0  0  0  0
  -21.6638   -6.8881   21.4244 O   0  0  0  0  0  0
  -22.3552  -14.5536   20.6675 O   0  0  0  0  0  0
  -24.6167  -31.8764   23.2068 C   0  0  0  0  0  0
  -25.9101  -32.4801   23.8468 C   0  0  1  0  0  0
  -27.2331  -27.4754   20.0990 C   0  0  0  0  0  0
  -25.6033  -33.8612   24.2359 N   0  0  0  0  0  0
  -23.4026  -30.4857   21.5561 C   0  0  2  0  0  0
  -24.8492  -28.9650   20.1035 C   0  0  0  0  0  0
  -22.7400  -29.4631   22.5093 C   0  0  0  0  0  0
  -18.0232  -28.1322   22.8475 C   0  0  0  0  0  0
  -24.1459  -36.7310   23.2617 C   0  0  0  0  0  0
  -25.9298  -30.8541   21.3528 C   0  0  0  0  0  0
  -26.0088  -29.4986   20.6769 C   0  0  0  0  0  0
  -27.2157  -28.7765   20.6366 C   0  0  0  0  0  0
  -26.0664  -26.9430   19.5086 C   0  0  0  0  0  0
  -24.8736  -27.6930   19.4995 C   0  0  0  0  0  0
  -23.6088  -29.8223   20.1682 C   0  0  0  0  0  0
  -25.4074  -36.3086   24.0300 C   0  0  1  0  0  0
  -20.5846  -28.3507   23.1435 C   0  0  2  0  0  0
  -20.6767  -26.9279   22.5436 C   0  0  0  0  0  0
  -19.5788  -26.6362   21.5160 C   0  0  0  0  0  0
  -18.1933  -26.7882   22.1560 C   0  0  0  0  0  0
  -19.1508  -28.8724   23.2948 C   0  0  0  0  0  0
  -18.9503  -30.1356   23.8909 C   0  0  0  0  0  0
  -17.6545  -30.6593   24.0566 C   0  0  0  0  0  0
  -25.9045  -34.9472   23.5089 C   0  0  0  0  0  0
  -16.5392  -29.9056   23.6442 C   0  0  0  0  0  0
  -16.7245  -28.6486   23.0408 C   0  0  0  0  0  0
  -26.4288  -31.6502   25.0899 C   0  0  0  0  0  0
  -25.3260  -31.3557   26.1383 C   0  0  0  0  0  0
  -27.0143  -30.2975   24.6250 C   0  0  0  0  0  0
  -27.5789  -32.4064   25.8022 C   0  0  0  0  0  0
  -27.5551  -37.1813   24.8459 C   0  0  0  0  0  0
  -21.4124  -29.2915   22.3864 N   0  0  0  0  0  0
  -26.4252  -37.3762   23.9408 N   0  0  0  0  0  0
  -24.6681  -31.0844   22.0962 N   0  0  0  0  0  0
  -23.4159  -28.8238   23.3189 O   0  0  0  0  0  0
  -28.3539  -26.7080   20.2679 O   0  0  0  0  0  0
  -26.5524  -34.8926   22.4613 O   0  0  0  0  0  0
  -23.5351  -32.1662   23.7378 O   0  0  0  0  0  0
  -32.6235  -21.1963   23.8813 C   0  0  0  0  0  0
  -32.7913  -22.4656   21.3854 C   0  0  0  0  0  0
  -32.0016  -20.6151   22.7600 C   0  0  0  0  0  0
  -33.3169  -23.1064   22.5329 C   0  0  0  0  0  0
  -32.1160  -21.2363   21.4972 C   0  0  0  0  0  0
  -33.2859  -22.4294   23.7778 C   0  0  0  0  0  0
  -29.9451  -24.2276   22.4819 C   0  0  0  0  0  0
  -29.4212  -24.7684   21.1328 C   0  0  0  0  0  0
  -29.5153  -26.6338   23.2695 C   0  0  0  0  0  0
  -30.3512  -25.3477   23.4865 C   0  0  2  0  0  0
  -28.1869  -25.6916   21.2782 C   0  0  1  0  0  0
  -28.1238  -26.2175   22.7539 C   0  0  2  0  0  0
  -31.2701  -19.3027   22.9481 C   0  0  0  0  0  0
  -33.8069  -24.5469   22.4190 C   0  0  0  0  0  0
  -31.8781  -25.5840   23.6922 C   0  0  0  0  0  0
  -32.1636  -18.1274   22.5517 C   0  0  0  0  0  0
  -31.8983  -16.8876   23.4009 C   0  0  0  0  0  0
  -32.7985  -15.7260   22.9587 C   0  0  0  0  0  0
  -32.1010  -14.3630   23.0179 C   0  0  0  0  0  0
  -30.9094  -14.2549   22.1722 N   0  0  0  0  0  0
  -32.6821  -25.5167   22.4460 N   0  3  0  0  0  0
  -27.1178  -27.1611   23.0278 O   0  0  0  0  0  0
  -31.4243  -20.5310   20.0803 Cl  0  0  0  0  0  0
  -34.0235  -23.0811   25.2002 Cl  0  0  0  0  0  0
  -31.4403  -12.4141   19.0147 H   0  0  0  0  0  0
  -30.3202  -11.2601   19.6794 H   0  0  0  0  0  0
  -29.6828  -11.8550   17.3425 H   0  0  0  0  0  0
  -29.6175  -13.5489   17.7667 H   0  0  0  0  0  0
  -27.8234  -11.3174   18.7934 H   0  0  0  0  0  0
  -27.3244  -12.6521   17.7866 H   0  0  0  0  0  0
  -27.7188  -14.2559   19.5863 H   0  0  0  0  0  0
  -28.6394  -11.9396   21.3558 H   0  0  0  0  0  0
  -28.4741  -13.6168   21.8238 H   0  0  0  0  0  0
  -25.2764   -9.5682   22.4748 H   0  0  0  0  0  0
  -23.9999   -7.4641   22.7480 H   0  0  0  0  0  0
  -21.0831   -8.8770   19.8967 H   0  0  0  0  0  0
  -22.3689  -10.9671   19.6157 H   0  0  0  0  0  0
  -21.1998   -7.6143   23.9708 H   0  0  0  0  0  0
  -21.1480   -6.0529   25.9075 H   0  0  0  0  0  0
  -22.0603   -2.7603   23.2853 H   0  0  0  0  0  0
  -22.4118  -11.9880   22.4764 H   0  0  0  0  0  0
  -21.1146  -13.1269   22.2597 H   0  0  0  0  0  0
  -24.6679  -15.8465   20.5280 H   0  0  0  0  0  0
  -26.2940  -15.6302   20.1141 H   0  0  0  0  0  0
  -26.7262  -32.5472   23.1322 H   0  0  0  0  0  0
  -25.0426  -33.9727   25.0665 H   0  0  0  0  0  0
  -22.6854  -31.2975   21.4210 H   0  0  0  0  0  0
  -23.3719  -35.9647   23.3298 H   0  0  0  0  0  0
  -24.3597  -36.8932   22.2053 H   0  0  0  0  0  0
  -23.7251  -37.6519   23.6656 H   0  0  0  0  0  0
  -26.0576  -31.6290   20.5961 H   0  0  0  0  0  0
  -26.8135  -30.8955   21.9798 H   0  0  0  0  0  0
  -28.1129  -29.1756   21.0890 H   0  0  0  0  0  0
  -26.0641  -25.9459   19.0888 H   0  0  0  0  0  0
  -23.9795  -27.2805   19.0469 H   0  0  0  0  0  0
  -23.7269  -30.6021   19.4188 H   0  0  0  0  0  0
  -22.7269  -29.2565   19.8637 H   0  0  0  0  0  0
  -25.1237  -36.1929   25.0781 H   0  0  0  0  0  0
  -20.9829  -28.2940   24.1600 H   0  0  0  0  0  0
  -20.5634  -26.1998   23.3472 H   0  0  0  0  0  0
  -21.6628  -26.7353   22.1213 H   0  0  0  0  0  0
  -19.6979  -25.6301   21.1146 H   0  0  0  0  0  0
  -19.6803  -27.3218   20.6727 H   0  0  0  0  0  0
  -17.4218  -26.6544   21.3964 H   0  0  0  0  0  0
  -18.0383  -25.9998   22.8960 H   0  0  0  0  0  0
  -19.7995  -30.7196   24.2182 H   0  0  0  0  0  0
  -17.5160  -31.6340   24.5061 H   0  0  0  0  0  0
  -15.5434  -30.2972   23.7947 H   0  0  0  0  0  0
  -15.8583  -28.0839   22.7224 H   0  0  0  0  0  0
  -24.4900  -30.7938   25.7216 H   0  0  0  0  0  0
  -24.9134  -32.2657   26.5718 H   0  0  0  0  0  0
  -25.6974  -30.7458   26.9609 H   0  0  0  0  0  0
  -27.8299  -30.4390   23.9171 H   0  0  0  0  0  0
  -26.2625  -29.6585   24.1607 H   0  0  0  0  0  0
  -27.4225  -29.7364   25.4690 H   0  0  0  0  0  0
  -27.2577  -33.3579   26.2258 H   0  0  0  0  0  0
  -28.4084  -32.6100   25.1259 H   0  0  0  0  0  0
  -27.9766  -31.8265   26.6369 H   0  0  0  0  0  0
  -28.2534  -38.0130   24.7453 H   0  0  0  0  0  0
  -28.1020  -36.2666   24.6234 H   0  0  0  0  0  0
  -27.2285  -37.1417   25.8855 H   0  0  0  0  0  0
  -20.9219  -29.8629   21.7159 H   0  0  0  0  0  0
  -26.0116  -38.2808   24.1439 H   0  0  0  0  0  0
  -32.5841  -20.6984   24.8399 H   0  0  0  0  0  0
  -32.8380  -22.9427   20.4174 H   0  0  0  0  0  0
  -30.7501  -23.5340   22.3220 H   0  0  0  0  0  0
  -29.1636  -23.5978   22.9187 H   0  0  0  0  0  0
  -29.1719  -23.9483   20.4575 H   0  0  0  0  0  0
  -30.2283  -25.3243   20.6560 H   0  0  0  0  0  0
  -29.9970  -27.2997   22.5516 H   0  0  0  0  0  0
  -29.4429  -27.1974   24.2014 H   0  0  0  0  0  0
  -30.0253  -24.9717   24.4572 H   0  0  0  0  0  0
  -27.2902  -25.1028   21.0782 H   0  0  0  0  0  0
  -27.7952  -25.3777   23.3693 H   0  0  0  0  0  0
  -30.3330  -19.2847   22.3898 H   0  0  0  0  0  0
  -30.9832  -19.2197   23.9982 H   0  0  0  0  0  0
  -34.3352  -24.6631   21.4686 H   0  0  0  0  0  0
  -34.5358  -24.7892   23.1911 H   0  0  0  0  0  0
  -32.2454  -24.8759   24.4314 H   0  0  0  0  0  0
  -32.0552  -26.5536   24.1604 H   0  0  0  0  0  0
  -33.2124  -18.3992   22.6775 H   0  0  0  0  0  0
  -32.0337  -17.9006   21.4926 H   0  0  0  0  0  0
  -30.8416  -16.6226   23.3347 H   0  0  0  0  0  0
  -32.0859  -17.1161   24.4537 H   0  0  0  0  0  0
  -33.6870  -15.7027   23.5907 H   0  0  0  0  0  0
  -33.1740  -15.8927   21.9484 H   0  0  0  0  0  0
  -31.8077  -14.1461   24.0478 H   0  0  0  0  0  0
  -32.8066  -13.5799   22.7347 H   0  0  0  0  0  0
  -30.1111  -13.8209   22.6155 H   0  0  0  0  0  0
  -32.0780  -25.3273   21.6650 H   0  0  0  0  0  0
  -33.0746  -26.4336   22.2998 H   0  0  0  0  0  0
  -27.0102  -27.6974   22.2479 H   0  0  0  0  0  0
  1 25  1  0  0  0
  1 30  2  0  0  0
  1 90  1  0  0  0
  2  3  1  0  0  0
  2 25  1  0  0  0
  2 95  1  0  0  0
  2 96  1  0  0  0
  3  4  1  0  0  0
  3 97  1  0  0  0
  3 98  1  0  0  0
  4  5  1  0  0  0
  4 99  1  0  0  0
  4100  1  0  0  0
  5  6  1  0  0  0
  5 26  1  0  0  0
  5101  1  0  0  0
  6 25  1  0  0  0
  6102  1  0  0  0
  6103  1  0  0  0
  7  8  2  0  0  0
  7 26  1  0  0  0
  7 29  1  0  0  0
  8  9  1  0  0  0
  8 22  1  0  0  0
  9 10  1  0  0  0
  9 27  2  0  0  0
 10 11  2  0  0  0
 10 15  1  0  0  0
 11 12  1  0  0  0
 11104  1  0  0  0
 12 13  2  0  0  0
 12105  1  0  0  0
 13 14  1  0  0  0
 13 31  1  0  0  0
 14 15  2  0  0  0
 14106  1  0  0  0
 15107  1  0  0  0
 16 17  2  0  0  0
 16 21  1  0  0  0
 16 31  1  0  0  0
 17 18  1  0  0  0
 17108  1  0  0  0
 18 19  2  0  0  0
 18109  1  0  0  0
 19 20  1  0  0  0
 19 24  1  0  0  0
 20 21  2  0  0  0
 20110  1  0  0  0
 21 23  1  0  0  0
 22 28  1  0  0  0
 22 32  2  0  0  0
 26 27  1  0  0  0
 28111  1  0  0  0
 28112  1  0  0  0
 29113  1  0  0  0
 29114  1  0  0  0
 33 34  1  0  0  0
 33 66  1  0  0  0
 33 70  2  0  0  0
 34 36  1  0  0  0
 34 59  1  0  0  0
 34115  1  0  0  0
 35 44  2  0  0  0
 35 45  1  0  0  0
 35 68  1  0  0  0
 36 56  1  0  0  0
 36116  1  0  0  0
 37 39  1  0  0  0
 37 47  1  0  0  0
 37 66  1  0  0  0
 37117  1  0  0  0
 38 43  2  0  0  0
 38 46  1  0  0  0
 38 47  1  0  0  0
 39 64  1  0  0  0
 39 67  2  0  0  0
 40 52  1  0  0  0
 40 53  2  0  0  0
 40 58  1  0  0  0
 41118  1  0  0  0
 41119  1  0  0  0
 41120  1  0  0  0
 41 48  1  0  0  0
 42 43  1  0  0  0
 42 66  1  0  0  0
 42121  1  0  0  0
 42122  1  0  0  0
 43 44  1  0  0  0
 44123  1  0  0  0
 45 46  2  0  0  0
 45124  1  0  0  0
 46125  1  0  0  0
 47126  1  0  0  0
 47127  1  0  0  0
 48 56  1  0  0  0
 48 65  1  0  0  0
 48128  1  0  0  0
 49 50  1  0  0  0
 49 53  1  0  0  0
 49 64  1  0  0  0
 49129  1  0  0  0
 50 51  1  0  0  0
 50130  1  0  0  0
 50131  1  0  0  0
 51 52  1  0  0  0
 51132  1  0  0  0
 51133  1  0  0  0
 52134  1  0  0  0
 52135  1  0  0  0
 53 54  1  0  0  0
 54 55  2  0  0  0
 54136  1  0  0  0
 55 57  1  0  0  0
 55137  1  0  0  0
 56 69  2  0  0  0
 57 58  2  0  0  0
 57138  1  0  0  0
 58139  1  0  0  0
 59 60  1  0  0  0
 59 61  1  0  0  0
 59 62  1  0  0  0
 60140  1  0  0  0
 60141  1  0  0  0
 60142  1  0  0  0
 61143  1  0  0  0
 61144  1  0  0  0
 61145  1  0  0  0
 62146  1  0  0  0
 62147  1  0  0  0
 62148  1  0  0  0
 63 65  1  0  0  0
 63149  1  0  0  0
 63150  1  0  0  0
 63151  1  0  0  0
 64152  1  0  0  0
 65153  1  0  0  0
 68 81  1  0  0  0
 71 73  2  0  0  0
 71 76  1  0  0  0
 71154  1  0  0  0
 72 74  1  0  0  0
 72 75  2  0  0  0
 72155  1  0  0  0
 73 75  1  0  0  0
 73 83  1  0  0  0
 74 76  2  0  0  0
 74 84  1  0  0  0
 75 93  1  0  0  0
 76 94  1  0  0  0
 77 78  1  0  0  0
 77 80  1  0  0  0
 77156  1  0  0  0
 77157  1  0  0  0
 78 81  1  0  0  0
 78158  1  0  0  0
 78159  1  0  0  0
 79 80  1  0  0  0
 79 82  1  0  0  0
 79160  1  0  0  0
 79161  1  0  0  0
 80 85  1  0  0  0
 80162  1  0  0  0
 81 82  1  0  0  0
 81163  1  0  0  0
 82 92  1  0  0  0
 82164  1  0  0  0
 83 86  1  0  0  0
 83165  1  0  0  0
 83166  1  0  0  0
 84 91  1  0  0  0
 84167  1  0  0  0
 84168  1  0  0  0
 85 91  1  0  0  0
 85169  1  0  0  0
 85170  1  0  0  0
 86 87  1  0  0  0
 86171  1  0  0  0
 86172  1  0  0  0
 87 88  1  0  0  0
 87173  1  0  0  0
 87174  1  0  0  0
 88 89  1  0  0  0
 88175  1  0  0  0
 88176  1  0  0  0
 89 90  1  0  0  0
 89177  1  0  0  0
 89178  1  0  0  0
 90179  1  0  0  0
 91180  1  0  0  0
 91181  1  0  0  0
 92182  1  0  0  0
M  CHG  1  91   1
M  ISO  4   1 100  68 101  81 101  90 100
M  END
> <chiral flag>
0

> <version>
0

> <s_m_source_file>
/data/baiqing/PycharmProjects/Reinvent-master-3.2/result/LINK_invent/BTK/process_docking_weight1_custom_sum_contain_oxygen_bond_distance_aromatic_linkinvent_7_9_3/rearranged_h_0031.sdf

> <i_m_source_file_index>
19

> <r_mmod_Potential_Energy-OPLS-2005>
-119.36328125

> <r_mmod_Stretch_Energy-OPLS-2005>
38.8148040771484

> <r_mmod_Bend_Energy-OPLS-2005>
114.721885681152

> <r_mmod_Torsional_Energy-OPLS-2005>
347.569000244141

> <r_mmod_Improper_Torsional_Energy-OPLS-2005>
11.944525718689

> <r_mmod_Van_der_Waal_Energy-OPLS-2005>
163.341369628906

> <r_mmod_Electrostatic_Energy-OPLS-2005>
-347.919006347656

> <r_mmod_Solvation_Energy-OPLS-2005>
-472.194702148438

> <b_mmod_Minimization_Converged-OPLS-2005>
0

> <r_mmod_RMS_Derivative-OPLS-2005>
6.31142282485962

$$$$
19
                    3D
 Structure written by MMmdl.
164172  0  0  1  0            999 V2000
  -30.6296  -14.6865   20.4646 C   0  0  0  0  0  0
  -30.4285  -12.4165   19.4595 C   0  0  0  0  0  0
  -29.5027  -12.4966   18.2267 C   0  0  0  0  0  0
  -28.0277  -12.3344   18.6415 C   0  0  0  0  0  0
  -27.6446  -13.2263   19.8526 C   0  0  2  0  0  0
  -28.6919  -13.1331   20.9839 C   0  0  0  0  0  0
  -25.2528  -13.8196   20.5695 C   0  0  0  0  0  0
  -24.1812  -13.0438   20.9206 C   0  0  0  0  0  0
  -24.6401  -11.6922   20.8750 C   0  0  0  0  0  0
  -23.9079  -10.4295   21.0411 C   0  0  0  0  0  0
  -24.3627   -9.4204   21.9189 C   0  0  0  0  0  0
  -23.6291   -8.2243   22.0760 C   0  0  0  0  0  0
  -22.4278   -8.0285   21.3548 C   0  0  0  0  0  0
  -21.9919   -9.0261   20.4648 C   0  0  0  0  0  0
  -22.7250  -10.2138   20.3055 C   0  0  0  0  0  0
  -21.6848   -6.0732   22.5273 C   0  0  0  0  0  0
  -21.4021   -6.5644   23.8211 C   0  0  0  0  0  0
  -21.3663   -5.6794   24.9173 C   0  0  0  0  0  0
  -21.6040   -4.3053   24.7226 C   0  0  0  0  0  0
  -21.8819   -3.8149   23.4347 C   0  0  0  0  0  0
  -21.9193   -4.6959   22.3396 C   0  0  0  0  0  0
  -22.7835  -13.5225   21.1859 C   0  0  0  0  0  0
  -22.1660   -4.2147   21.0970 F   0  0  0  0  0  0
  -21.5624   -3.4539   25.7742 F   0  0  0  0  0  0
  -29.9951  -13.4714   20.3995 N   0  0  0  0  0  0
  -26.2952  -12.9392   20.3291 N   0  0  0  0  0  0
  -25.9331  -11.6542   20.5771 N   0  0  0  0  0  0
  -22.0487  -12.8205   22.0414 N   0  0  0  0  0  0
  -25.4215  -15.1918   20.4126 N   0  0  0  0  0  0
  -31.8192  -14.7892   20.1544 O   0  0  0  0  0  0
  -21.6642   -6.8881   21.4239 O   0  0  0  0  0  0
  -22.3512  -14.5527   20.6703 O   0  0  0  0  0  0
  -24.6284  -31.8590   23.2006 C   0  0  0  0  0  0
  -25.9123  -32.4766   23.8337 C   0  0  1  0  0  0
  -27.2150  -27.2958   20.1202 C   0  0  0  0  0  0
  -25.5940  -33.8576   24.2256 N   0  0  0  0  0  0
  -23.4216  -30.4812   21.5471 C   0  0  2  0  0  0
  -24.8654  -28.9313   20.1154 C   0  0  0  0  0  0
  -22.7484  -29.4618   22.4969 C   0  0  0  0  0  0
  -18.0285  -28.1387   22.8487 C   0  0  0  0  0  0
  -24.1491  -36.7309   23.2632 C   0  0  0  0  0  0
  -25.9655  -30.7817   21.3724 C   0  0  0  0  0  0
  -26.0391  -29.4067   20.7160 C   0  0  0  0  0  0
  -27.2220  -28.6050   20.6994 C   0  0  0  0  0  0
  -26.0160  -26.8720   19.5095 C   0  0  0  0  0  0
  -24.8580  -27.6705   19.4995 C   0  0  0  0  0  0
  -23.6347  -29.8148   20.1641 C   0  0  0  0  0  0
  -25.4114  -36.3074   24.0304 C   0  0  1  0  0  0
  -20.5881  -28.3691   23.1289 C   0  0  2  0  0  0
  -20.6777  -26.9419   22.5412 C   0  0  0  0  0  0
  -19.5750  -26.6379   21.5221 C   0  0  0  0  0  0
  -18.1926  -26.7933   22.1621 C   0  0  0  0  0  0
  -19.1535  -28.8858   23.2876 C   0  0  0  0  0  0
  -18.9460  -30.1470   23.8880 C   0  0  0  0  0  0
  -17.6455  -30.6594   24.0557 C   0  0  0  0  0  0
  -25.9058  -34.9445   23.5077 C   0  0  0  0  0  0
  -16.5348  -29.9086   23.6334 C   0  0  0  0  0  0
  -16.7272  -28.6505   23.0352 C   0  0  0  0  0  0
  -26.4492  -31.6596   25.0726 C   0  0  0  0  0  0
  -25.3721  -31.3726   26.1449 C   0  0  0  0  0  0
  -27.0333  -30.3016   24.6183 C   0  0  0  0  0  0
  -27.6043  -32.4350   25.7495 C   0  0  0  0  0  0
  -27.5574  -37.1796   24.8452 C   0  0  0  0  0  0
  -21.4196  -29.3044   22.3703 N   0  0  0  0  0  0
  -26.4290  -37.3763   23.9393 N   0  0  0  0  0  0
  -24.6915  -31.0572   22.0968 N   0  0  0  0  0  0
  -23.4209  -28.8158   23.3049 O   0  0  0  0  0  0
  -28.3186  -26.4241   20.1126 O   0  0  0  0  0  0
  -26.5634  -34.8909   22.4650 O   0  0  0  0  0  0
  -23.5442  -32.1422   23.7311 O   0  0  0  0  0  0
  -28.9069  -22.5051   20.5727 C   0  0  0  0  0  0
  -29.1828  -21.2661   19.8717 C   0  0  0  0  0  0
  -28.5219  -23.7293   19.9011 C   0  0  0  0  0  0
  -29.0267  -21.3469   18.4658 C   0  0  0  0  0  0
  -28.4148  -23.6201   18.4981 C   0  0  0  0  0  0
  -26.9045  -17.3730   16.1290 C   0  0  0  0  0  0
  -29.8129  -19.9771   20.5751 C   0  0  0  0  0  0
  -28.1299  -25.0575   20.6814 C   0  0  0  0  0  0
  -29.2754  -20.1760   17.5258 C   0  0  0  0  0  0
  -28.2057  -18.1403   16.3894 C   0  0  0  0  0  0
  -29.2697  -18.4583   20.4235 C   0  0  0  0  0  0
  -27.9684  -19.4495   17.1581 C   0  0  0  0  0  0
  -30.3233  -17.2647   20.6725 C   0  0  0  0  0  0
  -28.6486  -22.4732   17.8254 N   0  0  0  0  0  0
  -29.8630  -15.8151   20.6726 N   0  0  0  0  0  0
  -27.9710  -24.9605   17.5077 Cl  0  0  0  0  0  0
  -31.4709  -12.5311   19.1567 H   0  0  0  0  0  0
  -30.3608  -11.4361   19.9339 H   0  0  0  0  0  0
  -29.7716  -11.7287   17.5007 H   0  0  0  0  0  0
  -29.6402  -13.4556   17.7254 H   0  0  0  0  0  0
  -27.8701  -11.2851   18.8929 H   0  0  0  0  0  0
  -27.3717  -12.5442   17.7962 H   0  0  0  0  0  0
  -27.6470  -14.2518   19.4830 H   0  0  0  0  0  0
  -28.7171  -12.1283   21.4077 H   0  0  0  0  0  0
  -28.4430  -13.8062   21.8056 H   0  0  0  0  0  0
  -25.2767   -9.5669   22.4771 H   0  0  0  0  0  0
  -23.9987   -7.4638   22.7495 H   0  0  0  0  0  0
  -21.0844   -8.8786   19.8959 H   0  0  0  0  0  0
  -22.3708  -10.9682   19.6170 H   0  0  0  0  0  0
  -21.2027   -7.6155   23.9710 H   0  0  0  0  0  0
  -21.1480   -6.0530   25.9073 H   0  0  0  0  0  0
  -22.0598   -2.7609   23.2849 H   0  0  0  0  0  0
  -22.4112  -11.9845   22.4754 H   0  0  0  0  0  0
  -21.1115  -13.1237   22.2667 H   0  0  0  0  0  0
  -24.6553  -15.8443   20.5368 H   0  0  0  0  0  0
  -26.2626  -15.6334   20.0650 H   0  0  0  0  0  0
  -26.7185  -32.5415   23.1082 H   0  0  0  0  0  0
  -25.0082  -33.9724   25.0391 H   0  0  0  0  0  0
  -22.7142  -31.3008   21.4030 H   0  0  0  0  0  0
  -23.3740  -35.9653   23.3291 H   0  0  0  0  0  0
  -24.3579  -36.8982   22.2053 H   0  0  0  0  0  0
  -23.7284  -37.6509   23.6695 H   0  0  0  0  0  0
  -26.0967  -31.5386   20.5984 H   0  0  0  0  0  0
  -26.8476  -30.8345   21.9998 H   0  0  0  0  0  0
  -28.1280  -28.9733   21.1598 H   0  0  0  0  0  0
  -25.9578  -25.9011   19.0403 H   0  0  0  0  0  0
  -23.9603  -27.3000   19.0242 H   0  0  0  0  0  0
  -23.7512  -30.5900   19.4057 H   0  0  0  0  0  0
  -22.7520  -29.2447   19.8677 H   0  0  0  0  0  0
  -25.1302  -36.1907   25.0795 H   0  0  0  0  0  0
  -20.9955  -28.3272   24.1414 H   0  0  0  0  0  0
  -20.5705  -26.2301   23.3609 H   0  0  0  0  0  0
  -21.6645  -26.7467   22.1196 H   0  0  0  0  0  0
  -19.6917  -25.6283   21.1275 H   0  0  0  0  0  0
  -19.6697  -27.3166   20.6733 H   0  0  0  0  0  0
  -17.4205  -26.6703   21.4010 H   0  0  0  0  0  0
  -18.0302  -26.0066   22.9003 H   0  0  0  0  0  0
  -19.7929  -30.7296   24.2244 H   0  0  0  0  0  0
  -17.5004  -31.6271   24.5165 H   0  0  0  0  0  0
  -15.5348  -30.2980   23.7663 H   0  0  0  0  0  0
  -15.8673  -28.0827   22.7068 H   0  0  0  0  0  0
  -24.5899  -30.7066   25.7790 H   0  0  0  0  0  0
  -24.8875  -32.2874   26.4860 H   0  0  0  0  0  0
  -25.8040  -30.8923   27.0239 H   0  0  0  0  0  0
  -26.2902  -29.6765   24.1206 H   0  0  0  0  0  0
  -27.4043  -29.7272   25.4685 H   0  0  0  0  0  0
  -27.8773  -30.4314   23.9406 H   0  0  0  0  0  0
  -27.2669  -33.3686   26.2011 H   0  0  0  0  0  0
  -28.3870  -32.6874   25.0331 H   0  0  0  0  0  0
  -28.0683  -31.8517   26.5459 H   0  0  0  0  0  0
  -28.2569  -38.0108   24.7503 H   0  0  0  0  0  0
  -28.1103  -36.2638   24.6286 H   0  0  0  0  0  0
  -27.2291  -37.1476   25.8856 H   0  0  0  0  0  0
  -20.9383  -29.8796   21.6936 H   0  0  0  0  0  0
  -26.0172  -38.2839   24.1389 H   0  0  0  0  0  0
  -29.0127  -22.5235   21.6475 H   0  0  0  0  0  0
  -27.0944  -16.4533   15.5738 H   0  0  0  0  0  0
  -26.2033  -17.9725   15.5468 H   0  0  0  0  0  0
  -26.4140  -17.0987   17.0643 H   0  0  0  0  0  0
  -29.8799  -20.1908   21.6428 H   0  0  0  0  0  0
  -30.8512  -19.9671   20.2402 H   0  0  0  0  0  0
  -28.7123  -25.0538   21.6035 H   0  0  0  0  0  0
  -27.0981  -24.9337   21.0147 H   0  0  0  0  0  0
  -30.0083  -19.4926   17.9508 H   0  0  0  0  0  0
  -29.7412  -20.5516   16.6129 H   0  0  0  0  0  0
  -28.6958  -18.3594   15.4400 H   0  0  0  0  0  0
  -28.8903  -17.5005   16.9484 H   0  0  0  0  0  0
  -28.8677  -18.2928   19.4309 H   0  0  0  0  0  0
  -28.4146  -18.3298   21.0873 H   0  0  0  0  0  0
  -27.3374  -20.1175   16.5708 H   0  0  0  0  0  0
  -27.4038  -19.2381   18.0669 H   0  0  0  0  0  0
  -30.8236  -17.4379   21.6267 H   0  0  0  0  0  0
  -31.1064  -17.3623   19.9187 H   0  0  0  0  0  0
  -28.8816  -15.6517   20.8411 H   0  0  0  0  0  0
  1 25  1  0  0  0
  1 30  2  0  0  0
  1 85  1  0  0  0
  2  3  1  0  0  0
  2 25  1  0  0  0
  2 87  1  0  0  0
  2 88  1  0  0  0
  3  4  1  0  0  0
  3 89  1  0  0  0
  3 90  1  0  0  0
  4  5  1  0  0  0
  4 91  1  0  0  0
  4 92  1  0  0  0
  5  6  1  0  0  0
  5 26  1  0  0  0
  5 93  1  0  0  0
  6 25  1  0  0  0
  6 94  1  0  0  0
  6 95  1  0  0  0
  7  8  2  0  0  0
  7 26  1  0  0  0
  7 29  1  0  0  0
  8  9  1  0  0  0
  8 22  1  0  0  0
  9 10  1  0  0  0
  9 27  2  0  0  0
 10 11  2  0  0  0
 10 15  1  0  0  0
 11 12  1  0  0  0
 11 96  1  0  0  0
 12 13  2  0  0  0
 12 97  1  0  0  0
 13 14  1  0  0  0
 13 31  1  0  0  0
 14 15  2  0  0  0
 14 98  1  0  0  0
 15 99  1  0  0  0
 16 17  2  0  0  0
 16 21  1  0  0  0
 16 31  1  0  0  0
 17 18  1  0  0  0
 17100  1  0  0  0
 18 19  2  0  0  0
 18101  1  0  0  0
 19 20  1  0  0  0
 19 24  1  0  0  0
 20 21  2  0  0  0
 20102  1  0  0  0
 21 23  1  0  0  0
 22 28  1  0  0  0
 22 32  2  0  0  0
 26 27  1  0  0  0
 28103  1  0  0  0
 28104  1  0  0  0
 29105  1  0  0  0
 29106  1  0  0  0
 33 34  1  0  0  0
 33 66  1  0  0  0
 33 70  2  0  0  0
 34 36  1  0  0  0
 34 59  1  0  0  0
 34107  1  0  0  0
 35 44  2  0  0  0
 35 45  1  0  0  0
 35 68  1  0  0  0
 36 56  1  0  0  0
 36108  1  0  0  0
 37 39  1  0  0  0
 37 47  1  0  0  0
 37 66  1  0  0  0
 37109  1  0  0  0
 38 43  2  0  0  0
 38 46  1  0  0  0
 38 47  1  0  0  0
 39 64  1  0  0  0
 39 67  2  0  0  0
 40 52  1  0  0  0
 40 53  2  0  0  0
 40 58  1  0  0  0
 41110  1  0  0  0
 41111  1  0  0  0
 41112  1  0  0  0
 41 48  1  0  0  0
 42 43  1  0  0  0
 42 66  1  0  0  0
 42113  1  0  0  0
 42114  1  0  0  0
 43 44  1  0  0  0
 44115  1  0  0  0
 45 46  2  0  0  0
 45116  1  0  0  0
 46117  1  0  0  0
 47118  1  0  0  0
 47119  1  0  0  0
 48 56  1  0  0  0
 48 65  1  0  0  0
 48120  1  0  0  0
 49 50  1  0  0  0
 49 53  1  0  0  0
 49 64  1  0  0  0
 49121  1  0  0  0
 50 51  1  0  0  0
 50122  1  0  0  0
 50123  1  0  0  0
 51 52  1  0  0  0
 51124  1  0  0  0
 51125  1  0  0  0
 52126  1  0  0  0
 52127  1  0  0  0
 53 54  1  0  0  0
 54 55  2  0  0  0
 54128  1  0  0  0
 55 57  1  0  0  0
 55129  1  0  0  0
 56 69  2  0  0  0
 57 58  2  0  0  0
 57130  1  0  0  0
 58131  1  0  0  0
 59 60  1  0  0  0
 59 61  1  0  0  0
 59 62  1  0  0  0
 60132  1  0  0  0
 60133  1  0  0  0
 60134  1  0  0  0
 61135  1  0  0  0
 61136  1  0  0  0
 61137  1  0  0  0
 62138  1  0  0  0
 62139  1  0  0  0
 62140  1  0  0  0
 63 65  1  0  0  0
 63141  1  0  0  0
 63142  1  0  0  0
 63143  1  0  0  0
 64144  1  0  0  0
 65145  1  0  0  0
 68 78  1  0  0  0
 71 72  2  0  0  0
 71 73  1  0  0  0
 71146  1  0  0  0
 72 74  1  0  0  0
 72 77  1  0  0  0
 73 75  2  0  0  0
 73 78  1  0  0  0
 74 79  1  0  0  0
 74 84  2  0  0  0
 75 84  1  0  0  0
 75 86  1  0  0  0
 76 80  1  0  0  0
 76147  1  0  0  0
 76148  1  0  0  0
 76149  1  0  0  0
 77 81  1  0  0  0
 77150  1  0  0  0
 77151  1  0  0  0
 78152  1  0  0  0
 78153  1  0  0  0
 79 82  1  0  0  0
 79154  1  0  0  0
 79155  1  0  0  0
 80 82  1  0  0  0
 80156  1  0  0  0
 80157  1  0  0  0
 81 83  1  0  0  0
 81158  1  0  0  0
 81159  1  0  0  0
 82160  1  0  0  0
 82161  1  0  0  0
 83 85  1  0  0  0
 83162  1  0  0  0
 83163  1  0  0  0
 85164  1  0  0  0
M  ISO  4   1 100  68 101  78 101  85 100
M  END
> <chiral flag>
0

> <version>
0

> <s_m_source_file>
/data/baiqing/PycharmProjects/Reinvent-master-3.2/result/LINK_invent/BTK/process_docking_weight1_custom_sum_contain_oxygen_bond_distance_aromatic_linkinvent_7_9_3/rearranged_h_0031.sdf

> <i_m_source_file_index>
20

> <r_mmod_Potential_Energy-OPLS-2005>
-6.58213472366333

> <r_mmod_Stretch_Energy-OPLS-2005>
105.723518371582

> <r_mmod_Bend_Energy-OPLS-2005>
158.495422363281

> <r_mmod_Torsional_Energy-OPLS-2005>
227.973724365234

> <r_mmod_Improper_Torsional_Energy-OPLS-2005>
5.66754055023193

> <r_mmod_Van_der_Waal_Energy-OPLS-2005>
133.821975708008

> <r_mmod_Electrostatic_Energy-OPLS-2005>
-490.743011474609

> <r_mmod_Solvation_Energy-OPLS-2005>
-210.917861938477

> <b_mmod_Minimization_Converged-OPLS-2005>
0

> <r_mmod_RMS_Derivative-OPLS-2005>
1.98814833164215

$$$$
20
                    3D
 Structure written by MMmdl.
160168  0  0  1  0            999 V2000
  -30.5970  -14.6779   20.4705 C   0  0  0  0  0  0
  -30.4494  -12.4048   19.4640 C   0  0  0  0  0  0
  -29.5223  -12.4789   18.2297 C   0  0  0  0  0  0
  -28.0436  -12.3136   18.6376 C   0  0  0  0  0  0
  -27.6486  -13.2105   19.8403 C   0  0  2  0  0  0
  -28.6902  -13.1110   20.9757 C   0  0  0  0  0  0
  -25.2570  -13.8138   20.5645 C   0  0  0  0  0  0
  -24.1841  -13.0427   20.9147 C   0  0  0  0  0  0
  -24.6397  -11.6884   20.8710 C   0  0  0  0  0  0
  -23.9071  -10.4283   21.0407 C   0  0  0  0  0  0
  -24.3619   -9.4203   21.9191 C   0  0  0  0  0  0
  -23.6280   -8.2247   22.0777 C   0  0  0  0  0  0
  -22.4260   -8.0288   21.3567 C   0  0  0  0  0  0
  -21.9902   -9.0267   20.4666 C   0  0  0  0  0  0
  -22.7243  -10.2134   20.3064 C   0  0  0  0  0  0
  -21.6863   -6.0733   22.5290 C   0  0  0  0  0  0
  -21.4012   -6.5632   23.8223 C   0  0  0  0  0  0
  -21.3646   -5.6781   24.9178 C   0  0  0  0  0  0
  -21.6049   -4.3046   24.7223 C   0  0  0  0  0  0
  -21.8819   -3.8144   23.4343 C   0  0  0  0  0  0
  -21.9188   -4.6963   22.3404 C   0  0  0  0  0  0
  -22.7863  -13.5239   21.1817 C   0  0  0  0  0  0
  -22.1664   -4.2154   21.0978 F   0  0  0  0  0  0
  -21.5619   -3.4525   25.7730 F   0  0  0  0  0  0
  -30.0079  -13.4408   20.4193 N   0  0  0  0  0  0
  -26.2972  -12.9306   20.3194 N   0  0  0  0  0  0
  -25.9318  -11.6473   20.5687 N   0  0  0  0  0  0
  -22.0495  -12.8277   22.0378 N   0  0  0  0  0  0
  -25.4282  -15.1870   20.4097 N   0  0  0  0  0  0
  -31.7716  -14.8207   20.1163 O   0  0  0  0  0  0
  -21.6630   -6.8883   21.4257 O   0  0  0  0  0  0
  -22.3567  -14.5556   20.6654 O   0  0  0  0  0  0
  -24.6288  -31.8593   23.1961 C   0  0  0  0  0  0
  -25.9118  -32.4773   23.8342 C   0  0  1  0  0  0
  -27.2429  -27.3223   20.1160 C   0  0  0  0  0  0
  -25.5919  -33.8571   24.2288 N   0  0  0  0  0  0
  -23.4277  -30.4785   21.5347 C   0  0  2  0  0  0
  -24.8787  -28.9219   20.1123 C   0  0  0  0  0  0
  -22.7509  -29.4621   22.4879 C   0  0  0  0  0  0
  -18.0305  -28.1390   22.8459 C   0  0  0  0  0  0
  -24.1489  -36.7300   23.2649 C   0  0  0  0  0  0
  -25.9660  -30.7887   21.3676 C   0  0  0  0  0  0
  -26.0449  -29.4139   20.7125 C   0  0  0  0  0  0
  -27.2347  -28.6282   20.6952 C   0  0  0  0  0  0
  -26.0555  -26.8699   19.5092 C   0  0  0  0  0  0
  -24.8843  -27.6555   19.5024 C   0  0  0  0  0  0
  -23.6490  -29.8068   20.1524 C   0  0  0  0  0  0
  -25.4101  -36.3092   24.0360 C   0  0  1  0  0  0
  -20.5903  -28.3702   23.1254 C   0  0  2  0  0  0
  -20.6782  -26.9421   22.5393 C   0  0  0  0  0  0
  -19.5758  -26.6382   21.5195 C   0  0  0  0  0  0
  -18.1948  -26.7920   22.1611 C   0  0  0  0  0  0
  -19.1556  -28.8855   23.2853 C   0  0  0  0  0  0
  -18.9484  -30.1449   23.8886 C   0  0  0  0  0  0
  -17.6488  -30.6581   24.0559 C   0  0  0  0  0  0
  -25.9042  -34.9456   23.5130 C   0  0  0  0  0  0
  -16.5381  -29.9085   23.6318 C   0  0  0  0  0  0
  -16.7295  -28.6511   23.0325 C   0  0  0  0  0  0
  -26.4485  -31.6577   25.0713 C   0  0  0  0  0  0
  -25.3721  -31.3715   26.1445 C   0  0  0  0  0  0
  -27.0324  -30.3014   24.6136 C   0  0  0  0  0  0
  -27.6052  -32.4304   25.7474 C   0  0  0  0  0  0
  -27.5583  -37.1801   24.8474 C   0  0  0  0  0  0
  -21.4219  -29.3068   22.3651 N   0  0  0  0  0  0
  -26.4288  -37.3780   23.9431 N   0  0  0  0  0  0
  -24.6931  -31.0588   22.0913 N   0  0  0  0  0  0
  -23.4222  -28.8175   23.2974 O   0  0  0  0  0  0
  -28.3774  -26.5045   20.0989 O   0  0  0  0  0  0
  -26.5609  -34.8934   22.4694 O   0  0  0  0  0  0
  -23.5439  -32.1405   23.7250 O   0  0  0  0  0  0
  -31.1586  -20.4530   20.7401 C   0  0  0  0  0  0
  -28.9608  -21.2873   20.1463 C   0  0  0  0  0  0
  -29.8116  -20.1626   20.4515 C   0  0  0  0  0  0
  -31.6512  -21.7759   20.7049 C   0  0  0  0  0  0
  -29.4267  -22.6543   20.1036 C   0  0  0  0  0  0
  -30.8099  -22.8696   20.3631 C   0  0  0  0  0  0
  -33.1167  -21.9956   21.0428 C   0  0  0  0  0  0
  -31.4169  -24.2702   20.2667 C   0  0  0  0  0  0
  -29.2922  -18.6748   20.5265 C   0  0  0  0  0  0
  -28.5026  -23.8631   19.6631 C   0  0  0  0  0  0
  -29.7324  -15.9758   20.7887 C   0  0  0  0  0  0
  -30.3120  -17.4359   20.4876 C   0  0  0  0  0  0
  -28.2794  -25.1214   20.6232 C   0  0  0  0  0  0
  -31.4899  -12.5392   19.1622 H   0  0  0  0  0  0
  -30.4011  -11.4191   19.9286 H   0  0  0  0  0  0
  -29.8012  -11.7050   17.5132 H   0  0  0  0  0  0
  -29.6652  -13.4318   17.7182 H   0  0  0  0  0  0
  -27.8939  -11.2655   18.8983 H   0  0  0  0  0  0
  -27.3941  -12.5126   17.7846 H   0  0  0  0  0  0
  -27.6448  -14.2291   19.4570 H   0  0  0  0  0  0
  -28.7039  -12.1055   21.3982 H   0  0  0  0  0  0
  -28.4302  -13.7787   21.7966 H   0  0  0  0  0  0
  -25.2778   -9.5666   22.4749 H   0  0  0  0  0  0
  -23.9979   -7.4650   22.7520 H   0  0  0  0  0  0
  -21.0822   -8.8802   19.8989 H   0  0  0  0  0  0
  -22.3729  -10.9666   19.6153 H   0  0  0  0  0  0
  -21.2021   -7.6142   23.9735 H   0  0  0  0  0  0
  -21.1463   -6.0500   25.9080 H   0  0  0  0  0  0
  -22.0611   -2.7607   23.2841 H   0  0  0  0  0  0
  -22.4063  -11.9905   22.4743 H   0  0  0  0  0  0
  -21.1144  -13.1384   22.2616 H   0  0  0  0  0  0
  -24.6616  -15.8385   20.5347 H   0  0  0  0  0  0
  -26.2838  -15.6373   20.1122 H   0  0  0  0  0  0
  -26.7187  -32.5434   23.1094 H   0  0  0  0  0  0
  -25.0079  -33.9712   25.0444 H   0  0  0  0  0  0
  -22.7251  -31.2999   21.3809 H   0  0  0  0  0  0
  -23.3756  -35.9625   23.3303 H   0  0  0  0  0  0
  -24.3606  -36.8916   22.2067 H   0  0  0  0  0  0
  -23.7235  -37.6503   23.6654 H   0  0  0  0  0  0
  -26.0990  -31.5449   20.5929 H   0  0  0  0  0  0
  -26.8469  -30.8409   21.9959 H   0  0  0  0  0  0
  -28.1404  -29.0047   21.1486 H   0  0  0  0  0  0
  -26.0339  -25.8994   19.0329 H   0  0  0  0  0  0
  -23.9925  -27.2704   19.0291 H   0  0  0  0  0  0
  -23.7864  -30.5796   19.3946 H   0  0  0  0  0  0
  -22.7704  -29.2411   19.8395 H   0  0  0  0  0  0
  -25.1267  -36.1964   25.0853 H   0  0  0  0  0  0
  -21.0000  -28.3258   24.1368 H   0  0  0  0  0  0
  -20.5648  -26.2328   23.3601 H   0  0  0  0  0  0
  -21.6661  -26.7418   22.1217 H   0  0  0  0  0  0
  -19.6932  -25.6288   21.1238 H   0  0  0  0  0  0
  -19.6687  -27.3170   20.6706 H   0  0  0  0  0  0
  -17.4214  -26.6664   21.4017 H   0  0  0  0  0  0
  -18.0351  -26.0057   22.9003 H   0  0  0  0  0  0
  -19.7973  -30.7249   24.2259 H   0  0  0  0  0  0
  -17.5057  -31.6250   24.5181 H   0  0  0  0  0  0
  -15.5385  -30.2997   23.7630 H   0  0  0  0  0  0
  -15.8697  -28.0838   22.7025 H   0  0  0  0  0  0
  -24.5900  -30.7057   25.7784 H   0  0  0  0  0  0
  -24.8899  -32.2871   26.4873 H   0  0  0  0  0  0
  -25.8052  -30.8901   27.0228 H   0  0  0  0  0  0
  -26.2882  -29.6760   24.1179 H   0  0  0  0  0  0
  -27.4086  -29.7275   25.4619 H   0  0  0  0  0  0
  -27.8729  -30.4345   23.9320 H   0  0  0  0  0  0
  -27.2687  -33.3624   26.2033 H   0  0  0  0  0  0
  -28.3852  -32.6831   25.0278 H   0  0  0  0  0  0
  -28.0719  -31.8435   26.5393 H   0  0  0  0  0  0
  -28.2589  -38.0104   24.7511 H   0  0  0  0  0  0
  -28.1097  -36.2639   24.6291 H   0  0  0  0  0  0
  -27.2332  -37.1442   25.8887 H   0  0  0  0  0  0
  -20.9403  -29.8847   21.6899 H   0  0  0  0  0  0
  -26.0188  -38.2880   24.1379 H   0  0  0  0  0  0
  -31.8396  -19.6543   20.9982 H   0  0  0  0  0  0
  -27.9230  -21.0848   19.9204 H   0  0  0  0  0  0
  -33.5571  -21.1171   21.5162 H   0  0  0  0  0  0
  -33.2269  -22.8254   21.7406 H   0  0  0  0  0  0
  -33.6894  -22.2133   20.1393 H   0  0  0  0  0  0
  -30.9001  -24.9118   19.5535 H   0  0  0  0  0  0
  -32.4528  -24.2451   19.9301 H   0  0  0  0  0  0
  -31.3990  -24.7529   21.2436 H   0  0  0  0  0  0
  -28.5612  -18.5445   19.7271 H   0  0  0  0  0  0
  -28.7180  -18.6069   21.4499 H   0  0  0  0  0  0
  -27.5179  -23.4567   19.4336 H   0  0  0  0  0  0
  -28.8712  -24.2133   18.6983 H   0  0  0  0  0  0
  -28.8131  -15.8946   20.2147 H   0  0  0  0  0  0
  -29.4268  -15.9299   21.8329 H   0  0  0  0  0  0
  -31.1007  -17.6018   21.2202 H   0  0  0  0  0  0
  -30.8098  -17.4309   19.5173 H   0  0  0  0  0  0
  -29.0073  -25.0609   21.4315 H   0  0  0  0  0  0
  -27.3244  -24.9905   21.1340 H   0  0  0  0  0  0
  1 25  1  0  0  0
  1 30  2  0  0  0
  1 81  1  0  0  0
  2  3  1  0  0  0
  2 25  1  0  0  0
  2 84  1  0  0  0
  2 85  1  0  0  0
  3  4  1  0  0  0
  3 86  1  0  0  0
  3 87  1  0  0  0
  4  5  1  0  0  0
  4 88  1  0  0  0
  4 89  1  0  0  0
  5  6  1  0  0  0
  5 26  1  0  0  0
  5 90  1  0  0  0
  6 25  1  0  0  0
  6 91  1  0  0  0
  6 92  1  0  0  0
  7  8  2  0  0  0
  7 26  1  0  0  0
  7 29  1  0  0  0
  8  9  1  0  0  0
  8 22  1  0  0  0
  9 10  1  0  0  0
  9 27  2  0  0  0
 10 11  2  0  0  0
 10 15  1  0  0  0
 11 12  1  0  0  0
 11 93  1  0  0  0
 12 13  2  0  0  0
 12 94  1  0  0  0
 13 14  1  0  0  0
 13 31  1  0  0  0
 14 15  2  0  0  0
 14 95  1  0  0  0
 15 96  1  0  0  0
 16 17  2  0  0  0
 16 21  1  0  0  0
 16 31  1  0  0  0
 17 18  1  0  0  0
 17 97  1  0  0  0
 18 19  2  0  0  0
 18 98  1  0  0  0
 19 20  1  0  0  0
 19 24  1  0  0  0
 20 21  2  0  0  0
 20 99  1  0  0  0
 21 23  1  0  0  0
 22 28  1  0  0  0
 22 32  2  0  0  0
 26 27  1  0  0  0
 28100  1  0  0  0
 28101  1  0  0  0
 29102  1  0  0  0
 29103  1  0  0  0
 33 34  1  0  0  0
 33 66  1  0  0  0
 33 70  2  0  0  0
 34 36  1  0  0  0
 34 59  1  0  0  0
 34104  1  0  0  0
 35 44  2  0  0  0
 35 45  1  0  0  0
 35 68  1  0  0  0
 36 56  1  0  0  0
 36105  1  0  0  0
 37 39  1  0  0  0
 37 47  1  0  0  0
 37 66  1  0  0  0
 37106  1  0  0  0
 38 43  2  0  0  0
 38 46  1  0  0  0
 38 47  1  0  0  0
 39 64  1  0  0  0
 39 67  2  0  0  0
 40 52  1  0  0  0
 40 53  2  0  0  0
 40 58  1  0  0  0
 41107  1  0  0  0
 41108  1  0  0  0
 41109  1  0  0  0
 41 48  1  0  0  0
 42 43  1  0  0  0
 42 66  1  0  0  0
 42110  1  0  0  0
 42111  1  0  0  0
 43 44  1  0  0  0
 44112  1  0  0  0
 45 46  2  0  0  0
 45113  1  0  0  0
 46114  1  0  0  0
 47115  1  0  0  0
 47116  1  0  0  0
 48 56  1  0  0  0
 48 65  1  0  0  0
 48117  1  0  0  0
 49 50  1  0  0  0
 49 53  1  0  0  0
 49 64  1  0  0  0
 49118  1  0  0  0
 50 51  1  0  0  0
 50119  1  0  0  0
 50120  1  0  0  0
 51 52  1  0  0  0
 51121  1  0  0  0
 51122  1  0  0  0
 52123  1  0  0  0
 52124  1  0  0  0
 53 54  1  0  0  0
 54 55  2  0  0  0
 54125  1  0  0  0
 55 57  1  0  0  0
 55126  1  0  0  0
 56 69  2  0  0  0
 57 58  2  0  0  0
 57127  1  0  0  0
 58128  1  0  0  0
 59 60  1  0  0  0
 59 61  1  0  0  0
 59 62  1  0  0  0
 60129  1  0  0  0
 60130  1  0  0  0
 60131  1  0  0  0
 61132  1  0  0  0
 61133  1  0  0  0
 61134  1  0  0  0
 62135  1  0  0  0
 62136  1  0  0  0
 62137  1  0  0  0
 63 65  1  0  0  0
 63138  1  0  0  0
 63139  1  0  0  0
 63140  1  0  0  0
 64141  1  0  0  0
 65142  1  0  0  0
 68 83  1  0  0  0
 71 73  2  0  0  0
 71 74  1  0  0  0
 71143  1  0  0  0
 72 73  1  0  0  0
 72 75  2  0  0  0
 72144  1  0  0  0
 73 79  1  0  0  0
 74 76  2  0  0  0
 74 77  1  0  0  0
 75 76  1  0  0  0
 75 80  1  0  0  0
 76 78  1  0  0  0
 77145  1  0  0  0
 77146  1  0  0  0
 77147  1  0  0  0
 78148  1  0  0  0
 78149  1  0  0  0
 78150  1  0  0  0
 79 82  1  0  0  0
 79151  1  0  0  0
 79152  1  0  0  0
 80 83  1  0  0  0
 80153  1  0  0  0
 80154  1  0  0  0
 81 82  1  0  0  0
 81155  1  0  0  0
 81156  1  0  0  0
 82157  1  0  0  0
 82158  1  0  0  0
 83159  1  0  0  0
 83160  1  0  0  0
M  ISO  4   1 100  68 101  81 100  83 101
M  END
> <chiral flag>
0

> <version>
0

> <s_m_source_file>
/data/baiqing/PycharmProjects/Reinvent-master-3.2/result/LINK_invent/BTK/process_docking_weight1_custom_sum_contain_oxygen_bond_distance_aromatic_linkinvent_7_9_3/rearranged_h_0031.sdf

> <i_m_source_file_index>
21

> <r_mmod_Potential_Energy-OPLS-2005>
92.6491928100586

> <r_mmod_Stretch_Energy-OPLS-2005>
91.6069107055664

> <r_mmod_Bend_Energy-OPLS-2005>
133.836517333984

> <r_mmod_Torsional_Energy-OPLS-2005>
205.104049682617

> <r_mmod_Improper_Torsional_Energy-OPLS-2005>
4.27754545211792

> <r_mmod_Van_der_Waal_Energy-OPLS-2005>
141.348739624023

> <r_mmod_Electrostatic_Energy-OPLS-2005>
-344.792205810547

> <r_mmod_Solvation_Energy-OPLS-2005>
-193.308029174805

> <b_mmod_Minimization_Converged-OPLS-2005>
0

> <r_mmod_RMS_Derivative-OPLS-2005>
2.98281717300415

$$$$
21
                    3D
 Structure written by MMmdl.
156164  0  0  1  0            999 V2000
  -30.6406  -14.6768   20.4445 C   0  0  0  0  0  0
  -30.4298  -12.4105   19.4536 C   0  0  0  0  0  0
  -29.5022  -12.4958   18.2216 C   0  0  0  0  0  0
  -28.0253  -12.3424   18.6371 C   0  0  0  0  0  0
  -27.6455  -13.2337   19.8501 C   0  0  2  0  0  0
  -28.6943  -13.1364   20.9817 C   0  0  0  0  0  0
  -25.2552  -13.8272   20.5750 C   0  0  0  0  0  0
  -24.1815  -13.0485   20.9214 C   0  0  0  0  0  0
  -24.6401  -11.6980   20.8720 C   0  0  0  0  0  0
  -23.9083  -10.4329   21.0356 C   0  0  0  0  0  0
  -24.3638   -9.4254   21.9136 C   0  0  0  0  0  0
  -23.6327   -8.2280   22.0720 C   0  0  0  0  0  0
  -22.4300   -8.0302   21.3538 C   0  0  0  0  0  0
  -21.9932   -9.0268   20.4624 C   0  0  0  0  0  0
  -22.7258  -10.2158   20.3015 C   0  0  0  0  0  0
  -21.6866   -6.0741   22.5288 C   0  0  0  0  0  0
  -21.4013   -6.5633   23.8225 C   0  0  0  0  0  0
  -21.3667   -5.6788   24.9183 C   0  0  0  0  0  0
  -21.6056   -4.3051   24.7231 C   0  0  0  0  0  0
  -21.8829   -3.8146   23.4351 C   0  0  0  0  0  0
  -21.9210   -4.6964   22.3414 C   0  0  0  0  0  0
  -22.7857  -13.5262   21.1905 C   0  0  0  0  0  0
  -22.1700   -4.2165   21.0989 F   0  0  0  0  0  0
  -21.5613   -3.4524   25.7733 F   0  0  0  0  0  0
  -30.0020  -13.4635   20.3984 N   0  0  0  0  0  0
  -26.2961  -12.9467   20.3306 N   0  0  0  0  0  0
  -25.9323  -11.6605   20.5730 N   0  0  0  0  0  0
  -22.0525  -12.8177   22.0428 N   0  0  0  0  0  0
  -25.4243  -15.2001   20.4316 N   0  0  0  0  0  0
  -31.8273  -14.7782   20.1268 O   0  0  0  0  0  0
  -21.6679   -6.8891   21.4244 O   0  0  0  0  0  0
  -22.3512  -14.5569   20.6798 O   0  0  0  0  0  0
  -24.6301  -31.8502   23.1935 C   0  0  0  0  0  0
  -25.9149  -32.4699   23.8270 C   0  0  1  0  0  0
  -27.2442  -27.2917   20.1071 C   0  0  0  0  0  0
  -25.5954  -33.8506   24.2181 N   0  0  0  0  0  0
  -23.4218  -30.4752   21.5305 C   0  0  2  0  0  0
  -24.8688  -28.9066   20.1079 C   0  0  0  0  0  0
  -22.7365  -29.4668   22.4817 C   0  0  0  0  0  0
  -18.0285  -28.1377   22.8438 C   0  0  0  0  0  0
  -24.1511  -36.7290   23.2645 C   0  0  0  0  0  0
  -25.9631  -30.7649   21.3677 C   0  0  0  0  0  0
  -26.0344  -29.3898   20.7138 C   0  0  0  0  0  0
  -27.2165  -28.5922   20.7044 C   0  0  0  0  0  0
  -26.0526  -26.8506   19.4891 C   0  0  0  0  0  0
  -24.8807  -27.6409   19.4919 C   0  0  0  0  0  0
  -23.6371  -29.7929   20.1523 C   0  0  0  0  0  0
  -25.4126  -36.3020   24.0314 C   0  0  1  0  0  0
  -20.5855  -28.3763   23.1183 C   0  0  2  0  0  0
  -20.6733  -26.9452   22.5412 C   0  0  0  0  0  0
  -19.5764  -26.6373   21.5178 C   0  0  0  0  0  0
  -18.1953  -26.7934   22.1543 C   0  0  0  0  0  0
  -19.1525  -28.8886   23.2816 C   0  0  0  0  0  0
  -18.9435  -30.1447   23.8898 C   0  0  0  0  0  0
  -17.6434  -30.6543   24.0560 C   0  0  0  0  0  0
  -25.9066  -34.9403   23.5036 C   0  0  0  0  0  0
  -16.5349  -29.9055   23.6252 C   0  0  0  0  0  0
  -16.7278  -28.6466   23.0292 C   0  0  0  0  0  0
  -26.4512  -31.6547   25.0671 C   0  0  0  0  0  0
  -25.3732  -31.3738   26.1393 C   0  0  0  0  0  0
  -27.0355  -30.2969   24.6136 C   0  0  0  0  0  0
  -27.6040  -32.4302   25.7473 C   0  0  0  0  0  0
  -27.5563  -37.1809   24.8466 C   0  0  0  0  0  0
  -21.4087  -29.3052   22.3461 N   0  0  0  0  0  0
  -26.4279  -37.3725   23.9406 N   0  0  0  0  0  0
  -24.6908  -31.0475   22.0896 N   0  0  0  0  0  0
  -23.4015  -28.8265   23.3006 O   0  0  0  0  0  0
  -28.4038  -26.4968   20.1791 O   0  0  0  0  0  0
  -26.5630  -34.8920   22.4604 O   0  0  0  0  0  0
  -23.5472  -32.1336   23.7266 O   0  0  0  0  0  0
  -29.5118  -19.8186   20.2351 C   0  0  0  0  0  0
  -28.0178  -18.1603   21.1865 C   0  0  0  0  0  0
  -29.2621  -18.4332   20.5965 C   0  0  0  0  0  0
  -28.5677  -20.9046   20.4423 C   0  0  0  0  0  0
  -27.3396  -20.5327   21.0639 C   0  0  0  0  0  0
  -27.0803  -19.1774   21.4197 C   0  0  0  0  0  0
  -26.2650  -21.5713   21.3126 C   0  0  0  0  0  0
  -28.8197  -22.3726   19.8436 C   0  0  0  0  0  0
  -30.2937  -17.2513   20.4044 C   0  0  0  0  0  0
  -28.3425  -23.7991   20.4856 C   0  0  0  0  0  0
  -28.5524  -25.1324   19.6047 C   0  0  0  0  0  0
  -29.8726  -15.8060   20.6219 N   0  0  0  0  0  0
  -25.5831  -18.6828   22.1352 Cl  0  0  0  0  0  0
  -31.4696  -12.5257   19.1422 H   0  0  0  0  0  0
  -30.3662  -11.4285   19.9255 H   0  0  0  0  0  0
  -29.7642  -11.7201   17.5019 H   0  0  0  0  0  0
  -29.6447  -13.4496   17.7108 H   0  0  0  0  0  0
  -27.8629  -11.2911   18.8820 H   0  0  0  0  0  0
  -27.3704  -12.5579   17.7929 H   0  0  0  0  0  0
  -27.6455  -14.2616   19.4881 H   0  0  0  0  0  0
  -28.7102  -12.1338   21.4131 H   0  0  0  0  0  0
  -28.4453  -13.8174   21.7970 H   0  0  0  0  0  0
  -25.2769   -9.5759   22.4721 H   0  0  0  0  0  0
  -24.0046   -7.4688   22.7437 H   0  0  0  0  0  0
  -21.0865   -8.8796   19.8933 H   0  0  0  0  0  0
  -22.3706  -10.9693   19.6132 H   0  0  0  0  0  0
  -21.1999   -7.6141   23.9729 H   0  0  0  0  0  0
  -21.1474   -6.0511   25.9095 H   0  0  0  0  0  0
  -22.0593   -2.7602   23.2861 H   0  0  0  0  0  0
  -22.4163  -11.9834   22.4776 H   0  0  0  0  0  0
  -21.1124  -13.1135   22.2603 H   0  0  0  0  0  0
  -24.6758  -15.8537   20.6303 H   0  0  0  0  0  0
  -26.2713  -15.6600   20.1223 H   0  0  0  0  0  0
  -26.7175  -32.5303   23.0962 H   0  0  0  0  0  0
  -25.0112  -33.9629   25.0331 H   0  0  0  0  0  0
  -22.7279  -31.3043   21.3782 H   0  0  0  0  0  0
  -23.3719  -35.9670   23.3289 H   0  0  0  0  0  0
  -24.3614  -36.8919   22.2060 H   0  0  0  0  0  0
  -23.7330  -37.6526   23.6678 H   0  0  0  0  0  0
  -26.0970  -31.5142   20.5888 H   0  0  0  0  0  0
  -26.8477  -30.8158   21.9886 H   0  0  0  0  0  0
  -28.1124  -28.9571   21.1873 H   0  0  0  0  0  0
  -26.0000  -25.8773   19.0218 H   0  0  0  0  0  0
  -23.9875  -27.2556   19.0196 H   0  0  0  0  0  0
  -23.7596  -30.5650   19.3920 H   0  0  0  0  0  0
  -22.7533  -29.2248   19.8551 H   0  0  0  0  0  0
  -25.1310  -36.1816   25.0796 H   0  0  0  0  0  0
  -20.9955  -28.3428   24.1296 H   0  0  0  0  0  0
  -20.5584  -26.2435   23.3692 H   0  0  0  0  0  0
  -21.6596  -26.7435   22.1255 H   0  0  0  0  0  0
  -19.6881  -25.6242   21.1246 H   0  0  0  0  0  0
  -19.6713  -27.3123   20.6673 H   0  0  0  0  0  0
  -17.4230  -26.6686   21.3943 H   0  0  0  0  0  0
  -18.0340  -26.0036   22.8908 H   0  0  0  0  0  0
  -19.7883  -30.7260   24.2274 H   0  0  0  0  0  0
  -17.4965  -31.6200   24.5180 H   0  0  0  0  0  0
  -15.5325  -30.2912   23.7508 H   0  0  0  0  0  0
  -15.8697  -28.0794   22.6966 H   0  0  0  0  0  0
  -24.5887  -30.7081   25.7759 H   0  0  0  0  0  0
  -24.8939  -32.2935   26.4779 H   0  0  0  0  0  0
  -25.8053  -30.8958   27.0191 H   0  0  0  0  0  0
  -26.2930  -29.6702   24.1158 H   0  0  0  0  0  0
  -27.4072  -29.7231   25.4637 H   0  0  0  0  0  0
  -27.8791  -30.4267   23.9343 H   0  0  0  0  0  0
  -27.2608  -33.3587   26.2063 H   0  0  0  0  0  0
  -28.3886  -32.6884   25.0341 H   0  0  0  0  0  0
  -28.0669  -31.8413   26.5403 H   0  0  0  0  0  0
  -28.2579  -38.0103   24.7456 H   0  0  0  0  0  0
  -28.1065  -36.2631   24.6327 H   0  0  0  0  0  0
  -27.2313  -37.1490   25.8883 H   0  0  0  0  0  0
  -20.9268  -29.8407   21.6362 H   0  0  0  0  0  0
  -26.0127  -38.2798   24.1337 H   0  0  0  0  0  0
  -30.4600  -20.0416   19.7615 H   0  0  0  0  0  0
  -27.7530  -17.1568   21.4782 H   0  0  0  0  0  0
  -25.3084  -21.1668   21.6298 H   0  0  0  0  0  0
  -26.0693  -22.1130   20.3876 H   0  0  0  0  0  0
  -26.5972  -22.2554   22.0936 H   0  0  0  0  0  0
  -28.3923  -22.3305   18.8413 H   0  0  0  0  0  0
  -29.8958  -22.4382   19.6649 H   0  0  0  0  0  0
  -30.7256  -17.3379   19.4056 H   0  0  0  0  0  0
  -31.1237  -17.4453   21.0846 H   0  0  0  0  0  0
  -28.8418  -23.9298   21.4446 H   0  0  0  0  0  0
  -27.2824  -23.8209   20.7253 H   0  0  0  0  0  0
  -27.9926  -25.0581   18.6749 H   0  0  0  0  0  0
  -29.5938  -25.1009   19.2766 H   0  0  0  0  0  0
  -28.9005  -15.6408   20.8304 H   0  0  0  0  0  0
  1 25  1  0  0  0
  1 30  2  0  0  0
  1 82  1  0  0  0
  2  3  1  0  0  0
  2 25  1  0  0  0
  2 84  1  0  0  0
  2 85  1  0  0  0
  3  4  1  0  0  0
  3 86  1  0  0  0
  3 87  1  0  0  0
  4  5  1  0  0  0
  4 88  1  0  0  0
  4 89  1  0  0  0
  5  6  1  0  0  0
  5 26  1  0  0  0
  5 90  1  0  0  0
  6 25  1  0  0  0
  6 91  1  0  0  0
  6 92  1  0  0  0
  7  8  2  0  0  0
  7 26  1  0  0  0
  7 29  1  0  0  0
  8  9  1  0  0  0
  8 22  1  0  0  0
  9 10  1  0  0  0
  9 27  2  0  0  0
 10 11  2  0  0  0
 10 15  1  0  0  0
 11 12  1  0  0  0
 11 93  1  0  0  0
 12 13  2  0  0  0
 12 94  1  0  0  0
 13 14  1  0  0  0
 13 31  1  0  0  0
 14 15  2  0  0  0
 14 95  1  0  0  0
 15 96  1  0  0  0
 16 17  2  0  0  0
 16 21  1  0  0  0
 16 31  1  0  0  0
 17 18  1  0  0  0
 17 97  1  0  0  0
 18 19  2  0  0  0
 18 98  1  0  0  0
 19 20  1  0  0  0
 19 24  1  0  0  0
 20 21  2  0  0  0
 20 99  1  0  0  0
 21 23  1  0  0  0
 22 28  1  0  0  0
 22 32  2  0  0  0
 26 27  1  0  0  0
 28100  1  0  0  0
 28101  1  0  0  0
 29102  1  0  0  0
 29103  1  0  0  0
 33 34  1  0  0  0
 33 66  1  0  0  0
 33 70  2  0  0  0
 34 36  1  0  0  0
 34 59  1  0  0  0
 34104  1  0  0  0
 35 44  2  0  0  0
 35 45  1  0  0  0
 35 68  1  0  0  0
 36 56  1  0  0  0
 36105  1  0  0  0
 37 39  1  0  0  0
 37 47  1  0  0  0
 37 66  1  0  0  0
 37106  1  0  0  0
 38 43  2  0  0  0
 38 46  1  0  0  0
 38 47  1  0  0  0
 39 64  1  0  0  0
 39 67  2  0  0  0
 40 52  1  0  0  0
 40 53  2  0  0  0
 40 58  1  0  0  0
 41107  1  0  0  0
 41108  1  0  0  0
 41109  1  0  0  0
 41 48  1  0  0  0
 42 43  1  0  0  0
 42 66  1  0  0  0
 42110  1  0  0  0
 42111  1  0  0  0
 43 44  1  0  0  0
 44112  1  0  0  0
 45 46  2  0  0  0
 45113  1  0  0  0
 46114  1  0  0  0
 47115  1  0  0  0
 47116  1  0  0  0
 48 56  1  0  0  0
 48 65  1  0  0  0
 48117  1  0  0  0
 49 50  1  0  0  0
 49 53  1  0  0  0
 49 64  1  0  0  0
 49118  1  0  0  0
 50 51  1  0  0  0
 50119  1  0  0  0
 50120  1  0  0  0
 51 52  1  0  0  0
 51121  1  0  0  0
 51122  1  0  0  0
 52123  1  0  0  0
 52124  1  0  0  0
 53 54  1  0  0  0
 54 55  2  0  0  0
 54125  1  0  0  0
 55 57  1  0  0  0
 55126  1  0  0  0
 56 69  2  0  0  0
 57 58  2  0  0  0
 57127  1  0  0  0
 58128  1  0  0  0
 59 60  1  0  0  0
 59 61  1  0  0  0
 59 62  1  0  0  0
 60129  1  0  0  0
 60130  1  0  0  0
 60131  1  0  0  0
 61132  1  0  0  0
 61133  1  0  0  0
 61134  1  0  0  0
 62135  1  0  0  0
 62136  1  0  0  0
 62137  1  0  0  0
 63 65  1  0  0  0
 63138  1  0  0  0
 63139  1  0  0  0
 63140  1  0  0  0
 64141  1  0  0  0
 65142  1  0  0  0
 68 81  1  0  0  0
 71 73  2  0  0  0
 71 74  1  0  0  0
 71143  1  0  0  0
 72 73  1  0  0  0
 72 76  2  0  0  0
 72144  1  0  0  0
 73 79  1  0  0  0
 74 75  2  0  0  0
 74 78  1  0  0  0
 75 76  1  0  0  0
 75 77  1  0  0  0
 76 83  1  0  0  0
 77145  1  0  0  0
 77146  1  0  0  0
 77147  1  0  0  0
 78 80  1  0  0  0
 78148  1  0  0  0
 78149  1  0  0  0
 79 82  1  0  0  0
 79150  1  0  0  0
 79151  1  0  0  0
 80 81  1  0  0  0
 80152  1  0  0  0
 80153  1  0  0  0
 81154  1  0  0  0
 81155  1  0  0  0
 82156  1  0  0  0
M  ISO  4   1 100  68 101  81 101  82 100
M  END
> <chiral flag>
0

> <version>
0

> <s_m_source_file>
/data/baiqing/PycharmProjects/Reinvent-master-3.2/result/LINK_invent/BTK/process_docking_weight1_custom_sum_contain_oxygen_bond_distance_aromatic_linkinvent_7_9_3/rearranged_h_0031.sdf

> <i_m_source_file_index>
22

> <r_mmod_Potential_Energy-OPLS-2005>
66.3555145263672

> <r_mmod_Stretch_Energy-OPLS-2005>
110.871643066406

> <r_mmod_Bend_Energy-OPLS-2005>
172.567749023438

> <r_mmod_Torsional_Energy-OPLS-2005>
193.797729492188

> <r_mmod_Improper_Torsional_Energy-OPLS-2005>
5.85963201522827

> <r_mmod_Van_der_Waal_Energy-OPLS-2005>
141.698104858398

> <r_mmod_Electrostatic_Energy-OPLS-2005>
-416.227325439453

> <r_mmod_Solvation_Energy-OPLS-2005>
-203.385772705078

> <b_mmod_Minimization_Converged-OPLS-2005>
0

> <r_mmod_RMS_Derivative-OPLS-2005>
6.05232954025269

$$$$
22
                    3D
 Structure written by MMmdl.
162170  0  0  1  0            999 V2000
  -30.6839  -14.4833   20.5717 C   0  0  0  0  0  0
  -30.4279  -12.3150   19.4175 C   0  0  0  0  0  0
  -29.4941  -12.5053   18.2040 C   0  0  0  0  0  0
  -28.0136  -12.3709   18.6176 C   0  0  0  0  0  0
  -27.6614  -13.2067   19.8774 C   0  0  2  0  0  0
  -28.7052  -12.9781   20.9932 C   0  0  0  0  0  0
  -25.2575  -13.8152   20.5685 C   0  0  0  0  0  0
  -24.1827  -13.0422   20.9179 C   0  0  0  0  0  0
  -24.6399  -11.6899   20.8752 C   0  0  0  0  0  0
  -23.9067  -10.4284   21.0414 C   0  0  0  0  0  0
  -24.3617   -9.4196   21.9186 C   0  0  0  0  0  0
  -23.6294   -8.2235   22.0755 C   0  0  0  0  0  0
  -22.4269   -8.0279   21.3554 C   0  0  0  0  0  0
  -21.9914   -9.0252   20.4652 C   0  0  0  0  0  0
  -22.7244  -10.2127   20.3059 C   0  0  0  0  0  0
  -21.6852   -6.0733   22.5297 C   0  0  0  0  0  0
  -21.4019   -6.5642   23.8230 C   0  0  0  0  0  0
  -21.3652   -5.6791   24.9187 C   0  0  0  0  0  0
  -21.6034   -4.3057   24.7243 C   0  0  0  0  0  0
  -21.8815   -3.8152   23.4365 C   0  0  0  0  0  0
  -21.9195   -4.6967   22.3418 C   0  0  0  0  0  0
  -22.7846  -13.5217   21.1845 C   0  0  0  0  0  0
  -22.1655   -4.2150   21.0995 F   0  0  0  0  0  0
  -21.5623   -3.4535   25.7752 F   0  0  0  0  0  0
  -30.0333  -13.2952   20.4417 N   0  0  0  0  0  0
  -26.3027  -12.9329   20.3402 N   0  0  0  0  0  0
  -25.9331  -11.6493   20.5807 N   0  0  0  0  0  0
  -22.0490  -12.8219   22.0414 N   0  0  0  0  0  0
  -25.4277  -15.1869   20.4072 N   0  0  0  0  0  0
  -31.8088  -14.6863   20.1066 O   0  0  0  0  0  0
  -21.6634   -6.8877   21.4255 O   0  0  0  0  0  0
  -22.3528  -14.5510   20.6677 O   0  0  0  0  0  0
  -24.6145  -31.8660   23.2053 C   0  0  0  0  0  0
  -25.9030  -32.4806   23.8355 C   0  0  1  0  0  0
  -27.2424  -27.4181   20.0964 C   0  0  0  0  0  0
  -25.5888  -33.8608   24.2286 N   0  0  0  0  0  0
  -23.4021  -30.4862   21.5465 C   0  0  2  0  0  0
  -24.8484  -28.9417   20.1193 C   0  0  0  0  0  0
  -22.7411  -29.4655   22.4998 C   0  0  0  0  0  0
  -18.0277  -28.1370   22.8505 C   0  0  0  0  0  0
  -24.1482  -36.7304   23.2645 C   0  0  0  0  0  0
  -25.9314  -30.8270   21.3569 C   0  0  0  0  0  0
  -26.0083  -29.4585   20.7078 C   0  0  0  0  0  0
  -27.2030  -28.7034   20.6905 C   0  0  0  0  0  0
  -26.0558  -26.9085   19.5212 C   0  0  0  0  0  0
  -24.8676  -27.6664   19.5279 C   0  0  0  0  0  0
  -23.6087  -29.8072   20.1652 C   0  0  0  0  0  0
  -25.4114  -36.3103   24.0331 C   0  0  1  0  0  0
  -20.5866  -28.3649   23.1329 C   0  0  2  0  0  0
  -20.6770  -26.9382   22.5431 C   0  0  0  0  0  0
  -19.5743  -26.6380   21.5229 C   0  0  0  0  0  0
  -18.1918  -26.7917   22.1635 C   0  0  0  0  0  0
  -19.1528  -28.8825   23.2907 C   0  0  0  0  0  0
  -18.9458  -30.1436   23.8901 C   0  0  0  0  0  0
  -17.6463  -30.6576   24.0563 C   0  0  0  0  0  0
  -25.9044  -34.9471   23.5113 C   0  0  0  0  0  0
  -16.5351  -29.9078   23.6332 C   0  0  0  0  0  0
  -16.7268  -28.6497   23.0353 C   0  0  0  0  0  0
  -26.4439  -31.6601   25.0698 C   0  0  0  0  0  0
  -25.3682  -31.3757   26.1435 C   0  0  0  0  0  0
  -27.0280  -30.3044   24.6092 C   0  0  0  0  0  0
  -27.5996  -32.4329   25.7474 C   0  0  0  0  0  0
  -27.5574  -37.1811   24.8462 C   0  0  0  0  0  0
  -21.4140  -29.3015   22.3732 N   0  0  0  0  0  0
  -26.4295  -37.3791   23.9399 N   0  0  0  0  0  0
  -24.6678  -31.0749   22.0948 N   0  0  0  0  0  0
  -23.4186  -28.8221   23.3055 O   0  0  0  0  0  0
  -28.4496  -26.7388   20.1067 O   0  0  0  0  0  0
  -26.5614  -34.8925   22.4683 O   0  0  0  0  0  0
  -23.5334  -32.1420   23.7441 O   0  0  0  0  0  0
  -28.4898  -22.9004   20.2398 C   0  0  0  0  0  0
  -28.4658  -24.2342   20.7358 C   0  0  0  0  0  0
  -28.4006  -21.7715   21.0938 C   0  0  0  0  0  0
  -28.3954  -24.4312   22.1487 C   0  0  0  0  0  0
  -28.2723  -23.3001   23.0069 C   0  0  0  0  0  0
  -28.2614  -21.9915   22.4765 C   0  0  0  0  0  0
  -28.4586  -25.8282   22.7620 C   0  0  0  0  0  0
  -28.1575  -23.4609   24.5173 C   0  0  0  0  0  0
  -28.3648  -20.3347   20.5384 C   0  0  0  0  0  0
  -28.5834  -25.3671   19.6829 C   0  0  0  0  0  0
  -29.4887  -19.3719   21.0325 C   0  0  0  0  0  0
  -29.2692  -17.8742   20.6638 C   0  0  0  0  0  0
  -30.3279  -16.9001   21.2590 C   0  0  0  0  0  0
  -29.9570  -15.4780   21.1202 N   0  0  0  0  0  0
  -28.1063  -20.9322   23.3077 F   0  0  0  0  0  0
  -31.4704  -12.4248   19.1137 H   0  0  0  0  0  0
  -30.3406  -11.3014   19.8120 H   0  0  0  0  0  0
  -29.7325  -11.7762   17.4280 H   0  0  0  0  0  0
  -29.6619  -13.4878   17.7604 H   0  0  0  0  0  0
  -27.8185  -11.3150   18.8101 H   0  0  0  0  0  0
  -27.3644  -12.6502   17.7876 H   0  0  0  0  0  0
  -27.7062  -14.2567   19.5874 H   0  0  0  0  0  0
  -28.6842  -11.9363   21.3176 H   0  0  0  0  0  0
  -28.4682  -13.5630   21.8832 H   0  0  0  0  0  0
  -25.2765   -9.5659   22.4753 H   0  0  0  0  0  0
  -24.0006   -7.4617   22.7461 H   0  0  0  0  0  0
  -21.0850   -8.8772   19.8954 H   0  0  0  0  0  0
  -22.3720  -10.9658   19.6161 H   0  0  0  0  0  0
  -21.2021   -7.6149   23.9737 H   0  0  0  0  0  0
  -21.1470   -6.0523   25.9085 H   0  0  0  0  0  0
  -22.0608   -2.7616   23.2875 H   0  0  0  0  0  0
  -22.4112  -11.9890   22.4816 H   0  0  0  0  0  0
  -21.1110  -13.1251   22.2612 H   0  0  0  0  0  0
  -24.6574  -15.8397   20.5006 H   0  0  0  0  0  0
  -26.2826  -15.6275   20.0919 H   0  0  0  0  0  0
  -26.7107  -32.5495   23.1120 H   0  0  0  0  0  0
  -25.0020  -33.9773   25.0412 H   0  0  0  0  0  0
  -22.6905  -31.3009   21.4007 H   0  0  0  0  0  0
  -23.3741  -35.9637   23.3331 H   0  0  0  0  0  0
  -24.3578  -36.8906   22.2056 H   0  0  0  0  0  0
  -23.7232  -37.6516   23.6648 H   0  0  0  0  0  0
  -26.0402  -31.5899   20.5856 H   0  0  0  0  0  0
  -26.8208  -30.8849   21.9733 H   0  0  0  0  0  0
  -28.1015  -29.1030   21.1384 H   0  0  0  0  0  0
  -26.0187  -25.9289   19.0709 H   0  0  0  0  0  0
  -23.9700  -27.2549   19.0871 H   0  0  0  0  0  0
  -23.7070  -30.5713   19.3934 H   0  0  0  0  0  0
  -22.7344  -29.2185   19.8811 H   0  0  0  0  0  0
  -25.1294  -36.1972   25.0823 H   0  0  0  0  0  0
  -20.9950  -28.3202   24.1454 H   0  0  0  0  0  0
  -20.5697  -26.2243   23.3613 H   0  0  0  0  0  0
  -21.6636  -26.7449   22.1200 H   0  0  0  0  0  0
  -19.6907  -25.6303   21.1235 H   0  0  0  0  0  0
  -19.6678  -27.3205   20.6768 H   0  0  0  0  0  0
  -17.4198  -26.6674   21.4026 H   0  0  0  0  0  0
  -18.0300  -26.0053   22.9020 H   0  0  0  0  0  0
  -19.7935  -30.7254   24.2256 H   0  0  0  0  0  0
  -17.5020  -31.6260   24.5153 H   0  0  0  0  0  0
  -15.5348  -30.2981   23.7660 H   0  0  0  0  0  0
  -15.8669  -28.0822   22.7060 H   0  0  0  0  0  0
  -24.5842  -30.7115   25.7780 H   0  0  0  0  0  0
  -24.8886  -32.2943   26.4828 H   0  0  0  0  0  0
  -25.8013  -30.8968   27.0224 H   0  0  0  0  0  0
  -26.2863  -29.6825   24.1072 H   0  0  0  0  0  0
  -27.3972  -29.7256   25.4565 H   0  0  0  0  0  0
  -27.8707  -30.4366   23.9303 H   0  0  0  0  0  0
  -27.2596  -33.3623   26.2053 H   0  0  0  0  0  0
  -28.3812  -32.6908   25.0317 H   0  0  0  0  0  0
  -28.0637  -31.8451   26.5399 H   0  0  0  0  0  0
  -28.2601  -38.0097   24.7510 H   0  0  0  0  0  0
  -28.1065  -36.2639   24.6296 H   0  0  0  0  0  0
  -27.2292  -37.1465   25.8863 H   0  0  0  0  0  0
  -20.9297  -29.8717   21.6941 H   0  0  0  0  0  0
  -26.0186  -38.2868   24.1401 H   0  0  0  0  0  0
  -28.5696  -22.7407   19.1736 H   0  0  0  0  0  0
  -29.2590  -26.4149   22.3141 H   0  0  0  0  0  0
  -28.6751  -25.8321   23.8271 H   0  0  0  0  0  0
  -27.5096  -26.3467   22.6235 H   0  0  0  0  0  0
  -29.1044  -23.8125   24.9293 H   0  0  0  0  0  0
  -27.9146  -22.5243   25.0183 H   0  0  0  0  0  0
  -27.3732  -24.1718   24.7783 H   0  0  0  0  0  0
  -28.3668  -20.3699   19.4484 H   0  0  0  0  0  0
  -27.3963  -19.9178   20.8185 H   0  0  0  0  0  0
  -27.9571  -25.1460   18.8205 H   0  0  0  0  0  0
  -29.5992  -25.2936   19.2918 H   0  0  0  0  0  0
  -29.5584  -19.4301   22.1180 H   0  0  0  0  0  0
  -30.4526  -19.7128   20.6541 H   0  0  0  0  0  0
  -29.2573  -17.7675   19.5776 H   0  0  0  0  0  0
  -28.2776  -17.5759   21.0059 H   0  0  0  0  0  0
  -30.4447  -17.0977   22.3255 H   0  0  0  0  0  0
  -31.3013  -17.0971   20.8054 H   0  0  0  0  0  0
  -29.0510  -15.2078   21.4740 H   0  0  0  0  0  0
  1 25  1  0  0  0
  1 30  2  0  0  0
  1 84  1  0  0  0
  2  3  1  0  0  0
  2 25  1  0  0  0
  2 86  1  0  0  0
  2 87  1  0  0  0
  3  4  1  0  0  0
  3 88  1  0  0  0
  3 89  1  0  0  0
  4  5  1  0  0  0
  4 90  1  0  0  0
  4 91  1  0  0  0
  5  6  1  0  0  0
  5 26  1  0  0  0
  5 92  1  0  0  0
  6 25  1  0  0  0
  6 93  1  0  0  0
  6 94  1  0  0  0
  7  8  2  0  0  0
  7 26  1  0  0  0
  7 29  1  0  0  0
  8  9  1  0  0  0
  8 22  1  0  0  0
  9 10  1  0  0  0
  9 27  2  0  0  0
 10 11  2  0  0  0
 10 15  1  0  0  0
 11 12  1  0  0  0
 11 95  1  0  0  0
 12 13  2  0  0  0
 12 96  1  0  0  0
 13 14  1  0  0  0
 13 31  1  0  0  0
 14 15  2  0  0  0
 14 97  1  0  0  0
 15 98  1  0  0  0
 16 17  2  0  0  0
 16 21  1  0  0  0
 16 31  1  0  0  0
 17 18  1  0  0  0
 17 99  1  0  0  0
 18 19  2  0  0  0
 18100  1  0  0  0
 19 20  1  0  0  0
 19 24  1  0  0  0
 20 21  2  0  0  0
 20101  1  0  0  0
 21 23  1  0  0  0
 22 28  1  0  0  0
 22 32  2  0  0  0
 26 27  1  0  0  0
 28102  1  0  0  0
 28103  1  0  0  0
 29104  1  0  0  0
 29105  1  0  0  0
 33 34  1  0  0  0
 33 66  1  0  0  0
 33 70  2  0  0  0
 34 36  1  0  0  0
 34 59  1  0  0  0
 34106  1  0  0  0
 35 44  2  0  0  0
 35 45  1  0  0  0
 35 68  1  0  0  0
 36 56  1  0  0  0
 36107  1  0  0  0
 37 39  1  0  0  0
 37 47  1  0  0  0
 37 66  1  0  0  0
 37108  1  0  0  0
 38 43  2  0  0  0
 38 46  1  0  0  0
 38 47  1  0  0  0
 39 64  1  0  0  0
 39 67  2  0  0  0
 40 52  1  0  0  0
 40 53  2  0  0  0
 40 58  1  0  0  0
 41109  1  0  0  0
 41110  1  0  0  0
 41111  1  0  0  0
 41 48  1  0  0  0
 42 43  1  0  0  0
 42 66  1  0  0  0
 42112  1  0  0  0
 42113  1  0  0  0
 43 44  1  0  0  0
 44114  1  0  0  0
 45 46  2  0  0  0
 45115  1  0  0  0
 46116  1  0  0  0
 47117  1  0  0  0
 47118  1  0  0  0
 48 56  1  0  0  0
 48 65  1  0  0  0
 48119  1  0  0  0
 49 50  1  0  0  0
 49 53  1  0  0  0
 49 64  1  0  0  0
 49120  1  0  0  0
 50 51  1  0  0  0
 50121  1  0  0  0
 50122  1  0  0  0
 51 52  1  0  0  0
 51123  1  0  0  0
 51124  1  0  0  0
 52125  1  0  0  0
 52126  1  0  0  0
 53 54  1  0  0  0
 54 55  2  0  0  0
 54127  1  0  0  0
 55 57  1  0  0  0
 55128  1  0  0  0
 56 69  2  0  0  0
 57 58  2  0  0  0
 57129  1  0  0  0
 58130  1  0  0  0
 59 60  1  0  0  0
 59 61  1  0  0  0
 59 62  1  0  0  0
 60131  1  0  0  0
 60132  1  0  0  0
 60133  1  0  0  0
 61134  1  0  0  0
 61135  1  0  0  0
 61136  1  0  0  0
 62137  1  0  0  0
 62138  1  0  0  0
 62139  1  0  0  0
 63 65  1  0  0  0
 63140  1  0  0  0
 63141  1  0  0  0
 63142  1  0  0  0
 64143  1  0  0  0
 65144  1  0  0  0
 68 80  1  0  0  0
 71 72  2  0  0  0
 71 73  1  0  0  0
 71145  1  0  0  0
 72 74  1  0  0  0
 72 80  1  0  0  0
 73 76  2  0  0  0
 73 79  1  0  0  0
 74 75  2  0  0  0
 74 77  1  0  0  0
 75 76  1  0  0  0
 75 78  1  0  0  0
 76 85  1  0  0  0
 77146  1  0  0  0
 77147  1  0  0  0
 77148  1  0  0  0
 78149  1  0  0  0
 78150  1  0  0  0
 78151  1  0  0  0
 79 81  1  0  0  0
 79152  1  0  0  0
 79153  1  0  0  0
 80154  1  0  0  0
 80155  1  0  0  0
 81 82  1  0  0  0
 81156  1  0  0  0
 81157  1  0  0  0
 82 83  1  0  0  0
 82158  1  0  0  0
 82159  1  0  0  0
 83 84  1  0  0  0
 83160  1  0  0  0
 83161  1  0  0  0
 84162  1  0  0  0
M  ISO  4   1 100  68 101  80 101  84 100
M  END
> <chiral flag>
0

> <version>
0

> <s_m_source_file>
/data/baiqing/PycharmProjects/Reinvent-master-3.2/result/LINK_invent/BTK/process_docking_weight1_custom_sum_contain_oxygen_bond_distance_aromatic_linkinvent_7_9_3/rearranged_h_0031.sdf

> <i_m_source_file_index>
23

> <r_mmod_Potential_Energy-OPLS-2005>
-26.9164295196533

> <r_mmod_Stretch_Energy-OPLS-2005>
45.1569786071777

> <r_mmod_Bend_Energy-OPLS-2005>
117.028617858887

> <r_mmod_Torsional_Energy-OPLS-2005>
194.976516723633

> <r_mmod_Improper_Torsional_Energy-OPLS-2005>
3.42342615127563

> <r_mmod_Van_der_Waal_Energy-OPLS-2005>
157.697662353516

> <r_mmod_Electrostatic_Energy-OPLS-2005>
-363.323272705078

> <r_mmod_Solvation_Energy-OPLS-2005>
-195.954849243164

> <b_mmod_Minimization_Converged-OPLS-2005>
0

> <r_mmod_RMS_Derivative-OPLS-2005>
1.88767242431641

$$$$
23
                    3D
 Structure written by MMmdl.
159168  0  0  1  0            999 V2000
  -30.4650  -15.1935   20.3874 C   0  0  0  0  0  0
  -30.4340  -12.7591   19.5207 C   0  0  0  0  0  0
  -29.5289  -12.5682   18.2791 C   0  0  0  0  0  0
  -28.0743  -12.3045   18.7046 C   0  0  0  0  0  0
  -27.6131  -13.2698   19.8256 C   0  0  2  0  0  0
  -28.6484  -13.4141   20.9614 C   0  0  0  0  0  0
  -25.2386  -13.8247   20.5733 C   0  0  0  0  0  0
  -24.1737  -13.0441   20.9255 C   0  0  0  0  0  0
  -24.6385  -11.6934   20.8759 C   0  0  0  0  0  0
  -23.9078  -10.4294   21.0408 C   0  0  0  0  0  0
  -24.3623   -9.4207   21.9188 C   0  0  0  0  0  0
  -23.6293   -8.2245   22.0754 C   0  0  0  0  0  0
  -22.4278   -8.0280   21.3537 C   0  0  0  0  0  0
  -21.9915   -9.0260   20.4643 C   0  0  0  0  0  0
  -22.7248  -10.2137   20.3054 C   0  0  0  0  0  0
  -21.6859   -6.0731   22.5276 C   0  0  0  0  0  0
  -21.4017   -6.5636   23.8211 C   0  0  0  0  0  0
  -21.3664   -5.6788   24.9175 C   0  0  0  0  0  0
  -21.6046   -4.3050   24.7227 C   0  0  0  0  0  0
  -21.8821   -3.8139   23.4346 C   0  0  0  0  0  0
  -21.9193   -4.6958   22.3401 C   0  0  0  0  0  0
  -22.7760  -13.5199   21.1904 C   0  0  0  0  0  0
  -22.1662   -4.2139   21.0976 F   0  0  0  0  0  0
  -21.5632   -3.4532   25.7738 F   0  0  0  0  0  0
  -29.8882  -13.8999   20.3381 N   0  0  0  0  0  0
  -26.2809  -12.9509   20.3219 N   0  0  0  0  0  0
  -25.9322  -11.6617   20.5727 N   0  0  0  0  0  0
  -22.0412  -12.8186   22.0460 N   0  0  0  0  0  0
  -25.4026  -15.1976   20.4159 N   0  0  0  0  0  0
  -31.6850  -15.1948   20.1738 O   0  0  0  0  0  0
  -21.6642   -6.8880   21.4240 O   0  0  0  0  0  0
  -22.3445  -14.5510   20.6758 O   0  0  0  0  0  0
  -24.6607  -31.8285   23.1739 C   0  0  0  0  0  0
  -25.9303  -32.4618   23.8195 C   0  0  1  0  0  0
  -27.2113  -26.9585   20.1878 C   0  0  0  0  0  0
  -25.5974  -33.8428   24.2094 N   0  0  0  0  0  0
  -23.4742  -30.4417   21.5235 C   0  0  2  0  0  0
  -24.9258  -28.8355   20.1160 C   0  0  0  0  0  0
  -22.7666  -29.4462   22.4794 C   0  0  0  0  0  0
  -18.0326  -28.1399   22.8466 C   0  0  0  0  0  0
  -24.1494  -36.7218   23.2642 C   0  0  0  0  0  0
  -26.0414  -30.6455   21.4007 C   0  0  0  0  0  0
  -26.1103  -29.2371   20.7477 C   0  0  0  0  0  0
  -27.2524  -28.3201   20.7580 C   0  0  0  0  0  0
  -26.0011  -26.7070   19.5040 C   0  0  0  0  0  0
  -24.8943  -27.5890   19.4742 C   0  0  0  0  0  0
  -23.7125  -29.7615   20.1489 C   0  0  0  0  0  0
  -25.4133  -36.2984   24.0299 C   0  0  1  0  0  0
  -20.5945  -28.3756   23.1186 C   0  0  2  0  0  0
  -20.6806  -26.9439   22.5393 C   0  0  0  0  0  0
  -19.5779  -26.6373   21.5202 C   0  0  0  0  0  0
  -18.1963  -26.7937   22.1614 C   0  0  0  0  0  0
  -19.1584  -28.8893   23.2815 C   0  0  0  0  0  0
  -18.9500  -30.1479   23.8857 C   0  0  0  0  0  0
  -17.6498  -30.6595   24.0547 C   0  0  0  0  0  0
  -25.9104  -34.9370   23.5023 C   0  0  0  0  0  0
  -16.5383  -29.9082   23.6340 C   0  0  0  0  0  0
  -16.7311  -28.6494   23.0367 C   0  0  0  0  0  0
  -26.4555  -31.6547   25.0716 C   0  0  0  0  0  0
  -25.3679  -31.3778   26.1368 C   0  0  0  0  0  0
  -27.0458  -30.2922   24.6421 C   0  0  0  0  0  0
  -27.6049  -32.4358   25.7518 C   0  0  0  0  0  0
  -27.5577  -37.1760   24.8463 C   0  0  0  0  0  0
  -21.4335  -29.3054   22.3546 N   0  0  0  0  0  0
  -26.4285  -37.3712   23.9409 N   0  0  0  0  0  0
  -24.7468  -30.9977   22.0864 N   0  0  0  0  0  0
  -23.4228  -28.8021   23.3018 O   0  0  0  0  0  0
  -28.2059  -25.8566   20.2212 O   0  0  0  0  0  0
  -26.5713  -34.8903   22.4623 O   0  0  0  0  0  0
  -23.5681  -32.1242   23.6837 O   0  0  0  0  0  0
  -28.5403  -20.2556   19.4355 C   0  0  0  0  0  0
  -28.1384  -21.6859   19.3596 C   0  0  0  0  0  0
  -29.4026  -19.6408   20.4241 C   0  0  0  0  0  0
  -28.5520  -22.7280   20.2983 C   0  0  0  0  0  0
  -29.7623  -20.7571   21.3018 C   0  0  0  0  0  0
  -25.4476  -20.7474   17.1075 C   0  0  0  0  0  0
  -26.3580  -21.3772   16.0562 C   0  0  0  0  0  0
  -25.7693  -21.4922   18.4068 C   0  0  0  0  0  0
  -27.6477  -21.6785   16.8178 C   0  0  0  0  0  0
  -27.1830  -22.0802   18.2317 C   0  0  0  0  0  0
  -30.1468  -18.0572   20.4147 C   0  0  0  0  0  0
  -27.8169  -24.2988   20.5128 C   0  0  0  0  0  0
  -29.3570  -22.1218   21.2589 N   0  0  0  0  0  0
  -29.7184  -16.4628   20.4722 N   0  0  0  0  0  0
  -30.8565  -20.4200   22.5929 Cl  0  0  0  0  0  0
  -31.4581  -12.9475   19.1960 H   0  0  0  0  0  0
  -30.4784  -11.8424   20.1109 H   0  0  0  0  0  0
  -29.8942  -11.7490   17.6583 H   0  0  0  0  0  0
  -29.5702  -13.4660   17.6605 H   0  0  0  0  0  0
  -28.0188  -11.2758   19.0628 H   0  0  0  0  0  0
  -27.4059  -12.3666   17.8446 H   0  0  0  0  0  0
  -27.5386  -14.2450   19.3432 H   0  0  0  0  0  0
  -28.7978  -12.4701   21.4884 H   0  0  0  0  0  0
  -28.3017  -14.1344   21.7038 H   0  0  0  0  0  0
  -25.2763   -9.5696   22.4772 H   0  0  0  0  0  0
  -24.0001   -7.4644   22.7478 H   0  0  0  0  0  0
  -21.0844   -8.8786   19.8949 H   0  0  0  0  0  0
  -22.3700  -10.9685   19.6166 H   0  0  0  0  0  0
  -21.2010   -7.6142   23.9715 H   0  0  0  0  0  0
  -21.1487   -6.0514   25.9080 H   0  0  0  0  0  0
  -22.0593   -2.7600   23.2849 H   0  0  0  0  0  0
  -22.4026  -11.9840   22.4840 H   0  0  0  0  0  0
  -21.1028  -13.1218   22.2668 H   0  0  0  0  0  0
  -24.6290  -15.8444   20.5218 H   0  0  0  0  0  0
  -26.2395  -15.6395   20.0615 H   0  0  0  0  0  0
  -26.7381  -32.5171   23.0921 H   0  0  0  0  0  0
  -25.0060  -33.9501   25.0201 H   0  0  0  0  0  0
  -22.7852  -31.2719   21.3557 H   0  0  0  0  0  0
  -23.3777  -35.9529   23.3274 H   0  0  0  0  0  0
  -24.3564  -36.8898   22.2062 H   0  0  0  0  0  0
  -23.7229  -37.6383   23.6728 H   0  0  0  0  0  0
  -26.2177  -31.3879   20.6217 H   0  0  0  0  0  0
  -26.9027  -30.7014   22.0539 H   0  0  0  0  0  0
  -28.1532  -28.6256   21.2724 H   0  0  0  0  0  0
  -25.8782  -25.7643   18.9924 H   0  0  0  0  0  0
  -23.9958  -27.2761   18.9596 H   0  0  0  0  0  0
  -23.8686  -30.5312   19.3926 H   0  0  0  0  0  0
  -22.8229  -29.2146   19.8308 H   0  0  0  0  0  0
  -25.1324  -36.1795   25.0787 H   0  0  0  0  0  0
  -21.0025  -28.3364   24.1309 H   0  0  0  0  0  0
  -20.5684  -26.2373   23.3631 H   0  0  0  0  0  0
  -21.6675  -26.7421   22.1197 H   0  0  0  0  0  0
  -19.6946  -25.6266   21.1274 H   0  0  0  0  0  0
  -19.6719  -27.3152   20.6706 H   0  0  0  0  0  0
  -17.4228  -26.6676   21.4019 H   0  0  0  0  0  0
  -18.0362  -26.0080   22.9009 H   0  0  0  0  0  0
  -19.7974  -30.7293   24.2220 H   0  0  0  0  0  0
  -17.5052  -31.6276   24.5158 H   0  0  0  0  0  0
  -15.5382  -30.2972   23.7685 H   0  0  0  0  0  0
  -15.8707  -28.0796   22.7116 H   0  0  0  0  0  0
  -24.5884  -30.7113   25.7656 H   0  0  0  0  0  0
  -24.8837  -32.2969   26.4682 H   0  0  0  0  0  0
  -25.7905  -30.9009   27.0222 H   0  0  0  0  0  0
  -26.3122  -29.6594   24.1415 H   0  0  0  0  0  0
  -27.3986  -29.7295   25.5069 H   0  0  0  0  0  0
  -27.9063  -30.4111   23.9838 H   0  0  0  0  0  0
  -27.2625  -33.3709   26.1969 H   0  0  0  0  0  0
  -28.3924  -32.6837   25.0390 H   0  0  0  0  0  0
  -28.0655  -31.8571   26.5531 H   0  0  0  0  0  0
  -28.2556  -38.0090   24.7539 H   0  0  0  0  0  0
  -28.1113  -36.2618   24.6271 H   0  0  0  0  0  0
  -27.2300  -37.1377   25.8863 H   0  0  0  0  0  0
  -20.9592  -29.8753   21.6686 H   0  0  0  0  0  0
  -26.0147  -38.2773   24.1430 H   0  0  0  0  0  0
  -28.1680  -19.5922   18.6691 H   0  0  0  0  0  0
  -25.7007  -19.6921   17.2213 H   0  0  0  0  0  0
  -24.3912  -20.8034   16.8405 H   0  0  0  0  0  0
  -25.9177  -22.3067   15.6925 H   0  0  0  0  0  0
  -26.5184  -20.7251   15.1968 H   0  0  0  0  0  0
  -25.6855  -20.8262   19.2673 H   0  0  0  0  0  0
  -25.0520  -22.2997   18.5639 H   0  0  0  0  0  0
  -28.2467  -22.4550   16.3405 H   0  0  0  0  0  0
  -28.2562  -20.7752   16.8248 H   0  0  0  0  0  0
  -27.0833  -23.1646   18.2045 H   0  0  0  0  0  0
  -30.8898  -18.1109   21.2089 H   0  0  0  0  0  0
  -30.7550  -18.0998   19.5108 H   0  0  0  0  0  0
  -27.6605  -24.3188   21.5914 H   0  0  0  0  0  0
  -26.8032  -24.1675   20.1427 H   0  0  0  0  0  0
  -28.7265  -16.3154   20.5867 H   0  0  0  0  0  0
  1 25  1  0  0  0
  1 30  2  0  0  0
  1 84  1  0  0  0
  2  3  1  0  0  0
  2 25  1  0  0  0
  2 86  1  0  0  0
  2 87  1  0  0  0
  3  4  1  0  0  0
  3 88  1  0  0  0
  3 89  1  0  0  0
  4  5  1  0  0  0
  4 90  1  0  0  0
  4 91  1  0  0  0
  5  6  1  0  0  0
  5 26  1  0  0  0
  5 92  1  0  0  0
  6 25  1  0  0  0
  6 93  1  0  0  0
  6 94  1  0  0  0
  7  8  2  0  0  0
  7 26  1  0  0  0
  7 29  1  0  0  0
  8  9  1  0  0  0
  8 22  1  0  0  0
  9 10  1  0  0  0
  9 27  2  0  0  0
 10 11  2  0  0  0
 10 15  1  0  0  0
 11 12  1  0  0  0
 11 95  1  0  0  0
 12 13  2  0  0  0
 12 96  1  0  0  0
 13 14  1  0  0  0
 13 31  1  0  0  0
 14 15  2  0  0  0
 14 97  1  0  0  0
 15 98  1  0  0  0
 16 17  2  0  0  0
 16 21  1  0  0  0
 16 31  1  0  0  0
 17 18  1  0  0  0
 17 99  1  0  0  0
 18 19  2  0  0  0
 18100  1  0  0  0
 19 20  1  0  0  0
 19 24  1  0  0  0
 20 21  2  0  0  0
 20101  1  0  0  0
 21 23  1  0  0  0
 22 28  1  0  0  0
 22 32  2  0  0  0
 26 27  1  0  0  0
 28102  1  0  0  0
 28103  1  0  0  0
 29104  1  0  0  0
 29105  1  0  0  0
 33 34  1  0  0  0
 33 66  1  0  0  0
 33 70  2  0  0  0
 34 36  1  0  0  0
 34 59  1  0  0  0
 34106  1  0  0  0
 35 44  2  0  0  0
 35 45  1  0  0  0
 35 68  1  0  0  0
 36 56  1  0  0  0
 36107  1  0  0  0
 37 39  1  0  0  0
 37 47  1  0  0  0
 37 66  1  0  0  0
 37108  1  0  0  0
 38 43  2  0  0  0
 38 46  1  0  0  0
 38 47  1  0  0  0
 39 64  1  0  0  0
 39 67  2  0  0  0
 40 52  1  0  0  0
 40 53  2  0  0  0
 40 58  1  0  0  0
 41109  1  0  0  0
 41110  1  0  0  0
 41111  1  0  0  0
 41 48  1  0  0  0
 42 43  1  0  0  0
 42 66  1  0  0  0
 42112  1  0  0  0
 42113  1  0  0  0
 43 44  1  0  0  0
 44114  1  0  0  0
 45 46  2  0  0  0
 45115  1  0  0  0
 46116  1  0  0  0
 47117  1  0  0  0
 47118  1  0  0  0
 48 56  1  0  0  0
 48 65  1  0  0  0
 48119  1  0  0  0
 49 50  1  0  0  0
 49 53  1  0  0  0
 49 64  1  0  0  0
 49120  1  0  0  0
 50 51  1  0  0  0
 50121  1  0  0  0
 50122  1  0  0  0
 51 52  1  0  0  0
 51123  1  0  0  0
 51124  1  0  0  0
 52125  1  0  0  0
 52126  1  0  0  0
 53 54  1  0  0  0
 54 55  2  0  0  0
 54127  1  0  0  0
 55 57  1  0  0  0
 55128  1  0  0  0
 56 69  2  0  0  0
 57 58  2  0  0  0
 57129  1  0  0  0
 58130  1  0  0  0
 59 60  1  0  0  0
 59 61  1  0  0  0
 59 62  1  0  0  0
 60131  1  0  0  0
 60132  1  0  0  0
 60133  1  0  0  0
 61134  1  0  0  0
 61135  1  0  0  0
 61136  1  0  0  0
 62137  1  0  0  0
 62138  1  0  0  0
 62139  1  0  0  0
 63 65  1  0  0  0
 63140  1  0  0  0
 63141  1  0  0  0
 63142  1  0  0  0
 64143  1  0  0  0
 65144  1  0  0  0
 68 82  1  0  0  0
 71 72  2  0  0  0
 71 73  1  0  0  0
 71145  1  0  0  0
 72 74  1  0  0  0
 72 80  1  0  0  0
 73 75  2  0  0  0
 73 81  1  0  0  0
 74 82  1  0  0  0
 74 83  2  0  0  0
 75 83  1  0  0  0
 75 85  1  0  0  0
 76 77  1  0  0  0
 76 78  1  0  0  0
 76146  1  0  0  0
 76147  1  0  0  0
 77 79  1  0  0  0
 77148  1  0  0  0
 77149  1  0  0  0
 78 80  1  0  0  0
 78150  1  0  0  0
 78151  1  0  0  0
 79 80  1  0  0  0
 79152  1  0  0  0
 79153  1  0  0  0
 80154  1  0  0  0
 81 84  1  0  0  0
 81155  1  0  0  0
 81156  1  0  0  0
 82157  1  0  0  0
 82158  1  0  0  0
 84159  1  0  0  0
M  ISO  4   1 100  68 101  82 101  84 100
M  END
> <chiral flag>
0

> <version>
0

> <s_m_source_file>
/data/baiqing/PycharmProjects/Reinvent-master-3.2/result/LINK_invent/BTK/process_docking_weight1_custom_sum_contain_oxygen_bond_distance_aromatic_linkinvent_7_9_3/rearranged_h_0031.sdf

> <i_m_source_file_index>
24

> <r_mmod_Potential_Energy-OPLS-2005>
1060.60461425781

> <r_mmod_Stretch_Energy-OPLS-2005>
472.499359130859

> <r_mmod_Bend_Energy-OPLS-2005>
453.377014160156

> <r_mmod_Torsional_Energy-OPLS-2005>
289.734710693359

> <r_mmod_Improper_Torsional_Energy-OPLS-2005>
9.0257043838501

> <r_mmod_Van_der_Waal_Energy-OPLS-2005>
131.503677368164

> <r_mmod_Electrostatic_Energy-OPLS-2005>
-470.895538330078

> <r_mmod_Solvation_Energy-OPLS-2005>
-222.689758300781

> <b_mmod_Minimization_Converged-OPLS-2005>
0

> <r_mmod_RMS_Derivative-OPLS-2005>
1.31206095218658

$$$$
24
                    3D
 Structure written by MMmdl.
174183  0  0  1  0            999 V2000
  -30.0310  -14.4870   19.3962 C   0  0  0  0  0  0
  -30.8238  -12.2679   19.4607 C   0  0  0  0  0  0
  -29.7617  -11.7470   18.5190 C   0  0  0  0  0  0
  -28.5161  -11.5559   19.4305 C   0  0  0  0  0  0
  -28.2101  -12.6875   20.5995 C   0  0  2  0  0  0
  -29.3934  -13.1450   21.2802 C   0  0  0  0  0  0
  -25.9306  -13.9899   20.6948 C   0  0  0  0  0  0
  -24.1981  -13.4435   20.6717 C   0  0  0  0  0  0
  -24.0535  -12.2251   20.2374 C   0  0  0  0  0  0
  -23.6299  -10.7735   20.8132 C   0  0  0  0  0  0
  -24.1315   -9.8415   21.8255 C   0  0  0  0  0  0
  -23.5771   -8.5370   22.0596 C   0  0  0  0  0  0
  -22.4301   -8.1264   21.3376 C   0  0  0  0  0  0
  -21.9306   -9.0178   20.3782 C   0  0  0  0  0  0
  -22.5232  -10.2666   20.1178 C   0  0  0  0  0  0
  -21.7473   -6.1093   22.5350 C   0  0  0  0  0  0
  -21.4429   -6.5919   23.8271 C   0  0  0  0  0  0
  -21.3786   -5.6993   24.9173 C   0  0  0  0  0  0
  -21.6016   -4.3226   24.7192 C   0  0  0  0  0  0
  -21.8796   -3.8350   23.4314 C   0  0  0  0  0  0
  -21.9424   -4.7223   22.3436 C   0  0  0  0  0  0
  -22.6915  -13.8618   21.1242 C   0  0  0  0  0  0
  -22.1782   -4.2379   21.0997 F   0  0  0  0  0  0
  -21.5436   -3.4661   25.7655 F   0  0  0  0  0  0
  -30.2466  -13.4075   20.1543 N   0  0  0  0  0  0
  -26.9539  -13.6609   20.7224 N   0  0  0  0  0  0
  -25.0213  -13.3829   20.5494 N   0  0  0  0  0  0
  -22.0414  -13.0575   21.9808 N   0  0  0  0  0  0
  -26.9415  -15.0707   20.8522 N   0  0  0  0  0  0
  -31.0186  -15.2428   19.4760 O   0  0  0  0  0  0
  -21.7575   -6.9209   21.4258 O   0  0  0  0  0  0
  -22.1390  -14.8342   20.6377 O   0  0  0  0  0  0
  -24.6726  -31.8203   23.1722 C   0  0  0  0  0  0
  -25.9420  -32.4527   23.8144 C   0  0  1  0  0  0
  -26.8154  -26.6596   20.2981 C   0  0  0  0  0  0
  -25.6073  -33.8365   24.2025 N   0  0  0  0  0  0
  -23.4718  -30.4585   21.5271 C   0  0  2  0  0  0
  -24.8587  -28.8411   20.0802 C   0  0  0  0  0  0
  -22.7635  -29.4454   22.4680 C   0  0  0  0  0  0
  -18.0304  -28.1415   22.8437 C   0  0  0  0  0  0
  -24.1485  -36.7158   23.2638 C   0  0  0  0  0  0
  -26.0493  -30.5362   21.4382 C   0  0  0  0  0  0
  -26.0407  -29.1144   20.7764 C   0  0  0  0  0  0
  -27.0440  -28.0315   20.8631 C   0  0  0  0  0  0
  -25.7125  -26.6322   19.4507 C   0  0  0  0  0  0
  -24.7423  -27.6424   19.3740 C   0  0  0  0  0  0
  -23.6958  -29.8265   20.1307 C   0  0  0  0  0  0
  -25.4139  -36.2916   24.0274 C   0  0  1  0  0  0
  -20.5933  -28.3764   23.1139 C   0  0  2  0  0  0
  -20.6801  -26.9442   22.5376 C   0  0  0  0  0  0
  -19.5786  -26.6366   21.5194 C   0  0  0  0  0  0
  -18.1954  -26.7940   22.1598 C   0  0  0  0  0  0
  -19.1568  -28.8909   23.2775 C   0  0  0  0  0  0
  -18.9491  -30.1493   23.8822 C   0  0  0  0  0  0
  -17.6492  -30.6606   24.0548 C   0  0  0  0  0  0
  -25.9134  -34.9321   23.4946 C   0  0  0  0  0  0
  -16.5371  -29.9099   23.6360 C   0  0  0  0  0  0
  -16.7284  -28.6517   23.0369 C   0  0  0  0  0  0
  -26.4597  -31.6549   25.0758 C   0  0  0  0  0  0
  -25.3685  -31.3892   26.1392 C   0  0  0  0  0  0
  -27.0550  -30.2887   24.6695 C   0  0  0  0  0  0
  -27.6042  -32.4411   25.7588 C   0  0  0  0  0  0
  -27.5561  -37.1739   24.8457 C   0  0  0  0  0  0
  -21.4305  -29.3056   22.3463 N   0  0  0  0  0  0
  -26.4258  -37.3687   23.9412 N   0  0  0  0  0  0
  -24.7584  -30.9762   22.0927 N   0  0  0  0  0  0
  -23.4196  -28.7946   23.2855 O   0  0  0  0  0  0
  -27.4282  -25.2904   20.4471 O   0  0  0  0  0  0
  -26.5743  -34.8881   22.4544 O   0  0  0  0  0  0
  -23.5803  -32.1336   23.6732 O   0  0  0  0  0  0
  -24.9043  -15.0638   22.3157 C   0  0  0  0  0  0
  -25.6172  -12.9117   22.6496 C   0  0  0  0  0  0
  -26.1915  -11.5696   20.8495 C   0  0  0  0  0  0
  -24.7397  -15.8488   20.3093 C   0  0  0  0  0  0
  -26.1363  -12.8106   18.7290 C   0  0  0  0  0  0
  -25.3074  -16.3825   23.1273 C   0  0  0  0  0  0
  -25.1639  -18.0042   22.6303 C   0  0  0  0  0  0
  -25.2734  -18.8447   21.1879 C   0  0  2  0  0  0
  -25.2135  -17.5308   20.0355 C   0  0  0  0  0  0
  -24.3183  -18.0187   18.8807 C   0  0  0  0  0  0
  -26.6597  -17.5921   19.4690 C   0  0  0  0  0  0
  -27.1632  -11.6734   24.2357 C   0  0  0  0  0  0
  -25.8483  -12.4404   24.0648 C   0  0  0  0  0  0
  -27.5048  -13.5996   17.8949 C   0  0  0  0  0  0
  -26.3268  -21.9436   20.3814 C   0  0  0  0  0  0
  -26.6809  -23.7653   20.8989 C   0  0  0  0  0  0
  -25.2845  -14.7081   18.6857 N   0  0  0  0  0  0
  -28.8481  -14.5305   18.4709 N   0  0  0  0  0  0
  -26.0735  -20.4302   21.2312 N   0  3  0  0  0  0
  -26.6917  -10.3144   20.9914 F   0  0  0  0  0  0
  -31.7284  -12.5435   18.9163 H   0  0  0  0  0  0
  -31.1217  -11.5061   20.1821 H   0  0  0  0  0  0
  -30.0694  -10.7685   18.1486 H   0  0  0  0  0  0
  -29.6990  -12.3430   17.6162 H   0  0  0  0  0  0
  -28.7983  -10.6856   20.0264 H   0  0  0  0  0  0
  -27.7181  -11.0921   18.8532 H   0  0  0  0  0  0
  -28.2143  -12.9994   19.7498 H   0  0  0  0  0  0
  -29.8092  -12.3712   21.9216 H   0  0  0  0  0  0
  -29.2251  -14.0343   21.8874 H   0  0  0  0  0  0
  -24.9589  -10.1250   22.4553 H   0  0  0  0  0  0
  -24.0151   -7.8913   22.8106 H   0  0  0  0  0  0
  -21.0646   -8.7261   19.7984 H   0  0  0  0  0  0
  -22.0762  -10.8735   19.3406 H   0  0  0  0  0  0
  -21.2539   -7.6445   23.9814 H   0  0  0  0  0  0
  -21.1529   -6.0710   25.9063 H   0  0  0  0  0  0
  -22.0366   -2.7788   23.2753 H   0  0  0  0  0  0
  -22.4793  -12.2340   22.3616 H   0  0  0  0  0  0
  -21.0953  -13.2883   22.2539 H   0  0  0  0  0  0
  -26.4297  -15.5823   21.5599 H   0  0  0  0  0  0
  -26.8086  -15.5508   19.9697 H   0  0  0  0  0  0
  -26.7481  -32.4959   23.0832 H   0  0  0  0  0  0
  -25.0178  -33.9425   25.0139 H   0  0  0  0  0  0
  -22.7920  -31.3004   21.3849 H   0  0  0  0  0  0
  -23.3778  -35.9453   23.3251 H   0  0  0  0  0  0
  -24.3542  -36.8875   22.2058 H   0  0  0  0  0  0
  -23.7218  -37.6306   23.6759 H   0  0  0  0  0  0
  -26.2814  -31.2623   20.6584 H   0  0  0  0  0  0
  -26.8983  -30.5630   22.1088 H   0  0  0  0  0  0
  -27.9104  -28.1885   21.4827 H   0  0  0  0  0  0
  -25.4942  -25.7144   18.9253 H   0  0  0  0  0  0
  -23.8547  -27.4490   18.7920 H   0  0  0  0  0  0
  -23.9017  -30.6180   19.4084 H   0  0  0  0  0  0
  -22.7825  -29.3394   19.7803 H   0  0  0  0  0  0
  -25.1347  -36.1663   25.0767 H   0  0  0  0  0  0
  -21.0045  -28.3383   24.1259 H   0  0  0  0  0  0
  -20.5693  -26.2387   23.3618 H   0  0  0  0  0  0
  -21.6666  -26.7434   22.1186 H   0  0  0  0  0  0
  -19.6970  -25.6260   21.1278 H   0  0  0  0  0  0
  -19.6739  -27.3126   20.6683 H   0  0  0  0  0  0
  -17.4226  -26.6624   21.3998 H   0  0  0  0  0  0
  -18.0367  -26.0115   22.9035 H   0  0  0  0  0  0
  -19.7969  -30.7317   24.2159 H   0  0  0  0  0  0
  -17.5057  -31.6288   24.5151 H   0  0  0  0  0  0
  -15.5378  -30.2999   23.7763 H   0  0  0  0  0  0
  -15.8653  -28.0840   22.7155 H   0  0  0  0  0  0
  -24.5828  -30.7292   25.7697 H   0  0  0  0  0  0
  -24.8937  -32.3146   26.4676 H   0  0  0  0  0  0
  -25.7869  -30.9127   27.0275 H   0  0  0  0  0  0
  -26.3262  -29.6471   24.1749 H   0  0  0  0  0  0
  -27.4015  -29.7374   25.5450 H   0  0  0  0  0  0
  -27.9236  -30.4006   24.0212 H   0  0  0  0  0  0
  -27.2551  -33.3753   26.2030 H   0  0  0  0  0  0
  -28.3944  -32.6936   25.0493 H   0  0  0  0  0  0
  -28.0643  -31.8663   26.5649 H   0  0  0  0  0  0
  -28.2522  -38.0087   24.7562 H   0  0  0  0  0  0
  -28.1119  -36.2620   24.6221 H   0  0  0  0  0  0
  -27.2293  -37.1302   25.8860 H   0  0  0  0  0  0
  -20.9524  -29.8768   21.6616 H   0  0  0  0  0  0
  -26.0075  -38.2722   24.1468 H   0  0  0  0  0  0
  -26.3730  -16.2446   23.3253 H   0  0  0  0  0  0
  -24.8382  -16.2982   24.1088 H   0  0  0  0  0  0
  -25.8137  -18.5471   23.3158 H   0  0  0  0  0  0
  -24.1691  -18.2738   22.9873 H   0  0  0  0  0  0
  -24.2567  -19.2258   21.0903 H   0  0  0  0  0  0
  -23.2629  -17.9561   19.1400 H   0  0  0  0  0  0
  -24.4722  -17.4139   17.9837 H   0  0  0  0  0  0
  -24.5370  -19.0560   18.6169 H   0  0  0  0  0  0
  -27.4142  -17.4698   20.2471 H   0  0  0  0  0  0
  -26.8688  -18.5600   19.0086 H   0  0  0  0  0  0
  -26.8323  -16.8504   18.6876 H   0  0  0  0  0  0
  -27.3211  -11.4345   25.2873 H   0  0  0  0  0  0
  -28.0183  -12.2546   23.8916 H   0  0  0  0  0  0
  -27.1535  -10.7370   23.6813 H   0  0  0  0  0  0
  -25.0086  -11.8161   24.3690 H   0  0  0  0  0  0
  -25.8437  -13.3217   24.7061 H   0  0  0  0  0  0
  -27.0406  -14.3061   17.2116 H   0  0  0  0  0  0
  -27.8242  -12.8823   17.1450 H   0  0  0  0  0  0
  -27.1840  -21.6949   19.7519 H   0  0  0  0  0  0
  -25.5097  -22.0080   19.6639 H   0  0  0  0  0  0
  -27.2145  -23.6061   21.8363 H   0  0  0  0  0  0
  -25.6999  -24.1084   21.2312 H   0  0  0  0  0  0
  -28.8850  -15.3972   17.9581 H   0  0  0  0  0  0
  -27.0055  -20.1998   21.5414 H   0  0  0  0  0  0
  -25.6268  -20.7935   22.0583 H   0  0  0  0  0  0
  1 25  1  0  0  0
  1 30  2  0  0  0
  1 88  1  0  0  0
  2  3  1  0  0  0
  2 25  1  0  0  0
  2 91  1  0  0  0
  2 92  1  0  0  0
  3  4  1  0  0  0
  3 93  1  0  0  0
  3 94  1  0  0  0
  4  5  1  0  0  0
  4 95  1  0  0  0
  4 96  1  0  0  0
  5  6  1  0  0  0
  5 26  1  0  0  0
  5 97  1  0  0  0
  6 25  1  0  0  0
  6 98  1  0  0  0
  6 99  1  0  0  0
  7  8  2  0  0  0
  7 26  1  0  0  0
  7 29  1  0  0  0
  8  9  1  0  0  0
  8 22  1  0  0  0
  9 10  1  0  0  0
  9 27  2  0  0  0
 10 11  2  0  0  0
 10 15  1  0  0  0
 11 12  1  0  0  0
 11100  1  0  0  0
 12 13  2  0  0  0
 12101  1  0  0  0
 13 14  1  0  0  0
 13 31  1  0  0  0
 14 15  2  0  0  0
 14102  1  0  0  0
 15103  1  0  0  0
 16 17  2  0  0  0
 16 21  1  0  0  0
 16 31  1  0  0  0
 17 18  1  0  0  0
 17104  1  0  0  0
 18 19  2  0  0  0
 18105  1  0  0  0
 19 20  1  0  0  0
 19 24  1  0  0  0
 20 21  2  0  0  0
 20106  1  0  0  0
 21 23  1  0  0  0
 22 28  1  0  0  0
 22 32  2  0  0  0
 26 27  1  0  0  0
 28107  1  0  0  0
 28108  1  0  0  0
 29109  1  0  0  0
 29110  1  0  0  0
 33 34  1  0  0  0
 33 66  1  0  0  0
 33 70  2  0  0  0
 34 36  1  0  0  0
 34 59  1  0  0  0
 34111  1  0  0  0
 35 44  2  0  0  0
 35 45  1  0  0  0
 35 68  1  0  0  0
 36 56  1  0  0  0
 36112  1  0  0  0
 37 39  1  0  0  0
 37 47  1  0  0  0
 37 66  1  0  0  0
 37113  1  0  0  0
 38 43  2  0  0  0
 38 46  1  0  0  0
 38 47  1  0  0  0
 39 64  1  0  0  0
 39 67  2  0  0  0
 40 52  1  0  0  0
 40 53  2  0  0  0
 40 58  1  0  0  0
 41114  1  0  0  0
 41115  1  0  0  0
 41116  1  0  0  0
 41 48  1  0  0  0
 42 43  1  0  0  0
 42 66  1  0  0  0
 42117  1  0  0  0
 42118  1  0  0  0
 43 44  1  0  0  0
 44119  1  0  0  0
 45 46  2  0  0  0
 45120  1  0  0  0
 46121  1  0  0  0
 47122  1  0  0  0
 47123  1  0  0  0
 48 56  1  0  0  0
 48 65  1  0  0  0
 48124  1  0  0  0
 49 50  1  0  0  0
 49 53  1  0  0  0
 49 64  1  0  0  0
 49125  1  0  0  0
 50 51  1  0  0  0
 50126  1  0  0  0
 50127  1  0  0  0
 51 52  1  0  0  0
 51128  1  0  0  0
 51129  1  0  0  0
 52130  1  0  0  0
 52131  1  0  0  0
 53 54  1  0  0  0
 54 55  2  0  0  0
 54132  1  0  0  0
 55 57  1  0  0  0
 55133  1  0  0  0
 56 69  2  0  0  0
 57 58  2  0  0  0
 57134  1  0  0  0
 58135  1  0  0  0
 59 60  1  0  0  0
 59 61  1  0  0  0
 59 62  1  0  0  0
 60136  1  0  0  0
 60137  1  0  0  0
 60138  1  0  0  0
 61139  1  0  0  0
 61140  1  0  0  0
 61141  1  0  0  0
 62142  1  0  0  0
 62143  1  0  0  0
 62144  1  0  0  0
 63 65  1  0  0  0
 63145  1  0  0  0
 63146  1  0  0  0
 63147  1  0  0  0
 64148  1  0  0  0
 65149  1  0  0  0
 68 86  1  0  0  0
 71 72  2  0  0  0
 71 74  1  0  0  0
 71 76  1  0  0  0
 72 73  1  0  0  0
 72 83  1  0  0  0
 73 75  2  0  0  0
 73 90  1  0  0  0
 74 79  1  0  0  0
 74 87  2  0  0  0
 75 84  1  0  0  0
 75 87  1  0  0  0
 76 77  1  0  0  0
 76150  1  0  0  0
 76151  1  0  0  0
 77 78  1  0  0  0
 77152  1  0  0  0
 77153  1  0  0  0
 78 79  1  0  0  0
 78 89  1  0  0  0
 78154  1  0  0  0
 79 80  1  0  0  0
 79 81  1  0  0  0
 80155  1  0  0  0
 80156  1  0  0  0
 80157  1  0  0  0
 81158  1  0  0  0
 81159  1  0  0  0
 81160  1  0  0  0
 82 83  1  0  0  0
 82161  1  0  0  0
 82162  1  0  0  0
 82163  1  0  0  0
 83164  1  0  0  0
 83165  1  0  0  0
 84 88  1  0  0  0
 84166  1  0  0  0
 84167  1  0  0  0
 85 86  1  0  0  0
 85 89  1  0  0  0
 85168  1  0  0  0
 85169  1  0  0  0
 86170  1  0  0  0
 86171  1  0  0  0
 88172  1  0  0  0
 89173  1  0  0  0
 89174  1  0  0  0
M  CHG  1  89   1
M  ISO  4   1 100  68 101  86 101  88 100
M  END
> <chiral flag>
0

> <version>
0

> <s_m_source_file>
/data/baiqing/PycharmProjects/Reinvent-master-3.2/result/LINK_invent/BTK/process_docking_weight1_custom_sum_contain_oxygen_bond_distance_aromatic_linkinvent_7_9_3/rearranged_h_0031.sdf

> <i_m_source_file_index>
25

> <r_mmod_Potential_Energy-OPLS-2005>
21329.376953125

> <r_mmod_Stretch_Energy-OPLS-2005>
11463.818359375

> <r_mmod_Bend_Energy-OPLS-2005>
3075.95629882812

> <r_mmod_Torsional_Energy-OPLS-2005>
648.321228027344

> <r_mmod_Improper_Torsional_Energy-OPLS-2005>
92.2653732299805

> <r_mmod_Van_der_Waal_Energy-OPLS-2005>
4614.990234375

> <r_mmod_Electrostatic_Energy-OPLS-2005>
-452.62646484375

> <r_mmod_Solvation_Energy-OPLS-2005>
-476.473236083984

> <b_mmod_Minimization_Converged-OPLS-2005>
0

> <r_mmod_RMS_Derivative-OPLS-2005>
11.4891414642334

$$$$
25
                    3D
 Structure written by MMmdl.
185195  0  0  1  0            999 V2000
  -30.6493  -14.5141   20.5508 C   0  0  0  0  0  0
  -30.4340  -12.3266   19.4194 C   0  0  0  0  0  0
  -29.4967  -12.4958   18.2033 C   0  0  0  0  0  0
  -28.0165  -12.3565   18.6159 C   0  0  0  0  0  0
  -27.6580  -13.1993   19.8686 C   0  0  2  0  0  0
  -28.7004  -12.9835   20.9881 C   0  0  0  0  0  0
  -25.2594  -13.8128   20.5664 C   0  0  0  0  0  0
  -24.1844  -13.0427   20.9190 C   0  0  0  0  0  0
  -24.6379  -11.6881   20.8732 C   0  0  0  0  0  0
  -23.9039  -10.4281   21.0402 C   0  0  0  0  0  0
  -24.3602   -9.4214   21.9189 C   0  0  0  0  0  0
  -23.6283   -8.2246   22.0765 C   0  0  0  0  0  0
  -22.4268   -8.0265   21.3540 C   0  0  0  0  0  0
  -21.9889   -9.0239   20.4653 C   0  0  0  0  0  0
  -22.7209  -10.2129   20.3055 C   0  0  0  0  0  0
  -21.6851   -6.0731   22.5275 C   0  0  0  0  0  0
  -21.4011   -6.5643   23.8202 C   0  0  0  0  0  0
  -21.3661   -5.6800   24.9170 C   0  0  0  0  0  0
  -21.6031   -4.3052   24.7223 C   0  0  0  0  0  0
  -21.8827   -3.8149   23.4343 C   0  0  0  0  0  0
  -21.9193   -4.6963   22.3399 C   0  0  0  0  0  0
  -22.7873  -13.5248   21.1829 C   0  0  0  0  0  0
  -22.1666   -4.2149   21.0976 F   0  0  0  0  0  0
  -21.5628   -3.4536   25.7736 F   0  0  0  0  0  0
  -30.0243  -13.3110   20.4338 N   0  0  0  0  0  0
  -26.3005  -12.9280   20.3311 N   0  0  0  0  0  0
  -25.9294  -11.6447   20.5736 N   0  0  0  0  0  0
  -22.0493  -12.8244   22.0387 N   0  0  0  0  0  0
  -25.4314  -15.1849   20.4084 N   0  0  0  0  0  0
  -31.8055  -14.7047   20.1667 O   0  0  0  0  0  0
  -21.6623   -6.8868   21.4235 O   0  0  0  0  0  0
  -22.3566  -14.5555   20.6670 O   0  0  0  0  0  0
  -24.6093  -31.8682   23.2074 C   0  0  0  0  0  0
  -25.8991  -32.4823   23.8381 C   0  0  1  0  0  0
  -27.2364  -27.4220   20.1357 C   0  0  0  0  0  0
  -25.5854  -33.8625   24.2319 N   0  0  0  0  0  0
  -23.4014  -30.4877   21.5435 C   0  0  2  0  0  0
  -24.8564  -28.9579   20.1010 C   0  0  0  0  0  0
  -22.7394  -29.4659   22.4931 C   0  0  0  0  0  0
  -18.0267  -28.1409   22.8530 C   0  0  0  0  0  0
  -24.1452  -36.7302   23.2642 C   0  0  0  0  0  0
  -25.9271  -30.8377   21.3545 C   0  0  0  0  0  0
  -26.0104  -29.4699   20.7074 C   0  0  0  0  0  0
  -27.2048  -28.7141   20.7214 C   0  0  0  0  0  0
  -26.0793  -26.9395   19.4928 C   0  0  0  0  0  0
  -24.8893  -27.6944   19.4793 C   0  0  0  0  0  0
  -23.6135  -29.8174   20.1553 C   0  0  0  0  0  0
  -25.4088  -36.3117   24.0346 C   0  0  1  0  0  0
  -20.5877  -28.3670   23.1327 C   0  0  2  0  0  0
  -20.6772  -26.9401   22.5440 C   0  0  0  0  0  0
  -19.5748  -26.6420   21.5238 C   0  0  0  0  0  0
  -18.1913  -26.7971   22.1628 C   0  0  0  0  0  0
  -19.1542  -28.8854   23.2937 C   0  0  0  0  0  0
  -18.9473  -30.1479   23.8939 C   0  0  0  0  0  0
  -17.6488  -30.6633   24.0579 C   0  0  0  0  0  0
  -25.9018  -34.9490   23.5123 C   0  0  0  0  0  0
  -16.5367  -29.9137   23.6345 C   0  0  0  0  0  0
  -16.7272  -28.6546   23.0363 C   0  0  0  0  0  0
  -26.4467  -31.6595   25.0686 C   0  0  0  0  0  0
  -25.3752  -31.3705   26.1434 C   0  0  0  0  0  0
  -27.0302  -30.3036   24.6050 C   0  0  0  0  0  0
  -27.6053  -32.4304   25.7457 C   0  0  0  0  0  0
  -27.5574  -37.1811   24.8479 C   0  0  0  0  0  0
  -21.4133  -29.3031   22.3710 N   0  0  0  0  0  0
  -26.4274  -37.3817   23.9429 N   0  0  0  0  0  0
  -24.6637  -31.0795   22.0937 N   0  0  0  0  0  0
  -23.4168  -28.8194   23.2974 O   0  0  0  0  0  0
  -28.3012  -26.5557   20.3095 O   0  0  0  0  0  0
  -26.5596  -34.8944   22.4693 O   0  0  0  0  0  0
  -23.5294  -32.1401   23.7477 O   0  0  0  0  0  0
  -30.0705  -22.3799   22.9226 C   0  0  0  0  0  0
  -29.1506  -23.8488   21.2478 C   0  0  0  0  0  0
  -30.0179  -23.4022   23.8951 C   0  0  0  0  0  0
  -29.4958  -24.6976   23.5505 C   0  0  0  0  0  0
  -29.6436  -22.5675   21.5988 C   0  0  0  0  0  0
  -29.0804  -24.9188   22.1819 C   0  0  0  0  0  0
  -31.0005  -19.1828   20.1570 C   0  0  0  0  0  0
  -28.5772  -19.1474   20.8327 C   0  0  0  0  0  0
  -30.7569  -17.6663   19.9221 C   0  0  0  0  0  0
  -28.6875  -17.6905   21.3733 C   0  0  0  0  0  0
  -30.6896  -24.2264   26.2299 C   0  0  0  0  0  0
  -29.5633  -25.2258   26.0844 C   0  0  0  0  0  0
  -29.8973  -19.9338   20.9597 C   0  0  2  0  0  0
  -30.0484  -16.9762   21.1094 C   0  0  1  0  0  0
  -30.5042  -23.0148   25.3114 C   0  0  0  0  0  0
  -29.4434  -25.8089   24.6569 C   0  0  0  0  0  0
  -29.4728  -22.0523   25.9376 C   0  0  0  0  0  0
  -31.8809  -22.3075   25.2865 C   0  0  0  0  0  0
  -28.1098  -26.5942   24.7282 C   0  0  0  0  0  0
  -30.6211  -26.7926   24.4560 C   0  0  0  0  0  0
  -29.7926  -21.4549   20.5371 C   0  0  0  0  0  0
  -28.4861  -26.2740   21.7183 C   0  0  0  0  0  0
  -29.8324  -15.5193   20.9470 N   0  0  0  0  0  0
  -31.4757  -12.4533   19.1163 H   0  0  0  0  0  0
  -30.3617  -11.3163   19.8259 H   0  0  0  0  0  0
  -29.7419  -11.7580   17.4376 H   0  0  0  0  0  0
  -29.6607  -13.4724   17.7448 H   0  0  0  0  0  0
  -27.8283  -11.3006   18.8147 H   0  0  0  0  0  0
  -27.3687  -12.6252   17.7815 H   0  0  0  0  0  0
  -27.6978  -14.2448   19.5639 H   0  0  0  0  0  0
  -28.6904  -11.9449   21.3193 H   0  0  0  0  0  0
  -28.4589  -13.5723   21.8746 H   0  0  0  0  0  0
  -25.2744   -9.5692   22.4765 H   0  0  0  0  0  0
  -23.9986   -7.4640   22.7481 H   0  0  0  0  0  0
  -21.0820   -8.8744   19.8959 H   0  0  0  0  0  0
  -22.3652  -10.9661   19.6163 H   0  0  0  0  0  0
  -21.1999   -7.6148   23.9705 H   0  0  0  0  0  0
  -21.1475   -6.0528   25.9073 H   0  0  0  0  0  0
  -22.0602   -2.7608   23.2834 H   0  0  0  0  0  0
  -22.4093  -11.9903   22.4788 H   0  0  0  0  0  0
  -21.1109  -13.1284   22.2561 H   0  0  0  0  0  0
  -24.6622  -15.8350   20.5223 H   0  0  0  0  0  0
  -26.2663  -15.6204   20.0401 H   0  0  0  0  0  0
  -26.7047  -32.5576   23.1150 H   0  0  0  0  0  0
  -25.0017  -33.9793   25.0467 H   0  0  0  0  0  0
  -22.6899  -31.3040   21.4057 H   0  0  0  0  0  0
  -23.3731  -35.9615   23.3319 H   0  0  0  0  0  0
  -24.3521  -36.8877   22.2044 H   0  0  0  0  0  0
  -23.7172  -37.6505   23.6627 H   0  0  0  0  0  0
  -26.0239  -31.5921   20.5733 H   0  0  0  0  0  0
  -26.8201  -30.9029   21.9657 H   0  0  0  0  0  0
  -28.0787  -29.0983   21.2286 H   0  0  0  0  0  0
  -26.0820  -25.9475   19.0600 H   0  0  0  0  0  0
  -24.0015  -27.2941   19.0074 H   0  0  0  0  0  0
  -23.7139  -30.5896   19.3931 H   0  0  0  0  0  0
  -22.7440  -29.2304   19.8572 H   0  0  0  0  0  0
  -25.1263  -36.1997   25.0845 H   0  0  0  0  0  0
  -21.0006  -28.3244   24.1425 H   0  0  0  0  0  0
  -20.5677  -26.2264   23.3611 H   0  0  0  0  0  0
  -21.6631  -26.7441   22.1221 H   0  0  0  0  0  0
  -19.6863  -25.6337   21.1223 H   0  0  0  0  0  0
  -19.6701  -27.3267   20.6803 H   0  0  0  0  0  0
  -17.4189  -26.6764   21.4011 H   0  0  0  0  0  0
  -18.0296  -26.0116   22.9031 H   0  0  0  0  0  0
  -19.7947  -30.7331   24.2277 H   0  0  0  0  0  0
  -17.5018  -31.6304   24.5204 H   0  0  0  0  0  0
  -15.5362  -30.3054   23.7673 H   0  0  0  0  0  0
  -15.8654  -28.0891   22.7058 H   0  0  0  0  0  0
  -24.5967  -30.6991   25.7805 H   0  0  0  0  0  0
  -24.8901  -32.2852   26.4842 H   0  0  0  0  0  0
  -25.8131  -30.8955   27.0217 H   0  0  0  0  0  0
  -26.2833  -29.6772   24.1156 H   0  0  0  0  0  0
  -27.4102  -29.7279   25.4501 H   0  0  0  0  0  0
  -27.8647  -30.4357   23.9155 H   0  0  0  0  0  0
  -27.2704  -33.3616   26.2038 H   0  0  0  0  0  0
  -28.3905  -32.6799   25.0313 H   0  0  0  0  0  0
  -28.0660  -31.8389   26.5374 H   0  0  0  0  0  0
  -28.2639  -38.0080   24.7554 H   0  0  0  0  0  0
  -28.1020  -36.2614   24.6287 H   0  0  0  0  0  0
  -27.2291  -37.1450   25.8885 H   0  0  0  0  0  0
  -20.9246  -29.8735   21.6947 H   0  0  0  0  0  0
  -26.0147  -38.2880   24.1484 H   0  0  0  0  0  0
  -30.4579  -21.4218   23.2159 H   0  0  0  0  0  0
  -28.8256  -24.0235   20.2305 H   0  0  0  0  0  0
  -31.1390  -19.6498   19.1806 H   0  0  0  0  0  0
  -31.9485  -19.3167   20.6796 H   0  0  0  0  0  0
  -27.7680  -19.6675   21.3486 H   0  0  0  0  0  0
  -28.2841  -19.1199   19.7822 H   0  0  0  0  0  0
  -31.7139  -17.1947   19.7065 H   0  0  0  0  0  0
  -30.1521  -17.5362   19.0232 H   0  0  0  0  0  0
  -27.8694  -17.1265   20.9207 H   0  0  0  0  0  0
  -28.4845  -17.6802   22.4444 H   0  0  0  0  0  0
  -30.7746  -23.9112   27.2715 H   0  0  0  0  0  0
  -31.6299  -24.7305   26.0077 H   0  0  0  0  0  0
  -29.7099  -26.0231   26.8166 H   0  0  0  0  0  0
  -28.6315  -24.7379   26.3706 H   0  0  0  0  0  0
  -30.1947  -19.8421   22.0005 H   0  0  0  0  0  0
  -30.6825  -17.1020   21.9893 H   0  0  0  0  0  0
  -28.4799  -22.5005   25.9888 H   0  0  0  0  0  0
  -29.7519  -21.7581   26.9496 H   0  0  0  0  0  0
  -29.3735  -21.1363   25.3547 H   0  0  0  0  0  0
  -32.6374  -22.9185   24.7930 H   0  0  0  0  0  0
  -31.8632  -21.3388   24.7876 H   0  0  0  0  0  0
  -32.2367  -22.1189   26.3004 H   0  0  0  0  0  0
  -27.2462  -25.9303   24.6478 H   0  0  0  0  0  0
  -28.0191  -27.3912   23.9964 H   0  0  0  0  0  0
  -28.0111  -27.1111   25.6820 H   0  0  0  0  0  0
  -31.5766  -26.2719   24.3994 H   0  0  0  0  0  0
  -30.6928  -27.5130   25.2709 H   0  0  0  0  0  0
  -30.5453  -27.3783   23.5459 H   0  0  0  0  0  0
  -30.7147  -21.7310   20.0261 H   0  0  0  0  0  0
  -29.0083  -21.5693   19.7868 H   0  0  0  0  0  0
  -29.0974  -27.0851   22.0983 H   0  0  0  0  0  0
  -27.5077  -26.3224   22.2003 H   0  0  0  0  0  0
  -28.9053  -15.2018   21.1793 H   0  0  0  0  0  0
  1 25  1  0  0  0
  1 30  2  0  0  0
  1 93  1  0  0  0
  2  3  1  0  0  0
  2 25  1  0  0  0
  2 94  1  0  0  0
  2 95  1  0  0  0
  3  4  1  0  0  0
  3 96  1  0  0  0
  3 97  1  0  0  0
  4  5  1  0  0  0
  4 98  1  0  0  0
  4 99  1  0  0  0
  5  6  1  0  0  0
  5 26  1  0  0  0
  5100  1  0  0  0
  6 25  1  0  0  0
  6101  1  0  0  0
  6102  1  0  0  0
  7  8  2  0  0  0
  7 26  1  0  0  0
  7 29  1  0  0  0
  8  9  1  0  0  0
  8 22  1  0  0  0
  9 10  1  0  0  0
  9 27  2  0  0  0
 10 11  2  0  0  0
 10 15  1  0  0  0
 11 12  1  0  0  0
 11103  1  0  0  0
 12 13  2  0  0  0
 12104  1  0  0  0
 13 14  1  0  0  0
 13 31  1  0  0  0
 14 15  2  0  0  0
 14105  1  0  0  0
 15106  1  0  0  0
 16 17  2  0  0  0
 16 21  1  0  0  0
 16 31  1  0  0  0
 17 18  1  0  0  0
 17107  1  0  0  0
 18 19  2  0  0  0
 18108  1  0  0  0
 19 20  1  0  0  0
 19 24  1  0  0  0
 20 21  2  0  0  0
 20109  1  0  0  0
 21 23  1  0  0  0
 22 28  1  0  0  0
 22 32  2  0  0  0
 26 27  1  0  0  0
 28110  1  0  0  0
 28111  1  0  0  0
 29112  1  0  0  0
 29113  1  0  0  0
 33 34  1  0  0  0
 33 66  1  0  0  0
 33 70  2  0  0  0
 34 36  1  0  0  0
 34 59  1  0  0  0
 34114  1  0  0  0
 35 44  2  0  0  0
 35 45  1  0  0  0
 35 68  1  0  0  0
 36 56  1  0  0  0
 36115  1  0  0  0
 37 39  1  0  0  0
 37 47  1  0  0  0
 37 66  1  0  0  0
 37116  1  0  0  0
 38 43  2  0  0  0
 38 46  1  0  0  0
 38 47  1  0  0  0
 39 64  1  0  0  0
 39 67  2  0  0  0
 40 52  1  0  0  0
 40 53  2  0  0  0
 40 58  1  0  0  0
 41117  1  0  0  0
 41118  1  0  0  0
 41119  1  0  0  0
 41 48  1  0  0  0
 42 43  1  0  0  0
 42 66  1  0  0  0
 42120  1  0  0  0
 42121  1  0  0  0
 43 44  1  0  0  0
 44122  1  0  0  0
 45 46  2  0  0  0
 45123  1  0  0  0
 46124  1  0  0  0
 47125  1  0  0  0
 47126  1  0  0  0
 48 56  1  0  0  0
 48 65  1  0  0  0
 48127  1  0  0  0
 49 50  1  0  0  0
 49 53  1  0  0  0
 49 64  1  0  0  0
 49128  1  0  0  0
 50 51  1  0  0  0
 50129  1  0  0  0
 50130  1  0  0  0
 51 52  1  0  0  0
 51131  1  0  0  0
 51132  1  0  0  0
 52133  1  0  0  0
 52134  1  0  0  0
 53 54  1  0  0  0
 54 55  2  0  0  0
 54135  1  0  0  0
 55 57  1  0  0  0
 55136  1  0  0  0
 56 69  2  0  0  0
 57 58  2  0  0  0
 57137  1  0  0  0
 58138  1  0  0  0
 59 60  1  0  0  0
 59 61  1  0  0  0
 59 62  1  0  0  0
 60139  1  0  0  0
 60140  1  0  0  0
 60141  1  0  0  0
 61142  1  0  0  0
 61143  1  0  0  0
 61144  1  0  0  0
 62145  1  0  0  0
 62146  1  0  0  0
 62147  1  0  0  0
 63 65  1  0  0  0
 63148  1  0  0  0
 63149  1  0  0  0
 63150  1  0  0  0
 64151  1  0  0  0
 65152  1  0  0  0
 68 92  1  0  0  0
 71 73  2  0  0  0
 71 75  1  0  0  0
 71153  1  0  0  0
 72 75  2  0  0  0
 72 76  1  0  0  0
 72154  1  0  0  0
 73 74  1  0  0  0
 73 85  1  0  0  0
 74 76  2  0  0  0
 74 86  1  0  0  0
 75 91  1  0  0  0
 76 92  1  0  0  0
 77 79  1  0  0  0
 77 83  1  0  0  0
 77155  1  0  0  0
 77156  1  0  0  0
 78 80  1  0  0  0
 78 83  1  0  0  0
 78157  1  0  0  0
 78158  1  0  0  0
 79 84  1  0  0  0
 79159  1  0  0  0
 79160  1  0  0  0
 80 84  1  0  0  0
 80161  1  0  0  0
 80162  1  0  0  0
 81 82  1  0  0  0
 81 85  1  0  0  0
 81163  1  0  0  0
 81164  1  0  0  0
 82 86  1  0  0  0
 82165  1  0  0  0
 82166  1  0  0  0
 83 91  1  0  0  0
 83167  1  0  0  0
 84 93  1  0  0  0
 84168  1  0  0  0
 85 87  1  0  0  0
 85 88  1  0  0  0
 86 89  1  0  0  0
 86 90  1  0  0  0
 87169  1  0  0  0
 87170  1  0  0  0
 87171  1  0  0  0
 88172  1  0  0  0
 88173  1  0  0  0
 88174  1  0  0  0
 89175  1  0  0  0
 89176  1  0  0  0
 89177  1  0  0  0
 90178  1  0  0  0
 90179  1  0  0  0
 90180  1  0  0  0
 91181  1  0  0  0
 91182  1  0  0  0
 92183  1  0  0  0
 92184  1  0  0  0
 93185  1  0  0  0
M  ISO  4   1 100  68 101  92 101  93 100
M  END
> <chiral flag>
0

> <version>
0

> <s_m_source_file>
/data/baiqing/PycharmProjects/Reinvent-master-3.2/result/LINK_invent/BTK/process_docking_weight1_custom_sum_contain_oxygen_bond_distance_aromatic_linkinvent_7_9_3/rearranged_h_0031.sdf

> <i_m_source_file_index>
26

> <r_mmod_Potential_Energy-OPLS-2005>
103.471015930176

> <r_mmod_Stretch_Energy-OPLS-2005>
64.0820388793945

> <r_mmod_Bend_Energy-OPLS-2005>
149.036315917969

> <r_mmod_Torsional_Energy-OPLS-2005>
293.816802978516

> <r_mmod_Improper_Torsional_Energy-OPLS-2005>
5.29431772232056

> <r_mmod_Van_der_Waal_Energy-OPLS-2005>
178.724243164062

> <r_mmod_Electrostatic_Energy-OPLS-2005>
-427.652160644531

> <r_mmod_Solvation_Energy-OPLS-2005>
-188.705322265625

> <b_mmod_Minimization_Converged-OPLS-2005>
0

> <r_mmod_RMS_Derivative-OPLS-2005>
3.99532175064087

$$$$
26
                    3D
 Structure written by MMmdl.
158166  0  0  1  0            999 V2000
  -30.5890  -14.8735   20.4077 C   0  0  0  0  0  0
  -30.4470  -12.5399   19.5017 C   0  0  0  0  0  0
  -29.5091  -12.4946   18.2504 C   0  0  0  0  0  0
  -28.0490  -12.2958   18.6736 C   0  0  0  0  0  0
  -27.6393  -13.2406   19.8483 C   0  0  2  0  0  0
  -28.6843  -13.2540   20.9786 C   0  0  0  0  0  0
  -25.2487  -13.8262   20.5693 C   0  0  0  0  0  0
  -24.1810  -13.0571   20.9221 C   0  0  0  0  0  0
  -24.6505  -11.6872   20.8781 C   0  0  0  0  0  0
  -23.9138  -10.4360   21.0399 C   0  0  0  0  0  0
  -24.3625   -9.4204   21.9225 C   0  0  0  0  0  0
  -23.6352   -8.2232   22.0733 C   0  0  0  0  0  0
  -22.4305   -8.0339   21.3600 C   0  0  0  0  0  0
  -21.9947   -9.0265   20.4628 C   0  0  0  0  0  0
  -22.7233  -10.2181   20.3073 C   0  0  0  0  0  0
  -21.6846   -6.0717   22.5245 C   0  0  0  0  0  0
  -21.4032   -6.5724   23.8213 C   0  0  0  0  0  0
  -21.3692   -5.6754   24.9180 C   0  0  0  0  0  0
  -21.5999   -4.3016   24.7211 C   0  0  0  0  0  0
  -21.8854   -3.8177   23.4336 C   0  0  0  0  0  0
  -21.9230   -4.6962   22.3313 C   0  0  0  0  0  0
  -22.7789  -13.5277   21.1906 C   0  0  0  0  0  0
  -22.1649   -4.2222   21.0994 F   0  0  0  0  0  0
  -21.5646   -3.4557   25.7681 F   0  0  0  0  0  0
  -29.9597  -13.6441   20.3664 N   0  0  0  0  0  0
  -26.2941  -12.9455   20.3288 N   0  0  0  0  0  0
  -25.9367  -11.6494   20.5794 N   0  0  0  0  0  0
  -22.0473  -12.8346   22.0342 N   0  0  0  0  0  0
  -25.4244  -15.1952   20.4070 N   0  0  0  0  0  0
  -31.7932  -14.9203   20.1558 O   0  0  0  0  0  0
  -21.6664   -6.8923   21.4204 O   0  0  0  0  0  0
  -22.3513  -14.5487   20.6669 O   0  0  0  0  0  0
  -24.6430  -31.8526   23.1871 C   0  0  0  0  0  0
  -25.9214  -32.4683   23.8255 C   0  0  1  0  0  0
  -27.2088  -27.1893   20.1360 C   0  0  0  0  0  0
  -25.6000  -33.8415   24.2223 N   0  0  0  0  0  0
  -23.4430  -30.4755   21.5412 C   0  0  2  0  0  0
  -24.8805  -28.9026   20.0953 C   0  0  0  0  0  0
  -22.7605  -29.4499   22.4871 C   0  0  0  0  0  0
  -18.0341  -28.1410   22.8501 C   0  0  0  0  0  0
  -24.1453  -36.7287   23.2613 C   0  0  0  0  0  0
  -25.9988  -30.7284   21.3808 C   0  0  0  0  0  0
  -26.0612  -29.3463   20.7201 C   0  0  0  0  0  0
  -27.2330  -28.5140   20.7062 C   0  0  0  0  0  0
  -26.0144  -26.8169   19.5070 C   0  0  0  0  0  0
  -24.8721  -27.6387   19.4825 C   0  0  0  0  0  0
  -23.6629  -29.8102   20.1545 C   0  0  0  0  0  0
  -25.4111  -36.2990   24.0301 C   0  0  1  0  0  0
  -20.5936  -28.3706   23.1292 C   0  0  2  0  0  0
  -20.6758  -26.9361   22.5425 C   0  0  0  0  0  0
  -19.5784  -26.6378   21.5260 C   0  0  0  0  0  0
  -18.2024  -26.7938   22.1643 C   0  0  0  0  0  0
  -19.1605  -28.8904   23.2835 C   0  0  0  0  0  0
  -18.9428  -30.1453   23.8916 C   0  0  0  0  0  0
  -17.6403  -30.6556   24.0539 C   0  0  0  0  0  0
  -25.9073  -34.9384   23.5110 C   0  0  0  0  0  0
  -16.5339  -29.9045   23.6263 C   0  0  0  0  0  0
  -16.7271  -28.6461   23.0362 C   0  0  0  0  0  0
  -26.4532  -31.6516   25.0720 C   0  0  0  0  0  0
  -25.3697  -31.3755   26.1464 C   0  0  0  0  0  0
  -27.0396  -30.2893   24.6282 C   0  0  0  0  0  0
  -27.6085  -32.4327   25.7514 C   0  0  0  0  0  0
  -27.5594  -37.1789   24.8461 C   0  0  0  0  0  0
  -21.4300  -29.3065   22.3662 N   0  0  0  0  0  0
  -26.4316  -37.3797   23.9367 N   0  0  0  0  0  0
  -24.7169  -31.0417   22.0922 N   0  0  0  0  0  0
  -23.4242  -28.8089   23.3076 O   0  0  0  0  0  0
  -28.2883  -26.2445   20.1825 O   0  0  0  0  0  0
  -26.5644  -34.8950   22.4648 O   0  0  0  0  0  0
  -23.5591  -32.1325   23.7159 O   0  0  0  0  0  0
  -29.2665  -19.7512   21.4407 C   0  0  0  0  0  0
  -29.0455  -21.1806   21.4122 C   0  0  0  0  0  0
  -29.2036  -21.9768   20.2393 C   0  0  0  0  0  0
  -29.6617  -19.0040   20.2907 C   0  0  0  0  0  0
  -29.5002  -21.1556   19.1236 C   0  0  0  0  0  0
  -28.7674  -21.8746   22.7119 C   0  0  0  0  0  0
  -29.7343  -23.1481   17.1974 C   0  0  0  0  0  0
  -29.2675  -23.6092   20.2840 C   0  0  0  0  0  0
  -29.6836  -21.7213   17.7367 C   0  0  0  0  0  0
  -30.4139  -17.5328   20.3307 C   0  0  0  0  0  0
  -28.0714  -24.7209   20.1643 C   0  0  0  0  0  0
  -29.7087  -19.7625   19.1436 N   0  0  0  0  0  0
  -29.8653  -16.0739   20.5151 N   0  0  0  0  0  0
  -31.4746  -12.6756   19.1757 H   0  0  0  0  0  0
  -30.4142  -11.5788   20.0221 H   0  0  0  0  0  0
  -29.8246  -11.6893   17.5837 H   0  0  0  0  0  0
  -29.6187  -13.4206   17.6868 H   0  0  0  0  0  0
  -27.9520  -11.2566   19.0003 H   0  0  0  0  0  0
  -27.3889  -12.4185   17.8247 H   0  0  0  0  0  0
  -27.6057  -14.2504   19.4033 H   0  0  0  0  0  0
  -28.7535  -12.2852   21.4594 H   0  0  0  0  0  0
  -28.3987  -13.9776   21.7530 H   0  0  0  0  0  0
  -25.2886   -9.5710   22.4797 H   0  0  0  0  0  0
  -24.0058   -7.4664   22.7480 H   0  0  0  0  0  0
  -21.0878   -8.8836   19.8984 H   0  0  0  0  0  0
  -22.3768  -10.9709   19.6215 H   0  0  0  0  0  0
  -21.1994   -7.6150   23.9733 H   0  0  0  0  0  0
  -21.1474   -6.0529   25.9116 H   0  0  0  0  0  0
  -22.0594   -2.7614   23.2785 H   0  0  0  0  0  0
  -22.4066  -11.9972   22.4836 H   0  0  0  0  0  0
  -21.1161  -13.1278   22.2600 H   0  0  0  0  0  0
  -24.6448  -15.8467   20.5233 H   0  0  0  0  0  0
  -26.2539  -15.6338   20.0489 H   0  0  0  0  0  0
  -26.7334  -32.5296   23.1013 H   0  0  0  0  0  0
  -25.0111  -33.9605   25.0340 H   0  0  0  0  0  0
  -22.7444  -31.2947   21.3993 H   0  0  0  0  0  0
  -23.3772  -35.9605   23.3248 H   0  0  0  0  0  0
  -24.3615  -36.8960   22.2071 H   0  0  0  0  0  0
  -23.7223  -37.6466   23.6699 H   0  0  0  0  0  0
  -26.1537  -31.4924   20.6085 H   0  0  0  0  0  0
  -26.8668  -30.7749   22.0146 H   0  0  0  0  0  0
  -28.1323  -28.8545   21.1923 H   0  0  0  0  0  0
  -25.9079  -25.8585   19.0244 H   0  0  0  0  0  0
  -23.9709  -27.3017   18.9937 H   0  0  0  0  0  0
  -23.7940  -30.5898   19.4128 H   0  0  0  0  0  0
  -22.7700  -29.2601   19.8409 H   0  0  0  0  0  0
  -25.1267  -36.1881   25.0855 H   0  0  0  0  0  0
  -20.9993  -28.3299   24.1379 H   0  0  0  0  0  0
  -20.5771  -26.2307   23.3667 H   0  0  0  0  0  0
  -21.6681  -26.7461   22.1158 H   0  0  0  0  0  0
  -19.6902  -25.6332   21.1268 H   0  0  0  0  0  0
  -19.6665  -27.3207   20.6853 H   0  0  0  0  0  0
  -17.4165  -26.6717   21.3958 H   0  0  0  0  0  0
  -18.0223  -26.0054   22.9051 H   0  0  0  0  0  0
  -19.7965  -30.7324   24.2184 H   0  0  0  0  0  0
  -17.5005  -31.6258   24.5211 H   0  0  0  0  0  0
  -15.5348  -30.2943   23.7688 H   0  0  0  0  0  0
  -15.8708  -28.0844   22.7011 H   0  0  0  0  0  0
  -24.5875  -30.7079   25.7769 H   0  0  0  0  0  0
  -24.8918  -32.2987   26.4793 H   0  0  0  0  0  0
  -25.8050  -30.8979   27.0260 H   0  0  0  0  0  0
  -26.2965  -29.6634   24.1285 H   0  0  0  0  0  0
  -27.3984  -29.7218   25.4874 H   0  0  0  0  0  0
  -27.8922  -30.4136   23.9581 H   0  0  0  0  0  0
  -27.2599  -33.3643   26.2053 H   0  0  0  0  0  0
  -28.3910  -32.6884   25.0305 H   0  0  0  0  0  0
  -28.0720  -31.8439   26.5476 H   0  0  0  0  0  0
  -28.2542  -38.0094   24.7552 H   0  0  0  0  0  0
  -28.1112  -36.2680   24.6189 H   0  0  0  0  0  0
  -27.2337  -37.1315   25.8849 H   0  0  0  0  0  0
  -20.9515  -29.8725   21.6798 H   0  0  0  0  0  0
  -26.0133  -38.2854   24.1467 H   0  0  0  0  0  0
  -29.2497  -19.2327   22.4021 H   0  0  0  0  0  0
  -28.2925  -21.2127   23.4302 H   0  0  0  0  0  0
  -28.0903  -22.7278   22.5748 H   0  0  0  0  0  0
  -29.6884  -22.2493   23.1489 H   0  0  0  0  0  0
  -28.7821  -23.5499   17.2327 H   0  0  0  0  0  0
  -30.0640  -23.1748   16.2009 H   0  0  0  0  0  0
  -30.4641  -23.6801   17.6587 H   0  0  0  0  0  0
  -29.9932  -23.9509   19.5988 H   0  0  0  0  0  0
  -29.8254  -23.8434   21.1717 H   0  0  0  0  0  0
  -30.7078  -21.3318   17.9264 H   0  0  0  0  0  0
  -28.7105  -21.2210   17.6510 H   0  0  0  0  0  0
  -31.1441  -17.6336   21.1149 H   0  0  0  0  0  0
  -30.9992  -17.4928   19.4277 H   0  0  0  0  0  0
  -27.3616  -24.5090   20.9728 H   0  0  0  0  0  0
  -27.5199  -24.4928   19.2383 H   0  0  0  0  0  0
  -28.8660  -15.9984   20.6751 H   0  0  0  0  0  0
  1 25  1  0  0  0
  1 30  2  0  0  0
  1 83  1  0  0  0
  2  3  1  0  0  0
  2 25  1  0  0  0
  2 84  1  0  0  0
  2 85  1  0  0  0
  3  4  1  0  0  0
  3 86  1  0  0  0
  3 87  1  0  0  0
  4  5  1  0  0  0
  4 88  1  0  0  0
  4 89  1  0  0  0
  5  6  1  0  0  0
  5 26  1  0  0  0
  5 90  1  0  0  0
  6 25  1  0  0  0
  6 91  1  0  0  0
  6 92  1  0  0  0
  7  8  2  0  0  0
  7 26  1  0  0  0
  7 29  1  0  0  0
  8  9  1  0  0  0
  8 22  1  0  0  0
  9 10  1  0  0  0
  9 27  2  0  0  0
 10 11  2  0  0  0
 10 15  1  0  0  0
 11 12  1  0  0  0
 11 93  1  0  0  0
 12 13  2  0  0  0
 12 94  1  0  0  0
 13 14  1  0  0  0
 13 31  1  0  0  0
 14 15  2  0  0  0
 14 95  1  0  0  0
 15 96  1  0  0  0
 16 17  2  0  0  0
 16 21  1  0  0  0
 16 31  1  0  0  0
 17 18  1  0  0  0
 17 97  1  0  0  0
 18 19  2  0  0  0
 18 98  1  0  0  0
 19 20  1  0  0  0
 19 24  1  0  0  0
 20 21  2  0  0  0
 20 99  1  0  0  0
 21 23  1  0  0  0
 22 28  1  0  0  0
 22 32  2  0  0  0
 26 27  1  0  0  0
 28100  1  0  0  0
 28101  1  0  0  0
 29102  1  0  0  0
 29103  1  0  0  0
 33 34  1  0  0  0
 33 66  1  0  0  0
 33 70  2  0  0  0
 34 36  1  0  0  0
 34 59  1  0  0  0
 34104  1  0  0  0
 35 44  2  0  0  0
 35 45  1  0  0  0
 35 68  1  0  0  0
 36 56  1  0  0  0
 36105  1  0  0  0
 37 39  1  0  0  0
 37 47  1  0  0  0
 37 66  1  0  0  0
 37106  1  0  0  0
 38 43  2  0  0  0
 38 46  1  0  0  0
 38 47  1  0  0  0
 39 64  1  0  0  0
 39 67  2  0  0  0
 40 52  1  0  0  0
 40 53  2  0  0  0
 40 58  1  0  0  0
 41107  1  0  0  0
 41108  1  0  0  0
 41109  1  0  0  0
 41 48  1  0  0  0
 42 43  1  0  0  0
 42 66  1  0  0  0
 42110  1  0  0  0
 42111  1  0  0  0
 43 44  1  0  0  0
 44112  1  0  0  0
 45 46  2  0  0  0
 45113  1  0  0  0
 46114  1  0  0  0
 47115  1  0  0  0
 47116  1  0  0  0
 48 56  1  0  0  0
 48 65  1  0  0  0
 48117  1  0  0  0
 49 50  1  0  0  0
 49 53  1  0  0  0
 49 64  1  0  0  0
 49118  1  0  0  0
 50 51  1  0  0  0
 50119  1  0  0  0
 50120  1  0  0  0
 51 52  1  0  0  0
 51121  1  0  0  0
 51122  1  0  0  0
 52123  1  0  0  0
 52124  1  0  0  0
 53 54  1  0  0  0
 54 55  2  0  0  0
 54125  1  0  0  0
 55 57  1  0  0  0
 55126  1  0  0  0
 56 69  2  0  0  0
 57 58  2  0  0  0
 57127  1  0  0  0
 58128  1  0  0  0
 59 60  1  0  0  0
 59 61  1  0  0  0
 59 62  1  0  0  0
 60129  1  0  0  0
 60130  1  0  0  0
 60131  1  0  0  0
 61132  1  0  0  0
 61133  1  0  0  0
 61134  1  0  0  0
 62135  1  0  0  0
 62136  1  0  0  0
 62137  1  0  0  0
 63 65  1  0  0  0
 63138  1  0  0  0
 63139  1  0  0  0
 63140  1  0  0  0
 64141  1  0  0  0
 65142  1  0  0  0
 68 81  1  0  0  0
 71 72  2  0  0  0
 71 74  1  0  0  0
 71143  1  0  0  0
 72 73  1  0  0  0
 72 76  1  0  0  0
 73 75  2  0  0  0
 73 78  1  0  0  0
 74 80  1  0  0  0
 74 82  2  0  0  0
 75 79  1  0  0  0
 75 82  1  0  0  0
 76144  1  0  0  0
 76145  1  0  0  0
 76146  1  0  0  0
 77 79  1  0  0  0
 77147  1  0  0  0
 77148  1  0  0  0
 77149  1  0  0  0
 78 81  1  0  0  0
 78150  1  0  0  0
 78151  1  0  0  0
 79152  1  0  0  0
 79153  1  0  0  0
 80 83  1  0  0  0
 80154  1  0  0  0
 80155  1  0  0  0
 81156  1  0  0  0
 81157  1  0  0  0
 83158  1  0  0  0
M  ISO  4   1 100  68 101  81 101  83 100
M  END
> <chiral flag>
0

> <version>
0

> <s_m_source_file>
/data/baiqing/PycharmProjects/Reinvent-master-3.2/result/LINK_invent/BTK/process_docking_weight1_custom_sum_contain_oxygen_bond_distance_aromatic_linkinvent_7_9_3/rearranged_h_0031.sdf

> <i_m_source_file_index>
27

> <r_mmod_Potential_Energy-OPLS-2005>
299.45458984375

> <r_mmod_Stretch_Energy-OPLS-2005>
214.720367431641

> <r_mmod_Bend_Energy-OPLS-2005>
407.770446777344

> <r_mmod_Torsional_Energy-OPLS-2005>
225.619262695312

> <r_mmod_Improper_Torsional_Energy-OPLS-2005>
8.71016502380371

> <r_mmod_Van_der_Waal_Energy-OPLS-2005>
155.647048950195

> <r_mmod_Electrostatic_Energy-OPLS-2005>
-639.602966308594

> <r_mmod_Solvation_Energy-OPLS-2005>
-222.424896240234

> <b_mmod_Minimization_Converged-OPLS-2005>
0

> <r_mmod_RMS_Derivative-OPLS-2005>
20.0540332794189

$$$$
27
                    3D
 Structure written by MMmdl.
165173  0  0  1  0            999 V2000
  -30.0646  -15.7054   20.4625 C   0  0  0  0  0  0
  -30.3947  -13.1657   19.5813 C   0  0  0  0  0  0
  -29.5570  -12.6932   18.3529 C   0  0  0  0  0  0
  -28.1354  -12.2921   18.7786 C   0  0  0  0  0  0
  -27.5734  -13.2879   19.8175 C   0  0  2  0  0  0
  -28.5482  -13.5960   20.9666 C   0  0  0  0  0  0
  -25.2214  -13.8198   20.5723 C   0  0  0  0  0  0
  -24.1614  -13.0393   20.9283 C   0  0  0  0  0  0
  -24.6295  -11.6894   20.8760 C   0  0  0  0  0  0
  -23.9025  -10.4263   21.0411 C   0  0  0  0  0  0
  -24.3581   -9.4193   21.9195 C   0  0  0  0  0  0
  -23.6266   -8.2223   22.0759 C   0  0  0  0  0  0
  -22.4259   -8.0250   21.3535 C   0  0  0  0  0  0
  -21.9877   -9.0222   20.4648 C   0  0  0  0  0  0
  -22.7194  -10.2107   20.3066 C   0  0  0  0  0  0
  -21.6846   -6.0711   22.5281 C   0  0  0  0  0  0
  -21.3999   -6.5621   23.8211 C   0  0  0  0  0  0
  -21.3653   -5.6780   24.9177 C   0  0  0  0  0  0
  -21.6048   -4.3044   24.7233 C   0  0  0  0  0  0
  -21.8821   -3.8128   23.4357 C   0  0  0  0  0  0
  -21.9194   -4.6940   22.3410 C   0  0  0  0  0  0
  -22.7657  -13.5182   21.1915 C   0  0  0  0  0  0
  -22.1663   -4.2114   21.0992 F   0  0  0  0  0  0
  -21.5636   -3.4541   25.7755 F   0  0  0  0  0  0
  -29.6775  -14.2964   20.3431 N   0  0  0  0  0  0
  -26.2563  -12.9454   20.3092 N   0  0  0  0  0  0
  -25.9205  -11.6559   20.5618 N   0  0  0  0  0  0
  -22.0305  -12.8199   22.0475 N   0  0  0  0  0  0
  -25.3861  -15.1936   20.4131 N   0  0  0  0  0  0
  -31.3074  -15.7279   20.3041 O   0  0  0  0  0  0
  -21.6632   -6.8845   21.4237 O   0  0  0  0  0  0
  -22.3381  -14.5498   20.6746 O   0  0  0  0  0  0
  -24.6528  -31.8547   23.4075 C   0  0  0  0  0  0
  -25.9352  -32.4943   23.9829 C   0  0  1  0  0  0
  -27.9076  -26.6832   19.7224 C   0  0  0  0  0  0
  -25.6022  -33.8874   24.2985 N   0  0  0  0  0  0
  -23.1957  -30.2562   21.7940 C   0  0  2  0  0  0
  -24.6798  -28.4176   19.3074 C   0  0  0  0  0  0
  -22.4217  -29.5160   22.7911 C   0  0  0  0  0  0
  -17.9364  -28.1147   22.8452 C   0  0  0  0  0  0
  -24.1541  -36.7313   23.2520 C   0  0  0  0  0  0
  -26.5139  -30.5240   21.9341 C   0  0  0  0  0  0
  -26.8537  -29.3299   20.5041 C   0  0  0  0  0  0
  -28.0927  -28.2152   20.5089 C   0  0  0  0  0  0
  -26.4440  -26.0384   18.8678 C   0  0  0  0  0  0
  -24.9088  -26.8521   18.6983 C   0  0  0  0  0  0
  -23.0659  -29.0513   20.1425 C   0  0  0  0  0  0
  -25.4116  -36.3183   24.0329 C   0  0  1  0  0  0
  -20.4399  -28.2831   23.1882 C   0  0  2  0  0  0
  -20.5751  -26.8841   22.5624 C   0  0  0  0  0  0
  -19.5006  -26.6174   21.5129 C   0  0  0  0  0  0
  -18.1111  -26.7745   22.1452 C   0  0  0  0  0  0
  -19.0483  -28.8371   23.3210 C   0  0  0  0  0  0
  -18.8798  -30.1067   23.9152 C   0  0  0  0  0  0
  -17.5939  -30.6518   24.0578 C   0  0  0  0  0  0
  -25.9032  -34.9466   23.5361 C   0  0  0  0  0  0
  -16.4789  -29.9170   23.6171 C   0  0  0  0  0  0
  -16.6481  -28.6555   23.0147 C   0  0  0  0  0  0
  -26.4850  -31.7249   25.2504 C   0  0  0  0  0  0
  -25.3693  -31.3864   26.2630 C   0  0  0  0  0  0
  -27.2583  -30.4083   24.9985 C   0  0  0  0  0  0
  -27.5672  -32.5998   25.9117 C   0  0  0  0  0  0
  -27.5605  -37.1808   24.8471 C   0  0  0  0  0  0
  -21.2080  -29.2147   22.4232 N   0  0  0  0  0  0
  -26.4364  -37.3801   23.9345 N   0  0  0  0  0  0
  -24.7875  -30.8646   22.5342 N   0  0  0  0  0  0
  -22.9113  -29.1212   23.8302 O   0  0  0  0  0  0
  -29.0444  -26.3054   19.2469 O   0  0  0  0  0  0
  -26.5535  -34.8675   22.4891 O   0  0  0  0  0  0
  -23.5402  -32.2401   23.7836 O   0  0  0  0  0  0
  -26.3710  -29.7923   18.1044 C   0  0  0  0  0  0
  -26.7585  -28.3214   18.5438 C   0  0  0  0  0  0
  -25.9335  -27.3065   20.7561 C   0  0  0  0  0  0
  -25.5073  -30.7380   18.9550 C   0  0  0  0  0  0
  -25.0263  -28.5925   21.4991 C   0  0  0  0  0  0
  -25.3702  -32.1958   18.5733 C   0  0  0  0  0  0
  -25.1526  -28.1582   22.9810 C   0  0  0  0  0  0
  -27.8390  -27.8038   17.4702 C   0  0  0  0  0  0
  -28.0022  -20.4563   20.5682 C   0  0  0  0  0  0
  -27.5398  -22.2657   21.2796 C   0  0  0  0  0  0
  -28.9953  -18.7739   20.9830 C   0  0  0  0  0  0
  -29.1167  -26.9945   17.9798 C   0  0  0  0  0  0
  -26.7908  -24.0511   20.7980 C   0  0  0  0  0  0
  -24.9157  -30.3989   20.2885 N   0  0  0  0  0  0
  -29.1434  -16.9961   20.5962 N   0  0  0  0  0  0
  -26.2343  -25.7323   21.3356 O   0  0  0  0  0  0
  -31.3673  -13.5070   19.2239 H   0  0  0  0  0  0
  -30.6170  -12.3273   20.2435 H   0  0  0  0  0  0
  -30.0550  -11.8629   17.8495 H   0  0  0  0  0  0
  -29.5009  -13.5042   17.6258 H   0  0  0  0  0  0
  -28.1899  -11.2981   19.2239 H   0  0  0  0  0  0
  -27.4794  -12.2082   17.9121 H   0  0  0  0  0  0
  -27.4475  -14.2119   19.2531 H   0  0  0  0  0  0
  -28.8423  -12.6990   21.5118 H   0  0  0  0  0  0
  -28.0786  -14.2589   21.6947 H   0  0  0  0  0  0
  -25.2714   -9.5691   22.4781 H   0  0  0  0  0  0
  -23.9968   -7.4627   22.7501 H   0  0  0  0  0  0
  -21.0795   -8.8729   19.8973 H   0  0  0  0  0  0
  -22.3623  -10.9639   19.6181 H   0  0  0  0  0  0
  -21.1973   -7.6128   23.9691 H   0  0  0  0  0  0
  -21.1478   -6.0524   25.9075 H   0  0  0  0  0  0
  -22.0606   -2.7587   23.2881 H   0  0  0  0  0  0
  -22.3883  -11.9878   22.4915 H   0  0  0  0  0  0
  -21.0921  -13.1227   22.2633 H   0  0  0  0  0  0
  -24.6025  -15.8326   20.5034 H   0  0  0  0  0  0
  -26.1910  -15.6166   19.9702 H   0  0  0  0  0  0
  -26.7527  -32.5504   23.2773 H   0  0  0  0  0  0
  -25.0114  -34.0341   25.1031 H   0  0  0  0  0  0
  -22.6257  -31.1579   21.5563 H   0  0  0  0  0  0
  -23.3799  -35.9637   23.3191 H   0  0  0  0  0  0
  -24.3739  -36.8825   22.1938 H   0  0  0  0  0  0
  -23.7287  -37.6566   23.6414 H   0  0  0  0  0  0
  -26.9437  -31.4528   21.5624 H   0  0  0  0  0  0
  -27.1918  -30.1529   22.6685 H   0  0  0  0  0  0
  -29.0300  -28.4603   20.9880 H   0  0  0  0  0  0
  -26.5449  -25.1124   18.3170 H   0  0  0  0  0  0
  -24.0775  -26.3154   18.2646 H   0  0  0  0  0  0
  -22.4786  -29.5721   19.3845 H   0  0  0  0  0  0
  -22.4782  -28.1638   20.3797 H   0  0  0  0  0  0
  -25.1194  -36.2213   25.0821 H   0  0  0  0  0  0
  -20.7869  -28.2029   24.2223 H   0  0  0  0  0  0
  -20.4472  -26.1441   23.3543 H   0  0  0  0  0  0
  -21.5762  -26.7076   22.1657 H   0  0  0  0  0  0
  -19.6119  -25.6149   21.0964 H   0  0  0  0  0  0
  -19.6146  -27.3162   20.6836 H   0  0  0  0  0  0
  -17.3447  -26.6619   21.3761 H   0  0  0  0  0  0
  -17.9402  -25.9788   22.8735 H   0  0  0  0  0  0
  -19.7381  -30.6621   24.2689 H   0  0  0  0  0  0
  -17.4613  -31.6239   24.5150 H   0  0  0  0  0  0
  -15.4854  -30.3297   23.7286 H   0  0  0  0  0  0
  -15.7816  -28.1108   22.6649 H   0  0  0  0  0  0
  -24.6876  -30.6237   25.8838 H   0  0  0  0  0  0
  -24.7728  -32.2608   26.5213 H   0  0  0  0  0  0
  -25.7770  -30.9971   27.1963 H   0  0  0  0  0  0
  -26.7067  -29.5813   24.6080 H   0  0  0  0  0  0
  -27.6035  -30.0149   25.9566 H   0  0  0  0  0  0
  -28.1776  -30.5612   24.4317 H   0  0  0  0  0  0
  -27.1522  -33.5130   26.3389 H   0  0  0  0  0  0
  -28.3294  -32.8968   25.1880 H   0  0  0  0  0  0
  -28.0764  -32.0933   26.7344 H   0  0  0  0  0  0
  -28.2602  -38.0133   24.7559 H   0  0  0  0  0  0
  -28.1135  -36.2657   24.6275 H   0  0  0  0  0  0
  -27.2275  -37.1403   25.8865 H   0  0  0  0  0  0
  -20.8295  -29.5571   21.5514 H   0  0  0  0  0  0
  -26.0284  -38.2896   24.1280 H   0  0  0  0  0  0
  -26.7845  -30.1984   17.1941 H   0  0  0  0  0  0
  -25.0095  -32.3183   17.5522 H   0  0  0  0  0  0
  -26.3447  -32.6776   18.6625 H   0  0  0  0  0  0
  -24.6941  -32.7236   19.2472 H   0  0  0  0  0  0
  -24.4438  -27.3562   23.1903 H   0  0  0  0  0  0
  -25.1057  -28.8852   23.7672 H   0  0  0  0  0  0
  -26.1337  -27.7076   23.1306 H   0  0  0  0  0  0
  -28.2267  -28.6456   16.8983 H   0  0  0  0  0  0
  -27.3072  -27.2136   16.7242 H   0  0  0  0  0  0
  -28.4839  -20.7391   19.6310 H   0  0  0  0  0  0
  -27.0382  -20.0842   20.2229 H   0  0  0  0  0  0
  -28.4885  -22.5604   21.7295 H   0  0  0  0  0  0
  -26.9153  -21.9945   22.1333 H   0  0  0  0  0  0
  -28.7659  -18.6775   22.0426 H   0  0  0  0  0  0
  -30.0375  -19.0926   20.9803 H   0  0  0  0  0  0
  -29.4042  -26.2733   17.2129 H   0  0  0  0  0  0
  -29.9528  -27.6907   18.0484 H   0  0  0  0  0  0
  -25.9037  -23.7496   20.2362 H   0  0  0  0  0  0
  -27.5487  -24.2376   20.0476 H   0  0  0  0  0  0
  -28.2027  -16.6280   20.5874 H   0  0  0  0  0  0
  1 25  1  0  0  0
  1 30  2  0  0  0
  1 85  1  0  0  0
  2  3  1  0  0  0
  2 25  1  0  0  0
  2 87  1  0  0  0
  2 88  1  0  0  0
  3  4  1  0  0  0
  3 89  1  0  0  0
  3 90  1  0  0  0
  4  5  1  0  0  0
  4 91  1  0  0  0
  4 92  1  0  0  0
  5  6  1  0  0  0
  5 26  1  0  0  0
  5 93  1  0  0  0
  6 25  1  0  0  0
  6 94  1  0  0  0
  6 95  1  0  0  0
  7  8  2  0  0  0
  7 26  1  0  0  0
  7 29  1  0  0  0
  8  9  1  0  0  0
  8 22  1  0  0  0
  9 10  1  0  0  0
  9 27  2  0  0  0
 10 11  2  0  0  0
 10 15  1  0  0  0
 11 12  1  0  0  0
 11 96  1  0  0  0
 12 13  2  0  0  0
 12 97  1  0  0  0
 13 14  1  0  0  0
 13 31  1  0  0  0
 14 15  2  0  0  0
 14 98  1  0  0  0
 15 99  1  0  0  0
 16 17  2  0  0  0
 16 21  1  0  0  0
 16 31  1  0  0  0
 17 18  1  0  0  0
 17100  1  0  0  0
 18 19  2  0  0  0
 18101  1  0  0  0
 19 20  1  0  0  0
 19 24  1  0  0  0
 20 21  2  0  0  0
 20102  1  0  0  0
 21 23  1  0  0  0
 22 28  1  0  0  0
 22 32  2  0  0  0
 26 27  1  0  0  0
 28103  1  0  0  0
 28104  1  0  0  0
 29105  1  0  0  0
 29106  1  0  0  0
 33 34  1  0  0  0
 33 66  1  0  0  0
 33 70  2  0  0  0
 34 36  1  0  0  0
 34 59  1  0  0  0
 34107  1  0  0  0
 35 44  2  0  0  0
 35 45  1  0  0  0
 35 68  1  0  0  0
 36 56  1  0  0  0
 36108  1  0  0  0
 37 39  1  0  0  0
 37 47  1  0  0  0
 37 66  1  0  0  0
 37109  1  0  0  0
 38 43  2  0  0  0
 38 46  1  0  0  0
 38 47  1  0  0  0
 39 64  1  0  0  0
 39 67  2  0  0  0
 40 52  1  0  0  0
 40 53  2  0  0  0
 40 58  1  0  0  0
 41110  1  0  0  0
 41111  1  0  0  0
 41112  1  0  0  0
 41 48  1  0  0  0
 42 43  1  0  0  0
 42 66  1  0  0  0
 42113  1  0  0  0
 42114  1  0  0  0
 43 44  1  0  0  0
 44115  1  0  0  0
 45 46  2  0  0  0
 45116  1  0  0  0
 46117  1  0  0  0
 47118  1  0  0  0
 47119  1  0  0  0
 48 56  1  0  0  0
 48 65  1  0  0  0
 48120  1  0  0  0
 49 50  1  0  0  0
 49 53  1  0  0  0
 49 64  1  0  0  0
 49121  1  0  0  0
 50 51  1  0  0  0
 50122  1  0  0  0
 50123  1  0  0  0
 51 52  1  0  0  0
 51124  1  0  0  0
 51125  1  0  0  0
 52126  1  0  0  0
 52127  1  0  0  0
 53 54  1  0  0  0
 54 55  2  0  0  0
 54128  1  0  0  0
 55 57  1  0  0  0
 55129  1  0  0  0
 56 69  2  0  0  0
 57 58  2  0  0  0
 57130  1  0  0  0
 58131  1  0  0  0
 59 60  1  0  0  0
 59 61  1  0  0  0
 59 62  1  0  0  0
 60132  1  0  0  0
 60133  1  0  0  0
 60134  1  0  0  0
 61135  1  0  0  0
 61136  1  0  0  0
 61137  1  0  0  0
 62138  1  0  0  0
 62139  1  0  0  0
 62140  1  0  0  0
 63 65  1  0  0  0
 63141  1  0  0  0
 63142  1  0  0  0
 63143  1  0  0  0
 64144  1  0  0  0
 65145  1  0  0  0
 68 82  1  0  0  0
 71 72  2  0  0  0
 71 74  1  0  0  0
 71146  1  0  0  0
 72 73  1  0  0  0
 72 78  1  0  0  0
 73 75  2  0  0  0
 73 86  1  0  0  0
 74 76  1  0  0  0
 74 84  2  0  0  0
 75 77  1  0  0  0
 75 84  1  0  0  0
 76147  1  0  0  0
 76148  1  0  0  0
 76149  1  0  0  0
 77150  1  0  0  0
 77151  1  0  0  0
 77152  1  0  0  0
 78 82  1  0  0  0
 78153  1  0  0  0
 78154  1  0  0  0
 79 80  1  0  0  0
 79 81  1  0  0  0
 79155  1  0  0  0
 79156  1  0  0  0
 80 83  1  0  0  0
 80157  1  0  0  0
 80158  1  0  0  0
 81 85  1  0  0  0
 81159  1  0  0  0
 81160  1  0  0  0
 82161  1  0  0  0
 82162  1  0  0  0
 83 86  1  0  0  0
 83163  1  0  0  0
 83164  1  0  0  0
 85165  1  0  0  0
M  ISO  4   1 100  68 101  82 101  85 100
M  END
> <chiral flag>
0

> <version>
0

> <s_m_source_file>
/data/baiqing/PycharmProjects/Reinvent-master-3.2/result/LINK_invent/BTK/process_docking_weight1_custom_sum_contain_oxygen_bond_distance_aromatic_linkinvent_7_9_3/rearranged_h_0031.sdf

> <i_m_source_file_index>
28

> <r_mmod_Potential_Energy-OPLS-2005>
19361.193359375

> <r_mmod_Stretch_Energy-OPLS-2005>
11472.4365234375

> <r_mmod_Bend_Energy-OPLS-2005>
1073.06213378906

> <r_mmod_Torsional_Energy-OPLS-2005>
387.586853027344

> <r_mmod_Improper_Torsional_Energy-OPLS-2005>
50.9870643615723

> <r_mmod_Van_der_Waal_Energy-OPLS-2005>
5238.4384765625

> <r_mmod_Electrostatic_Energy-OPLS-2005>
-474.262878417969

> <r_mmod_Solvation_Energy-OPLS-2005>
-217.635894775391

> <b_mmod_Minimization_Converged-OPLS-2005>
0

> <r_mmod_RMS_Derivative-OPLS-2005>
7.97076940536499

$$$$
28
                    3D
 Structure written by MMmdl.
154162  0  0  1  0            999 V2000
  -30.6803  -14.5993   20.4960 C   0  0  0  0  0  0
  -30.4102  -12.3631   19.4719 C   0  0  0  0  0  0
  -29.5068  -12.4912   18.2280 C   0  0  0  0  0  0
  -28.0279  -12.3360   18.6332 C   0  0  0  0  0  0
  -27.6413  -13.2263   19.8466 C   0  0  2  0  0  0
  -28.6780  -13.1389   20.9854 C   0  0  0  0  0  0
  -25.2525  -13.8201   20.5695 C   0  0  0  0  0  0
  -24.1807  -13.0450   20.9196 C   0  0  0  0  0  0
  -24.6389  -11.6923   20.8738 C   0  0  0  0  0  0
  -23.9066  -10.4301   21.0407 C   0  0  0  0  0  0
  -24.3623   -9.4213   21.9182 C   0  0  0  0  0  0
  -23.6297   -8.2247   22.0752 C   0  0  0  0  0  0
  -22.4278   -8.0282   21.3547 C   0  0  0  0  0  0
  -21.9911   -9.0254   20.4654 C   0  0  0  0  0  0
  -22.7235  -10.2135   20.3057 C   0  0  0  0  0  0
  -21.6857   -6.0732   22.5283 C   0  0  0  0  0  0
  -21.4015   -6.5634   23.8219 C   0  0  0  0  0  0
  -21.3664   -5.6785   24.9179 C   0  0  0  0  0  0
  -21.6046   -4.3048   24.7223 C   0  0  0  0  0  0
  -21.8811   -3.8142   23.4344 C   0  0  0  0  0  0
  -21.9197   -4.6961   22.3403 C   0  0  0  0  0  0
  -22.7832  -13.5234   21.1864 C   0  0  0  0  0  0
  -22.1661   -4.2146   21.0979 F   0  0  0  0  0  0
  -21.5637   -3.4532   25.7736 F   0  0  0  0  0  0
  -29.9975  -13.4189   20.4181 N   0  0  0  0  0  0
  -26.2931  -12.9393   20.3247 N   0  0  0  0  0  0
  -25.9317  -11.6540   20.5731 N   0  0  0  0  0  0
  -22.0476  -12.8238   22.0421 N   0  0  0  0  0  0
  -25.4258  -15.1928   20.4156 N   0  0  0  0  0  0
  -31.8678  -14.6638   20.1713 O   0  0  0  0  0  0
  -21.6644   -6.8877   21.4242 O   0  0  0  0  0  0
  -22.3519  -14.5539   20.6705 O   0  0  0  0  0  0
  -24.6207  -31.8633   23.2044 C   0  0  0  0  0  0
  -25.9081  -32.4793   23.8350 C   0  0  1  0  0  0
  -27.2186  -27.3603   20.1275 C   0  0  0  0  0  0
  -25.5924  -33.8593   24.2289 N   0  0  0  0  0  0
  -23.4106  -30.4875   21.5454 C   0  0  2  0  0  0
  -24.8567  -28.9402   20.1160 C   0  0  0  0  0  0
  -22.7432  -29.4652   22.4949 C   0  0  0  0  0  0
  -18.0284  -28.1377   22.8499 C   0  0  0  0  0  0
  -24.1489  -36.7291   23.2635 C   0  0  0  0  0  0
  -25.9446  -30.8119   21.3620 C   0  0  0  0  0  0
  -26.0223  -29.4383   20.7134 C   0  0  0  0  0  0
  -27.2112  -28.6587   20.7094 C   0  0  0  0  0  0
  -26.0372  -26.8934   19.5195 C   0  0  0  0  0  0
  -24.8625  -27.6705   19.5133 C   0  0  0  0  0  0
  -23.6225  -29.8175   20.1617 C   0  0  0  0  0  0
  -25.4116  -36.3093   24.0327 C   0  0  1  0  0  0
  -20.5881  -28.3679   23.1294 C   0  0  2  0  0  0
  -20.6779  -26.9408   22.5415 C   0  0  0  0  0  0
  -19.5754  -26.6383   21.5219 C   0  0  0  0  0  0
  -18.1931  -26.7926   22.1625 C   0  0  0  0  0  0
  -19.1534  -28.8843   23.2896 C   0  0  0  0  0  0
  -18.9464  -30.1453   23.8901 C   0  0  0  0  0  0
  -17.6465  -30.6589   24.0563 C   0  0  0  0  0  0
  -25.9050  -34.9460   23.5102 C   0  0  0  0  0  0
  -16.5356  -29.9089   23.6329 C   0  0  0  0  0  0
  -16.7270  -28.6502   23.0355 C   0  0  0  0  0  0
  -26.4498  -31.6581   25.0688 C   0  0  0  0  0  0
  -25.3764  -31.3693   26.1434 C   0  0  0  0  0  0
  -27.0322  -30.3018   24.6066 C   0  0  0  0  0  0
  -27.6062  -32.4303   25.7464 C   0  0  0  0  0  0
  -27.5577  -37.1801   24.8470 C   0  0  0  0  0  0
  -21.4153  -29.3038   22.3679 N   0  0  0  0  0  0
  -26.4292  -37.3786   23.9412 N   0  0  0  0  0  0
  -24.6774  -31.0700   22.0956 N   0  0  0  0  0  0
  -23.4181  -28.8197   23.3011 O   0  0  0  0  0  0
  -28.3388  -26.5388   20.1238 O   0  0  0  0  0  0
  -26.5608  -34.8924   22.4662 O   0  0  0  0  0  0
  -23.5386  -32.1400   23.7420 O   0  0  0  0  0  0
  -29.3310  -16.5976   19.6053 C   0  0  0  0  0  0
  -30.2695  -16.7720   21.8105 C   0  0  0  0  0  0
  -29.9904  -15.9571   20.6853 C   0  0  0  0  0  0
  -29.4620  -18.8383   20.6790 C   0  0  0  0  0  0
  -29.0782  -18.0001   19.5944 C   0  0  0  0  0  0
  -30.0025  -18.1711   21.8179 C   0  0  0  0  0  0
  -29.5241  -20.4075   20.5391 C   0  0  0  0  0  0
  -28.2887  -23.8903   20.2333 C   0  0  0  0  0  0
  -28.4629  -22.6743   21.2401 C   0  0  0  0  0  0
  -28.2665  -25.3159   20.9286 C   0  0  0  0  0  0
  -28.2917  -21.2480   20.7457 N   0  3  0  0  0  0
  -28.3766  -18.6888   18.1746 Cl  0  0  0  0  0  0
  -30.4489  -19.0640   23.2296 Cl  0  0  0  0  0  0
  -31.4624  -12.4330   19.1903 H   0  0  0  0  0  0
  -30.2883  -11.3798   19.9299 H   0  0  0  0  0  0
  -29.7730  -11.7360   17.4879 H   0  0  0  0  0  0
  -29.6653  -13.4593   17.7499 H   0  0  0  0  0  0
  -27.8712  -11.2856   18.8817 H   0  0  0  0  0  0
  -27.3777  -12.5474   17.7830 H   0  0  0  0  0  0
  -27.6426  -14.2520   19.4806 H   0  0  0  0  0  0
  -28.6719  -12.1509   21.4480 H   0  0  0  0  0  0
  -28.4369  -13.8513   21.7763 H   0  0  0  0  0  0
  -25.2769   -9.5686   22.4749 H   0  0  0  0  0  0
  -24.0009   -7.4638   22.7469 H   0  0  0  0  0  0
  -21.0841   -8.8762   19.8968 H   0  0  0  0  0  0
  -22.3689  -10.9664   19.6158 H   0  0  0  0  0  0
  -21.1995   -7.6141   23.9715 H   0  0  0  0  0  0
  -21.1505   -6.0521   25.9083 H   0  0  0  0  0  0
  -22.0591   -2.7604   23.2846 H   0  0  0  0  0  0
  -22.4095  -11.9905   22.4817 H   0  0  0  0  0  0
  -21.1093  -13.1276   22.2620 H   0  0  0  0  0  0
  -24.6618  -15.8487   20.5346 H   0  0  0  0  0  0
  -26.2866  -15.6358   20.1221 H   0  0  0  0  0  0
  -26.7140  -32.5495   23.1098 H   0  0  0  0  0  0
  -25.0112  -33.9741   25.0459 H   0  0  0  0  0  0
  -22.7022  -31.3069   21.4044 H   0  0  0  0  0  0
  -23.3754  -35.9622   23.3314 H   0  0  0  0  0  0
  -24.3584  -36.8895   22.2049 H   0  0  0  0  0  0
  -23.7244  -37.6495   23.6648 H   0  0  0  0  0  0
  -26.0586  -31.5739   20.5899 H   0  0  0  0  0  0
  -26.8306  -30.8700   21.9815 H   0  0  0  0  0  0
  -28.1102  -29.0384   21.1740 H   0  0  0  0  0  0
  -26.0226  -25.9155   19.0599 H   0  0  0  0  0  0
  -23.9649  -27.2798   19.0538 H   0  0  0  0  0  0
  -23.7379  -30.5921   19.4032 H   0  0  0  0  0  0
  -22.7416  -29.2467   19.8622 H   0  0  0  0  0  0
  -25.1301  -36.1937   25.0818 H   0  0  0  0  0  0
  -20.9987  -28.3268   24.1408 H   0  0  0  0  0  0
  -20.5701  -26.2288   23.3613 H   0  0  0  0  0  0
  -21.6648  -26.7460   22.1197 H   0  0  0  0  0  0
  -19.6922  -25.6299   21.1240 H   0  0  0  0  0  0
  -19.6694  -27.3200   20.6757 H   0  0  0  0  0  0
  -17.4208  -26.6684   21.4021 H   0  0  0  0  0  0
  -18.0328  -26.0061   22.9011 H   0  0  0  0  0  0
  -19.7945  -30.7272   24.2258 H   0  0  0  0  0  0
  -17.5024  -31.6270   24.5162 H   0  0  0  0  0  0
  -15.5358  -30.2989   23.7656 H   0  0  0  0  0  0
  -15.8672  -28.0822   22.7064 H   0  0  0  0  0  0
  -24.5950  -30.7021   25.7779 H   0  0  0  0  0  0
  -24.8943  -32.2848   26.4867 H   0  0  0  0  0  0
  -25.8126  -30.8883   27.0197 H   0  0  0  0  0  0
  -26.2849  -29.6777   24.1143 H   0  0  0  0  0  0
  -27.4119  -29.7257   25.4515 H   0  0  0  0  0  0
  -27.8682  -30.4334   23.9191 H   0  0  0  0  0  0
  -27.2674  -33.3601   26.2042 H   0  0  0  0  0  0
  -28.3881  -32.6858   25.0301 H   0  0  0  0  0  0
  -28.0715  -31.8420   26.5383 H   0  0  0  0  0  0
  -28.2604  -38.0088   24.7511 H   0  0  0  0  0  0
  -28.1058  -36.2619   24.6307 H   0  0  0  0  0  0
  -27.2287  -37.1463   25.8869 H   0  0  0  0  0  0
  -20.9309  -29.8734   21.6882 H   0  0  0  0  0  0
  -26.0171  -38.2854   24.1427 H   0  0  0  0  0  0
  -29.1188  -16.0290   18.7115 H   0  0  0  0  0  0
  -30.7848  -16.3406   22.6564 H   0  0  0  0  0  0
  -29.9153  -20.6403   19.5484 H   0  0  0  0  0  0
  -30.3004  -20.7680   21.2117 H   0  0  0  0  0  0
  -27.3633  -23.7651   19.6717 H   0  0  0  0  0  0
  -29.0971  -23.8631   19.5030 H   0  0  0  0  0  0
  -27.7013  -22.8000   22.0104 H   0  0  0  0  0  0
  -29.4095  -22.7736   21.7722 H   0  0  0  0  0  0
  -29.1335  -25.3653   21.5878 H   0  0  0  0  0  0
  -27.4071  -25.3671   21.6003 H   0  0  0  0  0  0
  -27.7614  -20.7812   21.4639 H   0  0  0  0  0  0
  -27.7215  -21.2350   19.9163 H   0  0  0  0  0  0
  1 25  1  0  0  0
  1 30  2  0  0  0
  1 73  1  0  0  0
  2  3  1  0  0  0
  2 25  1  0  0  0
  2 84  1  0  0  0
  2 85  1  0  0  0
  3  4  1  0  0  0
  3 86  1  0  0  0
  3 87  1  0  0  0
  4  5  1  0  0  0
  4 88  1  0  0  0
  4 89  1  0  0  0
  5  6  1  0  0  0
  5 26  1  0  0  0
  5 90  1  0  0  0
  6 25  1  0  0  0
  6 91  1  0  0  0
  6 92  1  0  0  0
  7  8  2  0  0  0
  7 26  1  0  0  0
  7 29  1  0  0  0
  8  9  1  0  0  0
  8 22  1  0  0  0
  9 10  1  0  0  0
  9 27  2  0  0  0
 10 11  2  0  0  0
 10 15  1  0  0  0
 11 12  1  0  0  0
 11 93  1  0  0  0
 12 13  2  0  0  0
 12 94  1  0  0  0
 13 14  1  0  0  0
 13 31  1  0  0  0
 14 15  2  0  0  0
 14 95  1  0  0  0
 15 96  1  0  0  0
 16 17  2  0  0  0
 16 21  1  0  0  0
 16 31  1  0  0  0
 17 18  1  0  0  0
 17 97  1  0  0  0
 18 19  2  0  0  0
 18 98  1  0  0  0
 19 20  1  0  0  0
 19 24  1  0  0  0
 20 21  2  0  0  0
 20 99  1  0  0  0
 21 23  1  0  0  0
 22 28  1  0  0  0
 22 32  2  0  0  0
 26 27  1  0  0  0
 28100  1  0  0  0
 28101  1  0  0  0
 29102  1  0  0  0
 29103  1  0  0  0
 33 34  1  0  0  0
 33 66  1  0  0  0
 33 70  2  0  0  0
 34 36  1  0  0  0
 34 59  1  0  0  0
 34104  1  0  0  0
 35 44  2  0  0  0
 35 45  1  0  0  0
 35 68  1  0  0  0
 36 56  1  0  0  0
 36105  1  0  0  0
 37 39  1  0  0  0
 37 47  1  0  0  0
 37 66  1  0  0  0
 37106  1  0  0  0
 38 43  2  0  0  0
 38 46  1  0  0  0
 38 47  1  0  0  0
 39 64  1  0  0  0
 39 67  2  0  0  0
 40 52  1  0  0  0
 40 53  2  0  0  0
 40 58  1  0  0  0
 41107  1  0  0  0
 41108  1  0  0  0
 41109  1  0  0  0
 41 48  1  0  0  0
 42 43  1  0  0  0
 42 66  1  0  0  0
 42110  1  0  0  0
 42111  1  0  0  0
 43 44  1  0  0  0
 44112  1  0  0  0
 45 46  2  0  0  0
 45113  1  0  0  0
 46114  1  0  0  0
 47115  1  0  0  0
 47116  1  0  0  0
 48 56  1  0  0  0
 48 65  1  0  0  0
 48117  1  0  0  0
 49 50  1  0  0  0
 49 53  1  0  0  0
 49 64  1  0  0  0
 49118  1  0  0  0
 50 51  1  0  0  0
 50119  1  0  0  0
 50120  1  0  0  0
 51 52  1  0  0  0
 51121  1  0  0  0
 51122  1  0  0  0
 52123  1  0  0  0
 52124  1  0  0  0
 53 54  1  0  0  0
 54 55  2  0  0  0
 54125  1  0  0  0
 55 57  1  0  0  0
 55126  1  0  0  0
 56 69  2  0  0  0
 57 58  2  0  0  0
 57127  1  0  0  0
 58128  1  0  0  0
 59 60  1  0  0  0
 59 61  1  0  0  0
 59 62  1  0  0  0
 60129  1  0  0  0
 60130  1  0  0  0
 60131  1  0  0  0
 61132  1  0  0  0
 61133  1  0  0  0
 61134  1  0  0  0
 62135  1  0  0  0
 62136  1  0  0  0
 62137  1  0  0  0
 63 65  1  0  0  0
 63138  1  0  0  0
 63139  1  0  0  0
 63140  1  0  0  0
 64141  1  0  0  0
 65142  1  0  0  0
 68 80  1  0  0  0
 71 73  2  0  0  0
 71 75  1  0  0  0
 71143  1  0  0  0
 72 73  1  0  0  0
 72 76  2  0  0  0
 72144  1  0  0  0
 74 75  2  0  0  0
 74 76  1  0  0  0
 74 77  1  0  0  0
 75 82  1  0  0  0
 76 83  1  0  0  0
 77 81  1  0  0  0
 77145  1  0  0  0
 77146  1  0  0  0
 78 79  1  0  0  0
 78 80  1  0  0  0
 78147  1  0  0  0
 78148  1  0  0  0
 79 81  1  0  0  0
 79149  1  0  0  0
 79150  1  0  0  0
 80151  1  0  0  0
 80152  1  0  0  0
 81153  1  0  0  0
 81154  1  0  0  0
M  CHG  1  81   1
M  ISO  4   1 100  68 101  73 100  80 101
M  END
> <chiral flag>
0

> <version>
0

> <s_m_source_file>
/data/baiqing/PycharmProjects/Reinvent-master-3.2/result/LINK_invent/BTK/process_docking_weight1_custom_sum_contain_oxygen_bond_distance_aromatic_linkinvent_7_9_3/rearranged_h_0031.sdf

> <i_m_source_file_index>
29

> <r_mmod_Potential_Energy-OPLS-2005>
-124.824401855469

> <r_mmod_Stretch_Energy-OPLS-2005>
65.1322631835938

> <r_mmod_Bend_Energy-OPLS-2005>
133.584732055664

> <r_mmod_Torsional_Energy-OPLS-2005>
252.678817749023

> <r_mmod_Improper_Torsional_Energy-OPLS-2005>
10.1418962478638

> <r_mmod_Van_der_Waal_Energy-OPLS-2005>
129.108352661133

> <r_mmod_Electrostatic_Energy-OPLS-2005>
-296.178436279297

> <r_mmod_Solvation_Energy-OPLS-2005>
-458.806610107422

> <b_mmod_Minimization_Converged-OPLS-2005>
0

> <r_mmod_RMS_Derivative-OPLS-2005>
1.55981040000916

$$$$
29
                    3D
 Structure written by MMmdl.
163172  0  0  1  0            999 V2000
  -30.6190  -14.6759   20.4280 C   0  0  0  0  0  0
  -30.4169  -12.3972   19.4718 C   0  0  0  0  0  0
  -29.4938  -12.4787   18.2364 C   0  0  0  0  0  0
  -28.0198  -12.3157   18.6571 C   0  0  0  0  0  0
  -27.6388  -13.2041   19.8682 C   0  0  2  0  0  0
  -28.6883  -13.1340   20.9975 C   0  0  0  0  0  0
  -25.2456  -13.8067   20.5786 C   0  0  0  0  0  0
  -24.1736  -13.0334   20.9248 C   0  0  0  0  0  0
  -24.6337  -11.6829   20.8818 C   0  0  0  0  0  0
  -23.9034  -10.4220   21.0447 C   0  0  0  0  0  0
  -24.3597   -9.4133   21.9222 C   0  0  0  0  0  0
  -23.6277   -8.2164   22.0781 C   0  0  0  0  0  0
  -22.4259   -8.0216   21.3557 C   0  0  0  0  0  0
  -21.9881   -9.0186   20.4663 C   0  0  0  0  0  0
  -22.7215  -10.2059   20.3087 C   0  0  0  0  0  0
  -21.6828   -6.0702   22.5279 C   0  0  0  0  0  0
  -21.3980   -6.5625   23.8199 C   0  0  0  0  0  0
  -21.3670   -5.6796   24.9178 C   0  0  0  0  0  0
  -21.6058   -4.3057   24.7232 C   0  0  0  0  0  0
  -21.8823   -3.8129   23.4355 C   0  0  0  0  0  0
  -21.9180   -4.6938   22.3407 C   0  0  0  0  0  0
  -22.7764  -13.5128   21.1919 C   0  0  0  0  0  0
  -22.1663   -4.2117   21.0984 F   0  0  0  0  0  0
  -21.5651   -3.4550   25.7758 F   0  0  0  0  0  0
  -29.9919  -13.4592   20.4049 N   0  0  0  0  0  0
  -26.2891  -12.9252   20.3423 N   0  0  0  0  0  0
  -25.9263  -11.6408   20.5857 N   0  0  0  0  0  0
  -22.0454  -12.8080   22.0481 N   0  0  0  0  0  0
  -25.4047  -15.1771   20.4322 N   0  0  0  0  0  0
  -31.8085  -14.7788   20.1181 O   0  0  0  0  0  0
  -21.6620   -6.8819   21.4236 O   0  0  0  0  0  0
  -22.3445  -14.5434   20.6780 O   0  0  0  0  0  0
  -24.6204  -31.8602   23.2010 C   0  0  0  0  0  0
  -25.9025  -32.4796   23.8353 C   0  0  1  0  0  0
  -27.2119  -27.3227   20.1274 C   0  0  0  0  0  0
  -25.5890  -33.8599   24.2288 N   0  0  0  0  0  0
  -23.4170  -30.4845   21.5401 C   0  0  2  0  0  0
  -24.8603  -28.9412   20.0981 C   0  0  0  0  0  0
  -22.7467  -29.4620   22.4874 C   0  0  0  0  0  0
  -18.0304  -28.1352   22.8561 C   0  0  0  0  0  0
  -24.1479  -36.7266   23.2641 C   0  0  0  0  0  0
  -25.9513  -30.7968   21.3623 C   0  0  0  0  0  0
  -26.0237  -29.4237   20.7066 C   0  0  0  0  0  0
  -27.2007  -28.6252   20.7104 C   0  0  0  0  0  0
  -26.0271  -26.8772   19.4996 C   0  0  0  0  0  0
  -24.8638  -27.6755   19.4836 C   0  0  0  0  0  0
  -23.6265  -29.8208   20.1528 C   0  0  0  0  0  0
  -25.4115  -36.3094   24.0371 C   0  0  1  0  0  0
  -20.5911  -28.3631   23.1267 C   0  0  2  0  0  0
  -20.6793  -26.9350   22.5389 C   0  0  0  0  0  0
  -19.5734  -26.6344   21.5219 C   0  0  0  0  0  0
  -18.1919  -26.7905   22.1658 C   0  0  0  0  0  0
  -19.1575  -28.8805   23.2949 C   0  0  0  0  0  0
  -18.9491  -30.1418   23.8924 C   0  0  0  0  0  0
  -17.6493  -30.6586   24.0552 C   0  0  0  0  0  0
  -25.9043  -34.9477   23.5147 C   0  0  0  0  0  0
  -16.5362  -29.9107   23.6323 C   0  0  0  0  0  0
  -16.7296  -28.6512   23.0375 C   0  0  0  0  0  0
  -26.4430  -31.6610   25.0696 C   0  0  0  0  0  0
  -25.3698  -31.3826   26.1461 C   0  0  0  0  0  0
  -27.0185  -30.3051   24.6047 C   0  0  0  0  0  0
  -27.6008  -32.4335   25.7444 C   0  0  0  0  0  0
  -27.5619  -37.1769   24.8487 C   0  0  0  0  0  0
  -21.4172  -29.3020   22.3677 N   0  0  0  0  0  0
  -26.4288  -37.3796   23.9498 N   0  0  0  0  0  0
  -24.6823  -31.0619   22.0925 N   0  0  0  0  0  0
  -23.4191  -28.8099   23.2900 O   0  0  0  0  0  0
  -28.3399  -26.4966   20.2244 O   0  0  0  0  0  0
  -26.5593  -34.8959   22.4692 O   0  0  0  0  0  0
  -23.5365  -32.1311   23.7379 O   0  0  0  0  0  0
  -27.3263  -20.5673   19.7100 C   0  0  0  0  0  0
  -29.5367  -19.7794   20.3205 C   0  0  0  0  0  0
  -26.9419  -19.2454   19.4098 C   0  0  0  0  0  0
  -28.6401  -20.8860   20.0853 C   0  0  0  0  0  0
  -29.1776  -18.4037   20.0605 C   0  0  0  0  0  0
  -27.8899  -18.1887   19.4962 C   0  0  0  0  0  0
  -23.4828  -19.7143   18.7926 C   0  0  0  0  0  0
  -24.3703  -19.3140   19.9748 C   0  0  0  0  0  0
  -24.7768  -19.9754   18.0077 C   0  0  0  0  0  0
  -25.4963  -19.0130   18.9726 C   0  0  0  0  0  0
  -29.0776  -22.3945   20.0250 C   0  0  0  0  0  0
  -30.2303  -17.2251   20.2117 C   0  0  0  0  0  0
  -28.1482  -23.5677   20.5853 C   0  0  0  0  0  0
  -28.3333  -25.0371   19.9334 C   0  0  0  0  0  0
  -29.8373  -15.8016   20.5581 N   0  0  0  0  0  0
  -27.5328  -16.6751   18.7459 Cl  0  0  0  0  0  0
  -31.4626  -12.4937   19.1768 H   0  0  0  0  0  0
  -30.3276  -11.4218   19.9530 H   0  0  0  0  0  0
  -29.7572  -11.7028   17.5168 H   0  0  0  0  0  0
  -29.6261  -13.4338   17.7247 H   0  0  0  0  0  0
  -27.8685  -11.2668   18.9158 H   0  0  0  0  0  0
  -27.3529  -12.5216   17.8186 H   0  0  0  0  0  0
  -27.6348  -14.2195   19.4960 H   0  0  0  0  0  0
  -28.7130  -12.1414   21.4483 H   0  0  0  0  0  0
  -28.4402  -13.8295   21.8008 H   0  0  0  0  0  0
  -25.2744   -9.5579   22.4814 H   0  0  0  0  0  0
  -23.9983   -7.4523   22.7479 H   0  0  0  0  0  0
  -21.0822   -8.8674   19.8966 H   0  0  0  0  0  0
  -22.3674  -10.9594   19.6195 H   0  0  0  0  0  0
  -21.1949   -7.6139   23.9667 H   0  0  0  0  0  0
  -21.1522   -6.0559   25.9071 H   0  0  0  0  0  0
  -22.0605   -2.7595   23.2868 H   0  0  0  0  0  0
  -22.4132  -11.9725   22.4780 H   0  0  0  0  0  0
  -21.1089  -13.1048   22.2804 H   0  0  0  0  0  0
  -24.6182  -15.8090   20.5237 H   0  0  0  0  0  0
  -26.2235  -15.6186   20.0315 H   0  0  0  0  0  0
  -26.7049  -32.5442   23.1076 H   0  0  0  0  0  0
  -25.0104  -33.9798   25.0477 H   0  0  0  0  0  0
  -22.7105  -31.3065   21.4021 H   0  0  0  0  0  0
  -23.3817  -35.9520   23.3241 H   0  0  0  0  0  0
  -24.3598  -36.8897   22.2060 H   0  0  0  0  0  0
  -23.7130  -37.6435   23.6650 H   0  0  0  0  0  0
  -26.0749  -31.5597   20.5917 H   0  0  0  0  0  0
  -26.8336  -30.8431   21.9874 H   0  0  0  0  0  0
  -28.0991  -28.9845   21.1954 H   0  0  0  0  0  0
  -25.9810  -25.8935   19.0538 H   0  0  0  0  0  0
  -23.9691  -27.2960   19.0095 H   0  0  0  0  0  0
  -23.7349  -30.5969   19.3922 H   0  0  0  0  0  0
  -22.7473  -29.2455   19.8576 H   0  0  0  0  0  0
  -25.1274  -36.1932   25.0863 H   0  0  0  0  0  0
  -21.0069  -28.3120   24.1350 H   0  0  0  0  0  0
  -20.5614  -26.2238   23.3572 H   0  0  0  0  0  0
  -21.6675  -26.7311   22.1192 H   0  0  0  0  0  0
  -19.6914  -25.6267   21.1229 H   0  0  0  0  0  0
  -19.6702  -27.3177   20.6756 H   0  0  0  0  0  0
  -17.4217  -26.6677   21.4034 H   0  0  0  0  0  0
  -18.0312  -26.0017   22.9002 H   0  0  0  0  0  0
  -19.7961  -30.7258   24.2254 H   0  0  0  0  0  0
  -17.5056  -31.6271   24.5133 H   0  0  0  0  0  0
  -15.5374  -30.3012   23.7662 H   0  0  0  0  0  0
  -15.8687  -28.0838   22.7058 H   0  0  0  0  0  0
  -24.5858  -30.7166   25.7850 H   0  0  0  0  0  0
  -24.8904  -32.3008   26.4838 H   0  0  0  0  0  0
  -25.7999  -30.9058   27.0265 H   0  0  0  0  0  0
  -26.2657  -29.6914   24.1058 H   0  0  0  0  0  0
  -27.3923  -29.7210   25.4466 H   0  0  0  0  0  0
  -27.8547  -30.4429   23.9194 H   0  0  0  0  0  0
  -27.2661  -33.3738   26.1874 H   0  0  0  0  0  0
  -28.3844  -32.6712   25.0230 H   0  0  0  0  0  0
  -28.0588  -31.8515   26.5454 H   0  0  0  0  0  0
  -28.2549  -38.0141   24.7634 H   0  0  0  0  0  0
  -28.1157  -36.2686   24.6114 H   0  0  0  0  0  0
  -27.2356  -37.1153   25.8875 H   0  0  0  0  0  0
  -20.9272  -29.8825   21.7007 H   0  0  0  0  0  0
  -26.0168  -38.2859   24.1568 H   0  0  0  0  0  0
  -26.6186  -21.3678   19.5627 H   0  0  0  0  0  0
  -30.5477  -19.9973   20.6322 H   0  0  0  0  0  0
  -22.8651  -20.5928   18.9837 H   0  0  0  0  0  0
  -22.8956  -18.8824   18.3949 H   0  0  0  0  0  0
  -24.0271  -18.4601   20.5605 H   0  0  0  0  0  0
  -24.6024  -20.1639   20.6204 H   0  0  0  0  0  0
  -25.0943  -21.0161   18.0933 H   0  0  0  0  0  0
  -24.7690  -19.6560   16.9638 H   0  0  0  0  0  0
  -25.3610  -17.9997   18.5962 H   0  0  0  0  0  0
  -29.2138  -22.5923   18.9601 H   0  0  0  0  0  0
  -30.0711  -22.4924   20.4609 H   0  0  0  0  0  0
  -30.9966  -17.5370   20.9229 H   0  0  0  0  0  0
  -30.7368  -17.1830   19.2461 H   0  0  0  0  0  0
  -28.3087  -23.5486   21.6713 H   0  0  0  0  0  0
  -27.0988  -23.2939   20.4547 H   0  0  0  0  0  0
  -29.4233  -25.0144   19.9508 H   0  0  0  0  0  0
  -27.8034  -25.2141   20.8681 H   0  0  0  0  0  0
  -28.8647  -15.6438   20.7732 H   0  0  0  0  0  0
  1 25  1  0  0  0
  1 30  2  0  0  0
  1 85  1  0  0  0
  2  3  1  0  0  0
  2 25  1  0  0  0
  2 87  1  0  0  0
  2 88  1  0  0  0
  3  4  1  0  0  0
  3 89  1  0  0  0
  3 90  1  0  0  0
  4  5  1  0  0  0
  4 91  1  0  0  0
  4 92  1  0  0  0
  5  6  1  0  0  0
  5 26  1  0  0  0
  5 93  1  0  0  0
  6 25  1  0  0  0
  6 94  1  0  0  0
  6 95  1  0  0  0
  7  8  2  0  0  0
  7 26  1  0  0  0
  7 29  1  0  0  0
  8  9  1  0  0  0
  8 22  1  0  0  0
  9 10  1  0  0  0
  9 27  2  0  0  0
 10 11  2  0  0  0
 10 15  1  0  0  0
 11 12  1  0  0  0
 11 96  1  0  0  0
 12 13  2  0  0  0
 12 97  1  0  0  0
 13 14  1  0  0  0
 13 31  1  0  0  0
 14 15  2  0  0  0
 14 98  1  0  0  0
 15 99  1  0  0  0
 16 17  2  0  0  0
 16 21  1  0  0  0
 16 31  1  0  0  0
 17 18  1  0  0  0
 17100  1  0  0  0
 18 19  2  0  0  0
 18101  1  0  0  0
 19 20  1  0  0  0
 19 24  1  0  0  0
 20 21  2  0  0  0
 20102  1  0  0  0
 21 23  1  0  0  0
 22 28  1  0  0  0
 22 32  2  0  0  0
 26 27  1  0  0  0
 28103  1  0  0  0
 28104  1  0  0  0
 29105  1  0  0  0
 29106  1  0  0  0
 33 34  1  0  0  0
 33 66  1  0  0  0
 33 70  2  0  0  0
 34 36  1  0  0  0
 34 59  1  0  0  0
 34107  1  0  0  0
 35 44  2  0  0  0
 35 45  1  0  0  0
 35 68  1  0  0  0
 36 56  1  0  0  0
 36108  1  0  0  0
 37 39  1  0  0  0
 37 47  1  0  0  0
 37 66  1  0  0  0
 37109  1  0  0  0
 38 43  2  0  0  0
 38 46  1  0  0  0
 38 47  1  0  0  0
 39 64  1  0  0  0
 39 67  2  0  0  0
 40 52  1  0  0  0
 40 53  2  0  0  0
 40 58  1  0  0  0
 41110  1  0  0  0
 41111  1  0  0  0
 41112  1  0  0  0
 41 48  1  0  0  0
 42 43  1  0  0  0
 42 66  1  0  0  0
 42113  1  0  0  0
 42114  1  0  0  0
 43 44  1  0  0  0
 44115  1  0  0  0
 45 46  2  0  0  0
 45116  1  0  0  0
 46117  1  0  0  0
 47118  1  0  0  0
 47119  1  0  0  0
 48 56  1  0  0  0
 48 65  1  0  0  0
 48120  1  0  0  0
 49 50  1  0  0  0
 49 53  1  0  0  0
 49 64  1  0  0  0
 49121  1  0  0  0
 50 51  1  0  0  0
 50122  1  0  0  0
 50123  1  0  0  0
 51 52  1  0  0  0
 51124  1  0  0  0
 51125  1  0  0  0
 52126  1  0  0  0
 52127  1  0  0  0
 53 54  1  0  0  0
 54 55  2  0  0  0
 54128  1  0  0  0
 55 57  1  0  0  0
 55129  1  0  0  0
 56 69  2  0  0  0
 57 58  2  0  0  0
 57130  1  0  0  0
 58131  1  0  0  0
 59 60  1  0  0  0
 59 61  1  0  0  0
 59 62  1  0  0  0
 60132  1  0  0  0
 60133  1  0  0  0
 60134  1  0  0  0
 61135  1  0  0  0
 61136  1  0  0  0
 61137  1  0  0  0
 62138  1  0  0  0
 62139  1  0  0  0
 62140  1  0  0  0
 63 65  1  0  0  0
 63141  1  0  0  0
 63142  1  0  0  0
 63143  1  0  0  0
 64144  1  0  0  0
 65145  1  0  0  0
 68 84  1  0  0  0
 71 73  2  0  0  0
 71 74  1  0  0  0
 71146  1  0  0  0
 72 74  2  0  0  0
 72 75  1  0  0  0
 72147  1  0  0  0
 73 76  1  0  0  0
 73 80  1  0  0  0
 74 81  1  0  0  0
 75 76  2  0  0  0
 75 82  1  0  0  0
 76 86  1  0  0  0
 77 78  1  0  0  0
 77 79  1  0  0  0
 77148  1  0  0  0
 77149  1  0  0  0
 78 80  1  0  0  0
 78150  1  0  0  0
 78151  1  0  0  0
 79 80  1  0  0  0
 79152  1  0  0  0
 79153  1  0  0  0
 80154  1  0  0  0
 81 83  1  0  0  0
 81155  1  0  0  0
 81156  1  0  0  0
 82 85  1  0  0  0
 82157  1  0  0  0
 82158  1  0  0  0
 83 84  1  0  0  0
 83159  1  0  0  0
 83160  1  0  0  0
 84161  1  0  0  0
 84162  1  0  0  0
 85163  1  0  0  0
M  ISO  4   1 100  68 101  84 101  85 100
M  END
> <chiral flag>
0

> <version>
0

> <s_m_source_file>
/data/baiqing/PycharmProjects/Reinvent-master-3.2/result/LINK_invent/BTK/process_docking_weight1_custom_sum_contain_oxygen_bond_distance_aromatic_linkinvent_7_9_3/rearranged_h_0031.sdf

> <i_m_source_file_index>
30

> <r_mmod_Potential_Energy-OPLS-2005>
367.370025634766

> <r_mmod_Stretch_Energy-OPLS-2005>
91.3171920776367

> <r_mmod_Bend_Energy-OPLS-2005>
389.859588623047

> <r_mmod_Torsional_Energy-OPLS-2005>
246.486053466797

> <r_mmod_Improper_Torsional_Energy-OPLS-2005>
8.4206018447876

> <r_mmod_Van_der_Waal_Energy-OPLS-2005>
157.265213012695

> <r_mmod_Electrostatic_Energy-OPLS-2005>
-394.85009765625

> <r_mmod_Solvation_Energy-OPLS-2005>
-191.048080444336

> <b_mmod_Minimization_Converged-OPLS-2005>
0

> <r_mmod_RMS_Derivative-OPLS-2005>
5.79771375656128

$$$$
30
                    3D
 Structure written by MMmdl.
141149  0  0  1  0            999 V2000
  -30.2935  -15.7069   20.3076 C   0  0  0  0  0  0
  -30.4149  -13.1218   19.5630 C   0  0  0  0  0  0
  -29.5568  -12.6743   18.3423 C   0  0  0  0  0  0
  -28.1324  -12.3049   18.7781 C   0  0  0  0  0  0
  -27.5890  -13.3225   19.8049 C   0  0  2  0  0  0
  -28.5906  -13.6980   20.9221 C   0  0  0  0  0  0
  -25.2301  -13.8322   20.5802 C   0  0  0  0  0  0
  -24.1699  -13.0447   20.9269 C   0  0  0  0  0  0
  -24.6418  -11.6962   20.8740 C   0  0  0  0  0  0
  -23.9127  -10.4300   21.0382 C   0  0  0  0  0  0
  -24.3661   -9.4215   21.9170 C   0  0  0  0  0  0
  -23.6320   -8.2256   22.0751 C   0  0  0  0  0  0
  -22.4299   -8.0292   21.3544 C   0  0  0  0  0  0
  -21.9945   -9.0266   20.4642 C   0  0  0  0  0  0
  -22.7289  -10.2137   20.3042 C   0  0  0  0  0  0
  -21.6863   -6.0744   22.5279 C   0  0  0  0  0  0
  -21.4022   -6.5645   23.8213 C   0  0  0  0  0  0
  -21.3662   -5.6795   24.9173 C   0  0  0  0  0  0
  -21.6044   -4.3058   24.7223 C   0  0  0  0  0  0
  -21.8818   -3.8151   23.4343 C   0  0  0  0  0  0
  -21.9196   -4.6970   22.3401 C   0  0  0  0  0  0
  -22.7710  -13.5162   21.1919 C   0  0  0  0  0  0
  -22.1662   -4.2155   21.0978 F   0  0  0  0  0  0
  -21.5627   -3.4540   25.7735 F   0  0  0  0  0  0
  -29.7732  -14.3255   20.2823 N   0  0  0  0  0  0
  -26.2747  -12.9675   20.3201 N   0  0  0  0  0  0
  -25.9366  -11.6729   20.5659 N   0  0  0  0  0  0
  -22.0390  -12.8129   22.0475 N   0  0  0  0  0  0
  -25.3907  -15.2072   20.4327 N   0  0  0  0  0  0
  -31.5265  -15.5786   20.1474 O   0  0  0  0  0  0
  -21.6654   -6.8893   21.4244 O   0  0  0  0  0  0
  -22.3372  -14.5458   20.6762 O   0  0  0  0  0  0
  -24.6894  -31.7929   23.1461 C   0  0  0  0  0  0
  -25.9447  -32.4430   23.8030 C   0  0  1  0  0  0
  -27.2256  -26.6416   20.2232 C   0  0  0  0  0  0
  -25.6001  -33.8259   24.1912 N   0  0  0  0  0  0
  -23.5179  -30.3920   21.5015 C   0  0  2  0  0  0
  -24.9750  -28.7190   20.1200 C   0  0  0  0  0  0
  -22.7790  -29.4279   22.4694 C   0  0  0  0  0  0
  -18.0342  -28.1424   22.8452 C   0  0  0  0  0  0
  -24.1496  -36.7138   23.2654 C   0  0  0  0  0  0
  -26.1009  -30.5060   21.4190 C   0  0  0  0  0  0
  -26.1651  -29.0639   20.7709 C   0  0  0  0  0  0
  -27.2729  -28.0553   20.7862 C   0  0  0  0  0  0
  -26.0018  -26.5199   19.5137 C   0  0  0  0  0  0
  -24.9360  -27.4738   19.4671 C   0  0  0  0  0  0
  -23.7748  -29.6825   20.1396 C   0  0  0  0  0  0
  -25.4149  -36.2874   24.0277 C   0  0  1  0  0  0
  -20.5980  -28.3787   23.1131 C   0  0  2  0  0  0
  -20.6805  -26.9440   22.5404 C   0  0  0  0  0  0
  -19.5782  -26.6369   21.5216 C   0  0  0  0  0  0
  -18.1965  -26.7951   22.1618 C   0  0  0  0  0  0
  -19.1609  -28.8931   23.2770 C   0  0  0  0  0  0
  -18.9514  -30.1513   23.8819 C   0  0  0  0  0  0
  -17.6503  -30.6605   24.0549 C   0  0  0  0  0  0
  -25.9133  -34.9266   23.4936 C   0  0  0  0  0  0
  -16.5392  -29.9086   23.6352 C   0  0  0  0  0  0
  -16.7321  -28.6508   23.0368 C   0  0  0  0  0  0
  -26.4606  -31.6492   25.0678 C   0  0  0  0  0  0
  -25.3656  -31.3826   26.1282 C   0  0  0  0  0  0
  -27.0548  -30.2823   24.6623 C   0  0  0  0  0  0
  -27.6041  -32.4368   25.7502 C   0  0  0  0  0  0
  -27.5562  -37.1725   24.8466 C   0  0  0  0  0  0
  -21.4432  -29.3022   22.3444 N   0  0  0  0  0  0
  -26.4269  -37.3642   23.9407 N   0  0  0  0  0  0
  -24.7936  -30.9316   22.0745 N   0  0  0  0  0  0
  -23.4206  -28.7891   23.3068 O   0  0  0  0  0  0
  -28.1894  -25.4034   20.2965 O   0  0  0  0  0  0
  -26.5783  -34.8856   22.4560 O   0  0  0  0  0  0
  -23.5901  -32.1031   23.6379 O   0  0  0  0  0  0
  -30.0228  -18.8931   20.2400 C   0  0  0  0  0  0
  -29.5699  -17.4524   20.3528 C   0  0  0  0  0  0
  -29.0878  -21.9478   20.3653 C   0  0  0  0  0  0
  -28.0392  -23.6162   20.1941 C   0  0  0  0  0  0
  -28.2107  -17.9141   20.5188 N   0  0  0  0  0  0
  -27.9490  -19.2784   20.5199 N   0  0  0  0  0  0
  -29.0462  -20.1153   20.3152 N   0  0  0  0  0  0
  -31.4134  -13.3667   19.2003 H   0  0  0  0  0  0
  -30.5676  -12.2891   20.2518 H   0  0  0  0  0  0
  -30.0259  -11.8322   17.8317 H   0  0  0  0  0  0
  -29.5149  -13.4892   17.6182 H   0  0  0  0  0  0
  -28.1682  -11.3136   19.2317 H   0  0  0  0  0  0
  -27.4698  -12.2277   17.9152 H   0  0  0  0  0  0
  -27.4398  -14.2313   19.2198 H   0  0  0  0  0  0
  -28.8514  -12.8363   21.5384 H   0  0  0  0  0  0
  -28.1386  -14.4275   21.5956 H   0  0  0  0  0  0
  -25.2801   -9.5691   22.4752 H   0  0  0  0  0  0
  -24.0021   -7.4652   22.7479 H   0  0  0  0  0  0
  -21.0874   -8.8792   19.8950 H   0  0  0  0  0  0
  -22.3745  -10.9675   19.6152 H   0  0  0  0  0  0
  -21.2018   -7.6153   23.9718 H   0  0  0  0  0  0
  -21.1484   -6.0525   25.9076 H   0  0  0  0  0  0
  -22.0594   -2.7613   23.2841 H   0  0  0  0  0  0
  -22.4046  -11.9808   22.4864 H   0  0  0  0  0  0
  -21.0996  -13.1114   22.2684 H   0  0  0  0  0  0
  -24.6277  -15.8594   20.5768 H   0  0  0  0  0  0
  -26.2559  -15.6659   20.1720 H   0  0  0  0  0  0
  -26.7534  -32.4887   23.0743 H   0  0  0  0  0  0
  -25.0048  -33.9287   24.9998 H   0  0  0  0  0  0
  -22.8467  -31.2309   21.3062 H   0  0  0  0  0  0
  -23.3778  -35.9446   23.3260 H   0  0  0  0  0  0
  -24.3562  -36.8861   22.2080 H   0  0  0  0  0  0
  -23.7237  -37.6291   23.6774 H   0  0  0  0  0  0
  -26.3102  -31.2266   20.6274 H   0  0  0  0  0  0
  -26.9495  -30.5759   22.0870 H   0  0  0  0  0  0
  -28.1684  -28.3283   21.3264 H   0  0  0  0  0  0
  -25.8262  -25.5805   19.0088 H   0  0  0  0  0  0
  -24.0391  -27.2002   18.9283 H   0  0  0  0  0  0
  -23.9556  -30.4395   19.3757 H   0  0  0  0  0  0
  -22.8780  -29.1525   19.8143 H   0  0  0  0  0  0
  -25.1362  -36.1626   25.0767 H   0  0  0  0  0  0
  -21.0060  -28.3417   24.1258 H   0  0  0  0  0  0
  -20.5661  -26.2413   23.3672 H   0  0  0  0  0  0
  -21.6666  -26.7373   22.1227 H   0  0  0  0  0  0
  -19.6938  -25.6258   21.1298 H   0  0  0  0  0  0
  -19.6728  -27.3135   20.6712 H   0  0  0  0  0  0
  -17.4235  -26.6693   21.4021 H   0  0  0  0  0  0
  -18.0352  -26.0112   22.9031 H   0  0  0  0  0  0
  -19.7989  -30.7349   24.2155 H   0  0  0  0  0  0
  -17.5053  -31.6277   24.5166 H   0  0  0  0  0  0
  -15.5389  -30.2963   23.7721 H   0  0  0  0  0  0
  -15.8722  -28.0800   22.7129 H   0  0  0  0  0  0
  -24.5869  -30.7147   25.7579 H   0  0  0  0  0  0
  -24.8814  -32.3053   26.4490 H   0  0  0  0  0  0
  -25.7819  -30.9130   27.0203 H   0  0  0  0  0  0
  -26.3277  -29.6417   24.1623 H   0  0  0  0  0  0
  -27.3960  -29.7296   25.5386 H   0  0  0  0  0  0
  -27.9263  -30.3934   24.0169 H   0  0  0  0  0  0
  -27.2572  -33.3747   26.1851 H   0  0  0  0  0  0
  -28.3968  -32.6806   25.0416 H   0  0  0  0  0  0
  -28.0581  -31.8652   26.5606 H   0  0  0  0  0  0
  -28.2543  -38.0054   24.7515 H   0  0  0  0  0  0
  -28.1095  -36.2575   24.6293 H   0  0  0  0  0  0
  -27.2276  -37.1358   25.8867 H   0  0  0  0  0  0
  -20.9751  -29.8667   21.6491 H   0  0  0  0  0  0
  -26.0090  -38.2686   24.1422 H   0  0  0  0  0  0
  -31.0647  -19.1579   20.1088 H   0  0  0  0  0  0
  -29.5545  -22.1127   21.3359 H   0  0  0  0  0  0
  -29.8996  -22.1543   19.6687 H   0  0  0  0  0  0
  -27.2130  -23.4428   20.8835 H   0  0  0  0  0  0
  -27.5761  -23.5033   19.2139 H   0  0  0  0  0  0
  1 25  1  0  0  0
  1 30  2  0  0  0
  1 72  1  0  0  0
  2  3  1  0  0  0
  2 25  1  0  0  0
  2 78  1  0  0  0
  2 79  1  0  0  0
  3  4  1  0  0  0
  3 80  1  0  0  0
  3 81  1  0  0  0
  4  5  1  0  0  0
  4 82  1  0  0  0
  4 83  1  0  0  0
  5  6  1  0  0  0
  5 26  1  0  0  0
  5 84  1  0  0  0
  6 25  1  0  0  0
  6 85  1  0  0  0
  6 86  1  0  0  0
  7  8  2  0  0  0
  7 26  1  0  0  0
  7 29  1  0  0  0
  8  9  1  0  0  0
  8 22  1  0  0  0
  9 10  1  0  0  0
  9 27  2  0  0  0
 10 11  2  0  0  0
 10 15  1  0  0  0
 11 12  1  0  0  0
 11 87  1  0  0  0
 12 13  2  0  0  0
 12 88  1  0  0  0
 13 14  1  0  0  0
 13 31  1  0  0  0
 14 15  2  0  0  0
 14 89  1  0  0  0
 15 90  1  0  0  0
 16 17  2  0  0  0
 16 21  1  0  0  0
 16 31  1  0  0  0
 17 18  1  0  0  0
 17 91  1  0  0  0
 18 19  2  0  0  0
 18 92  1  0  0  0
 19 20  1  0  0  0
 19 24  1  0  0  0
 20 21  2  0  0  0
 20 93  1  0  0  0
 21 23  1  0  0  0
 22 28  1  0  0  0
 22 32  2  0  0  0
 26 27  1  0  0  0
 28 94  1  0  0  0
 28 95  1  0  0  0
 29 96  1  0  0  0
 29 97  1  0  0  0
 33 34  1  0  0  0
 33 66  1  0  0  0
 33 70  2  0  0  0
 34 36  1  0  0  0
 34 59  1  0  0  0
 34 98  1  0  0  0
 35 44  2  0  0  0
 35 45  1  0  0  0
 35 68  1  0  0  0
 36 56  1  0  0  0
 36 99  1  0  0  0
 37 39  1  0  0  0
 37 47  1  0  0  0
 37 66  1  0  0  0
 37100  1  0  0  0
 38 43  2  0  0  0
 38 46  1  0  0  0
 38 47  1  0  0  0
 39 64  1  0  0  0
 39 67  2  0  0  0
 40 52  1  0  0  0
 40 53  2  0  0  0
 40 58  1  0  0  0
 41101  1  0  0  0
 41102  1  0  0  0
 41103  1  0  0  0
 41 48  1  0  0  0
 42 43  1  0  0  0
 42 66  1  0  0  0
 42104  1  0  0  0
 42105  1  0  0  0
 43 44  1  0  0  0
 44106  1  0  0  0
 45 46  2  0  0  0
 45107  1  0  0  0
 46108  1  0  0  0
 47109  1  0  0  0
 47110  1  0  0  0
 48 56  1  0  0  0
 48 65  1  0  0  0
 48111  1  0  0  0
 49 50  1  0  0  0
 49 53  1  0  0  0
 49 64  1  0  0  0
 49112  1  0  0  0
 50 51  1  0  0  0
 50113  1  0  0  0
 50114  1  0  0  0
 51 52  1  0  0  0
 51115  1  0  0  0
 51116  1  0  0  0
 52117  1  0  0  0
 52118  1  0  0  0
 53 54  1  0  0  0
 54 55  2  0  0  0
 54119  1  0  0  0
 55 57  1  0  0  0
 55120  1  0  0  0
 56 69  2  0  0  0
 57 58  2  0  0  0
 57121  1  0  0  0
 58122  1  0  0  0
 59 60  1  0  0  0
 59 61  1  0  0  0
 59 62  1  0  0  0
 60123  1  0  0  0
 60124  1  0  0  0
 60125  1  0  0  0
 61126  1  0  0  0
 61127  1  0  0  0
 61128  1  0  0  0
 62129  1  0  0  0
 62130  1  0  0  0
 62131  1  0  0  0
 63 65  1  0  0  0
 63132  1  0  0  0
 63133  1  0  0  0
 63134  1  0  0  0
 64135  1  0  0  0
 65136  1  0  0  0
 68 74  1  0  0  0
 71 72  2  0  0  0
 71 77  1  0  0  0
 71137  1  0  0  0
 72 75  1  0  0  0
 73 74  1  0  0  0
 73 77  1  0  0  0
 73138  1  0  0  0
 73139  1  0  0  0
 74140  1  0  0  0
 74141  1  0  0  0
 75 76  2  0  0  0
 76 77  1  0  0  0
M  ISO  4   1 100  68 101  72 100  74 101
M  END
> <chiral flag>
0

> <version>
0

> <s_m_source_file>
/data/baiqing/PycharmProjects/Reinvent-master-3.2/result/LINK_invent/BTK/process_docking_weight1_custom_sum_contain_oxygen_bond_distance_aromatic_linkinvent_7_9_3/rearranged_h_0031.sdf

> <i_m_source_file_index>
31

> <r_mmod_Potential_Energy-OPLS-2005>
2765.70288085938

> <r_mmod_Stretch_Energy-OPLS-2005>
1215.27429199219

> <r_mmod_Bend_Energy-OPLS-2005>
704.393920898438

> <r_mmod_Torsional_Energy-OPLS-2005>
209.962814331055

> <r_mmod_Improper_Torsional_Energy-OPLS-2005>
3.1764862537384

> <r_mmod_Van_der_Waal_Energy-OPLS-2005>
108.072616577148

> <r_mmod_Electrostatic_Energy-OPLS-2005>
-272.817199707031

> <r_mmod_Solvation_Energy-OPLS-2005>
-210.527969360352

> <b_mmod_Minimization_Converged-OPLS-2005>
0

> <r_mmod_RMS_Derivative-OPLS-2005>
0.0520106479525566

$$$$
31
                    3D
 Structure written by MMmdl.
165174  0  0  1  0            999 V2000
  -30.6264  -14.7073   20.4628 C   0  0  0  0  0  0
  -30.4287  -12.4266   19.4742 C   0  0  0  0  0  0
  -29.5043  -12.4923   18.2385 C   0  0  0  0  0  0
  -28.0329  -12.3196   18.6599 C   0  0  0  0  0  0
  -27.6435  -13.2265   19.8575 C   0  0  2  0  0  0
  -28.6884  -13.1502   20.9927 C   0  0  0  0  0  0
  -25.2492  -13.8172   20.5669 C   0  0  0  0  0  0
  -24.1782  -13.0427   20.9198 C   0  0  0  0  0  0
  -24.6374  -11.6909   20.8762 C   0  0  0  0  0  0
  -23.9053  -10.4286   21.0415 C   0  0  0  0  0  0
  -24.3607   -9.4202   21.9190 C   0  0  0  0  0  0
  -23.6287   -8.2235   22.0753 C   0  0  0  0  0  0
  -22.4272   -8.0273   21.3543 C   0  0  0  0  0  0
  -21.9903   -9.0245   20.4647 C   0  0  0  0  0  0
  -22.7226  -10.2128   20.3060 C   0  0  0  0  0  0
  -21.6853   -6.0727   22.5276 C   0  0  0  0  0  0
  -21.4012   -6.5634   23.8209 C   0  0  0  0  0  0
  -21.3662   -5.6790   24.9177 C   0  0  0  0  0  0
  -21.6045   -4.3051   24.7229 C   0  0  0  0  0  0
  -21.8819   -3.8140   23.4353 C   0  0  0  0  0  0
  -21.9194   -4.6954   22.3407 C   0  0  0  0  0  0
  -22.7810  -13.5217   21.1876 C   0  0  0  0  0  0
  -22.1663   -4.2140   21.0987 F   0  0  0  0  0  0
  -21.5633   -3.4539   25.7745 F   0  0  0  0  0  0
  -29.9943  -13.4872   20.4110 N   0  0  0  0  0  0
  -26.2939  -12.9384   20.3337 N   0  0  0  0  0  0
  -25.9312  -11.6528   20.5808 N   0  0  0  0  0  0
  -22.0471  -12.8195   22.0440 N   0  0  0  0  0  0
  -25.4140  -15.1879   20.4017 N   0  0  0  0  0  0
  -31.8083  -14.8082   20.1236 O   0  0  0  0  0  0
  -21.6639   -6.8866   21.4235 O   0  0  0  0  0  0
  -22.3483  -14.5526   20.6744 O   0  0  0  0  0  0
  -24.6300  -31.8553   23.1988 C   0  0  0  0  0  0
  -25.9126  -32.4761   23.8335 C   0  0  1  0  0  0
  -27.2208  -27.2649   20.1144 C   0  0  0  0  0  0
  -25.5926  -33.8571   24.2254 N   0  0  0  0  0  0
  -23.4266  -30.4757   21.5443 C   0  0  2  0  0  0
  -24.8713  -28.9262   20.1095 C   0  0  0  0  0  0
  -22.7501  -29.4569   22.4934 C   0  0  0  0  0  0
  -18.0281  -28.1355   22.8460 C   0  0  0  0  0  0
  -24.1488  -36.7281   23.2637 C   0  0  0  0  0  0
  -25.9721  -30.7684   21.3777 C   0  0  0  0  0  0
  -26.0430  -29.3923   20.7168 C   0  0  0  0  0  0
  -27.2161  -28.5728   20.7077 C   0  0  0  0  0  0
  -26.0200  -26.8664   19.4797 C   0  0  0  0  0  0
  -24.8659  -27.6730   19.4811 C   0  0  0  0  0  0
  -23.6419  -29.8109   20.1607 C   0  0  0  0  0  0
  -25.4118  -36.3077   24.0322 C   0  0  1  0  0  0
  -20.5883  -28.3663   23.1256 C   0  0  2  0  0  0
  -20.6760  -26.9378   22.5391 C   0  0  0  0  0  0
  -19.5749  -26.6357   21.5180 C   0  0  0  0  0  0
  -18.1929  -26.7897   22.1594 C   0  0  0  0  0  0
  -19.1539  -28.8831   23.2842 C   0  0  0  0  0  0
  -18.9467  -30.1435   23.8854 C   0  0  0  0  0  0
  -17.6470  -30.6562   24.0551 C   0  0  0  0  0  0
  -25.9060  -34.9445   23.5091 C   0  0  0  0  0  0
  -16.5359  -29.9057   23.6329 C   0  0  0  0  0  0
  -16.7269  -28.6476   23.0337 C   0  0  0  0  0  0
  -26.4489  -31.6595   25.0736 C   0  0  0  0  0  0
  -25.3692  -31.3760   26.1448 C   0  0  0  0  0  0
  -27.0341  -30.3013   24.6226 C   0  0  0  0  0  0
  -27.6049  -32.4343   25.7491 C   0  0  0  0  0  0
  -27.5576  -37.1792   24.8462 C   0  0  0  0  0  0
  -21.4210  -29.3025   22.3683 N   0  0  0  0  0  0
  -26.4294  -37.3771   23.9402 N   0  0  0  0  0  0
  -24.6953  -31.0510   22.0962 N   0  0  0  0  0  0
  -23.4205  -28.8085   23.3012 O   0  0  0  0  0  0
  -28.3461  -26.4103   20.1941 O   0  0  0  0  0  0
  -26.5639  -34.8913   22.4661 O   0  0  0  0  0  0
  -23.5452  -32.1377   23.7278 O   0  0  0  0  0  0
  -27.7161  -20.8956   21.2715 C   0  0  0  0  0  0
  -29.6867  -19.8830   20.3178 C   0  0  0  0  0  0
  -27.3360  -19.6250   21.7653 C   0  0  0  0  0  0
  -29.3363  -18.5563   20.7951 C   0  0  0  0  0  0
  -28.9070  -21.0940   20.5406 C   0  0  0  0  0  0
  -28.1374  -18.4728   21.5514 C   0  0  0  0  0  0
  -31.1615  -22.3036   16.6902 C   0  0  0  0  0  0
  -30.8423  -20.9041   17.1405 C   0  0  0  0  0  0
  -30.1209  -22.0806   17.7645 C   0  0  0  0  0  0
  -26.0344  -19.5107   22.5439 C   0  0  0  0  0  0
  -30.2895  -17.2972   20.5361 C   0  0  0  0  0  0
  -30.4104  -22.5327   19.1864 C   0  0  0  0  0  0
  -28.7692  -23.7543   20.6623 C   0  0  0  0  0  0
  -28.3852  -24.9935   19.6912 C   0  0  0  0  0  0
  -29.8682  -15.8391   20.6884 N   0  0  0  0  0  0
  -29.2334  -22.4326   20.0532 N   0  0  0  0  0  0
  -27.6269  -16.9793   22.2634 Cl  0  0  0  0  0  0
  -31.4710  -12.5382   19.1716 H   0  0  0  0  0  0
  -30.3624  -11.4480   19.9520 H   0  0  0  0  0  0
  -29.7785  -11.7179   17.5204 H   0  0  0  0  0  0
  -29.6324  -13.4470   17.7260 H   0  0  0  0  0  0
  -27.8980  -11.2732   18.9376 H   0  0  0  0  0  0
  -27.3675  -12.4959   17.8143 H   0  0  0  0  0  0
  -27.6426  -14.2485   19.4782 H   0  0  0  0  0  0
  -28.7128  -12.1513   21.4313 H   0  0  0  0  0  0
  -28.4312  -13.8319   21.8052 H   0  0  0  0  0  0
  -25.2742   -9.5689   22.4774 H   0  0  0  0  0  0
  -23.9999   -7.4625   22.7468 H   0  0  0  0  0  0
  -21.0837   -8.8756   19.8952 H   0  0  0  0  0  0
  -22.3670  -10.9670   19.6180 H   0  0  0  0  0  0
  -21.1997   -7.6142   23.9711 H   0  0  0  0  0  0
  -21.1490   -6.0524   25.9082 H   0  0  0  0  0  0
  -22.0596   -2.7601   23.2858 H   0  0  0  0  0  0
  -22.4095  -11.9837   22.4779 H   0  0  0  0  0  0
  -21.1100  -13.1220   22.2702 H   0  0  0  0  0  0
  -24.6558  -15.8437   20.5498 H   0  0  0  0  0  0
  -26.2837  -15.6383   20.1507 H   0  0  0  0  0  0
  -26.7199  -32.5412   23.1082 H   0  0  0  0  0  0
  -25.0093  -33.9728   25.0415 H   0  0  0  0  0  0
  -22.7222  -31.2966   21.3977 H   0  0  0  0  0  0
  -23.3757  -35.9607   23.3313 H   0  0  0  0  0  0
  -24.3575  -36.8897   22.2051 H   0  0  0  0  0  0
  -23.7235  -37.6478   23.6660 H   0  0  0  0  0  0
  -26.1114  -31.5321   20.6122 H   0  0  0  0  0  0
  -26.8501  -30.8158   22.0104 H   0  0  0  0  0  0
  -28.1162  -28.9265   21.1908 H   0  0  0  0  0  0
  -25.9141  -25.9171   18.9841 H   0  0  0  0  0  0
  -23.9683  -27.3137   18.9959 H   0  0  0  0  0  0
  -23.7603  -30.5876   19.4046 H   0  0  0  0  0  0
  -22.7603  -29.2419   19.8589 H   0  0  0  0  0  0
  -25.1292  -36.1936   25.0812 H   0  0  0  0  0  0
  -20.9959  -28.3227   24.1383 H   0  0  0  0  0  0
  -20.5609  -26.2271   23.3589 H   0  0  0  0  0  0
  -21.6632  -26.7365   22.1213 H   0  0  0  0  0  0
  -19.6916  -25.6265   21.1218 H   0  0  0  0  0  0
  -19.6701  -27.3155   20.6699 H   0  0  0  0  0  0
  -17.4186  -26.6624   21.4012 H   0  0  0  0  0  0
  -18.0351  -26.0030   22.8982 H   0  0  0  0  0  0
  -19.7955  -30.7258   24.2191 H   0  0  0  0  0  0
  -17.5030  -31.6237   24.5166 H   0  0  0  0  0  0
  -15.5359  -30.2949   23.7678 H   0  0  0  0  0  0
  -15.8660  -28.0802   22.7053 H   0  0  0  0  0  0
  -24.5886  -30.7087   25.7779 H   0  0  0  0  0  0
  -24.8852  -32.2930   26.4820 H   0  0  0  0  0  0
  -25.7987  -30.8978   27.0264 H   0  0  0  0  0  0
  -26.2938  -29.6768   24.1216 H   0  0  0  0  0  0
  -27.3988  -29.7273   25.4755 H   0  0  0  0  0  0
  -27.8817  -30.4292   23.9492 H   0  0  0  0  0  0
  -27.2680  -33.3663   26.2036 H   0  0  0  0  0  0
  -28.3862  -32.6880   25.0314 H   0  0  0  0  0  0
  -28.0716  -31.8493   26.5430 H   0  0  0  0  0  0
  -28.2588  -38.0092   24.7513 H   0  0  0  0  0  0
  -28.1077  -36.2622   24.6286 H   0  0  0  0  0  0
  -27.2296  -37.1439   25.8866 H   0  0  0  0  0  0
  -20.9392  -29.8794   21.6931 H   0  0  0  0  0  0
  -26.0175  -38.2840   24.1423 H   0  0  0  0  0  0
  -27.0519  -21.7239   21.4593 H   0  0  0  0  0  0
  -30.6107  -19.9494   19.7678 H   0  0  0  0  0  0
  -30.8091  -22.6116   15.7074 H   0  0  0  0  0  0
  -32.1208  -22.7190   16.9926 H   0  0  0  0  0  0
  -31.6035  -20.3918   17.7253 H   0  0  0  0  0  0
  -30.2742  -20.2706   16.4609 H   0  0  0  0  0  0
  -29.0958  -22.2548   17.4404 H   0  0  0  0  0  0
  -25.4891  -20.4545   22.5713 H   0  0  0  0  0  0
  -26.2258  -19.2071   23.5738 H   0  0  0  0  0  0
  -25.3823  -18.7675   22.0846 H   0  0  0  0  0  0
  -31.1532  -17.4353   21.1881 H   0  0  0  0  0  0
  -30.6779  -17.4057   19.5227 H   0  0  0  0  0  0
  -30.7553  -23.5669   19.1478 H   0  0  0  0  0  0
  -31.2584  -21.9819   19.5961 H   0  0  0  0  0  0
  -27.9396  -23.5992   21.3486 H   0  0  0  0  0  0
  -29.5903  -24.0902   21.2965 H   0  0  0  0  0  0
  -27.4871  -24.7012   19.1589 H   0  0  0  0  0  0
  -29.1355  -25.0336   18.9038 H   0  0  0  0  0  0
  -28.9050  -15.6870   20.9503 H   0  0  0  0  0  0
  1 25  1  0  0  0
  1 30  2  0  0  0
  1 85  1  0  0  0
  2  3  1  0  0  0
  2 25  1  0  0  0
  2 88  1  0  0  0
  2 89  1  0  0  0
  3  4  1  0  0  0
  3 90  1  0  0  0
  3 91  1  0  0  0
  4  5  1  0  0  0
  4 92  1  0  0  0
  4 93  1  0  0  0
  5  6  1  0  0  0
  5 26  1  0  0  0
  5 94  1  0  0  0
  6 25  1  0  0  0
  6 95  1  0  0  0
  6 96  1  0  0  0
  7  8  2  0  0  0
  7 26  1  0  0  0
  7 29  1  0  0  0
  8  9  1  0  0  0
  8 22  1  0  0  0
  9 10  1  0  0  0
  9 27  2  0  0  0
 10 11  2  0  0  0
 10 15  1  0  0  0
 11 12  1  0  0  0
 11 97  1  0  0  0
 12 13  2  0  0  0
 12 98  1  0  0  0
 13 14  1  0  0  0
 13 31  1  0  0  0
 14 15  2  0  0  0
 14 99  1  0  0  0
 15100  1  0  0  0
 16 17  2  0  0  0
 16 21  1  0  0  0
 16 31  1  0  0  0
 17 18  1  0  0  0
 17101  1  0  0  0
 18 19  2  0  0  0
 18102  1  0  0  0
 19 20  1  0  0  0
 19 24  1  0  0  0
 20 21  2  0  0  0
 20103  1  0  0  0
 21 23  1  0  0  0
 22 28  1  0  0  0
 22 32  2  0  0  0
 26 27  1  0  0  0
 28104  1  0  0  0
 28105  1  0  0  0
 29106  1  0  0  0
 29107  1  0  0  0
 33 34  1  0  0  0
 33 66  1  0  0  0
 33 70  2  0  0  0
 34 36  1  0  0  0
 34 59  1  0  0  0
 34108  1  0  0  0
 35 44  2  0  0  0
 35 45  1  0  0  0
 35 68  1  0  0  0
 36 56  1  0  0  0
 36109  1  0  0  0
 37 39  1  0  0  0
 37 47  1  0  0  0
 37 66  1  0  0  0
 37110  1  0  0  0
 38 43  2  0  0  0
 38 46  1  0  0  0
 38 47  1  0  0  0
 39 64  1  0  0  0
 39 67  2  0  0  0
 40 52  1  0  0  0
 40 53  2  0  0  0
 40 58  1  0  0  0
 41111  1  0  0  0
 41112  1  0  0  0
 41113  1  0  0  0
 41 48  1  0  0  0
 42 43  1  0  0  0
 42 66  1  0  0  0
 42114  1  0  0  0
 42115  1  0  0  0
 43 44  1  0  0  0
 44116  1  0  0  0
 45 46  2  0  0  0
 45117  1  0  0  0
 46118  1  0  0  0
 47119  1  0  0  0
 47120  1  0  0  0
 48 56  1  0  0  0
 48 65  1  0  0  0
 48121  1  0  0  0
 49 50  1  0  0  0
 49 53  1  0  0  0
 49 64  1  0  0  0
 49122  1  0  0  0
 50 51  1  0  0  0
 50123  1  0  0  0
 50124  1  0  0  0
 51 52  1  0  0  0
 51125  1  0  0  0
 51126  1  0  0  0
 52127  1  0  0  0
 52128  1  0  0  0
 53 54  1  0  0  0
 54 55  2  0  0  0
 54129  1  0  0  0
 55 57  1  0  0  0
 55130  1  0  0  0
 56 69  2  0  0  0
 57 58  2  0  0  0
 57131  1  0  0  0
 58132  1  0  0  0
 59 60  1  0  0  0
 59 61  1  0  0  0
 59 62  1  0  0  0
 60133  1  0  0  0
 60134  1  0  0  0
 60135  1  0  0  0
 61136  1  0  0  0
 61137  1  0  0  0
 61138  1  0  0  0
 62139  1  0  0  0
 62140  1  0  0  0
 62141  1  0  0  0
 63 65  1  0  0  0
 63142  1  0  0  0
 63143  1  0  0  0
 63144  1  0  0  0
 64145  1  0  0  0
 65146  1  0  0  0
 68 84  1  0  0  0
 71 73  2  0  0  0
 71 75  1  0  0  0
 71147  1  0  0  0
 72 74  1  0  0  0
 72 75  2  0  0  0
 72148  1  0  0  0
 73 76  1  0  0  0
 73 80  1  0  0  0
 74 76  2  0  0  0
 74 81  1  0  0  0
 75 86  1  0  0  0
 76 87  1  0  0  0
 77 78  1  0  0  0
 77 79  1  0  0  0
 77149  1  0  0  0
 77150  1  0  0  0
 78 79  1  0  0  0
 78151  1  0  0  0
 78152  1  0  0  0
 79 82  1  0  0  0
 79153  1  0  0  0
 80154  1  0  0  0
 80155  1  0  0  0
 80156  1  0  0  0
 81 85  1  0  0  0
 81157  1  0  0  0
 81158  1  0  0  0
 82 86  1  0  0  0
 82159  1  0  0  0
 82160  1  0  0  0
 83 84  1  0  0  0
 83 86  1  0  0  0
 83161  1  0  0  0
 83162  1  0  0  0
 84163  1  0  0  0
 84164  1  0  0  0
 85165  1  0  0  0
M  ISO  4   1 100  68 101  84 101  85 100
M  END
> <chiral flag>
0

> <version>
0

> <s_m_source_file>
/data/baiqing/PycharmProjects/Reinvent-master-3.2/result/LINK_invent/BTK/process_docking_weight1_custom_sum_contain_oxygen_bond_distance_aromatic_linkinvent_7_9_3/rearranged_h_0031.sdf

> <i_m_source_file_index>
32

> <r_mmod_Potential_Energy-OPLS-2005>
147.341705322266

> <r_mmod_Stretch_Energy-OPLS-2005>
121.499137878418

> <r_mmod_Bend_Energy-OPLS-2005>
184.697799682617

> <r_mmod_Torsional_Energy-OPLS-2005>
237.329254150391

> <r_mmod_Improper_Torsional_Energy-OPLS-2005>
5.64589881896973

> <r_mmod_Van_der_Waal_Energy-OPLS-2005>
146.828018188477

> <r_mmod_Electrostatic_Energy-OPLS-2005>
-413.286041259766

> <r_mmod_Solvation_Energy-OPLS-2005>
-209.402481079102

> <b_mmod_Minimization_Converged-OPLS-2005>
0

> <r_mmod_RMS_Derivative-OPLS-2005>
1.53446328639984

$$$$
32
                    3D
 Structure written by MMmdl.
171179  0  0  1  0            999 V2000
  -30.1640  -14.8756   20.7189 C   0  0  0  0  0  0
  -30.4246  -12.6285   19.5243 C   0  0  0  0  0  0
  -29.4983  -12.5898   18.2717 C   0  0  0  0  0  0
  -28.0190  -12.3425   18.6440 C   0  0  0  0  0  0
  -27.5896  -13.1899   19.8599 C   0  0  2  0  0  0
  -28.5729  -12.9988   21.0201 C   0  0  0  0  0  0
  -25.2206  -13.8129   20.5594 C   0  0  0  0  0  0
  -24.1474  -13.0426   20.9162 C   0  0  0  0  0  0
  -24.6005  -11.6893   20.8701 C   0  0  0  0  0  0
  -23.8739  -10.4284   21.0390 C   0  0  0  0  0  0
  -24.3410   -9.4247   21.9142 C   0  0  0  0  0  0
  -23.6173   -8.2242   22.0765 C   0  0  0  0  0  0
  -22.4185   -8.0184   21.3554 C   0  0  0  0  0  0
  -21.9727   -9.0115   20.4652 C   0  0  0  0  0  0
  -22.6949  -10.2038   20.3054 C   0  0  0  0  0  0
  -21.6841   -6.0635   22.5242 C   0  0  0  0  0  0
  -21.3997   -6.5600   23.8139 C   0  0  0  0  0  0
  -21.3671   -5.6793   24.9120 C   0  0  0  0  0  0
  -21.6052   -4.3054   24.7207 C   0  0  0  0  0  0
  -21.8804   -3.8098   23.4348 C   0  0  0  0  0  0
  -21.9189   -4.6870   22.3375 C   0  0  0  0  0  0
  -22.7570  -13.5251   21.1835 C   0  0  0  0  0  0
  -22.1646   -4.2055   21.0951 F   0  0  0  0  0  0
  -21.5669   -3.4560   25.7735 F   0  0  0  0  0  0
  -29.8332  -13.5451   20.5389 N   0  0  0  0  0  0
  -26.2422  -12.9158   20.3063 N   0  0  0  0  0  0
  -25.8895  -11.6398   20.5681 N   0  0  0  0  0  0
  -22.0347  -12.8255   22.0496 N   0  0  0  0  0  0
  -25.4139  -15.1788   20.3967 N   0  0  0  0  0  0
  -31.3069  -15.2217   20.3643 O   0  0  0  0  0  0
  -21.6654   -6.8736   21.4192 O   0  0  0  0  0  0
  -22.3213  -14.5514   20.6585 O   0  0  0  0  0  0
  -24.6728  -31.9666   23.2214 C   0  0  0  0  0  0
  -25.9675  -32.5163   23.8631 C   0  0  1  0  0  0
  -26.8642  -27.4534   20.0418 C   0  0  0  0  0  0
  -25.6594  -33.8889   24.2577 N   0  0  0  0  0  0
  -23.4664  -30.6208   21.5864 C   0  0  2  0  0  0
  -24.8759  -29.2966   19.8623 C   0  0  0  0  0  0
  -23.0088  -29.6362   22.6812 C   0  0  0  0  0  0
  -17.9538  -27.9703   22.5809 C   0  0  0  0  0  0
  -24.1561  -36.7321   23.2563 C   0  0  0  0  0  0
  -25.9895  -30.9106   21.4138 C   0  0  0  0  0  0
  -25.9881  -29.6049   20.6552 C   0  0  0  0  0  0
  -27.0342  -28.6707   20.7491 C   0  0  0  0  0  0
  -26.0970  -27.4253   18.8961 C   0  0  0  0  0  0
  -24.9920  -28.2937   18.8741 C   0  0  0  0  0  0
  -23.5972  -30.0590   20.1259 C   0  0  0  0  0  0
  -25.4184  -36.3182   24.0250 C   0  0  1  0  0  0
  -21.2711  -28.4130   23.7690 C   0  0  2  0  0  0
  -22.1702  -26.2203   22.8492 C   0  0  0  0  0  0
  -20.3621  -25.1617   21.2668 C   0  0  0  0  0  0
  -18.1277  -26.1642   21.3048 C   0  0  0  0  0  0
  -19.2463  -28.7996   23.4556 C   0  0  0  0  0  0
  -18.9240  -30.0486   24.0131 C   0  0  0  0  0  0
  -17.6125  -30.5380   24.0639 C   0  0  0  0  0  0
  -25.9211  -34.9626   23.5062 C   0  0  0  0  0  0
  -16.5365  -29.8058   23.5287 C   0  0  0  0  0  0
  -16.6927  -28.5975   22.8003 C   0  0  0  0  0  0
  -26.4712  -31.6605   25.0870 C   0  0  0  0  0  0
  -25.3735  -31.3815   26.1368 C   0  0  0  0  0  0
  -27.0490  -30.2962   24.6332 C   0  0  0  0  0  0
  -27.6242  -32.4188   25.7821 C   0  0  0  0  0  0
  -27.5598  -37.1871   24.8430 C   0  0  0  0  0  0
  -21.7448  -29.6164   23.0369 N   0  0  0  0  0  0
  -26.4311  -37.3890   23.9382 N   0  0  0  0  0  0
  -24.7193  -31.2244   22.0889 N   0  0  0  0  0  0
  -23.7851  -28.9018   23.2867 O   0  0  0  0  0  0
  -26.1879  -26.4574   20.6656 O   0  0  0  0  0  0
  -26.5536  -34.9003   22.4477 O   0  0  0  0  0  0
  -23.5948  -32.2452   23.7754 O   0  0  0  0  0  0
  -19.4348  -26.2085   23.1393 C   0  0  0  0  0  0
  -20.6297  -27.4847   21.8313 C   0  0  0  0  0  0
  -19.9979  -24.9593   23.6028 C   0  0  0  0  0  0
  -21.3084  -27.4036   20.6314 C   0  0  0  0  0  0
  -20.0537  -26.4182   23.5347 C   0  0  0  0  0  0
  -20.0175  -27.4187   21.4747 C   0  0  0  0  0  0
  -20.8424  -23.9569   24.6325 C   0  0  0  0  0  0
  -22.9141  -26.6430   20.3256 C   0  0  0  0  0  0
  -22.3513  -23.1577   24.3264 C   0  0  0  0  0  0
  -22.8376  -21.7959   23.4416 C   0  0  0  0  0  0
  -24.4501  -21.2496   23.2774 C   0  0  0  0  0  0
  -24.9768  -19.7728   22.6332 C   0  0  0  0  0  0
  -26.5841  -19.2732   22.3974 C   0  0  0  0  0  0
  -27.1054  -17.7758   21.7694 C   0  0  0  0  0  0
  -28.7039  -17.2051   21.5612 C   0  0  0  0  0  0
  -24.5987  -26.6604   21.0254 C   0  0  0  0  0  0
  -29.0801  -15.7074   21.1917 N   0  0  0  0  0  0
  -20.0809  -26.7835   25.4420 Cl  0  0  0  0  0  0
  -19.0793  -28.5437   20.2197 Cl  0  0  0  0  0  0
  -31.4278  -12.9569   19.2399 H   0  0  0  0  0  0
  -30.5357  -11.6347   19.9578 H   0  0  0  0  0  0
  -29.8279  -11.8188   17.5717 H   0  0  0  0  0  0
  -29.5585  -13.5481   17.7463 H   0  0  0  0  0  0
  -27.8849  -11.2876   18.8833 H   0  0  0  0  0  0
  -27.3777  -12.5555   17.7861 H   0  0  0  0  0  0
  -27.6067  -14.2248   19.5214 H   0  0  0  0  0  0
  -28.6670  -11.9467   21.2970 H   0  0  0  0  0  0
  -28.2032  -13.4978   21.9169 H   0  0  0  0  0  0
  -25.2571   -9.5783   22.4651 H   0  0  0  0  0  0
  -23.9931   -7.4670   22.7479 H   0  0  0  0  0  0
  -21.0693   -8.8488   19.8968 H   0  0  0  0  0  0
  -22.3309  -10.9494   19.6142 H   0  0  0  0  0  0
  -21.1975   -7.6123   23.9545 H   0  0  0  0  0  0
  -21.1544   -6.0595   25.8989 H   0  0  0  0  0  0
  -22.0586   -2.7566   23.2874 H   0  0  0  0  0  0
  -22.4075  -11.9929   22.4853 H   0  0  0  0  0  0
  -21.0944  -13.1180   22.2714 H   0  0  0  0  0  0
  -24.6899  -15.8757   20.5272 H   0  0  0  0  0  0
  -26.2589  -15.5723   20.0038 H   0  0  0  0  0  0
  -26.7857  -32.5813   23.1492 H   0  0  0  0  0  0
  -25.1028  -34.0101   25.0894 H   0  0  0  0  0  0
  -22.7160  -31.4117   21.5365 H   0  0  0  0  0  0
  -23.3872  -35.9613   23.3238 H   0  0  0  0  0  0
  -24.3635  -36.8949   22.1977 H   0  0  0  0  0  0
  -23.7292  -37.6484   23.6626 H   0  0  0  0  0  0
  -26.2556  -31.7470   20.7623 H   0  0  0  0  0  0
  -26.8220  -30.8152   22.0983 H   0  0  0  0  0  0
  -27.7944  -28.7990   21.5122 H   0  0  0  0  0  0
  -26.0494  -26.5398   18.2778 H   0  0  0  0  0  0
  -24.2241  -28.1439   18.1226 H   0  0  0  0  0  0
  -23.5607  -30.9144   19.4432 H   0  0  0  0  0  0
  -22.7461  -29.4381   19.8538 H   0  0  0  0  0  0
  -25.1367  -36.2008   25.0737 H   0  0  0  0  0  0
  -21.5966  -28.6277   24.7873 H   0  0  0  0  0  0
  -22.2894  -25.7120   23.8100 H   0  0  0  0  0  0
  -23.2275  -26.1619   22.7882 H   0  0  0  0  0  0
  -20.3171  -24.0750   21.3881 H   0  0  0  0  0  0
  -20.6554  -25.1326   20.2093 H   0  0  0  0  0  0
  -17.8026  -26.3442   20.2720 H   0  0  0  0  0  0
  -17.3912  -25.4098   21.6185 H   0  0  0  0  0  0
  -19.7231  -30.6198   24.4711 H   0  0  0  0  0  0
  -17.4383  -31.4758   24.5780 H   0  0  0  0  0  0
  -15.5390  -30.2066   23.6538 H   0  0  0  0  0  0
  -15.8220  -28.1614   22.3366 H   0  0  0  0  0  0
  -24.5881  -30.7338   25.7436 H   0  0  0  0  0  0
  -24.9040  -32.3089   26.4690 H   0  0  0  0  0  0
  -25.7780  -30.8858   27.0208 H   0  0  0  0  0  0
  -26.3140  -29.6829   24.1122 H   0  0  0  0  0  0
  -27.3872  -29.7072   25.4876 H   0  0  0  0  0  0
  -27.9182  -30.4110   23.9838 H   0  0  0  0  0  0
  -27.2864  -33.3507   26.2385 H   0  0  0  0  0  0
  -28.4207  -32.6694   25.0790 H   0  0  0  0  0  0
  -28.0751  -31.8250   26.5786 H   0  0  0  0  0  0
  -28.2566  -38.0229   24.7601 H   0  0  0  0  0  0
  -28.1189  -36.2766   24.6198 H   0  0  0  0  0  0
  -27.2298  -37.1386   25.8821 H   0  0  0  0  0  0
  -21.0665  -30.2313   22.6020 H   0  0  0  0  0  0
  -26.0169  -38.2920   24.1511 H   0  0  0  0  0  0
  -18.2446  -25.9537   23.4544 H   0  0  0  0  0  0
  -21.7799  -27.9323   21.7469 H   0  0  0  0  0  0
  -20.1335  -23.1174   24.7525 H   0  0  0  0  0  0
  -20.8562  -24.3650   25.6534 H   0  0  0  0  0  0
  -23.0074  -26.9358   19.2853 H   0  0  0  0  0  0
  -22.7487  -25.5707   20.2103 H   0  0  0  0  0  0
  -22.5841  -22.7868   25.3251 H   0  0  0  0  0  0
  -23.1532  -23.8774   24.1867 H   0  0  0  0  0  0
  -22.4650  -21.9281   22.4242 H   0  0  0  0  0  0
  -22.2473  -20.9608   23.8327 H   0  0  0  0  0  0
  -24.9220  -21.3201   24.2599 H   0  0  0  0  0  0
  -24.9745  -22.0171   22.6953 H   0  0  0  0  0  0
  -24.5149  -19.7229   21.6458 H   0  0  0  0  0  0
  -24.4874  -18.9816   23.2093 H   0  0  0  0  0  0
  -27.1168  -19.4354   23.3401 H   0  0  0  0  0  0
  -27.0021  -20.0363   21.7373 H   0  0  0  0  0  0
  -26.6820  -17.7486   20.7641 H   0  0  0  0  0  0
  -26.5354  -17.0115   22.3005 H   0  0  0  0  0  0
  -29.2695  -17.4556   22.4621 H   0  0  0  0  0  0
  -29.1580  -17.8323   20.7955 H   0  0  0  0  0  0
  -24.6295  -25.7290   21.5686 H   0  0  0  0  0  0
  -24.6299  -27.4861   21.7188 H   0  0  0  0  0  0
  -28.2874  -15.1100   21.3745 H   0  0  0  0  0  0
  1 25  1  0  0  0
  1 30  2  0  0  0
  1 87  1  0  0  0
  2  3  1  0  0  0
  2 25  1  0  0  0
  2 90  1  0  0  0
  2 91  1  0  0  0
  3  4  1  0  0  0
  3 92  1  0  0  0
  3 93  1  0  0  0
  4  5  1  0  0  0
  4 94  1  0  0  0
  4 95  1  0  0  0
  5  6  1  0  0  0
  5 26  1  0  0  0
  5 96  1  0  0  0
  6 25  1  0  0  0
  6 97  1  0  0  0
  6 98  1  0  0  0
  7  8  2  0  0  0
  7 26  1  0  0  0
  7 29  1  0  0  0
  8  9  1  0  0  0
  8 22  1  0  0  0
  9 10  1  0  0  0
  9 27  2  0  0  0
 10 11  2  0  0  0
 10 15  1  0  0  0
 11 12  1  0  0  0
 11 99  1  0  0  0
 12 13  2  0  0  0
 12100  1  0  0  0
 13 14  1  0  0  0
 13 31  1  0  0  0
 14 15  2  0  0  0
 14101  1  0  0  0
 15102  1  0  0  0
 16 17  2  0  0  0
 16 21  1  0  0  0
 16 31  1  0  0  0
 17 18  1  0  0  0
 17103  1  0  0  0
 18 19  2  0  0  0
 18104  1  0  0  0
 19 20  1  0  0  0
 19 24  1  0  0  0
 20 21  2  0  0  0
 20105  1  0  0  0
 21 23  1  0  0  0
 22 28  1  0  0  0
 22 32  2  0  0  0
 26 27  1  0  0  0
 28106  1  0  0  0
 28107  1  0  0  0
 29108  1  0  0  0
 29109  1  0  0  0
 33 34  1  0  0  0
 33 66  1  0  0  0
 33 70  2  0  0  0
 34 36  1  0  0  0
 34 59  1  0  0  0
 34110  1  0  0  0
 35 44  2  0  0  0
 35 45  1  0  0  0
 35 68  1  0  0  0
 36 56  1  0  0  0
 36111  1  0  0  0
 37 39  1  0  0  0
 37 47  1  0  0  0
 37 66  1  0  0  0
 37112  1  0  0  0
 38 43  2  0  0  0
 38 46  1  0  0  0
 38 47  1  0  0  0
 39 64  1  0  0  0
 39 67  2  0  0  0
 40 52  1  0  0  0
 40 53  2  0  0  0
 40 58  1  0  0  0
 41113  1  0  0  0
 41114  1  0  0  0
 41115  1  0  0  0
 41 48  1  0  0  0
 42 43  1  0  0  0
 42 66  1  0  0  0
 42116  1  0  0  0
 42117  1  0  0  0
 43 44  1  0  0  0
 44118  1  0  0  0
 45 46  2  0  0  0
 45119  1  0  0  0
 46120  1  0  0  0
 47121  1  0  0  0
 47122  1  0  0  0
 48 56  1  0  0  0
 48 65  1  0  0  0
 48123  1  0  0  0
 49 50  1  0  0  0
 49 53  1  0  0  0
 49 64  1  0  0  0
 49124  1  0  0  0
 50 51  1  0  0  0
 50125  1  0  0  0
 50126  1  0  0  0
 51 52  1  0  0  0
 51127  1  0  0  0
 51128  1  0  0  0
 52129  1  0  0  0
 52130  1  0  0  0
 53 54  1  0  0  0
 54 55  2  0  0  0
 54131  1  0  0  0
 55 57  1  0  0  0
 55132  1  0  0  0
 56 69  2  0  0  0
 57 58  2  0  0  0
 57133  1  0  0  0
 58134  1  0  0  0
 59 60  1  0  0  0
 59 61  1  0  0  0
 59 62  1  0  0  0
 60135  1  0  0  0
 60136  1  0  0  0
 60137  1  0  0  0
 61138  1  0  0  0
 61139  1  0  0  0
 61140  1  0  0  0
 62141  1  0  0  0
 62142  1  0  0  0
 62143  1  0  0  0
 63 65  1  0  0  0
 63144  1  0  0  0
 63145  1  0  0  0
 63146  1  0  0  0
 64147  1  0  0  0
 65148  1  0  0  0
 68 86  1  0  0  0
 71 73  2  0  0  0
 71 76  1  0  0  0
 71149  1  0  0  0
 72 74  1  0  0  0
 72 75  2  0  0  0
 72150  1  0  0  0
 73 75  1  0  0  0
 73 77  1  0  0  0
 74 76  2  0  0  0
 74 78  1  0  0  0
 75 88  1  0  0  0
 76 89  1  0  0  0
 77 79  1  0  0  0
 77151  1  0  0  0
 77152  1  0  0  0
 78 86  1  0  0  0
 78153  1  0  0  0
 78154  1  0  0  0
 79 80  1  0  0  0
 79155  1  0  0  0
 79156  1  0  0  0
 80 81  1  0  0  0
 80157  1  0  0  0
 80158  1  0  0  0
 81 82  1  0  0  0
 81159  1  0  0  0
 81160  1  0  0  0
 82 83  1  0  0  0
 82161  1  0  0  0
 82162  1  0  0  0
 83 84  1  0  0  0
 83163  1  0  0  0
 83164  1  0  0  0
 84 85  1  0  0  0
 84165  1  0  0  0
 84166  1  0  0  0
 85 87  1  0  0  0
 85167  1  0  0  0
 85168  1  0  0  0
 86169  1  0  0  0
 86170  1  0  0  0
 87171  1  0  0  0
M  ISO  4   1 100  68 101  86 101  87 100
M  END
> <chiral flag>
0

> <version>
0

> <s_m_source_file>
/data/baiqing/PycharmProjects/Reinvent-master-3.2/result/LINK_invent/BTK/process_docking_weight1_custom_sum_contain_oxygen_bond_distance_aromatic_linkinvent_7_9_3/rearranged_h_0031.sdf

> <i_m_source_file_index>
33

> <r_mmod_Potential_Energy-OPLS-2005>
16227.33203125

> <r_mmod_Stretch_Energy-OPLS-2005>
7727.2724609375

> <r_mmod_Bend_Energy-OPLS-2005>
2650.662109375

> <r_mmod_Torsional_Energy-OPLS-2005>
802.662719726562

> <r_mmod_Improper_Torsional_Energy-OPLS-2005>
52.4384078979492

> <r_mmod_Van_der_Waal_Energy-OPLS-2005>
3753.33471679688

> <r_mmod_Electrostatic_Energy-OPLS-2005>
-379.362609863281

> <r_mmod_Solvation_Energy-OPLS-2005>
-183.93049621582

> <b_mmod_Minimization_Converged-OPLS-2005>
0

> <r_mmod_RMS_Derivative-OPLS-2005>
24.5596466064453

$$$$
33
                    3D
 Structure written by MMmdl.
153161  0  0  1  0            999 V2000
  -30.5543  -14.9342   20.3999 C   0  0  0  0  0  0
  -30.4402  -12.5688   19.5015 C   0  0  0  0  0  0
  -29.5227  -12.5258   18.2574 C   0  0  0  0  0  0
  -28.0487  -12.3333   18.6616 C   0  0  0  0  0  0
  -27.6303  -13.2556   19.8343 C   0  0  2  0  0  0
  -28.6760  -13.2739   20.9708 C   0  0  0  0  0  0
  -25.2450  -13.8208   20.5708 C   0  0  0  0  0  0
  -24.1794  -13.0452   20.9250 C   0  0  0  0  0  0
  -24.6400  -11.6915   20.8743 C   0  0  0  0  0  0
  -23.9065  -10.4296   21.0400 C   0  0  0  0  0  0
  -24.3631   -9.4209   21.9170 C   0  0  0  0  0  0
  -23.6317   -8.2240   22.0729 C   0  0  0  0  0  0
  -22.4283   -8.0293   21.3557 C   0  0  0  0  0  0
  -21.9938   -9.0237   20.4633 C   0  0  0  0  0  0
  -22.7241  -10.2115   20.3049 C   0  0  0  0  0  0
  -21.6881   -6.0747   22.5270 C   0  0  0  0  0  0
  -21.4015   -6.5642   23.8198 C   0  0  0  0  0  0
  -21.3676   -5.6803   24.9171 C   0  0  0  0  0  0
  -21.6067   -4.3063   24.7232 C   0  0  0  0  0  0
  -21.8818   -3.8150   23.4345 C   0  0  0  0  0  0
  -21.9185   -4.6972   22.3397 C   0  0  0  0  0  0
  -22.7788  -13.5171   21.1885 C   0  0  0  0  0  0
  -22.1676   -4.2152   21.0981 F   0  0  0  0  0  0
  -21.5617   -3.4539   25.7737 F   0  0  0  0  0  0
  -29.9586  -13.6743   20.3775 N   0  0  0  0  0  0
  -26.2888  -12.9464   20.3208 N   0  0  0  0  0  0
  -25.9343  -11.6579   20.5727 N   0  0  0  0  0  0
  -22.0485  -12.8180   22.0441 N   0  0  0  0  0  0
  -25.4104  -15.1951   20.4066 N   0  0  0  0  0  0
  -31.7570  -14.9916   20.1243 O   0  0  0  0  0  0
  -21.6671   -6.8884   21.4229 O   0  0  0  0  0  0
  -22.3476  -14.5470   20.6704 O   0  0  0  0  0  0
  -24.6511  -31.8375   23.1853 C   0  0  0  0  0  0
  -25.9216  -32.4680   23.8261 C   0  0  1  0  0  0
  -27.2347  -27.1055   20.1562 C   0  0  0  0  0  0
  -25.5930  -33.8482   24.2160 N   0  0  0  0  0  0
  -23.4572  -30.4555   21.5292 C   0  0  2  0  0  0
  -24.9110  -28.8671   20.1211 C   0  0  0  0  0  0
  -22.7586  -29.4493   22.4825 C   0  0  0  0  0  0
  -18.0314  -28.1382   22.8453 C   0  0  0  0  0  0
  -24.1439  -36.7230   23.2644 C   0  0  0  0  0  0
  -26.0178  -30.6970   21.3942 C   0  0  0  0  0  0
  -26.0921  -29.3068   20.7358 C   0  0  0  0  0  0
  -27.2562  -28.4430   20.7321 C   0  0  0  0  0  0
  -26.0234  -26.7730   19.5094 C   0  0  0  0  0  0
  -24.8908  -27.6111   19.4960 C   0  0  0  0  0  0
  -23.6911  -29.7750   20.1552 C   0  0  0  0  0  0
  -25.4096  -36.3031   24.0322 C   0  0  1  0  0  0
  -20.5927  -28.3712   23.1229 C   0  0  2  0  0  0
  -20.6773  -26.9406   22.5424 C   0  0  0  0  0  0
  -19.5756  -26.6350   21.5219 C   0  0  0  0  0  0
  -18.1934  -26.7909   22.1624 C   0  0  0  0  0  0
  -19.1569  -28.8866   23.2817 C   0  0  0  0  0  0
  -18.9471  -30.1423   23.8874 C   0  0  0  0  0  0
  -17.6489  -30.6570   24.0555 C   0  0  0  0  0  0
  -25.9053  -34.9417   23.5062 C   0  0  0  0  0  0
  -16.5369  -29.9078   23.6369 C   0  0  0  0  0  0
  -16.7310  -28.6505   23.0381 C   0  0  0  0  0  0
  -26.4524  -31.6609   25.0744 C   0  0  0  0  0  0
  -25.3675  -31.3839   26.1414 C   0  0  0  0  0  0
  -27.0407  -30.2998   24.6382 C   0  0  0  0  0  0
  -27.6037  -32.4398   25.7520 C   0  0  0  0  0  0
  -27.5555  -37.1749   24.8472 C   0  0  0  0  0  0
  -21.4265  -29.3029   22.3549 N   0  0  0  0  0  0
  -26.4265  -37.3760   23.9423 N   0  0  0  0  0  0
  -24.7275  -31.0182   22.0912 N   0  0  0  0  0  0
  -23.4185  -28.8023   23.2993 O   0  0  0  0  0  0
  -28.2932  -26.1128   20.1879 O   0  0  0  0  0  0
  -26.5674  -34.8936   22.4638 O   0  0  0  0  0  0
  -23.5639  -32.1261   23.7066 O   0  0  0  0  0  0
  -29.4504  -20.4190   20.1302 C   0  0  0  0  0  0
  -28.6512  -18.9180   21.8605 C   0  0  0  0  0  0
  -29.3660  -19.0202   20.6581 C   0  0  0  0  0  0
  -28.9210  -21.6567   20.7831 C   0  0  0  0  0  0
  -28.3424  -21.3822   22.0582 C   0  0  0  0  0  0
  -28.1561  -20.0506   22.5396 C   0  0  0  0  0  0
  -27.9990  -22.5400   22.9800 C   0  0  0  0  0  0
  -29.1106  -23.2504   20.2931 C   0  0  0  0  0  0
  -30.0467  -17.6280   20.0655 C   0  0  0  0  0  0
  -28.0135  -24.5701   20.3413 C   0  0  0  0  0  0
  -29.7768  -16.1232   20.5026 N   0  0  0  0  0  0
  -27.3300  -19.7393   24.0304 Cl  0  0  0  0  0  0
  -31.4735  -12.7096   19.1917 H   0  0  0  0  0  0
  -30.4262  -11.6152   20.0311 H   0  0  0  0  0  0
  -29.8262  -11.7236   17.5817 H   0  0  0  0  0  0
  -29.6355  -13.4566   17.6991 H   0  0  0  0  0  0
  -27.9101  -11.2869   18.9391 H   0  0  0  0  0  0
  -27.4013  -12.5136   17.8025 H   0  0  0  0  0  0
  -27.5960  -14.2626   19.4162 H   0  0  0  0  0  0
  -28.7478  -12.2975   21.4524 H   0  0  0  0  0  0
  -28.3830  -13.9811   21.7487 H   0  0  0  0  0  0
  -25.2772   -9.5693   22.4757 H   0  0  0  0  0  0
  -24.0041   -7.4629   22.7438 H   0  0  0  0  0  0
  -21.0883   -8.8752   19.8934 H   0  0  0  0  0  0
  -22.3707  -10.9661   19.6175 H   0  0  0  0  0  0
  -21.2027   -7.6152   23.9707 H   0  0  0  0  0  0
  -21.1507   -6.0536   25.9078 H   0  0  0  0  0  0
  -22.0583   -2.7603   23.2838 H   0  0  0  0  0  0
  -22.4188  -11.9897   22.4885 H   0  0  0  0  0  0
  -21.1081  -13.1123   22.2596 H   0  0  0  0  0  0
  -24.6254  -15.8346   20.4836 H   0  0  0  0  0  0
  -26.2359  -15.6276   20.0129 H   0  0  0  0  0  0
  -26.7249  -32.5238   23.0962 H   0  0  0  0  0  0
  -25.0030  -33.9540   25.0298 H   0  0  0  0  0  0
  -22.7671  -31.2845   21.3670 H   0  0  0  0  0  0
  -23.3751  -35.9492   23.3314 H   0  0  0  0  0  0
  -24.3540  -36.8869   22.2052 H   0  0  0  0  0  0
  -23.7138  -37.6400   23.6715 H   0  0  0  0  0  0
  -26.1828  -31.4380   20.6144 H   0  0  0  0  0  0
  -26.8860  -30.7462   22.0410 H   0  0  0  0  0  0
  -28.1597  -28.7867   21.2210 H   0  0  0  0  0  0
  -25.9165  -25.8181   19.0215 H   0  0  0  0  0  0
  -23.9857  -27.2554   19.0213 H   0  0  0  0  0  0
  -23.8427  -30.5444   19.3987 H   0  0  0  0  0  0
  -22.8062  -29.2182   19.8433 H   0  0  0  0  0  0
  -25.1271  -36.1860   25.0825 H   0  0  0  0  0  0
  -21.0020  -28.3287   24.1350 H   0  0  0  0  0  0
  -20.5638  -26.2298   23.3626 H   0  0  0  0  0  0
  -21.6620  -26.7343   22.1211 H   0  0  0  0  0  0
  -19.6892  -25.6251   21.1251 H   0  0  0  0  0  0
  -19.6715  -27.3130   20.6738 H   0  0  0  0  0  0
  -17.4191  -26.6660   21.4031 H   0  0  0  0  0  0
  -18.0320  -26.0040   22.9033 H   0  0  0  0  0  0
  -19.7943  -30.7221   24.2251 H   0  0  0  0  0  0
  -17.5066  -31.6276   24.5068 H   0  0  0  0  0  0
  -15.5363  -30.2994   23.7705 H   0  0  0  0  0  0
  -15.8699  -28.0820   22.7184 H   0  0  0  0  0  0
  -24.5809  -30.7262   25.7744 H   0  0  0  0  0  0
  -24.8912  -32.3028   26.4822 H   0  0  0  0  0  0
  -25.7871  -30.9011   27.0238 H   0  0  0  0  0  0
  -26.3055  -29.6691   24.1356 H   0  0  0  0  0  0
  -27.3974  -29.7346   25.5016 H   0  0  0  0  0  0
  -27.9004  -30.4267   23.9763 H   0  0  0  0  0  0
  -27.2648  -33.3781   26.1961 H   0  0  0  0  0  0
  -28.3924  -32.6821   25.0366 H   0  0  0  0  0  0
  -28.0624  -31.8594   26.5548 H   0  0  0  0  0  0
  -28.2561  -38.0062   24.7575 H   0  0  0  0  0  0
  -28.1047  -36.2592   24.6233 H   0  0  0  0  0  0
  -27.2278  -37.1342   25.8877 H   0  0  0  0  0  0
  -20.9493  -29.8800   21.6762 H   0  0  0  0  0  0
  -26.0126  -38.2800   24.1537 H   0  0  0  0  0  0
  -29.9904  -20.5556   19.2000 H   0  0  0  0  0  0
  -28.5154  -17.9442   22.3092 H   0  0  0  0  0  0
  -27.8053  -22.2479   24.0075 H   0  0  0  0  0  0
  -27.1010  -23.0464   22.6420 H   0  0  0  0  0  0
  -28.8436  -23.2285   23.0382 H   0  0  0  0  0  0
  -29.4823  -23.1857   19.2717 H   0  0  0  0  0  0
  -29.9760  -23.5817   20.8647 H   0  0  0  0  0  0
  -31.1289  -17.7697   20.1273 H   0  0  0  0  0  0
  -29.8160  -17.6401   18.9993 H   0  0  0  0  0  0
  -27.5176  -24.5699   21.3038 H   0  0  0  0  0  0
  -27.2320  -24.2897   19.6372 H   0  0  0  0  0  0
  -28.8097  -15.9250   20.7058 H   0  0  0  0  0  0
  1 25  1  0  0  0
  1 30  2  0  0  0
  1 81  1  0  0  0
  2  3  1  0  0  0
  2 25  1  0  0  0
  2 83  1  0  0  0
  2 84  1  0  0  0
  3  4  1  0  0  0
  3 85  1  0  0  0
  3 86  1  0  0  0
  4  5  1  0  0  0
  4 87  1  0  0  0
  4 88  1  0  0  0
  5  6  1  0  0  0
  5 26  1  0  0  0
  5 89  1  0  0  0
  6 25  1  0  0  0
  6 90  1  0  0  0
  6 91  1  0  0  0
  7  8  2  0  0  0
  7 26  1  0  0  0
  7 29  1  0  0  0
  8  9  1  0  0  0
  8 22  1  0  0  0
  9 10  1  0  0  0
  9 27  2  0  0  0
 10 11  2  0  0  0
 10 15  1  0  0  0
 11 12  1  0  0  0
 11 92  1  0  0  0
 12 13  2  0  0  0
 12 93  1  0  0  0
 13 14  1  0  0  0
 13 31  1  0  0  0
 14 15  2  0  0  0
 14 94  1  0  0  0
 15 95  1  0  0  0
 16 17  2  0  0  0
 16 21  1  0  0  0
 16 31  1  0  0  0
 17 18  1  0  0  0
 17 96  1  0  0  0
 18 19  2  0  0  0
 18 97  1  0  0  0
 19 20  1  0  0  0
 19 24  1  0  0  0
 20 21  2  0  0  0
 20 98  1  0  0  0
 21 23  1  0  0  0
 22 28  1  0  0  0
 22 32  2  0  0  0
 26 27  1  0  0  0
 28 99  1  0  0  0
 28100  1  0  0  0
 29101  1  0  0  0
 29102  1  0  0  0
 33 34  1  0  0  0
 33 66  1  0  0  0
 33 70  2  0  0  0
 34 36  1  0  0  0
 34 59  1  0  0  0
 34103  1  0  0  0
 35 44  2  0  0  0
 35 45  1  0  0  0
 35 68  1  0  0  0
 36 56  1  0  0  0
 36104  1  0  0  0
 37 39  1  0  0  0
 37 47  1  0  0  0
 37 66  1  0  0  0
 37105  1  0  0  0
 38 43  2  0  0  0
 38 46  1  0  0  0
 38 47  1  0  0  0
 39 64  1  0  0  0
 39 67  2  0  0  0
 40 52  1  0  0  0
 40 53  2  0  0  0
 40 58  1  0  0  0
 41106  1  0  0  0
 41107  1  0  0  0
 41108  1  0  0  0
 41 48  1  0  0  0
 42 43  1  0  0  0
 42 66  1  0  0  0
 42109  1  0  0  0
 42110  1  0  0  0
 43 44  1  0  0  0
 44111  1  0  0  0
 45 46  2  0  0  0
 45112  1  0  0  0
 46113  1  0  0  0
 47114  1  0  0  0
 47115  1  0  0  0
 48 56  1  0  0  0
 48 65  1  0  0  0
 48116  1  0  0  0
 49 50  1  0  0  0
 49 53  1  0  0  0
 49 64  1  0  0  0
 49117  1  0  0  0
 50 51  1  0  0  0
 50118  1  0  0  0
 50119  1  0  0  0
 51 52  1  0  0  0
 51120  1  0  0  0
 51121  1  0  0  0
 52122  1  0  0  0
 52123  1  0  0  0
 53 54  1  0  0  0
 54 55  2  0  0  0
 54124  1  0  0  0
 55 57  1  0  0  0
 55125  1  0  0  0
 56 69  2  0  0  0
 57 58  2  0  0  0
 57126  1  0  0  0
 58127  1  0  0  0
 59 60  1  0  0  0
 59 61  1  0  0  0
 59 62  1  0  0  0
 60128  1  0  0  0
 60129  1  0  0  0
 60130  1  0  0  0
 61131  1  0  0  0
 61132  1  0  0  0
 61133  1  0  0  0
 62134  1  0  0  0
 62135  1  0  0  0
 62136  1  0  0  0
 63 65  1  0  0  0
 63137  1  0  0  0
 63138  1  0  0  0
 63139  1  0  0  0
 64140  1  0  0  0
 65141  1  0  0  0
 68 80  1  0  0  0
 71 73  2  0  0  0
 71 74  1  0  0  0
 71142  1  0  0  0
 72 73  1  0  0  0
 72 76  2  0  0  0
 72143  1  0  0  0
 73 79  1  0  0  0
 74 75  2  0  0  0
 74 78  1  0  0  0
 75 76  1  0  0  0
 75 77  1  0  0  0
 76 82  1  0  0  0
 77144  1  0  0  0
 77145  1  0  0  0
 77146  1  0  0  0
 78 80  1  0  0  0
 78147  1  0  0  0
 78148  1  0  0  0
 79 81  1  0  0  0
 79149  1  0  0  0
 79150  1  0  0  0
 80151  1  0  0  0
 80152  1  0  0  0
 81153  1  0  0  0
M  ISO  4   1 100  68 101  80 101  81 100
M  END
> <chiral flag>
0

> <version>
0

> <s_m_source_file>
/data/baiqing/PycharmProjects/Reinvent-master-3.2/result/LINK_invent/BTK/process_docking_weight1_custom_sum_contain_oxygen_bond_distance_aromatic_linkinvent_7_9_3/rearranged_h_0031.sdf

> <i_m_source_file_index>
34

> <r_mmod_Potential_Energy-OPLS-2005>
506.781982421875

> <r_mmod_Stretch_Energy-OPLS-2005>
294.247985839844

> <r_mmod_Bend_Energy-OPLS-2005>
263.129699707031

> <r_mmod_Torsional_Energy-OPLS-2005>
216.806045532227

> <r_mmod_Improper_Torsional_Energy-OPLS-2005>
7.14227724075317

> <r_mmod_Van_der_Waal_Energy-OPLS-2005>
137.734756469727

> <r_mmod_Electrostatic_Energy-OPLS-2005>
-401.149810791016

> <r_mmod_Solvation_Energy-OPLS-2005>
-209.635650634766

> <b_mmod_Minimization_Converged-OPLS-2005>
0

> <r_mmod_RMS_Derivative-OPLS-2005>
6.05747890472412

$$$$
34
                    3D
 Structure written by MMmdl.
168176  0  0  1  0            999 V2000
  -30.7683  -14.3658   20.6848 C   0  0  0  0  0  0
  -30.4093  -12.2930   19.3867 C   0  0  0  0  0  0
  -29.4721  -12.5272   18.1870 C   0  0  0  0  0  0
  -27.9979  -12.3849   18.6064 C   0  0  0  0  0  0
  -27.6643  -13.2050   19.8791 C   0  0  2  0  0  0
  -28.7042  -12.9481   20.9905 C   0  0  0  0  0  0
  -25.2595  -13.8169   20.5714 C   0  0  0  0  0  0
  -24.1855  -13.0454   20.9177 C   0  0  0  0  0  0
  -24.6412  -11.6927   20.8760 C   0  0  0  0  0  0
  -23.9100  -10.4306   21.0431 C   0  0  0  0  0  0
  -24.3661   -9.4199   21.9187 C   0  0  0  0  0  0
  -23.6328   -8.2235   22.0738 C   0  0  0  0  0  0
  -22.4289   -8.0286   21.3538 C   0  0  0  0  0  0
  -21.9947   -9.0270   20.4634 C   0  0  0  0  0  0
  -22.7290  -10.2143   20.3063 C   0  0  0  0  0  0
  -21.6858   -6.0753   22.5287 C   0  0  0  0  0  0
  -21.4015   -6.5652   23.8214 C   0  0  0  0  0  0
  -21.3659   -5.6795   24.9178 C   0  0  0  0  0  0
  -21.6043   -4.3060   24.7224 C   0  0  0  0  0  0
  -21.8825   -3.8159   23.4337 C   0  0  0  0  0  0
  -21.9201   -4.6982   22.3405 C   0  0  0  0  0  0
  -22.7853  -13.5194   21.1875 C   0  0  0  0  0  0
  -22.1655   -4.2163   21.0984 F   0  0  0  0  0  0
  -21.5649   -3.4548   25.7737 F   0  0  0  0  0  0
  -30.0419  -13.2437   20.4475 N   0  0  0  0  0  0
  -26.3042  -12.9348   20.3413 N   0  0  0  0  0  0
  -25.9340  -11.6512   20.5819 N   0  0  0  0  0  0
  -22.0548  -12.8151   22.0428 N   0  0  0  0  0  0
  -25.4319  -15.1908   20.4105 N   0  0  0  0  0  0
  -31.8024  -14.6467   20.0719 O   0  0  0  0  0  0
  -21.6637   -6.8898   21.4242 O   0  0  0  0  0  0
  -22.3505  -14.5495   20.6725 O   0  0  0  0  0  0
  -24.6073  -31.8711   23.2134 C   0  0  0  0  0  0
  -25.8988  -32.4819   23.8413 C   0  0  1  0  0  0
  -27.2474  -27.4713   20.0894 C   0  0  0  0  0  0
  -25.5889  -33.8631   24.2331 N   0  0  0  0  0  0
  -23.3927  -30.4961   21.5521 C   0  0  2  0  0  0
  -24.8400  -28.9573   20.1194 C   0  0  0  0  0  0
  -22.7352  -29.4700   22.4993 C   0  0  0  0  0  0
  -18.0260  -28.1380   22.8502 C   0  0  0  0  0  0
  -24.1504  -36.7334   23.2636 C   0  0  0  0  0  0
  -25.9175  -30.8457   21.3629 C   0  0  0  0  0  0
  -25.9964  -29.4821   20.7101 C   0  0  0  0  0  0
  -27.1972  -28.7469   20.6898 C   0  0  0  0  0  0
  -26.0709  -26.9431   19.5116 C   0  0  0  0  0  0
  -24.8713  -27.6830   19.5233 C   0  0  0  0  0  0
  -23.6019  -29.8252   20.1663 C   0  0  0  0  0  0
  -25.4131  -36.3127   24.0334 C   0  0  1  0  0  0
  -20.5845  -28.3694   23.1314 C   0  0  2  0  0  0
  -20.6773  -26.9447   22.5382 C   0  0  0  0  0  0
  -19.5737  -26.6416   21.5197 C   0  0  0  0  0  0
  -18.1921  -26.7936   22.1624 C   0  0  0  0  0  0
  -19.1507  -28.8856   23.2908 C   0  0  0  0  0  0
  -18.9429  -30.1460   23.8914 C   0  0  0  0  0  0
  -17.6436  -30.6587   24.0583 C   0  0  0  0  0  0
  -25.9048  -34.9477   23.5130 C   0  0  0  0  0  0
  -16.5328  -29.9088   23.6314 C   0  0  0  0  0  0
  -16.7260  -28.6511   23.0330 C   0  0  0  0  0  0
  -26.4474  -31.6580   25.0712 C   0  0  0  0  0  0
  -25.3757  -31.3650   26.1454 C   0  0  0  0  0  0
  -27.0284  -30.3025   24.6056 C   0  0  0  0  0  0
  -27.6064  -32.4258   25.7475 C   0  0  0  0  0  0
  -27.5596  -37.1833   24.8472 C   0  0  0  0  0  0
  -21.4089  -29.3059   22.3702 N   0  0  0  0  0  0
  -26.4316  -37.3806   23.9400 N   0  0  0  0  0  0
  -24.6559  -31.0866   22.1003 N   0  0  0  0  0  0
  -23.4144  -28.8212   23.3000 O   0  0  0  0  0  0
  -28.4715  -26.8429   20.0600 O   0  0  0  0  0  0
  -26.5611  -34.8929   22.4694 O   0  0  0  0  0  0
  -23.5284  -32.1433   23.7579 O   0  0  0  0  0  0
  -27.2535  -20.3710   21.8471 C   0  0  0  0  0  0
  -26.9104  -21.6473   21.3637 C   0  0  0  0  0  0
  -27.8715  -20.2167   23.1015 C   0  0  0  0  0  0
  -27.0869  -22.7908   22.1878 C   0  0  0  0  0  0
  -27.5175  -22.6170   23.5347 C   0  0  0  0  0  0
  -27.9558  -21.3378   23.9667 C   0  0  0  0  0  0
  -26.4240  -21.7437   19.9242 C   0  0  0  0  0  0
  -27.5967  -23.8082   24.4929 C   0  0  0  0  0  0
  -28.4917  -18.8594   23.4801 C   0  0  0  0  0  0
  -26.9815  -24.1937   21.5761 C   0  0  0  0  0  0
  -29.0733  -17.9944   22.3045 C   0  0  0  0  0  0
  -28.3914  -24.7466   21.2750 C   0  0  0  0  0  0
  -30.5760  -17.6157   22.0333 C   0  0  0  0  0  0
  -31.0692  -16.1808   22.3750 C   0  0  0  0  0  0
  -28.5771  -25.4345   19.9122 C   0  0  0  0  0  0
  -30.3216  -15.1227   21.6971 N   0  0  0  0  0  0
  -28.6563  -21.1553   25.5442 Cl  0  0  0  0  0  0
  -31.4502  -12.3950   19.0745 H   0  0  0  0  0  0
  -30.3050  -11.2707   19.7540 H   0  0  0  0  0  0
  -29.6981  -11.8271   17.3821 H   0  0  0  0  0  0
  -29.6396  -13.5259   17.7829 H   0  0  0  0  0  0
  -27.7976  -11.3273   18.7819 H   0  0  0  0  0  0
  -27.3411  -12.6888   17.7905 H   0  0  0  0  0  0
  -27.7193  -14.2600   19.6062 H   0  0  0  0  0  0
  -28.6737  -11.9039   21.3070 H   0  0  0  0  0  0
  -28.4450  -13.5254   21.8761 H   0  0  0  0  0  0
  -25.2835   -9.5637   22.4726 H   0  0  0  0  0  0
  -24.0042   -7.4608   22.7436 H   0  0  0  0  0  0
  -21.0881   -8.8816   19.8917 H   0  0  0  0  0  0
  -22.3798  -10.9689   19.6143 H   0  0  0  0  0  0
  -21.1975   -7.6155   23.9727 H   0  0  0  0  0  0
  -21.1479   -6.0523   25.9082 H   0  0  0  0  0  0
  -22.0602   -2.7622   23.2845 H   0  0  0  0  0  0
  -22.4254  -11.9786   22.4720 H   0  0  0  0  0  0
  -21.1156  -13.1100   22.2732 H   0  0  0  0  0  0
  -24.6708  -15.8527   20.5192 H   0  0  0  0  0  0
  -26.2968  -15.6278   20.1189 H   0  0  0  0  0  0
  -26.7054  -32.5538   23.1178 H   0  0  0  0  0  0
  -25.0027  -33.9801   25.0471 H   0  0  0  0  0  0
  -22.6813  -31.3148   21.4165 H   0  0  0  0  0  0
  -23.3749  -35.9679   23.3317 H   0  0  0  0  0  0
  -24.3613  -36.8919   22.2047 H   0  0  0  0  0  0
  -23.7271  -37.6561   23.6633 H   0  0  0  0  0  0
  -26.0270  -31.6182   20.6004 H   0  0  0  0  0  0
  -26.8053  -30.8943   21.9805 H   0  0  0  0  0  0
  -28.0946  -29.1571   21.1331 H   0  0  0  0  0  0
  -26.0597  -25.9760   19.0364 H   0  0  0  0  0  0
  -23.9857  -27.2648   19.0657 H   0  0  0  0  0  0
  -23.7209  -30.6058   19.4144 H   0  0  0  0  0  0
  -22.7234  -29.2543   19.8578 H   0  0  0  0  0  0
  -25.1300  -36.2010   25.0826 H   0  0  0  0  0  0
  -20.9954  -28.3265   24.1427 H   0  0  0  0  0  0
  -20.5734  -26.2285   23.3538 H   0  0  0  0  0  0
  -21.6631  -26.7531   22.1130 H   0  0  0  0  0  0
  -19.6923  -25.6341   21.1202 H   0  0  0  0  0  0
  -19.6651  -27.3242   20.6743 H   0  0  0  0  0  0
  -17.4185  -26.6702   21.4031 H   0  0  0  0  0  0
  -18.0339  -26.0068   22.9014 H   0  0  0  0  0  0
  -19.7895  -30.7281   24.2314 H   0  0  0  0  0  0
  -17.4960  -31.6261   24.5173 H   0  0  0  0  0  0
  -15.5325  -30.2987   23.7603 H   0  0  0  0  0  0
  -15.8662  -28.0828   22.7027 H   0  0  0  0  0  0
  -24.5990  -30.6927   25.7801 H   0  0  0  0  0  0
  -24.8873  -32.2769   26.4909 H   0  0  0  0  0  0
  -25.8126  -30.8858   27.0223 H   0  0  0  0  0  0
  -26.2814  -29.6810   24.1102 H   0  0  0  0  0  0
  -27.4065  -29.7224   25.4490 H   0  0  0  0  0  0
  -27.8662  -30.4348   23.9185 H   0  0  0  0  0  0
  -27.2744  -33.3562   26.2113 H   0  0  0  0  0  0
  -28.3895  -32.6799   25.0307 H   0  0  0  0  0  0
  -28.0730  -31.8322   26.5352 H   0  0  0  0  0  0
  -28.2621  -38.0122   24.7502 H   0  0  0  0  0  0
  -28.1071  -36.2646   24.6310 H   0  0  0  0  0  0
  -27.2307  -37.1514   25.8873 H   0  0  0  0  0  0
  -20.9260  -29.8800   21.6918 H   0  0  0  0  0  0
  -26.0205  -38.2886   24.1380 H   0  0  0  0  0  0
  -27.1278  -19.5051   21.2107 H   0  0  0  0  0  0
  -26.3071  -20.7537   19.4812 H   0  0  0  0  0  0
  -27.1257  -22.3066   19.3061 H   0  0  0  0  0  0
  -25.4485  -22.2252   19.8702 H   0  0  0  0  0  0
  -27.5418  -23.5084   25.5390 H   0  0  0  0  0  0
  -26.7756  -24.5112   24.3541 H   0  0  0  0  0  0
  -28.5367  -24.3402   24.3491 H   0  0  0  0  0  0
  -27.7129  -18.3099   24.0158 H   0  0  0  0  0  0
  -29.2795  -19.0354   24.2139 H   0  0  0  0  0  0
  -26.4623  -24.8840   22.2382 H   0  0  0  0  0  0
  -26.3798  -24.1846   20.6676 H   0  0  0  0  0  0
  -29.2251  -17.3144   23.1398 H   0  0  0  0  0  0
  -29.4624  -18.9515   21.9478 H   0  0  0  0  0  0
  -29.1131  -23.9271   21.3081 H   0  0  0  0  0  0
  -28.6927  -25.4253   22.0753 H   0  0  0  0  0  0
  -31.2374  -18.2999   22.5749 H   0  0  0  0  0  0
  -30.7973  -17.7779   20.9739 H   0  0  0  0  0  0
  -32.1340  -16.0979   22.1457 H   0  0  0  0  0  0
  -31.0033  -15.9906   23.4484 H   0  0  0  0  0  0
  -27.9669  -25.0143   19.1138 H   0  0  0  0  0  0
  -29.6101  -25.2668   19.6011 H   0  0  0  0  0  0
  -29.4500  -14.8353   22.1159 H   0  0  0  0  0  0
  1 25  1  0  0  0
  1 30  2  0  0  0
  1 86  1  0  0  0
  2  3  1  0  0  0
  2 25  1  0  0  0
  2 88  1  0  0  0
  2 89  1  0  0  0
  3  4  1  0  0  0
  3 90  1  0  0  0
  3 91  1  0  0  0
  4  5  1  0  0  0
  4 92  1  0  0  0
  4 93  1  0  0  0
  5  6  1  0  0  0
  5 26  1  0  0  0
  5 94  1  0  0  0
  6 25  1  0  0  0
  6 95  1  0  0  0
  6 96  1  0  0  0
  7  8  2  0  0  0
  7 26  1  0  0  0
  7 29  1  0  0  0
  8  9  1  0  0  0
  8 22  1  0  0  0
  9 10  1  0  0  0
  9 27  2  0  0  0
 10 11  2  0  0  0
 10 15  1  0  0  0
 11 12  1  0  0  0
 11 97  1  0  0  0
 12 13  2  0  0  0
 12 98  1  0  0  0
 13 14  1  0  0  0
 13 31  1  0  0  0
 14 15  2  0  0  0
 14 99  1  0  0  0
 15100  1  0  0  0
 16 17  2  0  0  0
 16 21  1  0  0  0
 16 31  1  0  0  0
 17 18  1  0  0  0
 17101  1  0  0  0
 18 19  2  0  0  0
 18102  1  0  0  0
 19 20  1  0  0  0
 19 24  1  0  0  0
 20 21  2  0  0  0
 20103  1  0  0  0
 21 23  1  0  0  0
 22 28  1  0  0  0
 22 32  2  0  0  0
 26 27  1  0  0  0
 28104  1  0  0  0
 28105  1  0  0  0
 29106  1  0  0  0
 29107  1  0  0  0
 33 34  1  0  0  0
 33 66  1  0  0  0
 33 70  2  0  0  0
 34 36  1  0  0  0
 34 59  1  0  0  0
 34108  1  0  0  0
 35 44  2  0  0  0
 35 45  1  0  0  0
 35 68  1  0  0  0
 36 56  1  0  0  0
 36109  1  0  0  0
 37 39  1  0  0  0
 37 47  1  0  0  0
 37 66  1  0  0  0
 37110  1  0  0  0
 38 43  2  0  0  0
 38 46  1  0  0  0
 38 47  1  0  0  0
 39 64  1  0  0  0
 39 67  2  0  0  0
 40 52  1  0  0  0
 40 53  2  0  0  0
 40 58  1  0  0  0
 41111  1  0  0  0
 41112  1  0  0  0
 41113  1  0  0  0
 41 48  1  0  0  0
 42 43  1  0  0  0
 42 66  1  0  0  0
 42114  1  0  0  0
 42115  1  0  0  0
 43 44  1  0  0  0
 44116  1  0  0  0
 45 46  2  0  0  0
 45117  1  0  0  0
 46118  1  0  0  0
 47119  1  0  0  0
 47120  1  0  0  0
 48 56  1  0  0  0
 48 65  1  0  0  0
 48121  1  0  0  0
 49 50  1  0  0  0
 49 53  1  0  0  0
 49 64  1  0  0  0
 49122  1  0  0  0
 50 51  1  0  0  0
 50123  1  0  0  0
 50124  1  0  0  0
 51 52  1  0  0  0
 51125  1  0  0  0
 51126  1  0  0  0
 52127  1  0  0  0
 52128  1  0  0  0
 53 54  1  0  0  0
 54 55  2  0  0  0
 54129  1  0  0  0
 55 57  1  0  0  0
 55130  1  0  0  0
 56 69  2  0  0  0
 57 58  2  0  0  0
 57131  1  0  0  0
 58132  1  0  0  0
 59 60  1  0  0  0
 59 61  1  0  0  0
 59 62  1  0  0  0
 60133  1  0  0  0
 60134  1  0  0  0
 60135  1  0  0  0
 61136  1  0  0  0
 61137  1  0  0  0
 61138  1  0  0  0
 62139  1  0  0  0
 62140  1  0  0  0
 62141  1  0  0  0
 63 65  1  0  0  0
 63142  1  0  0  0
 63143  1  0  0  0
 63144  1  0  0  0
 64145  1  0  0  0
 65146  1  0  0  0
 68 85  1  0  0  0
 71 72  2  0  0  0
 71 73  1  0  0  0
 71147  1  0  0  0
 72 74  1  0  0  0
 72 77  1  0  0  0
 73 76  2  0  0  0
 73 79  1  0  0  0
 74 75  2  0  0  0
 74 80  1  0  0  0
 75 76  1  0  0  0
 75 78  1  0  0  0
 76 87  1  0  0  0
 77148  1  0  0  0
 77149  1  0  0  0
 77150  1  0  0  0
 78151  1  0  0  0
 78152  1  0  0  0
 78153  1  0  0  0
 79 81  1  0  0  0
 79154  1  0  0  0
 79155  1  0  0  0
 80 82  1  0  0  0
 80156  1  0  0  0
 80157  1  0  0  0
 81 83  1  0  0  0
 81158  1  0  0  0
 81159  1  0  0  0
 82 85  1  0  0  0
 82160  1  0  0  0
 82161  1  0  0  0
 83 84  1  0  0  0
 83162  1  0  0  0
 83163  1  0  0  0
 84 86  1  0  0  0
 84164  1  0  0  0
 84165  1  0  0  0
 85166  1  0  0  0
 85167  1  0  0  0
 86168  1  0  0  0
M  ISO  4   1 100  68 101  85 101  86 100
M  END
> <chiral flag>
0

> <version>
0

> <s_m_source_file>
/data/baiqing/PycharmProjects/Reinvent-master-3.2/result/LINK_invent/BTK/process_docking_weight1_custom_sum_contain_oxygen_bond_distance_aromatic_linkinvent_7_9_3/rearranged_h_0031.sdf

> <i_m_source_file_index>
35

> <r_mmod_Potential_Energy-OPLS-2005>
204.62532043457

> <r_mmod_Stretch_Energy-OPLS-2005>
40.7202796936035

> <r_mmod_Bend_Energy-OPLS-2005>
336.844757080078

> <r_mmod_Torsional_Energy-OPLS-2005>
229.191986083984

> <r_mmod_Improper_Torsional_Energy-OPLS-2005>
3.25220322608948

> <r_mmod_Van_der_Waal_Energy-OPLS-2005>
183.811401367188

> <r_mmod_Electrostatic_Energy-OPLS-2005>
-400.386749267578

> <r_mmod_Solvation_Energy-OPLS-2005>
-196.974517822266

> <b_mmod_Minimization_Converged-OPLS-2005>
0

> <r_mmod_RMS_Derivative-OPLS-2005>
5.36489820480347

$$$$
35
                    3D
 Structure written by MMmdl.
185195  0  0  1  0            999 V2000
  -30.7680  -14.4153   20.6162 C   0  0  0  0  0  0
  -30.3895  -12.2831   19.4374 C   0  0  0  0  0  0
  -29.4888  -12.5215   18.2120 C   0  0  0  0  0  0
  -28.0091  -12.3912   18.6116 C   0  0  0  0  0  0
  -27.6593  -13.2206   19.8768 C   0  0  2  0  0  0
  -28.6938  -13.0174   21.0108 C   0  0  0  0  0  0
  -25.2561  -13.8200   20.5677 C   0  0  0  0  0  0
  -24.1826  -13.0462   20.9164 C   0  0  0  0  0  0
  -24.6391  -11.6930   20.8708 C   0  0  0  0  0  0
  -23.9056  -10.4311   21.0380 C   0  0  0  0  0  0
  -24.3607   -9.4229   21.9168 C   0  0  0  0  0  0
  -23.6294   -8.2261   22.0745 C   0  0  0  0  0  0
  -22.4281   -8.0286   21.3531 C   0  0  0  0  0  0
  -21.9902   -9.0252   20.4639 C   0  0  0  0  0  0
  -22.7220  -10.2137   20.3043 C   0  0  0  0  0  0
  -21.6870   -6.0750   22.5289 C   0  0  0  0  0  0
  -21.4027   -6.5648   23.8216 C   0  0  0  0  0  0
  -21.3653   -5.6788   24.9172 C   0  0  0  0  0  0
  -21.6037   -4.3057   24.7223 C   0  0  0  0  0  0
  -21.8819   -3.8159   23.4339 C   0  0  0  0  0  0
  -21.9192   -4.6975   22.3402 C   0  0  0  0  0  0
  -22.7847  -13.5243   21.1829 C   0  0  0  0  0  0
  -22.1669   -4.2166   21.0978 F   0  0  0  0  0  0
  -21.5609   -3.4536   25.7731 F   0  0  0  0  0  0
  -30.0345  -13.2741   20.4706 N   0  0  0  0  0  0
  -26.3005  -12.9397   20.3352 N   0  0  0  0  0  0
  -25.9324  -11.6536   20.5743 N   0  0  0  0  0  0
  -22.0489  -12.8241   22.0385 N   0  0  0  0  0  0
  -25.4280  -15.1919   20.4112 N   0  0  0  0  0  0
  -31.7786  -14.6091   19.9365 O   0  0  0  0  0  0
  -21.6650   -6.8887   21.4247 O   0  0  0  0  0  0
  -22.3529  -14.5543   20.6675 O   0  0  0  0  0  0
  -24.6172  -31.8671   23.2071 C   0  0  0  0  0  0
  -25.9066  -32.4819   23.8394 C   0  0  1  0  0  0
  -27.2215  -27.4032   20.1093 C   0  0  0  0  0  0
  -25.5915  -33.8624   24.2323 N   0  0  0  0  0  0
  -23.4083  -30.4861   21.5484 C   0  0  2  0  0  0
  -24.8561  -28.9525   20.1111 C   0  0  0  0  0  0
  -22.7429  -29.4629   22.4994 C   0  0  0  0  0  0
  -18.0268  -28.1350   22.8496 C   0  0  0  0  0  0
  -24.1474  -36.7317   23.2647 C   0  0  0  0  0  0
  -25.9433  -30.8215   21.3656 C   0  0  0  0  0  0
  -26.0207  -29.4572   20.7079 C   0  0  0  0  0  0
  -27.2125  -28.6905   20.6961 C   0  0  0  0  0  0
  -26.0458  -26.9214   19.4983 C   0  0  0  0  0  0
  -24.8653  -27.6848   19.5004 C   0  0  0  0  0  0
  -23.6156  -29.8159   20.1656 C   0  0  0  0  0  0
  -25.4098  -36.3108   24.0324 C   0  0  1  0  0  0
  -20.5849  -28.3616   23.1338 C   0  0  2  0  0  0
  -20.6757  -26.9364   22.5391 C   0  0  0  0  0  0
  -19.5734  -26.6351   21.5195 C   0  0  0  0  0  0
  -18.1907  -26.7907   22.1594 C   0  0  0  0  0  0
  -19.1513  -28.8807   23.2913 C   0  0  0  0  0  0
  -18.9441  -30.1427   23.8897 C   0  0  0  0  0  0
  -17.6444  -30.6567   24.0550 C   0  0  0  0  0  0
  -25.9018  -34.9462   23.5101 C   0  0  0  0  0  0
  -16.5338  -29.9034   23.6369 C   0  0  0  0  0  0
  -16.7259  -28.6459   23.0381 C   0  0  0  0  0  0
  -26.4467  -31.6632   25.0778 C   0  0  0  0  0  0
  -25.3704  -31.3712   26.1514 C   0  0  0  0  0  0
  -27.0354  -30.3090   24.6213 C   0  0  0  0  0  0
  -27.6041  -32.4374   25.7527 C   0  0  0  0  0  0
  -27.5580  -37.1789   24.8484 C   0  0  0  0  0  0
  -21.4145  -29.3005   22.3756 N   0  0  0  0  0  0
  -26.4297  -37.3786   23.9428 N   0  0  0  0  0  0
  -24.6744  -31.0741   22.0981 N   0  0  0  0  0  0
  -23.4187  -28.8192   23.3054 O   0  0  0  0  0  0
  -28.3309  -26.5851   20.1660 O   0  0  0  0  0  0
  -26.5537  -34.8908   22.4637 O   0  0  0  0  0  0
  -23.5352  -32.1435   23.7474 O   0  0  0  0  0  0
  -28.6360  -19.3861   21.9389 C   0  0  0  0  0  0
  -28.0474  -20.6699   21.9539 C   0  0  0  0  0  0
  -32.7209  -17.9019   19.0462 C   0  0  0  0  0  0
  -32.5193  -20.0871   20.0806 C   0  0  0  0  0  0
  -33.3184  -19.8976   17.7841 C   0  0  0  0  0  0
  -28.4990  -20.9074   19.5856 C   0  0  0  0  0  0
  -29.2448  -18.8713   20.7681 C   0  0  0  0  0  0
  -32.3504  -18.6819   20.1729 C   0  0  0  0  0  0
  -28.0128  -21.4651   20.7887 C   0  0  0  0  0  0
  -33.1898  -18.4993   17.8583 C   0  0  0  0  0  0
  -32.9834  -20.6919   18.8969 C   0  0  0  0  0  0
  -29.0897  -19.6198   19.5655 C   0  0  0  0  0  0
  -32.4404  -16.7877   21.9141 C   0  0  0  0  0  0
  -29.5384  -16.3674   21.5277 C   0  0  0  0  0  0
  -30.1762  -17.6252   20.8553 C   0  0  2  0  0  0
  -31.6229  -15.6180   22.5289 C   0  0  1  0  0  0
  -31.6253  -18.0149   21.3767 C   0  0  2  0  0  0
  -33.4852  -17.6426   16.6430 C   0  0  0  0  0  0
  -33.0584  -22.2028   18.8176 C   0  0  0  0  0  0
  -31.2203  -15.7612   24.0128 C   0  0  0  0  0  0
  -31.5853  -18.9822   22.5946 C   0  0  0  0  0  0
  -27.4067  -22.8759   20.8527 C   0  0  0  0  0  0
  -28.1886  -24.0258   20.1521 C   0  0  0  0  0  0
  -28.1128  -25.3720   20.9298 C   0  0  0  0  0  0
  -30.4902  -15.2370   21.6634 N   0  0  0  0  0  0
  -29.6139  -19.0097   18.0350 Cl  0  0  0  0  0  0
  -31.4428  -12.3214   19.1540 H   0  0  0  0  0  0
  -30.2334  -11.2742   19.8235 H   0  0  0  0  0  0
  -29.7263  -11.8120   17.4172 H   0  0  0  0  0  0
  -29.6789  -13.5154   17.8027 H   0  0  0  0  0  0
  -27.8010  -11.3346   18.7838 H   0  0  0  0  0  0
  -27.3716  -12.6959   17.7807 H   0  0  0  0  0  0
  -27.7000  -14.2688   19.5782 H   0  0  0  0  0  0
  -28.6487  -11.9951   21.3899 H   0  0  0  0  0  0
  -28.4592  -13.6602   21.8595 H   0  0  0  0  0  0
  -25.2755   -9.5725   22.4731 H   0  0  0  0  0  0
  -24.0012   -7.4669   22.7469 H   0  0  0  0  0  0
  -21.0831   -8.8756   19.8961 H   0  0  0  0  0  0
  -22.3663  -10.9660   19.6149 H   0  0  0  0  0  0
  -21.2046   -7.6166   23.9725 H   0  0  0  0  0  0
  -21.1462   -6.0528   25.9068 H   0  0  0  0  0  0
  -22.0604   -2.7628   23.2837 H   0  0  0  0  0  0
  -22.4115  -11.9915   22.4789 H   0  0  0  0  0  0
  -21.1104  -13.1263   22.2573 H   0  0  0  0  0  0
  -24.6627  -15.8472   20.5264 H   0  0  0  0  0  0
  -26.2831  -15.6332   20.0991 H   0  0  0  0  0  0
  -26.7166  -32.5508   23.1173 H   0  0  0  0  0  0
  -25.0195  -33.9841   25.0554 H   0  0  0  0  0  0
  -22.6999  -31.3043   21.4051 H   0  0  0  0  0  0
  -23.3727  -35.9657   23.3321 H   0  0  0  0  0  0
  -24.3609  -36.8935   22.2073 H   0  0  0  0  0  0
  -23.7197  -37.6505   23.6668 H   0  0  0  0  0  0
  -26.0632  -31.5883   20.5995 H   0  0  0  0  0  0
  -26.8298  -30.8708   21.9880 H   0  0  0  0  0  0
  -28.1133  -29.0602   21.1684 H   0  0  0  0  0  0
  -26.0364  -25.9402   19.0490 H   0  0  0  0  0  0
  -23.9685  -27.2866   19.0466 H   0  0  0  0  0  0
  -23.7118  -30.5893   19.4039 H   0  0  0  0  0  0
  -22.7423  -29.2266   19.8801 H   0  0  0  0  0  0
  -25.1234  -36.1971   25.0803 H   0  0  0  0  0  0
  -20.9958  -28.3160   24.1453 H   0  0  0  0  0  0
  -20.5671  -26.2215   23.3556 H   0  0  0  0  0  0
  -21.6623  -26.7406   22.1168 H   0  0  0  0  0  0
  -19.6907  -25.6260   21.1229 H   0  0  0  0  0  0
  -19.6694  -27.3181   20.6740 H   0  0  0  0  0  0
  -17.4179  -26.6700   21.4002 H   0  0  0  0  0  0
  -18.0291  -26.0015   22.8935 H   0  0  0  0  0  0
  -19.7907  -30.7250   24.2262 H   0  0  0  0  0  0
  -17.4971  -31.6266   24.5088 H   0  0  0  0  0  0
  -15.5318  -30.2892   23.7724 H   0  0  0  0  0  0
  -15.8658  -28.0760   22.7104 H   0  0  0  0  0  0
  -24.5850  -30.7114   25.7822 H   0  0  0  0  0  0
  -24.8918  -32.2853   26.5052 H   0  0  0  0  0  0
  -25.8013  -30.8788   27.0250 H   0  0  0  0  0  0
  -26.2956  -29.6799   24.1266 H   0  0  0  0  0  0
  -27.4105  -29.7399   25.4737 H   0  0  0  0  0  0
  -27.8778  -30.4438   23.9418 H   0  0  0  0  0  0
  -27.2687  -33.3688   26.2114 H   0  0  0  0  0  0
  -28.3826  -32.6933   25.0319 H   0  0  0  0  0  0
  -28.0739  -31.8483   26.5428 H   0  0  0  0  0  0
  -28.2553  -38.0134   24.7543 H   0  0  0  0  0  0
  -28.1063  -36.2623   24.6226 H   0  0  0  0  0  0
  -27.2308  -37.1387   25.8897 H   0  0  0  0  0  0
  -20.9290  -29.8764   21.7029 H   0  0  0  0  0  0
  -26.0162  -38.2848   24.1443 H   0  0  0  0  0  0
  -28.7064  -18.8445   22.8708 H   0  0  0  0  0  0
  -27.6582  -21.0569   22.8867 H   0  0  0  0  0  0
  -32.5752  -16.8321   19.0514 H   0  0  0  0  0  0
  -32.2337  -20.7509   20.8801 H   0  0  0  0  0  0
  -33.6479  -20.3603   16.8640 H   0  0  0  0  0  0
  -28.4362  -21.4735   18.6674 H   0  0  0  0  0  0
  -33.0406  -16.3665   21.1123 H   0  0  0  0  0  0
  -33.2102  -17.1028   22.6209 H   0  0  0  0  0  0
  -28.6807  -16.0506   20.9371 H   0  0  0  0  0  0
  -29.1260  -16.6120   22.5042 H   0  0  0  0  0  0
  -30.3026  -17.2638   19.8368 H   0  0  0  0  0  0
  -32.3136  -14.7701   22.5522 H   0  0  0  0  0  0
  -33.6532  -16.6008   16.9182 H   0  0  0  0  0  0
  -34.3716  -18.0027   16.1220 H   0  0  0  0  0  0
  -32.6458  -17.6725   15.9470 H   0  0  0  0  0  0
  -33.4133  -22.6215   19.7599 H   0  0  0  0  0  0
  -32.0712  -22.6225   18.6160 H   0  0  0  0  0  0
  -33.7385  -22.5280   18.0306 H   0  0  0  0  0  0
  -30.5275  -16.5776   24.2076 H   0  0  0  0  0  0
  -32.1002  -15.9282   24.6357 H   0  0  0  0  0  0
  -30.7495  -14.8473   24.3751 H   0  0  0  0  0  0
  -32.5891  -19.2293   22.9415 H   0  0  0  0  0  0
  -31.0517  -18.5477   23.4354 H   0  0  0  0  0  0
  -31.0931  -19.9292   22.3922 H   0  0  0  0  0  0
  -27.2713  -23.1226   21.9075 H   0  0  0  0  0  0
  -26.3993  -22.8383   20.4403 H   0  0  0  0  0  0
  -27.8001  -24.1460   19.1401 H   0  0  0  0  0  0
  -29.2372  -23.7548   20.0408 H   0  0  0  0  0  0
  -28.8629  -25.3427   21.7210 H   0  0  0  0  0  0
  -27.1598  -25.4217   21.4615 H   0  0  0  0  0  0
  1 25  1  0  0  0
  1 30  2  0  0  0
  1 95  1  0  0  0
  2  3  1  0  0  0
  2 25  1  0  0  0
  2 97  1  0  0  0
  2 98  1  0  0  0
  3  4  1  0  0  0
  3 99  1  0  0  0
  3100  1  0  0  0
  4  5  1  0  0  0
  4101  1  0  0  0
  4102  1  0  0  0
  5  6  1  0  0  0
  5 26  1  0  0  0
  5103  1  0  0  0
  6 25  1  0  0  0
  6104  1  0  0  0
  6105  1  0  0  0
  7  8  2  0  0  0
  7 26  1  0  0  0
  7 29  1  0  0  0
  8  9  1  0  0  0
  8 22  1  0  0  0
  9 10  1  0  0  0
  9 27  2  0  0  0
 10 11  2  0  0  0
 10 15  1  0  0  0
 11 12  1  0  0  0
 11106  1  0  0  0
 12 13  2  0  0  0
 12107  1  0  0  0
 13 14  1  0  0  0
 13 31  1  0  0  0
 14 15  2  0  0  0
 14108  1  0  0  0
 15109  1  0  0  0
 16 17  2  0  0  0
 16 21  1  0  0  0
 16 31  1  0  0  0
 17 18  1  0  0  0
 17110  1  0  0  0
 18 19  2  0  0  0
 18111  1  0  0  0
 19 20  1  0  0  0
 19 24  1  0  0  0
 20 21  2  0  0  0
 20112  1  0  0  0
 21 23  1  0  0  0
 22 28  1  0  0  0
 22 32  2  0  0  0
 26 27  1  0  0  0
 28113  1  0  0  0
 28114  1  0  0  0
 29115  1  0  0  0
 29116  1  0  0  0
 33 34  1  0  0  0
 33 66  1  0  0  0
 33 70  2  0  0  0
 34 36  1  0  0  0
 34 59  1  0  0  0
 34117  1  0  0  0
 35 44  2  0  0  0
 35 45  1  0  0  0
 35 68  1  0  0  0
 36 56  1  0  0  0
 36118  1  0  0  0
 37 39  1  0  0  0
 37 47  1  0  0  0
 37 66  1  0  0  0
 37119  1  0  0  0
 38 43  2  0  0  0
 38 46  1  0  0  0
 38 47  1  0  0  0
 39 64  1  0  0  0
 39 67  2  0  0  0
 40 52  1  0  0  0
 40 53  2  0  0  0
 40 58  1  0  0  0
 41120  1  0  0  0
 41121  1  0  0  0
 41122  1  0  0  0
 41 48  1  0  0  0
 42 43  1  0  0  0
 42 66  1  0  0  0
 42123  1  0  0  0
 42124  1  0  0  0
 43 44  1  0  0  0
 44125  1  0  0  0
 45 46  2  0  0  0
 45126  1  0  0  0
 46127  1  0  0  0
 47128  1  0  0  0
 47129  1  0  0  0
 48 56  1  0  0  0
 48 65  1  0  0  0
 48130  1  0  0  0
 49 50  1  0  0  0
 49 53  1  0  0  0
 49 64  1  0  0  0
 49131  1  0  0  0
 50 51  1  0  0  0
 50132  1  0  0  0
 50133  1  0  0  0
 51 52  1  0  0  0
 51134  1  0  0  0
 51135  1  0  0  0
 52136  1  0  0  0
 52137  1  0  0  0
 53 54  1  0  0  0
 54 55  2  0  0  0
 54138  1  0  0  0
 55 57  1  0  0  0
 55139  1  0  0  0
 56 69  2  0  0  0
 57 58  2  0  0  0
 57140  1  0  0  0
 58141  1  0  0  0
 59 60  1  0  0  0
 59 61  1  0  0  0
 59 62  1  0  0  0
 60142  1  0  0  0
 60143  1  0  0  0
 60144  1  0  0  0
 61145  1  0  0  0
 61146  1  0  0  0
 61147  1  0  0  0
 62148  1  0  0  0
 62149  1  0  0  0
 62150  1  0  0  0
 63 65  1  0  0  0
 63151  1  0  0  0
 63152  1  0  0  0
 63153  1  0  0  0
 64154  1  0  0  0
 65155  1  0  0  0
 68 94  1  0  0  0
 71 72  2  0  0  0
 71 77  1  0  0  0
 71156  1  0  0  0
 72 79  1  0  0  0
 72157  1  0  0  0
 73 78  2  0  0  0
 73 80  1  0  0  0
 73158  1  0  0  0
 74 78  1  0  0  0
 74 81  2  0  0  0
 74159  1  0  0  0
 75 80  2  0  0  0
 75 81  1  0  0  0
 75160  1  0  0  0
 76 79  2  0  0  0
 76 82  1  0  0  0
 76161  1  0  0  0
 77 82  2  0  0  0
 77 85  1  0  0  0
 78 87  1  0  0  0
 79 92  1  0  0  0
 80 88  1  0  0  0
 81 89  1  0  0  0
 82 96  1  0  0  0
 83 86  1  0  0  0
 83 87  1  0  0  0
 83162  1  0  0  0
 83163  1  0  0  0
 84 85  1  0  0  0
 84 95  1  0  0  0
 84164  1  0  0  0
 84165  1  0  0  0
 85 87  1  0  0  0
 85166  1  0  0  0
 86 90  1  0  0  0
 86 95  1  0  0  0
 86167  1  0  0  0
 87 91  1  0  0  0
 88168  1  0  0  0
 88169  1  0  0  0
 88170  1  0  0  0
 89171  1  0  0  0
 89172  1  0  0  0
 89173  1  0  0  0
 90174  1  0  0  0
 90175  1  0  0  0
 90176  1  0  0  0
 91177  1  0  0  0
 91178  1  0  0  0
 91179  1  0  0  0
 92 93  1  0  0  0
 92180  1  0  0  0
 92181  1  0  0  0
 93 94  1  0  0  0
 93182  1  0  0  0
 93183  1  0  0  0
 94184  1  0  0  0
 94185  1  0  0  0
M  ISO  4   1 100  68 101  94 101  95 100
M  END
> <chiral flag>
0

> <version>
0

> <s_m_source_file>
/data/baiqing/PycharmProjects/Reinvent-master-3.2/result/LINK_invent/BTK/process_docking_weight1_custom_sum_contain_oxygen_bond_distance_aromatic_linkinvent_7_9_3/rearranged_h_0031.sdf

> <i_m_source_file_index>
36

> <r_mmod_Potential_Energy-OPLS-2005>
307.959167480469

> <r_mmod_Stretch_Energy-OPLS-2005>
60.1190299987793

> <r_mmod_Bend_Energy-OPLS-2005>
132.811584472656

> <r_mmod_Torsional_Energy-OPLS-2005>
383.027709960938

> <r_mmod_Improper_Torsional_Energy-OPLS-2005>
9.60677528381348

> <r_mmod_Van_der_Waal_Energy-OPLS-2005>
180.94352722168

> <r_mmod_Electrostatic_Energy-OPLS-2005>
-300.259185791016

> <r_mmod_Solvation_Energy-OPLS-2005>
-175.937088012695

> <b_mmod_Minimization_Converged-OPLS-2005>
0

> <r_mmod_RMS_Derivative-OPLS-2005>
4.12705755233765

$$$$
36
                    3D
 Structure written by MMmdl.
194205  0  0  1  0            999 V2000
  -30.5967  -14.6083   20.5979 C   0  0  0  0  0  0
  -30.4320  -12.4031   19.4439 C   0  0  0  0  0  0
  -29.4951  -12.5304   18.2223 C   0  0  0  0  0  0
  -28.0216  -12.3723   18.6412 C   0  0  0  0  0  0
  -27.6553  -13.2104   19.8920 C   0  0  2  0  0  0
  -28.6903  -13.0190   21.0207 C   0  0  0  0  0  0
  -25.2554  -13.8171   20.5731 C   0  0  0  0  0  0
  -24.1785  -13.0409   20.9210 C   0  0  0  0  0  0
  -24.6359  -11.6919   20.8787 C   0  0  0  0  0  0
  -23.9021  -10.4303   21.0432 C   0  0  0  0  0  0
  -24.3593   -9.4222   21.9185 C   0  0  0  0  0  0
  -23.6307   -8.2242   22.0745 C   0  0  0  0  0  0
  -22.4286   -8.0253   21.3513 C   0  0  0  0  0  0
  -21.9902   -9.0255   20.4624 C   0  0  0  0  0  0
  -22.7218  -10.2143   20.3058 C   0  0  0  0  0  0
  -21.6885   -6.0707   22.5267 C   0  0  0  0  0  0
  -21.4016   -6.5631   23.8189 C   0  0  0  0  0  0
  -21.3665   -5.6794   24.9162 C   0  0  0  0  0  0
  -21.6053   -4.3058   24.7254 C   0  0  0  0  0  0
  -21.8815   -3.8129   23.4370 C   0  0  0  0  0  0
  -21.9201   -4.6942   22.3422 C   0  0  0  0  0  0
  -22.7854  -13.5234   21.1929 C   0  0  0  0  0  0
  -22.1679   -4.2115   21.0992 F   0  0  0  0  0  0
  -21.5632   -3.4542   25.7752 F   0  0  0  0  0  0
  -30.0069  -13.3831   20.4669 N   0  0  0  0  0  0
  -26.2962  -12.9319   20.3426 N   0  0  0  0  0  0
  -25.9285  -11.6490   20.5819 N   0  0  0  0  0  0
  -22.0511  -12.8180   22.0468 N   0  0  0  0  0  0
  -25.4185  -15.1861   20.4084 N   0  0  0  0  0  0
  -31.7276  -14.8340   20.1383 O   0  0  0  0  0  0
  -21.6648   -6.8844   21.4232 O   0  0  0  0  0  0
  -22.3549  -14.5562   20.6815 O   0  0  0  0  0  0
  -24.6366  -31.8528   23.2024 C   0  0  0  0  0  0
  -25.9175  -32.4704   23.8354 C   0  0  1  0  0  0
  -27.1902  -27.2966   20.0609 C   0  0  0  0  0  0
  -25.5990  -33.8521   24.2195 N   0  0  0  0  0  0
  -23.4254  -30.4902   21.5482 C   0  0  2  0  0  0
  -24.8598  -28.9501   20.1125 C   0  0  0  0  0  0
  -22.7497  -29.4613   22.4923 C   0  0  0  0  0  0
  -18.0389  -28.1281   22.8428 C   0  0  0  0  0  0
  -24.1489  -36.7281   23.2614 C   0  0  0  0  0  0
  -25.9809  -30.7675   21.3887 C   0  0  0  0  0  0
  -26.0387  -29.3969   20.7248 C   0  0  0  0  0  0
  -27.2028  -28.5674   20.7116 C   0  0  0  0  0  0
  -26.0188  -26.9727   19.3498 C   0  0  0  0  0  0
  -24.8480  -27.7379   19.4256 C   0  0  0  0  0  0
  -23.6360  -29.8315   20.1635 C   0  0  0  0  0  0
  -25.4135  -36.3026   24.0260 C   0  0  1  0  0  0
  -20.5979  -28.3596   23.1285 C   0  0  2  0  0  0
  -20.6733  -26.9373   22.5294 C   0  0  0  0  0  0
  -19.5770  -26.6452   21.4983 C   0  0  0  0  0  0
  -18.2017  -26.7848   22.1427 C   0  0  0  0  0  0
  -19.1639  -28.8668   23.3065 C   0  0  0  0  0  0
  -18.9573  -30.1146   23.9369 C   0  0  0  0  0  0
  -17.6565  -30.6369   24.0852 C   0  0  0  0  0  0
  -25.9065  -34.9383   23.4968 C   0  0  0  0  0  0
  -16.5472  -29.9031   23.6261 C   0  0  0  0  0  0
  -16.7392  -28.6481   23.0200 C   0  0  0  0  0  0
  -26.4576  -31.6570   25.0785 C   0  0  0  0  0  0
  -25.3840  -31.3762   26.1566 C   0  0  0  0  0  0
  -27.0465  -30.2939   24.6373 C   0  0  0  0  0  0
  -27.6135  -32.4286   25.7542 C   0  0  0  0  0  0
  -27.5562  -37.1815   24.8457 C   0  0  0  0  0  0
  -21.4210  -29.3020   22.3651 N   0  0  0  0  0  0
  -26.4331  -37.3727   23.9336 N   0  0  0  0  0  0
  -24.6986  -31.0613   22.0942 N   0  0  0  0  0  0
  -23.4209  -28.8176   23.3029 O   0  0  0  0  0  0
  -28.2726  -26.4082   19.9975 O   0  0  0  0  0  0
  -26.5641  -34.8871   22.4546 O   0  0  0  0  0  0
  -23.5529  -32.1343   23.7347 O   0  0  0  0  0  0
  -25.9504  -21.3097   25.7377 C   0  0  0  0  0  0
  -27.0064  -23.4758   25.7053 C   0  0  0  0  0  0
  -26.7219  -19.4884   22.7622 C   0  0  0  0  0  0
  -27.0708  -22.0998   25.3886 C   0  0  0  0  0  0
  -28.0373  -19.6209   23.1075 C   0  0  0  0  0  0
  -28.6891  -19.4599   21.8351 C   0  0  0  0  0  0
  -27.9464  -20.4727   21.2162 C   0  0  0  0  0  0
  -24.9003  -21.8947   26.4786 C   0  0  0  0  0  0
  -25.8840  -23.9874   26.3967 C   0  0  0  0  0  0
  -23.4015  -18.9825   21.9172 C   0  0  0  0  0  0
  -23.0475  -18.9804   20.4523 C   0  0  0  0  0  0
  -26.9293  -22.7486   20.3370 C   0  0  0  0  0  0
  -29.1717  -22.8772   21.2422 C   0  0  0  0  0  0
  -27.0974  -24.2212   19.8542 C   0  0  0  0  0  0
  -29.3162  -24.2953   20.5677 C   0  0  0  0  0  0
  -28.2006  -21.8776   20.5281 C   0  0  0  0  0  0
  -24.4963  -18.8749   20.8825 C   0  0  0  0  0  0
  -23.7091  -21.1003   26.9835 C   0  0  0  0  0  0
  -25.4825  -25.8440   28.1347 C   0  0  0  0  0  0
  -28.2992  -21.5780   24.6249 C   0  0  0  0  0  0
  -28.5791  -20.0592   24.4545 C   0  0  0  0  0  0
  -28.7316  -17.9699   21.2647 C   0  0  0  0  0  0
  -25.6894  -25.4753   26.6527 C   0  0  0  0  0  0
  -25.4462  -20.0330   20.6460 C   0  0  0  0  0  0
  -30.0492  -17.0752   21.2844 C   0  0  0  0  0  0
  -24.8658  -23.2057   26.7960 N   0  0  0  0  0  0
  -26.6625  -19.9441   21.4482 N   0  0  0  0  0  0
  -28.0467  -25.0445   20.6348 N   0  0  0  0  0  0
  -29.8278  -15.5940   21.1461 N   0  0  0  0  0  0
  -31.4654  -12.5709   19.1299 H   0  0  0  0  0  0
  -30.3934  -11.3904   19.8446 H   0  0  0  0  0  0
  -29.7552  -11.7982   17.4546 H   0  0  0  0  0  0
  -29.6325  -13.5089   17.7644 H   0  0  0  0  0  0
  -27.8483  -11.3184   18.8446 H   0  0  0  0  0  0
  -27.3654  -12.6348   17.8095 H   0  0  0  0  0  0
  -27.6871  -14.2555   19.5916 H   0  0  0  0  0  0
  -28.7042  -11.9836   21.3711 H   0  0  0  0  0  0
  -28.4235  -13.6161   21.8955 H   0  0  0  0  0  0
  -25.2728   -9.5756   22.4750 H   0  0  0  0  0  0
  -24.0038   -7.4651   22.7478 H   0  0  0  0  0  0
  -21.0814   -8.8765   19.8962 H   0  0  0  0  0  0
  -22.3646  -10.9677   19.6186 H   0  0  0  0  0  0
  -21.1991   -7.6139   23.9684 H   0  0  0  0  0  0
  -21.1494   -6.0530   25.9064 H   0  0  0  0  0  0
  -22.0589   -2.7591   23.2893 H   0  0  0  0  0  0
  -22.4089  -11.9840   22.4884 H   0  0  0  0  0  0
  -21.1105  -13.1150   22.2592 H   0  0  0  0  0  0
  -24.6336  -15.8225   20.4972 H   0  0  0  0  0  0
  -26.2599  -15.6388   20.0755 H   0  0  0  0  0  0
  -26.7210  -32.5300   23.1060 H   0  0  0  0  0  0
  -25.0108  -33.9648   25.0295 H   0  0  0  0  0  0
  -22.7178  -31.3069   21.4014 H   0  0  0  0  0  0
  -23.3745  -35.9645   23.3316 H   0  0  0  0  0  0
  -24.3526  -36.8866   22.2025 H   0  0  0  0  0  0
  -23.7309  -37.6502   23.6649 H   0  0  0  0  0  0
  -26.1499  -31.5335   20.6260 H   0  0  0  0  0  0
  -26.8480  -30.7757   22.0434 H   0  0  0  0  0  0
  -28.1124  -28.8914   21.1922 H   0  0  0  0  0  0
  -25.9871  -26.1346   18.6762 H   0  0  0  0  0  0
  -23.9664  -27.4192   18.8883 H   0  0  0  0  0  0
  -23.7559  -30.6044   19.4029 H   0  0  0  0  0  0
  -22.7516  -29.2679   19.8598 H   0  0  0  0  0  0
  -25.1342  -36.1852   25.0789 H   0  0  0  0  0  0
  -21.0197  -28.3065   24.1361 H   0  0  0  0  0  0
  -20.5653  -26.2119   23.3368 H   0  0  0  0  0  0
  -21.6562  -26.7604   22.1035 H   0  0  0  0  0  0
  -19.6964  -25.6385   21.0991 H   0  0  0  0  0  0
  -19.6741  -27.3367   20.6582 H   0  0  0  0  0  0
  -17.4209  -26.6739   21.3933 H   0  0  0  0  0  0
  -18.0435  -25.9826   22.8588 H   0  0  0  0  0  0
  -19.8002  -30.6704   24.3205 H   0  0  0  0  0  0
  -17.4953  -31.5844   24.5790 H   0  0  0  0  0  0
  -15.5504  -30.3033   23.7468 H   0  0  0  0  0  0
  -15.8822  -28.0895   22.6730 H   0  0  0  0  0  0
  -24.6177  -30.6917   25.7980 H   0  0  0  0  0  0
  -24.8861  -32.2884   26.4890 H   0  0  0  0  0  0
  -25.8299  -30.9103   27.0346 H   0  0  0  0  0  0
  -26.3150  -29.6797   24.1149 H   0  0  0  0  0  0
  -27.3874  -29.7135   25.4965 H   0  0  0  0  0  0
  -27.9092  -30.4113   23.9809 H   0  0  0  0  0  0
  -27.2656  -33.3449   26.2279 H   0  0  0  0  0  0
  -28.3921  -32.7015   25.0376 H   0  0  0  0  0  0
  -28.0875  -31.8377   26.5386 H   0  0  0  0  0  0
  -28.2601  -38.0095   24.7387 H   0  0  0  0  0  0
  -28.1022  -36.2585   24.6422 H   0  0  0  0  0  0
  -27.2186  -37.1587   25.8838 H   0  0  0  0  0  0
  -20.9376  -29.8532   21.6705 H   0  0  0  0  0  0
  -26.0239  -38.2798   24.1379 H   0  0  0  0  0  0
  -25.8787  -20.2793   25.4241 H   0  0  0  0  0  0
  -27.7828  -24.1559   25.3746 H   0  0  0  0  0  0
  -25.8166  -19.3310   23.3357 H   0  0  0  0  0  0
  -23.1752  -18.0844   22.4879 H   0  0  0  0  0  0
  -23.3284  -19.9313   22.4587 H   0  0  0  0  0  0
  -22.7412  -19.9128   19.9835 H   0  0  0  0  0  0
  -22.5520  -18.0871   20.0694 H   0  0  0  0  0  0
  -26.2937  -22.2549   19.6105 H   0  0  0  0  0  0
  -26.3736  -22.7786   21.2707 H   0  0  0  0  0  0
  -28.7813  -23.1156   22.2243 H   0  0  0  0  0  0
  -30.1466  -22.4171   21.4025 H   0  0  0  0  0  0
  -26.1058  -24.6385   19.9901 H   0  0  0  0  0  0
  -27.3161  -24.2422   18.7849 H   0  0  0  0  0  0
  -29.6582  -24.1816   19.5360 H   0  0  0  0  0  0
  -30.0892  -24.8824   21.0675 H   0  0  0  0  0  0
  -28.5858  -21.6907   19.5288 H   0  0  0  0  0  0
  -24.9577  -17.8899   20.7745 H   0  0  0  0  0  0
  -23.7462  -20.0454   26.7131 H   0  0  0  0  0  0
  -22.7810  -21.5171   26.5976 H   0  0  0  0  0  0
  -23.6432  -21.1583   28.0705 H   0  0  0  0  0  0
  -25.4586  -26.9266   28.2869 H   0  0  0  0  0  0
  -26.2913  -25.4291   28.7433 H   0  0  0  0  0  0
  -24.5293  -25.4745   28.5067 H   0  0  0  0  0  0
  -29.1968  -22.1026   24.9531 H   0  0  0  0  0  0
  -28.1258  -21.9407   23.6308 H   0  0  0  0  0  0
  -29.6546  -19.8736   24.4124 H   0  0  0  0  0  0
  -28.2366  -19.4814   25.3166 H   0  0  0  0  0  0
  -27.9730  -17.3989   21.8075 H   0  0  0  0  0  0
  -28.3246  -17.9960   20.2518 H   0  0  0  0  0  0
  -24.8415  -25.8256   26.0612 H   0  0  0  0  0  0
  -26.5587  -26.0180   26.2874 H   0  0  0  0  0  0
  -24.9253  -20.9623   20.8516 H   0  0  0  0  0  0
  -25.7232  -20.0267   19.5886 H   0  0  0  0  0  0
  -30.5687  -17.2322   22.2338 H   0  0  0  0  0  0
  -30.7184  -17.4167   20.4939 H   0  0  0  0  0  0
  -28.9624  -15.2643   21.5563 H   0  0  0  0  0  0
  1 25  1  0  0  0
  1 30  2  0  0  0
  1 99  1  0  0  0
  2  3  1  0  0  0
  2 25  1  0  0  0
  2100  1  0  0  0
  2101  1  0  0  0
  3  4  1  0  0  0
  3102  1  0  0  0
  3103  1  0  0  0
  4  5  1  0  0  0
  4104  1  0  0  0
  4105  1  0  0  0
  5  6  1  0  0  0
  5 26  1  0  0  0
  5106  1  0  0  0
  6 25  1  0  0  0
  6107  1  0  0  0
  6108  1  0  0  0
  7  8  2  0  0  0
  7 26  1  0  0  0
  7 29  1  0  0  0
  8  9  1  0  0  0
  8 22  1  0  0  0
  9 10  1  0  0  0
  9 27  2  0  0  0
 10 11  2  0  0  0
 10 15  1  0  0  0
 11 12  1  0  0  0
 11109  1  0  0  0
 12 13  2  0  0  0
 12110  1  0  0  0
 13 14  1  0  0  0
 13 31  1  0  0  0
 14 15  2  0  0  0
 14111  1  0  0  0
 15112  1  0  0  0
 16 17  2  0  0  0
 16 21  1  0  0  0
 16 31  1  0  0  0
 17 18  1  0  0  0
 17113  1  0  0  0
 18 19  2  0  0  0
 18114  1  0  0  0
 19 20  1  0  0  0
 19 24  1  0  0  0
 20 21  2  0  0  0
 20115  1  0  0  0
 21 23  1  0  0  0
 22 28  1  0  0  0
 22 32  2  0  0  0
 26 27  1  0  0  0
 28116  1  0  0  0
 28117  1  0  0  0
 29118  1  0  0  0
 29119  1  0  0  0
 33 34  1  0  0  0
 33 66  1  0  0  0
 33 70  2  0  0  0
 34 36  1  0  0  0
 34 59  1  0  0  0
 34120  1  0  0  0
 35 44  2  0  0  0
 35 45  1  0  0  0
 35 68  1  0  0  0
 36 56  1  0  0  0
 36121  1  0  0  0
 37 39  1  0  0  0
 37 47  1  0  0  0
 37 66  1  0  0  0
 37122  1  0  0  0
 38 43  2  0  0  0
 38 46  1  0  0  0
 38 47  1  0  0  0
 39 64  1  0  0  0
 39 67  2  0  0  0
 40 52  1  0  0  0
 40 53  2  0  0  0
 40 58  1  0  0  0
 41123  1  0  0  0
 41124  1  0  0  0
 41125  1  0  0  0
 41 48  1  0  0  0
 42 43  1  0  0  0
 42 66  1  0  0  0
 42126  1  0  0  0
 42127  1  0  0  0
 43 44  1  0  0  0
 44128  1  0  0  0
 45 46  2  0  0  0
 45129  1  0  0  0
 46130  1  0  0  0
 47131  1  0  0  0
 47132  1  0  0  0
 48 56  1  0  0  0
 48 65  1  0  0  0
 48133  1  0  0  0
 49 50  1  0  0  0
 49 53  1  0  0  0
 49 64  1  0  0  0
 49134  1  0  0  0
 50 51  1  0  0  0
 50135  1  0  0  0
 50136  1  0  0  0
 51 52  1  0  0  0
 51137  1  0  0  0
 51138  1  0  0  0
 52139  1  0  0  0
 52140  1  0  0  0
 53 54  1  0  0  0
 54 55  2  0  0  0
 54141  1  0  0  0
 55 57  1  0  0  0
 55142  1  0  0  0
 56 69  2  0  0  0
 57 58  2  0  0  0
 57143  1  0  0  0
 58144  1  0  0  0
 59 60  1  0  0  0
 59 61  1  0  0  0
 59 62  1  0  0  0
 60145  1  0  0  0
 60146  1  0  0  0
 60147  1  0  0  0
 61148  1  0  0  0
 61149  1  0  0  0
 61150  1  0  0  0
 62151  1  0  0  0
 62152  1  0  0  0
 62153  1  0  0  0
 63 65  1  0  0  0
 63154  1  0  0  0
 63155  1  0  0  0
 63156  1  0  0  0
 64157  1  0  0  0
 65158  1  0  0  0
 68 98  1  0  0  0
 71 74  2  0  0  0
 71 78  1  0  0  0
 71159  1  0  0  0
 72 74  1  0  0  0
 72 79  2  0  0  0
 72160  1  0  0  0
 73 75  2  0  0  0
 73 97  1  0  0  0
 73161  1  0  0  0
 74 90  1  0  0  0
 75 76  1  0  0  0
 75 91  1  0  0  0
 76 77  2  0  0  0
 76 92  1  0  0  0
 77 97  1  0  0  0
 77 86  1  0  0  0
 78 88  1  0  0  0
 78 96  2  0  0  0
 79 93  1  0  0  0
 79 96  1  0  0  0
 80 81  1  0  0  0
 80 87  1  0  0  0
 80162  1  0  0  0
 80163  1  0  0  0
 81 87  1  0  0  0
 81164  1  0  0  0
 81165  1  0  0  0
 82 84  1  0  0  0
 82 86  1  0  0  0
 82166  1  0  0  0
 82167  1  0  0  0
 83 85  1  0  0  0
 83 86  1  0  0  0
 83168  1  0  0  0
 83169  1  0  0  0
 84 98  1  0  0  0
 84170  1  0  0  0
 84171  1  0  0  0
 85 98  1  0  0  0
 85172  1  0  0  0
 85173  1  0  0  0
 86174  1  0  0  0
 87 94  1  0  0  0
 87175  1  0  0  0
 88176  1  0  0  0
 88177  1  0  0  0
 88178  1  0  0  0
 89 93  1  0  0  0
 89179  1  0  0  0
 89180  1  0  0  0
 89181  1  0  0  0
 90 91  1  0  0  0
 90182  1  0  0  0
 90183  1  0  0  0
 91184  1  0  0  0
 91185  1  0  0  0
 92 95  1  0  0  0
 92186  1  0  0  0
 92187  1  0  0  0
 93188  1  0  0  0
 93189  1  0  0  0
 94 97  1  0  0  0
 94190  1  0  0  0
 94191  1  0  0  0
 95 99  1  0  0  0
 95192  1  0  0  0
 95193  1  0  0  0
 99194  1  0  0  0
M  ISO  4   1 100  68 101  98 101  99 100
M  END
> <chiral flag>
0

> <version>
0

> <s_m_source_file>
/data/baiqing/PycharmProjects/Reinvent-master-3.2/result/LINK_invent/BTK/process_docking_weight1_custom_sum_contain_oxygen_bond_distance_aromatic_linkinvent_7_9_3/rearranged_h_0031.sdf

> <i_m_source_file_index>
37

> <r_mmod_Potential_Energy-OPLS-2005>
341.463745117188

> <r_mmod_Stretch_Energy-OPLS-2005>
98.4810485839844

> <r_mmod_Bend_Energy-OPLS-2005>
233.290191650391

> <r_mmod_Torsional_Energy-OPLS-2005>
585.299682617188

> <r_mmod_Improper_Torsional_Energy-OPLS-2005>
36.0379867553711

> <r_mmod_Van_der_Waal_Energy-OPLS-2005>
156.422225952148

> <r_mmod_Electrostatic_Energy-OPLS-2005>
-598.035278320312

> <r_mmod_Solvation_Energy-OPLS-2005>
-226.467239379883

> <b_mmod_Minimization_Converged-OPLS-2005>
0

> <r_mmod_RMS_Derivative-OPLS-2005>
12.3539218902588

$$$$
37
                    3D
 Structure written by MMmdl.
175184  0  0  1  0            999 V2000
  -30.7818  -14.3303   20.7008 C   0  0  0  0  0  0
  -30.4112  -12.2806   19.3852 C   0  0  0  0  0  0
  -29.4795  -12.5316   18.1867 C   0  0  0  0  0  0
  -28.0044  -12.3884   18.6036 C   0  0  0  0  0  0
  -27.6656  -13.2028   19.8799 C   0  0  2  0  0  0
  -28.7017  -12.9335   20.9920 C   0  0  0  0  0  0
  -25.2594  -13.8159   20.5669 C   0  0  0  0  0  0
  -24.1840  -13.0441   20.9161 C   0  0  0  0  0  0
  -24.6386  -11.6904   20.8716 C   0  0  0  0  0  0
  -23.9050  -10.4291   21.0394 C   0  0  0  0  0  0
  -24.3608   -9.4212   21.9176 C   0  0  0  0  0  0
  -23.6289   -8.2245   22.0749 C   0  0  0  0  0  0
  -22.4272   -8.0279   21.3541 C   0  0  0  0  0  0
  -21.9898   -9.0251   20.4644 C   0  0  0  0  0  0
  -22.7222  -10.2131   20.3047 C   0  0  0  0  0  0
  -21.6851   -6.0735   22.5281 C   0  0  0  0  0  0
  -21.4014   -6.5639   23.8215 C   0  0  0  0  0  0
  -21.3657   -5.6791   24.9175 C   0  0  0  0  0  0
  -21.6044   -4.3055   24.7227 C   0  0  0  0  0  0
  -21.8819   -3.8147   23.4348 C   0  0  0  0  0  0
  -21.9196   -4.6963   22.3405 C   0  0  0  0  0  0
  -22.7864  -13.5244   21.1837 C   0  0  0  0  0  0
  -22.1664   -4.2149   21.0982 F   0  0  0  0  0  0
  -21.5625   -3.4539   25.7739 F   0  0  0  0  0  0
  -30.0468  -13.2173   20.4568 N   0  0  0  0  0  0
  -26.3035  -12.9326   20.3376 N   0  0  0  0  0  0
  -25.9311  -11.6484   20.5742 N   0  0  0  0  0  0
  -22.0504  -12.8241   22.0393 N   0  0  0  0  0  0
  -25.4333  -15.1878   20.4094 N   0  0  0  0  0  0
  -31.7976  -14.6255   20.0638 O   0  0  0  0  0  0
  -21.6638   -6.8878   21.4243 O   0  0  0  0  0  0
  -22.3551  -14.5555   20.6689 O   0  0  0  0  0  0
  -24.6097  -31.8705   23.2137 C   0  0  0  0  0  0
  -25.9001  -32.4835   23.8425 C   0  0  1  0  0  0
  -27.2358  -27.4782   20.0855 C   0  0  0  0  0  0
  -25.5872  -33.8629   24.2347 N   0  0  0  0  0  0
  -23.3962  -30.4933   21.5534 C   0  0  2  0  0  0
  -24.8442  -28.9592   20.1197 C   0  0  0  0  0  0
  -22.7385  -29.4666   22.5025 C   0  0  0  0  0  0
  -18.0261  -28.1359   22.8489 C   0  0  0  0  0  0
  -24.1483  -36.7340   23.2640 C   0  0  0  0  0  0
  -25.9212  -30.8462   21.3619 C   0  0  0  0  0  0
  -26.0006  -29.4814   20.7156 C   0  0  0  0  0  0
  -27.2023  -28.7438   20.7038 C   0  0  0  0  0  0
  -26.0679  -26.9515   19.5015 C   0  0  0  0  0  0
  -24.8697  -27.6894   19.5144 C   0  0  0  0  0  0
  -23.6036  -29.8210   20.1689 C   0  0  0  0  0  0
  -25.4099  -36.3124   24.0345 C   0  0  1  0  0  0
  -20.5852  -28.3632   23.1339 C   0  0  2  0  0  0
  -20.6747  -26.9379   22.5418 C   0  0  0  0  0  0
  -19.5728  -26.6373   21.5209 C   0  0  0  0  0  0
  -18.1906  -26.7905   22.1624 C   0  0  0  0  0  0
  -19.1511  -28.8814   23.2910 C   0  0  0  0  0  0
  -18.9439  -30.1429   23.8908 C   0  0  0  0  0  0
  -17.6439  -30.6566   24.0566 C   0  0  0  0  0  0
  -25.9016  -34.9482   23.5144 C   0  0  0  0  0  0
  -16.5331  -29.9069   23.6327 C   0  0  0  0  0  0
  -16.7252  -28.6492   23.0340 C   0  0  0  0  0  0
  -26.4438  -31.6609   25.0739 C   0  0  0  0  0  0
  -25.3729  -31.3701   26.1510 C   0  0  0  0  0  0
  -27.0252  -30.3055   24.6083 C   0  0  0  0  0  0
  -27.6023  -32.4326   25.7486 C   0  0  0  0  0  0
  -27.5588  -37.1815   24.8456 C   0  0  0  0  0  0
  -21.4118  -29.3017   22.3761 N   0  0  0  0  0  0
  -26.4286  -37.3807   23.9415 N   0  0  0  0  0  0
  -24.6604  -31.0836   22.1019 N   0  0  0  0  0  0
  -23.4177  -28.8208   23.3053 O   0  0  0  0  0  0
  -28.3947  -26.7537   20.0232 O   0  0  0  0  0  0
  -26.5592  -34.8928   22.4713 O   0  0  0  0  0  0
  -23.5300  -32.1447   23.7546 O   0  0  0  0  0  0
  -31.7822  -25.0030   16.9405 C   0  0  0  0  0  0
  -30.3602  -24.8633   19.3530 C   0  0  0  0  0  0
  -31.9829  -23.9041   17.8008 C   0  0  0  0  0  0
  -30.8757  -26.0301   17.2751 C   0  0  0  0  0  0
  -31.2587  -23.8296   19.0159 C   0  0  0  0  0  0
  -30.1589  -25.9655   18.4943 C   0  0  0  0  0  0
  -29.6037  -19.1676   20.1316 C   0  0  0  0  0  0
  -31.9403  -19.7638   20.8996 C   0  0  0  0  0  0
  -29.5976  -17.9680   21.0932 C   0  0  0  0  0  0
  -31.9109  -18.5825   21.8782 C   0  0  0  0  0  0
  -30.5242  -20.3084   20.6166 C   0  0  1  0  0  0
  -31.0259  -17.4472   21.3441 C   0  0  1  0  0  0
  -32.9753  -22.8256   17.3944 C   0  0  0  0  0  0
  -30.6798  -27.1876   16.3090 C   0  0  0  0  0  0
  -31.4150  -22.6597   19.9765 C   0  0  0  0  0  0
  -29.1757  -27.0660   18.8750 C   0  0  0  0  0  0
  -30.5276  -21.4607   19.5918 C   0  0  0  0  0  0
  -31.0592  -16.2269   22.2877 C   0  0  0  0  0  0
  -30.3657  -15.0659   21.7381 N   0  0  0  0  0  0
  -31.4548  -12.3784   19.0794 H   0  0  0  0  0  0
  -30.3050  -11.2551   19.7431 H   0  0  0  0  0  0
  -29.7094  -11.8369   17.3776 H   0  0  0  0  0  0
  -29.6541  -13.5328   17.7893 H   0  0  0  0  0  0
  -27.8052  -11.3299   18.7739 H   0  0  0  0  0  0
  -27.3525  -12.6916   17.7835 H   0  0  0  0  0  0
  -27.7282  -14.2591   19.6167 H   0  0  0  0  0  0
  -28.6580  -11.8881   21.3010 H   0  0  0  0  0  0
  -28.4494  -13.5053   21.8849 H   0  0  0  0  0  0
  -25.2756   -9.5696   22.4743 H   0  0  0  0  0  0
  -24.0007   -7.4639   22.7462 H   0  0  0  0  0  0
  -21.0833   -8.8767   19.8951 H   0  0  0  0  0  0
  -22.3683  -10.9666   19.6152 H   0  0  0  0  0  0
  -21.2005   -7.6147   23.9718 H   0  0  0  0  0  0
  -21.1476   -6.0519   25.9078 H   0  0  0  0  0  0
  -22.0600   -2.7609   23.2847 H   0  0  0  0  0  0
  -22.4115  -11.9899   22.4781 H   0  0  0  0  0  0
  -21.1122  -13.1266   22.2605 H   0  0  0  0  0  0
  -24.6724  -15.8484   20.5227 H   0  0  0  0  0  0
  -26.2980  -15.6254   20.1168 H   0  0  0  0  0  0
  -26.7073  -32.5555   23.1203 H   0  0  0  0  0  0
  -24.9982  -33.9780   25.0465 H   0  0  0  0  0  0
  -22.6833  -31.3092   21.4141 H   0  0  0  0  0  0
  -23.3731  -35.9686   23.3294 H   0  0  0  0  0  0
  -24.3590  -36.8963   22.2062 H   0  0  0  0  0  0
  -23.7244  -37.6551   23.6649 H   0  0  0  0  0  0
  -26.0279  -31.6102   20.5901 H   0  0  0  0  0  0
  -26.8123  -30.9046   21.9756 H   0  0  0  0  0  0
  -28.0993  -29.1446   21.1536 H   0  0  0  0  0  0
  -26.0923  -25.9796   19.0286 H   0  0  0  0  0  0
  -23.9799  -27.2790   19.0569 H   0  0  0  0  0  0
  -23.7099  -30.5936   19.4063 H   0  0  0  0  0  0
  -22.7290  -29.2355   19.8772 H   0  0  0  0  0  0
  -25.1271  -36.1993   25.0836 H   0  0  0  0  0  0
  -20.9944  -28.3169   24.1461 H   0  0  0  0  0  0
  -20.5630  -26.2241   23.3594 H   0  0  0  0  0  0
  -21.6618  -26.7408   22.1224 H   0  0  0  0  0  0
  -19.6886  -25.6291   21.1223 H   0  0  0  0  0  0
  -19.6657  -27.3199   20.6752 H   0  0  0  0  0  0
  -17.4181  -26.6658   21.4024 H   0  0  0  0  0  0
  -18.0299  -26.0040   22.9014 H   0  0  0  0  0  0
  -19.7908  -30.7255   24.2270 H   0  0  0  0  0  0
  -17.4986  -31.6245   24.5168 H   0  0  0  0  0  0
  -15.5330  -30.2974   23.7639 H   0  0  0  0  0  0
  -15.8652  -28.0823   22.7036 H   0  0  0  0  0  0
  -24.5885  -30.7055   25.7866 H   0  0  0  0  0  0
  -24.8943  -32.2853   26.5005 H   0  0  0  0  0  0
  -25.8120  -30.8852   27.0237 H   0  0  0  0  0  0
  -26.2781  -29.6837   24.1133 H   0  0  0  0  0  0
  -27.4033  -29.7256   25.4513 H   0  0  0  0  0  0
  -27.8613  -30.4393   23.9213 H   0  0  0  0  0  0
  -27.2647  -33.3607   26.2113 H   0  0  0  0  0  0
  -28.3798  -32.6925   25.0289 H   0  0  0  0  0  0
  -28.0729  -31.8430   26.5363 H   0  0  0  0  0  0
  -28.2591  -38.0128   24.7525 H   0  0  0  0  0  0
  -28.1092  -36.2660   24.6228 H   0  0  0  0  0  0
  -27.2313  -37.1419   25.8860 H   0  0  0  0  0  0
  -20.9269  -29.8766   21.7011 H   0  0  0  0  0  0
  -26.0176  -38.2886   24.1411 H   0  0  0  0  0  0
  -32.3293  -25.0574   16.0082 H   0  0  0  0  0  0
  -29.8147  -24.8010   20.2842 H   0  0  0  0  0  0
  -28.5849  -19.5352   20.0058 H   0  0  0  0  0  0
  -29.9275  -18.8286   19.1463 H   0  0  0  0  0  0
  -32.4125  -19.4536   19.9657 H   0  0  0  0  0  0
  -32.5757  -20.5413   21.3232 H   0  0  0  0  0  0
  -28.9734  -17.1771   20.6747 H   0  0  0  0  0  0
  -29.1352  -18.2560   22.0382 H   0  0  0  0  0  0
  -31.5477  -18.9149   22.8520 H   0  0  0  0  0  0
  -32.9279  -18.2202   22.0360 H   0  0  0  0  0  0
  -30.1186  -20.6916   21.5547 H   0  0  0  0  0  0
  -31.4462  -17.1506   20.3821 H   0  0  0  0  0  0
  -33.4488  -23.0568   16.4395 H   0  0  0  0  0  0
  -32.4825  -21.8606   17.2868 H   0  0  0  0  0  0
  -33.7682  -22.7290   18.1360 H   0  0  0  0  0  0
  -31.3960  -27.1496   15.4874 H   0  0  0  0  0  0
  -30.8091  -28.1446   16.8139 H   0  0  0  0  0  0
  -29.6785  -27.1582   15.8764 H   0  0  0  0  0  0
  -31.1638  -22.9898   20.9854 H   0  0  0  0  0  0
  -32.4641  -22.3696   20.0165 H   0  0  0  0  0  0
  -28.5276  -27.2565   18.0170 H   0  0  0  0  0  0
  -29.7329  -27.9836   19.0681 H   0  0  0  0  0  0
  -29.5028  -21.8143   19.4702 H   0  0  0  0  0  0
  -30.8252  -21.0797   18.6152 H   0  0  0  0  0  0
  -30.6037  -16.4798   23.2460 H   0  0  0  0  0  0
  -32.0913  -15.9453   22.5067 H   0  0  0  0  0  0
  -29.5386  -14.7453   22.2197 H   0  0  0  0  0  0
  1 25  1  0  0  0
  1 30  2  0  0  0
  1 89  1  0  0  0
  2  3  1  0  0  0
  2 25  1  0  0  0
  2 90  1  0  0  0
  2 91  1  0  0  0
  3  4  1  0  0  0
  3 92  1  0  0  0
  3 93  1  0  0  0
  4  5  1  0  0  0
  4 94  1  0  0  0
  4 95  1  0  0  0
  5  6  1  0  0  0
  5 26  1  0  0  0
  5 96  1  0  0  0
  6 25  1  0  0  0
  6 97  1  0  0  0
  6 98  1  0  0  0
  7  8  2  0  0  0
  7 26  1  0  0  0
  7 29  1  0  0  0
  8  9  1  0  0  0
  8 22  1  0  0  0
  9 10  1  0  0  0
  9 27  2  0  0  0
 10 11  2  0  0  0
 10 15  1  0  0  0
 11 12  1  0  0  0
 11 99  1  0  0  0
 12 13  2  0  0  0
 12100  1  0  0  0
 13 14  1  0  0  0
 13 31  1  0  0  0
 14 15  2  0  0  0
 14101  1  0  0  0
 15102  1  0  0  0
 16 17  2  0  0  0
 16 21  1  0  0  0
 16 31  1  0  0  0
 17 18  1  0  0  0
 17103  1  0  0  0
 18 19  2  0  0  0
 18104  1  0  0  0
 19 20  1  0  0  0
 19 24  1  0  0  0
 20 21  2  0  0  0
 20105  1  0  0  0
 21 23  1  0  0  0
 22 28  1  0  0  0
 22 32  2  0  0  0
 26 27  1  0  0  0
 28106  1  0  0  0
 28107  1  0  0  0
 29108  1  0  0  0
 29109  1  0  0  0
 33 34  1  0  0  0
 33 66  1  0  0  0
 33 70  2  0  0  0
 34 36  1  0  0  0
 34 59  1  0  0  0
 34110  1  0  0  0
 35 44  2  0  0  0
 35 45  1  0  0  0
 35 68  1  0  0  0
 36 56  1  0  0  0
 36111  1  0  0  0
 37 39  1  0  0  0
 37 47  1  0  0  0
 37 66  1  0  0  0
 37112  1  0  0  0
 38 43  2  0  0  0
 38 46  1  0  0  0
 38 47  1  0  0  0
 39 64  1  0  0  0
 39 67  2  0  0  0
 40 52  1  0  0  0
 40 53  2  0  0  0
 40 58  1  0  0  0
 41113  1  0  0  0
 41114  1  0  0  0
 41115  1  0  0  0
 41 48  1  0  0  0
 42 43  1  0  0  0
 42 66  1  0  0  0
 42116  1  0  0  0
 42117  1  0  0  0
 43 44  1  0  0  0
 44118  1  0  0  0
 45 46  2  0  0  0
 45119  1  0  0  0
 46120  1  0  0  0
 47121  1  0  0  0
 47122  1  0  0  0
 48 56  1  0  0  0
 48 65  1  0  0  0
 48123  1  0  0  0
 49 50  1  0  0  0
 49 53  1  0  0  0
 49 64  1  0  0  0
 49124  1  0  0  0
 50 51  1  0  0  0
 50125  1  0  0  0
 50126  1  0  0  0
 51 52  1  0  0  0
 51127  1  0  0  0
 51128  1  0  0  0
 52129  1  0  0  0
 52130  1  0  0  0
 53 54  1  0  0  0
 54 55  2  0  0  0
 54131  1  0  0  0
 55 57  1  0  0  0
 55132  1  0  0  0
 56 69  2  0  0  0
 57 58  2  0  0  0
 57133  1  0  0  0
 58134  1  0  0  0
 59 60  1  0  0  0
 59 61  1  0  0  0
 59 62  1  0  0  0
 60135  1  0  0  0
 60136  1  0  0  0
 60137  1  0  0  0
 61138  1  0  0  0
 61139  1  0  0  0
 61140  1  0  0  0
 62141  1  0  0  0
 62142  1  0  0  0
 62143  1  0  0  0
 63 65  1  0  0  0
 63144  1  0  0  0
 63145  1  0  0  0
 63146  1  0  0  0
 64147  1  0  0  0
 65148  1  0  0  0
 68 86  1  0  0  0
 71 73  2  0  0  0
 71 74  1  0  0  0
 71149  1  0  0  0
 72 75  2  0  0  0
 72 76  1  0  0  0
 72150  1  0  0  0
 73 75  1  0  0  0
 73 83  1  0  0  0
 74 76  2  0  0  0
 74 84  1  0  0  0
 75 85  1  0  0  0
 76 86  1  0  0  0
 77 79  1  0  0  0
 77 81  1  0  0  0
 77151  1  0  0  0
 77152  1  0  0  0
 78 80  1  0  0  0
 78 81  1  0  0  0
 78153  1  0  0  0
 78154  1  0  0  0
 79 82  1  0  0  0
 79155  1  0  0  0
 79156  1  0  0  0
 80 82  1  0  0  0
 80157  1  0  0  0
 80158  1  0  0  0
 81 87  1  0  0  0
 81159  1  0  0  0
 82 88  1  0  0  0
 82160  1  0  0  0
 83161  1  0  0  0
 83162  1  0  0  0
 83163  1  0  0  0
 84164  1  0  0  0
 84165  1  0  0  0
 84166  1  0  0  0
 85 87  1  0  0  0
 85167  1  0  0  0
 85168  1  0  0  0
 86169  1  0  0  0
 86170  1  0  0  0
 87171  1  0  0  0
 87172  1  0  0  0
 88 89  1  0  0  0
 88173  1  0  0  0
 88174  1  0  0  0
 89175  1  0  0  0
M  ISO  4   1 100  68 101  86 101  89 100
M  END
> <chiral flag>
0

> <version>
0

> <s_m_source_file>
/data/baiqing/PycharmProjects/Reinvent-master-3.2/result/LINK_invent/BTK/process_docking_weight1_custom_sum_contain_oxygen_bond_distance_aromatic_linkinvent_7_9_3/rearranged_h_0031.sdf

> <i_m_source_file_index>
38

> <r_mmod_Potential_Energy-OPLS-2005>
-48.1041107177734

> <r_mmod_Stretch_Energy-OPLS-2005>
32.1587867736816

> <r_mmod_Bend_Energy-OPLS-2005>
87.6699142456055

> <r_mmod_Torsional_Energy-OPLS-2005>
250.872573852539

> <r_mmod_Improper_Torsional_Energy-OPLS-2005>
1.90015947818756

> <r_mmod_Van_der_Waal_Energy-OPLS-2005>
160.44221496582

> <r_mmod_Electrostatic_Energy-OPLS-2005>
-391.810028076172

> <r_mmod_Solvation_Energy-OPLS-2005>
-195.69059753418

> <b_mmod_Minimization_Converged-OPLS-2005>
0

> <r_mmod_RMS_Derivative-OPLS-2005>
1.27225577831268

$$$$
38
                    3D
 Structure written by MMmdl.
154163  0  0  1  0            999 V2000
  -30.6004  -14.8144   20.4501 C   0  0  0  0  0  0
  -30.4309  -12.4936   19.5047 C   0  0  0  0  0  0
  -29.5116  -12.5081   18.2614 C   0  0  0  0  0  0
  -28.0418  -12.3194   18.6750 C   0  0  0  0  0  0
  -27.6400  -13.2392   19.8567 C   0  0  2  0  0  0
  -28.6804  -13.2132   20.9972 C   0  0  0  0  0  0
  -25.2505  -13.8205   20.5717 C   0  0  0  0  0  0
  -24.1786  -13.0444   20.9178 C   0  0  0  0  0  0
  -24.6386  -11.6925   20.8734 C   0  0  0  0  0  0
  -23.9063  -10.4300   21.0419 C   0  0  0  0  0  0
  -24.3607   -9.4220   21.9200 C   0  0  0  0  0  0
  -23.6289   -8.2250   22.0760 C   0  0  0  0  0  0
  -22.4284   -8.0280   21.3539 C   0  0  0  0  0  0
  -21.9915   -9.0253   20.4648 C   0  0  0  0  0  0
  -22.7231  -10.2144   20.3074 C   0  0  0  0  0  0
  -21.6858   -6.0747   22.5276 C   0  0  0  0  0  0
  -21.4020   -6.5652   23.8200 C   0  0  0  0  0  0
  -21.3650   -5.6803   24.9166 C   0  0  0  0  0  0
  -21.6025   -4.3068   24.7212 C   0  0  0  0  0  0
  -21.8818   -3.8161   23.4335 C   0  0  0  0  0  0
  -21.9190   -4.6972   22.3402 C   0  0  0  0  0  0
  -22.7814  -13.5231   21.1827 C   0  0  0  0  0  0
  -22.1666   -4.2167   21.0976 F   0  0  0  0  0  0
  -21.5610   -3.4548   25.7719 F   0  0  0  0  0  0
  -29.9834  -13.5732   20.4275 N   0  0  0  0  0  0
  -26.2935  -12.9431   20.3343 N   0  0  0  0  0  0
  -25.9326  -11.6563   20.5791 N   0  0  0  0  0  0
  -22.0462  -12.8234   22.0393 N   0  0  0  0  0  0
  -25.4223  -15.1936   20.4176 N   0  0  0  0  0  0
  -31.7585  -14.8842   20.0268 O   0  0  0  0  0  0
  -21.6644   -6.8890   21.4238 O   0  0  0  0  0  0
  -22.3500  -14.5530   20.6666 O   0  0  0  0  0  0
  -24.6376  -31.8484   23.1918 C   0  0  0  0  0  0
  -25.9175  -32.4710   23.8277 C   0  0  1  0  0  0
  -27.2043  -27.1745   20.1173 C   0  0  0  0  0  0
  -25.5973  -33.8513   24.2183 N   0  0  0  0  0  0
  -23.4382  -30.4721   21.5354 C   0  0  2  0  0  0
  -24.8834  -28.9132   20.1005 C   0  0  0  0  0  0
  -22.7526  -29.4565   22.4828 C   0  0  0  0  0  0
  -18.0309  -28.1371   22.8470 C   0  0  0  0  0  0
  -24.1491  -36.7260   23.2633 C   0  0  0  0  0  0
  -25.9937  -30.7231   21.3923 C   0  0  0  0  0  0
  -26.0582  -29.3414   20.7299 C   0  0  0  0  0  0
  -27.2185  -28.4842   20.7349 C   0  0  0  0  0  0
  -26.0158  -26.8623   19.4157 C   0  0  0  0  0  0
  -24.8730  -27.6852   19.4272 C   0  0  0  0  0  0
  -23.6596  -29.8124   20.1498 C   0  0  0  0  0  0
  -25.4117  -36.3034   24.0308 C   0  0  1  0  0  0
  -20.5906  -28.3681   23.1232 C   0  0  2  0  0  0
  -20.6784  -26.9389   22.5373 C   0  0  0  0  0  0
  -19.5771  -26.6362   21.5172 C   0  0  0  0  0  0
  -18.1951  -26.7913   22.1589 C   0  0  0  0  0  0
  -19.1560  -28.8843   23.2858 C   0  0  0  0  0  0
  -18.9494  -30.1449   23.8874 C   0  0  0  0  0  0
  -17.6503  -30.6586   24.0558 C   0  0  0  0  0  0
  -25.9075  -34.9415   23.5048 C   0  0  0  0  0  0
  -16.5395  -29.9069   23.6349 C   0  0  0  0  0  0
  -16.7297  -28.6489   23.0357 C   0  0  0  0  0  0
  -26.4504  -31.6587   25.0717 C   0  0  0  0  0  0
  -25.3683  -31.3771   26.1417 C   0  0  0  0  0  0
  -27.0348  -30.2989   24.6271 C   0  0  0  0  0  0
  -27.6045  -32.4350   25.7471 C   0  0  0  0  0  0
  -27.5591  -37.1766   24.8456 C   0  0  0  0  0  0
  -21.4217  -29.3056   22.3631 N   0  0  0  0  0  0
  -26.4277  -37.3761   23.9444 N   0  0  0  0  0  0
  -24.7088  -31.0351   22.0933 N   0  0  0  0  0  0
  -23.4186  -28.8063   23.2934 O   0  0  0  0  0  0
  -28.2531  -26.1961   20.2113 O   0  0  0  0  0  0
  -26.5640  -34.8907   22.4621 O   0  0  0  0  0  0
  -23.5514  -32.1353   23.7156 O   0  0  0  0  0  0
  -29.3880  -16.6068   22.0596 C   0  0  0  0  0  0
  -29.9257  -16.1764   20.8669 C   0  0  0  0  0  0
  -29.3518  -18.4473   20.7919 C   0  0  0  0  0  0
  -30.1883  -21.0617   20.3126 C   0  0  0  0  0  0
  -27.8632  -20.6825   20.9310 C   0  0  0  0  0  0
  -29.7988  -22.5339   19.7714 C   0  0  0  0  0  0
  -27.4879  -22.1456   20.4222 C   0  0  0  0  0  0
  -29.0723  -19.9429   20.2480 C   0  0  2  0  0  0
  -28.5804  -23.2906   20.4504 C   0  0  2  0  0  0
  -28.0092  -24.7274   19.8195 C   0  0  0  0  0  0
  -29.0758  -17.9830   22.0173 N   0  0  0  0  0  0
  -29.9325  -17.3832   20.0739 O   0  0  0  0  0  0
  -31.4707  -12.6107   19.1953 H   0  0  0  0  0  0
  -30.3843  -11.5267   20.0065 H   0  0  0  0  0  0
  -29.8050  -11.7215   17.5653 H   0  0  0  0  0  0
  -29.6249  -13.4492   17.7240 H   0  0  0  0  0  0
  -27.9163  -11.2746   18.9636 H   0  0  0  0  0  0
  -27.3780  -12.4813   17.8244 H   0  0  0  0  0  0
  -27.6270  -14.2530   19.4570 H   0  0  0  0  0  0
  -28.7254  -12.2280   21.4608 H   0  0  0  0  0  0
  -28.3974  -13.9076   21.7883 H   0  0  0  0  0  0
  -25.2751   -9.5691   22.4773 H   0  0  0  0  0  0
  -23.9995   -7.4653   22.7498 H   0  0  0  0  0  0
  -21.0839   -8.8762   19.8965 H   0  0  0  0  0  0
  -22.3680  -10.9675   19.6186 H   0  0  0  0  0  0
  -21.2039   -7.6156   23.9704 H   0  0  0  0  0  0
  -21.1462   -6.0541   25.9061 H   0  0  0  0  0  0
  -22.0599   -2.7622   23.2825 H   0  0  0  0  0  0
  -22.4100  -11.9917   22.4799 H   0  0  0  0  0  0
  -21.1079  -13.1254   22.2601 H   0  0  0  0  0  0
  -24.6579  -15.8493   20.5393 H   0  0  0  0  0  0
  -26.2838  -15.6369   20.1230 H   0  0  0  0  0  0
  -26.7219  -32.5309   23.0971 H   0  0  0  0  0  0
  -25.0192  -33.9657   25.0376 H   0  0  0  0  0  0
  -22.7419  -31.3010   21.3879 H   0  0  0  0  0  0
  -23.3785  -35.9566   23.3238 H   0  0  0  0  0  0
  -24.3594  -36.8929   22.2068 H   0  0  0  0  0  0
  -23.7194  -37.6416   23.6706 H   0  0  0  0  0  0
  -26.1564  -31.4770   20.6214 H   0  0  0  0  0  0
  -26.8644  -30.7644   22.0338 H   0  0  0  0  0  0
  -28.1088  -28.7959   21.2626 H   0  0  0  0  0  0
  -25.9221  -25.9516   18.8427 H   0  0  0  0  0  0
  -23.9851  -27.3659   18.8972 H   0  0  0  0  0  0
  -23.7903  -30.5956   19.4010 H   0  0  0  0  0  0
  -22.7731  -29.2583   19.8367 H   0  0  0  0  0  0
  -25.1274  -36.1857   25.0792 H   0  0  0  0  0  0
  -21.0041  -28.3256   24.1333 H   0  0  0  0  0  0
  -20.5644  -26.2288   23.3564 H   0  0  0  0  0  0
  -21.6656  -26.7357   22.1205 H   0  0  0  0  0  0
  -19.6938  -25.6260   21.1232 H   0  0  0  0  0  0
  -19.6745  -27.3152   20.6684 H   0  0  0  0  0  0
  -17.4209  -26.6665   21.4004 H   0  0  0  0  0  0
  -18.0383  -26.0035   22.8964 H   0  0  0  0  0  0
  -19.7983  -30.7276   24.2216 H   0  0  0  0  0  0
  -17.5064  -31.6274   24.5148 H   0  0  0  0  0  0
  -15.5403  -30.2979   23.7693 H   0  0  0  0  0  0
  -15.8677  -28.0817   22.7081 H   0  0  0  0  0  0
  -24.5938  -30.7015   25.7757 H   0  0  0  0  0  0
  -24.8794  -32.2947   26.4722 H   0  0  0  0  0  0
  -25.7979  -30.9067   27.0272 H   0  0  0  0  0  0
  -26.2944  -29.6746   24.1279 H   0  0  0  0  0  0
  -27.3976  -29.7243   25.4802 H   0  0  0  0  0  0
  -27.8831  -30.4221   23.9534 H   0  0  0  0  0  0
  -27.2720  -33.3776   26.1824 H   0  0  0  0  0  0
  -28.3971  -32.6703   25.0353 H   0  0  0  0  0  0
  -28.0575  -31.8612   26.5562 H   0  0  0  0  0  0
  -28.2509  -38.0165   24.7633 H   0  0  0  0  0  0
  -28.1184  -36.2696   24.6108 H   0  0  0  0  0  0
  -27.2345  -37.1187   25.8862 H   0  0  0  0  0  0
  -20.9381  -29.8843   21.6895 H   0  0  0  0  0  0
  -26.0133  -38.2798   24.1559 H   0  0  0  0  0  0
  -29.2658  -16.0456   22.9756 H   0  0  0  0  0  0
  -30.5222  -21.1533   21.3465 H   0  0  0  0  0  0
  -31.0588  -20.7061   19.7601 H   0  0  0  0  0  0
  -26.9804  -20.0502   20.8231 H   0  0  0  0  0  0
  -28.0523  -20.7286   22.0050 H   0  0  0  0  0  0
  -29.5908  -22.4460   18.7030 H   0  0  0  0  0  0
  -30.6827  -23.1696   19.8346 H   0  0  0  0  0  0
  -26.6268  -22.4835   20.9993 H   0  0  0  0  0  0
  -27.1186  -22.0526   19.3992 H   0  0  0  0  0  0
  -28.8150  -19.8157   19.1957 H   0  0  0  0  0  0
  -28.8325  -23.4692   21.4961 H   0  0  0  0  0  0
  -26.9418  -24.5783   19.9623 H   0  0  0  0  0  0
  -28.1551  -24.6781   18.7392 H   0  0  0  0  0  0
  1 25  1  0  0  0
  1 30  2  0  0  0
  1 72  1  0  0  0
  2  3  1  0  0  0
  2 25  1  0  0  0
  2 83  1  0  0  0
  2 84  1  0  0  0
  3  4  1  0  0  0
  3 85  1  0  0  0
  3 86  1  0  0  0
  4  5  1  0  0  0
  4 87  1  0  0  0
  4 88  1  0  0  0
  5  6  1  0  0  0
  5 26  1  0  0  0
  5 89  1  0  0  0
  6 25  1  0  0  0
  6 90  1  0  0  0
  6 91  1  0  0  0
  7  8  2  0  0  0
  7 26  1  0  0  0
  7 29  1  0  0  0
  8  9  1  0  0  0
  8 22  1  0  0  0
  9 10  1  0  0  0
  9 27  2  0  0  0
 10 11  2  0  0  0
 10 15  1  0  0  0
 11 12  1  0  0  0
 11 92  1  0  0  0
 12 13  2  0  0  0
 12 93  1  0  0  0
 13 14  1  0  0  0
 13 31  1  0  0  0
 14 15  2  0  0  0
 14 94  1  0  0  0
 15 95  1  0  0  0
 16 17  2  0  0  0
 16 21  1  0  0  0
 16 31  1  0  0  0
 17 18  1  0  0  0
 17 96  1  0  0  0
 18 19  2  0  0  0
 18 97  1  0  0  0
 19 20  1  0  0  0
 19 24  1  0  0  0
 20 21  2  0  0  0
 20 98  1  0  0  0
 21 23  1  0  0  0
 22 28  1  0  0  0
 22 32  2  0  0  0
 26 27  1  0  0  0
 28 99  1  0  0  0
 28100  1  0  0  0
 29101  1  0  0  0
 29102  1  0  0  0
 33 34  1  0  0  0
 33 66  1  0  0  0
 33 70  2  0  0  0
 34 36  1  0  0  0
 34 59  1  0  0  0
 34103  1  0  0  0
 35 44  2  0  0  0
 35 45  1  0  0  0
 35 68  1  0  0  0
 36 56  1  0  0  0
 36104  1  0  0  0
 37 39  1  0  0  0
 37 47  1  0  0  0
 37 66  1  0  0  0
 37105  1  0  0  0
 38 43  2  0  0  0
 38 46  1  0  0  0
 38 47  1  0  0  0
 39 64  1  0  0  0
 39 67  2  0  0  0
 40 52  1  0  0  0
 40 53  2  0  0  0
 40 58  1  0  0  0
 41106  1  0  0  0
 41107  1  0  0  0
 41108  1  0  0  0
 41 48  1  0  0  0
 42 43  1  0  0  0
 42 66  1  0  0  0
 42109  1  0  0  0
 42110  1  0  0  0
 43 44  1  0  0  0
 44111  1  0  0  0
 45 46  2  0  0  0
 45112  1  0  0  0
 46113  1  0  0  0
 47114  1  0  0  0
 47115  1  0  0  0
 48 56  1  0  0  0
 48 65  1  0  0  0
 48116  1  0  0  0
 49 50  1  0  0  0
 49 53  1  0  0  0
 49 64  1  0  0  0
 49117  1  0  0  0
 50 51  1  0  0  0
 50118  1  0  0  0
 50119  1  0  0  0
 51 52  1  0  0  0
 51120  1  0  0  0
 51121  1  0  0  0
 52122  1  0  0  0
 52123  1  0  0  0
 53 54  1  0  0  0
 54 55  2  0  0  0
 54124  1  0  0  0
 55 57  1  0  0  0
 55125  1  0  0  0
 56 69  2  0  0  0
 57 58  2  0  0  0
 57126  1  0  0  0
 58127  1  0  0  0
 59 60  1  0  0  0
 59 61  1  0  0  0
 59 62  1  0  0  0
 60128  1  0  0  0
 60129  1  0  0  0
 60130  1  0  0  0
 61131  1  0  0  0
 61132  1  0  0  0
 61133  1  0  0  0
 62134  1  0  0  0
 62135  1  0  0  0
 62136  1  0  0  0
 63 65  1  0  0  0
 63137  1  0  0  0
 63138  1  0  0  0
 63139  1  0  0  0
 64140  1  0  0  0
 65141  1  0  0  0
 68 80  1  0  0  0
 71 72  2  0  0  0
 71 81  1  0  0  0
 71142  1  0  0  0
 72 82  1  0  0  0
 73 81  2  0  0  0
 73 82  1  0  0  0
 73 78  1  0  0  0
 74 76  1  0  0  0
 74 78  1  0  0  0
 74143  1  0  0  0
 74144  1  0  0  0
 75 77  1  0  0  0
 75 78  1  0  0  0
 75145  1  0  0  0
 75146  1  0  0  0
 76 79  1  0  0  0
 76147  1  0  0  0
 76148  1  0  0  0
 77 79  1  0  0  0
 77149  1  0  0  0
 77150  1  0  0  0
 78151  1  0  0  0
 79 80  1  0  0  0
 79152  1  0  0  0
 80153  1  0  0  0
 80154  1  0  0  0
M  ISO  4   1 100  68 101  72 100  80 101
M  END
> <chiral flag>
0

> <version>
0

> <s_m_source_file>
/data/baiqing/PycharmProjects/Reinvent-master-3.2/result/LINK_invent/BTK/process_docking_weight1_custom_sum_contain_oxygen_bond_distance_aromatic_linkinvent_7_9_3/rearranged_h_0031.sdf

> <i_m_source_file_index>
39

> <r_mmod_Potential_Energy-OPLS-2005>
430.95361328125

> <r_mmod_Stretch_Energy-OPLS-2005>
177.847259521484

> <r_mmod_Bend_Energy-OPLS-2005>
231.986480712891

> <r_mmod_Torsional_Energy-OPLS-2005>
226.205963134766

> <r_mmod_Improper_Torsional_Energy-OPLS-2005>
3.15419459342957

> <r_mmod_Van_der_Waal_Energy-OPLS-2005>
121.764846801758

> <r_mmod_Electrostatic_Energy-OPLS-2005>
-260.731506347656

> <r_mmod_Solvation_Energy-OPLS-2005>
-204.709487915039

> <b_mmod_Minimization_Converged-OPLS-2005>
0

> <r_mmod_RMS_Derivative-OPLS-2005>
3.48869681358337

$$$$
39
                    3D
 Structure written by MMmdl.
153161  0  0  1  0            999 V2000
  -30.4112  -15.3442   20.3690 C   0  0  0  0  0  0
  -30.4391  -12.8648   19.5464 C   0  0  0  0  0  0
  -29.5413  -12.5886   18.3099 C   0  0  0  0  0  0
  -28.0964  -12.2934   18.7424 C   0  0  0  0  0  0
  -27.6128  -13.2813   19.8306 C   0  0  2  0  0  0
  -28.6392  -13.4923   20.9685 C   0  0  0  0  0  0
  -25.2404  -13.8254   20.5774 C   0  0  0  0  0  0
  -24.1752  -13.0438   20.9266 C   0  0  0  0  0  0
  -24.6407  -11.6933   20.8755 C   0  0  0  0  0  0
  -23.9101  -10.4282   21.0390 C   0  0  0  0  0  0
  -24.3635   -9.4204   21.9178 C   0  0  0  0  0  0
  -23.6311   -8.2242   22.0753 C   0  0  0  0  0  0
  -22.4288   -8.0287   21.3541 C   0  0  0  0  0  0
  -21.9927   -9.0261   20.4634 C   0  0  0  0  0  0
  -22.7265  -10.2138   20.3046 C   0  0  0  0  0  0
  -21.6859   -6.0736   22.5262 C   0  0  0  0  0  0
  -21.4011   -6.5633   23.8197 C   0  0  0  0  0  0
  -21.3670   -5.6791   24.9159 C   0  0  0  0  0  0
  -21.6051   -4.3052   24.7208 C   0  0  0  0  0  0
  -21.8831   -3.8150   23.4319 C   0  0  0  0  0  0
  -21.9192   -4.6963   22.3376 C   0  0  0  0  0  0
  -22.7762  -13.5192   21.1898 C   0  0  0  0  0  0
  -22.1661   -4.2145   21.0957 F   0  0  0  0  0  0
  -21.5640   -3.4534   25.7724 F   0  0  0  0  0  0
  -29.8679  -14.0191   20.3506 N   0  0  0  0  0  0
  -26.2831  -12.9537   20.3264 N   0  0  0  0  0  0
  -25.9350  -11.6636   20.5751 N   0  0  0  0  0  0
  -22.0417  -12.8168   22.0440 N   0  0  0  0  0  0
  -25.4094  -15.1990   20.4205 N   0  0  0  0  0  0
  -31.6168  -15.3448   20.0762 O   0  0  0  0  0  0
  -21.6640   -6.8888   21.4233 O   0  0  0  0  0  0
  -22.3441  -14.5495   20.6739 O   0  0  0  0  0  0
  -24.6661  -31.8201   23.1680 C   0  0  0  0  0  0
  -25.9334  -32.4582   23.8146 C   0  0  1  0  0  0
  -27.2172  -26.8890   20.2030 C   0  0  0  0  0  0
  -25.6008  -33.8397   24.2079 N   0  0  0  0  0  0
  -23.4802  -30.4306   21.5183 C   0  0  2  0  0  0
  -24.9364  -28.8071   20.1123 C   0  0  0  0  0  0
  -22.7685  -29.4420   22.4787 C   0  0  0  0  0  0
  -18.0330  -28.1401   22.8455 C   0  0  0  0  0  0
  -24.1494  -36.7194   23.2641 C   0  0  0  0  0  0
  -26.0485  -30.6186   21.3972 C   0  0  0  0  0  0
  -26.1185  -29.1999   20.7525 C   0  0  0  0  0  0
  -27.2492  -28.2604   20.7762 C   0  0  0  0  0  0
  -26.0120  -26.6656   19.4968 C   0  0  0  0  0  0
  -24.9095  -27.5612   19.4639 C   0  0  0  0  0  0
  -23.7224  -29.7393   20.1462 C   0  0  0  0  0  0
  -25.4132  -36.2962   24.0304 C   0  0  1  0  0  0
  -20.5951  -28.3750   23.1181 C   0  0  2  0  0  0
  -20.6792  -26.9432   22.5398 C   0  0  0  0  0  0
  -19.5776  -26.6380   21.5195 C   0  0  0  0  0  0
  -18.1959  -26.7932   22.1607 C   0  0  0  0  0  0
  -19.1579  -28.8890   23.2799 C   0  0  0  0  0  0
  -18.9492  -30.1482   23.8838 C   0  0  0  0  0  0
  -17.6482  -30.6590   24.0543 C   0  0  0  0  0  0
  -25.9099  -34.9352   23.5007 C   0  0  0  0  0  0
  -16.5381  -29.9075   23.6339 C   0  0  0  0  0  0
  -16.7307  -28.6495   23.0355 C   0  0  0  0  0  0
  -26.4593  -31.6512   25.0666 C   0  0  0  0  0  0
  -25.3719  -31.3768   26.1328 C   0  0  0  0  0  0
  -27.0454  -30.2878   24.6362 C   0  0  0  0  0  0
  -27.6121  -32.4284   25.7455 C   0  0  0  0  0  0
  -27.5565  -37.1760   24.8467 C   0  0  0  0  0  0
  -21.4347  -29.3030   22.3527 N   0  0  0  0  0  0
  -26.4269  -37.3706   23.9415 N   0  0  0  0  0  0
  -24.7534  -30.9840   22.0822 N   0  0  0  0  0  0
  -23.4231  -28.8014   23.3043 O   0  0  0  0  0  0
  -28.1981  -25.7570   20.3352 O   0  0  0  0  0  0
  -26.5697  -34.8887   22.4596 O   0  0  0  0  0  0
  -23.5739  -32.1181   23.6784 O   0  0  0  0  0  0
  -29.5439  -20.0823   22.0179 C   0  0  0  0  0  0
  -28.8538  -21.1988   20.0093 C   0  0  0  0  0  0
  -29.3046  -19.8544   20.6486 C   0  0  0  0  0  0
  -29.4210  -21.3535   22.6616 C   0  0  0  0  0  0
  -28.6759  -22.6186   20.6211 C   0  0  0  0  0  0
  -29.0264  -22.5733   22.0033 C   0  0  0  0  0  0
  -29.7481  -21.3644   24.1505 C   0  0  0  0  0  0
  -28.9521  -23.8796   22.7951 C   0  0  0  0  0  0
  -29.7162  -18.2472   20.0219 C   0  0  0  0  0  0
  -28.0006  -24.1359   19.9886 C   0  0  0  0  0  0
  -29.6474  -16.6279   20.5231 N   0  0  0  0  0  0
  -31.4525  -13.0788   19.2037 H   0  0  0  0  0  0
  -30.5295  -11.9717   20.1691 H   0  0  0  0  0  0
  -29.9389  -11.7497   17.7353 H   0  0  0  0  0  0
  -29.5512  -13.4512   17.6426 H   0  0  0  0  0  0
  -28.0767  -11.2796   19.1439 H   0  0  0  0  0  0
  -27.4224  -12.2958   17.8851 H   0  0  0  0  0  0
  -27.5191  -14.2359   19.3108 H   0  0  0  0  0  0
  -28.8252  -12.5729   21.5248 H   0  0  0  0  0  0
  -28.2580  -14.2179   21.6879 H   0  0  0  0  0  0
  -25.2756   -9.5683   22.4768 H   0  0  0  0  0  0
  -24.0022   -7.4644   22.7474 H   0  0  0  0  0  0
  -21.0860   -8.8788   19.8933 H   0  0  0  0  0  0
  -22.3726  -10.9695   19.6170 H   0  0  0  0  0  0
  -21.2005   -7.6140   23.9694 H   0  0  0  0  0  0
  -21.1485   -6.0504   25.9067 H   0  0  0  0  0  0
  -22.0607   -2.7613   23.2794 H   0  0  0  0  0  0
  -22.4040  -11.9841   22.4829 H   0  0  0  0  0  0
  -21.1040  -13.1203   22.2647 H   0  0  0  0  0  0
  -24.6499  -15.8583   20.5507 H   0  0  0  0  0  0
  -26.2546  -15.6332   20.0716 H   0  0  0  0  0  0
  -26.7396  -32.5142   23.0850 H   0  0  0  0  0  0
  -25.0155  -33.9453   25.0239 H   0  0  0  0  0  0
  -22.7941  -31.2624   21.3445 H   0  0  0  0  0  0
  -23.3768  -35.9503   23.3263 H   0  0  0  0  0  0
  -24.3580  -36.8875   22.2058 H   0  0  0  0  0  0
  -23.7227  -37.6374   23.6705 H   0  0  0  0  0  0
  -26.2144  -31.3486   20.6036 H   0  0  0  0  0  0
  -26.9161  -30.6976   22.0405 H   0  0  0  0  0  0
  -28.1351  -28.5542   21.3220 H   0  0  0  0  0  0
  -25.8817  -25.7166   18.9984 H   0  0  0  0  0  0
  -24.0118  -27.2561   18.9432 H   0  0  0  0  0  0
  -23.8788  -30.5019   19.3833 H   0  0  0  0  0  0
  -22.8315  -29.1933   19.8330 H   0  0  0  0  0  0
  -25.1326  -36.1743   25.0792 H   0  0  0  0  0  0
  -21.0023  -28.3351   24.1310 H   0  0  0  0  0  0
  -20.5625  -26.2385   23.3647 H   0  0  0  0  0  0
  -21.6664  -26.7387   22.1230 H   0  0  0  0  0  0
  -19.6927  -25.6274   21.1268 H   0  0  0  0  0  0
  -19.6699  -27.3155   20.6689 H   0  0  0  0  0  0
  -17.4224  -26.6665   21.4020 H   0  0  0  0  0  0
  -18.0350  -26.0091   22.9019 H   0  0  0  0  0  0
  -19.7965  -30.7308   24.2190 H   0  0  0  0  0  0
  -17.5040  -31.6268   24.5156 H   0  0  0  0  0  0
  -15.5371  -30.2955   23.7696 H   0  0  0  0  0  0
  -15.8716  -28.0803   22.7092 H   0  0  0  0  0  0
  -24.5971  -30.7021   25.7678 H   0  0  0  0  0  0
  -24.8810  -32.2951   26.4555 H   0  0  0  0  0  0
  -25.7972  -30.9118   27.0231 H   0  0  0  0  0  0
  -26.3105  -29.6596   24.1321 H   0  0  0  0  0  0
  -27.3956  -29.7207   25.4997 H   0  0  0  0  0  0
  -27.9068  -30.4078   23.9785 H   0  0  0  0  0  0
  -27.2758  -33.3665   26.1876 H   0  0  0  0  0  0
  -28.4015  -32.6694   25.0320 H   0  0  0  0  0  0
  -28.0680  -31.8477   26.5483 H   0  0  0  0  0  0
  -28.2581  -38.0064   24.7515 H   0  0  0  0  0  0
  -28.1068  -36.2595   24.6283 H   0  0  0  0  0  0
  -27.2297  -37.1399   25.8878 H   0  0  0  0  0  0
  -20.9626  -29.8742   21.6667 H   0  0  0  0  0  0
  -26.0113  -38.2767   24.1419 H   0  0  0  0  0  0
  -29.8809  -19.2372   22.6031 H   0  0  0  0  0  0
  -28.6230  -21.1391   18.9555 H   0  0  0  0  0  0
  -29.8334  -20.3546   24.5553 H   0  0  0  0  0  0
  -28.9683  -21.8643   24.7267 H   0  0  0  0  0  0
  -30.6964  -21.8733   24.3316 H   0  0  0  0  0  0
  -29.4506  -23.8541   23.7609 H   0  0  0  0  0  0
  -27.9147  -24.1640   22.9724 H   0  0  0  0  0  0
  -29.4410  -24.6868   22.2501 H   0  0  0  0  0  0
  -30.7647  -18.3650   19.7448 H   0  0  0  0  0  0
  -29.1965  -18.2266   19.0648 H   0  0  0  0  0  0
  -26.9306  -23.9800   20.1278 H   0  0  0  0  0  0
  -28.1389  -24.0728   18.9085 H   0  0  0  0  0  0
  -28.7247  -16.4194   20.8760 H   0  0  0  0  0  0
  1 25  1  0  0  0
  1 30  2  0  0  0
  1 81  1  0  0  0
  2  3  1  0  0  0
  2 25  1  0  0  0
  2 82  1  0  0  0
  2 83  1  0  0  0
  3  4  1  0  0  0
  3 84  1  0  0  0
  3 85  1  0  0  0
  4  5  1  0  0  0
  4 86  1  0  0  0
  4 87  1  0  0  0
  5  6  1  0  0  0
  5 26  1  0  0  0
  5 88  1  0  0  0
  6 25  1  0  0  0
  6 89  1  0  0  0
  6 90  1  0  0  0
  7  8  2  0  0  0
  7 26  1  0  0  0
  7 29  1  0  0  0
  8  9  1  0  0  0
  8 22  1  0  0  0
  9 10  1  0  0  0
  9 27  2  0  0  0
 10 11  2  0  0  0
 10 15  1  0  0  0
 11 12  1  0  0  0
 11 91  1  0  0  0
 12 13  2  0  0  0
 12 92  1  0  0  0
 13 14  1  0  0  0
 13 31  1  0  0  0
 14 15  2  0  0  0
 14 93  1  0  0  0
 15 94  1  0  0  0
 16 17  2  0  0  0
 16 21  1  0  0  0
 16 31  1  0  0  0
 17 18  1  0  0  0
 17 95  1  0  0  0
 18 19  2  0  0  0
 18 96  1  0  0  0
 19 20  1  0  0  0
 19 24  1  0  0  0
 20 21  2  0  0  0
 20 97  1  0  0  0
 21 23  1  0  0  0
 22 28  1  0  0  0
 22 32  2  0  0  0
 26 27  1  0  0  0
 28 98  1  0  0  0
 28 99  1  0  0  0
 29100  1  0  0  0
 29101  1  0  0  0
 33 34  1  0  0  0
 33 66  1  0  0  0
 33 70  2  0  0  0
 34 36  1  0  0  0
 34 59  1  0  0  0
 34102  1  0  0  0
 35 44  2  0  0  0
 35 45  1  0  0  0
 35 68  1  0  0  0
 36 56  1  0  0  0
 36103  1  0  0  0
 37 39  1  0  0  0
 37 47  1  0  0  0
 37 66  1  0  0  0
 37104  1  0  0  0
 38 43  2  0  0  0
 38 46  1  0  0  0
 38 47  1  0  0  0
 39 64  1  0  0  0
 39 67  2  0  0  0
 40 52  1  0  0  0
 40 53  2  0  0  0
 40 58  1  0  0  0
 41105  1  0  0  0
 41106  1  0  0  0
 41107  1  0  0  0
 41 48  1  0  0  0
 42 43  1  0  0  0
 42 66  1  0  0  0
 42108  1  0  0  0
 42109  1  0  0  0
 43 44  1  0  0  0
 44110  1  0  0  0
 45 46  2  0  0  0
 45111  1  0  0  0
 46112  1  0  0  0
 47113  1  0  0  0
 47114  1  0  0  0
 48 56  1  0  0  0
 48 65  1  0  0  0
 48115  1  0  0  0
 49 50  1  0  0  0
 49 53  1  0  0  0
 49 64  1  0  0  0
 49116  1  0  0  0
 50 51  1  0  0  0
 50117  1  0  0  0
 50118  1  0  0  0
 51 52  1  0  0  0
 51119  1  0  0  0
 51120  1  0  0  0
 52121  1  0  0  0
 52122  1  0  0  0
 53 54  1  0  0  0
 54 55  2  0  0  0
 54123  1  0  0  0
 55 57  1  0  0  0
 55124  1  0  0  0
 56 69  2  0  0  0
 57 58  2  0  0  0
 57125  1  0  0  0
 58126  1  0  0  0
 59 60  1  0  0  0
 59 61  1  0  0  0
 59 62  1  0  0  0
 60127  1  0  0  0
 60128  1  0  0  0
 60129  1  0  0  0
 61130  1  0  0  0
 61131  1  0  0  0
 61132  1  0  0  0
 62133  1  0  0  0
 62134  1  0  0  0
 62135  1  0  0  0
 63 65  1  0  0  0
 63136  1  0  0  0
 63137  1  0  0  0
 63138  1  0  0  0
 64139  1  0  0  0
 65140  1  0  0  0
 68 80  1  0  0  0
 71 73  2  0  0  0
 71 74  1  0  0  0
 71141  1  0  0  0
 72 73  1  0  0  0
 72 75  2  0  0  0
 72142  1  0  0  0
 73 79  1  0  0  0
 74 76  2  0  0  0
 74 77  1  0  0  0
 75 76  1  0  0  0
 75 80  1  0  0  0
 76 78  1  0  0  0
 77143  1  0  0  0
 77144  1  0  0  0
 77145  1  0  0  0
 78146  1  0  0  0
 78147  1  0  0  0
 78148  1  0  0  0
 79 81  1  0  0  0
 79149  1  0  0  0
 79150  1  0  0  0
 80151  1  0  0  0
 80152  1  0  0  0
 81153  1  0  0  0
M  ISO  4   1 100  68 101  80 101  81 100
M  END
> <chiral flag>
0

> <version>
0

> <s_m_source_file>
/data/baiqing/PycharmProjects/Reinvent-master-3.2/result/LINK_invent/BTK/process_docking_weight1_custom_sum_contain_oxygen_bond_distance_aromatic_linkinvent_7_9_3/rearranged_h_0031.sdf

> <i_m_source_file_index>
40

> <r_mmod_Potential_Energy-OPLS-2005>
1376.82482910156

> <r_mmod_Stretch_Energy-OPLS-2005>
648.196960449219

> <r_mmod_Bend_Energy-OPLS-2005>
441.287689208984

> <r_mmod_Torsional_Energy-OPLS-2005>
220.620056152344

> <r_mmod_Improper_Torsional_Energy-OPLS-2005>
5.58490753173828

> <r_mmod_Van_der_Waal_Energy-OPLS-2005>
131.239761352539

> <r_mmod_Electrostatic_Energy-OPLS-2005>
-394.882507324219

> <r_mmod_Solvation_Energy-OPLS-2005>
-213.407363891602

> <b_mmod_Minimization_Converged-OPLS-2005>
0

> <r_mmod_RMS_Derivative-OPLS-2005>
2.88380289077759

$$$$
40
                    3D
 Structure written by MMmdl.
153161  0  0  1  0            999 V2000
  -30.4156  -15.3286   20.3637 C   0  0  0  0  0  0
  -30.4395  -12.8476   19.5501 C   0  0  0  0  0  0
  -29.5479  -12.5966   18.3053 C   0  0  0  0  0  0
  -28.0925  -12.3184   18.7190 C   0  0  0  0  0  0
  -27.6136  -13.2872   19.8289 C   0  0  2  0  0  0
  -28.6410  -13.4752   20.9681 C   0  0  0  0  0  0
  -25.2378  -13.8274   20.5745 C   0  0  0  0  0  0
  -24.1739  -13.0448   20.9255 C   0  0  0  0  0  0
  -24.6409  -11.6950   20.8760 C   0  0  0  0  0  0
  -23.9103  -10.4293   21.0385 C   0  0  0  0  0  0
  -24.3654   -9.4209   21.9169 C   0  0  0  0  0  0
  -23.6320   -8.2250   22.0745 C   0  0  0  0  0  0
  -22.4296   -8.0293   21.3539 C   0  0  0  0  0  0
  -21.9941   -9.0267   20.4635 C   0  0  0  0  0  0
  -22.7274  -10.2140   20.3038 C   0  0  0  0  0  0
  -21.6855   -6.0744   22.5273 C   0  0  0  0  0  0
  -21.4017   -6.5642   23.8211 C   0  0  0  0  0  0
  -21.3666   -5.6790   24.9172 C   0  0  0  0  0  0
  -21.6050   -4.3055   24.7219 C   0  0  0  0  0  0
  -21.8810   -3.8148   23.4338 C   0  0  0  0  0  0
  -21.9194   -4.6967   22.3395 C   0  0  0  0  0  0
  -22.7745  -13.5196   21.1901 C   0  0  0  0  0  0
  -22.1652   -4.2139   21.0974 F   0  0  0  0  0  0
  -21.5635   -3.4536   25.7733 F   0  0  0  0  0  0
  -29.8724  -14.0015   20.3542 N   0  0  0  0  0  0
  -26.2817  -12.9574   20.3225 N   0  0  0  0  0  0
  -25.9355  -11.6659   20.5713 N   0  0  0  0  0  0
  -22.0385  -12.8192   22.0459 N   0  0  0  0  0  0
  -25.4000  -15.2010   20.4182 N   0  0  0  0  0  0
  -31.6201  -15.3293   20.0716 O   0  0  0  0  0  0
  -21.6651   -6.8899   21.4245 O   0  0  0  0  0  0
  -22.3421  -14.5491   20.6728 O   0  0  0  0  0  0
  -24.6668  -31.8190   23.1681 C   0  0  0  0  0  0
  -25.9331  -32.4566   23.8163 C   0  0  1  0  0  0
  -27.2166  -26.8811   20.1928 C   0  0  0  0  0  0
  -25.5973  -33.8383   24.2059 N   0  0  0  0  0  0
  -23.4849  -30.4288   21.5175 C   0  0  2  0  0  0
  -24.9403  -28.8075   20.1102 C   0  0  0  0  0  0
  -22.7692  -29.4415   22.4775 C   0  0  0  0  0  0
  -18.0329  -28.1408   22.8471 C   0  0  0  0  0  0
  -24.1494  -36.7193   23.2650 C   0  0  0  0  0  0
  -26.0567  -30.6082   21.4079 C   0  0  0  0  0  0
  -26.1230  -29.1937   20.7525 C   0  0  0  0  0  0
  -27.2516  -28.2514   20.7723 C   0  0  0  0  0  0
  -26.0105  -26.6631   19.4881 C   0  0  0  0  0  0
  -24.9117  -27.5647   19.4572 C   0  0  0  0  0  0
  -23.7278  -29.7406   20.1447 C   0  0  0  0  0  0
  -25.4142  -36.2960   24.0297 C   0  0  1  0  0  0
  -20.5955  -28.3752   23.1189 C   0  0  2  0  0  0
  -20.6801  -26.9433   22.5410 C   0  0  0  0  0  0
  -19.5775  -26.6371   21.5223 C   0  0  0  0  0  0
  -18.1954  -26.7937   22.1625 C   0  0  0  0  0  0
  -19.1592  -28.8905   23.2808 C   0  0  0  0  0  0
  -18.9495  -30.1493   23.8844 C   0  0  0  0  0  0
  -17.6485  -30.6598   24.0553 C   0  0  0  0  0  0
  -25.9112  -34.9341   23.5011 C   0  0  0  0  0  0
  -16.5378  -29.9083   23.6343 C   0  0  0  0  0  0
  -16.7305  -28.6502   23.0366 C   0  0  0  0  0  0
  -26.4546  -31.6537   25.0720 C   0  0  0  0  0  0
  -25.3647  -31.3824   26.1367 C   0  0  0  0  0  0
  -27.0447  -30.2889   24.6514 C   0  0  0  0  0  0
  -27.6049  -32.4343   25.7513 C   0  0  0  0  0  0
  -27.5573  -37.1765   24.8471 C   0  0  0  0  0  0
  -21.4359  -29.3037   22.3528 N   0  0  0  0  0  0
  -26.4288  -37.3698   23.9396 N   0  0  0  0  0  0
  -24.7577  -30.9812   22.0838 N   0  0  0  0  0  0
  -23.4221  -28.7997   23.3040 O   0  0  0  0  0  0
  -28.1930  -25.7427   20.3199 O   0  0  0  0  0  0
  -26.5732  -34.8885   22.4618 O   0  0  0  0  0  0
  -23.5723  -32.1189   23.6743 O   0  0  0  0  0  0
  -29.3161  -21.3499   22.6290 C   0  0  0  0  0  0
  -28.8683  -21.1788   19.9786 C   0  0  0  0  0  0
  -29.5287  -20.0769   22.0213 C   0  0  0  0  0  0
  -28.8918  -22.5428   21.9700 C   0  0  0  0  0  0
  -29.3108  -19.8383   20.6405 C   0  0  0  0  0  0
  -28.6425  -22.6012   20.5760 C   0  0  0  0  0  0
  -30.0564  -18.9538   22.8989 C   0  0  0  0  0  0
  -28.6783  -23.7866   22.8157 C   0  0  0  0  0  0
  -29.7313  -18.2303   20.0103 C   0  0  0  0  0  0
  -28.0041  -24.1273   19.9329 C   0  0  0  0  0  0
  -29.6514  -16.6100   20.5063 N   0  0  0  0  0  0
  -31.4601  -13.0504   19.2199 H   0  0  0  0  0  0
  -30.5135  -11.9479   20.1644 H   0  0  0  0  0  0
  -29.9448  -11.7662   17.7193 H   0  0  0  0  0  0
  -29.5817  -13.4729   17.6546 H   0  0  0  0  0  0
  -28.0438  -11.2934   19.0856 H   0  0  0  0  0  0
  -27.4332  -12.3672   17.8525 H   0  0  0  0  0  0
  -27.5275  -14.2541   19.3319 H   0  0  0  0  0  0
  -28.8141  -12.5422   21.5060 H   0  0  0  0  0  0
  -28.2658  -14.1897   21.7021 H   0  0  0  0  0  0
  -25.2788   -9.5698   22.4763 H   0  0  0  0  0  0
  -24.0020   -7.4648   22.7483 H   0  0  0  0  0  0
  -21.0856   -8.8807   19.8968 H   0  0  0  0  0  0
  -22.3722  -10.9694   19.6164 H   0  0  0  0  0  0
  -21.2012   -7.6144   23.9720 H   0  0  0  0  0  0
  -21.1494   -6.0509   25.9078 H   0  0  0  0  0  0
  -22.0591   -2.7608   23.2829 H   0  0  0  0  0  0
  -22.4007  -11.9879   22.4902 H   0  0  0  0  0  0
  -21.0985  -13.1212   22.2625 H   0  0  0  0  0  0
  -24.6341  -15.8536   20.5451 H   0  0  0  0  0  0
  -26.2368  -15.6406   20.0603 H   0  0  0  0  0  0
  -26.7416  -32.5082   23.0884 H   0  0  0  0  0  0
  -25.0028  -33.9447   25.0142 H   0  0  0  0  0  0
  -22.8005  -31.2614   21.3428 H   0  0  0  0  0  0
  -23.3764  -35.9521   23.3320 H   0  0  0  0  0  0
  -24.3559  -36.8831   22.2064 H   0  0  0  0  0  0
  -23.7253  -37.6385   23.6699 H   0  0  0  0  0  0
  -26.2501  -31.3479   20.6297 H   0  0  0  0  0  0
  -26.9111  -30.6620   22.0703 H   0  0  0  0  0  0
  -28.1399  -28.5408   21.3161 H   0  0  0  0  0  0
  -25.8715  -25.7153   18.9896 H   0  0  0  0  0  0
  -24.0131  -27.2631   18.9357 H   0  0  0  0  0  0
  -23.8871  -30.5066   19.3855 H   0  0  0  0  0  0
  -22.8358  -29.1972   19.8268 H   0  0  0  0  0  0
  -25.1352  -36.1761   25.0789 H   0  0  0  0  0  0
  -21.0037  -28.3355   24.1317 H   0  0  0  0  0  0
  -20.5677  -26.2376   23.3651 H   0  0  0  0  0  0
  -21.6661  -26.7407   22.1221 H   0  0  0  0  0  0
  -19.6935  -25.6267   21.1288 H   0  0  0  0  0  0
  -19.6705  -27.3150   20.6725 H   0  0  0  0  0  0
  -17.4226  -26.6681   21.4027 H   0  0  0  0  0  0
  -18.0345  -26.0092   22.9033 H   0  0  0  0  0  0
  -19.7969  -30.7322   24.2192 H   0  0  0  0  0  0
  -17.5038  -31.6267   24.5161 H   0  0  0  0  0  0
  -15.5376  -30.2964   23.7697 H   0  0  0  0  0  0
  -15.8706  -28.0800   22.7109 H   0  0  0  0  0  0
  -24.5814  -30.7197   25.7662 H   0  0  0  0  0  0
  -24.8844  -32.3043   26.4664 H   0  0  0  0  0  0
  -25.7836  -30.9050   27.0237 H   0  0  0  0  0  0
  -26.3128  -29.6544   24.1501 H   0  0  0  0  0  0
  -27.3922  -29.7287   25.5207 H   0  0  0  0  0  0
  -27.9099  -30.4048   23.9985 H   0  0  0  0  0  0
  -27.2625  -33.3671   26.2006 H   0  0  0  0  0  0
  -28.3893  -32.6861   25.0364 H   0  0  0  0  0  0
  -28.0688  -31.8530   26.5491 H   0  0  0  0  0  0
  -28.2608  -38.0042   24.7484 H   0  0  0  0  0  0
  -28.1047  -36.2573   24.6343 H   0  0  0  0  0  0
  -27.2285  -37.1471   25.8872 H   0  0  0  0  0  0
  -20.9630  -29.8697   21.6623 H   0  0  0  0  0  0
  -26.0141  -38.2770   24.1352 H   0  0  0  0  0  0
  -29.4976  -21.4214   23.6933 H   0  0  0  0  0  0
  -28.6841  -21.1133   18.9151 H   0  0  0  0  0  0
  -30.2327  -19.2856   23.9231 H   0  0  0  0  0  0
  -31.0086  -18.5853   22.5124 H   0  0  0  0  0  0
  -29.3495  -18.1258   22.9402 H   0  0  0  0  0  0
  -28.8505  -23.5950   23.8760 H   0  0  0  0  0  0
  -27.6544  -24.1478   22.7162 H   0  0  0  0  0  0
  -29.3574  -24.5826   22.5083 H   0  0  0  0  0  0
  -30.7829  -18.3489   19.7527 H   0  0  0  0  0  0
  -29.2358  -18.2121   19.0404 H   0  0  0  0  0  0
  -26.9289  -23.9694   20.0175 H   0  0  0  0  0  0
  -28.1952  -24.0744   18.8609 H   0  0  0  0  0  0
  -28.7229  -16.4001   20.8409 H   0  0  0  0  0  0
  1 25  1  0  0  0
  1 30  2  0  0  0
  1 81  1  0  0  0
  2  3  1  0  0  0
  2 25  1  0  0  0
  2 82  1  0  0  0
  2 83  1  0  0  0
  3  4  1  0  0  0
  3 84  1  0  0  0
  3 85  1  0  0  0
  4  5  1  0  0  0
  4 86  1  0  0  0
  4 87  1  0  0  0
  5  6  1  0  0  0
  5 26  1  0  0  0
  5 88  1  0  0  0
  6 25  1  0  0  0
  6 89  1  0  0  0
  6 90  1  0  0  0
  7  8  2  0  0  0
  7 26  1  0  0  0
  7 29  1  0  0  0
  8  9  1  0  0  0
  8 22  1  0  0  0
  9 10  1  0  0  0
  9 27  2  0  0  0
 10 11  2  0  0  0
 10 15  1  0  0  0
 11 12  1  0  0  0
 11 91  1  0  0  0
 12 13  2  0  0  0
 12 92  1  0  0  0
 13 14  1  0  0  0
 13 31  1  0  0  0
 14 15  2  0  0  0
 14 93  1  0  0  0
 15 94  1  0  0  0
 16 17  2  0  0  0
 16 21  1  0  0  0
 16 31  1  0  0  0
 17 18  1  0  0  0
 17 95  1  0  0  0
 18 19  2  0  0  0
 18 96  1  0  0  0
 19 20  1  0  0  0
 19 24  1  0  0  0
 20 21  2  0  0  0
 20 97  1  0  0  0
 21 23  1  0  0  0
 22 28  1  0  0  0
 22 32  2  0  0  0
 26 27  1  0  0  0
 28 98  1  0  0  0
 28 99  1  0  0  0
 29100  1  0  0  0
 29101  1  0  0  0
 33 34  1  0  0  0
 33 66  1  0  0  0
 33 70  2  0  0  0
 34 36  1  0  0  0
 34 59  1  0  0  0
 34102  1  0  0  0
 35 44  2  0  0  0
 35 45  1  0  0  0
 35 68  1  0  0  0
 36 56  1  0  0  0
 36103  1  0  0  0
 37 39  1  0  0  0
 37 47  1  0  0  0
 37 66  1  0  0  0
 37104  1  0  0  0
 38 43  2  0  0  0
 38 46  1  0  0  0
 38 47  1  0  0  0
 39 64  1  0  0  0
 39 67  2  0  0  0
 40 52  1  0  0  0
 40 53  2  0  0  0
 40 58  1  0  0  0
 41105  1  0  0  0
 41106  1  0  0  0
 41107  1  0  0  0
 41 48  1  0  0  0
 42 43  1  0  0  0
 42 66  1  0  0  0
 42108  1  0  0  0
 42109  1  0  0  0
 43 44  1  0  0  0
 44110  1  0  0  0
 45 46  2  0  0  0
 45111  1  0  0  0
 46112  1  0  0  0
 47113  1  0  0  0
 47114  1  0  0  0
 48 56  1  0  0  0
 48 65  1  0  0  0
 48115  1  0  0  0
 49 50  1  0  0  0
 49 53  1  0  0  0
 49 64  1  0  0  0
 49116  1  0  0  0
 50 51  1  0  0  0
 50117  1  0  0  0
 50118  1  0  0  0
 51 52  1  0  0  0
 51119  1  0  0  0
 51120  1  0  0  0
 52121  1  0  0  0
 52122  1  0  0  0
 53 54  1  0  0  0
 54 55  2  0  0  0
 54123  1  0  0  0
 55 57  1  0  0  0
 55124  1  0  0  0
 56 69  2  0  0  0
 57 58  2  0  0  0
 57125  1  0  0  0
 58126  1  0  0  0
 59 60  1  0  0  0
 59 61  1  0  0  0
 59 62  1  0  0  0
 60127  1  0  0  0
 60128  1  0  0  0
 60129  1  0  0  0
 61130  1  0  0  0
 61131  1  0  0  0
 61132  1  0  0  0
 62133  1  0  0  0
 62134  1  0  0  0
 62135  1  0  0  0
 63 65  1  0  0  0
 63136  1  0  0  0
 63137  1  0  0  0
 63138  1  0  0  0
 64139  1  0  0  0
 65140  1  0  0  0
 68 80  1  0  0  0
 71 73  2  0  0  0
 71 74  1  0  0  0
 71141  1  0  0  0
 72 75  2  0  0  0
 72 76  1  0  0  0
 72142  1  0  0  0
 73 75  1  0  0  0
 73 77  1  0  0  0
 74 76  2  0  0  0
 74 78  1  0  0  0
 75 79  1  0  0  0
 76 80  1  0  0  0
 77143  1  0  0  0
 77144  1  0  0  0
 77145  1  0  0  0
 78146  1  0  0  0
 78147  1  0  0  0
 78148  1  0  0  0
 79 81  1  0  0  0
 79149  1  0  0  0
 79150  1  0  0  0
 80151  1  0  0  0
 80152  1  0  0  0
 81153  1  0  0  0
M  ISO  4   1 100  68 101  80 101  81 100
M  END
> <chiral flag>
0

> <version>
0

> <s_m_source_file>
/data/baiqing/PycharmProjects/Reinvent-master-3.2/result/LINK_invent/BTK/process_docking_weight1_custom_sum_contain_oxygen_bond_distance_aromatic_linkinvent_7_9_3/rearranged_h_0031.sdf

> <i_m_source_file_index>
41

> <r_mmod_Potential_Energy-OPLS-2005>
1374.79968261719

> <r_mmod_Stretch_Energy-OPLS-2005>
652.364013671875

> <r_mmod_Bend_Energy-OPLS-2005>
439.495269775391

> <r_mmod_Torsional_Energy-OPLS-2005>
217.891799926758

> <r_mmod_Improper_Torsional_Energy-OPLS-2005>
5.87667894363403

> <r_mmod_Van_der_Waal_Energy-OPLS-2005>
126.572059631348

> <r_mmod_Electrostatic_Energy-OPLS-2005>
-388.874725341797

> <r_mmod_Solvation_Energy-OPLS-2005>
-210.047393798828

> <b_mmod_Minimization_Converged-OPLS-2005>
0

> <r_mmod_RMS_Derivative-OPLS-2005>
2.40288734436035

$$$$
41
                    3D
 Structure written by MMmdl.
183192  0  0  1  0            999 V2000
  -30.7625  -14.3306   20.7052 C   0  0  0  0  0  0
  -30.4198  -12.2782   19.3808 C   0  0  0  0  0  0
  -29.4772  -12.5357   18.1895 C   0  0  0  0  0  0
  -28.0027  -12.4005   18.6097 C   0  0  0  0  0  0
  -27.6718  -13.1996   19.8966 C   0  0  2  0  0  0
  -28.7105  -12.9005   21.0003 C   0  0  0  0  0  0
  -25.2585  -13.8124   20.5690 C   0  0  0  0  0  0
  -24.1830  -13.0406   20.9213 C   0  0  0  0  0  0
  -24.6400  -11.6889   20.8782 C   0  0  0  0  0  0
  -23.9084  -10.4265   21.0432 C   0  0  0  0  0  0
  -24.3640   -9.4170   21.9191 C   0  0  0  0  0  0
  -23.6312   -8.2207   22.0762 C   0  0  0  0  0  0
  -22.4286   -8.0262   21.3561 C   0  0  0  0  0  0
  -21.9926   -9.0230   20.4664 C   0  0  0  0  0  0
  -22.7277  -10.2100   20.3073 C   0  0  0  0  0  0
  -21.6846   -6.0740   22.5300 C   0  0  0  0  0  0
  -21.4000   -6.5644   23.8234 C   0  0  0  0  0  0
  -21.3659   -5.6807   24.9200 C   0  0  0  0  0  0
  -21.6043   -4.3072   24.7256 C   0  0  0  0  0  0
  -21.8811   -3.8158   23.4379 C   0  0  0  0  0  0
  -21.9184   -4.6965   22.3431 C   0  0  0  0  0  0
  -22.7847  -13.5198   21.1885 C   0  0  0  0  0  0
  -22.1655   -4.2143   21.1015 F   0  0  0  0  0  0
  -21.5633   -3.4555   25.7773 F   0  0  0  0  0  0
  -30.0623  -13.1912   20.4755 N   0  0  0  0  0  0
  -26.3068  -12.9313   20.3498 N   0  0  0  0  0  0
  -25.9333  -11.6473   20.5843 N   0  0  0  0  0  0
  -22.0491  -12.8161   22.0442 N   0  0  0  0  0  0
  -25.4254  -15.1814   20.4001 N   0  0  0  0  0  0
  -31.7437  -14.6836   20.0429 O   0  0  0  0  0  0
  -21.6650   -6.8869   21.4254 O   0  0  0  0  0  0
  -22.3525  -14.5503   20.6755 O   0  0  0  0  0  0
  -24.6103  -31.8720   23.2144 C   0  0  0  0  0  0
  -25.9020  -32.4842   23.8419 C   0  0  1  0  0  0
  -27.2447  -27.4740   20.0853 C   0  0  0  0  0  0
  -25.5897  -33.8640   24.2352 N   0  0  0  0  0  0
  -23.3955  -30.4970   21.5542 C   0  0  2  0  0  0
  -24.8412  -28.9675   20.1200 C   0  0  0  0  0  0
  -22.7382  -29.4681   22.5014 C   0  0  0  0  0  0
  -18.0266  -28.1377   22.8494 C   0  0  0  0  0  0
  -24.1489  -36.7325   23.2637 C   0  0  0  0  0  0
  -25.9205  -30.8474   21.3628 C   0  0  0  0  0  0
  -25.9974  -29.4828   20.7161 C   0  0  0  0  0  0
  -27.1955  -28.7398   20.7042 C   0  0  0  0  0  0
  -26.0598  -26.9598   19.4990 C   0  0  0  0  0  0
  -24.8647  -27.7010   19.5145 C   0  0  0  0  0  0
  -23.6017  -29.8298   20.1682 C   0  0  0  0  0  0
  -25.4110  -36.3129   24.0341 C   0  0  1  0  0  0
  -20.5851  -28.3658   23.1336 C   0  0  2  0  0  0
  -20.6762  -26.9401   22.5424 C   0  0  0  0  0  0
  -19.5744  -26.6392   21.5217 C   0  0  0  0  0  0
  -18.1919  -26.7931   22.1619 C   0  0  0  0  0  0
  -19.1512  -28.8834   23.2913 C   0  0  0  0  0  0
  -18.9445  -30.1443   23.8922 C   0  0  0  0  0  0
  -17.6448  -30.6586   24.0572 C   0  0  0  0  0  0
  -25.9030  -34.9490   23.5137 C   0  0  0  0  0  0
  -16.5340  -29.9092   23.6324 C   0  0  0  0  0  0
  -16.7257  -28.6508   23.0346 C   0  0  0  0  0  0
  -26.4469  -31.6606   25.0725 C   0  0  0  0  0  0
  -25.3751  -31.3700   26.1482 C   0  0  0  0  0  0
  -27.0289  -30.3057   24.6069 C   0  0  0  0  0  0
  -27.6062  -32.4316   25.7471 C   0  0  0  0  0  0
  -27.5587  -37.1815   24.8463 C   0  0  0  0  0  0
  -21.4115  -29.3031   22.3744 N   0  0  0  0  0  0
  -26.4303  -37.3807   23.9404 N   0  0  0  0  0  0
  -24.6602  -31.0859   22.1027 N   0  0  0  0  0  0
  -23.4173  -28.8227   23.3045 O   0  0  0  0  0  0
  -28.4608  -26.8182   20.0786 O   0  0  0  0  0  0
  -26.5590  -34.8931   22.4695 O   0  0  0  0  0  0
  -23.5309  -32.1458   23.7564 O   0  0  0  0  0  0
  -28.1630  -22.2804   16.6015 C   0  0  0  0  0  0
  -26.2778  -23.6928   16.0522 C   0  0  0  0  0  0
  -28.7926  -23.4131   17.1502 C   0  0  0  0  0  0
  -26.8691  -22.4183   16.0616 C   0  0  0  0  0  0
  -28.1052  -24.6418   17.1110 C   0  0  0  0  0  0
  -30.1447  -23.2891   17.8464 C   0  0  0  0  0  0
  -28.6399  -25.8474   17.8520 C   0  0  0  0  0  0
  -29.8707  -24.8869   19.8727 C   0  0  0  0  0  0
  -30.0635  -23.4286   19.3853 C   0  0  1  0  0  0
  -28.5904  -25.5867   19.3736 C   0  0  1  0  0  0
  -29.0407  -22.4594   20.0037 C   0  0  0  0  0  0
  -26.1047  -21.2153   15.5328 C   0  0  0  0  0  0
  -25.9463  -20.0930   16.5742 C   0  0  0  0  0  0
  -25.2258  -20.5289   17.8688 C   0  0  0  0  0  0
  -25.4146  -19.5338   19.0236 C   0  0  0  0  0  0
  -26.8028  -19.6469   19.6791 C   0  0  0  0  0  0
  -27.0569  -18.5299   20.6944 C   0  0  0  0  0  0
  -28.5478  -18.3266   21.0212 C   0  0  0  0  0  0
  -28.7825  -16.9512   21.6564 C   0  0  0  0  0  0
  -30.2585  -16.5212   21.7407 C   0  0  0  0  0  0
  -26.8792  -24.7822   16.5650 N   0  0  0  0  0  0
  -30.2902  -15.0644   21.7183 N   0  0  0  0  0  0
  -31.4596  -12.3933   19.0690 H   0  0  0  0  0  0
  -30.3239  -11.2456   19.7168 H   0  0  0  0  0  0
  -29.6941  -11.8386   17.3789 H   0  0  0  0  0  0
  -29.6529  -13.5354   17.7892 H   0  0  0  0  0  0
  -27.7958  -11.3424   18.7688 H   0  0  0  0  0  0
  -27.3509  -12.7185   17.7960 H   0  0  0  0  0  0
  -27.7399  -14.2597   19.6517 H   0  0  0  0  0  0
  -28.6651  -11.8477   21.2841 H   0  0  0  0  0  0
  -28.4552  -13.4467   21.9087 H   0  0  0  0  0  0
  -25.2785   -9.5624   22.4774 H   0  0  0  0  0  0
  -24.0022   -7.4573   22.7451 H   0  0  0  0  0  0
  -21.0869   -8.8742   19.8954 H   0  0  0  0  0  0
  -22.3749  -10.9631   19.6176 H   0  0  0  0  0  0
  -21.1976   -7.6146   23.9729 H   0  0  0  0  0  0
  -21.1504   -6.0548   25.9103 H   0  0  0  0  0  0
  -22.0593   -2.7618   23.2894 H   0  0  0  0  0  0
  -22.4124  -11.9837   22.4847 H   0  0  0  0  0  0
  -21.1091  -13.1130   22.2644 H   0  0  0  0  0  0
  -24.6554  -15.8362   20.4836 H   0  0  0  0  0  0
  -26.2836  -15.6150   20.0883 H   0  0  0  0  0  0
  -26.7092  -32.5576   23.1188 H   0  0  0  0  0  0
  -25.0060  -33.9814   25.0506 H   0  0  0  0  0  0
  -22.6824  -31.3125   21.4179 H   0  0  0  0  0  0
  -23.3748  -35.9660   23.3314 H   0  0  0  0  0  0
  -24.3582  -36.8920   22.2047 H   0  0  0  0  0  0
  -23.7245  -37.6537   23.6637 H   0  0  0  0  0  0
  -26.0258  -31.6126   20.5927 H   0  0  0  0  0  0
  -26.8113  -30.9041   21.9764 H   0  0  0  0  0  0
  -28.0895  -29.1422   21.1601 H   0  0  0  0  0  0
  -26.0293  -25.9991   19.0080 H   0  0  0  0  0  0
  -23.9756  -27.2953   19.0522 H   0  0  0  0  0  0
  -23.7063  -30.6044   19.4077 H   0  0  0  0  0  0
  -22.7269  -29.2465   19.8742 H   0  0  0  0  0  0
  -25.1284  -36.2000   25.0837 H   0  0  0  0  0  0
  -20.9948  -28.3226   24.1456 H   0  0  0  0  0  0
  -20.5680  -26.2265   23.3605 H   0  0  0  0  0  0
  -21.6634  -26.7462   22.1211 H   0  0  0  0  0  0
  -19.6910  -25.6311   21.1230 H   0  0  0  0  0  0
  -19.6691  -27.3218   20.6762 H   0  0  0  0  0  0
  -17.4198  -26.6694   21.4011 H   0  0  0  0  0  0
  -18.0306  -26.0063   22.9004 H   0  0  0  0  0  0
  -19.7921  -30.7252   24.2306 H   0  0  0  0  0  0
  -17.5004  -31.6269   24.5169 H   0  0  0  0  0  0
  -15.5342  -30.3003   23.7636 H   0  0  0  0  0  0
  -15.8658  -28.0841   22.7044 H   0  0  0  0  0  0
  -24.5911  -30.7065   25.7814 H   0  0  0  0  0  0
  -24.8959  -32.2854   26.4965 H   0  0  0  0  0  0
  -25.8115  -30.8837   27.0215 H   0  0  0  0  0  0
  -26.2813  -29.6818   24.1159 H   0  0  0  0  0  0
  -27.4108  -29.7293   25.4503 H   0  0  0  0  0  0
  -27.8626  -30.4383   23.9171 H   0  0  0  0  0  0
  -27.2695  -33.3596   26.2103 H   0  0  0  0  0  0
  -28.3836  -32.6907   25.0271 H   0  0  0  0  0  0
  -28.0772  -31.8406   26.5336 H   0  0  0  0  0  0
  -28.2617  -38.0102   24.7506 H   0  0  0  0  0  0
  -28.1070  -36.2634   24.6292 H   0  0  0  0  0  0
  -27.2303  -37.1474   25.8866 H   0  0  0  0  0  0
  -20.9271  -29.8744   21.6960 H   0  0  0  0  0  0
  -26.0196  -38.2887   24.1405 H   0  0  0  0  0  0
  -28.6462  -21.3151   16.6410 H   0  0  0  0  0  0
  -25.2856  -23.8426   15.6534 H   0  0  0  0  0  0
  -30.8412  -24.0199   17.4329 H   0  0  0  0  0  0
  -30.5727  -22.3159   17.6009 H   0  0  0  0  0  0
  -28.0395  -26.7168   17.5840 H   0  0  0  0  0  0
  -29.6494  -26.0895   17.5191 H   0  0  0  0  0  0
  -30.7404  -25.4807   19.5896 H   0  0  0  0  0  0
  -29.8656  -24.8873   20.9633 H   0  0  0  0  0  0
  -31.0394  -23.1246   19.7670 H   0  0  0  0  0  0
  -27.7470  -24.9505   19.6392 H   0  0  0  0  0  0
  -28.0267  -22.6591   19.6583 H   0  0  0  0  0  0
  -29.0358  -22.5233   21.0917 H   0  0  0  0  0  0
  -29.2773  -21.4284   19.7392 H   0  0  0  0  0  0
  -26.6294  -20.8356   14.6553 H   0  0  0  0  0  0
  -25.1193  -21.5301   15.1880 H   0  0  0  0  0  0
  -26.9333  -19.6919   16.8017 H   0  0  0  0  0  0
  -25.3987  -19.2640   16.1240 H   0  0  0  0  0  0
  -24.1618  -20.6311   17.6519 H   0  0  0  0  0  0
  -25.5614  -21.5116   18.1981 H   0  0  0  0  0  0
  -25.2515  -18.5203   18.6516 H   0  0  0  0  0  0
  -24.6511  -19.6987   19.7859 H   0  0  0  0  0  0
  -26.9067  -20.6156   20.1689 H   0  0  0  0  0  0
  -27.5727  -19.6079   18.9096 H   0  0  0  0  0  0
  -26.6677  -17.6072   20.2690 H   0  0  0  0  0  0
  -26.4828  -18.7070   21.6063 H   0  0  0  0  0  0
  -28.9165  -19.1242   21.6676 H   0  0  0  0  0  0
  -29.1287  -18.3794   20.0985 H   0  0  0  0  0  0
  -28.2403  -16.2193   21.0556 H   0  0  0  0  0  0
  -28.3268  -16.9131   22.6471 H   0  0  0  0  0  0
  -30.7199  -16.8933   22.6561 H   0  0  0  0  0  0
  -30.8308  -16.9373   20.9095 H   0  0  0  0  0  0
  -29.5988  -14.6013   22.2897 H   0  0  0  0  0  0
  1 25  1  0  0  0
  1 30  2  0  0  0
  1 92  1  0  0  0
  2  3  1  0  0  0
  2 25  1  0  0  0
  2 93  1  0  0  0
  2 94  1  0  0  0
  3  4  1  0  0  0
  3 95  1  0  0  0
  3 96  1  0  0  0
  4  5  1  0  0  0
  4 97  1  0  0  0
  4 98  1  0  0  0
  5  6  1  0  0  0
  5 26  1  0  0  0
  5 99  1  0  0  0
  6 25  1  0  0  0
  6100  1  0  0  0
  6101  1  0  0  0
  7  8  2  0  0  0
  7 26  1  0  0  0
  7 29  1  0  0  0
  8  9  1  0  0  0
  8 22  1  0  0  0
  9 10  1  0  0  0
  9 27  2  0  0  0
 10 11  2  0  0  0
 10 15  1  0  0  0
 11 12  1  0  0  0
 11102  1  0  0  0
 12 13  2  0  0  0
 12103  1  0  0  0
 13 14  1  0  0  0
 13 31  1  0  0  0
 14 15  2  0  0  0
 14104  1  0  0  0
 15105  1  0  0  0
 16 17  2  0  0  0
 16 21  1  0  0  0
 16 31  1  0  0  0
 17 18  1  0  0  0
 17106  1  0  0  0
 18 19  2  0  0  0
 18107  1  0  0  0
 19 20  1  0  0  0
 19 24  1  0  0  0
 20 21  2  0  0  0
 20108  1  0  0  0
 21 23  1  0  0  0
 22 28  1  0  0  0
 22 32  2  0  0  0
 26 27  1  0  0  0
 28109  1  0  0  0
 28110  1  0  0  0
 29111  1  0  0  0
 29112  1  0  0  0
 33 34  1  0  0  0
 33 66  1  0  0  0
 33 70  2  0  0  0
 34 36  1  0  0  0
 34 59  1  0  0  0
 34113  1  0  0  0
 35 44  2  0  0  0
 35 45  1  0  0  0
 35 68  1  0  0  0
 36 56  1  0  0  0
 36114  1  0  0  0
 37 39  1  0  0  0
 37 47  1  0  0  0
 37 66  1  0  0  0
 37115  1  0  0  0
 38 43  2  0  0  0
 38 46  1  0  0  0
 38 47  1  0  0  0
 39 64  1  0  0  0
 39 67  2  0  0  0
 40 52  1  0  0  0
 40 53  2  0  0  0
 40 58  1  0  0  0
 41116  1  0  0  0
 41117  1  0  0  0
 41118  1  0  0  0
 41 48  1  0  0  0
 42 43  1  0  0  0
 42 66  1  0  0  0
 42119  1  0  0  0
 42120  1  0  0  0
 43 44  1  0  0  0
 44121  1  0  0  0
 45 46  2  0  0  0
 45122  1  0  0  0
 46123  1  0  0  0
 47124  1  0  0  0
 47125  1  0  0  0
 48 56  1  0  0  0
 48 65  1  0  0  0
 48126  1  0  0  0
 49 50  1  0  0  0
 49 53  1  0  0  0
 49 64  1  0  0  0
 49127  1  0  0  0
 50 51  1  0  0  0
 50128  1  0  0  0
 50129  1  0  0  0
 51 52  1  0  0  0
 51130  1  0  0  0
 51131  1  0  0  0
 52132  1  0  0  0
 52133  1  0  0  0
 53 54  1  0  0  0
 54 55  2  0  0  0
 54134  1  0  0  0
 55 57  1  0  0  0
 55135  1  0  0  0
 56 69  2  0  0  0
 57 58  2  0  0  0
 57136  1  0  0  0
 58137  1  0  0  0
 59 60  1  0  0  0
 59 61  1  0  0  0
 59 62  1  0  0  0
 60138  1  0  0  0
 60139  1  0  0  0
 60140  1  0  0  0
 61141  1  0  0  0
 61142  1  0  0  0
 61143  1  0  0  0
 62144  1  0  0  0
 62145  1  0  0  0
 62146  1  0  0  0
 63 65  1  0  0  0
 63147  1  0  0  0
 63148  1  0  0  0
 63149  1  0  0  0
 64150  1  0  0  0
 65151  1  0  0  0
 68 80  1  0  0  0
 71 73  2  0  0  0
 71 74  1  0  0  0
 71152  1  0  0  0
 72 74  2  0  0  0
 72 91  1  0  0  0
 72153  1  0  0  0
 73 75  1  0  0  0
 73 76  1  0  0  0
 74 82  1  0  0  0
 75 77  1  0  0  0
 75 91  2  0  0  0
 76 79  1  0  0  0
 76154  1  0  0  0
 76155  1  0  0  0
 77 80  1  0  0  0
 77156  1  0  0  0
 77157  1  0  0  0
 78 79  1  0  0  0
 78 80  1  0  0  0
 78158  1  0  0  0
 78159  1  0  0  0
 79 81  1  0  0  0
 79160  1  0  0  0
 80161  1  0  0  0
 81162  1  0  0  0
 81163  1  0  0  0
 81164  1  0  0  0
 82 83  1  0  0  0
 82165  1  0  0  0
 82166  1  0  0  0
 83 84  1  0  0  0
 83167  1  0  0  0
 83168  1  0  0  0
 84 85  1  0  0  0
 84169  1  0  0  0
 84170  1  0  0  0
 85 86  1  0  0  0
 85171  1  0  0  0
 85172  1  0  0  0
 86 87  1  0  0  0
 86173  1  0  0  0
 86174  1  0  0  0
 87 88  1  0  0  0
 87175  1  0  0  0
 87176  1  0  0  0
 88 89  1  0  0  0
 88177  1  0  0  0
 88178  1  0  0  0
 89 90  1  0  0  0
 89179  1  0  0  0
 89180  1  0  0  0
 90 92  1  0  0  0
 90181  1  0  0  0
 90182  1  0  0  0
 92183  1  0  0  0
M  ISO  4   1 100  68 101  80 101  92 100
M  END
> <chiral flag>
0

> <version>
0

> <s_m_source_file>
/data/baiqing/PycharmProjects/Reinvent-master-3.2/result/LINK_invent/BTK/process_docking_weight1_custom_sum_contain_oxygen_bond_distance_aromatic_linkinvent_7_9_3/rearranged_h_0031.sdf

> <i_m_source_file_index>
42

> <r_mmod_Potential_Energy-OPLS-2005>
-170.499618530273

> <r_mmod_Stretch_Energy-OPLS-2005>
32.8290214538574

> <r_mmod_Bend_Energy-OPLS-2005>
101.654678344727

> <r_mmod_Torsional_Energy-OPLS-2005>
233.087692260742

> <r_mmod_Improper_Torsional_Energy-OPLS-2005>
4.37883329391479

> <r_mmod_Van_der_Waal_Energy-OPLS-2005>
155.901672363281

> <r_mmod_Electrostatic_Energy-OPLS-2005>
-497.994537353516

> <r_mmod_Solvation_Energy-OPLS-2005>
-208.626983642578

> <b_mmod_Minimization_Converged-OPLS-2005>
0

> <r_mmod_RMS_Derivative-OPLS-2005>
2.14854884147644

$$$$
42
                    3D
 Structure written by MMmdl.
153161  0  0  1  0            999 V2000
  -30.6747  -14.4556   20.4875 C   0  0  0  0  0  0
  -30.4130  -12.2666   19.4201 C   0  0  0  0  0  0
  -29.4935  -12.4854   18.2007 C   0  0  0  0  0  0
  -28.0126  -12.3635   18.6094 C   0  0  0  0  0  0
  -27.6599  -13.1998   19.8680 C   0  0  2  0  0  0
  -28.7010  -12.9862   20.9946 C   0  0  0  0  0  0
  -25.2602  -13.8160   20.5654 C   0  0  0  0  0  0
  -24.1859  -13.0445   20.9188 C   0  0  0  0  0  0
  -24.6404  -11.6902   20.8729 C   0  0  0  0  0  0
  -23.9084  -10.4293   21.0400 C   0  0  0  0  0  0
  -24.3633   -9.4206   21.9180 C   0  0  0  0  0  0
  -23.6298   -8.2244   22.0754 C   0  0  0  0  0  0
  -22.4277   -8.0280   21.3544 C   0  0  0  0  0  0
  -21.9922   -9.0259   20.4648 C   0  0  0  0  0  0
  -22.7255  -10.2136   20.3048 C   0  0  0  0  0  0
  -21.6855   -6.0738   22.5276 C   0  0  0  0  0  0
  -21.4015   -6.5642   23.8209 C   0  0  0  0  0  0
  -21.3653   -5.6792   24.9170 C   0  0  0  0  0  0
  -21.6048   -4.3057   24.7223 C   0  0  0  0  0  0
  -21.8820   -3.8151   23.4344 C   0  0  0  0  0  0
  -21.9197   -4.6971   22.3400 C   0  0  0  0  0  0
  -22.7887  -13.5246   21.1850 C   0  0  0  0  0  0
  -22.1663   -4.2159   21.0978 F   0  0  0  0  0  0
  -21.5635   -3.4537   25.7739 F   0  0  0  0  0  0
  -30.0353  -13.2600   20.4380 N   0  0  0  0  0  0
  -26.3023  -12.9305   20.3325 N   0  0  0  0  0  0
  -25.9321  -11.6484   20.5766 N   0  0  0  0  0  0
  -22.0522  -12.8205   22.0384 N   0  0  0  0  0  0
  -25.4365  -15.1871   20.4037 N   0  0  0  0  0  0
  -31.8347  -14.6193   20.1012 O   0  0  0  0  0  0
  -21.6632   -6.8871   21.4237 O   0  0  0  0  0  0
  -22.3561  -14.5537   20.6684 O   0  0  0  0  0  0
  -24.6156  -31.8666   23.2101 C   0  0  0  0  0  0
  -25.9040  -32.4813   23.8385 C   0  0  1  0  0  0
  -27.2085  -27.4088   20.0679 C   0  0  0  0  0  0
  -25.5894  -33.8627   24.2292 N   0  0  0  0  0  0
  -23.4030  -30.4942   21.5549 C   0  0  2  0  0  0
  -24.8381  -28.9622   20.1114 C   0  0  0  0  0  0
  -22.7412  -29.4652   22.4999 C   0  0  0  0  0  0
  -18.0258  -28.1385   22.8462 C   0  0  0  0  0  0
  -24.1479  -36.7325   23.2638 C   0  0  0  0  0  0
  -25.9412  -30.8164   21.3770 C   0  0  0  0  0  0
  -26.0048  -29.4569   20.7081 C   0  0  0  0  0  0
  -27.1912  -28.6839   20.6820 C   0  0  0  0  0  0
  -26.0138  -26.9300   19.4801 C   0  0  0  0  0  0
  -24.8376  -27.6974   19.5026 C   0  0  0  0  0  0
  -23.6068  -29.8371   20.1658 C   0  0  0  0  0  0
  -25.4118  -36.3112   24.0315 C   0  0  1  0  0  0
  -20.5848  -28.3669   23.1322 C   0  0  2  0  0  0
  -20.6763  -26.9408   22.5426 C   0  0  0  0  0  0
  -19.5755  -26.6396   21.5206 C   0  0  0  0  0  0
  -18.1916  -26.7920   22.1616 C   0  0  0  0  0  0
  -19.1508  -28.8834   23.2870 C   0  0  0  0  0  0
  -18.9461  -30.1429   23.8884 C   0  0  0  0  0  0
  -17.6476  -30.6583   24.0561 C   0  0  0  0  0  0
  -25.9072  -34.9485   23.5112 C   0  0  0  0  0  0
  -16.5351  -29.9086   23.6352 C   0  0  0  0  0  0
  -16.7251  -28.6514   23.0336 C   0  0  0  0  0  0
  -26.4425  -31.6627   25.0756 C   0  0  0  0  0  0
  -25.3690  -31.3834   26.1525 C   0  0  0  0  0  0
  -27.0258  -30.3028   24.6266 C   0  0  0  0  0  0
  -27.5962  -32.4398   25.7531 C   0  0  0  0  0  0
  -27.5586  -37.1805   24.8451 C   0  0  0  0  0  0
  -21.4135  -29.3027   22.3723 N   0  0  0  0  0  0
  -26.4300  -37.3794   23.9398 N   0  0  0  0  0  0
  -24.6723  -31.0724   22.1039 N   0  0  0  0  0  0
  -23.4168  -28.8172   23.3028 O   0  0  0  0  0  0
  -28.3860  -26.6869   20.0525 O   0  0  0  0  0  0
  -26.5648  -34.8922   22.4680 O   0  0  0  0  0  0
  -23.5339  -32.1447   23.7467 O   0  0  0  0  0  0
  -29.1127  -22.4431   21.8304 C   0  0  0  0  0  0
  -29.5679  -21.1159   21.5864 C   0  0  0  0  0  0
  -28.4090  -22.9683   20.7751 C   0  0  0  0  0  0
  -29.2253  -20.5971   20.3663 C   0  0  0  0  0  0
  -27.7966  -24.3497   20.7074 C   0  0  0  0  0  0
  -29.6311  -19.2783   19.7610 C   0  0  0  0  0  0
  -29.3705  -17.9947   20.5940 C   0  0  0  0  0  0
  -30.0113  -16.7638   19.9184 C   0  0  0  0  0  0
  -28.3911  -25.3031   19.6404 C   0  0  0  0  0  0
  -29.8564  -15.5077   20.6671 N   0  0  0  0  0  0
  -30.2859  -20.4619   22.4708 F   0  0  0  0  0  0
  -28.2565  -21.7747   19.4913 S   0  0  0  0  0  0
  -31.4606  -12.3436   19.1252 H   0  0  0  0  0  0
  -30.2869  -11.2563   19.8135 H   0  0  0  0  0  0
  -29.7226  -11.7624   17.4174 H   0  0  0  0  0  0
  -29.6776  -13.4708   17.7673 H   0  0  0  0  0  0
  -27.8063  -11.3097   18.7962 H   0  0  0  0  0  0
  -27.3677  -12.6512   17.7796 H   0  0  0  0  0  0
  -27.6987  -14.2446   19.5618 H   0  0  0  0  0  0
  -28.6644  -11.9608   21.3669 H   0  0  0  0  0  0
  -28.4873  -13.6222   21.8550 H   0  0  0  0  0  0
  -25.2787   -9.5672   22.4744 H   0  0  0  0  0  0
  -24.0012   -7.4632   22.7456 H   0  0  0  0  0  0
  -21.0866   -8.8789   19.8935 H   0  0  0  0  0  0
  -22.3735  -10.9681   19.6147 H   0  0  0  0  0  0
  -21.1991   -7.6145   23.9715 H   0  0  0  0  0  0
  -21.1479   -6.0520   25.9075 H   0  0  0  0  0  0
  -22.0603   -2.7614   23.2843 H   0  0  0  0  0  0
  -22.4164  -11.9872   22.4768 H   0  0  0  0  0  0
  -21.1126  -13.1192   22.2568 H   0  0  0  0  0  0
  -24.6729  -15.8457   20.5078 H   0  0  0  0  0  0
  -26.2830  -15.6189   20.0562 H   0  0  0  0  0  0
  -26.7100  -32.5471   23.1134 H   0  0  0  0  0  0
  -24.9954  -33.9779   25.0379 H   0  0  0  0  0  0
  -22.6964  -31.3163   21.4225 H   0  0  0  0  0  0
  -23.3725  -35.9671   23.3318 H   0  0  0  0  0  0
  -24.3562  -36.8971   22.2047 H   0  0  0  0  0  0
  -23.7251  -37.6541   23.6665 H   0  0  0  0  0  0
  -26.0885  -31.5962   20.6285 H   0  0  0  0  0  0
  -26.8144  -30.8370   22.0184 H   0  0  0  0  0  0
  -28.0958  -29.0614   21.1371 H   0  0  0  0  0  0
  -25.9595  -25.9694   18.9929 H   0  0  0  0  0  0
  -23.9334  -27.3103   19.0474 H   0  0  0  0  0  0
  -23.7269  -30.6216   19.4182 H   0  0  0  0  0  0
  -22.7233  -29.2706   19.8596 H   0  0  0  0  0  0
  -25.1283  -36.1992   25.0804 H   0  0  0  0  0  0
  -20.9892  -28.3237   24.1460 H   0  0  0  0  0  0
  -20.5715  -26.2255   23.3610 H   0  0  0  0  0  0
  -21.6628  -26.7512   22.1188 H   0  0  0  0  0  0
  -19.6961  -25.6309   21.1232 H   0  0  0  0  0  0
  -19.6703  -27.3227   20.6745 H   0  0  0  0  0  0
  -17.4194  -26.6637   21.4004 H   0  0  0  0  0  0
  -18.0305  -26.0077   22.9021 H   0  0  0  0  0  0
  -19.7951  -30.7210   24.2257 H   0  0  0  0  0  0
  -17.5056  -31.6272   24.5160 H   0  0  0  0  0  0
  -15.5347  -30.2994   23.7709 H   0  0  0  0  0  0
  -15.8642  -28.0855   22.7045 H   0  0  0  0  0  0
  -24.5791  -30.7259   25.7910 H   0  0  0  0  0  0
  -24.8948  -32.3025   26.4963 H   0  0  0  0  0  0
  -25.7997  -30.9010   27.0305 H   0  0  0  0  0  0
  -26.2867  -29.6844   24.1165 H   0  0  0  0  0  0
  -27.3775  -29.7246   25.4819 H   0  0  0  0  0  0
  -27.8797  -30.4266   23.9615 H   0  0  0  0  0  0
  -27.2528  -33.3683   26.2099 H   0  0  0  0  0  0
  -28.3746  -32.7039   25.0372 H   0  0  0  0  0  0
  -28.0648  -31.8581   26.5474 H   0  0  0  0  0  0
  -28.2586  -38.0110   24.7494 H   0  0  0  0  0  0
  -28.1088  -36.2643   24.6263 H   0  0  0  0  0  0
  -27.2292  -37.1457   25.8848 H   0  0  0  0  0  0
  -20.9298  -29.8766   21.6965 H   0  0  0  0  0  0
  -26.0193  -38.2877   24.1404 H   0  0  0  0  0  0
  -29.3282  -22.9565   22.7572 H   0  0  0  0  0  0
  -27.9030  -24.8237   21.6856 H   0  0  0  0  0  0
  -26.7202  -24.2625   20.5563 H   0  0  0  0  0  0
  -30.7009  -19.3294   19.5496 H   0  0  0  0  0  0
  -29.1518  -19.1687   18.7876 H   0  0  0  0  0  0
  -28.2990  -17.8422   20.7384 H   0  0  0  0  0  0
  -29.8034  -18.1056   21.5887 H   0  0  0  0  0  0
  -31.0675  -16.9692   19.7238 H   0  0  0  0  0  0
  -29.5545  -16.6151   18.9352 H   0  0  0  0  0  0
  -27.9249  -25.1499   18.6663 H   0  0  0  0  0  0
  -29.4389  -25.0484   19.4797 H   0  0  0  0  0  0
  -28.9319  -15.2895   21.0085 H   0  0  0  0  0  0
  1 25  1  0  0  0
  1 30  2  0  0  0
  1 80  1  0  0  0
  2  3  1  0  0  0
  2 25  1  0  0  0
  2 83  1  0  0  0
  2 84  1  0  0  0
  3  4  1  0  0  0
  3 85  1  0  0  0
  3 86  1  0  0  0
  4  5  1  0  0  0
  4 87  1  0  0  0
  4 88  1  0  0  0
  5  6  1  0  0  0
  5 26  1  0  0  0
  5 89  1  0  0  0
  6 25  1  0  0  0
  6 90  1  0  0  0
  6 91  1  0  0  0
  7  8  2  0  0  0
  7 26  1  0  0  0
  7 29  1  0  0  0
  8  9  1  0  0  0
  8 22  1  0  0  0
  9 10  1  0  0  0
  9 27  2  0  0  0
 10 11  2  0  0  0
 10 15  1  0  0  0
 11 12  1  0  0  0
 11 92  1  0  0  0
 12 13  2  0  0  0
 12 93  1  0  0  0
 13 14  1  0  0  0
 13 31  1  0  0  0
 14 15  2  0  0  0
 14 94  1  0  0  0
 15 95  1  0  0  0
 16 17  2  0  0  0
 16 21  1  0  0  0
 16 31  1  0  0  0
 17 18  1  0  0  0
 17 96  1  0  0  0
 18 19  2  0  0  0
 18 97  1  0  0  0
 19 20  1  0  0  0
 19 24  1  0  0  0
 20 21  2  0  0  0
 20 98  1  0  0  0
 21 23  1  0  0  0
 22 28  1  0  0  0
 22 32  2  0  0  0
 26 27  1  0  0  0
 28 99  1  0  0  0
 28100  1  0  0  0
 29101  1  0  0  0
 29102  1  0  0  0
 33 34  1  0  0  0
 33 66  1  0  0  0
 33 70  2  0  0  0
 34 36  1  0  0  0
 34 59  1  0  0  0
 34103  1  0  0  0
 35 44  2  0  0  0
 35 45  1  0  0  0
 35 68  1  0  0  0
 36 56  1  0  0  0
 36104  1  0  0  0
 37 39  1  0  0  0
 37 47  1  0  0  0
 37 66  1  0  0  0
 37105  1  0  0  0
 38 43  2  0  0  0
 38 46  1  0  0  0
 38 47  1  0  0  0
 39 64  1  0  0  0
 39 67  2  0  0  0
 40 52  1  0  0  0
 40 53  2  0  0  0
 40 58  1  0  0  0
 41106  1  0  0  0
 41107  1  0  0  0
 41108  1  0  0  0
 41 48  1  0  0  0
 42 43  1  0  0  0
 42 66  1  0  0  0
 42109  1  0  0  0
 42110  1  0  0  0
 43 44  1  0  0  0
 44111  1  0  0  0
 45 46  2  0  0  0
 45112  1  0  0  0
 46113  1  0  0  0
 47114  1  0  0  0
 47115  1  0  0  0
 48 56  1  0  0  0
 48 65  1  0  0  0
 48116  1  0  0  0
 49 50  1  0  0  0
 49 53  1  0  0  0
 49 64  1  0  0  0
 49117  1  0  0  0
 50 51  1  0  0  0
 50118  1  0  0  0
 50119  1  0  0  0
 51 52  1  0  0  0
 51120  1  0  0  0
 51121  1  0  0  0
 52122  1  0  0  0
 52123  1  0  0  0
 53 54  1  0  0  0
 54 55  2  0  0  0
 54124  1  0  0  0
 55 57  1  0  0  0
 55125  1  0  0  0
 56 69  2  0  0  0
 57 58  2  0  0  0
 57126  1  0  0  0
 58127  1  0  0  0
 59 60  1  0  0  0
 59 61  1  0  0  0
 59 62  1  0  0  0
 60128  1  0  0  0
 60129  1  0  0  0
 60130  1  0  0  0
 61131  1  0  0  0
 61132  1  0  0  0
 61133  1  0  0  0
 62134  1  0  0  0
 62135  1  0  0  0
 62136  1  0  0  0
 63 65  1  0  0  0
 63137  1  0  0  0
 63138  1  0  0  0
 63139  1  0  0  0
 64140  1  0  0  0
 65141  1  0  0  0
 68 79  1  0  0  0
 71 72  1  0  0  0
 71 73  2  0  0  0
 71142  1  0  0  0
 72 74  2  0  0  0
 72 81  1  0  0  0
 73 75  1  0  0  0
 73 82  1  0  0  0
 74 76  1  0  0  0
 74 82  1  0  0  0
 75 79  1  0  0  0
 75143  1  0  0  0
 75144  1  0  0  0
 76 77  1  0  0  0
 76145  1  0  0  0
 76146  1  0  0  0
 77 78  1  0  0  0
 77147  1  0  0  0
 77148  1  0  0  0
 78 80  1  0  0  0
 78149  1  0  0  0
 78150  1  0  0  0
 79151  1  0  0  0
 79152  1  0  0  0
 80153  1  0  0  0
M  ISO  4   1 100  68 101  79 101  80 100
M  END
> <chiral flag>
0

> <version>
0

> <s_m_source_file>
/data/baiqing/PycharmProjects/Reinvent-master-3.2/result/LINK_invent/BTK/process_docking_weight1_custom_sum_contain_oxygen_bond_distance_aromatic_linkinvent_7_9_3/rearranged_h_0031.sdf

> <i_m_source_file_index>
43

> <r_mmod_Potential_Energy-OPLS-2005>
-74.7211380004883

> <r_mmod_Stretch_Energy-OPLS-2005>
34.6230392456055

> <r_mmod_Bend_Energy-OPLS-2005>
99.9805526733398

> <r_mmod_Torsional_Energy-OPLS-2005>
193.650802612305

> <r_mmod_Improper_Torsional_Energy-OPLS-2005>
10.4603185653687

> <r_mmod_Van_der_Waal_Energy-OPLS-2005>
129.058303833008

> <r_mmod_Electrostatic_Energy-OPLS-2005>
-357.002227783203

> <r_mmod_Solvation_Energy-OPLS-2005>
-202.553482055664

> <b_mmod_Minimization_Converged-OPLS-2005>
0

> <r_mmod_RMS_Derivative-OPLS-2005>
4.04990148544312

$$$$
43
                    3D
 Structure written by MMmdl.
156165  0  0  1  0            999 V2000
  -30.4937  -15.0118   20.3963 C   0  0  0  0  0  0
  -30.4417  -12.6188   19.5309 C   0  0  0  0  0  0
  -29.5330  -12.5444   18.2792 C   0  0  0  0  0  0
  -28.0653  -12.3211   18.6867 C   0  0  0  0  0  0
  -27.6312  -13.2537   19.8473 C   0  0  2  0  0  0
  -28.6659  -13.2931   20.9943 C   0  0  0  0  0  0
  -25.2454  -13.8223   20.5718 C   0  0  0  0  0  0
  -24.1772  -13.0442   20.9223 C   0  0  0  0  0  0
  -24.6396  -11.6929   20.8751 C   0  0  0  0  0  0
  -23.9081  -10.4297   21.0405 C   0  0  0  0  0  0
  -24.3629   -9.4210   21.9182 C   0  0  0  0  0  0
  -23.6300   -8.2247   22.0754 C   0  0  0  0  0  0
  -22.4280   -8.0285   21.3546 C   0  0  0  0  0  0
  -21.9919   -9.0260   20.4648 C   0  0  0  0  0  0
  -22.7252  -10.2137   20.3056 C   0  0  0  0  0  0
  -21.6857   -6.0739   22.5279 C   0  0  0  0  0  0
  -21.4018   -6.5641   23.8213 C   0  0  0  0  0  0
  -21.3660   -5.6793   24.9173 C   0  0  0  0  0  0
  -21.6043   -4.3056   24.7224 C   0  0  0  0  0  0
  -21.8819   -3.8148   23.4345 C   0  0  0  0  0  0
  -21.9194   -4.6965   22.3402 C   0  0  0  0  0  0
  -22.7792  -13.5210   21.1876 C   0  0  0  0  0  0
  -22.1661   -4.2152   21.0979 F   0  0  0  0  0  0
  -21.5627   -3.4538   25.7736 F   0  0  0  0  0  0
  -29.9442  -13.7227   20.4117 N   0  0  0  0  0  0
  -26.2886  -12.9466   20.3264 N   0  0  0  0  0  0
  -25.9331  -11.6589   20.5740 N   0  0  0  0  0  0
  -22.0443  -12.8201   22.0435 N   0  0  0  0  0  0
  -25.4119  -15.1953   20.4150 N   0  0  0  0  0  0
  -31.6640  -15.0997   20.0067 O   0  0  0  0  0  0
  -21.6643   -6.8883   21.4242 O   0  0  0  0  0  0
  -22.3476  -14.5512   20.6716 O   0  0  0  0  0  0
  -24.6454  -31.8368   23.1800 C   0  0  0  0  0  0
  -25.9209  -32.4652   23.8213 C   0  0  1  0  0  0
  -27.2295  -27.0929   20.1593 C   0  0  0  0  0  0
  -25.5939  -33.8461   24.2133 N   0  0  0  0  0  0
  -23.4520  -30.4496   21.5246 C   0  0  2  0  0  0
  -24.9041  -28.8597   20.1018 C   0  0  0  0  0  0
  -22.7576  -29.4499   22.4830 C   0  0  0  0  0  0
  -18.0304  -28.1396   22.8475 C   0  0  0  0  0  0
  -24.1491  -36.7240   23.2647 C   0  0  0  0  0  0
  -26.0063  -30.6961   21.3830 C   0  0  0  0  0  0
  -26.0758  -29.3021   20.7251 C   0  0  0  0  0  0
  -27.2300  -28.4323   20.7364 C   0  0  0  0  0  0
  -26.0343  -26.7500   19.4944 C   0  0  0  0  0  0
  -24.8987  -27.6008   19.4705 C   0  0  0  0  0  0
  -23.6800  -29.7663   20.1462 C   0  0  0  0  0  0
  -25.4127  -36.3008   24.0310 C   0  0  1  0  0  0
  -20.5916  -28.3721   23.1231 C   0  0  2  0  0  0
  -20.6783  -26.9419   22.5411 C   0  0  0  0  0  0
  -19.5761  -26.6377   21.5214 C   0  0  0  0  0  0
  -18.1942  -26.7934   22.1622 C   0  0  0  0  0  0
  -19.1561  -28.8878   23.2844 C   0  0  0  0  0  0
  -18.9479  -30.1473   23.8871 C   0  0  0  0  0  0
  -17.6475  -30.6593   24.0557 C   0  0  0  0  0  0
  -25.9078  -34.9385   23.5039 C   0  0  0  0  0  0
  -16.5365  -29.9085   23.6336 C   0  0  0  0  0  0
  -16.7289  -28.6503   23.0358 C   0  0  0  0  0  0
  -26.4526  -31.6551   25.0684 C   0  0  0  0  0  0
  -25.3702  -31.3754   26.1376 C   0  0  0  0  0  0
  -27.0408  -30.2945   24.6303 C   0  0  0  0  0  0
  -27.6042  -32.4337   25.7476 C   0  0  0  0  0  0
  -27.5572  -37.1777   24.8467 C   0  0  0  0  0  0
  -21.4264  -29.3032   22.3589 N   0  0  0  0  0  0
  -26.4285  -37.3728   23.9405 N   0  0  0  0  0  0
  -24.7210  -31.0181   22.0843 N   0  0  0  0  0  0
  -23.4200  -28.8074   23.3016 O   0  0  0  0  0  0
  -28.3144  -26.1486   20.3333 O   0  0  0  0  0  0
  -26.5682  -34.8897   22.4629 O   0  0  0  0  0  0
  -23.5567  -32.1264   23.7002 O   0  0  0  0  0  0
  -28.6605  -20.3083   20.2379 C   0  0  0  0  0  0
  -31.2833  -20.8576   20.4028 C   0  0  0  0  0  0
  -29.0108  -21.7637   20.2582 C   0  0  0  0  0  0
  -30.4022  -21.9661   20.2799 C   0  0  0  0  0  0
  -29.6353  -19.1767   20.3094 C   0  0  0  0  0  0
  -28.0643  -23.1315   20.2521 C   0  0  0  0  0  0
  -30.9832  -23.3705   20.0804 C   0  0  0  0  0  0
  -30.0894  -24.5903   20.4491 C   0  0  0  0  0  0
  -28.6527  -24.6732   19.8605 C   0  0  2  0  0  0
  -28.7095  -24.7881   18.3270 C   0  0  0  0  0  0
  -29.4497  -17.5673   19.8957 C   0  0  0  0  0  0
  -30.9300  -19.5429   20.4320 N   0  0  0  0  0  0
  -29.6990  -16.1769   20.6449 N   0  0  0  0  0  0
  -31.4784  -12.7739   19.2280 H   0  0  0  0  0  0
  -30.4355  -11.6690   20.0684 H   0  0  0  0  0  0
  -29.8642  -11.7440   17.6162 H   0  0  0  0  0  0
  -29.6186  -13.4707   17.7092 H   0  0  0  0  0  0
  -27.9652  -11.2799   18.9957 H   0  0  0  0  0  0
  -27.4071  -12.4487   17.8265 H   0  0  0  0  0  0
  -27.5926  -14.2545   19.4161 H   0  0  0  0  0  0
  -28.7589  -12.3184   21.4756 H   0  0  0  0  0  0
  -28.3492  -13.9904   21.7712 H   0  0  0  0  0  0
  -25.2774   -9.5685   22.4757 H   0  0  0  0  0  0
  -24.0008   -7.4639   22.7475 H   0  0  0  0  0  0
  -21.0850   -8.8783   19.8956 H   0  0  0  0  0  0
  -22.3711  -10.9676   19.6165 H   0  0  0  0  0  0
  -21.2013   -7.6149   23.9716 H   0  0  0  0  0  0
  -21.1481   -6.0523   25.9076 H   0  0  0  0  0  0
  -22.0597   -2.7610   23.2843 H   0  0  0  0  0  0
  -22.4070  -11.9874   22.4833 H   0  0  0  0  0  0
  -21.1056  -13.1218   22.2637 H   0  0  0  0  0  0
  -24.6403  -15.8447   20.5238 H   0  0  0  0  0  0
  -26.2525  -15.6353   20.0649 H   0  0  0  0  0  0
  -26.7270  -32.5239   23.0932 H   0  0  0  0  0  0
  -25.0044  -33.9561   25.0253 H   0  0  0  0  0  0
  -22.7567  -31.2760   21.3629 H   0  0  0  0  0  0
  -23.3757  -35.9568   23.3297 H   0  0  0  0  0  0
  -24.3569  -36.8891   22.2063 H   0  0  0  0  0  0
  -23.7246  -37.6429   23.6700 H   0  0  0  0  0  0
  -26.1668  -31.4475   20.6088 H   0  0  0  0  0  0
  -26.8744  -30.7480   22.0286 H   0  0  0  0  0  0
  -28.1191  -28.7613   21.2558 H   0  0  0  0  0  0
  -25.9473  -25.7748   19.0387 H   0  0  0  0  0  0
  -24.0004  -27.2557   18.9773 H   0  0  0  0  0  0
  -23.8154  -30.5355   19.3851 H   0  0  0  0  0  0
  -22.7946  -29.2065   19.8400 H   0  0  0  0  0  0
  -25.1322  -36.1823   25.0802 H   0  0  0  0  0  0
  -21.0010  -28.3319   24.1352 H   0  0  0  0  0  0
  -20.5665  -26.2337   23.3635 H   0  0  0  0  0  0
  -21.6650  -26.7412   22.1218 H   0  0  0  0  0  0
  -19.6920  -25.6280   21.1263 H   0  0  0  0  0  0
  -19.6703  -27.3171   20.6732 H   0  0  0  0  0  0
  -17.4212  -26.6680   21.4024 H   0  0  0  0  0  0
  -18.0338  -26.0081   22.9023 H   0  0  0  0  0  0
  -19.7956  -30.7294   24.2230 H   0  0  0  0  0  0
  -17.5029  -31.6271   24.5163 H   0  0  0  0  0  0
  -15.5365  -30.2979   23.7675 H   0  0  0  0  0  0
  -15.8689  -28.0812   22.7090 H   0  0  0  0  0  0
  -24.5885  -30.7100   25.7693 H   0  0  0  0  0  0
  -24.8888  -32.2941   26.4739 H   0  0  0  0  0  0
  -25.7976  -30.8964   27.0194 H   0  0  0  0  0  0
  -26.3037  -29.6648   24.1308 H   0  0  0  0  0  0
  -27.4006  -29.7270   25.4895 H   0  0  0  0  0  0
  -27.8945  -30.4176   23.9636 H   0  0  0  0  0  0
  -27.2621  -33.3660   26.1982 H   0  0  0  0  0  0
  -28.3888  -32.6865   25.0332 H   0  0  0  0  0  0
  -28.0673  -31.8515   26.5453 H   0  0  0  0  0  0
  -28.2585  -38.0076   24.7502 H   0  0  0  0  0  0
  -28.1072  -36.2603   24.6310 H   0  0  0  0  0  0
  -27.2285  -37.1440   25.8869 H   0  0  0  0  0  0
  -20.9485  -29.8723   21.6742 H   0  0  0  0  0  0
  -26.0146  -38.2794   24.1404 H   0  0  0  0  0  0
  -27.6166  -20.0505   20.1169 H   0  0  0  0  0  0
  -32.3487  -21.0336   20.4293 H   0  0  0  0  0  0
  -27.6786  -23.1994   21.2693 H   0  0  0  0  0  0
  -27.1859  -22.9257   19.6404 H   0  0  0  0  0  0
  -31.2753  -23.4509   19.0327 H   0  0  0  0  0  0
  -31.9131  -23.4418   20.6467 H   0  0  0  0  0  0
  -30.6400  -25.4955   20.1878 H   0  0  0  0  0  0
  -30.0002  -24.6171   21.5362 H   0  0  0  0  0  0
  -29.2982  -25.6501   18.0123 H   0  0  0  0  0  0
  -27.7143  -24.8948   17.8982 H   0  0  0  0  0  0
  -29.1567  -23.9019   17.8761 H   0  0  0  0  0  0
  -30.0034  -17.4685   18.9613 H   0  0  0  0  0  0
  -28.4083  -17.5039   19.5799 H   0  0  0  0  0  0
  -28.8786  -15.9291   21.1768 H   0  0  0  0  0  0
  1 25  1  0  0  0
  1 30  2  0  0  0
  1 83  1  0  0  0
  2  3  1  0  0  0
  2 25  1  0  0  0
  2 84  1  0  0  0
  2 85  1  0  0  0
  3  4  1  0  0  0
  3 86  1  0  0  0
  3 87  1  0  0  0
  4  5  1  0  0  0
  4 88  1  0  0  0
  4 89  1  0  0  0
  5  6  1  0  0  0
  5 26  1  0  0  0
  5 90  1  0  0  0
  6 25  1  0  0  0
  6 91  1  0  0  0
  6 92  1  0  0  0
  7  8  2  0  0  0
  7 26  1  0  0  0
  7 29  1  0  0  0
  8  9  1  0  0  0
  8 22  1  0  0  0
  9 10  1  0  0  0
  9 27  2  0  0  0
 10 11  2  0  0  0
 10 15  1  0  0  0
 11 12  1  0  0  0
 11 93  1  0  0  0
 12 13  2  0  0  0
 12 94  1  0  0  0
 13 14  1  0  0  0
 13 31  1  0  0  0
 14 15  2  0  0  0
 14 95  1  0  0  0
 15 96  1  0  0  0
 16 17  2  0  0  0
 16 21  1  0  0  0
 16 31  1  0  0  0
 17 18  1  0  0  0
 17 97  1  0  0  0
 18 19  2  0  0  0
 18 98  1  0  0  0
 19 20  1  0  0  0
 19 24  1  0  0  0
 20 21  2  0  0  0
 20 99  1  0  0  0
 21 23  1  0  0  0
 22 28  1  0  0  0
 22 32  2  0  0  0
 26 27  1  0  0  0
 28100  1  0  0  0
 28101  1  0  0  0
 29102  1  0  0  0
 29103  1  0  0  0
 33 34  1  0  0  0
 33 66  1  0  0  0
 33 70  2  0  0  0
 34 36  1  0  0  0
 34 59  1  0  0  0
 34104  1  0  0  0
 35 44  2  0  0  0
 35 45  1  0  0  0
 35 68  1  0  0  0
 36 56  1  0  0  0
 36105  1  0  0  0
 37 39  1  0  0  0
 37 47  1  0  0  0
 37 66  1  0  0  0
 37106  1  0  0  0
 38 43  2  0  0  0
 38 46  1  0  0  0
 38 47  1  0  0  0
 39 64  1  0  0  0
 39 67  2  0  0  0
 40 52  1  0  0  0
 40 53  2  0  0  0
 40 58  1  0  0  0
 41107  1  0  0  0
 41108  1  0  0  0
 41109  1  0  0  0
 41 48  1  0  0  0
 42 43  1  0  0  0
 42 66  1  0  0  0
 42110  1  0  0  0
 42111  1  0  0  0
 43 44  1  0  0  0
 44112  1  0  0  0
 45 46  2  0  0  0
 45113  1  0  0  0
 46114  1  0  0  0
 47115  1  0  0  0
 47116  1  0  0  0
 48 56  1  0  0  0
 48 65  1  0  0  0
 48117  1  0  0  0
 49 50  1  0  0  0
 49 53  1  0  0  0
 49 64  1  0  0  0
 49118  1  0  0  0
 50 51  1  0  0  0
 50119  1  0  0  0
 50120  1  0  0  0
 51 52  1  0  0  0
 51121  1  0  0  0
 51122  1  0  0  0
 52123  1  0  0  0
 52124  1  0  0  0
 53 54  1  0  0  0
 54 55  2  0  0  0
 54125  1  0  0  0
 55 57  1  0  0  0
 55126  1  0  0  0
 56 69  2  0  0  0
 57 58  2  0  0  0
 57127  1  0  0  0
 58128  1  0  0  0
 59 60  1  0  0  0
 59 61  1  0  0  0
 59 62  1  0  0  0
 60129  1  0  0  0
 60130  1  0  0  0
 60131  1  0  0  0
 61132  1  0  0  0
 61133  1  0  0  0
 61134  1  0  0  0
 62135  1  0  0  0
 62136  1  0  0  0
 62137  1  0  0  0
 63 65  1  0  0  0
 63138  1  0  0  0
 63139  1  0  0  0
 63140  1  0  0  0
 64141  1  0  0  0
 65142  1  0  0  0
 68 79  1  0  0  0
 71 73  2  0  0  0
 71 75  1  0  0  0
 71143  1  0  0  0
 72 74  2  0  0  0
 72 82  1  0  0  0
 72144  1  0  0  0
 73 74  1  0  0  0
 73 76  1  0  0  0
 74 77  1  0  0  0
 75 81  1  0  0  0
 75 82  2  0  0  0
 76 79  1  0  0  0
 76145  1  0  0  0
 76146  1  0  0  0
 77 78  1  0  0  0
 77147  1  0  0  0
 77148  1  0  0  0
 78 79  1  0  0  0
 78149  1  0  0  0
 78150  1  0  0  0
 79 80  1  0  0  0
 80151  1  0  0  0
 80152  1  0  0  0
 80153  1  0  0  0
 81 83  1  0  0  0
 81154  1  0  0  0
 81155  1  0  0  0
 83156  1  0  0  0
M  ISO  4   1 100  68 101  79 101  83 100
M  END
> <chiral flag>
0

> <version>
0

> <s_m_source_file>
/data/baiqing/PycharmProjects/Reinvent-master-3.2/result/LINK_invent/BTK/process_docking_weight1_custom_sum_contain_oxygen_bond_distance_aromatic_linkinvent_7_9_3/rearranged_h_0031.sdf

> <i_m_source_file_index>
44

> <r_mmod_Potential_Energy-OPLS-2005>
466.298645019531

> <r_mmod_Stretch_Energy-OPLS-2005>
299.614532470703

> <r_mmod_Bend_Energy-OPLS-2005>
373.114471435547

> <r_mmod_Torsional_Energy-OPLS-2005>
236.178115844727

> <r_mmod_Improper_Torsional_Energy-OPLS-2005>
8.17011642456055

> <r_mmod_Van_der_Waal_Energy-OPLS-2005>
127.501823425293

> <r_mmod_Electrostatic_Energy-OPLS-2005>
-571.594970703125

> <r_mmod_Solvation_Energy-OPLS-2005>
-242.726913452148

> <b_mmod_Minimization_Converged-OPLS-2005>
0

> <r_mmod_RMS_Derivative-OPLS-2005>
0.257626980543137

$$$$
44
                    3D
 Structure written by MMmdl.
178187  0  0  1  0            999 V2000
  -30.7225  -14.4611   20.4862 C   0  0  0  0  0  0
  -30.4055  -12.2713   19.4191 C   0  0  0  0  0  0
  -29.4880  -12.4707   18.1951 C   0  0  0  0  0  0
  -28.0051  -12.3607   18.6092 C   0  0  0  0  0  0
  -27.6561  -13.2090   19.8624 C   0  0  2  0  0  0
  -28.7052  -13.0189   20.9821 C   0  0  0  0  0  0
  -25.2556  -13.8184   20.5661 C   0  0  0  0  0  0
  -24.1804  -13.0444   20.9136 C   0  0  0  0  0  0
  -24.6380  -11.6918   20.8720 C   0  0  0  0  0  0
  -23.9060  -10.4302   21.0403 C   0  0  0  0  0  0
  -24.3611   -9.4219   21.9186 C   0  0  0  0  0  0
  -23.6280   -8.2255   22.0769 C   0  0  0  0  0  0
  -22.4254   -8.0294   21.3559 C   0  0  0  0  0  0
  -21.9883   -9.0272   20.4666 C   0  0  0  0  0  0
  -22.7220  -10.2147   20.3069 C   0  0  0  0  0  0
  -21.6853   -6.0723   22.5279 C   0  0  0  0  0  0
  -21.4016   -6.5627   23.8208 C   0  0  0  0  0  0
  -21.3659   -5.6782   24.9170 C   0  0  0  0  0  0
  -21.6034   -4.3043   24.7216 C   0  0  0  0  0  0
  -21.8811   -3.8133   23.4335 C   0  0  0  0  0  0
  -21.9179   -4.6948   22.3393 C   0  0  0  0  0  0
  -22.7826  -13.5259   21.1793 C   0  0  0  0  0  0
  -22.1646   -4.2136   21.0967 F   0  0  0  0  0  0
  -21.5633   -3.4532   25.7728 F   0  0  0  0  0  0
  -30.0303  -13.2926   20.4083 N   0  0  0  0  0  0
  -26.2993  -12.9355   20.3314 N   0  0  0  0  0  0
  -25.9295  -11.6521   20.5729 N   0  0  0  0  0  0
  -22.0446  -12.8312   22.0381 N   0  0  0  0  0  0
  -25.4262  -15.1908   20.4041 N   0  0  0  0  0  0
  -31.9156  -14.5368   20.1827 O   0  0  0  0  0  0
  -21.6631   -6.8877   21.4245 O   0  0  0  0  0  0
  -22.3503  -14.5540   20.6599 O   0  0  0  0  0  0
  -24.6175  -31.8700   23.2046 C   0  0  0  0  0  0
  -25.9068  -32.4828   23.8362 C   0  0  1  0  0  0
  -27.2530  -27.4723   20.0677 C   0  0  0  0  0  0
  -25.5950  -33.8614   24.2310 N   0  0  0  0  0  0
  -23.4034  -30.4925   21.5471 C   0  0  2  0  0  0
  -24.8540  -28.9600   20.1105 C   0  0  0  0  0  0
  -22.7405  -29.4689   22.5003 C   0  0  0  0  0  0
  -18.0267  -28.1329   22.8502 C   0  0  0  0  0  0
  -24.1486  -36.7343   23.2650 C   0  0  0  0  0  0
  -25.9295  -30.8474   21.3480 C   0  0  0  0  0  0
  -26.0135  -29.4843   20.6959 C   0  0  0  0  0  0
  -27.2189  -28.7479   20.6721 C   0  0  0  0  0  0
  -26.0790  -26.9502   19.4897 C   0  0  0  0  0  0
  -24.8820  -27.6927   19.5007 C   0  0  0  0  0  0
  -23.6056  -29.8140   20.1659 C   0  0  0  0  0  0
  -25.4115  -36.3123   24.0328 C   0  0  1  0  0  0
  -20.5855  -28.3648   23.1328 C   0  0  2  0  0  0
  -20.6778  -26.9390   22.5427 C   0  0  0  0  0  0
  -19.5756  -26.6353   21.5229 C   0  0  0  0  0  0
  -18.1919  -26.7879   22.1611 C   0  0  0  0  0  0
  -19.1510  -28.8803   23.2917 C   0  0  0  0  0  0
  -18.9424  -30.1405   23.8937 C   0  0  0  0  0  0
  -17.6426  -30.6546   24.0540 C   0  0  0  0  0  0
  -25.9058  -34.9479   23.5108 C   0  0  0  0  0  0
  -16.5331  -29.9033   23.6296 C   0  0  0  0  0  0
  -16.7257  -28.6425   23.0363 C   0  0  0  0  0  0
  -26.4417  -31.6536   25.0691 C   0  0  0  0  0  0
  -25.3652  -31.3654   26.1400 C   0  0  0  0  0  0
  -27.0093  -30.2925   24.6021 C   0  0  0  0  0  0
  -27.6036  -32.4117   25.7530 C   0  0  0  0  0  0
  -27.5564  -37.1813   24.8491 C   0  0  0  0  0  0
  -21.4133  -29.3042   22.3739 N   0  0  0  0  0  0
  -26.4277  -37.3826   23.9428 N   0  0  0  0  0  0
  -24.6686  -31.0834   22.0936 N   0  0  0  0  0  0
  -23.4207  -28.8242   23.3021 O   0  0  0  0  0  0
  -28.3736  -26.6815   20.1118 O   0  0  0  0  0  0
  -26.5606  -34.8929   22.4659 O   0  0  0  0  0  0
  -23.5367  -32.1422   23.7463 O   0  0  0  0  0  0
  -30.7263  -24.6867   23.2021 C   0  0  0  0  0  0
  -31.0494  -23.4152   22.7153 C   0  0  0  0  0  0
  -30.6473  -25.7876   22.3310 C   0  0  0  0  0  0
  -31.2933  -23.2142   21.3429 C   0  0  0  0  0  0
  -31.2144  -24.3153   20.4437 C   0  0  0  0  0  0
  -30.8872  -25.6143   20.9389 C   0  0  0  0  0  0
  -29.5831  -17.7433   21.5488 C   0  0  0  0  0  0
  -29.2688  -16.2270   21.4492 C   0  0  0  0  0  0
  -30.1807  -16.3868   19.1155 C   0  0  0  0  0  0
  -29.4198  -18.5513   20.2321 C   0  0  2  0  0  0
  -29.2285  -17.5919   19.0277 C   0  0  1  0  0  0
  -30.3233  -27.1454   22.9346 C   0  0  0  0  0  0
  -31.5129  -24.0849   18.9627 C   0  0  0  0  0  0
  -29.2641  -18.2781   17.6495 C   0  0  0  0  0  0
  -31.6290  -21.7887   20.9050 C   0  0  0  0  0  0
  -30.8119  -26.8394   20.0112 C   0  0  0  0  0  0
  -30.5655  -19.5958   20.0701 C   0  0  0  0  0  0
  -30.3900  -20.8685   20.9212 C   0  0  0  0  0  0
  -29.4659  -27.0197   19.2654 C   0  0  0  0  0  0
  -29.9588  -15.5685   20.3249 N   0  0  0  0  0  0
  -31.4550  -12.3242   19.1206 H   0  0  0  0  0  0
  -30.2621  -11.2737   19.8379 H   0  0  0  0  0  0
  -29.7183  -11.7321   17.4260 H   0  0  0  0  0  0
  -29.6720  -13.4429   17.7361 H   0  0  0  0  0  0
  -27.7971  -11.3077   18.8039 H   0  0  0  0  0  0
  -27.3630  -12.6443   17.7748 H   0  0  0  0  0  0
  -27.6907  -14.2513   19.5463 H   0  0  0  0  0  0
  -28.6706  -11.9986   21.3677 H   0  0  0  0  0  0
  -28.4927  -13.6642   21.8343 H   0  0  0  0  0  0
  -25.2770   -9.5655   22.4746 H   0  0  0  0  0  0
  -23.9969   -7.4632   22.7480 H   0  0  0  0  0  0
  -21.0812   -8.8797   19.8984 H   0  0  0  0  0  0
  -22.3695  -10.9677   19.6171 H   0  0  0  0  0  0
  -21.2048   -7.6142   23.9702 H   0  0  0  0  0  0
  -21.1484   -6.0521   25.9070 H   0  0  0  0  0  0
  -22.0596   -2.7595   23.2837 H   0  0  0  0  0  0
  -22.4058  -12.0045   22.4897 H   0  0  0  0  0  0
  -21.1059  -13.1375   22.2521 H   0  0  0  0  0  0
  -24.6612  -15.8469   20.5161 H   0  0  0  0  0  0
  -26.2835  -15.6317   20.0971 H   0  0  0  0  0  0
  -26.7159  -32.5550   23.1164 H   0  0  0  0  0  0
  -25.0028  -33.9751   25.0400 H   0  0  0  0  0  0
  -22.6947  -31.3107   21.4100 H   0  0  0  0  0  0
  -23.3721  -35.9709   23.3323 H   0  0  0  0  0  0
  -24.3554  -36.8957   22.2068 H   0  0  0  0  0  0
  -23.7252  -37.6565   23.6643 H   0  0  0  0  0  0
  -26.0289  -31.6082   20.5712 H   0  0  0  0  0  0
  -26.8263  -30.9110   21.9520 H   0  0  0  0  0  0
  -28.1139  -29.1483   21.1238 H   0  0  0  0  0  0
  -26.0932  -25.9700   19.0337 H   0  0  0  0  0  0
  -23.9892  -27.2852   19.0448 H   0  0  0  0  0  0
  -23.6887  -30.5829   19.3956 H   0  0  0  0  0  0
  -22.7360  -29.2133   19.8902 H   0  0  0  0  0  0
  -25.1284  -36.1984   25.0818 H   0  0  0  0  0  0
  -20.9956  -28.3239   24.1442 H   0  0  0  0  0  0
  -20.5708  -26.2263   23.3619 H   0  0  0  0  0  0
  -21.6648  -26.7427   22.1233 H   0  0  0  0  0  0
  -19.6929  -25.6276   21.1223 H   0  0  0  0  0  0
  -19.6691  -27.3189   20.6786 H   0  0  0  0  0  0
  -17.4215  -26.6661   21.3981 H   0  0  0  0  0  0
  -18.0296  -25.9976   22.8950 H   0  0  0  0  0  0
  -19.7904  -30.7205   24.2336 H   0  0  0  0  0  0
  -17.4970  -31.6241   24.5111 H   0  0  0  0  0  0
  -15.5324  -30.2939   23.7559 H   0  0  0  0  0  0
  -15.8669  -28.0720   22.7088 H   0  0  0  0  0  0
  -24.5874  -30.6956   25.7724 H   0  0  0  0  0  0
  -24.8785  -32.2827   26.4743 H   0  0  0  0  0  0
  -25.7963  -30.8899   27.0214 H   0  0  0  0  0  0
  -26.2566  -29.6985   24.0813 H   0  0  0  0  0  0
  -27.3526  -29.6934   25.4469 H   0  0  0  0  0  0
  -27.8615  -30.4122   23.9325 H   0  0  0  0  0  0
  -27.2739  -33.3444   26.2106 H   0  0  0  0  0  0
  -28.3907  -32.6591   25.0403 H   0  0  0  0  0  0
  -28.0573  -31.8149   26.5448 H   0  0  0  0  0  0
  -28.2589  -38.0096   24.7543 H   0  0  0  0  0  0
  -28.1014  -36.2629   24.6298 H   0  0  0  0  0  0
  -27.2264  -37.1480   25.8884 H   0  0  0  0  0  0
  -20.9277  -29.8722   21.6923 H   0  0  0  0  0  0
  -26.0153  -38.2898   24.1431 H   0  0  0  0  0  0
  -30.5476  -24.8153   24.2614 H   0  0  0  0  0  0
  -31.1157  -22.5858   23.4061 H   0  0  0  0  0  0
  -30.6034  -17.8503   21.9188 H   0  0  0  0  0  0
  -28.9595  -18.1883   22.3253 H   0  0  0  0  0  0
  -28.1971  -16.0738   21.3246 H   0  0  0  0  0  0
  -29.5331  -15.7499   22.3946 H   0  0  0  0  0  0
  -31.2133  -16.7359   19.0796 H   0  0  0  0  0  0
  -30.0475  -15.7497   18.2383 H   0  0  0  0  0  0
  -28.4858  -19.1113   20.2958 H   0  0  0  0  0  0
  -28.2170  -17.1898   19.1111 H   0  0  0  0  0  0
  -31.1899  -27.8051   22.8760 H   0  0  0  0  0  0
  -30.0421  -27.0585   23.9856 H   0  0  0  0  0  0
  -29.4931  -27.6193   22.4138 H   0  0  0  0  0  0
  -31.0033  -23.1929   18.6006 H   0  0  0  0  0  0
  -32.5826  -23.9422   18.8208 H   0  0  0  0  0  0
  -31.2008  -24.8916   18.3052 H   0  0  0  0  0  0
  -30.2704  -18.5909   17.3698 H   0  0  0  0  0  0
  -28.6192  -19.1584   17.6383 H   0  0  0  0  0  0
  -28.9124  -17.6101   16.8629 H   0  0  0  0  0  0
  -32.3899  -21.3904   21.5798 H   0  0  0  0  0  0
  -32.1029  -21.7766   19.9246 H   0  0  0  0  0  0
  -31.6391  -26.8124   19.3005 H   0  0  0  0  0  0
  -31.0072  -27.7470   20.5762 H   0  0  0  0  0  0
  -30.6366  -19.9432   19.0418 H   0  0  0  0  0  0
  -31.5290  -19.1282   20.2814 H   0  0  0  0  0  0
  -29.5407  -21.4185   20.5159 H   0  0  0  0  0  0
  -30.1236  -20.6216   21.9497 H   0  0  0  0  0  0
  -29.4230  -26.3515   18.4039 H   0  0  0  0  0  0
  -29.3986  -28.0327   18.8665 H   0  0  0  0  0  0
  1 25  1  0  0  0
  1 30  2  0  0  0
  1 90  1  0  0  0
  2  3  1  0  0  0
  2 25  1  0  0  0
  2 91  1  0  0  0
  2 92  1  0  0  0
  3  4  1  0  0  0
  3 93  1  0  0  0
  3 94  1  0  0  0
  4  5  1  0  0  0
  4 95  1  0  0  0
  4 96  1  0  0  0
  5  6  1  0  0  0
  5 26  1  0  0  0
  5 97  1  0  0  0
  6 25  1  0  0  0
  6 98  1  0  0  0
  6 99  1  0  0  0
  7  8  2  0  0  0
  7 26  1  0  0  0
  7 29  1  0  0  0
  8  9  1  0  0  0
  8 22  1  0  0  0
  9 10  1  0  0  0
  9 27  2  0  0  0
 10 11  2  0  0  0
 10 15  1  0  0  0
 11 12  1  0  0  0
 11100  1  0  0  0
 12 13  2  0  0  0
 12101  1  0  0  0
 13 14  1  0  0  0
 13 31  1  0  0  0
 14 15  2  0  0  0
 14102  1  0  0  0
 15103  1  0  0  0
 16 17  2  0  0  0
 16 21  1  0  0  0
 16 31  1  0  0  0
 17 18  1  0  0  0
 17104  1  0  0  0
 18 19  2  0  0  0
 18105  1  0  0  0
 19 20  1  0  0  0
 19 24  1  0  0  0
 20 21  2  0  0  0
 20106  1  0  0  0
 21 23  1  0  0  0
 22 28  1  0  0  0
 22 32  2  0  0  0
 26 27  1  0  0  0
 28107  1  0  0  0
 28108  1  0  0  0
 29109  1  0  0  0
 29110  1  0  0  0
 33 34  1  0  0  0
 33 66  1  0  0  0
 33 70  2  0  0  0
 34 36  1  0  0  0
 34 59  1  0  0  0
 34111  1  0  0  0
 35 44  2  0  0  0
 35 45  1  0  0  0
 35 68  1  0  0  0
 36 56  1  0  0  0
 36112  1  0  0  0
 37 39  1  0  0  0
 37 47  1  0  0  0
 37 66  1  0  0  0
 37113  1  0  0  0
 38 43  2  0  0  0
 38 46  1  0  0  0
 38 47  1  0  0  0
 39 64  1  0  0  0
 39 67  2  0  0  0
 40 52  1  0  0  0
 40 53  2  0  0  0
 40 58  1  0  0  0
 41114  1  0  0  0
 41115  1  0  0  0
 41116  1  0  0  0
 41 48  1  0  0  0
 42 43  1  0  0  0
 42 66  1  0  0  0
 42117  1  0  0  0
 42118  1  0  0  0
 43 44  1  0  0  0
 44119  1  0  0  0
 45 46  2  0  0  0
 45120  1  0  0  0
 46121  1  0  0  0
 47122  1  0  0  0
 47123  1  0  0  0
 48 56  1  0  0  0
 48 65  1  0  0  0
 48124  1  0  0  0
 49 50  1  0  0  0
 49 53  1  0  0  0
 49 64  1  0  0  0
 49125  1  0  0  0
 50 51  1  0  0  0
 50126  1  0  0  0
 50127  1  0  0  0
 51 52  1  0  0  0
 51128  1  0  0  0
 51129  1  0  0  0
 52130  1  0  0  0
 52131  1  0  0  0
 53 54  1  0  0  0
 54 55  2  0  0  0
 54132  1  0  0  0
 55 57  1  0  0  0
 55133  1  0  0  0
 56 69  2  0  0  0
 57 58  2  0  0  0
 57134  1  0  0  0
 58135  1  0  0  0
 59 60  1  0  0  0
 59 61  1  0  0  0
 59 62  1  0  0  0
 60136  1  0  0  0
 60137  1  0  0  0
 60138  1  0  0  0
 61139  1  0  0  0
 61140  1  0  0  0
 61141  1  0  0  0
 62142  1  0  0  0
 62143  1  0  0  0
 62144  1  0  0  0
 63 65  1  0  0  0
 63145  1  0  0  0
 63146  1  0  0  0
 63147  1  0  0  0
 64148  1  0  0  0
 65149  1  0  0  0
 68 89  1  0  0  0
 71 72  2  0  0  0
 71 73  1  0  0  0
 71150  1  0  0  0
 72 74  1  0  0  0
 72151  1  0  0  0
 73 76  2  0  0  0
 73 82  1  0  0  0
 74 75  2  0  0  0
 74 85  1  0  0  0
 75 76  1  0  0  0
 75 83  1  0  0  0
 76 86  1  0  0  0
 77 78  1  0  0  0
 77 80  1  0  0  0
 77152  1  0  0  0
 77153  1  0  0  0
 78 90  1  0  0  0
 78154  1  0  0  0
 78155  1  0  0  0
 79 81  1  0  0  0
 79 90  1  0  0  0
 79156  1  0  0  0
 79157  1  0  0  0
 80 81  1  0  0  0
 80 87  1  0  0  0
 80158  1  0  0  0
 81 84  1  0  0  0
 81159  1  0  0  0
 82160  1  0  0  0
 82161  1  0  0  0
 82162  1  0  0  0
 83163  1  0  0  0
 83164  1  0  0  0
 83165  1  0  0  0
 84166  1  0  0  0
 84167  1  0  0  0
 84168  1  0  0  0
 85 88  1  0  0  0
 85169  1  0  0  0
 85170  1  0  0  0
 86 89  1  0  0  0
 86171  1  0  0  0
 86172  1  0  0  0
 87 88  1  0  0  0
 87173  1  0  0  0
 87174  1  0  0  0
 88175  1  0  0  0
 88176  1  0  0  0
 89177  1  0  0  0
 89178  1  0  0  0
M  ISO  4   1 100  68 101  89 101  90 100
M  END
> <chiral flag>
0

> <version>
0

> <s_m_source_file>
/data/baiqing/PycharmProjects/Reinvent-master-3.2/result/LINK_invent/BTK/process_docking_weight1_custom_sum_contain_oxygen_bond_distance_aromatic_linkinvent_7_9_3/rearranged_h_0031.sdf

> <i_m_source_file_index>
45

> <r_mmod_Potential_Energy-OPLS-2005>
223.619689941406

> <r_mmod_Stretch_Energy-OPLS-2005>
42.4051170349121

> <r_mmod_Bend_Energy-OPLS-2005>
108.988830566406

> <r_mmod_Torsional_Energy-OPLS-2005>
377.376373291016

> <r_mmod_Improper_Torsional_Energy-OPLS-2005>
21.019250869751

> <r_mmod_Van_der_Waal_Energy-OPLS-2005>
156.418853759766

> <r_mmod_Electrostatic_Energy-OPLS-2005>
-311.268432617188

> <r_mmod_Solvation_Energy-OPLS-2005>
-191.054489135742

> <b_mmod_Minimization_Converged-OPLS-2005>
0

> <r_mmod_RMS_Derivative-OPLS-2005>
4.21719408035278

$$$$
45
                    3D
 Structure written by MMmdl.
156164  0  0  1  0            999 V2000
  -30.6300  -14.6071   20.5069 C   0  0  0  0  0  0
  -30.4387  -12.3726   19.4446 C   0  0  0  0  0  0
  -29.5070  -12.5083   18.2197 C   0  0  0  0  0  0
  -28.0285  -12.3524   18.6304 C   0  0  0  0  0  0
  -27.6567  -13.2104   19.8692 C   0  0  2  0  0  0
  -28.7030  -13.0447   20.9948 C   0  0  0  0  0  0
  -25.2576  -13.8158   20.5693 C   0  0  0  0  0  0
  -24.1834  -13.0425   20.9177 C   0  0  0  0  0  0
  -24.6398  -11.6897   20.8736 C   0  0  0  0  0  0
  -23.9066  -10.4284   21.0403 C   0  0  0  0  0  0
  -24.3615   -9.4201   21.9184 C   0  0  0  0  0  0
  -23.6286   -8.2240   22.0753 C   0  0  0  0  0  0
  -22.4269   -8.0281   21.3542 C   0  0  0  0  0  0
  -21.9900   -9.0256   20.4648 C   0  0  0  0  0  0
  -22.7233  -10.2133   20.3057 C   0  0  0  0  0  0
  -21.6853   -6.0733   22.5280 C   0  0  0  0  0  0
  -21.4019   -6.5637   23.8213 C   0  0  0  0  0  0
  -21.3658   -5.6790   24.9173 C   0  0  0  0  0  0
  -21.6041   -4.3053   24.7225 C   0  0  0  0  0  0
  -21.8822   -3.8143   23.4348 C   0  0  0  0  0  0
  -21.9192   -4.6960   22.3403 C   0  0  0  0  0  0
  -22.7858  -13.5227   21.1839 C   0  0  0  0  0  0
  -22.1661   -4.2148   21.0979 F   0  0  0  0  0  0
  -21.5620   -3.4536   25.7737 F   0  0  0  0  0  0
  -30.0216  -13.3834   20.4336 N   0  0  0  0  0  0
  -26.3008  -12.9328   20.3348 N   0  0  0  0  0  0
  -25.9330  -11.6488   20.5768 N   0  0  0  0  0  0
  -22.0494  -12.8237   22.0403 N   0  0  0  0  0  0
  -25.4276  -15.1887   20.4149 N   0  0  0  0  0  0
  -31.7875  -14.7839   20.1145 O   0  0  0  0  0  0
  -21.6635   -6.8878   21.4243 O   0  0  0  0  0  0
  -22.3551  -14.5533   20.6676 O   0  0  0  0  0  0
  -24.6233  -31.8613   23.2048 C   0  0  0  0  0  0
  -25.9092  -32.4785   23.8365 C   0  0  1  0  0  0
  -27.2277  -27.3430   20.1159 C   0  0  0  0  0  0
  -25.5915  -33.8583   24.2291 N   0  0  0  0  0  0
  -23.4162  -30.4847   21.5468 C   0  0  2  0  0  0
  -24.8638  -28.9432   20.1137 C   0  0  0  0  0  0
  -22.7460  -29.4622   22.4948 C   0  0  0  0  0  0
  -18.0283  -28.1371   22.8482 C   0  0  0  0  0  0
  -24.1488  -36.7299   23.2638 C   0  0  0  0  0  0
  -25.9549  -30.8001   21.3730 C   0  0  0  0  0  0
  -26.0311  -29.4284   20.7171 C   0  0  0  0  0  0
  -27.2177  -28.6401   20.7087 C   0  0  0  0  0  0
  -26.0422  -26.9108   19.4792 C   0  0  0  0  0  0
  -24.8697  -27.6882   19.4864 C   0  0  0  0  0  0
  -23.6301  -29.8197   20.1618 C   0  0  0  0  0  0
  -25.4109  -36.3084   24.0329 C   0  0  1  0  0  0
  -20.5880  -28.3669   23.1288 C   0  0  2  0  0  0
  -20.6768  -26.9393   22.5413 C   0  0  0  0  0  0
  -19.5752  -26.6371   21.5206 C   0  0  0  0  0  0
  -18.1929  -26.7916   22.1615 C   0  0  0  0  0  0
  -19.1535  -28.8838   23.2883 C   0  0  0  0  0  0
  -18.9459  -30.1439   23.8904 C   0  0  0  0  0  0
  -17.6461  -30.6575   24.0559 C   0  0  0  0  0  0
  -25.9043  -34.9451   23.5107 C   0  0  0  0  0  0
  -16.5352  -29.9073   23.6324 C   0  0  0  0  0  0
  -16.7272  -28.6487   23.0352 C   0  0  0  0  0  0
  -26.4493  -31.6584   25.0721 C   0  0  0  0  0  0
  -25.3743  -31.3723   26.1464 C   0  0  0  0  0  0
  -27.0321  -30.3008   24.6150 C   0  0  0  0  0  0
  -27.6056  -32.4316   25.7489 C   0  0  0  0  0  0
  -27.5580  -37.1801   24.8459 C   0  0  0  0  0  0
  -21.4177  -29.3029   22.3692 N   0  0  0  0  0  0
  -26.4290  -37.3775   23.9407 N   0  0  0  0  0  0
  -24.6833  -31.0645   22.0988 N   0  0  0  0  0  0
  -23.4193  -28.8162   23.3020 O   0  0  0  0  0  0
  -28.3540  -26.5139   20.1329 O   0  0  0  0  0  0
  -26.5614  -34.8918   22.4676 O   0  0  0  0  0  0
  -23.5404  -32.1399   23.7392 O   0  0  0  0  0  0
  -29.3417  -19.1171   19.3698 C   0  0  0  0  0  0
  -30.5749  -19.3359   21.4264 C   0  0  0  0  0  0
  -29.9656  -19.9703   20.3131 C   0  0  0  0  0  0
  -29.3280  -17.6982   19.5202 C   0  0  0  0  0  0
  -29.9542  -17.0676   20.6346 C   0  0  0  0  0  0
  -30.5678  -17.9209   21.5916 C   0  0  0  0  0  0
  -28.6271  -16.8666   18.4593 C   0  0  0  0  0  0
  -30.1270  -21.5056   20.0526 C   0  0  0  0  0  0
  -28.9945  -22.5257   20.4675 C   0  0  0  0  0  0
  -29.2582  -24.0513   20.0985 C   0  0  0  0  0  0
  -28.1485  -25.1003   20.5025 C   0  0  0  0  0  0
  -29.8171  -15.6382   20.8677 N   0  0  0  0  0  0
  -31.3056  -17.2492   23.0034 Cl  0  0  0  0  0  0
  -31.4810  -12.4948   19.1435 H   0  0  0  0  0  0
  -30.3667  -11.3726   19.8747 H   0  0  0  0  0  0
  -29.7648  -11.7641   17.4648 H   0  0  0  0  0  0
  -29.6564  -13.4827   17.7509 H   0  0  0  0  0  0
  -27.8569  -11.2973   18.8472 H   0  0  0  0  0  0
  -27.3764  -12.5992   17.7921 H   0  0  0  0  0  0
  -27.6794  -14.2484   19.5424 H   0  0  0  0  0  0
  -28.7085  -12.0173   21.3609 H   0  0  0  0  0  0
  -28.4553  -13.6639   21.8586 H   0  0  0  0  0  0
  -25.2767   -9.5668   22.4752 H   0  0  0  0  0  0
  -23.9990   -7.4632   22.7472 H   0  0  0  0  0  0
  -21.0825   -8.8783   19.8959 H   0  0  0  0  0  0
  -22.3701  -10.9670   19.6162 H   0  0  0  0  0  0
  -21.2023   -7.6150   23.9718 H   0  0  0  0  0  0
  -21.1471   -6.0519   25.9075 H   0  0  0  0  0  0
  -22.0602   -2.7605   23.2852 H   0  0  0  0  0  0
  -22.4099  -11.9900   22.4805 H   0  0  0  0  0  0
  -21.1114  -13.1278   22.2601 H   0  0  0  0  0  0
  -24.6588  -15.8397   20.5348 H   0  0  0  0  0  0
  -26.2797  -15.6365   20.1077 H   0  0  0  0  0  0
  -26.7158  -32.5471   23.1117 H   0  0  0  0  0  0
  -25.0067  -33.9734   25.0439 H   0  0  0  0  0  0
  -22.7085  -31.3043   21.4049 H   0  0  0  0  0  0
  -23.3740  -35.9642   23.3307 H   0  0  0  0  0  0
  -24.3582  -36.8913   22.2051 H   0  0  0  0  0  0
  -23.7253  -37.6508   23.6659 H   0  0  0  0  0  0
  -26.0832  -31.5648   20.6055 H   0  0  0  0  0  0
  -26.8363  -30.8496   22.0000 H   0  0  0  0  0  0
  -28.1155  -29.0089   21.1848 H   0  0  0  0  0  0
  -26.0058  -25.9657   18.9586 H   0  0  0  0  0  0
  -23.9788  -27.3153   18.9997 H   0  0  0  0  0  0
  -23.7462  -30.5963   19.4047 H   0  0  0  0  0  0
  -22.7512  -29.2461   19.8613 H   0  0  0  0  0  0
  -25.1288  -36.1939   25.0821 H   0  0  0  0  0  0
  -20.9972  -28.3239   24.1410 H   0  0  0  0  0  0
  -20.5648  -26.2278   23.3608 H   0  0  0  0  0  0
  -21.6644  -26.7411   22.1225 H   0  0  0  0  0  0
  -19.6914  -25.6285   21.1233 H   0  0  0  0  0  0
  -19.6693  -27.3180   20.6739 H   0  0  0  0  0  0
  -17.4199  -26.6664   21.4018 H   0  0  0  0  0  0
  -18.0328  -26.0053   22.9001 H   0  0  0  0  0  0
  -19.7938  -30.7251   24.2277 H   0  0  0  0  0  0
  -17.5017  -31.6259   24.5152 H   0  0  0  0  0  0
  -15.5354  -30.2980   23.7642 H   0  0  0  0  0  0
  -15.8670  -28.0806   22.7072 H   0  0  0  0  0  0
  -24.5915  -30.7066   25.7813 H   0  0  0  0  0  0
  -24.8945  -32.2890   26.4897 H   0  0  0  0  0  0
  -25.8088  -30.8907   27.0232 H   0  0  0  0  0  0
  -26.2877  -29.6767   24.1190 H   0  0  0  0  0  0
  -27.4043  -29.7253   25.4635 H   0  0  0  0  0  0
  -27.8742  -30.4297   23.9346 H   0  0  0  0  0  0
  -27.2661  -33.3605   26.2083 H   0  0  0  0  0  0
  -28.3860  -32.6889   25.0315 H   0  0  0  0  0  0
  -28.0730  -31.8431   26.5394 H   0  0  0  0  0  0
  -28.2596  -38.0098   24.7500 H   0  0  0  0  0  0
  -28.1075  -36.2629   24.6284 H   0  0  0  0  0  0
  -27.2301  -37.1451   25.8863 H   0  0  0  0  0  0
  -20.9343  -29.8767   21.6924 H   0  0  0  0  0  0
  -26.0170  -38.2849   24.1411 H   0  0  0  0  0  0
  -28.8835  -19.5600   18.4958 H   0  0  0  0  0  0
  -31.0794  -19.9403   22.1664 H   0  0  0  0  0  0
  -28.4692  -17.4406   17.5456 H   0  0  0  0  0  0
  -27.6529  -16.5375   18.8183 H   0  0  0  0  0  0
  -29.2155  -15.9885   18.1923 H   0  0  0  0  0  0
  -30.3138  -21.6268   18.9845 H   0  0  0  0  0  0
  -31.0561  -21.8171   20.5318 H   0  0  0  0  0  0
  -28.8310  -22.4469   21.5428 H   0  0  0  0  0  0
  -28.0597  -22.2123   20.0017 H   0  0  0  0  0  0
  -29.4099  -24.1183   19.0206 H   0  0  0  0  0  0
  -30.2019  -24.3626   20.5477 H   0  0  0  0  0  0
  -28.0398  -25.0760   21.5875 H   0  0  0  0  0  0
  -27.2087  -24.7098   20.1193 H   0  0  0  0  0  0
  -28.9003  -15.3440   21.1656 H   0  0  0  0  0  0
  1 25  1  0  0  0
  1 30  2  0  0  0
  1 82  1  0  0  0
  2  3  1  0  0  0
  2 25  1  0  0  0
  2 84  1  0  0  0
  2 85  1  0  0  0
  3  4  1  0  0  0
  3 86  1  0  0  0
  3 87  1  0  0  0
  4  5  1  0  0  0
  4 88  1  0  0  0
  4 89  1  0  0  0
  5  6  1  0  0  0
  5 26  1  0  0  0
  5 90  1  0  0  0
  6 25  1  0  0  0
  6 91  1  0  0  0
  6 92  1  0  0  0
  7  8  2  0  0  0
  7 26  1  0  0  0
  7 29  1  0  0  0
  8  9  1  0  0  0
  8 22  1  0  0  0
  9 10  1  0  0  0
  9 27  2  0  0  0
 10 11  2  0  0  0
 10 15  1  0  0  0
 11 12  1  0  0  0
 11 93  1  0  0  0
 12 13  2  0  0  0
 12 94  1  0  0  0
 13 14  1  0  0  0
 13 31  1  0  0  0
 14 15  2  0  0  0
 14 95  1  0  0  0
 15 96  1  0  0  0
 16 17  2  0  0  0
 16 21  1  0  0  0
 16 31  1  0  0  0
 17 18  1  0  0  0
 17 97  1  0  0  0
 18 19  2  0  0  0
 18 98  1  0  0  0
 19 20  1  0  0  0
 19 24  1  0  0  0
 20 21  2  0  0  0
 20 99  1  0  0  0
 21 23  1  0  0  0
 22 28  1  0  0  0
 22 32  2  0  0  0
 26 27  1  0  0  0
 28100  1  0  0  0
 28101  1  0  0  0
 29102  1  0  0  0
 29103  1  0  0  0
 33 34  1  0  0  0
 33 66  1  0  0  0
 33 70  2  0  0  0
 34 36  1  0  0  0
 34 59  1  0  0  0
 34104  1  0  0  0
 35 44  2  0  0  0
 35 45  1  0  0  0
 35 68  1  0  0  0
 36 56  1  0  0  0
 36105  1  0  0  0
 37 39  1  0  0  0
 37 47  1  0  0  0
 37 66  1  0  0  0
 37106  1  0  0  0
 38 43  2  0  0  0
 38 46  1  0  0  0
 38 47  1  0  0  0
 39 64  1  0  0  0
 39 67  2  0  0  0
 40 52  1  0  0  0
 40 53  2  0  0  0
 40 58  1  0  0  0
 41107  1  0  0  0
 41108  1  0  0  0
 41109  1  0  0  0
 41 48  1  0  0  0
 42 43  1  0  0  0
 42 66  1  0  0  0
 42110  1  0  0  0
 42111  1  0  0  0
 43 44  1  0  0  0
 44112  1  0  0  0
 45 46  2  0  0  0
 45113  1  0  0  0
 46114  1  0  0  0
 47115  1  0  0  0
 47116  1  0  0  0
 48 56  1  0  0  0
 48 65  1  0  0  0
 48117  1  0  0  0
 49 50  1  0  0  0
 49 53  1  0  0  0
 49 64  1  0  0  0
 49118  1  0  0  0
 50 51  1  0  0  0
 50119  1  0  0  0
 50120  1  0  0  0
 51 52  1  0  0  0
 51121  1  0  0  0
 51122  1  0  0  0
 52123  1  0  0  0
 52124  1  0  0  0
 53 54  1  0  0  0
 54 55  2  0  0  0
 54125  1  0  0  0
 55 57  1  0  0  0
 55126  1  0  0  0
 56 69  2  0  0  0
 57 58  2  0  0  0
 57127  1  0  0  0
 58128  1  0  0  0
 59 60  1  0  0  0
 59 61  1  0  0  0
 59 62  1  0  0  0
 60129  1  0  0  0
 60130  1  0  0  0
 60131  1  0  0  0
 61132  1  0  0  0
 61133  1  0  0  0
 61134  1  0  0  0
 62135  1  0  0  0
 62136  1  0  0  0
 62137  1  0  0  0
 63 65  1  0  0  0
 63138  1  0  0  0
 63139  1  0  0  0
 63140  1  0  0  0
 64141  1  0  0  0
 65142  1  0  0  0
 68 81  1  0  0  0
 71 73  2  0  0  0
 71 74  1  0  0  0
 71143  1  0  0  0
 72 73  1  0  0  0
 72 76  2  0  0  0
 72144  1  0  0  0
 73 78  1  0  0  0
 74 75  2  0  0  0
 74 77  1  0  0  0
 75 76  1  0  0  0
 75 82  1  0  0  0
 76 83  1  0  0  0
 77145  1  0  0  0
 77146  1  0  0  0
 77147  1  0  0  0
 78 79  1  0  0  0
 78148  1  0  0  0
 78149  1  0  0  0
 79 80  1  0  0  0
 79150  1  0  0  0
 79151  1  0  0  0
 80 81  1  0  0  0
 80152  1  0  0  0
 80153  1  0  0  0
 81154  1  0  0  0
 81155  1  0  0  0
 82156  1  0  0  0
M  ISO  4   1 100  68 101  81 101  82 100
M  END
> <chiral flag>
0

> <version>
0

> <s_m_source_file>
/data/baiqing/PycharmProjects/Reinvent-master-3.2/result/LINK_invent/BTK/process_docking_weight1_custom_sum_contain_oxygen_bond_distance_aromatic_linkinvent_7_9_3/rearranged_h_0031.sdf

> <i_m_source_file_index>
46

> <r_mmod_Potential_Energy-OPLS-2005>
15.8065118789673

> <r_mmod_Stretch_Energy-OPLS-2005>
66.7538146972656

> <r_mmod_Bend_Energy-OPLS-2005>
116.170120239258

> <r_mmod_Torsional_Energy-OPLS-2005>
251.004776000977

> <r_mmod_Improper_Torsional_Energy-OPLS-2005>
5.72558975219727

> <r_mmod_Van_der_Waal_Energy-OPLS-2005>
135.111022949219

> <r_mmod_Electrostatic_Energy-OPLS-2005>
-392.574005126953

> <r_mmod_Solvation_Energy-OPLS-2005>
-204.19856262207

> <b_mmod_Minimization_Converged-OPLS-2005>
0

> <r_mmod_RMS_Derivative-OPLS-2005>
1.02020359039307

$$$$
46
                    3D
 Structure written by MMmdl.
152160  0  0  1  0            999 V2000
  -30.4717  -15.2051   20.3758 C   0  0  0  0  0  0
  -30.4382  -12.7664   19.5203 C   0  0  0  0  0  0
  -29.5326  -12.5654   18.2806 C   0  0  0  0  0  0
  -28.0768  -12.3056   18.7059 C   0  0  0  0  0  0
  -27.6144  -13.2730   19.8245 C   0  0  2  0  0  0
  -28.6515  -13.4249   20.9580 C   0  0  0  0  0  0
  -25.2397  -13.8248   20.5742 C   0  0  0  0  0  0
  -24.1747  -13.0437   20.9255 C   0  0  0  0  0  0
  -24.6403  -11.6935   20.8766 C   0  0  0  0  0  0
  -23.9099  -10.4293   21.0412 C   0  0  0  0  0  0
  -24.3642   -9.4205   21.9188 C   0  0  0  0  0  0
  -23.6306   -8.2246   22.0759 C   0  0  0  0  0  0
  -22.4283   -8.0288   21.3553 C   0  0  0  0  0  0
  -21.9926   -9.0264   20.4655 C   0  0  0  0  0  0
  -22.7268  -10.2136   20.3062 C   0  0  0  0  0  0
  -21.6854   -6.0743   22.5283 C   0  0  0  0  0  0
  -21.4020   -6.5646   23.8219 C   0  0  0  0  0  0
  -21.3658   -5.6794   24.9177 C   0  0  0  0  0  0
  -21.6039   -4.3057   24.7224 C   0  0  0  0  0  0
  -21.8817   -3.8153   23.4345 C   0  0  0  0  0  0
  -21.9192   -4.6971   22.3401 C   0  0  0  0  0  0
  -22.7761  -13.5189   21.1900 C   0  0  0  0  0  0
  -22.1659   -4.2161   21.0977 F   0  0  0  0  0  0
  -21.5623   -3.4538   25.7737 F   0  0  0  0  0  0
  -29.8913  -13.9113   20.3327 N   0  0  0  0  0  0
  -26.2827  -12.9524   20.3220 N   0  0  0  0  0  0
  -25.9340  -11.6630   20.5729 N   0  0  0  0  0  0
  -22.0414  -12.8178   22.0454 N   0  0  0  0  0  0
  -25.4015  -15.1984   20.4177 N   0  0  0  0  0  0
  -31.6910  -15.2021   20.1591 O   0  0  0  0  0  0
  -21.6641   -6.8889   21.4248 O   0  0  0  0  0  0
  -22.3437  -14.5484   20.6730 O   0  0  0  0  0  0
  -24.6599  -31.8279   23.1748 C   0  0  0  0  0  0
  -25.9295  -32.4611   23.8199 C   0  0  1  0  0  0
  -27.2184  -26.9629   20.1740 C   0  0  0  0  0  0
  -25.5974  -33.8425   24.2103 N   0  0  0  0  0  0
  -23.4734  -30.4418   21.5235 C   0  0  2  0  0  0
  -24.9276  -28.8403   20.1110 C   0  0  0  0  0  0
  -22.7653  -29.4464   22.4796 C   0  0  0  0  0  0
  -18.0320  -28.1406   22.8469 C   0  0  0  0  0  0
  -24.1493  -36.7217   23.2645 C   0  0  0  0  0  0
  -26.0420  -30.6454   21.4019 C   0  0  0  0  0  0
  -26.1113  -29.2399   20.7437 C   0  0  0  0  0  0
  -27.2528  -28.3218   20.7529 C   0  0  0  0  0  0
  -26.0061  -26.7151   19.4881 C   0  0  0  0  0  0
  -24.8989  -27.5976   19.4632 C   0  0  0  0  0  0
  -23.7113  -29.7626   20.1481 C   0  0  0  0  0  0
  -25.4132  -36.2982   24.0302 C   0  0  1  0  0  0
  -20.5944  -28.3751   23.1194 C   0  0  2  0  0  0
  -20.6800  -26.9435   22.5400 C   0  0  0  0  0  0
  -19.5772  -26.6378   21.5212 C   0  0  0  0  0  0
  -18.1954  -26.7940   22.1622 C   0  0  0  0  0  0
  -19.1581  -28.8899   23.2819 C   0  0  0  0  0  0
  -18.9490  -30.1489   23.8854 C   0  0  0  0  0  0
  -17.6483  -30.6597   24.0556 C   0  0  0  0  0  0
  -25.9096  -34.9363   23.5022 C   0  0  0  0  0  0
  -16.5374  -29.9084   23.6343 C   0  0  0  0  0  0
  -16.7301  -28.6504   23.0364 C   0  0  0  0  0  0
  -26.4552  -31.6544   25.0714 C   0  0  0  0  0  0
  -25.3681  -31.3783   26.1370 C   0  0  0  0  0  0
  -27.0446  -30.2915   24.6430 C   0  0  0  0  0  0
  -27.6051  -32.4349   25.7511 C   0  0  0  0  0  0
  -27.5575  -37.1761   24.8460 C   0  0  0  0  0  0
  -21.4326  -29.3046   22.3542 N   0  0  0  0  0  0
  -26.4279  -37.3715   23.9409 N   0  0  0  0  0  0
  -24.7463  -30.9973   22.0869 N   0  0  0  0  0  0
  -23.4215  -28.8028   23.3022 O   0  0  0  0  0  0
  -28.2073  -25.8538   20.2567 O   0  0  0  0  0  0
  -26.5701  -34.8891   22.4616 O   0  0  0  0  0  0
  -23.5676  -32.1234   23.6856 O   0  0  0  0  0  0
  -29.2045  -20.5172   21.4767 C   0  0  0  0  0  0
  -28.8155  -21.9515   21.4224 C   0  0  0  0  0  0
  -28.5864  -22.7231   20.2077 C   0  0  0  0  0  0
  -29.3902  -19.6248   20.3473 C   0  0  0  0  0  0
  -28.8133  -21.7589   19.1272 C   0  0  0  0  0  0
  -28.6257  -22.6767   22.7405 C   0  0  0  0  0  0
  -28.6079  -22.2296   17.7012 C   0  0  0  0  0  0
  -27.8200  -24.2857   20.0409 C   0  0  0  0  0  0
  -30.1590  -18.0633   20.3297 C   0  0  0  0  0  0
  -29.1904  -20.3846   19.1970 N   0  0  0  0  0  0
  -29.7329  -16.4759   20.4549 N   0  0  0  0  0  0
  -31.4614  -12.9556   19.1925 H   0  0  0  0  0  0
  -30.4871  -11.8544   20.1174 H   0  0  0  0  0  0
  -29.8999  -11.7391   17.6706 H   0  0  0  0  0  0
  -29.5767  -13.4548   17.6509 H   0  0  0  0  0  0
  -28.0185  -11.2775   19.0647 H   0  0  0  0  0  0
  -27.4099  -12.3671   17.8450 H   0  0  0  0  0  0
  -27.5370  -14.2465   19.3392 H   0  0  0  0  0  0
  -28.8036  -12.4846   21.4901 H   0  0  0  0  0  0
  -28.3039  -14.1493   21.6959 H   0  0  0  0  0  0
  -25.2789   -9.5674   22.4764 H   0  0  0  0  0  0
  -24.0014   -7.4631   22.7475 H   0  0  0  0  0  0
  -21.0859   -8.8793   19.8954 H   0  0  0  0  0  0
  -22.3738  -10.9677   19.6171 H   0  0  0  0  0  0
  -21.2023   -7.6155   23.9727 H   0  0  0  0  0  0
  -21.1477   -6.0522   25.9080 H   0  0  0  0  0  0
  -22.0596   -2.7616   23.2838 H   0  0  0  0  0  0
  -22.4039  -11.9854   22.4864 H   0  0  0  0  0  0
  -21.1026  -13.1198   22.2651 H   0  0  0  0  0  0
  -24.6288  -15.8459   20.5313 H   0  0  0  0  0  0
  -26.2377  -15.6418   20.0621 H   0  0  0  0  0  0
  -26.7364  -32.5162   23.0917 H   0  0  0  0  0  0
  -25.0067  -33.9512   25.0215 H   0  0  0  0  0  0
  -22.7843  -31.2724   21.3565 H   0  0  0  0  0  0
  -23.3773  -35.9528   23.3268 H   0  0  0  0  0  0
  -24.3572  -36.8901   22.2067 H   0  0  0  0  0  0
  -23.7231  -37.6388   23.6723 H   0  0  0  0  0  0
  -26.2199  -31.3911   20.6259 H   0  0  0  0  0  0
  -26.9027  -30.6991   22.0568 H   0  0  0  0  0  0
  -28.1473  -28.6246   21.2789 H   0  0  0  0  0  0
  -25.8667  -25.7720   18.9836 H   0  0  0  0  0  0
  -24.0005  -27.2876   18.9477 H   0  0  0  0  0  0
  -23.8626  -30.5334   19.3916 H   0  0  0  0  0  0
  -22.8223  -29.2144   19.8316 H   0  0  0  0  0  0
  -25.1326  -36.1785   25.0792 H   0  0  0  0  0  0
  -21.0032  -28.3357   24.1318 H   0  0  0  0  0  0
  -20.5683  -26.2365   23.3636 H   0  0  0  0  0  0
  -21.6662  -26.7416   22.1202 H   0  0  0  0  0  0
  -19.6931  -25.6276   21.1273 H   0  0  0  0  0  0
  -19.6713  -27.3161   20.6722 H   0  0  0  0  0  0
  -17.4220  -26.6682   21.4028 H   0  0  0  0  0  0
  -18.0354  -26.0092   22.9030 H   0  0  0  0  0  0
  -19.7963  -30.7319   24.2203 H   0  0  0  0  0  0
  -17.5033  -31.6272   24.5167 H   0  0  0  0  0  0
  -15.5372  -30.2971   23.7691 H   0  0  0  0  0  0
  -15.8703  -28.0803   22.7113 H   0  0  0  0  0  0
  -24.5879  -30.7117   25.7672 H   0  0  0  0  0  0
  -24.8849  -32.2980   26.4680 H   0  0  0  0  0  0
  -25.7913  -30.9022   27.0224 H   0  0  0  0  0  0
  -26.3107  -29.6595   24.1416 H   0  0  0  0  0  0
  -27.3963  -29.7273   25.5079 H   0  0  0  0  0  0
  -27.9056  -30.4101   23.9850 H   0  0  0  0  0  0
  -27.2623  -33.3691   26.1974 H   0  0  0  0  0  0
  -28.3918  -32.6847   25.0378 H   0  0  0  0  0  0
  -28.0657  -31.8553   26.5521 H   0  0  0  0  0  0
  -28.2559  -38.0089   24.7534 H   0  0  0  0  0  0
  -28.1107  -36.2619   24.6255 H   0  0  0  0  0  0
  -27.2294  -37.1360   25.8861 H   0  0  0  0  0  0
  -20.9574  -29.8730   21.6671 H   0  0  0  0  0  0
  -26.0134  -38.2771   24.1434 H   0  0  0  0  0  0
  -29.3987  -20.0868   22.4502 H   0  0  0  0  0  0
  -28.8663  -22.0388   23.5910 H   0  0  0  0  0  0
  -27.5928  -23.0068   22.8496 H   0  0  0  0  0  0
  -29.2716  -23.5542   22.7873 H   0  0  0  0  0  0
  -27.5445  -22.3259   17.4831 H   0  0  0  0  0  0
  -29.0377  -21.5319   16.9816 H   0  0  0  0  0  0
  -29.0838  -23.1977   17.5438 H   0  0  0  0  0  0
  -26.9145  -24.1685   20.6365 H   0  0  0  0  0  0
  -27.4570  -24.2660   19.0154 H   0  0  0  0  0  0
  -30.9245  -18.1663   21.0988 H   0  0  0  0  0  0
  -30.7321  -18.0849   19.4029 H   0  0  0  0  0  0
  -28.7402  -16.3506   20.5805 H   0  0  0  0  0  0
  1 25  1  0  0  0
  1 30  2  0  0  0
  1 81  1  0  0  0
  2  3  1  0  0  0
  2 25  1  0  0  0
  2 82  1  0  0  0
  2 83  1  0  0  0
  3  4  1  0  0  0
  3 84  1  0  0  0
  3 85  1  0  0  0
  4  5  1  0  0  0
  4 86  1  0  0  0
  4 87  1  0  0  0
  5  6  1  0  0  0
  5 26  1  0  0  0
  5 88  1  0  0  0
  6 25  1  0  0  0
  6 89  1  0  0  0
  6 90  1  0  0  0
  7  8  2  0  0  0
  7 26  1  0  0  0
  7 29  1  0  0  0
  8  9  1  0  0  0
  8 22  1  0  0  0
  9 10  1  0  0  0
  9 27  2  0  0  0
 10 11  2  0  0  0
 10 15  1  0  0  0
 11 12  1  0  0  0
 11 91  1  0  0  0
 12 13  2  0  0  0
 12 92  1  0  0  0
 13 14  1  0  0  0
 13 31  1  0  0  0
 14 15  2  0  0  0
 14 93  1  0  0  0
 15 94  1  0  0  0
 16 17  2  0  0  0
 16 21  1  0  0  0
 16 31  1  0  0  0
 17 18  1  0  0  0
 17 95  1  0  0  0
 18 19  2  0  0  0
 18 96  1  0  0  0
 19 20  1  0  0  0
 19 24  1  0  0  0
 20 21  2  0  0  0
 20 97  1  0  0  0
 21 23  1  0  0  0
 22 28  1  0  0  0
 22 32  2  0  0  0
 26 27  1  0  0  0
 28 98  1  0  0  0
 28 99  1  0  0  0
 29100  1  0  0  0
 29101  1  0  0  0
 33 34  1  0  0  0
 33 66  1  0  0  0
 33 70  2  0  0  0
 34 36  1  0  0  0
 34 59  1  0  0  0
 34102  1  0  0  0
 35 44  2  0  0  0
 35 45  1  0  0  0
 35 68  1  0  0  0
 36 56  1  0  0  0
 36103  1  0  0  0
 37 39  1  0  0  0
 37 47  1  0  0  0
 37 66  1  0  0  0
 37104  1  0  0  0
 38 43  2  0  0  0
 38 46  1  0  0  0
 38 47  1  0  0  0
 39 64  1  0  0  0
 39 67  2  0  0  0
 40 52  1  0  0  0
 40 53  2  0  0  0
 40 58  1  0  0  0
 41105  1  0  0  0
 41106  1  0  0  0
 41107  1  0  0  0
 41 48  1  0  0  0
 42 43  1  0  0  0
 42 66  1  0  0  0
 42108  1  0  0  0
 42109  1  0  0  0
 43 44  1  0  0  0
 44110  1  0  0  0
 45 46  2  0  0  0
 45111  1  0  0  0
 46112  1  0  0  0
 47113  1  0  0  0
 47114  1  0  0  0
 48 56  1  0  0  0
 48 65  1  0  0  0
 48115  1  0  0  0
 49 50  1  0  0  0
 49 53  1  0  0  0
 49 64  1  0  0  0
 49116  1  0  0  0
 50 51  1  0  0  0
 50117  1  0  0  0
 50118  1  0  0  0
 51 52  1  0  0  0
 51119  1  0  0  0
 51120  1  0  0  0
 52121  1  0  0  0
 52122  1  0  0  0
 53 54  1  0  0  0
 54 55  2  0  0  0
 54123  1  0  0  0
 55 57  1  0  0  0
 55124  1  0  0  0
 56 69  2  0  0  0
 57 58  2  0  0  0
 57125  1  0  0  0
 58126  1  0  0  0
 59 60  1  0  0  0
 59 61  1  0  0  0
 59 62  1  0  0  0
 60127  1  0  0  0
 60128  1  0  0  0
 60129  1  0  0  0
 61130  1  0  0  0
 61131  1  0  0  0
 61132  1  0  0  0
 62133  1  0  0  0
 62134  1  0  0  0
 62135  1  0  0  0
 63 65  1  0  0  0
 63136  1  0  0  0
 63137  1  0  0  0
 63138  1  0  0  0
 64139  1  0  0  0
 65140  1  0  0  0
 68 78  1  0  0  0
 71 72  2  0  0  0
 71 74  1  0  0  0
 71141  1  0  0  0
 72 73  1  0  0  0
 72 76  1  0  0  0
 73 75  2  0  0  0
 73 78  1  0  0  0
 74 79  1  0  0  0
 74 80  2  0  0  0
 75 77  1  0  0  0
 75 80  1  0  0  0
 76142  1  0  0  0
 76143  1  0  0  0
 76144  1  0  0  0
 77145  1  0  0  0
 77146  1  0  0  0
 77147  1  0  0  0
 78148  1  0  0  0
 78149  1  0  0  0
 79 81  1  0  0  0
 79150  1  0  0  0
 79151  1  0  0  0
 81152  1  0  0  0
M  ISO  4   1 100  68 101  78 101  81 100
M  END
> <chiral flag>
0

> <version>
0

> <s_m_source_file>
/data/baiqing/PycharmProjects/Reinvent-master-3.2/result/LINK_invent/BTK/process_docking_weight1_custom_sum_contain_oxygen_bond_distance_aromatic_linkinvent_7_9_3/rearranged_h_0031.sdf

> <i_m_source_file_index>
47

> <r_mmod_Potential_Energy-OPLS-2005>
845.948303222656

> <r_mmod_Stretch_Energy-OPLS-2005>
464.744445800781

> <r_mmod_Bend_Energy-OPLS-2005>
419.141143798828

> <r_mmod_Torsional_Energy-OPLS-2005>
225.636566162109

> <r_mmod_Improper_Torsional_Energy-OPLS-2005>
9.57733345031738

> <r_mmod_Van_der_Waal_Energy-OPLS-2005>
134.01025390625

> <r_mmod_Electrostatic_Energy-OPLS-2005>
-580.278625488281

> <r_mmod_Solvation_Energy-OPLS-2005>
-231.366943359375

> <b_mmod_Minimization_Converged-OPLS-2005>
0

> <r_mmod_RMS_Derivative-OPLS-2005>
0.747876167297363

$$$$
47
                    3D
 Structure written by MMmdl.
156164  0  0  1  0            999 V2000
  -30.6284  -14.6262   20.5053 C   0  0  0  0  0  0
  -30.4405  -12.3873   19.4444 C   0  0  0  0  0  0
  -29.5063  -12.5098   18.2199 C   0  0  0  0  0  0
  -28.0293  -12.3465   18.6320 C   0  0  0  0  0  0
  -27.6542  -13.2123   19.8636 C   0  0  2  0  0  0
  -28.7011  -13.0605   20.9907 C   0  0  0  0  0  0
  -25.2559  -13.8153   20.5683 C   0  0  0  0  0  0
  -24.1823  -13.0418   20.9175 C   0  0  0  0  0  0
  -24.6396  -11.6889   20.8725 C   0  0  0  0  0  0
  -23.9064  -10.4276   21.0402 C   0  0  0  0  0  0
  -24.3616   -9.4188   21.9183 C   0  0  0  0  0  0
  -23.6280   -8.2232   22.0756 C   0  0  0  0  0  0
  -22.4265   -8.0276   21.3548 C   0  0  0  0  0  0
  -21.9900   -9.0249   20.4650 C   0  0  0  0  0  0
  -22.7236  -10.2123   20.3055 C   0  0  0  0  0  0
  -21.6848   -6.0723   22.5279 C   0  0  0  0  0  0
  -21.4011   -6.5627   23.8214 C   0  0  0  0  0  0
  -21.3660   -5.6782   24.9176 C   0  0  0  0  0  0
  -21.6050   -4.3045   24.7227 C   0  0  0  0  0  0
  -21.8818   -3.8136   23.4350 C   0  0  0  0  0  0
  -21.9186   -4.6951   22.3403 C   0  0  0  0  0  0
  -22.7848  -13.5221   21.1839 C   0  0  0  0  0  0
  -22.1657   -4.2134   21.0980 F   0  0  0  0  0  0
  -21.5629   -3.4530   25.7743 F   0  0  0  0  0  0
  -30.0177  -13.4023   20.4281 N   0  0  0  0  0  0
  -26.2992  -12.9336   20.3321 N   0  0  0  0  0  0
  -25.9324  -11.6492   20.5744 N   0  0  0  0  0  0
  -22.0487  -12.8228   22.0403 N   0  0  0  0  0  0
  -25.4244  -15.1879   20.4138 N   0  0  0  0  0  0
  -31.7909  -14.7957   20.1267 O   0  0  0  0  0  0
  -21.6629   -6.8872   21.4245 O   0  0  0  0  0  0
  -22.3536  -14.5524   20.6678 O   0  0  0  0  0  0
  -24.6264  -31.8606   23.2027 C   0  0  0  0  0  0
  -25.9115  -32.4779   23.8355 C   0  0  1  0  0  0
  -27.2242  -27.3263   20.1105 C   0  0  0  0  0  0
  -25.5931  -33.8578   24.2282 N   0  0  0  0  0  0
  -23.4191  -30.4855   21.5458 C   0  0  2  0  0  0
  -24.8643  -28.9448   20.1094 C   0  0  0  0  0  0
  -22.7476  -29.4632   22.4935 C   0  0  0  0  0  0
  -18.0284  -28.1388   22.8481 C   0  0  0  0  0  0
  -24.1488  -36.7298   23.2639 C   0  0  0  0  0  0
  -25.9603  -30.7943   21.3721 C   0  0  0  0  0  0
  -26.0340  -29.4231   20.7127 C   0  0  0  0  0  0
  -27.2174  -28.6270   20.7013 C   0  0  0  0  0  0
  -26.0277  -26.9009   19.4846 C   0  0  0  0  0  0
  -24.8637  -27.6900   19.4847 C   0  0  0  0  0  0
  -23.6319  -29.8234   20.1600 C   0  0  0  0  0  0
  -25.4111  -36.3083   24.0329 C   0  0  1  0  0  0
  -20.5886  -28.3690   23.1283 C   0  0  2  0  0  0
  -20.6772  -26.9413   22.5408 C   0  0  0  0  0  0
  -19.5751  -26.6388   21.5206 C   0  0  0  0  0  0
  -18.1930  -26.7932   22.1619 C   0  0  0  0  0  0
  -19.1536  -28.8856   23.2878 C   0  0  0  0  0  0
  -18.9460  -30.1455   23.8898 C   0  0  0  0  0  0
  -17.6459  -30.6587   24.0565 C   0  0  0  0  0  0
  -25.9048  -34.9450   23.5105 C   0  0  0  0  0  0
  -16.5351  -29.9087   23.6326 C   0  0  0  0  0  0
  -16.7271  -28.6506   23.0345 C   0  0  0  0  0  0
  -26.4503  -31.6586   25.0722 C   0  0  0  0  0  0
  -25.3746  -31.3718   26.1456 C   0  0  0  0  0  0
  -27.0344  -30.3012   24.6169 C   0  0  0  0  0  0
  -27.6065  -32.4321   25.7492 C   0  0  0  0  0  0
  -27.5579  -37.1802   24.8463 C   0  0  0  0  0  0
  -21.4188  -29.3045   22.3679 N   0  0  0  0  0  0
  -26.4291  -37.3775   23.9408 N   0  0  0  0  0  0
  -24.6877  -31.0631   22.0969 N   0  0  0  0  0  0
  -23.4201  -28.8164   23.3007 O   0  0  0  0  0  0
  -28.3479  -26.4850   20.1544 O   0  0  0  0  0  0
  -26.5612  -34.8920   22.4668 O   0  0  0  0  0  0
  -23.5433  -32.1402   23.7359 O   0  0  0  0  0  0
  -29.3031  -19.2165   19.5140 C   0  0  0  0  0  0
  -30.6383  -17.9226   21.5997 C   0  0  0  0  0  0
  -29.2741  -17.7916   19.6160 C   0  0  0  0  0  0
  -29.9931  -20.0375   20.4441 C   0  0  0  0  0  0
  -29.9600  -17.1061   20.6595 C   0  0  0  0  0  0
  -30.6580  -19.3461   21.5011 C   0  0  0  0  0  0
  -28.4942  -17.0077   18.5754 C   0  0  0  0  0  0
  -30.1624  -21.5879   20.2020 C   0  0  0  0  0  0
  -29.3361  -24.0319   20.3161 C   0  0  0  0  0  0
  -28.1176  -25.0228   20.0979 C   0  0  0  0  0  0
  -29.8146  -15.6675   20.8563 N   0  0  0  0  0  0
  -29.0064  -22.5428   20.3976 N   0  3  0  0  0  0
  -31.5379  -20.2186   22.7067 Cl  0  0  0  0  0  0
  -31.4808  -12.5153   19.1400 H   0  0  0  0  0  0
  -30.3779  -11.3891   19.8797 H   0  0  0  0  0  0
  -29.7677  -11.7642   17.4677 H   0  0  0  0  0  0
  -29.6468  -13.4826   17.7460 H   0  0  0  0  0  0
  -27.8644  -11.2921   18.8568 H   0  0  0  0  0  0
  -27.3763  -12.5830   17.7912 H   0  0  0  0  0  0
  -27.6715  -14.2474   19.5252 H   0  0  0  0  0  0
  -28.7100  -12.0363   21.3667 H   0  0  0  0  0  0
  -28.4493  -13.6872   21.8473 H   0  0  0  0  0  0
  -25.2768   -9.5642   22.4745 H   0  0  0  0  0  0
  -23.9978   -7.4617   22.7476 H   0  0  0  0  0  0
  -21.0828   -8.8781   19.8955 H   0  0  0  0  0  0
  -22.3715  -10.9660   19.6153 H   0  0  0  0  0  0
  -21.2009   -7.6137   23.9716 H   0  0  0  0  0  0
  -21.1486   -6.0512   25.9080 H   0  0  0  0  0  0
  -22.0597   -2.7595   23.2861 H   0  0  0  0  0  0
  -22.4097  -11.9892   22.4804 H   0  0  0  0  0  0
  -21.1110  -13.1268   22.2610 H   0  0  0  0  0  0
  -24.6557  -15.8388   20.5335 H   0  0  0  0  0  0
  -26.2747  -15.6348   20.1000 H   0  0  0  0  0  0
  -26.7185  -32.5453   23.1108 H   0  0  0  0  0  0
  -25.0080  -33.9723   25.0428 H   0  0  0  0  0  0
  -22.7128  -31.3060   21.4049 H   0  0  0  0  0  0
  -23.3743  -35.9638   23.3303 H   0  0  0  0  0  0
  -24.3580  -36.8916   22.2053 H   0  0  0  0  0  0
  -23.7249  -37.6505   23.6658 H   0  0  0  0  0  0
  -26.0924  -31.5590   20.6052 H   0  0  0  0  0  0
  -26.8411  -30.8413   22.0012 H   0  0  0  0  0  0
  -28.1156  -28.9920   21.1791 H   0  0  0  0  0  0
  -25.9533  -25.9474   18.9858 H   0  0  0  0  0  0
  -23.9692  -27.3219   19.0005 H   0  0  0  0  0  0
  -23.7482  -30.6015   19.4047 H   0  0  0  0  0  0
  -22.7523  -29.2524   19.8577 H   0  0  0  0  0  0
  -25.1290  -36.1936   25.0821 H   0  0  0  0  0  0
  -20.9974  -28.3260   24.1406 H   0  0  0  0  0  0
  -20.5662  -26.2298   23.3604 H   0  0  0  0  0  0
  -21.6643  -26.7437   22.1210 H   0  0  0  0  0  0
  -19.6913  -25.6298   21.1235 H   0  0  0  0  0  0
  -19.6693  -27.3197   20.6735 H   0  0  0  0  0  0
  -17.4196  -26.6669   21.4025 H   0  0  0  0  0  0
  -18.0338  -26.0077   22.9020 H   0  0  0  0  0  0
  -19.7933  -30.7271   24.2272 H   0  0  0  0  0  0
  -17.5012  -31.6265   24.5169 H   0  0  0  0  0  0
  -15.5351  -30.2990   23.7653 H   0  0  0  0  0  0
  -15.8669  -28.0829   22.7059 H   0  0  0  0  0  0
  -24.5919  -30.7067   25.7790 H   0  0  0  0  0  0
  -24.8944  -32.2881   26.4897 H   0  0  0  0  0  0
  -25.8086  -30.8889   27.0220 H   0  0  0  0  0  0
  -26.2911  -29.6758   24.1210 H   0  0  0  0  0  0
  -27.4064  -29.7272   25.4667 H   0  0  0  0  0  0
  -27.8772  -30.4300   23.9375 H   0  0  0  0  0  0
  -27.2672  -33.3613   26.2081 H   0  0  0  0  0  0
  -28.3867  -32.6893   25.0316 H   0  0  0  0  0  0
  -28.0742  -31.8440   26.5399 H   0  0  0  0  0  0
  -28.2596  -38.0099   24.7501 H   0  0  0  0  0  0
  -28.1075  -36.2629   24.6294 H   0  0  0  0  0  0
  -27.2299  -37.1455   25.8868 H   0  0  0  0  0  0
  -20.9360  -29.8785   21.6910 H   0  0  0  0  0  0
  -26.0172  -38.2853   24.1403 H   0  0  0  0  0  0
  -28.8004  -19.6916   18.6831 H   0  0  0  0  0  0
  -31.1466  -17.4557   22.4310 H   0  0  0  0  0  0
  -28.2974  -17.6136   17.6905 H   0  0  0  0  0  0
  -27.5349  -16.6899   18.9816 H   0  0  0  0  0  0
  -29.0455  -16.1244   18.2521 H   0  0  0  0  0  0
  -30.5001  -21.7040   19.1716 H   0  0  0  0  0  0
  -30.9934  -21.9564   20.8007 H   0  0  0  0  0  0
  -29.8604  -24.3111   21.2306 H   0  0  0  0  0  0
  -30.0438  -24.1908   19.5019 H   0  0  0  0  0  0
  -27.3492  -24.7783   20.8330 H   0  0  0  0  0  0
  -27.7061  -24.7759   19.1195 H   0  0  0  0  0  0
  -28.8828  -15.3659   21.0946 H   0  0  0  0  0  0
  -28.5912  -22.3536   21.2963 H   0  0  0  0  0  0
  -28.3157  -22.3158   19.6999 H   0  0  0  0  0  0
  1 25  1  0  0  0
  1 30  2  0  0  0
  1 81  1  0  0  0
  2  3  1  0  0  0
  2 25  1  0  0  0
  2 84  1  0  0  0
  2 85  1  0  0  0
  3  4  1  0  0  0
  3 86  1  0  0  0
  3 87  1  0  0  0
  4  5  1  0  0  0
  4 88  1  0  0  0
  4 89  1  0  0  0
  5  6  1  0  0  0
  5 26  1  0  0  0
  5 90  1  0  0  0
  6 25  1  0  0  0
  6 91  1  0  0  0
  6 92  1  0  0  0
  7  8  2  0  0  0
  7 26  1  0  0  0
  7 29  1  0  0  0
  8  9  1  0  0  0
  8 22  1  0  0  0
  9 10  1  0  0  0
  9 27  2  0  0  0
 10 11  2  0  0  0
 10 15  1  0  0  0
 11 12  1  0  0  0
 11 93  1  0  0  0
 12 13  2  0  0  0
 12 94  1  0  0  0
 13 14  1  0  0  0
 13 31  1  0  0  0
 14 15  2  0  0  0
 14 95  1  0  0  0
 15 96  1  0  0  0
 16 17  2  0  0  0
 16 21  1  0  0  0
 16 31  1  0  0  0
 17 18  1  0  0  0
 17 97  1  0  0  0
 18 19  2  0  0  0
 18 98  1  0  0  0
 19 20  1  0  0  0
 19 24  1  0  0  0
 20 21  2  0  0  0
 20 99  1  0  0  0
 21 23  1  0  0  0
 22 28  1  0  0  0
 22 32  2  0  0  0
 26 27  1  0  0  0
 28100  1  0  0  0
 28101  1  0  0  0
 29102  1  0  0  0
 29103  1  0  0  0
 33 34  1  0  0  0
 33 66  1  0  0  0
 33 70  2  0  0  0
 34 36  1  0  0  0
 34 59  1  0  0  0
 34104  1  0  0  0
 35 44  2  0  0  0
 35 45  1  0  0  0
 35 68  1  0  0  0
 36 56  1  0  0  0
 36105  1  0  0  0
 37 39  1  0  0  0
 37 47  1  0  0  0
 37 66  1  0  0  0
 37106  1  0  0  0
 38 43  2  0  0  0
 38 46  1  0  0  0
 38 47  1  0  0  0
 39 64  1  0  0  0
 39 67  2  0  0  0
 40 52  1  0  0  0
 40 53  2  0  0  0
 40 58  1  0  0  0
 41107  1  0  0  0
 41108  1  0  0  0
 41109  1  0  0  0
 41 48  1  0  0  0
 42 43  1  0  0  0
 42 66  1  0  0  0
 42110  1  0  0  0
 42111  1  0  0  0
 43 44  1  0  0  0
 44112  1  0  0  0
 45 46  2  0  0  0
 45113  1  0  0  0
 46114  1  0  0  0
 47115  1  0  0  0
 47116  1  0  0  0
 48 56  1  0  0  0
 48 65  1  0  0  0
 48117  1  0  0  0
 49 50  1  0  0  0
 49 53  1  0  0  0
 49 64  1  0  0  0
 49118  1  0  0  0
 50 51  1  0  0  0
 50119  1  0  0  0
 50120  1  0  0  0
 51 52  1  0  0  0
 51121  1  0  0  0
 51122  1  0  0  0
 52123  1  0  0  0
 52124  1  0  0  0
 53 54  1  0  0  0
 54 55  2  0  0  0
 54125  1  0  0  0
 55 57  1  0  0  0
 55126  1  0  0  0
 56 69  2  0  0  0
 57 58  2  0  0  0
 57127  1  0  0  0
 58128  1  0  0  0
 59 60  1  0  0  0
 59 61  1  0  0  0
 59 62  1  0  0  0
 60129  1  0  0  0
 60130  1  0  0  0
 60131  1  0  0  0
 61132  1  0  0  0
 61133  1  0  0  0
 61134  1  0  0  0
 62135  1  0  0  0
 62136  1  0  0  0
 62137  1  0  0  0
 63 65  1  0  0  0
 63138  1  0  0  0
 63139  1  0  0  0
 63140  1  0  0  0
 64141  1  0  0  0
 65142  1  0  0  0
 68 80  1  0  0  0
 71 73  2  0  0  0
 71 74  1  0  0  0
 71143  1  0  0  0
 72 75  2  0  0  0
 72 76  1  0  0  0
 72144  1  0  0  0
 73 75  1  0  0  0
 73 77  1  0  0  0
 74 76  2  0  0  0
 74 78  1  0  0  0
 75 81  1  0  0  0
 76 83  1  0  0  0
 77145  1  0  0  0
 77146  1  0  0  0
 77147  1  0  0  0
 78 82  1  0  0  0
 78148  1  0  0  0
 78149  1  0  0  0
 79 80  1  0  0  0
 79 82  1  0  0  0
 79150  1  0  0  0
 79151  1  0  0  0
 80152  1  0  0  0
 80153  1  0  0  0
 81154  1  0  0  0
 82155  1  0  0  0
 82156  1  0  0  0
M  CHG  1  82   1
M  ISO  4   1 100  68 101  80 101  81 100
M  END
> <chiral flag>
0

> <version>
0

> <s_m_source_file>
/data/baiqing/PycharmProjects/Reinvent-master-3.2/result/LINK_invent/BTK/process_docking_weight1_custom_sum_contain_oxygen_bond_distance_aromatic_linkinvent_7_9_3/rearranged_h_0031.sdf

> <i_m_source_file_index>
48

> <r_mmod_Potential_Energy-OPLS-2005>
-135.164184570312

> <r_mmod_Stretch_Energy-OPLS-2005>
75.1016235351562

> <r_mmod_Bend_Energy-OPLS-2005>
126.764350891113

> <r_mmod_Torsional_Energy-OPLS-2005>
233.653747558594

> <r_mmod_Improper_Torsional_Energy-OPLS-2005>
5.93656492233276

> <r_mmod_Van_der_Waal_Energy-OPLS-2005>
139.219604492188

> <r_mmod_Electrostatic_Energy-OPLS-2005>
-290.225952148438

> <r_mmod_Solvation_Energy-OPLS-2005>
-470.257629394531

> <b_mmod_Minimization_Converged-OPLS-2005>
0

> <r_mmod_RMS_Derivative-OPLS-2005>
1.03966426849365

$$$$
48
                    3D
 Structure written by MMmdl.
150158  0  0  1  0            999 V2000
  -30.5331  -15.0098   20.4033 C   0  0  0  0  0  0
  -30.4362  -12.6296   19.5057 C   0  0  0  0  0  0
  -29.5229  -12.5363   18.2617 C   0  0  0  0  0  0
  -28.0577  -12.3151   18.6801 C   0  0  0  0  0  0
  -27.6242  -13.2571   19.8338 C   0  0  2  0  0  0
  -28.6652  -13.3210   20.9709 C   0  0  0  0  0  0
  -25.2433  -13.8220   20.5717 C   0  0  0  0  0  0
  -24.1764  -13.0434   20.9233 C   0  0  0  0  0  0
  -24.6397  -11.6926   20.8756 C   0  0  0  0  0  0
  -23.9086  -10.4292   21.0408 C   0  0  0  0  0  0
  -24.3633   -9.4207   21.9184 C   0  0  0  0  0  0
  -23.6302   -8.2245   22.0753 C   0  0  0  0  0  0
  -22.4282   -8.0285   21.3545 C   0  0  0  0  0  0
  -21.9923   -9.0260   20.4646 C   0  0  0  0  0  0
  -22.7259  -10.2135   20.3056 C   0  0  0  0  0  0
  -21.6857   -6.0737   22.5277 C   0  0  0  0  0  0
  -21.4018   -6.5639   23.8212 C   0  0  0  0  0  0
  -21.3661   -5.6791   24.9173 C   0  0  0  0  0  0
  -21.6045   -4.3054   24.7222 C   0  0  0  0  0  0
  -21.8820   -3.8147   23.4344 C   0  0  0  0  0  0
  -21.9194   -4.6964   22.3400 C   0  0  0  0  0  0
  -22.7783  -13.5200   21.1885 C   0  0  0  0  0  0
  -22.1661   -4.2150   21.0977 F   0  0  0  0  0  0
  -21.5629   -3.4536   25.7733 F   0  0  0  0  0  0
  -29.9317  -13.7463   20.3624 N   0  0  0  0  0  0
  -26.2865  -12.9474   20.3239 N   0  0  0  0  0  0
  -25.9332  -11.6594   20.5736 N   0  0  0  0  0  0
  -22.0439  -12.8188   22.0444 N   0  0  0  0  0  0
  -25.4069  -15.1944   20.4146 N   0  0  0  0  0  0
  -31.7431  -15.0410   20.1540 O   0  0  0  0  0  0
  -21.6644   -6.8883   21.4241 O   0  0  0  0  0  0
  -22.3457  -14.5500   20.6727 O   0  0  0  0  0  0
  -24.6479  -31.8392   23.1835 C   0  0  0  0  0  0
  -25.9228  -32.4670   23.8244 C   0  0  1  0  0  0
  -27.2168  -27.0895   20.1603 C   0  0  0  0  0  0
  -25.5955  -33.8478   24.2158 N   0  0  0  0  0  0
  -23.4537  -30.4564   21.5301 C   0  0  2  0  0  0
  -24.9036  -28.8723   20.1104 C   0  0  0  0  0  0
  -22.7589  -29.4523   22.4845 C   0  0  0  0  0  0
  -18.0306  -28.1398   22.8475 C   0  0  0  0  0  0
  -24.1492  -36.7246   23.2645 C   0  0  0  0  0  0
  -26.0125  -30.6983   21.3882 C   0  0  0  0  0  0
  -26.0826  -29.3045   20.7308 C   0  0  0  0  0  0
  -27.2396  -28.4309   20.7342 C   0  0  0  0  0  0
  -26.0107  -26.7666   19.5019 C   0  0  0  0  0  0
  -24.8831  -27.6189   19.4791 C   0  0  0  0  0  0
  -23.6824  -29.7809   20.1513 C   0  0  0  0  0  0
  -25.4126  -36.3019   24.0313 C   0  0  1  0  0  0
  -20.5922  -28.3729   23.1226 C   0  0  2  0  0  0
  -20.6791  -26.9429   22.5405 C   0  0  0  0  0  0
  -19.5764  -26.6381   21.5215 C   0  0  0  0  0  0
  -18.1946  -26.7936   22.1624 C   0  0  0  0  0  0
  -19.1564  -28.8882   23.2841 C   0  0  0  0  0  0
  -18.9480  -30.1476   23.8870 C   0  0  0  0  0  0
  -17.6475  -30.6594   24.0558 C   0  0  0  0  0  0
  -25.9081  -34.9396   23.5050 C   0  0  0  0  0  0
  -16.5366  -29.9085   23.6338 C   0  0  0  0  0  0
  -16.7291  -28.6504   23.0359 C   0  0  0  0  0  0
  -26.4528  -31.6559   25.0710 C   0  0  0  0  0  0
  -25.3696  -31.3763   26.1394 C   0  0  0  0  0  0
  -27.0404  -30.2950   24.6327 C   0  0  0  0  0  0
  -27.6046  -32.4337   25.7502 C   0  0  0  0  0  0
  -27.5574  -37.1781   24.8465 C   0  0  0  0  0  0
  -21.4276  -29.3046   22.3594 N   0  0  0  0  0  0
  -26.4285  -37.3738   23.9408 N   0  0  0  0  0  0
  -24.7249  -31.0206   22.0888 N   0  0  0  0  0  0
  -23.4209  -28.8082   23.3023 O   0  0  0  0  0  0
  -28.2630  -26.0839   20.2327 O   0  0  0  0  0  0
  -26.5676  -34.8902   22.4635 O   0  0  0  0  0  0
  -23.5587  -32.1290   23.7027 O   0  0  0  0  0  0
  -29.4476  -19.2461   20.3793 C   0  0  0  0  0  0
  -29.9529  -20.5827   20.3173 C   0  0  0  0  0  0
  -28.0685  -19.6515   20.4440 C   0  0  0  0  0  0
  -31.3960  -20.9609   20.2461 C   0  0  0  0  0  0
  -30.2560  -17.7580   20.3681 C   0  0  0  0  0  0
  -29.1217  -23.2657   20.4170 C   0  0  0  0  0  0
  -28.0117  -24.5266   20.1051 C   0  0  0  0  0  0
  -27.7871  -20.9863   20.4360 N   0  0  0  0  0  0
  -28.9674  -21.6609   20.3380 N   0  0  0  0  0  0
  -29.7869  -16.2347   20.5092 N   0  0  0  0  0  0
  -26.7753  -18.5170   20.5424 Cl  0  0  0  0  0  0
  -31.4687  -12.7896   19.1913 H   0  0  0  0  0  0
  -30.4377  -11.6886   20.0581 H   0  0  0  0  0  0
  -29.8534  -11.7286   17.6073 H   0  0  0  0  0  0
  -29.6026  -13.4559   17.6802 H   0  0  0  0  0  0
  -27.9614  -11.2764   18.9977 H   0  0  0  0  0  0
  -27.3950  -12.4343   17.8222 H   0  0  0  0  0  0
  -27.5755  -14.2522   19.3904 H   0  0  0  0  0  0
  -28.7679  -12.3565   21.4703 H   0  0  0  0  0  0
  -28.3547  -14.0359   21.7345 H   0  0  0  0  0  0
  -25.2778   -9.5681   22.4761 H   0  0  0  0  0  0
  -24.0009   -7.4636   22.7473 H   0  0  0  0  0  0
  -21.0855   -8.8788   19.8950 H   0  0  0  0  0  0
  -22.3723  -10.9679   19.6167 H   0  0  0  0  0  0
  -21.2012   -7.6146   23.9717 H   0  0  0  0  0  0
  -21.1482   -6.0518   25.9077 H   0  0  0  0  0  0
  -22.0597   -2.7609   23.2841 H   0  0  0  0  0  0
  -22.4068  -11.9861   22.4843 H   0  0  0  0  0  0
  -21.1053  -13.1204   22.2644 H   0  0  0  0  0  0
  -24.6388  -15.8439   20.5409 H   0  0  0  0  0  0
  -26.2493  -15.6453   20.0844 H   0  0  0  0  0  0
  -26.7295  -32.5257   23.0970 H   0  0  0  0  0  0
  -25.0064  -33.9584   25.0281 H   0  0  0  0  0  0
  -22.7586  -31.2836   21.3716 H   0  0  0  0  0  0
  -23.3761  -35.9570   23.3289 H   0  0  0  0  0  0
  -24.3574  -36.8899   22.2063 H   0  0  0  0  0  0
  -23.7239  -37.6432   23.6697 H   0  0  0  0  0  0
  -26.1738  -31.4494   20.6138 H   0  0  0  0  0  0
  -26.8807  -30.7496   22.0337 H   0  0  0  0  0  0
  -28.1373  -28.7575   21.2401 H   0  0  0  0  0  0
  -25.9076  -25.8064   19.0188 H   0  0  0  0  0  0
  -23.9836  -27.2825   18.9819 H   0  0  0  0  0  0
  -23.8226  -30.5530   19.3940 H   0  0  0  0  0  0
  -22.7956  -29.2253   19.8409 H   0  0  0  0  0  0
  -25.1318  -36.1840   25.0805 H   0  0  0  0  0  0
  -21.0011  -28.3324   24.1349 H   0  0  0  0  0  0
  -20.5683  -26.2347   23.3630 H   0  0  0  0  0  0
  -21.6657  -26.7430   22.1205 H   0  0  0  0  0  0
  -19.6928  -25.6284   21.1265 H   0  0  0  0  0  0
  -19.6702  -27.3173   20.6731 H   0  0  0  0  0  0
  -17.4216  -26.6677   21.4027 H   0  0  0  0  0  0
  -18.0344  -26.0085   22.9027 H   0  0  0  0  0  0
  -19.7956  -30.7299   24.2230 H   0  0  0  0  0  0
  -17.5029  -31.6272   24.5163 H   0  0  0  0  0  0
  -15.5366  -30.2979   23.7679 H   0  0  0  0  0  0
  -15.8691  -28.0813   22.7094 H   0  0  0  0  0  0
  -24.5881  -30.7108   25.7708 H   0  0  0  0  0  0
  -24.8878  -32.2950   26.4750 H   0  0  0  0  0  0
  -25.7962  -30.8977   27.0218 H   0  0  0  0  0  0
  -26.3035  -29.6660   24.1320 H   0  0  0  0  0  0
  -27.3983  -29.7267   25.4922 H   0  0  0  0  0  0
  -27.8954  -30.4176   23.9677 H   0  0  0  0  0  0
  -27.2629  -33.3660   26.2011 H   0  0  0  0  0  0
  -28.3892  -32.6864   25.0357 H   0  0  0  0  0  0
  -28.0675  -31.8510   26.5476 H   0  0  0  0  0  0
  -28.2583  -38.0086   24.7513 H   0  0  0  0  0  0
  -28.1081  -36.2615   24.6292 H   0  0  0  0  0  0
  -27.2292  -37.1426   25.8868 H   0  0  0  0  0  0
  -20.9501  -29.8745   21.6751 H   0  0  0  0  0  0
  -26.0149  -38.2805   24.1406 H   0  0  0  0  0  0
  -32.0425  -20.0896   20.3457 H   0  0  0  0  0  0
  -31.6557  -21.6588   21.0419 H   0  0  0  0  0  0
  -31.6240  -21.4373   19.2926 H   0  0  0  0  0  0
  -31.0335  -17.8310   21.1291 H   0  0  0  0  0  0
  -30.8313  -17.7381   19.4415 H   0  0  0  0  0  0
  -29.4832  -23.4521   21.4280 H   0  0  0  0  0  0
  -29.9829  -23.4904   19.7882 H   0  0  0  0  0  0
  -27.1393  -24.3198   20.7254 H   0  0  0  0  0  0
  -27.6711  -24.3684   19.0818 H   0  0  0  0  0  0
  -28.7999  -16.1037   20.6710 H   0  0  0  0  0  0
  1 25  1  0  0  0
  1 30  2  0  0  0
  1 80  1  0  0  0
  2  3  1  0  0  0
  2 25  1  0  0  0
  2 82  1  0  0  0
  2 83  1  0  0  0
  3  4  1  0  0  0
  3 84  1  0  0  0
  3 85  1  0  0  0
  4  5  1  0  0  0
  4 86  1  0  0  0
  4 87  1  0  0  0
  5  6  1  0  0  0
  5 26  1  0  0  0
  5 88  1  0  0  0
  6 25  1  0  0  0
  6 89  1  0  0  0
  6 90  1  0  0  0
  7  8  2  0  0  0
  7 26  1  0  0  0
  7 29  1  0  0  0
  8  9  1  0  0  0
  8 22  1  0  0  0
  9 10  1  0  0  0
  9 27  2  0  0  0
 10 11  2  0  0  0
 10 15  1  0  0  0
 11 12  1  0  0  0
 11 91  1  0  0  0
 12 13  2  0  0  0
 12 92  1  0  0  0
 13 14  1  0  0  0
 13 31  1  0  0  0
 14 15  2  0  0  0
 14 93  1  0  0  0
 15 94  1  0  0  0
 16 17  2  0  0  0
 16 21  1  0  0  0
 16 31  1  0  0  0
 17 18  1  0  0  0
 17 95  1  0  0  0
 18 19  2  0  0  0
 18 96  1  0  0  0
 19 20  1  0  0  0
 19 24  1  0  0  0
 20 21  2  0  0  0
 20 97  1  0  0  0
 21 23  1  0  0  0
 22 28  1  0  0  0
 22 32  2  0  0  0
 26 27  1  0  0  0
 28 98  1  0  0  0
 28 99  1  0  0  0
 29100  1  0  0  0
 29101  1  0  0  0
 33 34  1  0  0  0
 33 66  1  0  0  0
 33 70  2  0  0  0
 34 36  1  0  0  0
 34 59  1  0  0  0
 34102  1  0  0  0
 35 44  2  0  0  0
 35 45  1  0  0  0
 35 68  1  0  0  0
 36 56  1  0  0  0
 36103  1  0  0  0
 37 39  1  0  0  0
 37 47  1  0  0  0
 37 66  1  0  0  0
 37104  1  0  0  0
 38 43  2  0  0  0
 38 46  1  0  0  0
 38 47  1  0  0  0
 39 64  1  0  0  0
 39 67  2  0  0  0
 40 52  1  0  0  0
 40 53  2  0  0  0
 40 58  1  0  0  0
 41105  1  0  0  0
 41106  1  0  0  0
 41107  1  0  0  0
 41 48  1  0  0  0
 42 43  1  0  0  0
 42 66  1  0  0  0
 42108  1  0  0  0
 42109  1  0  0  0
 43 44  1  0  0  0
 44110  1  0  0  0
 45 46  2  0  0  0
 45111  1  0  0  0
 46112  1  0  0  0
 47113  1  0  0  0
 47114  1  0  0  0
 48 56  1  0  0  0
 48 65  1  0  0  0
 48115  1  0  0  0
 49 50  1  0  0  0
 49 53  1  0  0  0
 49 64  1  0  0  0
 49116  1  0  0  0
 50 51  1  0  0  0
 50117  1  0  0  0
 50118  1  0  0  0
 51 52  1  0  0  0
 51119  1  0  0  0
 51120  1  0  0  0
 52121  1  0  0  0
 52122  1  0  0  0
 53 54  1  0  0  0
 54 55  2  0  0  0
 54123  1  0  0  0
 55 57  1  0  0  0
 55124  1  0  0  0
 56 69  2  0  0  0
 57 58  2  0  0  0
 57125  1  0  0  0
 58126  1  0  0  0
 59 60  1  0  0  0
 59 61  1  0  0  0
 59 62  1  0  0  0
 60127  1  0  0  0
 60128  1  0  0  0
 60129  1  0  0  0
 61130  1  0  0  0
 61131  1  0  0  0
 61132  1  0  0  0
 62133  1  0  0  0
 62134  1  0  0  0
 62135  1  0  0  0
 63 65  1  0  0  0
 63136  1  0  0  0
 63137  1  0  0  0
 63138  1  0  0  0
 64139  1  0  0  0
 65140  1  0  0  0
 68 77  1  0  0  0
 71 72  2  0  0  0
 71 73  1  0  0  0
 71 75  1  0  0  0
 72 74  1  0  0  0
 72 79  1  0  0  0
 73 78  2  0  0  0
 73 81  1  0  0  0
 74141  1  0  0  0
 74142  1  0  0  0
 74143  1  0  0  0
 75 80  1  0  0  0
 75144  1  0  0  0
 75145  1  0  0  0
 76 77  1  0  0  0
 76 79  1  0  0  0
 76146  1  0  0  0
 76147  1  0  0  0
 77148  1  0  0  0
 77149  1  0  0  0
 78 79  1  0  0  0
 80150  1  0  0  0
M  ISO  4   1 100  68 101  77 101  80 100
M  END
> <chiral flag>
0

> <version>
0

> <s_m_source_file>
/data/baiqing/PycharmProjects/Reinvent-master-3.2/result/LINK_invent/BTK/process_docking_weight1_custom_sum_contain_oxygen_bond_distance_aromatic_linkinvent_7_9_3/rearranged_h_0031.sdf

> <i_m_source_file_index>
49

> <r_mmod_Potential_Energy-OPLS-2005>
587.742370605469

> <r_mmod_Stretch_Energy-OPLS-2005>
308.501739501953

> <r_mmod_Bend_Energy-OPLS-2005>
304.262268066406

> <r_mmod_Torsional_Energy-OPLS-2005>
207.797729492188

> <r_mmod_Improper_Torsional_Energy-OPLS-2005>
4.68481159210205

> <r_mmod_Van_der_Waal_Energy-OPLS-2005>
102.90518951416

> <r_mmod_Electrostatic_Energy-OPLS-2005>
-362.598175048828

> <r_mmod_Solvation_Energy-OPLS-2005>
-214.529983520508

> <b_mmod_Minimization_Converged-OPLS-2005>
0

> <r_mmod_RMS_Derivative-OPLS-2005>
0.387921661138535

$$$$
49
                    3D
 Structure written by MMmdl.
190200  0  0  1  0            999 V2000
  -31.1199  -14.0795   20.1752 C   0  0  0  0  0  0
  -30.2312  -11.9984   19.3345 C   0  0  0  0  0  0
  -29.3963  -12.4071   18.1249 C   0  0  0  0  0  0
  -27.9356  -12.4119   18.5785 C   0  0  0  0  0  0
  -27.6905  -13.2426   19.8731 C   0  0  2  0  0  0
  -28.8360  -13.1145   20.9439 C   0  0  0  0  0  0
  -25.2746  -13.8270   20.5907 C   0  0  0  0  0  0
  -24.1968  -13.0490   20.9277 C   0  0  0  0  0  0
  -24.6560  -11.6981   20.8821 C   0  0  0  0  0  0
  -23.9166  -10.4342   21.0397 C   0  0  0  0  0  0
  -24.3668   -9.4236   21.9169 C   0  0  0  0  0  0
  -23.6314   -8.2287   22.0745 C   0  0  0  0  0  0
  -22.4301   -8.0336   21.3545 C   0  0  0  0  0  0
  -21.9960   -9.0324   20.4634 C   0  0  0  0  0  0
  -22.7325  -10.2198   20.3040 C   0  0  0  0  0  0
  -21.6892   -6.0735   22.5264 C   0  0  0  0  0  0
  -21.4030   -6.5620   23.8195 C   0  0  0  0  0  0
  -21.3650   -5.6773   24.9160 C   0  0  0  0  0  0
  -21.6040   -4.3037   24.7208 C   0  0  0  0  0  0
  -21.8829   -3.8129   23.4334 C   0  0  0  0  0  0
  -21.9206   -4.6945   22.3386 C   0  0  0  0  0  0
  -22.7932  -13.5225   21.1849 C   0  0  0  0  0  0
  -22.1687   -4.2121   21.0966 F   0  0  0  0  0  0
  -21.5625   -3.4523   25.7725 F   0  0  0  0  0  0
  -30.1625  -13.1090   20.2707 N   0  0  0  0  0  0
  -26.3355  -12.9563   20.3805 N   0  0  0  0  0  0
  -25.9586  -11.6673   20.6093 N   0  0  0  0  0  0
  -22.0542  -12.8205   22.0378 N   0  0  0  0  0  0
  -25.4324  -15.1985   20.4224 N   0  0  0  0  0  0
  -31.2518  -15.0625   20.8575 O   0  0  0  0  0  0
  -21.6692   -6.8902   21.4229 O   0  0  0  0  0  0
  -22.3597  -14.5507   20.6672 O   0  0  0  0  0  0
  -24.6104  -31.8712   23.2125 C   0  0  0  0  0  0
  -25.9015  -32.4828   23.8393 C   0  0  1  0  0  0
  -27.2385  -27.4859   20.0680 C   0  0  0  0  0  0
  -25.5898  -33.8625   24.2333 N   0  0  0  0  0  0
  -23.3945  -30.4942   21.5531 C   0  0  2  0  0  0
  -24.8409  -28.9589   20.1229 C   0  0  0  0  0  0
  -22.7369  -29.4675   22.5020 C   0  0  0  0  0  0
  -18.0259  -28.1373   22.8495 C   0  0  0  0  0  0
  -24.1486  -36.7312   23.2635 C   0  0  0  0  0  0
  -25.9180  -30.8469   21.3600 C   0  0  0  0  0  0
  -25.9978  -29.4812   20.7157 C   0  0  0  0  0  0
  -27.2006  -28.7456   20.6989 C   0  0  0  0  0  0
  -26.0665  -26.9535   19.4951 C   0  0  0  0  0  0
  -24.8656  -27.6878   19.5197 C   0  0  0  0  0  0
  -23.6002  -29.8213   20.1700 C   0  0  0  0  0  0
  -25.4104  -36.3106   24.0336 C   0  0  1  0  0  0
  -20.5846  -28.3646   23.1340 C   0  0  2  0  0  0
  -20.6745  -26.9389   22.5424 C   0  0  0  0  0  0
  -19.5735  -26.6389   21.5203 C   0  0  0  0  0  0
  -18.1911  -26.7923   22.1611 C   0  0  0  0  0  0
  -19.1507  -28.8821   23.2915 C   0  0  0  0  0  0
  -18.9441  -30.1430   23.8920 C   0  0  0  0  0  0
  -17.6451  -30.6582   24.0567 C   0  0  0  0  0  0
  -25.9034  -34.9475   23.5126 C   0  0  0  0  0  0
  -16.5340  -29.9090   23.6330 C   0  0  0  0  0  0
  -16.7250  -28.6505   23.0350 C   0  0  0  0  0  0
  -26.4473  -31.6589   25.0695 C   0  0  0  0  0  0
  -25.3774  -31.3688   26.1471 C   0  0  0  0  0  0
  -27.0273  -30.3029   24.6026 C   0  0  0  0  0  0
  -27.6057  -32.4302   25.7452 C   0  0  0  0  0  0
  -27.5579  -37.1797   24.8463 C   0  0  0  0  0  0
  -21.4103  -29.3030   22.3754 N   0  0  0  0  0  0
  -26.4285  -37.3793   23.9418 N   0  0  0  0  0  0
  -24.6585  -31.0846   22.1004 N   0  0  0  0  0  0
  -23.4160  -28.8229   23.3051 O   0  0  0  0  0  0
  -28.4102  -26.7873   19.9667 O   0  0  0  0  0  0
  -26.5595  -34.8932   22.4687 O   0  0  0  0  0  0
  -23.5309  -32.1444   23.7553 O   0  0  0  0  0  0
  -33.1402  -13.1548   18.8101 C   0  0  0  0  0  0
  -33.2216  -14.7154   17.2233 C   0  0  0  0  0  0
  -33.8503  -13.5743   17.6481 C   0  0  0  0  0  0
  -32.1135  -14.0257   19.0560 C   0  0  0  0  0  0
  -30.1776  -18.0824   16.8084 C   0  0  0  0  0  0
  -31.4587  -18.6656   18.9158 C   0  0  0  0  0  0
  -31.0019  -16.7794   16.6869 C   0  0  0  0  0  0
  -32.2601  -17.3769   18.7685 C   0  0  0  0  0  0
  -29.6917  -21.1945   16.4594 C   0  0  0  0  0  0
  -30.7134  -21.4996   18.7273 C   0  0  0  0  0  0
  -28.8893  -22.4966   16.6910 C   0  0  0  0  0  0
  -29.8596  -22.7536   18.9136 C   0  0  0  0  0  0
  -30.9308  -19.2088   17.5671 C   0  0  2  0  0  0
  -30.0495  -20.4748   17.7814 C   0  0  2  0  0  0
  -31.4310  -16.2882   18.0813 C   0  0  2  0  0  0
  -34.6119  -11.9976   15.8796 C   0  0  0  0  0  0
  -35.8033  -12.0512   18.0829 C   0  0  0  0  0  0
  -36.0460  -13.9651   16.4925 C   0  0  0  0  0  0
  -29.8703  -25.8354   18.2934 C   0  0  0  0  0  0
  -28.9210  -24.7275   17.7835 C   0  0  0  0  0  0
  -29.1215  -27.0856   18.7657 C   0  0  0  0  0  0
  -35.0674  -12.9043   17.0319 C   0  0  0  0  0  0
  -32.1934  -15.0369   18.0972 N   0  0  0  0  0  0
  -29.6034  -23.4191   17.6139 N   0  3  2  0  0  0
  -31.2184  -11.6529   19.0501 H   0  0  0  0  0  0
  -29.7987  -11.1066   19.7921 H   0  0  0  0  0  0
  -29.5324  -11.6921   17.3120 H   0  0  0  0  0  0
  -29.6842  -13.3859   17.7349 H   0  0  0  0  0  0
  -27.6467  -11.3713   18.7355 H   0  0  0  0  0  0
  -27.2949  -12.7765   17.7735 H   0  0  0  0  0  0
  -27.7051  -14.2835   19.5487 H   0  0  0  0  0  0
  -28.7237  -12.1927   21.5187 H   0  0  0  0  0  0
  -28.7792  -13.9323   21.6615 H   0  0  0  0  0  0
  -25.2815   -9.5713   22.4739 H   0  0  0  0  0  0
  -24.0018   -7.4670   22.7455 H   0  0  0  0  0  0
  -21.0907   -8.8861   19.8908 H   0  0  0  0  0  0
  -22.3804  -10.9737   19.6141 H   0  0  0  0  0  0
  -21.2042   -7.6127   23.9704 H   0  0  0  0  0  0
  -21.1453   -6.0496   25.9060 H   0  0  0  0  0  0
  -22.0609   -2.7587   23.2860 H   0  0  0  0  0  0
  -22.4176  -11.9886   22.4801 H   0  0  0  0  0  0
  -21.1119  -13.1190   22.2505 H   0  0  0  0  0  0
  -24.6577  -15.8464   20.5130 H   0  0  0  0  0  0
  -26.2952  -15.6494   20.1426 H   0  0  0  0  0  0
  -26.7082  -32.5567   23.1160 H   0  0  0  0  0  0
  -25.0051  -33.9789   25.0478 H   0  0  0  0  0  0
  -22.6810  -31.3090   21.4147 H   0  0  0  0  0  0
  -23.3747  -35.9646   23.3301 H   0  0  0  0  0  0
  -24.3582  -36.8922   22.2050 H   0  0  0  0  0  0
  -23.7241  -37.6519   23.6648 H   0  0  0  0  0  0
  -26.0217  -31.6099   20.5882 H   0  0  0  0  0  0
  -26.8106  -30.9061   21.9703 H   0  0  0  0  0  0
  -28.1002  -29.1497   21.1421 H   0  0  0  0  0  0
  -26.0887  -25.9859   19.0138 H   0  0  0  0  0  0
  -23.9741  -27.2769   19.0664 H   0  0  0  0  0  0
  -23.7014  -30.5923   19.4054 H   0  0  0  0  0  0
  -22.7263  -29.2353   19.8804 H   0  0  0  0  0  0
  -25.1279  -36.1960   25.0826 H   0  0  0  0  0  0
  -20.9936  -28.3206   24.1462 H   0  0  0  0  0  0
  -20.5637  -26.2253   23.3599 H   0  0  0  0  0  0
  -21.6622  -26.7438   22.1228 H   0  0  0  0  0  0
  -19.6902  -25.6309   21.1210 H   0  0  0  0  0  0
  -19.6687  -27.3215   20.6749 H   0  0  0  0  0  0
  -17.4187  -26.6681   21.4003 H   0  0  0  0  0  0
  -18.0311  -26.0053   22.8995 H   0  0  0  0  0  0
  -19.7920  -30.7226   24.2311 H   0  0  0  0  0  0
  -17.5014  -31.6267   24.5159 H   0  0  0  0  0  0
  -15.5343  -30.3000   23.7647 H   0  0  0  0  0  0
  -15.8645  -28.0829   22.7065 H   0  0  0  0  0  0
  -24.5945  -30.7020   25.7842 H   0  0  0  0  0  0
  -24.8972  -32.2843   26.4937 H   0  0  0  0  0  0
  -25.8172  -30.8866   27.0213 H   0  0  0  0  0  0
  -26.2766  -29.6795   24.1152 H   0  0  0  0  0  0
  -27.4131  -29.7254   25.4441 H   0  0  0  0  0  0
  -27.8576  -30.4341   23.9079 H   0  0  0  0  0  0
  -27.2667  -33.3585   26.2065 H   0  0  0  0  0  0
  -28.3846  -32.6890   25.0265 H   0  0  0  0  0  0
  -28.0749  -31.8407   26.5339 H   0  0  0  0  0  0
  -28.2598  -38.0094   24.7516 H   0  0  0  0  0  0
  -28.1069  -36.2627   24.6268 H   0  0  0  0  0  0
  -27.2307  -37.1434   25.8869 H   0  0  0  0  0  0
  -20.9252  -29.8742   21.6980 H   0  0  0  0  0  0
  -26.0171  -38.2865   24.1444 H   0  0  0  0  0  0
  -33.3594  -12.2961   19.4290 H   0  0  0  0  0  0
  -33.4558  -15.3676   16.3930 H   0  0  0  0  0  0
  -29.2408  -17.8610   17.3220 H   0  0  0  0  0  0
  -29.9009  -18.4147   15.8073 H   0  0  0  0  0  0
  -32.1238  -19.3844   19.3937 H   0  0  0  0  0  0
  -30.6251  -18.4986   19.5982 H   0  0  0  0  0  0
  -31.8695  -16.9653   16.0525 H   0  0  0  0  0  0
  -30.4120  -16.0090   16.1894 H   0  0  0  0  0  0
  -32.5849  -17.0439   19.7542 H   0  0  0  0  0  0
  -33.1710  -17.5662   18.2001 H   0  0  0  0  0  0
  -30.6016  -21.4243   15.9027 H   0  0  0  0  0  0
  -29.1044  -20.5387   15.8175 H   0  0  0  0  0  0
  -30.8502  -21.0833   19.7247 H   0  0  0  0  0  0
  -31.7051  -21.7709   18.3614 H   0  0  0  0  0  0
  -27.9049  -22.2590   17.0992 H   0  0  0  0  0  0
  -28.7185  -22.9869   15.7321 H   0  0  0  0  0  0
  -30.3741  -23.4153   19.6075 H   0  0  0  0  0  0
  -28.9123  -22.4883   19.3870 H   0  0  0  0  0  0
  -31.7987  -19.4967   16.9707 H   0  0  0  0  0  0
  -29.1173  -20.1585   18.2528 H   0  0  0  0  0  0
  -30.5059  -16.1401   18.6386 H   0  0  0  0  0  0
  -33.8910  -11.2538   16.2226 H   0  0  0  0  0  0
  -35.4547  -11.4652   15.4369 H   0  0  0  0  0  0
  -34.1379  -12.5761   15.0861 H   0  0  0  0  0  0
  -35.1803  -11.2335   18.4478 H   0  0  0  0  0  0
  -36.0972  -12.6523   18.9444 H   0  0  0  0  0  0
  -36.7073  -11.6024   17.6695 H   0  0  0  0  0  0
  -35.6045  -14.5634   15.6948 H   0  0  0  0  0  0
  -36.9443  -13.5011   16.0815 H   0  0  0  0  0  0
  -36.3644  -14.6499   17.2785 H   0  0  0  0  0  0
  -30.5579  -26.1090   17.4931 H   0  0  0  0  0  0
  -30.4978  -25.4970   19.1151 H   0  0  0  0  0  0
  -28.5003  -25.0521   16.8302 H   0  0  0  0  0  0
  -28.0751  -24.6024   18.4614 H   0  0  0  0  0  0
  -28.4670  -27.4398   17.9657 H   0  0  0  0  0  0
  -29.8309  -27.8890   18.9709 H   0  0  0  0  0  0
  -30.4952  -23.6117   17.1835 H   0  0  0  0  0  0
  1 25  1  0  0  0
  1 30  2  0  0  0
  1 74  1  0  0  0
  2  3  1  0  0  0
  2 25  1  0  0  0
  2 95  1  0  0  0
  2 96  1  0  0  0
  3  4  1  0  0  0
  3 97  1  0  0  0
  3 98  1  0  0  0
  4  5  1  0  0  0
  4 99  1  0  0  0
  4100  1  0  0  0
  5  6  1  0  0  0
  5 26  1  0  0  0
  5101  1  0  0  0
  6 25  1  0  0  0
  6102  1  0  0  0
  6103  1  0  0  0
  7  8  2  0  0  0
  7 26  1  0  0  0
  7 29  1  0  0  0
  8  9  1  0  0  0
  8 22  1  0  0  0
  9 10  1  0  0  0
  9 27  2  0  0  0
 10 11  2  0  0  0
 10 15  1  0  0  0
 11 12  1  0  0  0
 11104  1  0  0  0
 12 13  2  0  0  0
 12105  1  0  0  0
 13 14  1  0  0  0
 13 31  1  0  0  0
 14 15  2  0  0  0
 14106  1  0  0  0
 15107  1  0  0  0
 16 17  2  0  0  0
 16 21  1  0  0  0
 16 31  1  0  0  0
 17 18  1  0  0  0
 17108  1  0  0  0
 18 19  2  0  0  0
 18109  1  0  0  0
 19 20  1  0  0  0
 19 24  1  0  0  0
 20 21  2  0  0  0
 20110  1  0  0  0
 21 23  1  0  0  0
 22 28  1  0  0  0
 22 32  2  0  0  0
 26 27  1  0  0  0
 28111  1  0  0  0
 28112  1  0  0  0
 29113  1  0  0  0
 29114  1  0  0  0
 33 34  1  0  0  0
 33 66  1  0  0  0
 33 70  2  0  0  0
 34 36  1  0  0  0
 34 59  1  0  0  0
 34115  1  0  0  0
 35 44  2  0  0  0
 35 45  1  0  0  0
 35 68  1  0  0  0
 36 56  1  0  0  0
 36116  1  0  0  0
 37 39  1  0  0  0
 37 47  1  0  0  0
 37 66  1  0  0  0
 37117  1  0  0  0
 38 43  2  0  0  0
 38 46  1  0  0  0
 38 47  1  0  0  0
 39 64  1  0  0  0
 39 67  2  0  0  0
 40 52  1  0  0  0
 40 53  2  0  0  0
 40 58  1  0  0  0
 41118  1  0  0  0
 41119  1  0  0  0
 41120  1  0  0  0
 41 48  1  0  0  0
 42 43  1  0  0  0
 42 66  1  0  0  0
 42121  1  0  0  0
 42122  1  0  0  0
 43 44  1  0  0  0
 44123  1  0  0  0
 45 46  2  0  0  0
 45124  1  0  0  0
 46125  1  0  0  0
 47126  1  0  0  0
 47127  1  0  0  0
 48 56  1  0  0  0
 48 65  1  0  0  0
 48128  1  0  0  0
 49 50  1  0  0  0
 49 53  1  0  0  0
 49 64  1  0  0  0
 49129  1  0  0  0
 50 51  1  0  0  0
 50130  1  0  0  0
 50131  1  0  0  0
 51 52  1  0  0  0
 51132  1  0  0  0
 51133  1  0  0  0
 52134  1  0  0  0
 52135  1  0  0  0
 53 54  1  0  0  0
 54 55  2  0  0  0
 54136  1  0  0  0
 55 57  1  0  0  0
 55137  1  0  0  0
 56 69  2  0  0  0
 57 58  2  0  0  0
 57138  1  0  0  0
 58139  1  0  0  0
 59 60  1  0  0  0
 59 61  1  0  0  0
 59 62  1  0  0  0
 60140  1  0  0  0
 60141  1  0  0  0
 60142  1  0  0  0
 61143  1  0  0  0
 61144  1  0  0  0
 61145  1  0  0  0
 62146  1  0  0  0
 62147  1  0  0  0
 62148  1  0  0  0
 63 65  1  0  0  0
 63149  1  0  0  0
 63150  1  0  0  0
 63151  1  0  0  0
 64152  1  0  0  0
 65153  1  0  0  0
 68 91  1  0  0  0
 71 73  1  0  0  0
 71 74  2  0  0  0
 71154  1  0  0  0
 72 73  2  0  0  0
 72 93  1  0  0  0
 72155  1  0  0  0
 73 92  1  0  0  0
 74 93  1  0  0  0
 75 77  1  0  0  0
 75156  1  0  0  0
 75157  1  0  0  0
 75 83  1  0  0  0
 76 78  1  0  0  0
 76 83  1  0  0  0
 76158  1  0  0  0
 76159  1  0  0  0
 77 85  1  0  0  0
 77160  1  0  0  0
 77161  1  0  0  0
 78 85  1  0  0  0
 78162  1  0  0  0
 78163  1  0  0  0
 79 81  1  0  0  0
 79164  1  0  0  0
 79165  1  0  0  0
 79 84  1  0  0  0
 80 82  1  0  0  0
 80 84  1  0  0  0
 80166  1  0  0  0
 80167  1  0  0  0
 81 94  1  0  0  0
 81168  1  0  0  0
 81169  1  0  0  0
 82 94  1  0  0  0
 82170  1  0  0  0
 82171  1  0  0  0
 83 84  1  0  0  0
 83172  1  0  0  0
 84173  1  0  0  0
 85 93  1  0  0  0
 85174  1  0  0  0
 86175  1  0  0  0
 86176  1  0  0  0
 86177  1  0  0  0
 86 92  1  0  0  0
 87 92  1  0  0  0
 87178  1  0  0  0
 87179  1  0  0  0
 87180  1  0  0  0
 88 92  1  0  0  0
 88181  1  0  0  0
 88182  1  0  0  0
 88183  1  0  0  0
 89 90  1  0  0  0
 89 91  1  0  0  0
 89184  1  0  0  0
 89185  1  0  0  0
 90186  1  0  0  0
 90187  1  0  0  0
 90 94  1  0  0  0
 91188  1  0  0  0
 91189  1  0  0  0
 94190  1  0  0  0
M  CHG  1  94   1
M  ISO  4   1 100  68 101  74 100  91 101
M  END
> <chiral flag>
0

> <version>
0

> <s_m_source_file>
/data/baiqing/PycharmProjects/Reinvent-master-3.2/result/LINK_invent/BTK/process_docking_weight1_custom_sum_contain_oxygen_bond_distance_aromatic_linkinvent_7_9_3/rearranged_h_0031.sdf

> <i_m_source_file_index>
50

> <r_mmod_Potential_Energy-OPLS-2005>
210.01611328125

> <r_mmod_Stretch_Energy-OPLS-2005>
42.7471961975098

> <r_mmod_Bend_Energy-OPLS-2005>
130.086364746094

> <r_mmod_Torsional_Energy-OPLS-2005>
323.082702636719

> <r_mmod_Improper_Torsional_Energy-OPLS-2005>
3.29871273040771

> <r_mmod_Van_der_Waal_Energy-OPLS-2005>
156.37629699707

> <r_mmod_Electrostatic_Energy-OPLS-2005>
-231.746276855469

> <r_mmod_Solvation_Energy-OPLS-2005>
-399.842071533203

> <b_mmod_Minimization_Converged-OPLS-2005>
0

> <r_mmod_RMS_Derivative-OPLS-2005>
2.52199935913086

$$$$
50
                    3D
 Structure written by MMmdl.
150158  0  0  1  0            999 V2000
  -30.4000  -15.3295   20.3519 C   0  0  0  0  0  0
  -30.4429  -12.8470   19.5487 C   0  0  0  0  0  0
  -29.5485  -12.5835   18.3078 C   0  0  0  0  0  0
  -28.0959  -12.3029   18.7282 C   0  0  0  0  0  0
  -27.6124  -13.2804   19.8267 C   0  0  2  0  0  0
  -28.6387  -13.4709   20.9660 C   0  0  0  0  0  0
  -25.2389  -13.8277   20.5778 C   0  0  0  0  0  0
  -24.1749  -13.0454   20.9271 C   0  0  0  0  0  0
  -24.6410  -11.6955   20.8763 C   0  0  0  0  0  0
  -23.9107  -10.4308   21.0426 C   0  0  0  0  0  0
  -24.3641   -9.4211   21.9196 C   0  0  0  0  0  0
  -23.6287   -8.2267   22.0773 C   0  0  0  0  0  0
  -22.4258   -8.0313   21.3576 C   0  0  0  0  0  0
  -21.9910   -9.0292   20.4686 C   0  0  0  0  0  0
  -22.7272  -10.2145   20.3092 C   0  0  0  0  0  0
  -21.6850   -6.0745   22.5286 C   0  0  0  0  0  0
  -21.4026   -6.5649   23.8223 C   0  0  0  0  0  0
  -21.3648   -5.6795   24.9176 C   0  0  0  0  0  0
  -21.6036   -4.3061   24.7211 C   0  0  0  0  0  0
  -21.8810   -3.8159   23.4333 C   0  0  0  0  0  0
  -21.9187   -4.6979   22.3391 C   0  0  0  0  0  0
  -22.7740  -13.5207   21.1887 C   0  0  0  0  0  0
  -22.1656   -4.2180   21.0956 F   0  0  0  0  0  0
  -21.5607   -3.4537   25.7722 F   0  0  0  0  0  0
  -29.8681  -14.0001   20.3481 N   0  0  0  0  0  0
  -26.2823  -12.9560   20.3239 N   0  0  0  0  0  0
  -25.9342  -11.6658   20.5708 N   0  0  0  0  0  0
  -22.0370  -12.8221   22.0447 N   0  0  0  0  0  0
  -25.4032  -15.2013   20.4227 N   0  0  0  0  0  0
  -31.6107  -15.3385   20.0742 O   0  0  0  0  0  0
  -21.6641   -6.8899   21.4256 O   0  0  0  0  0  0
  -22.3428  -14.5482   20.6691 O   0  0  0  0  0  0
  -24.6667  -31.8168   23.1665 C   0  0  0  0  0  0
  -25.9323  -32.4544   23.8155 C   0  0  1  0  0  0
  -27.2113  -26.8814   20.1831 C   0  0  0  0  0  0
  -25.5964  -33.8358   24.2044 N   0  0  0  0  0  0
  -23.4857  -30.4260   21.5168 C   0  0  2  0  0  0
  -24.9382  -28.8095   20.1081 C   0  0  0  0  0  0
  -22.7702  -29.4382   22.4767 C   0  0  0  0  0  0
  -18.0326  -28.1407   22.8450 C   0  0  0  0  0  0
  -24.1515  -36.7206   23.2652 C   0  0  0  0  0  0
  -26.0563  -30.6086   21.4065 C   0  0  0  0  0  0
  -26.1210  -29.1946   20.7500 C   0  0  0  0  0  0
  -27.2493  -28.2498   20.7672 C   0  0  0  0  0  0
  -26.0041  -26.6655   19.4818 C   0  0  0  0  0  0
  -24.9082  -27.5672   19.4543 C   0  0  0  0  0  0
  -23.7272  -29.7410   20.1427 C   0  0  0  0  0  0
  -25.4154  -36.2949   24.0296 C   0  0  1  0  0  0
  -20.5955  -28.3746   23.1178 C   0  0  2  0  0  0
  -20.6803  -26.9421   22.5400 C   0  0  0  0  0  0
  -19.5778  -26.6367   21.5211 C   0  0  0  0  0  0
  -18.1962  -26.7927   22.1618 C   0  0  0  0  0  0
  -19.1591  -28.8900   23.2795 C   0  0  0  0  0  0
  -18.9489  -30.1485   23.8835 C   0  0  0  0  0  0
  -17.6483  -30.6578   24.0550 C   0  0  0  0  0  0
  -25.9105  -34.9314   23.5005 C   0  0  0  0  0  0
  -16.5376  -29.9065   23.6332 C   0  0  0  0  0  0
  -16.7306  -28.6494   23.0339 C   0  0  0  0  0  0
  -26.4550  -31.6505   25.0702 C   0  0  0  0  0  0
  -25.3653  -31.3784   26.1357 C   0  0  0  0  0  0
  -27.0451  -30.2856   24.6485 C   0  0  0  0  0  0
  -27.6054  -32.4312   25.7490 C   0  0  0  0  0  0
  -27.5579  -37.1770   24.8460 C   0  0  0  0  0  0
  -21.4363  -29.3022   22.3532 N   0  0  0  0  0  0
  -26.4296  -37.3677   23.9380 N   0  0  0  0  0  0
  -24.7571  -30.9805   22.0827 N   0  0  0  0  0  0
  -23.4229  -28.7947   23.3021 O   0  0  0  0  0  0
  -28.1843  -25.7399   20.3003 O   0  0  0  0  0  0
  -26.5728  -34.8867   22.4616 O   0  0  0  0  0  0
  -23.5714  -32.1155   23.6730 O   0  0  0  0  0  0
  -28.9586  -22.5742   21.8706 C   0  0  0  0  0  0
  -28.8232  -21.1719   19.9184 C   0  0  0  0  0  0
  -28.6323  -22.6015   20.5024 C   0  0  0  0  0  0
  -29.3686  -21.3975   22.5659 C   0  0  0  0  0  0
  -29.2689  -19.8391   20.5969 C   0  0  0  0  0  0
  -29.4898  -20.0945   21.9763 C   0  0  0  0  0  0
  -29.7197  -21.5645   24.0358 C   0  0  0  0  0  0
  -29.7093  -18.2290   19.9835 C   0  0  0  0  0  0
  -27.9839  -24.1324   19.8926 C   0  0  0  0  0  0
  -29.6197  -16.6043   20.4683 N   0  0  0  0  0  0
  -29.9706  -18.7727   22.9862 Cl  0  0  0  0  0  0
  -31.4588  -13.0604   19.2144 H   0  0  0  0  0  0
  -30.5273  -11.9505   20.1645 H   0  0  0  0  0  0
  -29.9389  -11.7457   17.7261 H   0  0  0  0  0  0
  -29.5822  -13.4503   17.6465 H   0  0  0  0  0  0
  -28.0556  -11.2788   19.1031 H   0  0  0  0  0  0
  -27.4316  -12.3376   17.8650 H   0  0  0  0  0  0
  -27.5245  -14.2420   19.3230 H   0  0  0  0  0  0
  -28.8103  -12.5372   21.5035 H   0  0  0  0  0  0
  -28.2634  -14.1874   21.6973 H   0  0  0  0  0  0
  -25.2794   -9.5661   22.4760 H   0  0  0  0  0  0
  -23.9988   -7.4650   22.7469 H   0  0  0  0  0  0
  -21.0848   -8.8839   19.8980 H   0  0  0  0  0  0
  -22.3770  -10.9682   19.6196 H   0  0  0  0  0  0
  -21.2066   -7.6166   23.9734 H   0  0  0  0  0  0
  -21.1458   -6.0527   25.9076 H   0  0  0  0  0  0
  -22.0602   -2.7624   23.2826 H   0  0  0  0  0  0
  -22.3950  -11.9910   22.4921 H   0  0  0  0  0  0
  -21.0996  -13.1295   22.2608 H   0  0  0  0  0  0
  -24.6396  -15.8530   20.5699 H   0  0  0  0  0  0
  -26.2306  -15.6433   20.0430 H   0  0  0  0  0  0
  -26.7396  -32.5071   23.0872 H   0  0  0  0  0  0
  -24.9999  -33.9409   25.0120 H   0  0  0  0  0  0
  -22.7999  -31.2568   21.3429 H   0  0  0  0  0  0
  -23.3760  -35.9558   23.3302 H   0  0  0  0  0  0
  -24.3598  -36.8853   22.2071 H   0  0  0  0  0  0
  -23.7298  -37.6406   23.6714 H   0  0  0  0  0  0
  -26.2435  -31.3493   20.6289 H   0  0  0  0  0  0
  -26.9122  -30.6642   22.0661 H   0  0  0  0  0  0
  -28.1370  -28.5356   21.3115 H   0  0  0  0  0  0
  -25.8652  -25.7199   18.9777 H   0  0  0  0  0  0
  -24.0106  -27.2689   18.9303 H   0  0  0  0  0  0
  -23.8873  -30.5070   19.3827 H   0  0  0  0  0  0
  -22.8359  -29.1959   19.8260 H   0  0  0  0  0  0
  -25.1363  -36.1754   25.0784 H   0  0  0  0  0  0
  -21.0019  -28.3348   24.1314 H   0  0  0  0  0  0
  -20.5683  -26.2356   23.3640 H   0  0  0  0  0  0
  -21.6666  -26.7398   22.1210 H   0  0  0  0  0  0
  -19.6941  -25.6268   21.1267 H   0  0  0  0  0  0
  -19.6706  -27.3150   20.6720 H   0  0  0  0  0  0
  -17.4224  -26.6639   21.4033 H   0  0  0  0  0  0
  -18.0365  -26.0098   22.9043 H   0  0  0  0  0  0
  -19.7966  -30.7323   24.2172 H   0  0  0  0  0  0
  -17.5027  -31.6248   24.5165 H   0  0  0  0  0  0
  -15.5371  -30.2941   23.7695 H   0  0  0  0  0  0
  -15.8706  -28.0795   22.7081 H   0  0  0  0  0  0
  -24.5808  -30.7172   25.7653 H   0  0  0  0  0  0
  -24.8884  -32.3000   26.4704 H   0  0  0  0  0  0
  -25.7864  -30.8969   27.0191 H   0  0  0  0  0  0
  -26.3123  -29.6498   24.1502 H   0  0  0  0  0  0
  -27.3946  -29.7272   25.5181 H   0  0  0  0  0  0
  -27.9088  -30.4006   23.9933 H   0  0  0  0  0  0
  -27.2623  -33.3630   26.2004 H   0  0  0  0  0  0
  -28.3901  -32.6827   25.0338 H   0  0  0  0  0  0
  -28.0691  -31.8472   26.5452 H   0  0  0  0  0  0
  -28.2596  -38.0062   24.7474 H   0  0  0  0  0  0
  -28.1072  -36.2586   24.6336 H   0  0  0  0  0  0
  -27.2281  -37.1482   25.8857 H   0  0  0  0  0  0
  -20.9637  -29.8709   21.6647 H   0  0  0  0  0  0
  -26.0148  -38.2749   24.1325 H   0  0  0  0  0  0
  -28.8686  -23.5018   22.4190 H   0  0  0  0  0  0
  -28.6141  -21.0935   18.8606 H   0  0  0  0  0  0
  -29.6179  -22.5972   24.3716 H   0  0  0  0  0  0
  -30.7547  -21.2673   24.2025 H   0  0  0  0  0  0
  -29.0813  -20.9406   24.6625 H   0  0  0  0  0  0
  -30.7797  -18.3420   19.7997 H   0  0  0  0  0  0
  -29.2761  -18.2170   18.9838 H   0  0  0  0  0  0
  -26.9102  -23.9719   19.9919 H   0  0  0  0  0  0
  -28.1529  -24.0940   18.8182 H   0  0  0  0  0  0
  -28.6850  -16.3867   20.7805 H   0  0  0  0  0  0
  1 25  1  0  0  0
  1 30  2  0  0  0
  1 80  1  0  0  0
  2  3  1  0  0  0
  2 25  1  0  0  0
  2 82  1  0  0  0
  2 83  1  0  0  0
  3  4  1  0  0  0
  3 84  1  0  0  0
  3 85  1  0  0  0
  4  5  1  0  0  0
  4 86  1  0  0  0
  4 87  1  0  0  0
  5  6  1  0  0  0
  5 26  1  0  0  0
  5 88  1  0  0  0
  6 25  1  0  0  0
  6 89  1  0  0  0
  6 90  1  0  0  0
  7  8  2  0  0  0
  7 26  1  0  0  0
  7 29  1  0  0  0
  8  9  1  0  0  0
  8 22  1  0  0  0
  9 10  1  0  0  0
  9 27  2  0  0  0
 10 11  2  0  0  0
 10 15  1  0  0  0
 11 12  1  0  0  0
 11 91  1  0  0  0
 12 13  2  0  0  0
 12 92  1  0  0  0
 13 14  1  0  0  0
 13 31  1  0  0  0
 14 15  2  0  0  0
 14 93  1  0  0  0
 15 94  1  0  0  0
 16 17  2  0  0  0
 16 21  1  0  0  0
 16 31  1  0  0  0
 17 18  1  0  0  0
 17 95  1  0  0  0
 18 19  2  0  0  0
 18 96  1  0  0  0
 19 20  1  0  0  0
 19 24  1  0  0  0
 20 21  2  0  0  0
 20 97  1  0  0  0
 21 23  1  0  0  0
 22 28  1  0  0  0
 22 32  2  0  0  0
 26 27  1  0  0  0
 28 98  1  0  0  0
 28 99  1  0  0  0
 29100  1  0  0  0
 29101  1  0  0  0
 33 34  1  0  0  0
 33 66  1  0  0  0
 33 70  2  0  0  0
 34 36  1  0  0  0
 34 59  1  0  0  0
 34102  1  0  0  0
 35 44  2  0  0  0
 35 45  1  0  0  0
 35 68  1  0  0  0
 36 56  1  0  0  0
 36103  1  0  0  0
 37 39  1  0  0  0
 37 47  1  0  0  0
 37 66  1  0  0  0
 37104  1  0  0  0
 38 43  2  0  0  0
 38 46  1  0  0  0
 38 47  1  0  0  0
 39 64  1  0  0  0
 39 67  2  0  0  0
 40 52  1  0  0  0
 40 53  2  0  0  0
 40 58  1  0  0  0
 41105  1  0  0  0
 41106  1  0  0  0
 41107  1  0  0  0
 41 48  1  0  0  0
 42 43  1  0  0  0
 42 66  1  0  0  0
 42108  1  0  0  0
 42109  1  0  0  0
 43 44  1  0  0  0
 44110  1  0  0  0
 45 46  2  0  0  0
 45111  1  0  0  0
 46112  1  0  0  0
 47113  1  0  0  0
 47114  1  0  0  0
 48 56  1  0  0  0
 48 65  1  0  0  0
 48115  1  0  0  0
 49 50  1  0  0  0
 49 53  1  0  0  0
 49 64  1  0  0  0
 49116  1  0  0  0
 50 51  1  0  0  0
 50117  1  0  0  0
 50118  1  0  0  0
 51 52  1  0  0  0
 51119  1  0  0  0
 51120  1  0  0  0
 52121  1  0  0  0
 52122  1  0  0  0
 53 54  1  0  0  0
 54 55  2  0  0  0
 54123  1  0  0  0
 55 57  1  0  0  0
 55124  1  0  0  0
 56 69  2  0  0  0
 57 58  2  0  0  0
 57125  1  0  0  0
 58126  1  0  0  0
 59 60  1  0  0  0
 59 61  1  0  0  0
 59 62  1  0  0  0
 60127  1  0  0  0
 60128  1  0  0  0
 60129  1  0  0  0
 61130  1  0  0  0
 61131  1  0  0  0
 61132  1  0  0  0
 62133  1  0  0  0
 62134  1  0  0  0
 62135  1  0  0  0
 63 65  1  0  0  0
 63136  1  0  0  0
 63137  1  0  0  0
 63138  1  0  0  0
 64139  1  0  0  0
 65140  1  0  0  0
 68 79  1  0  0  0
 71 73  2  0  0  0
 71 74  1  0  0  0
 71141  1  0  0  0
 72 73  1  0  0  0
 72 75  2  0  0  0
 72142  1  0  0  0
 73 79  1  0  0  0
 74 76  2  0  0  0
 74 77  1  0  0  0
 75 76  1  0  0  0
 75 78  1  0  0  0
 76 81  1  0  0  0
 77143  1  0  0  0
 77144  1  0  0  0
 77145  1  0  0  0
 78 80  1  0  0  0
 78146  1  0  0  0
 78147  1  0  0  0
 79148  1  0  0  0
 79149  1  0  0  0
 80150  1  0  0  0
M  ISO  4   1 100  68 101  79 101  80 100
M  END
> <chiral flag>
0

> <version>
0

> <s_m_source_file>
/data/baiqing/PycharmProjects/Reinvent-master-3.2/result/LINK_invent/BTK/process_docking_weight1_custom_sum_contain_oxygen_bond_distance_aromatic_linkinvent_7_9_3/rearranged_h_0031.sdf

> <i_m_source_file_index>
51

> <r_mmod_Potential_Energy-OPLS-2005>
1394.60424804688

> <r_mmod_Stretch_Energy-OPLS-2005>
648.426452636719

> <r_mmod_Bend_Energy-OPLS-2005>
440.15771484375

> <r_mmod_Torsional_Energy-OPLS-2005>
219.670227050781

> <r_mmod_Improper_Torsional_Energy-OPLS-2005>
5.91326522827148

> <r_mmod_Van_der_Waal_Energy-OPLS-2005>
127.523956298828

> <r_mmod_Electrostatic_Energy-OPLS-2005>
-370.491607666016

> <r_mmod_Solvation_Energy-OPLS-2005>
-211.118423461914

> <b_mmod_Minimization_Converged-OPLS-2005>
0

> <r_mmod_RMS_Derivative-OPLS-2005>
3.70600986480713

$$$$
51
                    3D
 Structure written by MMmdl.
159167  0  0  1  0            999 V2000
  -30.5150  -15.0810   20.3919 C   0  0  0  0  0  0
  -30.4376  -12.6785   19.5101 C   0  0  0  0  0  0
  -29.5270  -12.5497   18.2659 C   0  0  0  0  0  0
  -28.0656  -12.3112   18.6886 C   0  0  0  0  0  0
  -27.6209  -13.2632   19.8293 C   0  0  2  0  0  0
  -28.6611  -13.3630   20.9650 C   0  0  0  0  0  0
  -25.2427  -13.8235   20.5723 C   0  0  0  0  0  0
  -24.1762  -13.0438   20.9230 C   0  0  0  0  0  0
  -24.6404  -11.6932   20.8750 C   0  0  0  0  0  0
  -23.9096  -10.4296   21.0404 C   0  0  0  0  0  0
  -24.3642   -9.4211   21.9186 C   0  0  0  0  0  0
  -23.6307   -8.2249   22.0760 C   0  0  0  0  0  0
  -22.4283   -8.0293   21.3555 C   0  0  0  0  0  0
  -21.9926   -9.0267   20.4653 C   0  0  0  0  0  0
  -22.7262  -10.2136   20.3057 C   0  0  0  0  0  0
  -21.6853   -6.0747   22.5280 C   0  0  0  0  0  0
  -21.4022   -6.5651   23.8215 C   0  0  0  0  0  0
  -21.3659   -5.6797   24.9177 C   0  0  0  0  0  0
  -21.6038   -4.3061   24.7220 C   0  0  0  0  0  0
  -21.8817   -3.8157   23.4344 C   0  0  0  0  0  0
  -21.9193   -4.6978   22.3399 C   0  0  0  0  0  0
  -22.7775  -13.5193   21.1877 C   0  0  0  0  0  0
  -22.1661   -4.2171   21.0977 F   0  0  0  0  0  0
  -21.5624   -3.4537   25.7733 F   0  0  0  0  0  0
  -29.9200  -13.8067   20.3507 N   0  0  0  0  0  0
  -26.2859  -12.9494   20.3228 N   0  0  0  0  0  0
  -25.9340  -11.6609   20.5721 N   0  0  0  0  0  0
  -22.0434  -12.8185   22.0439 N   0  0  0  0  0  0
  -25.4052  -15.1968   20.4161 N   0  0  0  0  0  0
  -31.7279  -15.1025   20.1535 O   0  0  0  0  0  0
  -21.6643   -6.8894   21.4247 O   0  0  0  0  0  0
  -22.3446  -14.5485   20.6710 O   0  0  0  0  0  0
  -24.6539  -31.8341   23.1794 C   0  0  0  0  0  0
  -25.9263  -32.4643   23.8222 C   0  0  1  0  0  0
  -27.2188  -27.0324   20.1430 C   0  0  0  0  0  0
  -25.5962  -33.8450   24.2132 N   0  0  0  0  0  0
  -23.4624  -30.4520   21.5277 C   0  0  2  0  0  0
  -24.9108  -28.8673   20.1059 C   0  0  0  0  0  0
  -22.7619  -29.4498   22.4812 C   0  0  0  0  0  0
  -18.0316  -28.1404   22.8466 C   0  0  0  0  0  0
  -24.1489  -36.7227   23.2643 C   0  0  0  0  0  0
  -26.0264  -30.6753   21.3927 C   0  0  0  0  0  0
  -26.0941  -29.2783   20.7299 C   0  0  0  0  0  0
  -27.2394  -28.3781   20.7329 C   0  0  0  0  0  0
  -25.9872  -26.7426   19.5116 C   0  0  0  0  0  0
  -24.8762  -27.6143   19.4819 C   0  0  0  0  0  0
  -23.6927  -29.7796   20.1487 C   0  0  0  0  0  0
  -25.4123  -36.3001   24.0312 C   0  0  1  0  0  0
  -20.5933  -28.3739   23.1202 C   0  0  2  0  0  0
  -20.6798  -26.9431   22.5395 C   0  0  0  0  0  0
  -19.5771  -26.6379   21.5205 C   0  0  0  0  0  0
  -18.1953  -26.7939   22.1619 C   0  0  0  0  0  0
  -19.1572  -28.8893   23.2829 C   0  0  0  0  0  0
  -18.9486  -30.1484   23.8864 C   0  0  0  0  0  0
  -17.6478  -30.6595   24.0557 C   0  0  0  0  0  0
  -25.9086  -34.9375   23.5038 C   0  0  0  0  0  0
  -16.5372  -29.9081   23.6338 C   0  0  0  0  0  0
  -16.7297  -28.6506   23.0354 C   0  0  0  0  0  0
  -26.4539  -31.6547   25.0708 C   0  0  0  0  0  0
  -25.3681  -31.3775   26.1375 C   0  0  0  0  0  0
  -27.0411  -30.2924   24.6367 C   0  0  0  0  0  0
  -27.6050  -32.4327   25.7503 C   0  0  0  0  0  0
  -27.5575  -37.1765   24.8459 C   0  0  0  0  0  0
  -21.4298  -29.3049   22.3565 N   0  0  0  0  0  0
  -26.4280  -37.3725   23.9413 N   0  0  0  0  0  0
  -24.7354  -31.0100   22.0882 N   0  0  0  0  0  0
  -23.4217  -28.8049   23.3006 O   0  0  0  0  0  0
  -28.2515  -25.9913   20.2898 O   0  0  0  0  0  0
  -26.5680  -34.8894   22.4627 O   0  0  0  0  0  0
  -23.5632  -32.1260   23.6949 O   0  0  0  0  0  0
  -29.9498  -20.6529   21.2237 C   0  0  0  0  0  0
  -28.8291  -20.1636   19.1750 C   0  0  0  0  0  0
  -29.2869  -22.1721   21.2687 C   0  0  0  0  0  0
  -28.1337  -21.6515   19.2384 C   0  0  0  0  0  0
  -29.2689  -19.3687   20.4949 C   0  0  1  0  0  0
  -28.9090  -22.9008   19.8981 C   0  0  1  0  0  0
  -29.9558  -25.1434   19.1015 C   0  0  0  0  0  0
  -27.7701  -24.5766   18.1942 C   0  0  0  0  0  0
  -30.1839  -17.8813   20.3827 C   0  0  0  0  0  0
  -28.5595  -24.6139   19.5178 C   0  0  0  0  0  0
  -29.7669  -16.3199   20.4907 N   0  0  0  0  0  0
  -31.4685  -12.8458   19.1939 H   0  0  0  0  0  0
  -30.4537  -11.7476   20.0785 H   0  0  0  0  0  0
  -29.8707  -11.7388   17.6221 H   0  0  0  0  0  0
  -29.5930  -13.4631   17.6723 H   0  0  0  0  0  0
  -27.9849  -11.2761   19.0219 H   0  0  0  0  0  0
  -27.4009  -12.4091   17.8294 H   0  0  0  0  0  0
  -27.5616  -14.2494   19.3685 H   0  0  0  0  0  0
  -28.7795  -12.4098   21.4810 H   0  0  0  0  0  0
  -28.3378  -14.0865   21.7153 H   0  0  0  0  0  0
  -25.2792   -9.5680   22.4759 H   0  0  0  0  0  0
  -24.0021   -7.4631   22.7472 H   0  0  0  0  0  0
  -21.0858   -8.8783   19.8947 H   0  0  0  0  0  0
  -22.3731  -10.9677   19.6159 H   0  0  0  0  0  0
  -21.2031   -7.6160   23.9726 H   0  0  0  0  0  0
  -21.1471   -6.0527   25.9077 H   0  0  0  0  0  0
  -22.0597   -2.7624   23.2824 H   0  0  0  0  0  0
  -22.4068  -11.9866   22.4845 H   0  0  0  0  0  0
  -21.1043  -13.1195   22.2644 H   0  0  0  0  0  0
  -24.6316  -15.8428   20.5288 H   0  0  0  0  0  0
  -26.2444  -15.6432   20.0693 H   0  0  0  0  0  0
  -26.7334  -32.5215   23.0944 H   0  0  0  0  0  0
  -25.0043  -33.9540   25.0239 H   0  0  0  0  0  0
  -22.7714  -31.2823   21.3675 H   0  0  0  0  0  0
  -23.3769  -35.9539   23.3266 H   0  0  0  0  0  0
  -24.3581  -36.8903   22.2067 H   0  0  0  0  0  0
  -23.7225  -37.6402   23.6711 H   0  0  0  0  0  0
  -26.1907  -31.4243   20.6169 H   0  0  0  0  0  0
  -26.8940  -30.7283   22.0393 H   0  0  0  0  0  0
  -28.1328  -28.6859   21.2578 H   0  0  0  0  0  0
  -25.7989  -25.7708   19.0965 H   0  0  0  0  0  0
  -23.9651  -27.2807   19.0047 H   0  0  0  0  0  0
  -23.8345  -30.5511   19.3908 H   0  0  0  0  0  0
  -22.8053  -29.2247   19.8395 H   0  0  0  0  0  0
  -25.1314  -36.1811   25.0804 H   0  0  0  0  0  0
  -21.0028  -28.3340   24.1321 H   0  0  0  0  0  0
  -20.5675  -26.2354   23.3625 H   0  0  0  0  0  0
  -21.6666  -26.7413   22.1203 H   0  0  0  0  0  0
  -19.6930  -25.6276   21.1268 H   0  0  0  0  0  0
  -19.6712  -27.3161   20.6711 H   0  0  0  0  0  0
  -17.4217  -26.6667   21.4032 H   0  0  0  0  0  0
  -18.0363  -26.0096   22.9032 H   0  0  0  0  0  0
  -19.7961  -30.7311   24.2222 H   0  0  0  0  0  0
  -17.5030  -31.6273   24.5159 H   0  0  0  0  0  0
  -15.5371  -30.2971   23.7685 H   0  0  0  0  0  0
  -15.8698  -28.0814   22.7081 H   0  0  0  0  0  0
  -24.5874  -30.7114   25.7688 H   0  0  0  0  0  0
  -24.8851  -32.2968   26.4697 H   0  0  0  0  0  0
  -25.7921  -30.9011   27.0224 H   0  0  0  0  0  0
  -26.3050  -29.6624   24.1363 H   0  0  0  0  0  0
  -27.3967  -29.7258   25.4985 H   0  0  0  0  0  0
  -27.8983  -30.4123   23.9738 H   0  0  0  0  0  0
  -27.2638  -33.3661   26.1992 H   0  0  0  0  0  0
  -28.3909  -32.6835   25.0366 H   0  0  0  0  0  0
  -28.0666  -31.8511   26.5492 H   0  0  0  0  0  0
  -28.2560  -38.0093   24.7535 H   0  0  0  0  0  0
  -28.1103  -36.2621   24.6245 H   0  0  0  0  0  0
  -27.2297  -37.1365   25.8863 H   0  0  0  0  0  0
  -20.9526  -29.8751   21.6720 H   0  0  0  0  0  0
  -26.0133  -38.2786   24.1438 H   0  0  0  0  0  0
  -30.1416  -20.3618   22.2570 H   0  0  0  0  0  0
  -30.9446  -20.7645   20.7907 H   0  0  0  0  0  0
  -29.7155  -20.2555   18.5455 H   0  0  0  0  0  0
  -28.1610  -19.5095   18.6125 H   0  0  0  0  0  0
  -29.9766  -22.8218   21.8084 H   0  0  0  0  0  0
  -28.3912  -22.1362   21.8902 H   0  0  0  0  0  0
  -27.1652  -21.5573   19.7312 H   0  0  0  0  0  0
  -27.8933  -21.9020   18.2066 H   0  0  0  0  0  0
  -28.3646  -19.1347   21.0569 H   0  0  0  0  0  0
  -29.8594  -22.7806   19.3813 H   0  0  0  0  0  0
  -30.4238  -24.5445   18.3191 H   0  0  0  0  0  0
  -30.6390  -25.1552   19.9516 H   0  0  0  0  0  0
  -29.9148  -26.1592   18.7029 H   0  0  0  0  0  0
  -28.2884  -23.9823   17.4408 H   0  0  0  0  0  0
  -27.6445  -25.5655   17.7532 H   0  0  0  0  0  0
  -26.7929  -24.1125   18.3244 H   0  0  0  0  0  0
  -30.9415  -17.9715   21.1623 H   0  0  0  0  0  0
  -30.7633  -17.9538   19.4609 H   0  0  0  0  0  0
  -28.7804  -16.1721   20.6434 H   0  0  0  0  0  0
  1 25  1  0  0  0
  1 30  2  0  0  0
  1 81  1  0  0  0
  2  3  1  0  0  0
  2 25  1  0  0  0
  2 82  1  0  0  0
  2 83  1  0  0  0
  3  4  1  0  0  0
  3 84  1  0  0  0
  3 85  1  0  0  0
  4  5  1  0  0  0
  4 86  1  0  0  0
  4 87  1  0  0  0
  5  6  1  0  0  0
  5 26  1  0  0  0
  5 88  1  0  0  0
  6 25  1  0  0  0
  6 89  1  0  0  0
  6 90  1  0  0  0
  7  8  2  0  0  0
  7 26  1  0  0  0
  7 29  1  0  0  0
  8  9  1  0  0  0
  8 22  1  0  0  0
  9 10  1  0  0  0
  9 27  2  0  0  0
 10 11  2  0  0  0
 10 15  1  0  0  0
 11 12  1  0  0  0
 11 91  1  0  0  0
 12 13  2  0  0  0
 12 92  1  0  0  0
 13 14  1  0  0  0
 13 31  1  0  0  0
 14 15  2  0  0  0
 14 93  1  0  0  0
 15 94  1  0  0  0
 16 17  2  0  0  0
 16 21  1  0  0  0
 16 31  1  0  0  0
 17 18  1  0  0  0
 17 95  1  0  0  0
 18 19  2  0  0  0
 18 96  1  0  0  0
 19 20  1  0  0  0
 19 24  1  0  0  0
 20 21  2  0  0  0
 20 97  1  0  0  0
 21 23  1  0  0  0
 22 28  1  0  0  0
 22 32  2  0  0  0
 26 27  1  0  0  0
 28 98  1  0  0  0
 28 99  1  0  0  0
 29100  1  0  0  0
 29101  1  0  0  0
 33 34  1  0  0  0
 33 66  1  0  0  0
 33 70  2  0  0  0
 34 36  1  0  0  0
 34 59  1  0  0  0
 34102  1  0  0  0
 35 44  2  0  0  0
 35 45  1  0  0  0
 35 68  1  0  0  0
 36 56  1  0  0  0
 36103  1  0  0  0
 37 39  1  0  0  0
 37 47  1  0  0  0
 37 66  1  0  0  0
 37104  1  0  0  0
 38 43  2  0  0  0
 38 46  1  0  0  0
 38 47  1  0  0  0
 39 64  1  0  0  0
 39 67  2  0  0  0
 40 52  1  0  0  0
 40 53  2  0  0  0
 40 58  1  0  0  0
 41105  1  0  0  0
 41106  1  0  0  0
 41107  1  0  0  0
 41 48  1  0  0  0
 42 43  1  0  0  0
 42 66  1  0  0  0
 42108  1  0  0  0
 42109  1  0  0  0
 43 44  1  0  0  0
 44110  1  0  0  0
 45 46  2  0  0  0
 45111  1  0  0  0
 46112  1  0  0  0
 47113  1  0  0  0
 47114  1  0  0  0
 48 56  1  0  0  0
 48 65  1  0  0  0
 48115  1  0  0  0
 49 50  1  0  0  0
 49 53  1  0  0  0
 49 64  1  0  0  0
 49116  1  0  0  0
 50 51  1  0  0  0
 50117  1  0  0  0
 50118  1  0  0  0
 51 52  1  0  0  0
 51119  1  0  0  0
 51120  1  0  0  0
 52121  1  0  0  0
 52122  1  0  0  0
 53 54  1  0  0  0
 54 55  2  0  0  0
 54123  1  0  0  0
 55 57  1  0  0  0
 55124  1  0  0  0
 56 69  2  0  0  0
 57 58  2  0  0  0
 57125  1  0  0  0
 58126  1  0  0  0
 59 60  1  0  0  0
 59 61  1  0  0  0
 59 62  1  0  0  0
 60127  1  0  0  0
 60128  1  0  0  0
 60129  1  0  0  0
 61130  1  0  0  0
 61131  1  0  0  0
 61132  1  0  0  0
 62133  1  0  0  0
 62134  1  0  0  0
 62135  1  0  0  0
 63 65  1  0  0  0
 63136  1  0  0  0
 63137  1  0  0  0
 63138  1  0  0  0
 64139  1  0  0  0
 65140  1  0  0  0
 68 80  1  0  0  0
 71 73  1  0  0  0
 71 75  1  0  0  0
 71141  1  0  0  0
 71142  1  0  0  0
 72 74  1  0  0  0
 72 75  1  0  0  0
 72143  1  0  0  0
 72144  1  0  0  0
 73145  1  0  0  0
 73146  1  0  0  0
 73 76  1  0  0  0
 74 76  1  0  0  0
 74147  1  0  0  0
 74148  1  0  0  0
 75 79  1  0  0  0
 75149  1  0  0  0
 76 80  1  0  0  0
 76150  1  0  0  0
 77151  1  0  0  0
 77152  1  0  0  0
 77153  1  0  0  0
 77 80  1  0  0  0
 78 80  1  0  0  0
 78154  1  0  0  0
 78155  1  0  0  0
 78156  1  0  0  0
 79 81  1  0  0  0
 79157  1  0  0  0
 79158  1  0  0  0
 81159  1  0  0  0
M  ISO  4   1 100  68 101  80 101  81 100
M  END
> <chiral flag>
0

> <version>
0

> <s_m_source_file>
/data/baiqing/PycharmProjects/Reinvent-master-3.2/result/LINK_invent/BTK/process_docking_weight1_custom_sum_contain_oxygen_bond_distance_aromatic_linkinvent_7_9_3/rearranged_h_0031.sdf

> <i_m_source_file_index>
52

> <r_mmod_Potential_Energy-OPLS-2005>
988.899353027344

> <r_mmod_Stretch_Energy-OPLS-2005>
401.222930908203

> <r_mmod_Bend_Energy-OPLS-2005>
478.2197265625

> <r_mmod_Torsional_Energy-OPLS-2005>
269.682739257812

> <r_mmod_Improper_Torsional_Energy-OPLS-2005>
4.83825492858887

> <r_mmod_Van_der_Waal_Energy-OPLS-2005>
130.894836425781

> <r_mmod_Electrostatic_Energy-OPLS-2005>
-395.002899169922

> <r_mmod_Solvation_Energy-OPLS-2005>
-199.760192871094

> <b_mmod_Minimization_Converged-OPLS-2005>
0

> <r_mmod_RMS_Derivative-OPLS-2005>
1.38237166404724

$$$$
52
                    3D
 Structure written by MMmdl.
154162  0  0  1  0            999 V2000
  -30.6715  -14.5509   20.5577 C   0  0  0  0  0  0
  -30.4278  -12.3555   19.4347 C   0  0  0  0  0  0
  -29.4971  -12.5058   18.2130 C   0  0  0  0  0  0
  -28.0189  -12.3582   18.6257 C   0  0  0  0  0  0
  -27.6544  -13.2148   19.8672 C   0  0  2  0  0  0
  -28.6975  -13.0350   20.9930 C   0  0  0  0  0  0
  -25.2548  -13.8176   20.5679 C   0  0  0  0  0  0
  -24.1826  -13.0438   20.9194 C   0  0  0  0  0  0
  -24.6395  -11.6913   20.8746 C   0  0  0  0  0  0
  -23.9064  -10.4298   21.0416 C   0  0  0  0  0  0
  -24.3617   -9.4211   21.9190 C   0  0  0  0  0  0
  -23.6293   -8.2245   22.0759 C   0  0  0  0  0  0
  -22.4271   -8.0287   21.3551 C   0  0  0  0  0  0
  -21.9909   -9.0260   20.4652 C   0  0  0  0  0  0
  -22.7236  -10.2139   20.3063 C   0  0  0  0  0  0
  -21.6851   -6.0738   22.5282 C   0  0  0  0  0  0
  -21.4012   -6.5641   23.8217 C   0  0  0  0  0  0
  -21.3662   -5.6793   24.9178 C   0  0  0  0  0  0
  -21.6045   -4.3056   24.7229 C   0  0  0  0  0  0
  -21.8820   -3.8149   23.4348 C   0  0  0  0  0  0
  -21.9193   -4.6968   22.3406 C   0  0  0  0  0  0
  -22.7844  -13.5231   21.1850 C   0  0  0  0  0  0
  -22.1657   -4.2155   21.0981 F   0  0  0  0  0  0
  -21.5631   -3.4538   25.7740 F   0  0  0  0  0  0
  -30.0182  -13.3591   20.4330 N   0  0  0  0  0  0
  -26.2986  -12.9360   20.3331 N   0  0  0  0  0  0
  -25.9320  -11.6515   20.5770 N   0  0  0  0  0  0
  -22.0480  -12.8241   22.0414 N   0  0  0  0  0  0
  -25.4239  -15.1898   20.4082 N   0  0  0  0  0  0
  -31.8180  -14.7150   20.1320 O   0  0  0  0  0  0
  -21.6639   -6.8881   21.4244 O   0  0  0  0  0  0
  -22.3534  -14.5537   20.6696 O   0  0  0  0  0  0
  -24.6183  -31.8646   23.2063 C   0  0  0  0  0  0
  -25.9061  -32.4805   23.8378 C   0  0  1  0  0  0
  -27.2312  -27.3908   20.1155 C   0  0  0  0  0  0
  -25.5907  -33.8605   24.2312 N   0  0  0  0  0  0
  -23.4093  -30.4861   21.5480 C   0  0  2  0  0  0
  -24.8573  -28.9421   20.1195 C   0  0  0  0  0  0
  -22.7432  -29.4651   22.4987 C   0  0  0  0  0  0
  -18.0282  -28.1377   22.8494 C   0  0  0  0  0  0
  -24.1486  -36.7307   23.2640 C   0  0  0  0  0  0
  -25.9416  -30.8178   21.3654 C   0  0  0  0  0  0
  -26.0193  -29.4462   20.7184 C   0  0  0  0  0  0
  -27.2122  -28.6789   20.7110 C   0  0  0  0  0  0
  -26.0560  -26.9134   19.5024 C   0  0  0  0  0  0
  -24.8731  -27.6773   19.5062 C   0  0  0  0  0  0
  -23.6201  -29.8128   20.1652 C   0  0  0  0  0  0
  -25.4113  -36.3104   24.0338 C   0  0  1  0  0  0
  -20.5872  -28.3675   23.1309 C   0  0  2  0  0  0
  -20.6776  -26.9406   22.5424 C   0  0  0  0  0  0
  -19.5756  -26.6378   21.5222 C   0  0  0  0  0  0
  -18.1929  -26.7929   22.1624 C   0  0  0  0  0  0
  -19.1531  -28.8845   23.2896 C   0  0  0  0  0  0
  -18.9460  -30.1451   23.8908 C   0  0  0  0  0  0
  -17.6460  -30.6583   24.0566 C   0  0  0  0  0  0
  -25.9039  -34.9470   23.5123 C   0  0  0  0  0  0
  -16.5351  -29.9086   23.6322 C   0  0  0  0  0  0
  -16.7270  -28.6502   23.0345 C   0  0  0  0  0  0
  -26.4479  -31.6590   25.0713 C   0  0  0  0  0  0
  -25.3737  -31.3700   26.1455 C   0  0  0  0  0  0
  -27.0310  -30.3029   24.6105 C   0  0  0  0  0  0
  -27.6056  -32.4309   25.7472 C   0  0  0  0  0  0
  -27.5582  -37.1811   24.8469 C   0  0  0  0  0  0
  -21.4153  -29.3045   22.3721 N   0  0  0  0  0  0
  -26.4298  -37.3793   23.9409 N   0  0  0  0  0  0
  -24.6747  -31.0720   22.0978 N   0  0  0  0  0  0
  -23.4181  -28.8203   23.3053 O   0  0  0  0  0  0
  -28.3691  -26.6031   20.0923 O   0  0  0  0  0  0
  -26.5605  -34.8926   22.4686 O   0  0  0  0  0  0
  -23.5363  -32.1419   23.7431 O   0  0  0  0  0  0
  -28.5505  -17.9290   19.7739 C   0  0  0  0  0  0
  -28.0242  -20.3220   19.6655 C   0  0  0  0  0  0
  -29.5592  -18.1671   20.7313 C   0  0  0  0  0  0
  -29.0344  -20.6177   20.6082 C   0  0  0  0  0  0
  -27.7890  -18.9944   19.2530 C   0  0  0  0  0  0
  -29.7865  -19.5226   21.1422 C   0  0  0  0  0  0
  -30.4084  -16.9872   21.2847 C   0  0  0  0  0  0
  -27.9762  -24.0821   20.6321 C   0  0  0  0  0  0
  -28.4227  -25.5265   21.0649 C   0  0  0  0  0  0
  -29.0774  -23.0656   20.1739 C   0  0  0  0  0  0
  -29.9453  -15.5904   21.0425 N   0  0  0  0  0  0
  -29.2809  -21.9222   21.0500 O   0  0  0  0  0  0
  -26.5535  -18.6686   18.0943 Cl  0  0  0  0  0  0
  -31.0188  -19.8670   22.3060 Cl  0  0  0  0  0  0
  -31.4690  -12.4728   19.1298 H   0  0  0  0  0  0
  -30.3520  -11.3527   19.8573 H   0  0  0  0  0  0
  -29.7499  -11.7619   17.4554 H   0  0  0  0  0  0
  -29.6533  -13.4811   17.7501 H   0  0  0  0  0  0
  -27.8403  -11.3033   18.8385 H   0  0  0  0  0  0
  -27.3679  -12.6141   17.7885 H   0  0  0  0  0  0
  -27.6840  -14.2576   19.5486 H   0  0  0  0  0  0
  -28.6941  -12.0063   21.3563 H   0  0  0  0  0  0
  -28.4518  -13.6540   21.8573 H   0  0  0  0  0  0
  -25.2762   -9.5688   22.4764 H   0  0  0  0  0  0
  -24.0007   -7.4639   22.7477 H   0  0  0  0  0  0
  -21.0838   -8.8786   19.8959 H   0  0  0  0  0  0
  -22.3699  -10.9685   19.6181 H   0  0  0  0  0  0
  -21.1999   -7.6147   23.9723 H   0  0  0  0  0  0
  -21.1480   -6.0519   25.9082 H   0  0  0  0  0  0
  -22.0595   -2.7612   23.2847 H   0  0  0  0  0  0
  -22.4073  -11.9901   22.4816 H   0  0  0  0  0  0
  -21.1106  -13.1296   22.2612 H   0  0  0  0  0  0
  -24.6502  -15.8367   20.5102 H   0  0  0  0  0  0
  -26.2622  -15.6317   20.0561 H   0  0  0  0  0  0
  -26.7134  -32.5508   23.1142 H   0  0  0  0  0  0
  -25.0059  -33.9765   25.0459 H   0  0  0  0  0  0
  -22.7000  -31.3037   21.4047 H   0  0  0  0  0  0
  -23.3745  -35.9639   23.3308 H   0  0  0  0  0  0
  -24.3576  -36.8910   22.2052 H   0  0  0  0  0  0
  -23.7235  -37.6517   23.6644 H   0  0  0  0  0  0
  -26.0567  -31.5773   20.5908 H   0  0  0  0  0  0
  -26.8282  -30.8748   21.9850 H   0  0  0  0  0  0
  -28.1107  -29.0649   21.1716 H   0  0  0  0  0  0
  -26.0526  -25.9466   19.0203 H   0  0  0  0  0  0
  -23.9816  -27.2840   19.0379 H   0  0  0  0  0  0
  -23.7297  -30.5835   19.4012 H   0  0  0  0  0  0
  -22.7429  -29.2331   19.8713 H   0  0  0  0  0  0
  -25.1283  -36.1972   25.0831 H   0  0  0  0  0  0
  -20.9966  -28.3245   24.1428 H   0  0  0  0  0  0
  -20.5687  -26.2282   23.3616 H   0  0  0  0  0  0
  -21.6641  -26.7455   22.1209 H   0  0  0  0  0  0
  -19.6909  -25.6287   21.1254 H   0  0  0  0  0  0
  -19.6690  -27.3184   20.6748 H   0  0  0  0  0  0
  -17.4210  -26.6692   21.4012 H   0  0  0  0  0  0
  -18.0308  -26.0057   22.9006 H   0  0  0  0  0  0
  -19.7931  -30.7266   24.2281 H   0  0  0  0  0  0
  -17.5011  -31.6255   24.5178 H   0  0  0  0  0  0
  -15.5353  -30.2990   23.7647 H   0  0  0  0  0  0
  -15.8668  -28.0830   22.7056 H   0  0  0  0  0  0
  -24.5925  -30.7026   25.7795 H   0  0  0  0  0  0
  -24.8910  -32.2849   26.4898 H   0  0  0  0  0  0
  -25.8089  -30.8881   27.0218 H   0  0  0  0  0  0
  -26.2857  -29.6795   24.1150 H   0  0  0  0  0  0
  -27.4063  -29.7264   25.4572 H   0  0  0  0  0  0
  -27.8696  -30.4343   23.9261 H   0  0  0  0  0  0
  -27.2686  -33.3610   26.2066 H   0  0  0  0  0  0
  -28.3857  -32.6873   25.0286 H   0  0  0  0  0  0
  -28.0736  -31.8417   26.5373 H   0  0  0  0  0  0
  -28.2618  -38.0093   24.7511 H   0  0  0  0  0  0
  -28.1063  -36.2630   24.6303 H   0  0  0  0  0  0
  -27.2295  -37.1459   25.8870 H   0  0  0  0  0  0
  -20.9326  -29.8752   21.6922 H   0  0  0  0  0  0
  -26.0185  -38.2873   24.1395 H   0  0  0  0  0  0
  -28.3538  -16.9272   19.4229 H   0  0  0  0  0  0
  -27.4041  -21.1061   19.2578 H   0  0  0  0  0  0
  -30.4811  -17.1032   22.3664 H   0  0  0  0  0  0
  -31.4244  -17.1170   20.9085 H   0  0  0  0  0  0
  -27.2064  -24.1538   19.8648 H   0  0  0  0  0  0
  -27.4653  -23.6325   21.4841 H   0  0  0  0  0  0
  -29.4413  -25.4822   21.4503 H   0  0  0  0  0  0
  -27.8227  -25.8226   21.9276 H   0  0  0  0  0  0
  -30.0340  -23.5859   20.1248 H   0  0  0  0  0  0
  -28.8899  -22.7614   19.1444 H   0  0  0  0  0  0
  -29.0058  -15.3732   21.3368 H   0  0  0  0  0  0
  1 25  1  0  0  0
  1 30  2  0  0  0
  1 81  1  0  0  0
  2  3  1  0  0  0
  2 25  1  0  0  0
  2 85  1  0  0  0
  2 86  1  0  0  0
  3  4  1  0  0  0
  3 87  1  0  0  0
  3 88  1  0  0  0
  4  5  1  0  0  0
  4 89  1  0  0  0
  4 90  1  0  0  0
  5  6  1  0  0  0
  5 26  1  0  0  0
  5 91  1  0  0  0
  6 25  1  0  0  0
  6 92  1  0  0  0
  6 93  1  0  0  0
  7  8  2  0  0  0
  7 26  1  0  0  0
  7 29  1  0  0  0
  8  9  1  0  0  0
  8 22  1  0  0  0
  9 10  1  0  0  0
  9 27  2  0  0  0
 10 11  2  0  0  0
 10 15  1  0  0  0
 11 12  1  0  0  0
 11 94  1  0  0  0
 12 13  2  0  0  0
 12 95  1  0  0  0
 13 14  1  0  0  0
 13 31  1  0  0  0
 14 15  2  0  0  0
 14 96  1  0  0  0
 15 97  1  0  0  0
 16 17  2  0  0  0
 16 21  1  0  0  0
 16 31  1  0  0  0
 17 18  1  0  0  0
 17 98  1  0  0  0
 18 19  2  0  0  0
 18 99  1  0  0  0
 19 20  1  0  0  0
 19 24  1  0  0  0
 20 21  2  0  0  0
 20100  1  0  0  0
 21 23  1  0  0  0
 22 28  1  0  0  0
 22 32  2  0  0  0
 26 27  1  0  0  0
 28101  1  0  0  0
 28102  1  0  0  0
 29103  1  0  0  0
 29104  1  0  0  0
 33 34  1  0  0  0
 33 66  1  0  0  0
 33 70  2  0  0  0
 34 36  1  0  0  0
 34 59  1  0  0  0
 34105  1  0  0  0
 35 44  2  0  0  0
 35 45  1  0  0  0
 35 68  1  0  0  0
 36 56  1  0  0  0
 36106  1  0  0  0
 37 39  1  0  0  0
 37 47  1  0  0  0
 37 66  1  0  0  0
 37107  1  0  0  0
 38 43  2  0  0  0
 38 46  1  0  0  0
 38 47  1  0  0  0
 39 64  1  0  0  0
 39 67  2  0  0  0
 40 52  1  0  0  0
 40 53  2  0  0  0
 40 58  1  0  0  0
 41108  1  0  0  0
 41109  1  0  0  0
 41110  1  0  0  0
 41 48  1  0  0  0
 42 43  1  0  0  0
 42 66  1  0  0  0
 42111  1  0  0  0
 42112  1  0  0  0
 43 44  1  0  0  0
 44113  1  0  0  0
 45 46  2  0  0  0
 45114  1  0  0  0
 46115  1  0  0  0
 47116  1  0  0  0
 47117  1  0  0  0
 48 56  1  0  0  0
 48 65  1  0  0  0
 48118  1  0  0  0
 49 50  1  0  0  0
 49 53  1  0  0  0
 49 64  1  0  0  0
 49119  1  0  0  0
 50 51  1  0  0  0
 50120  1  0  0  0
 50121  1  0  0  0
 51 52  1  0  0  0
 51122  1  0  0  0
 51123  1  0  0  0
 52124  1  0  0  0
 52125  1  0  0  0
 53 54  1  0  0  0
 54 55  2  0  0  0
 54126  1  0  0  0
 55 57  1  0  0  0
 55127  1  0  0  0
 56 69  2  0  0  0
 57 58  2  0  0  0
 57128  1  0  0  0
 58129  1  0  0  0
 59 60  1  0  0  0
 59 61  1  0  0  0
 59 62  1  0  0  0
 60130  1  0  0  0
 60131  1  0  0  0
 60132  1  0  0  0
 61133  1  0  0  0
 61134  1  0  0  0
 61135  1  0  0  0
 62136  1  0  0  0
 62137  1  0  0  0
 62138  1  0  0  0
 63 65  1  0  0  0
 63139  1  0  0  0
 63140  1  0  0  0
 63141  1  0  0  0
 64142  1  0  0  0
 65143  1  0  0  0
 68 79  1  0  0  0
 71 73  2  0  0  0
 71 75  1  0  0  0
 71144  1  0  0  0
 72 74  1  0  0  0
 72 75  2  0  0  0
 72145  1  0  0  0
 73 76  1  0  0  0
 73 77  1  0  0  0
 74 76  2  0  0  0
 74 82  1  0  0  0
 75 83  1  0  0  0
 76 84  1  0  0  0
 77 81  1  0  0  0
 77146  1  0  0  0
 77147  1  0  0  0
 78 79  1  0  0  0
 78 80  1  0  0  0
 78148  1  0  0  0
 78149  1  0  0  0
 79150  1  0  0  0
 79151  1  0  0  0
 80 82  1  0  0  0
 80152  1  0  0  0
 80153  1  0  0  0
 81154  1  0  0  0
M  ISO  4   1 100  68 101  79 101  81 100
M  END
> <chiral flag>
0

> <version>
0

> <s_m_source_file>
/data/baiqing/PycharmProjects/Reinvent-master-3.2/result/LINK_invent/BTK/process_docking_weight1_custom_sum_contain_oxygen_bond_distance_aromatic_linkinvent_7_9_3/rearranged_h_0031.sdf

> <i_m_source_file_index>
53

> <r_mmod_Potential_Energy-OPLS-2005>
-27.4203319549561

> <r_mmod_Stretch_Energy-OPLS-2005>
54.0176162719727

> <r_mmod_Bend_Energy-OPLS-2005>
116.742736816406

> <r_mmod_Torsional_Energy-OPLS-2005>
244.118667602539

> <r_mmod_Improper_Torsional_Energy-OPLS-2005>
3.33478736877441

> <r_mmod_Van_der_Waal_Energy-OPLS-2005>
140.786834716797

> <r_mmod_Electrostatic_Energy-OPLS-2005>
-398.403503417969

> <r_mmod_Solvation_Energy-OPLS-2005>
-210.930053710938

> <b_mmod_Minimization_Converged-OPLS-2005>
0

> <r_mmod_RMS_Derivative-OPLS-2005>
1.19572043418884

$$$$
53
                    3D
 Structure written by MMmdl.
158167  0  0  1  0            999 V2000
  -30.5327  -14.8527   20.4146 C   0  0  0  0  0  0
  -30.4391  -12.5153   19.4915 C   0  0  0  0  0  0
  -29.5135  -12.4974   18.2525 C   0  0  0  0  0  0
  -28.0446  -12.3076   18.6696 C   0  0  0  0  0  0
  -27.6383  -13.2334   19.8465 C   0  0  2  0  0  0
  -28.6781  -13.2012   20.9872 C   0  0  0  0  0  0
  -25.2517  -13.8242   20.5624 C   0  0  0  0  0  0
  -24.1815  -13.0518   20.9197 C   0  0  0  0  0  0
  -24.6389  -11.6973   20.8748 C   0  0  0  0  0  0
  -23.9075  -10.4347   21.0424 C   0  0  0  0  0  0
  -24.3627   -9.4260   21.9195 C   0  0  0  0  0  0
  -23.6310   -8.2286   22.0758 C   0  0  0  0  0  0
  -22.4291   -8.0318   21.3548 C   0  0  0  0  0  0
  -21.9915   -9.0316   20.4665 C   0  0  0  0  0  0
  -22.7242  -10.2187   20.3095 C   0  0  0  0  0  0
  -21.6878   -6.0736   22.5268 C   0  0  0  0  0  0
  -21.4016   -6.5634   23.8196 C   0  0  0  0  0  0
  -21.3645   -5.6779   24.9149 C   0  0  0  0  0  0
  -21.6050   -4.3055   24.7204 C   0  0  0  0  0  0
  -21.8820   -3.8158   23.4333 C   0  0  0  0  0  0
  -21.9205   -4.6967   22.3381 C   0  0  0  0  0  0
  -22.7819  -13.5303   21.1866 C   0  0  0  0  0  0
  -22.1687   -4.2162   21.0965 F   0  0  0  0  0  0
  -21.5612   -3.4518   25.7714 F   0  0  0  0  0  0
  -29.9696  -13.5867   20.4076 N   0  0  0  0  0  0
  -26.2930  -12.9425   20.3246 N   0  0  0  0  0  0
  -25.9319  -11.6585   20.5760 N   0  0  0  0  0  0
  -22.0488  -12.8330   22.0441 N   0  0  0  0  0  0
  -25.4267  -15.1925   20.3812 N   0  0  0  0  0  0
  -31.7117  -14.9709   20.0569 O   0  0  0  0  0  0
  -21.6702   -6.8881   21.4229 O   0  0  0  0  0  0
  -22.3504  -14.5617   20.6697 O   0  0  0  0  0  0
  -24.6416  -31.8437   23.1897 C   0  0  0  0  0  0
  -25.9194  -32.4693   23.8273 C   0  0  1  0  0  0
  -27.2052  -27.1441   20.1538 C   0  0  0  0  0  0
  -25.5964  -33.8496   24.2208 N   0  0  0  0  0  0
  -23.4443  -30.4647   21.5343 C   0  0  2  0  0  0
  -24.8919  -28.8906   20.1095 C   0  0  0  0  0  0
  -22.7544  -29.4549   22.4856 C   0  0  0  0  0  0
  -18.0309  -28.1385   22.8470 C   0  0  0  0  0  0
  -24.1491  -36.7232   23.2631 C   0  0  0  0  0  0
  -25.9990  -30.7177   21.3877 C   0  0  0  0  0  0
  -26.0680  -29.3319   20.7280 C   0  0  0  0  0  0
  -27.2280  -28.4741   20.7285 C   0  0  0  0  0  0
  -26.0066  -26.7963   19.4976 C   0  0  0  0  0  0
  -24.8729  -27.6363   19.4783 C   0  0  0  0  0  0
  -23.6702  -29.7928   20.1532 C   0  0  0  0  0  0
  -25.4122  -36.3022   24.0319 C   0  0  1  0  0  0
  -20.5916  -28.3710   23.1233 C   0  0  2  0  0  0
  -20.6785  -26.9407   22.5409 C   0  0  0  0  0  0
  -19.5771  -26.6374   21.5197 C   0  0  0  0  0  0
  -18.1951  -26.7933   22.1598 C   0  0  0  0  0  0
  -19.1560  -28.8863   23.2850 C   0  0  0  0  0  0
  -18.9478  -30.1459   23.8883 C   0  0  0  0  0  0
  -17.6478  -30.6587   24.0549 C   0  0  0  0  0  0
  -25.9073  -34.9404   23.5081 C   0  0  0  0  0  0
  -16.5371  -29.9079   23.6335 C   0  0  0  0  0  0
  -16.7294  -28.6488   23.0373 C   0  0  0  0  0  0
  -26.4550  -31.6556   25.0705 C   0  0  0  0  0  0
  -25.3763  -31.3768   26.1433 C   0  0  0  0  0  0
  -27.0374  -30.2927   24.6284 C   0  0  0  0  0  0
  -27.6113  -32.4314   25.7442 C   0  0  0  0  0  0
  -27.5583  -37.1756   24.8468 C   0  0  0  0  0  0
  -21.4235  -29.3036   22.3592 N   0  0  0  0  0  0
  -26.4286  -37.3732   23.9423 N   0  0  0  0  0  0
  -24.7142  -31.0297   22.0929 N   0  0  0  0  0  0
  -23.4190  -28.8098   23.2999 O   0  0  0  0  0  0
  -28.2657  -26.1765   20.2192 O   0  0  0  0  0  0
  -26.5639  -34.8902   22.4650 O   0  0  0  0  0  0
  -23.5535  -32.1319   23.7115 O   0  0  0  0  0  0
  -29.3161  -18.6597   20.8628 C   0  0  0  0  0  0
  -29.5722  -17.6877   18.8766 C   0  0  0  0  0  0
  -29.6348  -17.3771   20.2009 C   0  0  0  0  0  0
  -29.0643  -19.7193   19.9514 C   0  0  0  0  0  0
  -28.9473  -22.3824   18.9595 C   0  0  0  0  0  0
  -28.6843  -22.1374   21.3762 C   0  0  0  0  0  0
  -28.1578  -23.7862   18.9548 C   0  0  0  0  0  0
  -28.8513  -23.7592   21.3240 C   0  0  0  0  0  0
  -28.5540  -21.2897   20.0410 C   0  0  2  0  0  0
  -28.0301  -24.6397   20.2801 C   0  0  1  0  0  0
  -28.8688  -19.5515   17.3984 C   0  0  0  0  0  0
  -29.1780  -19.0288   18.7196 N   0  0  0  0  0  0
  -29.7315  -15.9650   20.7292 N   0  0  0  0  0  0
  -31.4741  -12.6620   19.1799 H   0  0  0  0  0  0
  -30.4166  -11.5525   20.0030 H   0  0  0  0  0  0
  -29.8110  -11.6939   17.5759 H   0  0  0  0  0  0
  -29.6157  -13.4255   17.6888 H   0  0  0  0  0  0
  -27.9162  -11.2633   18.9609 H   0  0  0  0  0  0
  -27.3921  -12.4657   17.8128 H   0  0  0  0  0  0
  -27.6274  -14.2464   19.4404 H   0  0  0  0  0  0
  -28.7320  -12.2078   21.4342 H   0  0  0  0  0  0
  -28.3922  -13.8770   21.7953 H   0  0  0  0  0  0
  -25.2761   -9.5741   22.4780 H   0  0  0  0  0  0
  -24.0002   -7.4674   22.7472 H   0  0  0  0  0  0
  -21.0837   -8.8873   19.8977 H   0  0  0  0  0  0
  -22.3705  -10.9753   19.6221 H   0  0  0  0  0  0
  -21.2024   -7.6147   23.9708 H   0  0  0  0  0  0
  -21.1460   -6.0503   25.9040 H   0  0  0  0  0  0
  -22.0622   -2.7631   23.2843 H   0  0  0  0  0  0
  -22.4078  -11.9960   22.4812 H   0  0  0  0  0  0
  -21.1132  -13.1391   22.2714 H   0  0  0  0  0  0
  -24.6510  -15.8463   20.4285 H   0  0  0  0  0  0
  -26.2530  -15.5873   19.9492 H   0  0  0  0  0  0
  -26.7238  -32.5297   23.0973 H   0  0  0  0  0  0
  -25.0150  -33.9610   25.0380 H   0  0  0  0  0  0
  -22.7450  -31.2892   21.3797 H   0  0  0  0  0  0
  -23.3775  -35.9538   23.3278 H   0  0  0  0  0  0
  -24.3582  -36.8866   22.2046 H   0  0  0  0  0  0
  -23.7214  -37.6416   23.6670 H   0  0  0  0  0  0
  -26.1580  -31.4714   20.6153 H   0  0  0  0  0  0
  -26.8685  -30.7626   22.0329 H   0  0  0  0  0  0
  -28.1299  -28.8045   21.2254 H   0  0  0  0  0  0
  -25.9226  -25.8354   19.0131 H   0  0  0  0  0  0
  -23.9733  -27.2948   18.9855 H   0  0  0  0  0  0
  -23.8097  -30.5674   19.3983 H   0  0  0  0  0  0
  -22.7846  -29.2378   19.8413 H   0  0  0  0  0  0
  -25.1293  -36.1861   25.0803 H   0  0  0  0  0  0
  -21.0004  -28.3304   24.1356 H   0  0  0  0  0  0
  -20.5643  -26.2311   23.3620 H   0  0  0  0  0  0
  -21.6661  -26.7398   22.1223 H   0  0  0  0  0  0
  -19.6933  -25.6277   21.1253 H   0  0  0  0  0  0
  -19.6724  -27.3156   20.6708 H   0  0  0  0  0  0
  -17.4210  -26.6673   21.4014 H   0  0  0  0  0  0
  -18.0354  -26.0079   22.8995 H   0  0  0  0  0  0
  -19.7956  -30.7283   24.2231 H   0  0  0  0  0  0
  -17.5040  -31.6278   24.5139 H   0  0  0  0  0  0
  -15.5375  -30.2980   23.7672 H   0  0  0  0  0  0
  -15.8687  -28.0801   22.7117 H   0  0  0  0  0  0
  -24.5952  -30.7077   25.7799 H   0  0  0  0  0  0
  -24.8948  -32.2957   26.4783 H   0  0  0  0  0  0
  -25.8087  -30.9023   27.0246 H   0  0  0  0  0  0
  -26.2961  -29.6663   24.1305 H   0  0  0  0  0  0
  -27.3968  -29.7220   25.4854 H   0  0  0  0  0  0
  -27.8899  -30.4113   23.9591 H   0  0  0  0  0  0
  -27.2730  -33.3608   26.2025 H   0  0  0  0  0  0
  -28.3897  -32.6881   25.0247 H   0  0  0  0  0  0
  -28.0827  -31.8452   26.5336 H   0  0  0  0  0  0
  -28.2604  -38.0050   24.7522 H   0  0  0  0  0  0
  -28.1075  -36.2587   24.6284 H   0  0  0  0  0  0
  -27.2310  -37.1394   25.8872 H   0  0  0  0  0  0
  -20.9428  -29.8733   21.6763 H   0  0  0  0  0  0
  -26.0167  -38.2796   24.1454 H   0  0  0  0  0  0
  -29.2158  -18.7790   21.9320 H   0  0  0  0  0  0
  -29.6796  -17.0457   18.0117 H   0  0  0  0  0  0
  -30.0201  -22.5670   19.0327 H   0  0  0  0  0  0
  -28.7882  -22.0002   17.9613 H   0  0  0  0  0  0
  -27.8410  -21.8837   22.0210 H   0  0  0  0  0  0
  -29.5568  -21.7568   21.9074 H   0  0  0  0  0  0
  -27.1419  -23.5802   18.6090 H   0  0  0  0  0  0
  -28.5920  -24.4128   18.1751 H   0  0  0  0  0  0
  -29.9092  -23.9673   21.1589 H   0  0  0  0  0  0
  -28.6529  -24.1451   22.3233 H   0  0  0  0  0  0
  -27.4754  -21.1931   19.9052 H   0  0  0  0  0  0
  -26.9959  -24.5287   20.6085 H   0  0  0  0  0  0
  -28.8697  -18.7532   16.6542 H   0  0  0  0  0  0
  -29.6195  -20.2817   17.0951 H   0  0  0  0  0  0
  -27.8689  -19.9905   17.3971 H   0  0  0  0  0  0
  -28.8967  -15.6773   21.2210 H   0  0  0  0  0  0
  1 25  1  0  0  0
  1 30  2  0  0  0
  1 83  1  0  0  0
  2  3  1  0  0  0
  2 25  1  0  0  0
  2 84  1  0  0  0
  2 85  1  0  0  0
  3  4  1  0  0  0
  3 86  1  0  0  0
  3 87  1  0  0  0
  4  5  1  0  0  0
  4 88  1  0  0  0
  4 89  1  0  0  0
  5  6  1  0  0  0
  5 26  1  0  0  0
  5 90  1  0  0  0
  6 25  1  0  0  0
  6 91  1  0  0  0
  6 92  1  0  0  0
  7  8  2  0  0  0
  7 26  1  0  0  0
  7 29  1  0  0  0
  8  9  1  0  0  0
  8 22  1  0  0  0
  9 10  1  0  0  0
  9 27  2  0  0  0
 10 11  2  0  0  0
 10 15  1  0  0  0
 11 12  1  0  0  0
 11 93  1  0  0  0
 12 13  2  0  0  0
 12 94  1  0  0  0
 13 14  1  0  0  0
 13 31  1  0  0  0
 14 15  2  0  0  0
 14 95  1  0  0  0
 15 96  1  0  0  0
 16 17  2  0  0  0
 16 21  1  0  0  0
 16 31  1  0  0  0
 17 18  1  0  0  0
 17 97  1  0  0  0
 18 19  2  0  0  0
 18 98  1  0  0  0
 19 20  1  0  0  0
 19 24  1  0  0  0
 20 21  2  0  0  0
 20 99  1  0  0  0
 21 23  1  0  0  0
 22 28  1  0  0  0
 22 32  2  0  0  0
 26 27  1  0  0  0
 28100  1  0  0  0
 28101  1  0  0  0
 29102  1  0  0  0
 29103  1  0  0  0
 33 34  1  0  0  0
 33 66  1  0  0  0
 33 70  2  0  0  0
 34 36  1  0  0  0
 34 59  1  0  0  0
 34104  1  0  0  0
 35 44  2  0  0  0
 35 45  1  0  0  0
 35 68  1  0  0  0
 36 56  1  0  0  0
 36105  1  0  0  0
 37 39  1  0  0  0
 37 47  1  0  0  0
 37 66  1  0  0  0
 37106  1  0  0  0
 38 43  2  0  0  0
 38 46  1  0  0  0
 38 47  1  0  0  0
 39 64  1  0  0  0
 39 67  2  0  0  0
 40 52  1  0  0  0
 40 53  2  0  0  0
 40 58  1  0  0  0
 41107  1  0  0  0
 41108  1  0  0  0
 41109  1  0  0  0
 41 48  1  0  0  0
 42 43  1  0  0  0
 42 66  1  0  0  0
 42110  1  0  0  0
 42111  1  0  0  0
 43 44  1  0  0  0
 44112  1  0  0  0
 45 46  2  0  0  0
 45113  1  0  0  0
 46114  1  0  0  0
 47115  1  0  0  0
 47116  1  0  0  0
 48 56  1  0  0  0
 48 65  1  0  0  0
 48117  1  0  0  0
 49 50  1  0  0  0
 49 53  1  0  0  0
 49 64  1  0  0  0
 49118  1  0  0  0
 50 51  1  0  0  0
 50119  1  0  0  0
 50120  1  0  0  0
 51 52  1  0  0  0
 51121  1  0  0  0
 51122  1  0  0  0
 52123  1  0  0  0
 52124  1  0  0  0
 53 54  1  0  0  0
 54 55  2  0  0  0
 54125  1  0  0  0
 55 57  1  0  0  0
 55126  1  0  0  0
 56 69  2  0  0  0
 57 58  2  0  0  0
 57127  1  0  0  0
 58128  1  0  0  0
 59 60  1  0  0  0
 59 61  1  0  0  0
 59 62  1  0  0  0
 60129  1  0  0  0
 60130  1  0  0  0
 60131  1  0  0  0
 61132  1  0  0  0
 61133  1  0  0  0
 61134  1  0  0  0
 62135  1  0  0  0
 62136  1  0  0  0
 62137  1  0  0  0
 63 65  1  0  0  0
 63138  1  0  0  0
 63139  1  0  0  0
 63140  1  0  0  0
 64141  1  0  0  0
 65142  1  0  0  0
 68 80  1  0  0  0
 71 73  1  0  0  0
 71 74  2  0  0  0
 71143  1  0  0  0
 72 73  2  0  0  0
 72 82  1  0  0  0
 72144  1  0  0  0
 73 83  1  0  0  0
 74 82  1  0  0  0
 74 79  1  0  0  0
 75 77  1  0  0  0
 75 79  1  0  0  0
 75145  1  0  0  0
 75146  1  0  0  0
 76 78  1  0  0  0
 76 79  1  0  0  0
 76147  1  0  0  0
 76148  1  0  0  0
 77 80  1  0  0  0
 77149  1  0  0  0
 77150  1  0  0  0
 78 80  1  0  0  0
 78151  1  0  0  0
 78152  1  0  0  0
 79153  1  0  0  0
 80154  1  0  0  0
 81 82  1  0  0  0
 81155  1  0  0  0
 81156  1  0  0  0
 81157  1  0  0  0
 83158  1  0  0  0
M  ISO  4   1 100  68 101  80 101  83 100
M  END
> <chiral flag>
0

> <version>
0

> <s_m_source_file>
/data/baiqing/PycharmProjects/Reinvent-master-3.2/result/LINK_invent/BTK/process_docking_weight1_custom_sum_contain_oxygen_bond_distance_aromatic_linkinvent_7_9_3/rearranged_h_0031.sdf

> <i_m_source_file_index>
54

> <r_mmod_Potential_Energy-OPLS-2005>
440.274627685547

> <r_mmod_Stretch_Energy-OPLS-2005>
195.60791015625

> <r_mmod_Bend_Energy-OPLS-2005>
249.156509399414

> <r_mmod_Torsional_Energy-OPLS-2005>
296.822723388672

> <r_mmod_Improper_Torsional_Energy-OPLS-2005>
7.63375759124756

> <r_mmod_Van_der_Waal_Energy-OPLS-2005>
122.248344421387

> <r_mmod_Electrostatic_Energy-OPLS-2005>
-375.520446777344

> <r_mmod_Solvation_Energy-OPLS-2005>
-213.067306518555

> <b_mmod_Minimization_Converged-OPLS-2005>
0

> <r_mmod_RMS_Derivative-OPLS-2005>
4.63143253326416

$$$$
54
                    3D
 Structure written by MMmdl.
157166  0  0  1  0            999 V2000
  -30.6667  -14.6277   20.5184 C   0  0  0  0  0  0
  -30.4315  -12.3975   19.4518 C   0  0  0  0  0  0
  -29.5009  -12.4945   18.2245 C   0  0  0  0  0  0
  -28.0291  -12.3283   18.6465 C   0  0  0  0  0  0
  -27.6489  -13.2204   19.8572 C   0  0  2  0  0  0
  -28.6942  -13.1114   20.9899 C   0  0  0  0  0  0
  -25.2545  -13.8192   20.5687 C   0  0  0  0  0  0
  -24.1820  -13.0452   20.9193 C   0  0  0  0  0  0
  -24.6396  -11.6921   20.8746 C   0  0  0  0  0  0
  -23.9074  -10.4300   21.0419 C   0  0  0  0  0  0
  -24.3624   -9.4212   21.9192 C   0  0  0  0  0  0
  -23.6297   -8.2246   22.0759 C   0  0  0  0  0  0
  -22.4279   -8.0288   21.3547 C   0  0  0  0  0  0
  -21.9921   -9.0256   20.4646 C   0  0  0  0  0  0
  -22.7250  -10.2136   20.3056 C   0  0  0  0  0  0
  -21.6856   -6.0742   22.5280 C   0  0  0  0  0  0
  -21.4013   -6.5646   23.8212 C   0  0  0  0  0  0
  -21.3653   -5.6798   24.9174 C   0  0  0  0  0  0
  -21.6048   -4.3062   24.7222 C   0  0  0  0  0  0
  -21.8820   -3.8150   23.4347 C   0  0  0  0  0  0
  -21.9194   -4.6971   22.3404 C   0  0  0  0  0  0
  -22.7843  -13.5230   21.1860 C   0  0  0  0  0  0
  -22.1662   -4.2157   21.0983 F   0  0  0  0  0  0
  -21.5628   -3.4545   25.7735 F   0  0  0  0  0  0
  -30.0077  -13.4331   20.4149 N   0  0  0  0  0  0
  -26.2975  -12.9374   20.3313 N   0  0  0  0  0  0
  -25.9326  -11.6527   20.5779 N   0  0  0  0  0  0
  -22.0492  -12.8201   22.0404 N   0  0  0  0  0  0
  -25.4265  -15.1918   20.4092 N   0  0  0  0  0  0
  -31.8378  -14.7432   20.1512 O   0  0  0  0  0  0
  -21.6644   -6.8885   21.4243 O   0  0  0  0  0  0
  -22.3528  -14.5551   20.6735 O   0  0  0  0  0  0
  -24.6248  -31.8605   23.2024 C   0  0  0  0  0  0
  -25.9107  -32.4787   23.8351 C   0  0  1  0  0  0
  -27.2223  -27.3437   20.1093 C   0  0  0  0  0  0
  -25.5940  -33.8593   24.2297 N   0  0  0  0  0  0
  -23.4159  -30.4837   21.5465 C   0  0  2  0  0  0
  -24.8579  -28.9401   20.1125 C   0  0  0  0  0  0
  -22.7453  -29.4625   22.4964 C   0  0  0  0  0  0
  -18.0270  -28.1401   22.8471 C   0  0  0  0  0  0
  -24.1486  -36.7291   23.2631 C   0  0  0  0  0  0
  -25.9535  -30.7998   21.3658 C   0  0  0  0  0  0
  -26.0267  -29.4294   20.7082 C   0  0  0  0  0  0
  -27.2139  -28.6440   20.6922 C   0  0  0  0  0  0
  -26.0310  -26.8953   19.4983 C   0  0  0  0  0  0
  -24.8603  -27.6756   19.5020 C   0  0  0  0  0  0
  -23.6241  -29.8163   20.1622 C   0  0  0  0  0  0
  -25.4108  -36.3094   24.0337 C   0  0  1  0  0  0
  -20.5869  -28.3683   23.1286 C   0  0  2  0  0  0
  -20.6773  -26.9415   22.5401 C   0  0  0  0  0  0
  -19.5760  -26.6393   21.5202 C   0  0  0  0  0  0
  -18.1925  -26.7947   22.1590 C   0  0  0  0  0  0
  -19.1522  -28.8854   23.2876 C   0  0  0  0  0  0
  -18.9462  -30.1455   23.8891 C   0  0  0  0  0  0
  -17.6469  -30.6601   24.0567 C   0  0  0  0  0  0
  -25.9051  -34.9465   23.5110 C   0  0  0  0  0  0
  -16.5352  -29.9108   23.6345 C   0  0  0  0  0  0
  -16.7260  -28.6530   23.0349 C   0  0  0  0  0  0
  -26.4486  -31.6600   25.0722 C   0  0  0  0  0  0
  -25.3737  -31.3727   26.1461 C   0  0  0  0  0  0
  -27.0333  -30.3044   24.6150 C   0  0  0  0  0  0
  -27.6066  -32.4321   25.7488 C   0  0  0  0  0  0
  -27.5582  -37.1781   24.8457 C   0  0  0  0  0  0
  -21.4168  -29.3042   22.3691 N   0  0  0  0  0  0
  -26.4276  -37.3796   23.9422 N   0  0  0  0  0  0
  -24.6839  -31.0641   22.0958 N   0  0  0  0  0  0
  -23.4179  -28.8169   23.3043 O   0  0  0  0  0  0
  -28.3591  -26.5322   20.1430 O   0  0  0  0  0  0
  -26.5603  -34.8933   22.4669 O   0  0  0  0  0  0
  -23.5411  -32.1378   23.7369 O   0  0  0  0  0  0
  -29.0870  -18.6049   19.4089 C   0  0  0  0  0  0
  -29.7914  -18.3895   20.6303 C   0  0  0  0  0  0
  -29.7606  -19.6789   21.1350 C   0  0  0  0  0  0
  -29.7817  -23.0481   21.0019 C   0  0  0  0  0  0
  -28.1432  -22.7240   19.1263 C   0  0  0  0  0  0
  -29.2116  -24.4809   21.3145 C   0  0  0  0  0  0
  -28.3465  -24.2738   18.9637 C   0  0  0  0  0  0
  -28.7244  -22.0611   20.4293 C   0  0  1  0  0  0
  -28.2041  -25.0723   20.2817 C   0  0  2  0  0  0
  -30.4634  -17.1014   21.2090 C   0  0  0  0  0  0
  -28.6914  -19.8738   19.2195 N   0  0  0  0  0  0
  -29.1308  -20.6043   20.2832 N   0  0  0  0  0  0
  -29.9407  -15.7263   20.8934 N   0  0  0  0  0  0
  -30.3947  -20.1436   22.6678 Cl  0  0  0  0  0  0
  -31.4718  -12.5179   19.1438 H   0  0  0  0  0  0
  -30.3672  -11.4109   19.9124 H   0  0  0  0  0  0
  -29.7667  -11.7311   17.4918 H   0  0  0  0  0  0
  -29.6387  -13.4565   17.7290 H   0  0  0  0  0  0
  -27.8804  -11.2792   18.9033 H   0  0  0  0  0  0
  -27.3674  -12.5303   17.8042 H   0  0  0  0  0  0
  -27.6595  -14.2483   19.4934 H   0  0  0  0  0  0
  -28.7071  -12.1076   21.4166 H   0  0  0  0  0  0
  -28.4401  -13.7835   21.8118 H   0  0  0  0  0  0
  -25.2766   -9.5691   22.4767 H   0  0  0  0  0  0
  -24.0006   -7.4642   22.7481 H   0  0  0  0  0  0
  -21.0852   -8.8770   19.8945 H   0  0  0  0  0  0
  -22.3715  -10.9670   19.6160 H   0  0  0  0  0  0
  -21.2001   -7.6153   23.9718 H   0  0  0  0  0  0
  -21.1471   -6.0529   25.9078 H   0  0  0  0  0  0
  -22.0603   -2.7613   23.2844 H   0  0  0  0  0  0
  -22.4100  -11.9829   22.4737 H   0  0  0  0  0  0
  -21.1113  -13.1216   22.2635 H   0  0  0  0  0  0
  -24.6590  -15.8468   20.5129 H   0  0  0  0  0  0
  -26.2751  -15.6293   20.0736 H   0  0  0  0  0  0
  -26.7178  -32.5442   23.1092 H   0  0  0  0  0  0
  -25.0149  -33.9765   25.0480 H   0  0  0  0  0  0
  -22.7102  -31.3046   21.4034 H   0  0  0  0  0  0
  -23.3784  -35.9591   23.3290 H   0  0  0  0  0  0
  -24.3577  -36.8908   22.2050 H   0  0  0  0  0  0
  -23.7215  -37.6480   23.6648 H   0  0  0  0  0  0
  -26.0783  -31.5638   20.5975 H   0  0  0  0  0  0
  -26.8380  -30.8476   21.9897 H   0  0  0  0  0  0
  -28.1164  -29.0162   21.1573 H   0  0  0  0  0  0
  -25.9854  -25.9272   19.0235 H   0  0  0  0  0  0
  -23.9618  -27.2894   19.0418 H   0  0  0  0  0  0
  -23.7367  -30.5917   19.4038 H   0  0  0  0  0  0
  -22.7455  -29.2421   19.8624 H   0  0  0  0  0  0
  -25.1289  -36.1927   25.0830 H   0  0  0  0  0  0
  -20.9937  -28.3252   24.1420 H   0  0  0  0  0  0
  -20.5688  -26.2298   23.3597 H   0  0  0  0  0  0
  -21.6642  -26.7463   22.1183 H   0  0  0  0  0  0
  -19.6942  -25.6310   21.1224 H   0  0  0  0  0  0
  -19.6728  -27.3212   20.6747 H   0  0  0  0  0  0
  -17.4208  -26.6702   21.3982 H   0  0  0  0  0  0
  -18.0305  -26.0083   22.8972 H   0  0  0  0  0  0
  -19.7948  -30.7257   24.2263 H   0  0  0  0  0  0
  -17.5044  -31.6285   24.5167 H   0  0  0  0  0  0
  -15.5365  -30.3024   23.7712 H   0  0  0  0  0  0
  -15.8644  -28.0871   22.7079 H   0  0  0  0  0  0
  -24.5979  -30.6968   25.7823 H   0  0  0  0  0  0
  -24.8829  -32.2875   26.4804 H   0  0  0  0  0  0
  -25.8085  -30.9014   27.0285 H   0  0  0  0  0  0
  -26.2884  -29.6797   24.1195 H   0  0  0  0  0  0
  -27.4092  -29.7284   25.4617 H   0  0  0  0  0  0
  -27.8722  -30.4378   23.9318 H   0  0  0  0  0  0
  -27.2712  -33.3649   26.2026 H   0  0  0  0  0  0
  -28.3897  -32.6817   25.0322 H   0  0  0  0  0  0
  -28.0704  -31.8461   26.5426 H   0  0  0  0  0  0
  -28.2561  -38.0112   24.7554 H   0  0  0  0  0  0
  -28.1114  -36.2651   24.6212 H   0  0  0  0  0  0
  -27.2307  -37.1335   25.8855 H   0  0  0  0  0  0
  -20.9340  -29.8784   21.6913 H   0  0  0  0  0  0
  -26.0168  -38.2857   24.1487 H   0  0  0  0  0  0
  -28.8516  -17.8744   18.6478 H   0  0  0  0  0  0
  -30.2262  -22.6623   21.9145 H   0  0  0  0  0  0
  -30.6040  -23.1374   20.2903 H   0  0  0  0  0  0
  -28.5709  -22.2580   18.2382 H   0  0  0  0  0  0
  -27.0763  -22.5032   19.0841 H   0  0  0  0  0  0
  -30.0518  -25.1646   21.4399 H   0  0  0  0  0  0
  -28.7138  -24.4590   22.2852 H   0  0  0  0  0  0
  -27.6544  -24.6487   18.2104 H   0  0  0  0  0  0
  -29.3392  -24.4631   18.5515 H   0  0  0  0  0  0
  -27.9170  -22.0475   21.1624 H   0  0  0  0  0  0
  -27.2096  -24.8578   20.6774 H   0  0  0  0  0  0
  -30.4682  -17.1631   22.2981 H   0  0  0  0  0  0
  -31.5231  -17.1269   20.9526 H   0  0  0  0  0  0
  -28.9784  -15.5483   21.1376 H   0  0  0  0  0  0
  1 25  1  0  0  0
  1 30  2  0  0  0
  1 83  1  0  0  0
  2  3  1  0  0  0
  2 25  1  0  0  0
  2 85  1  0  0  0
  2 86  1  0  0  0
  3  4  1  0  0  0
  3 87  1  0  0  0
  3 88  1  0  0  0
  4  5  1  0  0  0
  4 89  1  0  0  0
  4 90  1  0  0  0
  5  6  1  0  0  0
  5 26  1  0  0  0
  5 91  1  0  0  0
  6 25  1  0  0  0
  6 92  1  0  0  0
  6 93  1  0  0  0
  7  8  2  0  0  0
  7 26  1  0  0  0
  7 29  1  0  0  0
  8  9  1  0  0  0
  8 22  1  0  0  0
  9 10  1  0  0  0
  9 27  2  0  0  0
 10 11  2  0  0  0
 10 15  1  0  0  0
 11 12  1  0  0  0
 11 94  1  0  0  0
 12 13  2  0  0  0
 12 95  1  0  0  0
 13 14  1  0  0  0
 13 31  1  0  0  0
 14 15  2  0  0  0
 14 96  1  0  0  0
 15 97  1  0  0  0
 16 17  2  0  0  0
 16 21  1  0  0  0
 16 31  1  0  0  0
 17 18  1  0  0  0
 17 98  1  0  0  0
 18 19  2  0  0  0
 18 99  1  0  0  0
 19 20  1  0  0  0
 19 24  1  0  0  0
 20 21  2  0  0  0
 20100  1  0  0  0
 21 23  1  0  0  0
 22 28  1  0  0  0
 22 32  2  0  0  0
 26 27  1  0  0  0
 28101  1  0  0  0
 28102  1  0  0  0
 29103  1  0  0  0
 29104  1  0  0  0
 33 34  1  0  0  0
 33 66  1  0  0  0
 33 70  2  0  0  0
 34 36  1  0  0  0
 34 59  1  0  0  0
 34105  1  0  0  0
 35 44  2  0  0  0
 35 45  1  0  0  0
 35 68  1  0  0  0
 36 56  1  0  0  0
 36106  1  0  0  0
 37 39  1  0  0  0
 37 47  1  0  0  0
 37 66  1  0  0  0
 37107  1  0  0  0
 38 43  2  0  0  0
 38 46  1  0  0  0
 38 47  1  0  0  0
 39 64  1  0  0  0
 39 67  2  0  0  0
 40 52  1  0  0  0
 40 53  2  0  0  0
 40 58  1  0  0  0
 41108  1  0  0  0
 41109  1  0  0  0
 41110  1  0  0  0
 41 48  1  0  0  0
 42 43  1  0  0  0
 42 66  1  0  0  0
 42111  1  0  0  0
 42112  1  0  0  0
 43 44  1  0  0  0
 44113  1  0  0  0
 45 46  2  0  0  0
 45114  1  0  0  0
 46115  1  0  0  0
 47116  1  0  0  0
 47117  1  0  0  0
 48 56  1  0  0  0
 48 65  1  0  0  0
 48118  1  0  0  0
 49 50  1  0  0  0
 49 53  1  0  0  0
 49 64  1  0  0  0
 49119  1  0  0  0
 50 51  1  0  0  0
 50120  1  0  0  0
 50121  1  0  0  0
 51 52  1  0  0  0
 51122  1  0  0  0
 51123  1  0  0  0
 52124  1  0  0  0
 52125  1  0  0  0
 53 54  1  0  0  0
 54 55  2  0  0  0
 54126  1  0  0  0
 55 57  1  0  0  0
 55127  1  0  0  0
 56 69  2  0  0  0
 57 58  2  0  0  0
 57128  1  0  0  0
 58129  1  0  0  0
 59 60  1  0  0  0
 59 61  1  0  0  0
 59 62  1  0  0  0
 60130  1  0  0  0
 60131  1  0  0  0
 60132  1  0  0  0
 61133  1  0  0  0
 61134  1  0  0  0
 61135  1  0  0  0
 62136  1  0  0  0
 62137  1  0  0  0
 62138  1  0  0  0
 63 65  1  0  0  0
 63139  1  0  0  0
 63140  1  0  0  0
 63141  1  0  0  0
 64142  1  0  0  0
 65143  1  0  0  0
 68 79  1  0  0  0
 71 72  1  0  0  0
 71 81  2  0  0  0
 71144  1  0  0  0
 72 73  2  0  0  0
 72 80  1  0  0  0
 73 82  1  0  0  0
 73 84  1  0  0  0
 74 76  1  0  0  0
 74 78  1  0  0  0
 74145  1  0  0  0
 74146  1  0  0  0
 75 77  1  0  0  0
 75 78  1  0  0  0
 75147  1  0  0  0
 75148  1  0  0  0
 76 79  1  0  0  0
 76149  1  0  0  0
 76150  1  0  0  0
 77 79  1  0  0  0
 77151  1  0  0  0
 77152  1  0  0  0
 78 82  1  0  0  0
 78153  1  0  0  0
 79154  1  0  0  0
 80 83  1  0  0  0
 80155  1  0  0  0
 80156  1  0  0  0
 81 82  1  0  0  0
 83157  1  0  0  0
M  ISO  4   1 100  68 101  79 101  83 100
M  END
> <chiral flag>
0

> <version>
0

> <s_m_source_file>
/data/baiqing/PycharmProjects/Reinvent-master-3.2/result/LINK_invent/BTK/process_docking_weight1_custom_sum_contain_oxygen_bond_distance_aromatic_linkinvent_7_9_3/rearranged_h_0031.sdf

> <i_m_source_file_index>
55

> <r_mmod_Potential_Energy-OPLS-2005>
102.087310791016

> <r_mmod_Stretch_Energy-OPLS-2005>
71.5892562866211

> <r_mmod_Bend_Energy-OPLS-2005>
147.742034912109

> <r_mmod_Torsional_Energy-OPLS-2005>
265.469879150391

> <r_mmod_Improper_Torsional_Energy-OPLS-2005>
4.33950710296631

> <r_mmod_Van_der_Waal_Energy-OPLS-2005>
130.426483154297

> <r_mmod_Electrostatic_Energy-OPLS-2005>
-348.689422607422

> <r_mmod_Solvation_Energy-OPLS-2005>
-211.420486450195

> <b_mmod_Minimization_Converged-OPLS-2005>
0

> <r_mmod_RMS_Derivative-OPLS-2005>
2.41866064071655

$$$$
55
                    3D
 Structure written by MMmdl.
161170  0  0  1  0            999 V2000
  -30.5904  -15.0851   20.4214 C   0  0  0  0  0  0
  -30.4169  -12.6770   19.5628 C   0  0  0  0  0  0
  -29.5326  -12.5587   18.2993 C   0  0  0  0  0  0
  -28.0715  -12.3204   18.7035 C   0  0  0  0  0  0
  -27.6206  -13.2795   19.8356 C   0  0  2  0  0  0
  -28.6462  -13.4276   20.9843 C   0  0  0  0  0  0
  -25.2421  -13.8274   20.5735 C   0  0  0  0  0  0
  -24.1772  -13.0455   20.9219 C   0  0  0  0  0  0
  -24.6423  -11.6953   20.8736 C   0  0  0  0  0  0
  -23.9121  -10.4309   21.0386 C   0  0  0  0  0  0
  -24.3654   -9.4217   21.9170 C   0  0  0  0  0  0
  -23.6319   -8.2259   22.0743 C   0  0  0  0  0  0
  -22.4301   -8.0296   21.3533 C   0  0  0  0  0  0
  -21.9947   -9.0273   20.4634 C   0  0  0  0  0  0
  -22.7289  -10.2146   20.3043 C   0  0  0  0  0  0
  -21.6872   -6.0751   22.5261 C   0  0  0  0  0  0
  -21.4032   -6.5648   23.8195 C   0  0  0  0  0  0
  -21.3655   -5.6798   24.9157 C   0  0  0  0  0  0
  -21.6036   -4.3060   24.7206 C   0  0  0  0  0  0
  -21.8826   -3.8154   23.4328 C   0  0  0  0  0  0
  -21.9203   -4.6974   22.3388 C   0  0  0  0  0  0
  -22.7787  -13.5189   21.1874 C   0  0  0  0  0  0
  -22.1670   -4.2162   21.0965 F   0  0  0  0  0  0
  -21.5619   -3.4543   25.7720 F   0  0  0  0  0  0
  -29.9287  -13.8360   20.3991 N   0  0  0  0  0  0
  -26.2862  -12.9569   20.3257 N   0  0  0  0  0  0
  -25.9371  -11.6658   20.5732 N   0  0  0  0  0  0
  -22.0474  -12.8157   22.0431 N   0  0  0  0  0  0
  -25.4060  -15.2011   20.4179 N   0  0  0  0  0  0
  -31.7710  -14.9599   20.0716 O   0  0  0  0  0  0
  -21.6657   -6.8897   21.4228 O   0  0  0  0  0  0
  -22.3450  -14.5486   20.6717 O   0  0  0  0  0  0
  -24.6486  -31.8365   23.1860 C   0  0  0  0  0  0
  -25.9242  -32.4647   23.8258 C   0  0  1  0  0  0
  -27.2004  -27.0582   20.1608 C   0  0  0  0  0  0
  -25.5974  -33.8468   24.2159 N   0  0  0  0  0  0
  -23.4588  -30.4558   21.5287 C   0  0  2  0  0  0
  -24.9124  -28.8831   20.0987 C   0  0  0  0  0  0
  -22.7609  -29.4475   22.4784 C   0  0  0  0  0  0
  -18.0304  -28.1388   22.8444 C   0  0  0  0  0  0
  -24.1503  -36.7246   23.2644 C   0  0  0  0  0  0
  -26.0210  -30.6807   21.4086 C   0  0  0  0  0  0
  -26.0860  -29.2889   20.7452 C   0  0  0  0  0  0
  -27.2258  -28.3878   20.7709 C   0  0  0  0  0  0
  -26.0159  -26.7990   19.4330 C   0  0  0  0  0  0
  -24.8946  -27.6561   19.4227 C   0  0  0  0  0  0
  -23.6970  -29.7964   20.1435 C   0  0  0  0  0  0
  -25.4127  -36.3002   24.0307 C   0  0  1  0  0  0
  -20.5923  -28.3704   23.1197 C   0  0  2  0  0  0
  -20.6781  -26.9392   22.5391 C   0  0  0  0  0  0
  -19.5763  -26.6355   21.5199 C   0  0  0  0  0  0
  -18.1934  -26.7927   22.1596 C   0  0  0  0  0  0
  -19.1572  -28.8866   23.2806 C   0  0  0  0  0  0
  -18.9492  -30.1458   23.8834 C   0  0  0  0  0  0
  -17.6491  -30.6579   24.0550 C   0  0  0  0  0  0
  -25.9081  -34.9376   23.5032 C   0  0  0  0  0  0
  -16.5370  -29.9071   23.6345 C   0  0  0  0  0  0
  -16.7298  -28.6501   23.0343 C   0  0  0  0  0  0
  -26.4552  -31.6573   25.0754 C   0  0  0  0  0  0
  -25.3709  -31.3793   26.1427 C   0  0  0  0  0  0
  -27.0458  -30.2953   24.6437 C   0  0  0  0  0  0
  -27.6058  -32.4380   25.7543 C   0  0  0  0  0  0
  -27.5568  -37.1762   24.8455 C   0  0  0  0  0  0
  -21.4286  -29.3032   22.3572 N   0  0  0  0  0  0
  -26.4282  -37.3724   23.9415 N   0  0  0  0  0  0
  -24.7289  -31.0145   22.0947 N   0  0  0  0  0  0
  -23.4229  -28.7979   23.2927 O   0  0  0  0  0  0
  -28.1953  -25.9971   20.3087 O   0  0  0  0  0  0
  -26.5661  -34.8887   22.4611 O   0  0  0  0  0  0
  -23.5586  -32.1285   23.7023 O   0  0  0  0  0  0
  -28.1954  -21.2527   22.2292 C   0  0  0  0  0  0
  -29.0111  -21.8551   19.7073 C   0  0  0  0  0  0
  -28.7336  -20.1413   21.4984 C   0  0  0  0  0  0
  -29.1938  -20.4536   20.1944 C   0  0  0  0  0  0
  -28.0583  -22.6082   21.7547 C   0  0  0  0  0  0
  -28.4434  -23.0119   20.4423 C   0  0  0  0  0  0
  -28.9074  -18.7435   22.2503 C   0  0  0  0  0  0
  -30.0010  -19.3306   19.3955 C   0  0  0  0  0  0
  -28.9698  -17.2199   21.6613 C   0  0  0  0  0  0
  -29.8381  -17.6911   19.4554 C   0  0  0  0  0  0
  -30.1588  -16.7379   20.7205 C   0  0  2  0  0  0
  -27.4532  -23.6353   22.6995 C   0  0  0  0  0  0
  -31.4590  -17.3250   21.3570 C   0  0  0  0  0  0
  -28.0154  -24.5085   19.7902 C   0  0  0  0  0  0
  -31.4573  -12.7785   19.2533 H   0  0  0  0  0  0
  -30.3862  -11.7510   20.1386 H   0  0  0  0  0  0
  -29.8844  -11.7440   17.6665 H   0  0  0  0  0  0
  -29.6135  -13.4701   17.7042 H   0  0  0  0  0  0
  -27.9886  -11.2864   19.0366 H   0  0  0  0  0  0
  -27.4164  -12.4145   17.8372 H   0  0  0  0  0  0
  -27.5543  -14.2582   19.3597 H   0  0  0  0  0  0
  -28.7459  -12.5063   21.5590 H   0  0  0  0  0  0
  -28.3099  -14.1948   21.6839 H   0  0  0  0  0  0
  -25.2799   -9.5690   22.4741 H   0  0  0  0  0  0
  -24.0027   -7.4654   22.7457 H   0  0  0  0  0  0
  -21.0889   -8.8799   19.8933 H   0  0  0  0  0  0
  -22.3753  -10.9685   19.6146 H   0  0  0  0  0  0
  -21.2040   -7.6162   23.9700 H   0  0  0  0  0  0
  -21.1461   -6.0530   25.9055 H   0  0  0  0  0  0
  -22.0607   -2.7623   23.2820 H   0  0  0  0  0  0
  -22.4173  -11.9857   22.4827 H   0  0  0  0  0  0
  -21.1052  -13.1101   22.2616 H   0  0  0  0  0  0
  -24.6314  -15.8471   20.5187 H   0  0  0  0  0  0
  -26.2570  -15.6443   20.0995 H   0  0  0  0  0  0
  -26.7288  -32.5225   23.0961 H   0  0  0  0  0  0
  -25.0182  -33.9603   25.0342 H   0  0  0  0  0  0
  -22.7655  -31.2847   21.3701 H   0  0  0  0  0  0
  -23.3776  -35.9566   23.3267 H   0  0  0  0  0  0
  -24.3581  -36.8943   22.2066 H   0  0  0  0  0  0
  -23.7258  -37.6419   23.6730 H   0  0  0  0  0  0
  -26.1976  -31.4361   20.6425 H   0  0  0  0  0  0
  -26.8832  -30.7217   22.0616 H   0  0  0  0  0  0
  -28.1044  -28.6740   21.3334 H   0  0  0  0  0  0
  -25.8975  -25.8857   18.8721 H   0  0  0  0  0  0
  -24.0105  -27.3541   18.8777 H   0  0  0  0  0  0
  -23.8525  -30.5811   19.4016 H   0  0  0  0  0  0
  -22.8107  -29.2524   19.8134 H   0  0  0  0  0  0
  -25.1312  -36.1803   25.0793 H   0  0  0  0  0  0
  -20.9993  -28.3295   24.1333 H   0  0  0  0  0  0
  -20.5679  -26.2302   23.3611 H   0  0  0  0  0  0
  -21.6645  -26.7394   22.1179 H   0  0  0  0  0  0
  -19.6928  -25.6256   21.1258 H   0  0  0  0  0  0
  -19.6734  -27.3145   20.6704 H   0  0  0  0  0  0
  -17.4208  -26.6684   21.3987 H   0  0  0  0  0  0
  -18.0293  -26.0087   22.9002 H   0  0  0  0  0  0
  -19.7983  -30.7260   24.2197 H   0  0  0  0  0  0
  -17.5063  -31.6267   24.5141 H   0  0  0  0  0  0
  -15.5376  -30.2947   23.7726 H   0  0  0  0  0  0
  -15.8691  -28.0816   22.7068 H   0  0  0  0  0  0
  -24.5941  -30.7068   25.7763 H   0  0  0  0  0  0
  -24.8830  -32.2975   26.4709 H   0  0  0  0  0  0
  -25.7973  -30.9095   27.0304 H   0  0  0  0  0  0
  -26.3113  -29.6609   24.1454 H   0  0  0  0  0  0
  -27.4036  -29.7335   25.5080 H   0  0  0  0  0  0
  -27.9042  -30.4174   23.9824 H   0  0  0  0  0  0
  -27.2667  -33.3786   26.1907 H   0  0  0  0  0  0
  -28.3976  -32.6762   25.0425 H   0  0  0  0  0  0
  -28.0591  -31.8636   26.5636 H   0  0  0  0  0  0
  -28.2520  -38.0116   24.7520 H   0  0  0  0  0  0
  -28.1130  -36.2630   24.6254 H   0  0  0  0  0  0
  -27.2283  -37.1351   25.8858 H   0  0  0  0  0  0
  -20.9480  -29.8862   21.6858 H   0  0  0  0  0  0
  -26.0135  -38.2779   24.1475 H   0  0  0  0  0  0
  -27.8747  -21.0575   23.2434 H   0  0  0  0  0  0
  -29.3301  -22.0551   18.6941 H   0  0  0  0  0  0
  -28.0570  -18.7208   22.9327 H   0  0  0  0  0  0
  -29.7485  -18.8845   22.9291 H   0  0  0  0  0  0
  -31.0520  -19.5598   19.5673 H   0  0  0  0  0  0
  -29.8510  -19.5892   18.3455 H   0  0  0  0  0  0
  -28.0160  -16.9944   21.1836 H   0  0  0  0  0  0
  -28.9854  -16.5678   22.5355 H   0  0  0  0  0  0
  -30.4852  -17.3159   18.6633 H   0  0  0  0  0  0
  -28.8348  -17.4492   19.1041 H   0  0  0  0  0  0
  -27.3624  -23.2392   23.7115 H   0  0  0  0  0  0
  -26.4598  -23.9375   22.3661 H   0  0  0  0  0  0
  -28.0804  -24.5255   22.7607 H   0  0  0  0  0  0
  -31.3923  -18.3808   21.6139 H   0  0  0  0  0  0
  -32.3096  -17.2751   20.6766 H   0  0  0  0  0  0
  -31.7356  -16.7957   22.2703 H   0  0  0  0  0  0
  -26.9508  -24.3440   19.6537 H   0  0  0  0  0  0
  -28.4241  -24.5190   18.7804 H   0  0  0  0  0  0
  1 25  1  0  0  0
  1 30  2  0  0  0
  1 81  1  0  0  0
  2  3  1  0  0  0
  2 25  1  0  0  0
  2 85  1  0  0  0
  2 86  1  0  0  0
  3  4  1  0  0  0
  3 87  1  0  0  0
  3 88  1  0  0  0
  4  5  1  0  0  0
  4 89  1  0  0  0
  4 90  1  0  0  0
  5  6  1  0  0  0
  5 26  1  0  0  0
  5 91  1  0  0  0
  6 25  1  0  0  0
  6 92  1  0  0  0
  6 93  1  0  0  0
  7  8  2  0  0  0
  7 26  1  0  0  0
  7 29  1  0  0  0
  8  9  1  0  0  0
  8 22  1  0  0  0
  9 10  1  0  0  0
  9 27  2  0  0  0
 10 11  2  0  0  0
 10 15  1  0  0  0
 11 12  1  0  0  0
 11 94  1  0  0  0
 12 13  2  0  0  0
 12 95  1  0  0  0
 13 14  1  0  0  0
 13 31  1  0  0  0
 14 15  2  0  0  0
 14 96  1  0  0  0
 15 97  1  0  0  0
 16 17  2  0  0  0
 16 21  1  0  0  0
 16 31  1  0  0  0
 17 18  1  0  0  0
 17 98  1  0  0  0
 18 19  2  0  0  0
 18 99  1  0  0  0
 19 20  1  0  0  0
 19 24  1  0  0  0
 20 21  2  0  0  0
 20100  1  0  0  0
 21 23  1  0  0  0
 22 28  1  0  0  0
 22 32  2  0  0  0
 26 27  1  0  0  0
 28101  1  0  0  0
 28102  1  0  0  0
 29103  1  0  0  0
 29104  1  0  0  0
 33 34  1  0  0  0
 33 66  1  0  0  0
 33 70  2  0  0  0
 34 36  1  0  0  0
 34 59  1  0  0  0
 34105  1  0  0  0
 35 44  2  0  0  0
 35 45  1  0  0  0
 35 68  1  0  0  0
 36 56  1  0  0  0
 36106  1  0  0  0
 37 39  1  0  0  0
 37 47  1  0  0  0
 37 66  1  0  0  0
 37107  1  0  0  0
 38 43  2  0  0  0
 38 46  1  0  0  0
 38 47  1  0  0  0
 39 64  1  0  0  0
 39 67  2  0  0  0
 40 52  1  0  0  0
 40 53  2  0  0  0
 40 58  1  0  0  0
 41108  1  0  0  0
 41109  1  0  0  0
 41110  1  0  0  0
 41 48  1  0  0  0
 42 43  1  0  0  0
 42 66  1  0  0  0
 42111  1  0  0  0
 42112  1  0  0  0
 43 44  1  0  0  0
 44113  1  0  0  0
 45 46  2  0  0  0
 45114  1  0  0  0
 46115  1  0  0  0
 47116  1  0  0  0
 47117  1  0  0  0
 48 56  1  0  0  0
 48 65  1  0  0  0
 48118  1  0  0  0
 49 50  1  0  0  0
 49 53  1  0  0  0
 49 64  1  0  0  0
 49119  1  0  0  0
 50 51  1  0  0  0
 50120  1  0  0  0
 50121  1  0  0  0
 51 52  1  0  0  0
 51122  1  0  0  0
 51123  1  0  0  0
 52124  1  0  0  0
 52125  1  0  0  0
 53 54  1  0  0  0
 54 55  2  0  0  0
 54126  1  0  0  0
 55 57  1  0  0  0
 55127  1  0  0  0
 56 69  2  0  0  0
 57 58  2  0  0  0
 57128  1  0  0  0
 58129  1  0  0  0
 59 60  1  0  0  0
 59 61  1  0  0  0
 59 62  1  0  0  0
 60130  1  0  0  0
 60131  1  0  0  0
 60132  1  0  0  0
 61133  1  0  0  0
 61134  1  0  0  0
 61135  1  0  0  0
 62136  1  0  0  0
 62137  1  0  0  0
 62138  1  0  0  0
 63 65  1  0  0  0
 63139  1  0  0  0
 63140  1  0  0  0
 63141  1  0  0  0
 64142  1  0  0  0
 65143  1  0  0  0
 68 84  1  0  0  0
 71 73  2  0  0  0
 71 75  1  0  0  0
 71144  1  0  0  0
 72 74  2  0  0  0
 72 76  1  0  0  0
 72145  1  0  0  0
 73 74  1  0  0  0
 73 77  1  0  0  0
 74 78  1  0  0  0
 75 76  2  0  0  0
 75 82  1  0  0  0
 76 84  1  0  0  0
 77 79  1  0  0  0
 77146  1  0  0  0
 77147  1  0  0  0
 78 80  1  0  0  0
 78148  1  0  0  0
 78149  1  0  0  0
 79 81  1  0  0  0
 79150  1  0  0  0
 79151  1  0  0  0
 80 81  1  0  0  0
 80152  1  0  0  0
 80153  1  0  0  0
 81 83  1  0  0  0
 82154  1  0  0  0
 82155  1  0  0  0
 82156  1  0  0  0
 83157  1  0  0  0
 83158  1  0  0  0
 83159  1  0  0  0
 84160  1  0  0  0
 84161  1  0  0  0
M  ISO  4   1 100  68 101  81 100  84 101
M  END
> <chiral flag>
0

> <version>
0

> <s_m_source_file>
/data/baiqing/PycharmProjects/Reinvent-master-3.2/result/LINK_invent/BTK/process_docking_weight1_custom_sum_contain_oxygen_bond_distance_aromatic_linkinvent_7_9_3/rearranged_h_0031.sdf

> <i_m_source_file_index>
56

> <r_mmod_Potential_Energy-OPLS-2005>
904.301879882812

> <r_mmod_Stretch_Energy-OPLS-2005>
326.857360839844

> <r_mmod_Bend_Energy-OPLS-2005>
409.712646484375

> <r_mmod_Torsional_Energy-OPLS-2005>
227.984893798828

> <r_mmod_Improper_Torsional_Energy-OPLS-2005>
4.71435880661011

> <r_mmod_Van_der_Waal_Energy-OPLS-2005>
143.812393188477

> <r_mmod_Electrostatic_Energy-OPLS-2005>
-314.707672119141

> <r_mmod_Solvation_Energy-OPLS-2005>
-184.31494140625

> <b_mmod_Minimization_Converged-OPLS-2005>
0

> <r_mmod_RMS_Derivative-OPLS-2005>
3.25727581977844

$$$$
56
                    3D
 Structure written by MMmdl.
156164  0  0  1  0            999 V2000
  -30.6986  -14.5884   20.5226 C   0  0  0  0  0  0
  -30.4209  -12.3714   19.4465 C   0  0  0  0  0  0
  -29.4979  -12.4971   18.2180 C   0  0  0  0  0  0
  -28.0226  -12.3450   18.6347 C   0  0  0  0  0  0
  -27.6505  -13.2245   19.8595 C   0  0  2  0  0  0
  -28.6975  -13.1005   20.9888 C   0  0  0  0  0  0
  -25.2531  -13.8181   20.5676 C   0  0  0  0  0  0
  -24.1813  -13.0434   20.9178 C   0  0  0  0  0  0
  -24.6402  -11.6916   20.8745 C   0  0  0  0  0  0
  -23.9078  -10.4293   21.0412 C   0  0  0  0  0  0
  -24.3624   -9.4206   21.9190 C   0  0  0  0  0  0
  -23.6293   -8.2243   22.0760 C   0  0  0  0  0  0
  -22.4276   -8.0282   21.3546 C   0  0  0  0  0  0
  -21.9917   -9.0258   20.4649 C   0  0  0  0  0  0
  -22.7251  -10.2134   20.3059 C   0  0  0  0  0  0
  -21.6852   -6.0738   22.5279 C   0  0  0  0  0  0
  -21.4010   -6.5641   23.8213 C   0  0  0  0  0  0
  -21.3659   -5.6794   24.9176 C   0  0  0  0  0  0
  -21.6046   -4.3058   24.7224 C   0  0  0  0  0  0
  -21.8819   -3.8151   23.4344 C   0  0  0  0  0  0
  -21.9190   -4.6967   22.3402 C   0  0  0  0  0  0
  -22.7833  -13.5221   21.1845 C   0  0  0  0  0  0
  -22.1660   -4.2152   21.0981 F   0  0  0  0  0  0
  -21.5629   -3.4542   25.7738 F   0  0  0  0  0  0
  -30.0130  -13.4101   20.4119 N   0  0  0  0  0  0
  -26.2984  -12.9389   20.3332 N   0  0  0  0  0  0
  -25.9337  -11.6532   20.5783 N   0  0  0  0  0  0
  -22.0481  -12.8211   22.0404 N   0  0  0  0  0  0
  -25.4211  -15.1894   20.4084 N   0  0  0  0  0  0
  -31.8653  -14.6841   20.1350 O   0  0  0  0  0  0
  -21.6638   -6.8882   21.4243 O   0  0  0  0  0  0
  -22.3510  -14.5526   20.6706 O   0  0  0  0  0  0
  -24.6257  -31.8623   23.2068 C   0  0  0  0  0  0
  -25.9118  -32.4786   23.8385 C   0  0  1  0  0  0
  -27.2141  -27.3332   20.1013 C   0  0  0  0  0  0
  -25.5948  -33.8589   24.2312 N   0  0  0  0  0  0
  -23.4167  -30.4902   21.5496 C   0  0  2  0  0  0
  -24.8596  -28.9548   20.1084 C   0  0  0  0  0  0
  -22.7468  -29.4644   22.4950 C   0  0  0  0  0  0
  -18.0286  -28.1377   22.8466 C   0  0  0  0  0  0
  -24.1496  -36.7293   23.2637 C   0  0  0  0  0  0
  -25.9597  -30.7938   21.3799 C   0  0  0  0  0  0
  -26.0297  -29.4257   20.7175 C   0  0  0  0  0  0
  -27.2084  -28.6233   20.7115 C   0  0  0  0  0  0
  -26.0228  -26.9285   19.4491 C   0  0  0  0  0  0
  -24.8572  -27.7101   19.4673 C   0  0  0  0  0  0
  -23.6284  -29.8326   20.1624 C   0  0  0  0  0  0
  -25.4114  -36.3082   24.0339 C   0  0  1  0  0  0
  -20.5884  -28.3677   23.1282 C   0  0  2  0  0  0
  -20.6780  -26.9404   22.5403 C   0  0  0  0  0  0
  -19.5760  -26.6378   21.5203 C   0  0  0  0  0  0
  -18.1935  -26.7916   22.1609 C   0  0  0  0  0  0
  -19.1537  -28.8843   23.2860 C   0  0  0  0  0  0
  -18.9467  -30.1442   23.8877 C   0  0  0  0  0  0
  -17.6472  -30.6577   24.0554 C   0  0  0  0  0  0
  -25.9058  -34.9453   23.5117 C   0  0  0  0  0  0
  -16.5360  -29.9074   23.6336 C   0  0  0  0  0  0
  -16.7275  -28.6500   23.0336 C   0  0  0  0  0  0
  -26.4500  -31.6586   25.0744 C   0  0  0  0  0  0
  -25.3731  -31.3725   26.1469 C   0  0  0  0  0  0
  -27.0345  -30.3015   24.6189 C   0  0  0  0  0  0
  -27.6062  -32.4321   25.7513 C   0  0  0  0  0  0
  -27.5574  -37.1803   24.8466 C   0  0  0  0  0  0
  -21.4189  -29.3034   22.3685 N   0  0  0  0  0  0
  -26.4286  -37.3777   23.9412 N   0  0  0  0  0  0
  -24.6861  -31.0644   22.1018 N   0  0  0  0  0  0
  -23.4204  -28.8177   23.3014 O   0  0  0  0  0  0
  -28.3248  -26.4756   20.1657 O   0  0  0  0  0  0
  -26.5609  -34.8913   22.4674 O   0  0  0  0  0  0
  -23.5428  -32.1433   23.7397 O   0  0  0  0  0  0
  -30.9750  -19.4023   20.3941 C   0  0  0  0  0  0
  -28.3020  -20.1105   20.6459 C   0  0  0  0  0  0
  -30.5635  -20.7297   20.0771 C   0  0  0  0  0  0
  -30.0751  -18.3950   20.8355 C   0  0  0  0  0  0
  -29.2010  -21.1154   20.1934 C   0  0  0  0  0  0
  -28.7181  -18.7869   20.9685 C   0  0  0  0  0  0
  -31.6116  -21.7220   19.6058 C   0  0  0  0  0  0
  -28.6353  -22.4894   19.6921 C   0  0  0  0  0  0
  -30.6518  -17.0107   21.2920 C   0  0  0  0  0  0
  -29.0452  -23.8884   20.3175 C   0  0  0  0  0  0
  -28.0942  -25.0561   19.8331 C   0  0  0  0  0  0
  -30.0224  -15.6965   20.9391 N   0  0  0  0  0  0
  -27.5388  -17.6693   21.5526 Cl  0  0  0  0  0  0
  -31.4652  -12.4641   19.1423 H   0  0  0  0  0  0
  -30.3310  -11.3816   19.8967 H   0  0  0  0  0  0
  -29.7552  -11.7419   17.4739 H   0  0  0  0  0  0
  -29.6483  -13.4653   17.7370 H   0  0  0  0  0  0
  -27.8572  -11.2936   18.8718 H   0  0  0  0  0  0
  -27.3670  -12.5714   17.7934 H   0  0  0  0  0  0
  -27.6644  -14.2581   19.5109 H   0  0  0  0  0  0
  -28.7016  -12.0921   21.4042 H   0  0  0  0  0  0
  -28.4541  -13.7675   21.8172 H   0  0  0  0  0  0
  -25.2769   -9.5677   22.4764 H   0  0  0  0  0  0
  -24.0001   -7.4634   22.7480 H   0  0  0  0  0  0
  -21.0847   -8.8778   19.8951 H   0  0  0  0  0  0
  -22.3716  -10.9671   19.6162 H   0  0  0  0  0  0
  -21.2003   -7.6149   23.9715 H   0  0  0  0  0  0
  -21.1482   -6.0526   25.9077 H   0  0  0  0  0  0
  -22.0600   -2.7610   23.2846 H   0  0  0  0  0  0
  -22.4090  -11.9859   22.4774 H   0  0  0  0  0  0
  -21.1101  -13.1238   22.2623 H   0  0  0  0  0  0
  -24.6653  -15.8477   20.5584 H   0  0  0  0  0  0
  -26.2915  -15.6415   20.1600 H   0  0  0  0  0  0
  -26.7172  -32.5443   23.1117 H   0  0  0  0  0  0
  -25.0122  -33.9743   25.0473 H   0  0  0  0  0  0
  -22.7102  -31.3114   21.4102 H   0  0  0  0  0  0
  -23.3755  -35.9624   23.3305 H   0  0  0  0  0  0
  -24.3590  -36.8900   22.2049 H   0  0  0  0  0  0
  -23.7260  -37.6501   23.6652 H   0  0  0  0  0  0
  -26.0976  -31.5599   20.6157 H   0  0  0  0  0  0
  -26.8398  -30.8356   22.0100 H   0  0  0  0  0  0
  -28.1020  -28.9758   21.2064 H   0  0  0  0  0  0
  -25.9489  -25.9915   18.9182 H   0  0  0  0  0  0
  -23.9626  -27.3504   18.9777 H   0  0  0  0  0  0
  -23.7460  -30.6123   19.4093 H   0  0  0  0  0  0
  -22.7488  -29.2619   19.8589 H   0  0  0  0  0  0
  -25.1293  -36.1932   25.0833 H   0  0  0  0  0  0
  -20.9956  -28.3228   24.1417 H   0  0  0  0  0  0
  -20.5694  -26.2279   23.3594 H   0  0  0  0  0  0
  -21.6650  -26.7454   22.1188 H   0  0  0  0  0  0
  -19.6942  -25.6295   21.1224 H   0  0  0  0  0  0
  -19.6699  -27.3188   20.6733 H   0  0  0  0  0  0
  -17.4211  -26.6651   21.4007 H   0  0  0  0  0  0
  -18.0335  -26.0063   22.9013 H   0  0  0  0  0  0
  -19.7952  -30.7253   24.2229 H   0  0  0  0  0  0
  -17.5040  -31.6258   24.5156 H   0  0  0  0  0  0
  -15.5361  -30.2976   23.7680 H   0  0  0  0  0  0
  -15.8671  -28.0827   22.7055 H   0  0  0  0  0  0
  -24.5917  -30.7062   25.7797 H   0  0  0  0  0  0
  -24.8907  -32.2887   26.4879 H   0  0  0  0  0  0
  -25.8053  -30.8914   27.0252 H   0  0  0  0  0  0
  -26.2915  -29.6770   24.1209 H   0  0  0  0  0  0
  -27.4050  -29.7268   25.4686 H   0  0  0  0  0  0
  -27.8787  -30.4321   23.9418 H   0  0  0  0  0  0
  -27.2678  -33.3629   26.2085 H   0  0  0  0  0  0
  -28.3871  -32.6868   25.0337 H   0  0  0  0  0  0
  -28.0729  -31.8450   26.5434 H   0  0  0  0  0  0
  -28.2588  -38.0096   24.7500 H   0  0  0  0  0  0
  -28.1074  -36.2630   24.6307 H   0  0  0  0  0  0
  -27.2296  -37.1466   25.8868 H   0  0  0  0  0  0
  -20.9375  -29.8765   21.6896 H   0  0  0  0  0  0
  -26.0170  -38.2854   24.1402 H   0  0  0  0  0  0
  -32.0244  -19.1538   20.3086 H   0  0  0  0  0  0
  -27.2516  -20.3472   20.7348 H   0  0  0  0  0  0
  -32.5488  -21.2248   19.3545 H   0  0  0  0  0  0
  -31.8233  -22.4449   20.3934 H   0  0  0  0  0  0
  -31.2786  -22.2609   18.7192 H   0  0  0  0  0  0
  -27.5489  -22.4163   19.7573 H   0  0  0  0  0  0
  -28.8337  -22.5327   18.6200 H   0  0  0  0  0  0
  -30.6769  -17.0425   22.3819 H   0  0  0  0  0  0
  -31.7027  -16.9927   21.0008 H   0  0  0  0  0  0
  -30.0776  -24.1249   20.0653 H   0  0  0  0  0  0
  -28.9961  -23.8254   21.4044 H   0  0  0  0  0  0
  -27.1203  -24.7612   20.2251 H   0  0  0  0  0  0
  -28.0245  -24.9985   18.7459 H   0  0  0  0  0  0
  -29.0464  -15.5830   21.1700 H   0  0  0  0  0  0
  1 25  1  0  0  0
  1 30  2  0  0  0
  1 82  1  0  0  0
  2  3  1  0  0  0
  2 25  1  0  0  0
  2 84  1  0  0  0
  2 85  1  0  0  0
  3  4  1  0  0  0
  3 86  1  0  0  0
  3 87  1  0  0  0
  4  5  1  0  0  0
  4 88  1  0  0  0
  4 89  1  0  0  0
  5  6  1  0  0  0
  5 26  1  0  0  0
  5 90  1  0  0  0
  6 25  1  0  0  0
  6 91  1  0  0  0
  6 92  1  0  0  0
  7  8  2  0  0  0
  7 26  1  0  0  0
  7 29  1  0  0  0
  8  9  1  0  0  0
  8 22  1  0  0  0
  9 10  1  0  0  0
  9 27  2  0  0  0
 10 11  2  0  0  0
 10 15  1  0  0  0
 11 12  1  0  0  0
 11 93  1  0  0  0
 12 13  2  0  0  0
 12 94  1  0  0  0
 13 14  1  0  0  0
 13 31  1  0  0  0
 14 15  2  0  0  0
 14 95  1  0  0  0
 15 96  1  0  0  0
 16 17  2  0  0  0
 16 21  1  0  0  0
 16 31  1  0  0  0
 17 18  1  0  0  0
 17 97  1  0  0  0
 18 19  2  0  0  0
 18 98  1  0  0  0
 19 20  1  0  0  0
 19 24  1  0  0  0
 20 21  2  0  0  0
 20 99  1  0  0  0
 21 23  1  0  0  0
 22 28  1  0  0  0
 22 32  2  0  0  0
 26 27  1  0  0  0
 28100  1  0  0  0
 28101  1  0  0  0
 29102  1  0  0  0
 29103  1  0  0  0
 33 34  1  0  0  0
 33 66  1  0  0  0
 33 70  2  0  0  0
 34 36  1  0  0  0
 34 59  1  0  0  0
 34104  1  0  0  0
 35 44  2  0  0  0
 35 45  1  0  0  0
 35 68  1  0  0  0
 36 56  1  0  0  0
 36105  1  0  0  0
 37 39  1  0  0  0
 37 47  1  0  0  0
 37 66  1  0  0  0
 37106  1  0  0  0
 38 43  2  0  0  0
 38 46  1  0  0  0
 38 47  1  0  0  0
 39 64  1  0  0  0
 39 67  2  0  0  0
 40 52  1  0  0  0
 40 53  2  0  0  0
 40 58  1  0  0  0
 41107  1  0  0  0
 41108  1  0  0  0
 41109  1  0  0  0
 41 48  1  0  0  0
 42 43  1  0  0  0
 42 66  1  0  0  0
 42110  1  0  0  0
 42111  1  0  0  0
 43 44  1  0  0  0
 44112  1  0  0  0
 45 46  2  0  0  0
 45113  1  0  0  0
 46114  1  0  0  0
 47115  1  0  0  0
 47116  1  0  0  0
 48 56  1  0  0  0
 48 65  1  0  0  0
 48117  1  0  0  0
 49 50  1  0  0  0
 49 53  1  0  0  0
 49 64  1  0  0  0
 49118  1  0  0  0
 50 51  1  0  0  0
 50119  1  0  0  0
 50120  1  0  0  0
 51 52  1  0  0  0
 51121  1  0  0  0
 51122  1  0  0  0
 52123  1  0  0  0
 52124  1  0  0  0
 53 54  1  0  0  0
 54 55  2  0  0  0
 54125  1  0  0  0
 55 57  1  0  0  0
 55126  1  0  0  0
 56 69  2  0  0  0
 57 58  2  0  0  0
 57127  1  0  0  0
 58128  1  0  0  0
 59 60  1  0  0  0
 59 61  1  0  0  0
 59 62  1  0  0  0
 60129  1  0  0  0
 60130  1  0  0  0
 60131  1  0  0  0
 61132  1  0  0  0
 61133  1  0  0  0
 61134  1  0  0  0
 62135  1  0  0  0
 62136  1  0  0  0
 62137  1  0  0  0
 63 65  1  0  0  0
 63138  1  0  0  0
 63139  1  0  0  0
 63140  1  0  0  0
 64141  1  0  0  0
 65142  1  0  0  0
 68 81  1  0  0  0
 71 73  2  0  0  0
 71 74  1  0  0  0
 71143  1  0  0  0
 72 75  2  0  0  0
 72 76  1  0  0  0
 72144  1  0  0  0
 73 75  1  0  0  0
 73 77  1  0  0  0
 74 76  2  0  0  0
 74 79  1  0  0  0
 75 78  1  0  0  0
 76 83  1  0  0  0
 77145  1  0  0  0
 77146  1  0  0  0
 77147  1  0  0  0
 78 80  1  0  0  0
 78148  1  0  0  0
 78149  1  0  0  0
 79 82  1  0  0  0
 79150  1  0  0  0
 79151  1  0  0  0
 80 81  1  0  0  0
 80152  1  0  0  0
 80153  1  0  0  0
 81154  1  0  0  0
 81155  1  0  0  0
 82156  1  0  0  0
M  ISO  4   1 100  68 101  81 101  82 100
M  END
> <chiral flag>
0

> <version>
0

> <s_m_source_file>
/data/baiqing/PycharmProjects/Reinvent-master-3.2/result/LINK_invent/BTK/process_docking_weight1_custom_sum_contain_oxygen_bond_distance_aromatic_linkinvent_7_9_3/rearranged_h_0031.sdf

> <i_m_source_file_index>
57

> <r_mmod_Potential_Energy-OPLS-2005>
7.60685586929321

> <r_mmod_Stretch_Energy-OPLS-2005>
68.6994781494141

> <r_mmod_Bend_Energy-OPLS-2005>
141.908493041992

> <r_mmod_Torsional_Energy-OPLS-2005>
199.405288696289

> <r_mmod_Improper_Torsional_Energy-OPLS-2005>
4.28323030471802

> <r_mmod_Van_der_Waal_Energy-OPLS-2005>
151.511932373047

> <r_mmod_Electrostatic_Energy-OPLS-2005>
-404.008331298828

> <r_mmod_Solvation_Energy-OPLS-2005>
-196.595092773438

> <b_mmod_Minimization_Converged-OPLS-2005>
0

> <r_mmod_RMS_Derivative-OPLS-2005>
1.19769871234894

$$$$
57
                    3D
 Structure written by MMmdl.
162170  0  0  1  0            999 V2000
  -30.6730  -14.5275   20.5288 C   0  0  0  0  0  0
  -30.4165  -12.3275   19.4181 C   0  0  0  0  0  0
  -29.4839  -12.4938   18.2000 C   0  0  0  0  0  0
  -28.0072  -12.3517   18.6220 C   0  0  0  0  0  0
  -27.6526  -13.2095   19.8659 C   0  0  2  0  0  0
  -28.7025  -13.0138   20.9824 C   0  0  0  0  0  0
  -25.2569  -13.8176   20.5727 C   0  0  0  0  0  0
  -24.1812  -13.0431   20.9209 C   0  0  0  0  0  0
  -24.6374  -11.6904   20.8749 C   0  0  0  0  0  0
  -23.9049  -10.4270   21.0406 C   0  0  0  0  0  0
  -24.3602   -9.4184   21.9182 C   0  0  0  0  0  0
  -23.6274   -8.2215   22.0741 C   0  0  0  0  0  0
  -22.4260   -8.0260   21.3530 C   0  0  0  0  0  0
  -21.9903   -9.0237   20.4637 C   0  0  0  0  0  0
  -22.7226  -10.2116   20.3050 C   0  0  0  0  0  0
  -21.6845   -6.0733   22.5273 C   0  0  0  0  0  0
  -21.4009   -6.5632   23.8211 C   0  0  0  0  0  0
  -21.3659   -5.6788   24.9176 C   0  0  0  0  0  0
  -21.6045   -4.3047   24.7230 C   0  0  0  0  0  0
  -21.8821   -3.8137   23.4347 C   0  0  0  0  0  0
  -21.9185   -4.6957   22.3398 C   0  0  0  0  0  0
  -22.7834  -13.5211   21.1881 C   0  0  0  0  0  0
  -22.1654   -4.2135   21.0979 F   0  0  0  0  0  0
  -21.5632   -3.4530   25.7750 F   0  0  0  0  0  0
  -30.0194  -13.3353   20.4144 N   0  0  0  0  0  0
  -26.2978  -12.9334   20.3359 N   0  0  0  0  0  0
  -25.9294  -11.6492   20.5775 N   0  0  0  0  0  0
  -22.0505  -12.8172   22.0446 N   0  0  0  0  0  0
  -25.4346  -15.1887   20.4185 N   0  0  0  0  0  0
  -31.8288  -14.6862   20.1293 O   0  0  0  0  0  0
  -21.6620   -6.8866   21.4232 O   0  0  0  0  0  0
  -22.3503  -14.5505   20.6741 O   0  0  0  0  0  0
  -24.6176  -31.8663   23.2088 C   0  0  0  0  0  0
  -25.9038  -32.4834   23.8396 C   0  0  1  0  0  0
  -27.2280  -27.3829   20.1026 C   0  0  0  0  0  0
  -25.5870  -33.8639   24.2326 N   0  0  0  0  0  0
  -23.4092  -30.4842   21.5563 C   0  0  2  0  0  0
  -24.8552  -28.9466   20.1170 C   0  0  0  0  0  0
  -22.7454  -29.4602   22.5047 C   0  0  0  0  0  0
  -18.0263  -28.1339   22.8507 C   0  0  0  0  0  0
  -24.1478  -36.7317   23.2625 C   0  0  0  0  0  0
  -25.9427  -30.8110   21.3738 C   0  0  0  0  0  0
  -26.0215  -29.4433   20.7170 C   0  0  0  0  0  0
  -27.2140  -28.6691   20.7050 C   0  0  0  0  0  0
  -26.0488  -26.9245   19.4773 C   0  0  0  0  0  0
  -24.8669  -27.6886   19.4922 C   0  0  0  0  0  0
  -23.6186  -29.8192   20.1716 C   0  0  0  0  0  0
  -25.4111  -36.3140   24.0316 C   0  0  1  0  0  0
  -20.5855  -28.3635   23.1341 C   0  0  2  0  0  0
  -20.6762  -26.9375   22.5432 C   0  0  0  0  0  0
  -19.5740  -26.6359   21.5222 C   0  0  0  0  0  0
  -18.1915  -26.7893   22.1622 C   0  0  0  0  0  0
  -19.1510  -28.8803   23.2914 C   0  0  0  0  0  0
  -18.9443  -30.1409   23.8921 C   0  0  0  0  0  0
  -17.6449  -30.6572   24.0536 C   0  0  0  0  0  0
  -25.9039  -34.9497   23.5143 C   0  0  0  0  0  0
  -16.5339  -29.9058   23.6317 C   0  0  0  0  0  0
  -16.7250  -28.6454   23.0376 C   0  0  0  0  0  0
  -26.4446  -31.6622   25.0737 C   0  0  0  0  0  0
  -25.3665  -31.3723   26.1451 C   0  0  0  0  0  0
  -27.0244  -30.3046   24.6116 C   0  0  0  0  0  0
  -27.6045  -32.4331   25.7474 C   0  0  0  0  0  0
  -27.5598  -37.1806   24.8458 C   0  0  0  0  0  0
  -21.4170  -29.2999   22.3777 N   0  0  0  0  0  0
  -26.4312  -37.3812   23.9400 N   0  0  0  0  0  0
  -24.6750  -31.0681   22.1048 N   0  0  0  0  0  0
  -23.4195  -28.8137   23.3104 O   0  0  0  0  0  0
  -28.3561  -26.5743   20.1107 O   0  0  0  0  0  0
  -26.5645  -34.8936   22.4734 O   0  0  0  0  0  0
  -23.5346  -32.1465   23.7437 O   0  0  0  0  0  0
  -26.2073  -23.0526   20.0489 C   0  0  0  0  0  0
  -26.9661  -20.3932   20.2666 C   0  0  0  0  0  0
  -27.5957  -22.7583   20.0991 C   0  0  0  0  0  0
  -25.2141  -22.0580   20.1362 C   0  0  0  0  0  0
  -27.9867  -21.3698   20.2164 C   0  0  0  0  0  0
  -25.6034  -20.7145   20.2426 C   0  0  0  0  0  0
  -23.7414  -22.4265   20.1017 C   0  0  0  0  0  0
  -28.5532  -23.9760   19.9304 C   0  0  0  0  0  0
  -29.4398  -20.8374   20.2157 C   0  0  0  0  0  0
  -29.7998  -19.5565   21.0741 C   0  0  0  0  0  0
  -29.4914  -18.0998   20.5547 C   0  0  0  0  0  0
  -30.3787  -16.9752   21.1916 C   0  0  0  0  0  0
  -28.2009  -25.2746   20.7612 C   0  0  0  0  0  0
  -29.9283  -15.5776   20.9547 N   0  0  0  0  0  0
  -24.4368  -19.4423   20.3333 Cl  0  0  0  0  0  0
  -31.4608  -12.4200   19.1181 H   0  0  0  0  0  0
  -30.3150  -11.3243   19.8362 H   0  0  0  0  0  0
  -29.7204  -11.7525   17.4353 H   0  0  0  0  0  0
  -29.6435  -13.4697   17.7391 H   0  0  0  0  0  0
  -27.8284  -11.2979   18.8423 H   0  0  0  0  0  0
  -27.3469  -12.6008   17.7901 H   0  0  0  0  0  0
  -27.6869  -14.2514   19.5466 H   0  0  0  0  0  0
  -28.6940  -11.9774   21.3246 H   0  0  0  0  0  0
  -28.4722  -13.6171   21.8615 H   0  0  0  0  0  0
  -25.2752   -9.5643   22.4749 H   0  0  0  0  0  0
  -23.9981   -7.4603   22.7443 H   0  0  0  0  0  0
  -21.0837   -8.8753   19.8936 H   0  0  0  0  0  0
  -22.3691  -10.9654   19.6145 H   0  0  0  0  0  0
  -21.2004   -7.6140   23.9711 H   0  0  0  0  0  0
  -21.1487   -6.0521   25.9083 H   0  0  0  0  0  0
  -22.0607   -2.7599   23.2858 H   0  0  0  0  0  0
  -22.4134  -11.9815   22.4783 H   0  0  0  0  0  0
  -21.1126  -13.1176   22.2702 H   0  0  0  0  0  0
  -24.6855  -15.8591   20.5527 H   0  0  0  0  0  0
  -26.2966  -15.6190   20.1094 H   0  0  0  0  0  0
  -26.7107  -32.5537   23.1153 H   0  0  0  0  0  0
  -24.9939  -33.9799   25.0412 H   0  0  0  0  0  0
  -22.6978  -31.3005   21.4215 H   0  0  0  0  0  0
  -23.3763  -35.9633   23.3299 H   0  0  0  0  0  0
  -24.3570  -36.8945   22.2041 H   0  0  0  0  0  0
  -23.7181  -37.6484   23.6666 H   0  0  0  0  0  0
  -26.0641  -31.5766   20.6064 H   0  0  0  0  0  0
  -26.8264  -30.8649   21.9978 H   0  0  0  0  0  0
  -28.1141  -29.0386   21.1771 H   0  0  0  0  0  0
  -26.0409  -25.9718   18.9692 H   0  0  0  0  0  0
  -23.9707  -27.3057   19.0193 H   0  0  0  0  0  0
  -23.7309  -30.5968   19.4162 H   0  0  0  0  0  0
  -22.7404  -29.2430   19.8770 H   0  0  0  0  0  0
  -25.1290  -36.2032   25.0804 H   0  0  0  0  0  0
  -20.9915  -28.3190   24.1467 H   0  0  0  0  0  0
  -20.5661  -26.2236   23.3611 H   0  0  0  0  0  0
  -21.6640  -26.7433   22.1229 H   0  0  0  0  0  0
  -19.6903  -25.6270   21.1245 H   0  0  0  0  0  0
  -19.6670  -27.3175   20.6762 H   0  0  0  0  0  0
  -17.4193  -26.6648   21.4008 H   0  0  0  0  0  0
  -18.0296  -26.0010   22.8986 H   0  0  0  0  0  0
  -19.7916  -30.7194   24.2337 H   0  0  0  0  0  0
  -17.5003  -31.6263   24.5116 H   0  0  0  0  0  0
  -15.5337  -30.2965   23.7623 H   0  0  0  0  0  0
  -15.8647  -28.0755   22.7134 H   0  0  0  0  0  0
  -24.5883  -30.7043   25.7740 H   0  0  0  0  0  0
  -24.8773  -32.2851   26.4859 H   0  0  0  0  0  0
  -25.7964  -30.8899   27.0236 H   0  0  0  0  0  0
  -26.2775  -29.6836   24.1146 H   0  0  0  0  0  0
  -27.3942  -29.7274   25.4598 H   0  0  0  0  0  0
  -27.8672  -30.4334   23.9321 H   0  0  0  0  0  0
  -27.2732  -33.3679   26.2022 H   0  0  0  0  0  0
  -28.3852  -32.6809   25.0265 H   0  0  0  0  0  0
  -28.0710  -31.8444   26.5380 H   0  0  0  0  0  0
  -28.2627  -38.0101   24.7570 H   0  0  0  0  0  0
  -28.1097  -36.2640   24.6261 H   0  0  0  0  0  0
  -27.2322  -37.1432   25.8861 H   0  0  0  0  0  0
  -20.9356  -29.8711   21.6980 H   0  0  0  0  0  0
  -26.0223  -38.2889   24.1433 H   0  0  0  0  0  0
  -25.8745  -24.0702   19.9270 H   0  0  0  0  0  0
  -27.2014  -19.3498   20.3043 H   0  0  0  0  0  0
  -23.5834  -23.5048   20.0843 H   0  0  0  0  0  0
  -23.2398  -22.0312   20.9848 H   0  0  0  0  0  0
  -23.2609  -21.9998   19.2205 H   0  0  0  0  0  0
  -28.5645  -24.2263   18.8687 H   0  0  0  0  0  0
  -29.5786  -23.6954   20.1681 H   0  0  0  0  0  0
  -30.0781  -21.6354   20.5901 H   0  0  0  0  0  0
  -29.7513  -20.6785   19.1829 H   0  0  0  0  0  0
  -29.4223  -19.6774   22.0902 H   0  0  0  0  0  0
  -30.8853  -19.5921   21.1810 H   0  0  0  0  0  0
  -29.6054  -18.0738   19.4697 H   0  0  0  0  0  0
  -28.4566  -17.8377   20.7651 H   0  0  0  0  0  0
  -30.4018  -17.1169   22.2732 H   0  0  0  0  0  0
  -31.4072  -17.1040   20.8535 H   0  0  0  0  0  0
  -28.8576  -25.2877   21.6328 H   0  0  0  0  0  0
  -27.2085  -25.1956   21.2035 H   0  0  0  0  0  0
  -28.9714  -15.3627   21.1926 H   0  0  0  0  0  0
  1 25  1  0  0  0
  1 30  2  0  0  0
  1 84  1  0  0  0
  2  3  1  0  0  0
  2 25  1  0  0  0
  2 86  1  0  0  0
  2 87  1  0  0  0
  3  4  1  0  0  0
  3 88  1  0  0  0
  3 89  1  0  0  0
  4  5  1  0  0  0
  4 90  1  0  0  0
  4 91  1  0  0  0
  5  6  1  0  0  0
  5 26  1  0  0  0
  5 92  1  0  0  0
  6 25  1  0  0  0
  6 93  1  0  0  0
  6 94  1  0  0  0
  7  8  2  0  0  0
  7 26  1  0  0  0
  7 29  1  0  0  0
  8  9  1  0  0  0
  8 22  1  0  0  0
  9 10  1  0  0  0
  9 27  2  0  0  0
 10 11  2  0  0  0
 10 15  1  0  0  0
 11 12  1  0  0  0
 11 95  1  0  0  0
 12 13  2  0  0  0
 12 96  1  0  0  0
 13 14  1  0  0  0
 13 31  1  0  0  0
 14 15  2  0  0  0
 14 97  1  0  0  0
 15 98  1  0  0  0
 16 17  2  0  0  0
 16 21  1  0  0  0
 16 31  1  0  0  0
 17 18  1  0  0  0
 17 99  1  0  0  0
 18 19  2  0  0  0
 18100  1  0  0  0
 19 20  1  0  0  0
 19 24  1  0  0  0
 20 21  2  0  0  0
 20101  1  0  0  0
 21 23  1  0  0  0
 22 28  1  0  0  0
 22 32  2  0  0  0
 26 27  1  0  0  0
 28102  1  0  0  0
 28103  1  0  0  0
 29104  1  0  0  0
 29105  1  0  0  0
 33 34  1  0  0  0
 33 66  1  0  0  0
 33 70  2  0  0  0
 34 36  1  0  0  0
 34 59  1  0  0  0
 34106  1  0  0  0
 35 44  2  0  0  0
 35 45  1  0  0  0
 35 68  1  0  0  0
 36 56  1  0  0  0
 36107  1  0  0  0
 37 39  1  0  0  0
 37 47  1  0  0  0
 37 66  1  0  0  0
 37108  1  0  0  0
 38 43  2  0  0  0
 38 46  1  0  0  0
 38 47  1  0  0  0
 39 64  1  0  0  0
 39 67  2  0  0  0
 40 52  1  0  0  0
 40 53  2  0  0  0
 40 58  1  0  0  0
 41109  1  0  0  0
 41110  1  0  0  0
 41111  1  0  0  0
 41 48  1  0  0  0
 42 43  1  0  0  0
 42 66  1  0  0  0
 42112  1  0  0  0
 42113  1  0  0  0
 43 44  1  0  0  0
 44114  1  0  0  0
 45 46  2  0  0  0
 45115  1  0  0  0
 46116  1  0  0  0
 47117  1  0  0  0
 47118  1  0  0  0
 48 56  1  0  0  0
 48 65  1  0  0  0
 48119  1  0  0  0
 49 50  1  0  0  0
 49 53  1  0  0  0
 49 64  1  0  0  0
 49120  1  0  0  0
 50 51  1  0  0  0
 50121  1  0  0  0
 50122  1  0  0  0
 51 52  1  0  0  0
 51123  1  0  0  0
 51124  1  0  0  0
 52125  1  0  0  0
 52126  1  0  0  0
 53 54  1  0  0  0
 54 55  2  0  0  0
 54127  1  0  0  0
 55 57  1  0  0  0
 55128  1  0  0  0
 56 69  2  0  0  0
 57 58  2  0  0  0
 57129  1  0  0  0
 58130  1  0  0  0
 59 60  1  0  0  0
 59 61  1  0  0  0
 59 62  1  0  0  0
 60131  1  0  0  0
 60132  1  0  0  0
 60133  1  0  0  0
 61134  1  0  0  0
 61135  1  0  0  0
 61136  1  0  0  0
 62137  1  0  0  0
 62138  1  0  0  0
 62139  1  0  0  0
 63 65  1  0  0  0
 63140  1  0  0  0
 63141  1  0  0  0
 63142  1  0  0  0
 64143  1  0  0  0
 65144  1  0  0  0
 68 83  1  0  0  0
 71 73  2  0  0  0
 71 74  1  0  0  0
 71145  1  0  0  0
 72 75  2  0  0  0
 72 76  1  0  0  0
 72146  1  0  0  0
 73 75  1  0  0  0
 73 78  1  0  0  0
 74 76  2  0  0  0
 74 77  1  0  0  0
 75 79  1  0  0  0
 76 85  1  0  0  0
 77147  1  0  0  0
 77148  1  0  0  0
 77149  1  0  0  0
 78 83  1  0  0  0
 78150  1  0  0  0
 78151  1  0  0  0
 79 80  1  0  0  0
 79152  1  0  0  0
 79153  1  0  0  0
 80 81  1  0  0  0
 80154  1  0  0  0
 80155  1  0  0  0
 81 82  1  0  0  0
 81156  1  0  0  0
 81157  1  0  0  0
 82 84  1  0  0  0
 82158  1  0  0  0
 82159  1  0  0  0
 83160  1  0  0  0
 83161  1  0  0  0
 84162  1  0  0  0
M  ISO  4   1 100  68 101  83 101  84 100
M  END
> <chiral flag>
0

> <version>
0

> <s_m_source_file>
/data/baiqing/PycharmProjects/Reinvent-master-3.2/result/LINK_invent/BTK/process_docking_weight1_custom_sum_contain_oxygen_bond_distance_aromatic_linkinvent_7_9_3/rearranged_h_0031.sdf

> <i_m_source_file_index>
58

> <r_mmod_Potential_Energy-OPLS-2005>
25.009033203125

> <r_mmod_Stretch_Energy-OPLS-2005>
59.6794967651367

> <r_mmod_Bend_Energy-OPLS-2005>
127.722694396973

> <r_mmod_Torsional_Energy-OPLS-2005>
235.769454956055

> <r_mmod_Improper_Torsional_Energy-OPLS-2005>
3.69618558883667

> <r_mmod_Van_der_Waal_Energy-OPLS-2005>
148.993927001953

> <r_mmod_Electrostatic_Energy-OPLS-2005>
-372.462158203125

> <r_mmod_Solvation_Energy-OPLS-2005>
-201.83073425293

> <b_mmod_Minimization_Converged-OPLS-2005>
0

> <r_mmod_RMS_Derivative-OPLS-2005>
2.96817636489868

$$$$
58
                    3D
 Structure written by MMmdl.
165173  0  0  1  0            999 V2000
  -30.6422  -14.6605   20.4898 C   0  0  0  0  0  0
  -30.4314  -12.4001   19.4726 C   0  0  0  0  0  0
  -29.5134  -12.5062   18.2348 C   0  0  0  0  0  0
  -28.0373  -12.3401   18.6445 C   0  0  0  0  0  0
  -27.6508  -13.2269   19.8589 C   0  0  2  0  0  0
  -28.6927  -13.1130   20.9964 C   0  0  0  0  0  0
  -25.2535  -13.8200   20.5684 C   0  0  0  0  0  0
  -24.1809  -13.0443   20.9207 C   0  0  0  0  0  0
  -24.6385  -11.6921   20.8728 C   0  0  0  0  0  0
  -23.9052  -10.4289   21.0383 C   0  0  0  0  0  0
  -24.3603   -9.4210   21.9166 C   0  0  0  0  0  0
  -23.6286   -8.2239   22.0742 C   0  0  0  0  0  0
  -22.4266   -8.0270   21.3543 C   0  0  0  0  0  0
  -21.9890   -9.0237   20.4645 C   0  0  0  0  0  0
  -22.7216  -10.2119   20.3047 C   0  0  0  0  0  0
  -21.6849   -6.0718   22.5286 C   0  0  0  0  0  0
  -21.4005   -6.5623   23.8220 C   0  0  0  0  0  0
  -21.3667   -5.6778   24.9186 C   0  0  0  0  0  0
  -21.6057   -4.3041   24.7236 C   0  0  0  0  0  0
  -21.8822   -3.8133   23.4356 C   0  0  0  0  0  0
  -21.9191   -4.6947   22.3409 C   0  0  0  0  0  0
  -22.7830  -13.5226   21.1879 C   0  0  0  0  0  0
  -22.1661   -4.2132   21.0987 F   0  0  0  0  0  0
  -21.5636   -3.4530   25.7748 F   0  0  0  0  0  0
  -30.0119  -13.4418   20.4366 N   0  0  0  0  0  0
  -26.2967  -12.9398   20.3285 N   0  0  0  0  0  0
  -25.9320  -11.6543   20.5735 N   0  0  0  0  0  0
  -22.0458  -12.8218   22.0446 N   0  0  0  0  0  0
  -25.4228  -15.1913   20.4101 N   0  0  0  0  0  0
  -31.7986  -14.7939   20.0816 O   0  0  0  0  0  0
  -21.6643   -6.8858   21.4245 O   0  0  0  0  0  0
  -22.3510  -14.5520   20.6729 O   0  0  0  0  0  0
  -24.6283  -31.8592   23.2063 C   0  0  0  0  0  0
  -25.9122  -32.4773   23.8394 C   0  0  1  0  0  0
  -27.2125  -27.2906   20.1259 C   0  0  0  0  0  0
  -25.5925  -33.8576   24.2283 N   0  0  0  0  0  0
  -23.4206  -30.4921   21.5472 C   0  0  2  0  0  0
  -24.8638  -28.9481   20.1152 C   0  0  0  0  0  0
  -22.7488  -29.4654   22.4904 C   0  0  0  0  0  0
  -18.0311  -28.1381   22.8479 C   0  0  0  0  0  0
  -24.1486  -36.7288   23.2639 C   0  0  0  0  0  0
  -25.9676  -30.7819   21.3828 C   0  0  0  0  0  0
  -26.0393  -29.4108   20.7208 C   0  0  0  0  0  0
  -27.2164  -28.5964   20.7177 C   0  0  0  0  0  0
  -26.0073  -26.8982   19.4896 C   0  0  0  0  0  0
  -24.8514  -27.6948   19.4936 C   0  0  0  0  0  0
  -23.6364  -29.8363   20.1606 C   0  0  0  0  0  0
  -25.4111  -36.3065   24.0322 C   0  0  1  0  0  0
  -20.5908  -28.3692   23.1231 C   0  0  2  0  0  0
  -20.6760  -26.9404   22.5370 C   0  0  0  0  0  0
  -19.5741  -26.6367   21.5167 C   0  0  0  0  0  0
  -18.1942  -26.7926   22.1611 C   0  0  0  0  0  0
  -19.1566  -28.8851   23.2864 C   0  0  0  0  0  0
  -18.9493  -30.1442   23.8903 C   0  0  0  0  0  0
  -17.6494  -30.6580   24.0558 C   0  0  0  0  0  0
  -25.9051  -34.9442   23.5101 C   0  0  0  0  0  0
  -16.5385  -29.9084   23.6314 C   0  0  0  0  0  0
  -16.7302  -28.6490   23.0363 C   0  0  0  0  0  0
  -26.4488  -31.6618   25.0791 C   0  0  0  0  0  0
  -25.3712  -31.3767   26.1521 C   0  0  0  0  0  0
  -27.0327  -30.3049   24.6247 C   0  0  0  0  0  0
  -27.6068  -32.4369   25.7530 C   0  0  0  0  0  0
  -27.5581  -37.1797   24.8468 C   0  0  0  0  0  0
  -21.4205  -29.3066   22.3636 N   0  0  0  0  0  0
  -26.4285  -37.3767   23.9417 N   0  0  0  0  0  0
  -24.6911  -31.0615   22.1010 N   0  0  0  0  0  0
  -23.4216  -28.8163   23.2954 O   0  0  0  0  0  0
  -28.3053  -26.3920   20.1950 O   0  0  0  0  0  0
  -26.5632  -34.8906   22.4674 O   0  0  0  0  0  0
  -23.5443  -32.1396   23.7386 O   0  0  0  0  0  0
  -27.6622  -19.3644   20.1627 C   0  0  0  0  0  0
  -29.3168  -21.0710   20.5909 C   0  0  0  0  0  0
  -28.9617  -19.6699   20.5708 C   0  0  0  0  0  0
  -26.7562  -20.3511   19.7436 C   0  0  0  0  0  0
  -28.4338  -22.1426   20.1597 C   0  0  0  0  0  0
  -27.1441  -21.7263   19.6559 C   0  0  0  0  0  0
  -25.1199  -19.4571   17.9823 C   0  0  0  0  0  0
  -26.6026  -23.0050   17.5148 C   0  0  0  0  0  0
  -29.8094  -18.4521   21.1079 C   0  0  0  0  0  0
  -25.3470  -19.8304   19.4516 C   0  0  0  0  0  0
  -28.9447  -23.6673   20.2670 C   0  0  0  0  0  0
  -26.1692  -22.6832   18.9570 C   0  0  0  0  0  0
  -29.9812  -17.1522   20.1835 C   0  0  0  0  0  0
  -27.9714  -24.9394   20.0825 C   0  0  0  0  0  0
  -29.8724  -15.7609   20.7792 N   0  0  0  0  0  0
  -31.4763  -12.5059   19.1781 H   0  0  0  0  0  0
  -30.3510  -11.4099   19.9241 H   0  0  0  0  0  0
  -29.7822  -11.7480   17.4977 H   0  0  0  0  0  0
  -29.6605  -13.4724   17.7495 H   0  0  0  0  0  0
  -27.8856  -11.2892   18.8961 H   0  0  0  0  0  0
  -27.3824  -12.5470   17.7975 H   0  0  0  0  0  0
  -27.6609  -14.2567   19.5018 H   0  0  0  0  0  0
  -28.6989  -12.1007   21.4022 H   0  0  0  0  0  0
  -28.4356  -13.7713   21.8275 H   0  0  0  0  0  0
  -25.2735   -9.5703   22.4760 H   0  0  0  0  0  0
  -24.0007   -7.4622   22.7445 H   0  0  0  0  0  0
  -21.0821   -8.8739   19.8946 H   0  0  0  0  0  0
  -22.3645  -10.9655   19.6171 H   0  0  0  0  0  0
  -21.1986   -7.6126   23.9725 H   0  0  0  0  0  0
  -21.1497   -6.0501   25.9090 H   0  0  0  0  0  0
  -22.0595   -2.7594   23.2866 H   0  0  0  0  0  0
  -22.4038  -11.9893   22.4889 H   0  0  0  0  0  0
  -21.1083  -13.1282   22.2629 H   0  0  0  0  0  0
  -24.6497  -15.8412   20.5026 H   0  0  0  0  0  0
  -26.2719  -15.6296   20.0774 H   0  0  0  0  0  0
  -26.7200  -32.5415   23.1150 H   0  0  0  0  0  0
  -25.0048  -33.9721   25.0411 H   0  0  0  0  0  0
  -22.7159  -31.3156   21.4098 H   0  0  0  0  0  0
  -23.3737  -35.9633   23.3297 H   0  0  0  0  0  0
  -24.3572  -36.8925   22.2056 H   0  0  0  0  0  0
  -23.7253  -37.6491   23.6672 H   0  0  0  0  0  0
  -26.1105  -31.5455   20.6175 H   0  0  0  0  0  0
  -26.8437  -30.8200   22.0181 H   0  0  0  0  0  0
  -28.1102  -28.9442   21.2163 H   0  0  0  0  0  0
  -25.8957  -25.9493   18.9905 H   0  0  0  0  0  0
  -23.9516  -27.3264   19.0209 H   0  0  0  0  0  0
  -23.7659  -30.6174   19.4099 H   0  0  0  0  0  0
  -22.7505  -29.2798   19.8478 H   0  0  0  0  0  0
  -25.1291  -36.1906   25.0813 H   0  0  0  0  0  0
  -21.0041  -28.3257   24.1333 H   0  0  0  0  0  0
  -20.5556  -26.2337   23.3592 H   0  0  0  0  0  0
  -21.6638  -26.7347   22.1229 H   0  0  0  0  0  0
  -19.6881  -25.6259   21.1237 H   0  0  0  0  0  0
  -19.6669  -27.3131   20.6654 H   0  0  0  0  0  0
  -17.4182  -26.6673   21.4043 H   0  0  0  0  0  0
  -18.0387  -26.0066   22.9012 H   0  0  0  0  0  0
  -19.7968  -30.7243   24.2307 H   0  0  0  0  0  0
  -17.5050  -31.6262   24.5152 H   0  0  0  0  0  0
  -15.5388  -30.2994   23.7598 H   0  0  0  0  0  0
  -15.8712  -28.0777   22.7112 H   0  0  0  0  0  0
  -24.5885  -30.7110   25.7855 H   0  0  0  0  0  0
  -24.8890  -32.2933   26.4935 H   0  0  0  0  0  0
  -25.8024  -30.8960   27.0312 H   0  0  0  0  0  0
  -26.2898  -29.6833   24.1234 H   0  0  0  0  0  0
  -27.3994  -29.7277   25.4741 H   0  0  0  0  0  0
  -27.8785  -30.4361   23.9498 H   0  0  0  0  0  0
  -27.2696  -33.3680   26.2097 H   0  0  0  0  0  0
  -28.3852  -32.6930   25.0330 H   0  0  0  0  0  0
  -28.0766  -31.8519   26.5445 H   0  0  0  0  0  0
  -28.2592  -38.0097   24.7504 H   0  0  0  0  0  0
  -28.1080  -36.2631   24.6290 H   0  0  0  0  0  0
  -27.2309  -37.1447   25.8874 H   0  0  0  0  0  0
  -20.9374  -29.8879   21.6931 H   0  0  0  0  0  0
  -26.0154  -38.2833   24.1438 H   0  0  0  0  0  0
  -27.3330  -18.3358   20.2031 H   0  0  0  0  0  0
  -30.2983  -21.3364   20.9594 H   0  0  0  0  0  0
  -24.1374  -19.0029   17.8530 H   0  0  0  0  0  0
  -25.8594  -18.7306   17.6459 H   0  0  0  0  0  0
  -25.1727  -20.3244   17.3265 H   0  0  0  0  0  0
  -26.6390  -22.0953   16.9165 H   0  0  0  0  0  0
  -27.5906  -23.4568   17.4555 H   0  0  0  0  0  0
  -25.8974  -23.6834   17.0347 H   0  0  0  0  0  0
  -29.3314  -18.1465   22.0393 H   0  0  0  0  0  0
  -30.7967  -18.8153   21.3932 H   0  0  0  0  0  0
  -24.5793  -20.5076   19.8243 H   0  0  0  0  0  0
  -25.1838  -18.9317   20.0489 H   0  0  0  0  0  0
  -29.7752  -23.7678   19.5667 H   0  0  0  0  0  0
  -29.4063  -23.7607   21.2502 H   0  0  0  0  0  0
  -25.9479  -23.5578   19.5546 H   0  0  0  0  0  0
  -25.1774  -22.2561   18.8645 H   0  0  0  0  0  0
  -30.9154  -17.2439   19.6278 H   0  0  0  0  0  0
  -29.2111  -17.1791   19.4130 H   0  0  0  0  0  0
  -27.1447  -24.7818   20.7753 H   0  0  0  0  0  0
  -27.6298  -24.8590   19.0611 H   0  0  0  0  0  0
  -28.9681  -15.5398   21.1691 H   0  0  0  0  0  0
  1 25  1  0  0  0
  1 30  2  0  0  0
  1 85  1  0  0  0
  2  3  1  0  0  0
  2 25  1  0  0  0
  2 86  1  0  0  0
  2 87  1  0  0  0
  3  4  1  0  0  0
  3 88  1  0  0  0
  3 89  1  0  0  0
  4  5  1  0  0  0
  4 90  1  0  0  0
  4 91  1  0  0  0
  5  6  1  0  0  0
  5 26  1  0  0  0
  5 92  1  0  0  0
  6 25  1  0  0  0
  6 93  1  0  0  0
  6 94  1  0  0  0
  7  8  2  0  0  0
  7 26  1  0  0  0
  7 29  1  0  0  0
  8  9  1  0  0  0
  8 22  1  0  0  0
  9 10  1  0  0  0
  9 27  2  0  0  0
 10 11  2  0  0  0
 10 15  1  0  0  0
 11 12  1  0  0  0
 11 95  1  0  0  0
 12 13  2  0  0  0
 12 96  1  0  0  0
 13 14  1  0  0  0
 13 31  1  0  0  0
 14 15  2  0  0  0
 14 97  1  0  0  0
 15 98  1  0  0  0
 16 17  2  0  0  0
 16 21  1  0  0  0
 16 31  1  0  0  0
 17 18  1  0  0  0
 17 99  1  0  0  0
 18 19  2  0  0  0
 18100  1  0  0  0
 19 20  1  0  0  0
 19 24  1  0  0  0
 20 21  2  0  0  0
 20101  1  0  0  0
 21 23  1  0  0  0
 22 28  1  0  0  0
 22 32  2  0  0  0
 26 27  1  0  0  0
 28102  1  0  0  0
 28103  1  0  0  0
 29104  1  0  0  0
 29105  1  0  0  0
 33 34  1  0  0  0
 33 66  1  0  0  0
 33 70  2  0  0  0
 34 36  1  0  0  0
 34 59  1  0  0  0
 34106  1  0  0  0
 35 44  2  0  0  0
 35 45  1  0  0  0
 35 68  1  0  0  0
 36 56  1  0  0  0
 36107  1  0  0  0
 37 39  1  0  0  0
 37 47  1  0  0  0
 37 66  1  0  0  0
 37108  1  0  0  0
 38 43  2  0  0  0
 38 46  1  0  0  0
 38 47  1  0  0  0
 39 64  1  0  0  0
 39 67  2  0  0  0
 40 52  1  0  0  0
 40 53  2  0  0  0
 40 58  1  0  0  0
 41109  1  0  0  0
 41110  1  0  0  0
 41111  1  0  0  0
 41 48  1  0  0  0
 42 43  1  0  0  0
 42 66  1  0  0  0
 42112  1  0  0  0
 42113  1  0  0  0
 43 44  1  0  0  0
 44114  1  0  0  0
 45 46  2  0  0  0
 45115  1  0  0  0
 46116  1  0  0  0
 47117  1  0  0  0
 47118  1  0  0  0
 48 56  1  0  0  0
 48 65  1  0  0  0
 48119  1  0  0  0
 49 50  1  0  0  0
 49 53  1  0  0  0
 49 64  1  0  0  0
 49120  1  0  0  0
 50 51  1  0  0  0
 50121  1  0  0  0
 50122  1  0  0  0
 51 52  1  0  0  0
 51123  1  0  0  0
 51124  1  0  0  0
 52125  1  0  0  0
 52126  1  0  0  0
 53 54  1  0  0  0
 54 55  2  0  0  0
 54127  1  0  0  0
 55 57  1  0  0  0
 55128  1  0  0  0
 56 69  2  0  0  0
 57 58  2  0  0  0
 57129  1  0  0  0
 58130  1  0  0  0
 59 60  1  0  0  0
 59 61  1  0  0  0
 59 62  1  0  0  0
 60131  1  0  0  0
 60132  1  0  0  0
 60133  1  0  0  0
 61134  1  0  0  0
 61135  1  0  0  0
 61136  1  0  0  0
 62137  1  0  0  0
 62138  1  0  0  0
 62139  1  0  0  0
 63 65  1  0  0  0
 63140  1  0  0  0
 63141  1  0  0  0
 63142  1  0  0  0
 64143  1  0  0  0
 65144  1  0  0  0
 68 84  1  0  0  0
 71 73  2  0  0  0
 71 74  1  0  0  0
 71145  1  0  0  0
 72 73  1  0  0  0
 72 75  2  0  0  0
 72146  1  0  0  0
 73 79  1  0  0  0
 74 76  2  0  0  0
 74 80  1  0  0  0
 75 76  1  0  0  0
 75 81  1  0  0  0
 76 82  1  0  0  0
 77 80  1  0  0  0
 77147  1  0  0  0
 77148  1  0  0  0
 77149  1  0  0  0
 78 82  1  0  0  0
 78150  1  0  0  0
 78151  1  0  0  0
 78152  1  0  0  0
 79 83  1  0  0  0
 79153  1  0  0  0
 79154  1  0  0  0
 80155  1  0  0  0
 80156  1  0  0  0
 81 84  1  0  0  0
 81157  1  0  0  0
 81158  1  0  0  0
 82159  1  0  0  0
 82160  1  0  0  0
 83 85  1  0  0  0
 83161  1  0  0  0
 83162  1  0  0  0
 84163  1  0  0  0
 84164  1  0  0  0
 85165  1  0  0  0
M  ISO  4   1 100  68 101  84 101  85 100
M  END
> <chiral flag>
0

> <version>
0

> <s_m_source_file>
/data/baiqing/PycharmProjects/Reinvent-master-3.2/result/LINK_invent/BTK/process_docking_weight1_custom_sum_contain_oxygen_bond_distance_aromatic_linkinvent_7_9_3/rearranged_h_0031.sdf

> <i_m_source_file_index>
59

> <r_mmod_Potential_Energy-OPLS-2005>
150.656372070312

> <r_mmod_Stretch_Energy-OPLS-2005>
112.33837890625

> <r_mmod_Bend_Energy-OPLS-2005>
180.552474975586

> <r_mmod_Torsional_Energy-OPLS-2005>
230.140274047852

> <r_mmod_Improper_Torsional_Energy-OPLS-2005>
7.62026500701904

> <r_mmod_Van_der_Waal_Energy-OPLS-2005>
158.467544555664

> <r_mmod_Electrostatic_Energy-OPLS-2005>
-393.461273193359

> <r_mmod_Solvation_Energy-OPLS-2005>
-206.733657836914

> <b_mmod_Minimization_Converged-OPLS-2005>
0

> <r_mmod_RMS_Derivative-OPLS-2005>
2.5210223197937

$$$$
59
                    3D
 Structure written by MMmdl.
155163  0  0  1  0            999 V2000
  -30.7185  -14.4969   20.5195 C   0  0  0  0  0  0
  -30.4144  -12.3057   19.4339 C   0  0  0  0  0  0
  -29.4939  -12.4842   18.2099 C   0  0  0  0  0  0
  -28.0174  -12.3438   18.6280 C   0  0  0  0  0  0
  -27.6609  -13.2103   19.8666 C   0  0  2  0  0  0
  -28.7047  -13.0401   20.9948 C   0  0  0  0  0  0
  -25.2571  -13.8167   20.5646 C   0  0  0  0  0  0
  -24.1816  -13.0472   20.9141 C   0  0  0  0  0  0
  -24.6369  -11.6932   20.8709 C   0  0  0  0  0  0
  -23.9034  -10.4322   21.0369 C   0  0  0  0  0  0
  -24.3594   -9.4247   21.9147 C   0  0  0  0  0  0
  -23.6295   -8.2281   22.0733 C   0  0  0  0  0  0
  -22.4278   -8.0289   21.3535 C   0  0  0  0  0  0
  -21.9891   -9.0239   20.4630 C   0  0  0  0  0  0
  -22.7199  -10.2129   20.3033 C   0  0  0  0  0  0
  -21.6866   -6.0730   22.5270 C   0  0  0  0  0  0
  -21.4028   -6.5615   23.8203 C   0  0  0  0  0  0
  -21.3669   -5.6763   24.9157 C   0  0  0  0  0  0
  -21.6071   -4.3039   24.7201 C   0  0  0  0  0  0
  -21.8820   -3.8129   23.4320 C   0  0  0  0  0  0
  -21.9190   -4.6963   22.3377 C   0  0  0  0  0  0
  -22.7840  -13.5277   21.1792 C   0  0  0  0  0  0
  -22.1655   -4.2145   21.0969 F   0  0  0  0  0  0
  -21.5639   -3.4521   25.7711 F   0  0  0  0  0  0
  -30.0307  -13.3260   20.4266 N   0  0  0  0  0  0
  -26.3013  -12.9354   20.3324 N   0  0  0  0  0  0
  -25.9306  -11.6516   20.5754 N   0  0  0  0  0  0
  -22.0467  -12.8316   22.0371 N   0  0  0  0  0  0
  -25.4349  -15.1885   20.4071 N   0  0  0  0  0  0
  -31.8699  -14.6169   20.0953 O   0  0  0  0  0  0
  -21.6667   -6.8874   21.4228 O   0  0  0  0  0  0
  -22.3534  -14.5577   20.6629 O   0  0  0  0  0  0
  -24.6191  -31.8678   23.2110 C   0  0  0  0  0  0
  -25.9082  -32.4794   23.8414 C   0  0  1  0  0  0
  -27.2414  -27.4167   20.1214 C   0  0  0  0  0  0
  -25.5986  -33.8609   24.2365 N   0  0  0  0  0  0
  -23.4065  -30.4926   21.5500 C   0  0  2  0  0  0
  -24.8575  -28.9524   20.1210 C   0  0  0  0  0  0
  -22.7437  -29.4689   22.4997 C   0  0  0  0  0  0
  -18.0300  -28.1376   22.8486 C   0  0  0  0  0  0
  -24.1496  -36.7275   23.2632 C   0  0  0  0  0  0
  -25.9360  -30.8251   21.3730 C   0  0  0  0  0  0
  -26.0144  -29.4560   20.7238 C   0  0  0  0  0  0
  -27.2109  -28.6977   20.7223 C   0  0  0  0  0  0
  -26.0724  -26.9329   19.5008 C   0  0  0  0  0  0
  -24.8829  -27.6882   19.5048 C   0  0  0  0  0  0
  -23.6199  -29.8251   20.1642 C   0  0  0  0  0  0
  -25.4114  -36.3084   24.0355 C   0  0  1  0  0  0
  -20.5887  -28.3690   23.1304 C   0  0  2  0  0  0
  -20.6803  -26.9434   22.5399 C   0  0  0  0  0  0
  -19.5778  -26.6399   21.5201 C   0  0  0  0  0  0
  -18.1957  -26.7914   22.1613 C   0  0  0  0  0  0
  -19.1544  -28.8854   23.2888 C   0  0  0  0  0  0
  -18.9457  -30.1454   23.8903 C   0  0  0  0  0  0
  -17.6455  -30.6570   24.0588 C   0  0  0  0  0  0
  -25.9054  -34.9457   23.5128 C   0  0  0  0  0  0
  -16.5369  -29.9065   23.6328 C   0  0  0  0  0  0
  -16.7290  -28.6498   23.0337 C   0  0  0  0  0  0
  -26.4538  -31.6567   25.0731 C   0  0  0  0  0  0
  -25.3836  -31.3665   26.1508 C   0  0  0  0  0  0
  -27.0370  -30.3012   24.6101 C   0  0  0  0  0  0
  -27.6119  -32.4297   25.7482 C   0  0  0  0  0  0
  -27.5585  -37.1801   24.8475 C   0  0  0  0  0  0
  -21.4183  -29.3041   22.3709 N   0  0  0  0  0  0
  -26.4287  -37.3781   23.9440 N   0  0  0  0  0  0
  -24.6708  -31.0773   22.1030 N   0  0  0  0  0  0
  -23.4205  -28.8279   23.3084 O   0  0  0  0  0  0
  -28.4000  -26.6690   20.0600 O   0  0  0  0  0  0
  -26.5555  -34.8902   22.4658 O   0  0  0  0  0  0
  -23.5384  -32.1491   23.7495 O   0  0  0  0  0  0
  -27.6188  -21.6651   20.6937 C   0  0  0  0  0  0
  -28.8675  -21.9003   21.2924 C   0  0  0  0  0  0
  -29.3021  -23.2555   21.4095 C   0  0  0  0  0  0
  -28.4266  -24.2978   20.9599 C   0  0  0  0  0  0
  -26.8449  -22.7461   20.2474 C   0  0  0  0  0  0
  -29.6079  -20.6810   21.8782 C   0  0  0  0  0  0
  -28.6926  -25.8063   21.1847 C   0  0  0  0  0  0
  -30.0301  -19.5685   20.8659 C   0  0  0  0  0  0
  -29.6756  -18.1101   21.3070 C   0  0  0  0  0  0
  -30.4947  -16.9786   20.6156 C   0  0  0  0  0  0
  -27.2351  -24.0266   20.3834 N   0  0  0  0  0  0
  -30.0267  -15.5951   20.8930 N   0  0  0  0  0  0
  -30.8426  -23.6312   22.1056 Cl  0  0  0  0  0  0
  -25.3201  -22.4290   19.5145 Cl  0  0  0  0  0  0
  -31.4630  -12.3678   19.1393 H   0  0  0  0  0  0
  -30.2857  -11.3081   19.8538 H   0  0  0  0  0  0
  -29.7305  -11.7440   17.4437 H   0  0  0  0  0  0
  -29.6625  -13.4641   17.7568 H   0  0  0  0  0  0
  -27.8414  -11.2893   18.8468 H   0  0  0  0  0  0
  -27.3619  -12.5853   17.7912 H   0  0  0  0  0  0
  -27.7019  -14.2508   19.5405 H   0  0  0  0  0  0
  -28.6778  -12.0229   21.3889 H   0  0  0  0  0  0
  -28.4743  -13.6941   21.8372 H   0  0  0  0  0  0
  -25.2740   -9.5752   22.4710 H   0  0  0  0  0  0
  -24.0014   -7.4684   22.7470 H   0  0  0  0  0  0
  -21.0808   -8.8738   19.8952 H   0  0  0  0  0  0
  -22.3622  -10.9650   19.6146 H   0  0  0  0  0  0
  -21.2046   -7.6132   23.9701 H   0  0  0  0  0  0
  -21.1481   -6.0496   25.9056 H   0  0  0  0  0  0
  -22.0592   -2.7593   23.2810 H   0  0  0  0  0  0
  -22.4073  -12.0029   22.4852 H   0  0  0  0  0  0
  -21.1055  -13.1323   22.2539 H   0  0  0  0  0  0
  -24.6786  -15.8527   20.5272 H   0  0  0  0  0  0
  -26.2942  -15.6175   20.0850 H   0  0  0  0  0  0
  -26.7165  -32.5531   23.1185 H   0  0  0  0  0  0
  -25.0330  -33.9786   25.0642 H   0  0  0  0  0  0
  -22.6948  -31.3122   21.4114 H   0  0  0  0  0  0
  -23.3757  -35.9596   23.3288 H   0  0  0  0  0  0
  -24.3595  -36.8880   22.2040 H   0  0  0  0  0  0
  -23.7226  -37.6486   23.6622 H   0  0  0  0  0  0
  -26.0615  -31.5923   20.6074 H   0  0  0  0  0  0
  -26.8188  -30.8728   21.9986 H   0  0  0  0  0  0
  -28.1061  -29.0934   21.1804 H   0  0  0  0  0  0
  -26.0834  -25.9712   19.0049 H   0  0  0  0  0  0
  -23.9963  -27.2972   19.0259 H   0  0  0  0  0  0
  -23.7340  -30.6019   19.4078 H   0  0  0  0  0  0
  -22.7435  -29.2508   19.8607 H   0  0  0  0  0  0
  -25.1267  -36.1945   25.0839 H   0  0  0  0  0  0
  -20.9987  -28.3233   24.1417 H   0  0  0  0  0  0
  -20.5738  -26.2291   23.3578 H   0  0  0  0  0  0
  -21.6671  -26.7492   22.1176 H   0  0  0  0  0  0
  -19.6940  -25.6306   21.1223 H   0  0  0  0  0  0
  -19.6684  -27.3212   20.6730 H   0  0  0  0  0  0
  -17.4242  -26.6712   21.3996 H   0  0  0  0  0  0
  -18.0337  -26.0026   22.8974 H   0  0  0  0  0  0
  -19.7949  -30.7286   24.2251 H   0  0  0  0  0  0
  -17.5017  -31.6235   24.5210 H   0  0  0  0  0  0
  -15.5369  -30.2987   23.7612 H   0  0  0  0  0  0
  -15.8701  -28.0833   22.7003 H   0  0  0  0  0  0
  -24.5992  -30.7008   25.7877 H   0  0  0  0  0  0
  -24.9054  -32.2808   26.5027 H   0  0  0  0  0  0
  -25.8239  -30.8811   27.0230 H   0  0  0  0  0  0
  -26.2900  -29.6759   24.1167 H   0  0  0  0  0  0
  -27.4178  -29.7254   25.4558 H   0  0  0  0  0  0
  -27.8746  -30.4351   23.9239 H   0  0  0  0  0  0
  -27.2727  -33.3571   26.2121 H   0  0  0  0  0  0
  -28.3874  -32.6904   25.0255 H   0  0  0  0  0  0
  -28.0849  -31.8387   26.5345 H   0  0  0  0  0  0
  -28.2608  -38.0099   24.7517 H   0  0  0  0  0  0
  -28.1077  -36.2629   24.6275 H   0  0  0  0  0  0
  -27.2322  -37.1431   25.8886 H   0  0  0  0  0  0
  -20.9364  -29.8747   21.6906 H   0  0  0  0  0  0
  -26.0170  -38.2861   24.1414 H   0  0  0  0  0  0
  -27.2344  -20.6601   20.6092 H   0  0  0  0  0  0
  -28.9149  -20.2389   22.5999 H   0  0  0  0  0  0
  -30.4776  -20.9863   22.4620 H   0  0  0  0  0  0
  -29.7294  -25.9862   21.4601 H   0  0  0  0  0  0
  -28.1074  -26.1126   22.0544 H   0  0  0  0  0  0
  -29.5457  -19.7505   19.9039 H   0  0  0  0  0  0
  -31.1004  -19.6695   20.6714 H   0  0  0  0  0  0
  -29.8142  -18.0192   22.3861 H   0  0  0  0  0  0
  -28.6095  -17.9553   21.1294 H   0  0  0  0  0  0
  -31.5365  -17.0770   20.9296 H   0  0  0  0  0  0
  -30.5057  -17.1226   19.5322 H   0  0  0  0  0  0
  -29.0758  -15.4632   21.2045 H   0  0  0  0  0  0
  1 25  1  0  0  0
  1 30  2  0  0  0
  1 82  1  0  0  0
  2  3  1  0  0  0
  2 25  1  0  0  0
  2 85  1  0  0  0
  2 86  1  0  0  0
  3  4  1  0  0  0
  3 87  1  0  0  0
  3 88  1  0  0  0
  4  5  1  0  0  0
  4 89  1  0  0  0
  4 90  1  0  0  0
  5  6  1  0  0  0
  5 26  1  0  0  0
  5 91  1  0  0  0
  6 25  1  0  0  0
  6 92  1  0  0  0
  6 93  1  0  0  0
  7  8  2  0  0  0
  7 26  1  0  0  0
  7 29  1  0  0  0
  8  9  1  0  0  0
  8 22  1  0  0  0
  9 10  1  0  0  0
  9 27  2  0  0  0
 10 11  2  0  0  0
 10 15  1  0  0  0
 11 12  1  0  0  0
 11 94  1  0  0  0
 12 13  2  0  0  0
 12 95  1  0  0  0
 13 14  1  0  0  0
 13 31  1  0  0  0
 14 15  2  0  0  0
 14 96  1  0  0  0
 15 97  1  0  0  0
 16 17  2  0  0  0
 16 21  1  0  0  0
 16 31  1  0  0  0
 17 18  1  0  0  0
 17 98  1  0  0  0
 18 19  2  0  0  0
 18 99  1  0  0  0
 19 20  1  0  0  0
 19 24  1  0  0  0
 20 21  2  0  0  0
 20100  1  0  0  0
 21 23  1  0  0  0
 22 28  1  0  0  0
 22 32  2  0  0  0
 26 27  1  0  0  0
 28101  1  0  0  0
 28102  1  0  0  0
 29103  1  0  0  0
 29104  1  0  0  0
 33 34  1  0  0  0
 33 66  1  0  0  0
 33 70  2  0  0  0
 34 36  1  0  0  0
 34 59  1  0  0  0
 34105  1  0  0  0
 35 44  2  0  0  0
 35 45  1  0  0  0
 35 68  1  0  0  0
 36 56  1  0  0  0
 36106  1  0  0  0
 37 39  1  0  0  0
 37 47  1  0  0  0
 37 66  1  0  0  0
 37107  1  0  0  0
 38 43  2  0  0  0
 38 46  1  0  0  0
 38 47  1  0  0  0
 39 64  1  0  0  0
 39 67  2  0  0  0
 40 52  1  0  0  0
 40 53  2  0  0  0
 40 58  1  0  0  0
 41108  1  0  0  0
 41109  1  0  0  0
 41110  1  0  0  0
 41 48  1  0  0  0
 42 43  1  0  0  0
 42 66  1  0  0  0
 42111  1  0  0  0
 42112  1  0  0  0
 43 44  1  0  0  0
 44113  1  0  0  0
 45 46  2  0  0  0
 45114  1  0  0  0
 46115  1  0  0  0
 47116  1  0  0  0
 47117  1  0  0  0
 48 56  1  0  0  0
 48 65  1  0  0  0
 48118  1  0  0  0
 49 50  1  0  0  0
 49 53  1  0  0  0
 49 64  1  0  0  0
 49119  1  0  0  0
 50 51  1  0  0  0
 50120  1  0  0  0
 50121  1  0  0  0
 51 52  1  0  0  0
 51122  1  0  0  0
 51123  1  0  0  0
 52124  1  0  0  0
 52125  1  0  0  0
 53 54  1  0  0  0
 54 55  2  0  0  0
 54126  1  0  0  0
 55 57  1  0  0  0
 55127  1  0  0  0
 56 69  2  0  0  0
 57 58  2  0  0  0
 57128  1  0  0  0
 58129  1  0  0  0
 59 60  1  0  0  0
 59 61  1  0  0  0
 59 62  1  0  0  0
 60130  1  0  0  0
 60131  1  0  0  0
 60132  1  0  0  0
 61133  1  0  0  0
 61134  1  0  0  0
 61135  1  0  0  0
 62136  1  0  0  0
 62137  1  0  0  0
 62138  1  0  0  0
 63 65  1  0  0  0
 63139  1  0  0  0
 63140  1  0  0  0
 63141  1  0  0  0
 64142  1  0  0  0
 65143  1  0  0  0
 68 77  1  0  0  0
 71 72  2  0  0  0
 71 75  1  0  0  0
 71144  1  0  0  0
 72 73  1  0  0  0
 72 76  1  0  0  0
 73 74  2  0  0  0
 73 83  1  0  0  0
 74 77  1  0  0  0
 74 81  1  0  0  0
 75 81  2  0  0  0
 75 84  1  0  0  0
 76 78  1  0  0  0
 76145  1  0  0  0
 76146  1  0  0  0
 77147  1  0  0  0
 77148  1  0  0  0
 78 79  1  0  0  0
 78149  1  0  0  0
 78150  1  0  0  0
 79 80  1  0  0  0
 79151  1  0  0  0
 79152  1  0  0  0
 80 82  1  0  0  0
 80153  1  0  0  0
 80154  1  0  0  0
 82155  1  0  0  0
M  ISO  4   1 100  68 101  77 101  82 100
M  END
> <chiral flag>
0

> <version>
0

> <s_m_source_file>
/data/baiqing/PycharmProjects/Reinvent-master-3.2/result/LINK_invent/BTK/process_docking_weight1_custom_sum_contain_oxygen_bond_distance_aromatic_linkinvent_7_9_3/rearranged_h_0031.sdf

> <i_m_source_file_index>
60

> <r_mmod_Potential_Energy-OPLS-2005>
-122.887001037598

> <r_mmod_Stretch_Energy-OPLS-2005>
45.4300994873047

> <r_mmod_Bend_Energy-OPLS-2005>
102.793510437012

> <r_mmod_Torsional_Energy-OPLS-2005>
244.994232177734

> <r_mmod_Improper_Torsional_Energy-OPLS-2005>
5.737548828125

> <r_mmod_Van_der_Waal_Energy-OPLS-2005>
144.959396362305

> <r_mmod_Electrostatic_Energy-OPLS-2005>
-470.24267578125

> <r_mmod_Solvation_Energy-OPLS-2005>
-213.846420288086

> <b_mmod_Minimization_Converged-OPLS-2005>
0

> <r_mmod_RMS_Derivative-OPLS-2005>
5.00036907196045

$$$$
60
                    3D
 Structure written by MMmdl.
163171  0  0  1  0            999 V2000
  -30.6988  -14.4605   20.6266 C   0  0  0  0  0  0
  -30.4256  -12.3162   19.4229 C   0  0  0  0  0  0
  -29.4899  -12.4884   18.2088 C   0  0  0  0  0  0
  -28.0179  -12.3274   18.6323 C   0  0  0  0  0  0
  -27.6566  -13.1945   19.8671 C   0  0  2  0  0  0
  -28.6979  -12.9997   20.9922 C   0  0  0  0  0  0
  -25.2601  -13.8161   20.5769 C   0  0  0  0  0  0
  -24.1829  -13.0430   20.9246 C   0  0  0  0  0  0
  -24.6356  -11.6897   20.8769 C   0  0  0  0  0  0
  -23.8995  -10.4281   21.0425 C   0  0  0  0  0  0
  -24.3557   -9.4190   21.9191 C   0  0  0  0  0  0
  -23.6243   -8.2225   22.0758 C   0  0  0  0  0  0
  -22.4228   -8.0258   21.3549 C   0  0  0  0  0  0
  -21.9845   -9.0227   20.4663 C   0  0  0  0  0  0
  -22.7164  -10.2120   20.3075 C   0  0  0  0  0  0
  -21.6838   -6.0699   22.5260 C   0  0  0  0  0  0
  -21.4001   -6.5613   23.8188 C   0  0  0  0  0  0
  -21.3667   -5.6786   24.9162 C   0  0  0  0  0  0
  -21.6047   -4.3044   24.7229 C   0  0  0  0  0  0
  -21.8813   -3.8120   23.4349 C   0  0  0  0  0  0
  -21.9186   -4.6925   22.3394 C   0  0  0  0  0  0
  -22.7857  -13.5279   21.1851 C   0  0  0  0  0  0
  -22.1661   -4.2106   21.0978 F   0  0  0  0  0  0
  -21.5632   -3.4536   25.7753 F   0  0  0  0  0  0
  -30.0279  -13.2944   20.4452 N   0  0  0  0  0  0
  -26.2983  -12.9278   20.3349 N   0  0  0  0  0  0
  -25.9270  -11.6449   20.5772 N   0  0  0  0  0  0
  -22.0437  -12.8331   22.0417 N   0  0  0  0  0  0
  -25.4354  -15.1877   20.4281 N   0  0  0  0  0  0
  -31.8216  -14.6510   20.1498 O   0  0  0  0  0  0
  -21.6619   -6.8837   21.4229 O   0  0  0  0  0  0
  -22.3583  -14.5573   20.6668 O   0  0  0  0  0  0
  -24.6159  -31.8675   23.2102 C   0  0  0  0  0  0
  -25.9053  -32.4829   23.8407 C   0  0  1  0  0  0
  -27.2449  -27.4274   20.1274 C   0  0  0  0  0  0
  -25.5922  -33.8629   24.2343 N   0  0  0  0  0  0
  -23.4068  -30.4875   21.5494 C   0  0  2  0  0  0
  -24.8585  -28.9459   20.1209 C   0  0  0  0  0  0
  -22.7425  -29.4692   22.5014 C   0  0  0  0  0  0
  -18.0300  -28.1332   22.8414 C   0  0  0  0  0  0
  -24.1481  -36.7331   23.2625 C   0  0  0  0  0  0
  -25.9336  -30.8286   21.3684 C   0  0  0  0  0  0
  -26.0121  -29.4562   20.7312 C   0  0  0  0  0  0
  -27.2071  -28.7019   20.7355 C   0  0  0  0  0  0
  -26.0826  -26.9363   19.4960 C   0  0  0  0  0  0
  -24.8878  -27.6834   19.5002 C   0  0  0  0  0  0
  -23.6168  -29.8102   20.1666 C   0  0  0  0  0  0
  -25.4116  -36.3137   24.0334 C   0  0  1  0  0  0
  -20.5862  -28.3729   23.1325 C   0  0  2  0  0  0
  -20.6852  -26.9436   22.5559 C   0  0  0  0  0  0
  -19.5934  -26.6288   21.5306 C   0  0  0  0  0  0
  -18.2033  -26.7883   22.1560 C   0  0  0  0  0  0
  -19.1501  -28.8845   23.2851 C   0  0  0  0  0  0
  -18.9375  -30.1463   23.8808 C   0  0  0  0  0  0
  -17.6360  -30.6544   24.0446 C   0  0  0  0  0  0
  -25.9050  -34.9482   23.5146 C   0  0  0  0  0  0
  -16.5277  -29.8985   23.6218 C   0  0  0  0  0  0
  -16.7252  -28.6405   23.0250 C   0  0  0  0  0  0
  -26.4474  -31.6616   25.0741 C   0  0  0  0  0  0
  -25.3744  -31.3739   26.1502 C   0  0  0  0  0  0
  -27.0282  -30.3048   24.6123 C   0  0  0  0  0  0
  -27.6076  -32.4321   25.7472 C   0  0  0  0  0  0
  -27.5588  -37.1815   24.8462 C   0  0  0  0  0  0
  -21.4155  -29.3090   22.3735 N   0  0  0  0  0  0
  -26.4304  -37.3819   23.9410 N   0  0  0  0  0  0
  -24.6697  -31.0783   22.1002 N   0  0  0  0  0  0
  -23.4168  -28.8245   23.3085 O   0  0  0  0  0  0
  -28.4155  -26.7040   20.0855 O   0  0  0  0  0  0
  -26.5577  -34.8905   22.4684 O   0  0  0  0  0  0
  -23.5343  -32.1425   23.7465 O   0  0  0  0  0  0
  -28.0293  -21.6431   23.4506 C   0  0  0  0  0  0
  -28.4725  -21.9892   20.7131 C   0  0  0  0  0  0
  -27.8720  -22.9281   22.8774 C   0  0  0  0  0  0
  -28.3282  -20.5108   22.6592 C   0  0  0  0  0  0
  -28.0781  -23.1076   21.4842 C   0  0  0  0  0  0
  -28.5618  -20.7003   21.2748 C   0  0  0  0  0  0
  -27.4037  -24.0622   23.7773 C   0  0  0  0  0  0
  -27.7438  -24.4097   20.7398 C   0  0  0  0  0  0
  -28.2610  -19.1177   23.3037 C   0  0  0  0  0  0
  -29.9873  -15.6663   21.2811 C   0  0  0  0  0  0
  -30.1773  -15.8003   22.8098 C   0  0  0  0  0  0
  -29.2143  -16.8234   23.4620 C   0  0  0  0  0  0
  -28.5788  -25.6660   21.0677 C   0  0  0  0  0  0
  -29.3904  -18.2166   22.9767 N   0  3  0  0  0  0
  -28.9047  -19.3709   20.2212 Cl  0  0  0  0  0  0
  -31.4667  -12.4255   19.1157 H   0  0  0  0  0  0
  -30.3417  -11.3107   19.8323 H   0  0  0  0  0  0
  -29.7372  -11.7549   17.4406 H   0  0  0  0  0  0
  -29.6354  -13.4690   17.7514 H   0  0  0  0  0  0
  -27.8619  -11.2756   18.8745 H   0  0  0  0  0  0
  -27.3525  -12.5486   17.7971 H   0  0  0  0  0  0
  -27.6933  -14.2311   19.5349 H   0  0  0  0  0  0
  -28.6848  -11.9748   21.3597 H   0  0  0  0  0  0
  -28.4546  -13.6181   21.8548 H   0  0  0  0  0  0
  -25.2676   -9.5697   22.4797 H   0  0  0  0  0  0
  -23.9938   -7.4630   22.7492 H   0  0  0  0  0  0
  -21.0756   -8.8737   19.9003 H   0  0  0  0  0  0
  -22.3565  -10.9662   19.6217 H   0  0  0  0  0  0
  -21.1979   -7.6123   23.9680 H   0  0  0  0  0  0
  -21.1515   -6.0522   25.9075 H   0  0  0  0  0  0
  -22.0589   -2.7580   23.2863 H   0  0  0  0  0  0
  -22.3977  -12.0021   22.4910 H   0  0  0  0  0  0
  -21.1063  -13.1427   22.2547 H   0  0  0  0  0  0
  -24.6786  -15.8444   20.5835 H   0  0  0  0  0  0
  -26.2838  -15.6304   20.0975 H   0  0  0  0  0  0
  -26.7156  -32.5508   23.1196 H   0  0  0  0  0  0
  -25.0162  -33.9809   25.0549 H   0  0  0  0  0  0
  -22.6953  -31.3022   21.4039 H   0  0  0  0  0  0
  -23.3734  -35.9667   23.3302 H   0  0  0  0  0  0
  -24.3590  -36.8921   22.2036 H   0  0  0  0  0  0
  -23.7204  -37.6537   23.6612 H   0  0  0  0  0  0
  -26.0412  -31.5864   20.5892 H   0  0  0  0  0  0
  -26.8237  -30.8895   21.9825 H   0  0  0  0  0  0
  -28.0960  -29.0971   21.2070 H   0  0  0  0  0  0
  -26.1031  -25.9834   18.9865 H   0  0  0  0  0  0
  -24.0070  -27.2886   19.0130 H   0  0  0  0  0  0
  -23.7235  -30.5787   19.4010 H   0  0  0  0  0  0
  -22.7409  -29.2225   19.8784 H   0  0  0  0  0  0
  -25.1268  -36.2050   25.0827 H   0  0  0  0  0  0
  -20.9869  -28.3336   24.1469 H   0  0  0  0  0  0
  -20.5698  -26.2405   23.3821 H   0  0  0  0  0  0
  -21.6787  -26.7501   22.1486 H   0  0  0  0  0  0
  -19.7105  -25.6132   21.1512 H   0  0  0  0  0  0
  -19.6987  -27.2936   20.6724 H   0  0  0  0  0  0
  -17.4471  -26.6652   21.3812 H   0  0  0  0  0  0
  -18.0278  -26.0000   22.8885 H   0  0  0  0  0  0
  -19.7806  -30.7346   24.2152 H   0  0  0  0  0  0
  -17.4884  -31.6229   24.5032 H   0  0  0  0  0  0
  -15.5269  -30.2858   23.7539 H   0  0  0  0  0  0
  -15.8691  -28.0678   22.6917 H   0  0  0  0  0  0
  -24.5953  -30.7037   25.7867 H   0  0  0  0  0  0
  -24.8885  -32.2886   26.4897 H   0  0  0  0  0  0
  -25.8096  -30.8980   27.0303 H   0  0  0  0  0  0
  -26.2816  -29.6833   24.1177 H   0  0  0  0  0  0
  -27.4047  -29.7267   25.4573 H   0  0  0  0  0  0
  -27.8650  -30.4352   23.9262 H   0  0  0  0  0  0
  -27.2742  -33.3632   26.2067 H   0  0  0  0  0  0
  -28.3843  -32.6877   25.0252 H   0  0  0  0  0  0
  -28.0799  -31.8451   26.5362 H   0  0  0  0  0  0
  -28.2629  -38.0087   24.7527 H   0  0  0  0  0  0
  -28.1055  -36.2631   24.6281 H   0  0  0  0  0  0
  -27.2315  -37.1473   25.8862 H   0  0  0  0  0  0
  -20.9295  -29.8824   21.6975 H   0  0  0  0  0  0
  -26.0205  -38.2899   24.1415 H   0  0  0  0  0  0
  -27.8407  -21.5101   24.5083 H   0  0  0  0  0  0
  -28.6438  -22.0971   19.6518 H   0  0  0  0  0  0
  -26.9743  -23.6713   24.6994 H   0  0  0  0  0  0
  -26.6288  -24.6597   23.2986 H   0  0  0  0  0  0
  -28.2283  -24.7163   24.0585 H   0  0  0  0  0  0
  -26.6892  -24.6229   20.9115 H   0  0  0  0  0  0
  -27.8323  -24.2261   19.6687 H   0  0  0  0  0  0
  -27.3259  -18.6591   22.9788 H   0  0  0  0  0  0
  -28.1906  -19.2041   24.3895 H   0  0  0  0  0  0
  -30.3774  -16.5649   20.8037 H   0  0  0  0  0  0
  -28.9295  -15.6577   21.0212 H   0  0  0  0  0  0
  -31.2136  -16.0521   23.0435 H   0  0  0  0  0  0
  -29.9995  -14.8292   23.2756 H   0  0  0  0  0  0
  -29.3490  -16.8111   24.5456 H   0  0  0  0  0  0
  -28.1889  -16.4940   23.2861 H   0  0  0  0  0  0
  -29.6378  -25.4006   21.0690 H   0  0  0  0  0  0
  -28.3521  -26.0435   22.0653 H   0  0  0  0  0  0
  -30.2459  -18.6034   23.3407 H   0  0  0  0  0  0
  -29.4514  -18.2094   21.9696 H   0  0  0  0  0  0
  1 25  1  0  0  0
  1 30  2  0  0  0
  1 80  1  0  0  0
  2  3  1  0  0  0
  2 25  1  0  0  0
  2 86  1  0  0  0
  2 87  1  0  0  0
  3  4  1  0  0  0
  3 88  1  0  0  0
  3 89  1  0  0  0
  4  5  1  0  0  0
  4 90  1  0  0  0
  4 91  1  0  0  0
  5  6  1  0  0  0
  5 26  1  0  0  0
  5 92  1  0  0  0
  6 25  1  0  0  0
  6 93  1  0  0  0
  6 94  1  0  0  0
  7  8  2  0  0  0
  7 26  1  0  0  0
  7 29  1  0  0  0
  8  9  1  0  0  0
  8 22  1  0  0  0
  9 10  1  0  0  0
  9 27  2  0  0  0
 10 11  2  0  0  0
 10 15  1  0  0  0
 11 12  1  0  0  0
 11 95  1  0  0  0
 12 13  2  0  0  0
 12 96  1  0  0  0
 13 14  1  0  0  0
 13 31  1  0  0  0
 14 15  2  0  0  0
 14 97  1  0  0  0
 15 98  1  0  0  0
 16 17  2  0  0  0
 16 21  1  0  0  0
 16 31  1  0  0  0
 17 18  1  0  0  0
 17 99  1  0  0  0
 18 19  2  0  0  0
 18100  1  0  0  0
 19 20  1  0  0  0
 19 24  1  0  0  0
 20 21  2  0  0  0
 20101  1  0  0  0
 21 23  1  0  0  0
 22 28  1  0  0  0
 22 32  2  0  0  0
 26 27  1  0  0  0
 28102  1  0  0  0
 28103  1  0  0  0
 29104  1  0  0  0
 29105  1  0  0  0
 33 34  1  0  0  0
 33 66  1  0  0  0
 33 70  2  0  0  0
 34 36  1  0  0  0
 34 59  1  0  0  0
 34106  1  0  0  0
 35 44  2  0  0  0
 35 45  1  0  0  0
 35 68  1  0  0  0
 36 56  1  0  0  0
 36107  1  0  0  0
 37 39  1  0  0  0
 37 47  1  0  0  0
 37 66  1  0  0  0
 37108  1  0  0  0
 38 43  2  0  0  0
 38 46  1  0  0  0
 38 47  1  0  0  0
 39 64  1  0  0  0
 39 67  2  0  0  0
 40 52  1  0  0  0
 40 53  2  0  0  0
 40 58  1  0  0  0
 41109  1  0  0  0
 41110  1  0  0  0
 41111  1  0  0  0
 41 48  1  0  0  0
 42 43  1  0  0  0
 42 66  1  0  0  0
 42112  1  0  0  0
 42113  1  0  0  0
 43 44  1  0  0  0
 44114  1  0  0  0
 45 46  2  0  0  0
 45115  1  0  0  0
 46116  1  0  0  0
 47117  1  0  0  0
 47118  1  0  0  0
 48 56  1  0  0  0
 48 65  1  0  0  0
 48119  1  0  0  0
 49 50  1  0  0  0
 49 53  1  0  0  0
 49 64  1  0  0  0
 49120  1  0  0  0
 50 51  1  0  0  0
 50121  1  0  0  0
 50122  1  0  0  0
 51 52  1  0  0  0
 51123  1  0  0  0
 51124  1  0  0  0
 52125  1  0  0  0
 52126  1  0  0  0
 53 54  1  0  0  0
 54 55  2  0  0  0
 54127  1  0  0  0
 55 57  1  0  0  0
 55128  1  0  0  0
 56 69  2  0  0  0
 57 58  2  0  0  0
 57129  1  0  0  0
 58130  1  0  0  0
 59 60  1  0  0  0
 59 61  1  0  0  0
 59 62  1  0  0  0
 60131  1  0  0  0
 60132  1  0  0  0
 60133  1  0  0  0
 61134  1  0  0  0
 61135  1  0  0  0
 61136  1  0  0  0
 62137  1  0  0  0
 62138  1  0  0  0
 62139  1  0  0  0
 63 65  1  0  0  0
 63140  1  0  0  0
 63141  1  0  0  0
 63142  1  0  0  0
 64143  1  0  0  0
 65144  1  0  0  0
 68 83  1  0  0  0
 71 73  2  0  0  0
 71 74  1  0  0  0
 71145  1  0  0  0
 72 75  2  0  0  0
 72 76  1  0  0  0
 72146  1  0  0  0
 73 75  1  0  0  0
 73 77  1  0  0  0
 74 76  2  0  0  0
 74 79  1  0  0  0
 75 78  1  0  0  0
 76 85  1  0  0  0
 77147  1  0  0  0
 77148  1  0  0  0
 77149  1  0  0  0
 78 83  1  0  0  0
 78150  1  0  0  0
 78151  1  0  0  0
 79 84  1  0  0  0
 79152  1  0  0  0
 79153  1  0  0  0
 80 81  1  0  0  0
 80154  1  0  0  0
 80155  1  0  0  0
 81 82  1  0  0  0
 81156  1  0  0  0
 81157  1  0  0  0
 82 84  1  0  0  0
 82158  1  0  0  0
 82159  1  0  0  0
 83160  1  0  0  0
 83161  1  0  0  0
 84162  1  0  0  0
 84163  1  0  0  0
M  CHG  1  84   1
M  ISO  4   1 100  68 101  80 100  83 101
M  END
> <chiral flag>
0

> <version>
0

> <s_m_source_file>
/data/baiqing/PycharmProjects/Reinvent-master-3.2/result/LINK_invent/BTK/process_docking_weight1_custom_sum_contain_oxygen_bond_distance_aromatic_linkinvent_7_9_3/rearranged_h_0031.sdf

> <i_m_source_file_index>
61

> <r_mmod_Potential_Energy-OPLS-2005>
-233.425338745117

> <r_mmod_Stretch_Energy-OPLS-2005>
36.6477279663086

> <r_mmod_Bend_Energy-OPLS-2005>
97.2650146484375

> <r_mmod_Torsional_Energy-OPLS-2005>
208.120819091797

> <r_mmod_Improper_Torsional_Energy-OPLS-2005>
4.69673109054565

> <r_mmod_Van_der_Waal_Energy-OPLS-2005>
141.60595703125

> <r_mmod_Electrostatic_Energy-OPLS-2005>
-287.991760253906

> <r_mmod_Solvation_Energy-OPLS-2005>
-447.120971679688

> <b_mmod_Minimization_Converged-OPLS-2005>
0

> <r_mmod_RMS_Derivative-OPLS-2005>
4.31150770187378

$$$$
61
                    3D
 Structure written by MMmdl.
165173  0  0  1  0            999 V2000
  -30.6962  -14.4847   20.5812 C   0  0  0  0  0  0
  -30.4294  -12.3142   19.4269 C   0  0  0  0  0  0
  -29.4993  -12.4667   18.2067 C   0  0  0  0  0  0
  -28.0216  -12.3305   18.6288 C   0  0  0  0  0  0
  -27.6625  -13.1968   19.8656 C   0  0  2  0  0  0
  -28.7007  -12.9976   20.9889 C   0  0  0  0  0  0
  -25.2644  -13.8155   20.5712 C   0  0  0  0  0  0
  -24.1870  -13.0450   20.9210 C   0  0  0  0  0  0
  -24.6386  -11.6900   20.8733 C   0  0  0  0  0  0
  -23.9039  -10.4304   21.0386 C   0  0  0  0  0  0
  -24.3591   -9.4225   21.9185 C   0  0  0  0  0  0
  -23.6292   -8.2250   22.0739 C   0  0  0  0  0  0
  -22.4271   -8.0280   21.3534 C   0  0  0  0  0  0
  -21.9886   -9.0242   20.4644 C   0  0  0  0  0  0
  -22.7199  -10.2138   20.3057 C   0  0  0  0  0  0
  -21.6813   -6.0751   22.5286 C   0  0  0  0  0  0
  -21.3994   -6.5657   23.8223 C   0  0  0  0  0  0
  -21.3666   -5.6805   24.9191 C   0  0  0  0  0  0
  -21.6055   -4.3076   24.7227 C   0  0  0  0  0  0
  -21.8817   -3.8160   23.4338 C   0  0  0  0  0  0
  -21.9189   -4.6986   22.3391 C   0  0  0  0  0  0
  -22.7892  -13.5261   21.1878 C   0  0  0  0  0  0
  -22.1658   -4.2181   21.0972 F   0  0  0  0  0  0
  -21.5626   -3.4559   25.7741 F   0  0  0  0  0  0
  -30.0264  -13.3113   20.4310 N   0  0  0  0  0  0
  -26.3033  -12.9284   20.3308 N   0  0  0  0  0  0
  -25.9314  -11.6476   20.5769 N   0  0  0  0  0  0
  -22.0478  -12.8287   22.0420 N   0  0  0  0  0  0
  -25.4436  -15.1870   20.4220 N   0  0  0  0  0  0
  -31.8349  -14.6617   20.1358 O   0  0  0  0  0  0
  -21.6608   -6.8886   21.4243 O   0  0  0  0  0  0
  -22.3607  -14.5581   20.6735 O   0  0  0  0  0  0
  -24.6142  -31.8693   23.2137 C   0  0  0  0  0  0
  -25.9046  -32.4829   23.8415 C   0  0  1  0  0  0
  -27.2226  -27.4323   20.0854 C   0  0  0  0  0  0
  -25.5909  -33.8627   24.2334 N   0  0  0  0  0  0
  -23.3994  -30.4981   21.5533 C   0  0  2  0  0  0
  -24.8385  -28.9643   20.1117 C   0  0  0  0  0  0
  -22.7392  -29.4692   22.4986 C   0  0  0  0  0  0
  -18.0271  -28.1404   22.8488 C   0  0  0  0  0  0
  -24.1485  -36.7322   23.2634 C   0  0  0  0  0  0
  -25.9280  -30.8316   21.3659 C   0  0  0  0  0  0
  -26.0006  -29.4669   20.7113 C   0  0  0  0  0  0
  -27.1917  -28.7067   20.6980 C   0  0  0  0  0  0
  -26.0394  -26.9465   19.4778 C   0  0  0  0  0  0
  -24.8520  -27.7023   19.4962 C   0  0  0  0  0  0
  -23.6037  -29.8348   20.1658 C   0  0  0  0  0  0
  -25.4107  -36.3117   24.0337 C   0  0  1  0  0  0
  -20.5861  -28.3694   23.1312 C   0  0  2  0  0  0
  -20.6770  -26.9431   22.5413 C   0  0  0  0  0  0
  -19.5748  -26.6408   21.5213 C   0  0  0  0  0  0
  -18.1928  -26.7953   22.1622 C   0  0  0  0  0  0
  -19.1519  -28.8858   23.2906 C   0  0  0  0  0  0
  -18.9458  -30.1464   23.8924 C   0  0  0  0  0  0
  -17.6464  -30.6604   24.0589 C   0  0  0  0  0  0
  -25.9032  -34.9482   23.5128 C   0  0  0  0  0  0
  -16.5351  -29.9122   23.6332 C   0  0  0  0  0  0
  -16.7264  -28.6542   23.0343 C   0  0  0  0  0  0
  -26.4467  -31.6622   25.0745 C   0  0  0  0  0  0
  -25.3752  -31.3763   26.1521 C   0  0  0  0  0  0
  -27.0269  -30.3057   24.6116 C   0  0  0  0  0  0
  -27.6051  -32.4335   25.7492 C   0  0  0  0  0  0
  -27.5582  -37.1818   24.8467 C   0  0  0  0  0  0
  -21.4124  -29.3079   22.3728 N   0  0  0  0  0  0
  -26.4300  -37.3799   23.9407 N   0  0  0  0  0  0
  -24.6661  -31.0797   22.1035 N   0  0  0  0  0  0
  -23.4168  -28.8223   23.3012 O   0  0  0  0  0  0
  -28.4026  -26.7086   20.0981 O   0  0  0  0  0  0
  -26.5582  -34.8930   22.4679 O   0  0  0  0  0  0
  -23.5331  -32.1448   23.7529 O   0  0  0  0  0  0
  -29.8314  -20.7613   19.6677 C   0  0  0  0  0  0
  -30.0034  -22.1583   19.5657 C   0  0  0  0  0  0
  -29.0250  -20.1816   20.6678 C   0  0  0  0  0  0
  -28.3797  -21.0437   21.5974 C   0  0  0  0  0  0
  -28.6124  -22.4515   21.5556 C   0  0  0  0  0  0
  -29.3976  -23.0265   20.5128 C   0  0  0  0  0  0
  -30.8381  -22.6874   18.4095 C   0  0  0  0  0  0
  -27.4121  -20.4783   22.6332 C   0  0  0  0  0  0
  -27.9971  -23.3453   22.6380 C   0  0  0  0  0  0
  -28.8653  -18.6460   20.6698 C   0  0  0  0  0  0
  -29.5744  -24.5576   20.4055 C   0  0  0  0  0  0
  -29.5416  -17.9118   21.8601 C   0  0  0  0  0  0
  -30.5771  -16.8155   21.4807 C   0  0  0  0  0  0
  -28.3088  -25.2883   19.9081 C   0  0  0  0  0  0
  -30.0080  -15.4963   21.1516 N   0  0  0  0  0  0
  -31.4709  -12.4259   19.1219 H   0  0  0  0  0  0
  -30.3488  -11.3099   19.8437 H   0  0  0  0  0  0
  -29.7446  -11.7047   17.4627 H   0  0  0  0  0  0
  -29.6682  -13.4329   17.7302 H   0  0  0  0  0  0
  -27.8477  -11.2789   18.8622 H   0  0  0  0  0  0
  -27.3627  -12.5637   17.7917 H   0  0  0  0  0  0
  -27.7063  -14.2388   19.5501 H   0  0  0  0  0  0
  -28.6852  -11.9630   21.3357 H   0  0  0  0  0  0
  -28.4578  -13.6041   21.8627 H   0  0  0  0  0  0
  -25.2715   -9.5714   22.4799 H   0  0  0  0  0  0
  -24.0021   -7.4640   22.7433 H   0  0  0  0  0  0
  -21.0811   -8.8713   19.8974 H   0  0  0  0  0  0
  -22.3597  -10.9679   19.6188 H   0  0  0  0  0  0
  -21.1967   -7.6163   23.9738 H   0  0  0  0  0  0
  -21.1481   -6.0525   25.9099 H   0  0  0  0  0  0
  -22.0600   -2.7628   23.2803 H   0  0  0  0  0  0
  -22.4026  -11.9957   22.4886 H   0  0  0  0  0  0
  -21.1088  -13.1359   22.2543 H   0  0  0  0  0  0
  -24.6986  -15.8517   20.5967 H   0  0  0  0  0  0
  -26.3032  -15.6262   20.1175 H   0  0  0  0  0  0
  -26.7112  -32.5517   23.1170 H   0  0  0  0  0  0
  -25.0114  -33.9804   25.0516 H   0  0  0  0  0  0
  -22.6896  -31.3187   21.4192 H   0  0  0  0  0  0
  -23.3736  -35.9671   23.3327 H   0  0  0  0  0  0
  -24.3577  -36.8893   22.2043 H   0  0  0  0  0  0
  -23.7260  -37.6548   23.6616 H   0  0  0  0  0  0
  -26.0378  -31.5971   20.5966 H   0  0  0  0  0  0
  -26.8192  -30.8834   21.9819 H   0  0  0  0  0  0
  -28.0866  -29.0855   21.1707 H   0  0  0  0  0  0
  -26.0102  -25.9885   18.9790 H   0  0  0  0  0  0
  -23.9562  -27.3146   19.0292 H   0  0  0  0  0  0
  -23.7139  -30.6133   19.4103 H   0  0  0  0  0  0
  -22.7237  -29.2615   19.8661 H   0  0  0  0  0  0
  -25.1283  -36.1988   25.0834 H   0  0  0  0  0  0
  -20.9953  -28.3267   24.1434 H   0  0  0  0  0  0
  -20.5678  -26.2307   23.3610 H   0  0  0  0  0  0
  -21.6644  -26.7497   22.1203 H   0  0  0  0  0  0
  -19.6917  -25.6319   21.1249 H   0  0  0  0  0  0
  -19.6690  -27.3219   20.6747 H   0  0  0  0  0  0
  -17.4196  -26.6692   21.4032 H   0  0  0  0  0  0
  -18.0339  -26.0102   22.9025 H   0  0  0  0  0  0
  -19.7941  -30.7272   24.2297 H   0  0  0  0  0  0
  -17.5035  -31.6284   24.5202 H   0  0  0  0  0  0
  -15.5359  -30.3049   23.7652 H   0  0  0  0  0  0
  -15.8662  -28.0894   22.7031 H   0  0  0  0  0  0
  -24.5893  -30.7126   25.7903 H   0  0  0  0  0  0
  -24.8991  -32.2940   26.4988 H   0  0  0  0  0  0
  -25.8125  -30.8939   27.0276 H   0  0  0  0  0  0
  -26.2801  -29.6859   24.1141 H   0  0  0  0  0  0
  -27.3996  -29.7255   25.4570 H   0  0  0  0  0  0
  -27.8664  -30.4365   23.9284 H   0  0  0  0  0  0
  -27.2670  -33.3607   26.2141 H   0  0  0  0  0  0
  -28.3828  -32.6954   25.0303 H   0  0  0  0  0  0
  -28.0774  -31.8436   26.5361 H   0  0  0  0  0  0
  -28.2625  -38.0088   24.7477 H   0  0  0  0  0  0
  -28.1044  -36.2620   24.6325 H   0  0  0  0  0  0
  -27.2298  -37.1525   25.8870 H   0  0  0  0  0  0
  -20.9262  -29.8831   21.6994 H   0  0  0  0  0  0
  -26.0184  -38.2874   24.1411 H   0  0  0  0  0  0
  -30.3045  -20.1168   18.9396 H   0  0  0  0  0  0
  -31.0788  -21.8991   17.6941 H   0  0  0  0  0  0
  -31.7827  -23.0965   18.7694 H   0  0  0  0  0  0
  -30.3041  -23.4657   17.8628 H   0  0  0  0  0  0
  -27.0236  -19.4993   22.3678 H   0  0  0  0  0  0
  -26.5364  -21.1214   22.7317 H   0  0  0  0  0  0
  -27.8918  -20.4008   23.6076 H   0  0  0  0  0  0
  -27.8841  -22.8230   23.5873 H   0  0  0  0  0  0
  -27.0107  -23.6965   22.3356 H   0  0  0  0  0  0
  -28.6076  -24.2157   22.8735 H   0  0  0  0  0  0
  -29.2660  -18.2518   19.7358 H   0  0  0  0  0  0
  -27.8082  -18.3797   20.6300 H   0  0  0  0  0  0
  -30.4014  -24.8198   19.7487 H   0  0  0  0  0  0
  -29.8849  -24.9631   21.3671 H   0  0  0  0  0  0
  -28.7801  -17.4966   22.5223 H   0  0  0  0  0  0
  -30.0535  -18.6584   22.4709 H   0  0  0  0  0  0
  -31.2444  -16.6600   22.3306 H   0  0  0  0  0  0
  -31.2183  -17.1815   20.6755 H   0  0  0  0  0  0
  -27.4483  -24.9080   20.4602 H   0  0  0  0  0  0
  -28.1460  -25.0528   18.8547 H   0  0  0  0  0  0
  -29.0506  -15.3153   21.4177 H   0  0  0  0  0  0
  1 25  1  0  0  0
  1 30  2  0  0  0
  1 85  1  0  0  0
  2  3  1  0  0  0
  2 25  1  0  0  0
  2 86  1  0  0  0
  2 87  1  0  0  0
  3  4  1  0  0  0
  3 88  1  0  0  0
  3 89  1  0  0  0
  4  5  1  0  0  0
  4 90  1  0  0  0
  4 91  1  0  0  0
  5  6  1  0  0  0
  5 26  1  0  0  0
  5 92  1  0  0  0
  6 25  1  0  0  0
  6 93  1  0  0  0
  6 94  1  0  0  0
  7  8  2  0  0  0
  7 26  1  0  0  0
  7 29  1  0  0  0
  8  9  1  0  0  0
  8 22  1  0  0  0
  9 10  1  0  0  0
  9 27  2  0  0  0
 10 11  2  0  0  0
 10 15  1  0  0  0
 11 12  1  0  0  0
 11 95  1  0  0  0
 12 13  2  0  0  0
 12 96  1  0  0  0
 13 14  1  0  0  0
 13 31  1  0  0  0
 14 15  2  0  0  0
 14 97  1  0  0  0
 15 98  1  0  0  0
 16 17  2  0  0  0
 16 21  1  0  0  0
 16 31  1  0  0  0
 17 18  1  0  0  0
 17 99  1  0  0  0
 18 19  2  0  0  0
 18100  1  0  0  0
 19 20  1  0  0  0
 19 24  1  0  0  0
 20 21  2  0  0  0
 20101  1  0  0  0
 21 23  1  0  0  0
 22 28  1  0  0  0
 22 32  2  0  0  0
 26 27  1  0  0  0
 28102  1  0  0  0
 28103  1  0  0  0
 29104  1  0  0  0
 29105  1  0  0  0
 33 34  1  0  0  0
 33 66  1  0  0  0
 33 70  2  0  0  0
 34 36  1  0  0  0
 34 59  1  0  0  0
 34106  1  0  0  0
 35 44  2  0  0  0
 35 45  1  0  0  0
 35 68  1  0  0  0
 36 56  1  0  0  0
 36107  1  0  0  0
 37 39  1  0  0  0
 37 47  1  0  0  0
 37 66  1  0  0  0
 37108  1  0  0  0
 38 43  2  0  0  0
 38 46  1  0  0  0
 38 47  1  0  0  0
 39 64  1  0  0  0
 39 67  2  0  0  0
 40 52  1  0  0  0
 40 53  2  0  0  0
 40 58  1  0  0  0
 41109  1  0  0  0
 41110  1  0  0  0
 41111  1  0  0  0
 41 48  1  0  0  0
 42 43  1  0  0  0
 42 66  1  0  0  0
 42112  1  0  0  0
 42113  1  0  0  0
 43 44  1  0  0  0
 44114  1  0  0  0
 45 46  2  0  0  0
 45115  1  0  0  0
 46116  1  0  0  0
 47117  1  0  0  0
 47118  1  0  0  0
 48 56  1  0  0  0
 48 65  1  0  0  0
 48119  1  0  0  0
 49 50  1  0  0  0
 49 53  1  0  0  0
 49 64  1  0  0  0
 49120  1  0  0  0
 50 51  1  0  0  0
 50121  1  0  0  0
 50122  1  0  0  0
 51 52  1  0  0  0
 51123  1  0  0  0
 51124  1  0  0  0
 52125  1  0  0  0
 52126  1  0  0  0
 53 54  1  0  0  0
 54 55  2  0  0  0
 54127  1  0  0  0
 55 57  1  0  0  0
 55128  1  0  0  0
 56 69  2  0  0  0
 57 58  2  0  0  0
 57129  1  0  0  0
 58130  1  0  0  0
 59 60  1  0  0  0
 59 61  1  0  0  0
 59 62  1  0  0  0
 60131  1  0  0  0
 60132  1  0  0  0
 60133  1  0  0  0
 61134  1  0  0  0
 61135  1  0  0  0
 61136  1  0  0  0
 62137  1  0  0  0
 62138  1  0  0  0
 62139  1  0  0  0
 63 65  1  0  0  0
 63140  1  0  0  0
 63141  1  0  0  0
 63142  1  0  0  0
 64143  1  0  0  0
 65144  1  0  0  0
 68 84  1  0  0  0
 71 72  2  0  0  0
 71 73  1  0  0  0
 71145  1  0  0  0
 72 76  1  0  0  0
 72 77  1  0  0  0
 73 74  2  0  0  0
 73 80  1  0  0  0
 74 75  1  0  0  0
 74 78  1  0  0  0
 75 76  2  0  0  0
 75 79  1  0  0  0
 76 81  1  0  0  0
 77146  1  0  0  0
 77147  1  0  0  0
 77148  1  0  0  0
 78149  1  0  0  0
 78150  1  0  0  0
 78151  1  0  0  0
 79152  1  0  0  0
 79153  1  0  0  0
 79154  1  0  0  0
 80 82  1  0  0  0
 80155  1  0  0  0
 80156  1  0  0  0
 81 84  1  0  0  0
 81157  1  0  0  0
 81158  1  0  0  0
 82 83  1  0  0  0
 82159  1  0  0  0
 82160  1  0  0  0
 83 85  1  0  0  0
 83161  1  0  0  0
 83162  1  0  0  0
 84163  1  0  0  0
 84164  1  0  0  0
 85165  1  0  0  0
M  ISO  4   1 100  68 101  84 101  85 100
M  END
> <chiral flag>
0

> <version>
0

> <s_m_source_file>
/data/baiqing/PycharmProjects/Reinvent-master-3.2/result/LINK_invent/BTK/process_docking_weight1_custom_sum_contain_oxygen_bond_distance_aromatic_linkinvent_7_9_3/rearranged_h_0031.sdf

> <i_m_source_file_index>
62

> <r_mmod_Potential_Energy-OPLS-2005>
-71.5613403320312

> <r_mmod_Stretch_Energy-OPLS-2005>
42.9632453918457

> <r_mmod_Bend_Energy-OPLS-2005>
98.7201690673828

> <r_mmod_Torsional_Energy-OPLS-2005>
216.361373901367

> <r_mmod_Improper_Torsional_Energy-OPLS-2005>
2.35700583457947

> <r_mmod_Van_der_Waal_Energy-OPLS-2005>
166.228698730469

> <r_mmod_Electrostatic_Energy-OPLS-2005>
-409.267791748047

> <r_mmod_Solvation_Energy-OPLS-2005>
-204.319808959961

> <b_mmod_Minimization_Converged-OPLS-2005>
0

> <r_mmod_RMS_Derivative-OPLS-2005>
3.62256073951721

$$$$
62
                    3D
 Structure written by MMmdl.
169178  0  0  1  0            999 V2000
  -30.8223  -14.9620   20.5242 C   0  0  0  0  0  0
  -30.4778  -12.6219   19.5505 C   0  0  0  0  0  0
  -29.5364  -12.5083   18.3139 C   0  0  0  0  0  0
  -28.1006  -12.2464   18.7778 C   0  0  0  0  0  0
  -27.6929  -13.2535   19.8775 C   0  0  2  0  0  0
  -28.7707  -13.3827   21.0119 C   0  0  0  0  0  0
  -25.2738  -13.8225   20.5826 C   0  0  0  0  0  0
  -24.1947  -13.0393   20.9315 C   0  0  0  0  0  0
  -24.6575  -11.6964   20.8764 C   0  0  0  0  0  0
  -23.9163  -10.4328   21.0380 C   0  0  0  0  0  0
  -24.3621   -9.4234   21.9172 C   0  0  0  0  0  0
  -23.6275   -8.2248   22.0741 C   0  0  0  0  0  0
  -22.4266   -8.0281   21.3543 C   0  0  0  0  0  0
  -21.9932   -9.0259   20.4649 C   0  0  0  0  0  0
  -22.7304  -10.2161   20.3071 C   0  0  0  0  0  0
  -21.6839   -6.0737   22.5273 C   0  0  0  0  0  0
  -21.4017   -6.5641   23.8204 C   0  0  0  0  0  0
  -21.3666   -5.6794   24.9173 C   0  0  0  0  0  0
  -21.6049   -4.3055   24.7233 C   0  0  0  0  0  0
  -21.8820   -3.8148   23.4356 C   0  0  0  0  0  0
  -21.9194   -4.6966   22.3407 C   0  0  0  0  0  0
  -22.8020  -13.5299   21.1787 C   0  0  0  0  0  0
  -22.1658   -4.2146   21.0979 F   0  0  0  0  0  0
  -21.5632   -3.4540   25.7738 F   0  0  0  0  0  0
  -30.0695  -13.7807   20.4264 N   0  0  0  0  0  0
  -26.3288  -12.9458   20.3580 N   0  0  0  0  0  0
  -25.9577  -11.6558   20.5976 N   0  0  0  0  0  0
  -22.0602  -12.8267   22.0335 N   0  0  0  0  0  0
  -25.4477  -15.1859   20.4194 N   0  0  0  0  0  0
  -31.9057  -14.9513   19.9341 O   0  0  0  0  0  0
  -21.6639   -6.8875   21.4245 O   0  0  0  0  0  0
  -22.3731  -14.5571   20.6682 O   0  0  0  0  0  0
  -24.6187  -31.8518   23.1861 C   0  0  0  0  0  0
  -25.9283  -32.4647   23.8458 C   0  0  1  0  0  0
  -27.2773  -27.3482   20.1044 C   0  0  0  0  0  0
  -25.6060  -33.8439   24.2431 N   0  0  0  0  0  0
  -23.4168  -30.4781   21.4933 C   0  0  2  0  0  0
  -24.8625  -28.8532   20.1074 C   0  0  0  0  0  0
  -22.7391  -29.4645   22.4379 C   0  0  0  0  0  0
  -18.0386  -28.1326   22.8368 C   0  0  0  0  0  0
  -24.1813  -36.7280   23.2571 C   0  0  0  0  0  0
  -25.9259  -30.7879   21.2867 C   0  0  0  0  0  0
  -26.0488  -29.3639   20.7283 C   0  0  0  0  0  0
  -27.2279  -28.5953   20.7792 C   0  0  0  0  0  0
  -26.0716  -26.8826   19.4859 C   0  0  0  0  0  0
  -24.8675  -27.6155   19.4765 C   0  0  0  0  0  0
  -23.6704  -29.7652   20.1364 C   0  0  0  0  0  0
  -25.4204  -36.2422   24.0375 C   0  0  1  0  0  0
  -20.5851  -28.3935   23.1151 C   0  0  2  0  0  0
  -20.6861  -26.9593   22.5397 C   0  0  0  0  0  0
  -19.5977  -26.6478   21.5053 C   0  0  0  0  0  0
  -18.2228  -26.7878   22.1512 C   0  0  0  0  0  0
  -19.1503  -28.8878   23.2841 C   0  0  0  0  0  0
  -18.9483  -30.1533   23.8786 C   0  0  0  0  0  0
  -17.6502  -30.6672   24.0538 C   0  0  0  0  0  0
  -25.9070  -34.9061   23.5072 C   0  0  0  0  0  0
  -16.5449  -29.9210   23.6253 C   0  0  0  0  0  0
  -16.7395  -28.6591   23.0243 C   0  0  0  0  0  0
  -26.4371  -31.6425   25.1027 C   0  0  0  0  0  0
  -25.3662  -31.4219   26.1881 C   0  0  0  0  0  0
  -27.0109  -30.2588   24.6721 C   0  0  0  0  0  0
  -27.5877  -32.3991   25.8223 C   0  0  0  0  0  0
  -27.5606  -37.1698   24.8428 C   0  0  0  0  0  0
  -21.3828  -29.3496   22.3383 N   0  0  0  0  0  0
  -26.4159  -37.3274   23.9508 N   0  0  0  0  0  0
  -24.6812  -31.0634   22.0572 N   0  0  0  0  0  0
  -23.3874  -28.7540   23.2306 O   0  0  0  0  0  0
  -28.3847  -26.5380   20.2707 O   0  0  0  0  0  0
  -26.5392  -34.8254   22.4468 O   0  0  0  0  0  0
  -23.5659  -32.1425   23.7139 O   0  0  0  0  0  0
  -31.4843  -21.4978   21.5349 C   0  0  0  0  0  0
  -29.3720  -21.3461   22.6069 C   0  0  0  0  0  0
  -31.3935  -22.9871   21.6681 C   0  0  0  0  0  0
  -30.3857  -20.5991   21.9403 C   0  0  0  0  0  0
  -29.4429  -22.7170   22.9871 C   0  0  0  0  0  0
  -30.5404  -23.5349   22.6560 C   0  0  0  0  0  0
  -30.0943  -23.6152   19.5215 C   0  0  0  0  0  0
  -31.7391  -25.4511   20.3820 C   0  0  0  0  0  0
  -29.4626  -24.7939   18.6676 C   0  0  0  0  0  0
  -30.7653  -26.6234   19.8784 C   0  0  0  0  0  0
  -31.4211  -23.8651   20.3367 C   0  0  2  0  0  0
  -29.3802  -26.2564   19.2694 C   0  0  2  0  0  0
  -28.2256  -23.3771   23.6694 C   0  0  0  0  0  0
  -30.8688  -24.9408   23.3030 C   0  0  0  0  0  0
  -30.1762  -18.9645   21.9377 C   0  0  0  0  0  0
  -30.5699  -17.7220   20.8781 C   0  0  0  0  0  0
  -30.4540  -16.1515   21.2356 N   0  0  0  0  0  0
  -31.5136  -12.6447   19.2017 H   0  0  0  0  0  0
  -30.3975  -11.6994   20.1250 H   0  0  0  0  0  0
  -29.8618  -11.6814   17.6649 H   0  0  0  0  0  0
  -29.5880  -13.4093   17.6823 H   0  0  0  0  0  0
  -28.0916  -11.2550   19.1990 H   0  0  0  0  0  0
  -27.3941  -12.2211   17.9475 H   0  0  0  0  0  0
  -27.6178  -14.2169   19.3653 H   0  0  0  0  0  0
  -28.8958  -12.4337   21.5242 H   0  0  0  0  0  0
  -28.4652  -14.1057   21.7590 H   0  0  0  0  0  0
  -25.2750   -9.5670   22.4794 H   0  0  0  0  0  0
  -23.9988   -7.4633   22.7489 H   0  0  0  0  0  0
  -21.0844   -8.8793   19.8930 H   0  0  0  0  0  0
  -22.3733  -10.9683   19.6170 H   0  0  0  0  0  0
  -21.1998   -7.6145   23.9727 H   0  0  0  0  0  0
  -21.1484   -6.0514   25.9087 H   0  0  0  0  0  0
  -22.0591   -2.7603   23.2852 H   0  0  0  0  0  0
  -22.4148  -11.9899   22.4702 H   0  0  0  0  0  0
  -21.1215  -13.1316   22.2488 H   0  0  0  0  0  0
  -24.6929  -15.8578   20.5218 H   0  0  0  0  0  0
  -26.3346  -15.6073   20.1472 H   0  0  0  0  0  0
  -26.7855  -32.5350   23.1734 H   0  0  0  0  0  0
  -25.0929  -33.9982   25.0874 H   0  0  0  0  0  0
  -22.7345  -31.3218   21.3508 H   0  0  0  0  0  0
  -23.3542  -36.0090   23.2813 H   0  0  0  0  0  0
  -24.3881  -36.9301   22.1956 H   0  0  0  0  0  0
  -23.8240  -37.6690   23.7061 H   0  0  0  0  0  0
  -25.8999  -31.3275   20.3241 H   0  0  0  0  0  0
  -26.8647  -31.0815   21.7304 H   0  0  0  0  0  0
  -28.0720  -28.9314   21.3500 H   0  0  0  0  0  0
  -25.9615  -25.9092   19.0058 H   0  0  0  0  0  0
  -23.9205  -27.2578   19.0614 H   0  0  0  0  0  0
  -23.8484  -30.5608   19.3989 H   0  0  0  0  0  0
  -22.8068  -29.2378   19.7100 H   0  0  0  0  0  0
  -25.1361  -36.0865   25.0939 H   0  0  0  0  0  0
  -21.0312  -28.3988   24.1065 H   0  0  0  0  0  0
  -20.5896  -26.2608   23.3627 H   0  0  0  0  0  0
  -21.6814  -26.7792   22.1063 H   0  0  0  0  0  0
  -19.7381  -25.6354   21.1256 H   0  0  0  0  0  0
  -19.6939  -27.3098   20.6331 H   0  0  0  0  0  0
  -17.4367  -26.6482   21.4062 H   0  0  0  0  0  0
  -18.1039  -26.0108   22.9011 H   0  0  0  0  0  0
  -19.8094  -30.7449   24.2029 H   0  0  0  0  0  0
  -17.5235  -31.6274   24.5273 H   0  0  0  0  0  0
  -15.5557  -30.3009   23.7881 H   0  0  0  0  0  0
  -15.8688  -28.0884   22.6944 H   0  0  0  0  0  0
  -24.5705  -30.7461   25.8875 H   0  0  0  0  0  0
  -24.8814  -32.3438   26.5029 H   0  0  0  0  0  0
  -25.7955  -31.0065   27.0907 H   0  0  0  0  0  0
  -26.2216  -29.6098   24.2852 H   0  0  0  0  0  0
  -27.3726  -29.7799   25.5717 H   0  0  0  0  0  0
  -27.8833  -30.2896   23.9954 H   0  0  0  0  0  0
  -27.2441  -33.3029   26.3250 H   0  0  0  0  0  0
  -28.3915  -32.6596   25.1420 H   0  0  0  0  0  0
  -28.0183  -31.7883   26.6107 H   0  0  0  0  0  0
  -28.2154  -38.0300   24.7089 H   0  0  0  0  0  0
  -28.1501  -36.2732   24.6455 H   0  0  0  0  0  0
  -27.2416  -37.1534   25.8841 H   0  0  0  0  0  0
  -20.8592  -29.9261   21.6583 H   0  0  0  0  0  0
  -25.9755  -38.2379   24.0927 H   0  0  0  0  0  0
  -32.4402  -21.0697   21.2532 H   0  0  0  0  0  0
  -28.5483  -20.8499   23.0942 H   0  0  0  0  0  0
  -30.3631  -22.8585   18.7659 H   0  0  0  0  0  0
  -29.3292  -23.1649   20.1556 H   0  0  0  0  0  0
  -32.3322  -25.7546   21.2250 H   0  0  0  0  0  0
  -32.5310  -25.5162   19.5945 H   0  0  0  0  0  0
  -28.4866  -24.5047   18.3052 H   0  0  0  0  0  0
  -30.0575  -24.8218   17.7485 H   0  0  0  0  0  0
  -31.3640  -27.1082   19.0725 H   0  0  0  0  0  0
  -30.7239  -27.4721   20.6262 H   0  0  0  0  0  0
  -32.2279  -23.4152   19.7782 H   0  0  0  0  0  0
  -29.1644  -27.0359   18.5446 H   0  0  0  0  0  0
  -27.3756  -22.6729   23.8554 H   0  0  0  0  0  0
  -27.9270  -24.1521   22.9792 H   0  0  0  0  0  0
  -28.5449  -23.9454   24.5509 H   0  0  0  0  0  0
  -30.4424  -25.8459   22.9159 H   0  0  0  0  0  0
  -31.9728  -25.1196   23.3177 H   0  0  0  0  0  0
  -30.6173  -24.9462   24.3443 H   0  0  0  0  0  0
  -29.1118  -18.8647   22.1563 H   0  0  0  0  0  0
  -30.6393  -18.6353   22.8751 H   0  0  0  0  0  0
  -31.6003  -17.9361   20.6900 H   0  0  0  0  0  0
  -30.1041  -17.9128   19.8984 H   0  0  0  0  0  0
  -30.9235  -16.1154   22.1268 H   0  0  0  0  0  0
  1 25  1  0  0  0
  1 30  2  0  0  0
  1 87  1  0  0  0
  2  3  1  0  0  0
  2 25  1  0  0  0
  2 88  1  0  0  0
  2 89  1  0  0  0
  3  4  1  0  0  0
  3 90  1  0  0  0
  3 91  1  0  0  0
  4  5  1  0  0  0
  4 92  1  0  0  0
  4 93  1  0  0  0
  5  6  1  0  0  0
  5 26  1  0  0  0
  5 94  1  0  0  0
  6 25  1  0  0  0
  6 95  1  0  0  0
  6 96  1  0  0  0
  7  8  2  0  0  0
  7 26  1  0  0  0
  7 29  1  0  0  0
  8  9  1  0  0  0
  8 22  1  0  0  0
  9 10  1  0  0  0
  9 27  2  0  0  0
 10 11  2  0  0  0
 10 15  1  0  0  0
 11 12  1  0  0  0
 11 97  1  0  0  0
 12 13  2  0  0  0
 12 98  1  0  0  0
 13 14  1  0  0  0
 13 31  1  0  0  0
 14 15  2  0  0  0
 14 99  1  0  0  0
 15100  1  0  0  0
 16 17  2  0  0  0
 16 21  1  0  0  0
 16 31  1  0  0  0
 17 18  1  0  0  0
 17101  1  0  0  0
 18 19  2  0  0  0
 18102  1  0  0  0
 19 20  1  0  0  0
 19 24  1  0  0  0
 20 21  2  0  0  0
 20103  1  0  0  0
 21 23  1  0  0  0
 22 28  1  0  0  0
 22 32  2  0  0  0
 26 27  1  0  0  0
 28104  1  0  0  0
 28105  1  0  0  0
 29106  1  0  0  0
 29107  1  0  0  0
 33 34  1  0  0  0
 33 66  1  0  0  0
 33 70  2  0  0  0
 34 36  1  0  0  0
 34 59  1  0  0  0
 34108  1  0  0  0
 35 44  2  0  0  0
 35 45  1  0  0  0
 35 68  1  0  0  0
 36 56  1  0  0  0
 36109  1  0  0  0
 37 39  1  0  0  0
 37 47  1  0  0  0
 37 66  1  0  0  0
 37110  1  0  0  0
 38 43  2  0  0  0
 38 46  1  0  0  0
 38 47  1  0  0  0
 39 64  1  0  0  0
 39 67  2  0  0  0
 40 52  1  0  0  0
 40 53  2  0  0  0
 40 58  1  0  0  0
 41111  1  0  0  0
 41112  1  0  0  0
 41113  1  0  0  0
 41 48  1  0  0  0
 42 43  1  0  0  0
 42 66  1  0  0  0
 42114  1  0  0  0
 42115  1  0  0  0
 43 44  1  0  0  0
 44116  1  0  0  0
 45 46  2  0  0  0
 45117  1  0  0  0
 46118  1  0  0  0
 47119  1  0  0  0
 47120  1  0  0  0
 48 56  1  0  0  0
 48 65  1  0  0  0
 48121  1  0  0  0
 49 50  1  0  0  0
 49 53  1  0  0  0
 49 64  1  0  0  0
 49122  1  0  0  0
 50 51  1  0  0  0
 50123  1  0  0  0
 50124  1  0  0  0
 51 52  1  0  0  0
 51125  1  0  0  0
 51126  1  0  0  0
 52127  1  0  0  0
 52128  1  0  0  0
 53 54  1  0  0  0
 54 55  2  0  0  0
 54129  1  0  0  0
 55 57  1  0  0  0
 55130  1  0  0  0
 56 69  2  0  0  0
 57 58  2  0  0  0
 57131  1  0  0  0
 58132  1  0  0  0
 59 60  1  0  0  0
 59 61  1  0  0  0
 59 62  1  0  0  0
 60133  1  0  0  0
 60134  1  0  0  0
 60135  1  0  0  0
 61136  1  0  0  0
 61137  1  0  0  0
 61138  1  0  0  0
 62139  1  0  0  0
 62140  1  0  0  0
 62141  1  0  0  0
 63 65  1  0  0  0
 63142  1  0  0  0
 63143  1  0  0  0
 63144  1  0  0  0
 64145  1  0  0  0
 65146  1  0  0  0
 68 82  1  0  0  0
 71 73  2  0  0  0
 71 74  1  0  0  0
 71147  1  0  0  0
 72 74  2  0  0  0
 72 75  1  0  0  0
 72148  1  0  0  0
 73 76  1  0  0  0
 73 81  1  0  0  0
 74 85  1  0  0  0
 75 76  2  0  0  0
 75 83  1  0  0  0
 76 84  1  0  0  0
 77 79  1  0  0  0
 77 81  1  0  0  0
 77149  1  0  0  0
 77150  1  0  0  0
 78 80  1  0  0  0
 78 81  1  0  0  0
 78151  1  0  0  0
 78152  1  0  0  0
 79 82  1  0  0  0
 79153  1  0  0  0
 79154  1  0  0  0
 80 82  1  0  0  0
 80155  1  0  0  0
 80156  1  0  0  0
 81157  1  0  0  0
 82158  1  0  0  0
 83159  1  0  0  0
 83160  1  0  0  0
 83161  1  0  0  0
 84162  1  0  0  0
 84163  1  0  0  0
 84164  1  0  0  0
 85 86  1  0  0  0
 85165  1  0  0  0
 85166  1  0  0  0
 86 87  1  0  0  0
 86167  1  0  0  0
 86168  1  0  0  0
 87169  1  0  0  0
M  ISO  4   1 100  68 101  82 101  87 100
M  END
> <chiral flag>
0

> <version>
0

> <s_m_source_file>
/data/baiqing/PycharmProjects/Reinvent-master-3.2/result/LINK_invent/BTK/process_docking_weight1_custom_sum_contain_oxygen_bond_distance_aromatic_linkinvent_7_9_3/rearranged_h_0031.sdf

> <i_m_source_file_index>
63

> <r_mmod_Potential_Energy-OPLS-2005>
891.216857910156

> <r_mmod_Stretch_Energy-OPLS-2005>
267.227905273438

> <r_mmod_Bend_Energy-OPLS-2005>
427.005279541016

> <r_mmod_Torsional_Energy-OPLS-2005>
499.563873291016

> <r_mmod_Improper_Torsional_Energy-OPLS-2005>
21.7676315307617

> <r_mmod_Van_der_Waal_Energy-OPLS-2005>
131.759124755859

> <r_mmod_Electrostatic_Energy-OPLS-2005>
-418.965576171875

> <r_mmod_Solvation_Energy-OPLS-2005>
-202.577011108398

> <b_mmod_Minimization_Converged-OPLS-2005>
0

> <r_mmod_RMS_Derivative-OPLS-2005>
61.3294868469238

$$$$
63
                    3D
 Structure written by MMmdl.
148157  0  0  1  0            999 V2000
  -30.2964  -15.6126   20.2942 C   0  0  0  0  0  0
  -30.4340  -13.0526   19.5470 C   0  0  0  0  0  0
  -29.5570  -12.6434   18.3273 C   0  0  0  0  0  0
  -28.1286  -12.2830   18.7664 C   0  0  0  0  0  0
  -27.5952  -13.2933   19.8048 C   0  0  2  0  0  0
  -28.6078  -13.6361   20.9199 C   0  0  0  0  0  0
  -25.2336  -13.8229   20.5826 C   0  0  0  0  0  0
  -24.1699  -13.0392   20.9251 C   0  0  0  0  0  0
  -24.6394  -11.6907   20.8733 C   0  0  0  0  0  0
  -23.9096  -10.4273   21.0386 C   0  0  0  0  0  0
  -24.3637   -9.4195   21.9174 C   0  0  0  0  0  0
  -23.6301   -8.2238   22.0753 C   0  0  0  0  0  0
  -22.4282   -8.0276   21.3544 C   0  0  0  0  0  0
  -21.9922   -9.0246   20.4642 C   0  0  0  0  0  0
  -22.7262  -10.2117   20.3041 C   0  0  0  0  0  0
  -21.6855   -6.0734   22.5281 C   0  0  0  0  0  0
  -21.4016   -6.5639   23.8214 C   0  0  0  0  0  0
  -21.3663   -5.6790   24.9176 C   0  0  0  0  0  0
  -21.6045   -4.3053   24.7225 C   0  0  0  0  0  0
  -21.8817   -3.8145   23.4346 C   0  0  0  0  0  0
  -21.9193   -4.6963   22.3403 C   0  0  0  0  0  0
  -22.7721  -13.5148   21.1911 C   0  0  0  0  0  0
  -22.1661   -4.2149   21.0980 F   0  0  0  0  0  0
  -21.5630   -3.4536   25.7738 F   0  0  0  0  0  0
  -29.8025  -14.2361   20.2823 N   0  0  0  0  0  0
  -26.2771  -12.9542   20.3213 N   0  0  0  0  0  0
  -25.9337  -11.6625   20.5665 N   0  0  0  0  0  0
  -22.0390  -12.8132   22.0470 N   0  0  0  0  0  0
  -25.3915  -15.1981   20.4470 N   0  0  0  0  0  0
  -31.5357  -15.5615   20.1918 O   0  0  0  0  0  0
  -21.6639   -6.8877   21.4245 O   0  0  0  0  0  0
  -22.3402  -14.5457   20.6763 O   0  0  0  0  0  0
  -24.6834  -31.8010   23.1528 C   0  0  0  0  0  0
  -25.9416  -32.4475   23.8074 C   0  0  1  0  0  0
  -27.2293  -26.7161   20.2114 C   0  0  0  0  0  0
  -25.5998  -33.8301   24.1960 N   0  0  0  0  0  0
  -23.5094  -30.4041   21.5065 C   0  0  2  0  0  0
  -24.9676  -28.7483   20.1191 C   0  0  0  0  0  0
  -22.7769  -29.4324   22.4709 C   0  0  0  0  0  0
  -18.0342  -28.1423   22.8456 C   0  0  0  0  0  0
  -24.1495  -36.7159   23.2653 C   0  0  0  0  0  0
  -26.0900  -30.5391   21.4154 C   0  0  0  0  0  0
  -26.1572  -29.1050   20.7652 C   0  0  0  0  0  0
  -27.2748  -28.1175   20.7776 C   0  0  0  0  0  0
  -26.0054  -26.5668   19.5100 C   0  0  0  0  0  0
  -24.9300  -27.5040   19.4680 C   0  0  0  0  0  0
  -23.7638  -29.7028   20.1417 C   0  0  0  0  0  0
  -25.4144  -36.2899   24.0281 C   0  0  1  0  0  0
  -20.5977  -28.3787   23.1140 C   0  0  2  0  0  0
  -20.6811  -26.9446   22.5402 C   0  0  0  0  0  0
  -19.5785  -26.6374   21.5218 C   0  0  0  0  0  0
  -18.1967  -26.7951   22.1619 C   0  0  0  0  0  0
  -19.1607  -28.8928   23.2780 C   0  0  0  0  0  0
  -18.9511  -30.1510   23.8826 C   0  0  0  0  0  0
  -17.6500  -30.6605   24.0553 C   0  0  0  0  0  0
  -25.9123  -34.9288   23.4956 C   0  0  0  0  0  0
  -16.5391  -29.9087   23.6349 C   0  0  0  0  0  0
  -16.7322  -28.6510   23.0365 C   0  0  0  0  0  0
  -26.4596  -31.6504   25.0690 C   0  0  0  0  0  0
  -25.3662  -31.3818   26.1307 C   0  0  0  0  0  0
  -27.0526  -30.2842   24.6580 C   0  0  0  0  0  0
  -27.6046  -32.4365   25.7508 C   0  0  0  0  0  0
  -27.5562  -37.1738   24.8466 C   0  0  0  0  0  0
  -21.4416  -29.3035   22.3461 N   0  0  0  0  0  0
  -26.4272  -37.3655   23.9402 N   0  0  0  0  0  0
  -24.7844  -30.9471   22.0776 N   0  0  0  0  0  0
  -23.4216  -28.7920   23.3047 O   0  0  0  0  0  0
  -28.1874  -25.4960   20.2756 O   0  0  0  0  0  0
  -26.5761  -34.8863   22.4571 O   0  0  0  0  0  0
  -23.5853  -32.1078   23.6484 O   0  0  0  0  0  0
  -28.0944  -17.2120   19.5865 C   0  0  0  0  0  0
  -29.3957  -17.2078   20.1774 C   0  0  0  0  0  0
  -29.4976  -18.7798   20.3466 C   0  0  0  0  0  0
  -27.4679  -18.4481   19.4452 C   0  0  0  0  0  0
  -29.8634  -21.4384   20.7191 C   0  0  0  0  0  0
  -30.2615  -20.0083   20.7601 C   0  0  0  0  0  0
  -28.5971  -22.0608   20.2320 C   0  0  0  0  0  0
  -26.1146  -18.7141   18.8652 C   0  0  0  0  0  0
  -27.8560  -23.7812   20.1851 C   0  0  0  0  0  0
  -27.8359  -20.9576   19.8260 N   0  0  0  0  0  0
  -28.2838  -19.4968   19.8947 N   0  0  0  0  0  0
  -31.8383  -19.7045   21.3958 Cl  0  0  0  0  0  0
  -31.4307  -13.3112   19.1874 H   0  0  0  0  0  0
  -30.5829  -12.2068   20.2202 H   0  0  0  0  0  0
  -30.0100  -11.8071   17.7932 H   0  0  0  0  0  0
  -29.5194  -13.4746   17.6216 H   0  0  0  0  0  0
  -28.1561  -11.2866   19.2088 H   0  0  0  0  0  0
  -27.4627  -12.2208   17.9049 H   0  0  0  0  0  0
  -27.4493  -14.1971   19.2195 H   0  0  0  0  0  0
  -28.8525  -12.7613   21.5242 H   0  0  0  0  0  0
  -28.1754  -14.3689   21.6028 H   0  0  0  0  0  0
  -25.2778   -9.5676   22.4753 H   0  0  0  0  0  0
  -24.0004   -7.4633   22.7481 H   0  0  0  0  0  0
  -21.0849   -8.8769   19.8950 H   0  0  0  0  0  0
  -22.3720  -10.9654   19.6149 H   0  0  0  0  0  0
  -21.2007   -7.6146   23.9718 H   0  0  0  0  0  0
  -21.1489   -6.0521   25.9080 H   0  0  0  0  0  0
  -22.0593   -2.7607   23.2846 H   0  0  0  0  0  0
  -22.4021  -11.9793   22.4846 H   0  0  0  0  0  0
  -21.1008  -13.1146   22.2690 H   0  0  0  0  0  0
  -24.6254  -15.8404   20.6145 H   0  0  0  0  0  0
  -26.2693  -15.6698   20.2836 H   0  0  0  0  0  0
  -26.7501  -32.4954   23.0792 H   0  0  0  0  0  0
  -25.0069  -33.9341   25.0062 H   0  0  0  0  0  0
  -22.8342  -31.2411   21.3173 H   0  0  0  0  0  0
  -23.3768  -35.9478   23.3277 H   0  0  0  0  0  0
  -24.3557  -36.8858   22.2074 H   0  0  0  0  0  0
  -23.7252  -37.6327   23.6755 H   0  0  0  0  0  0
  -26.2907  -31.2646   20.6259 H   0  0  0  0  0  0
  -26.9417  -30.6071   22.0799 H   0  0  0  0  0  0
  -28.1711  -28.3982   21.3124 H   0  0  0  0  0  0
  -25.8370  -25.6264   19.0057 H   0  0  0  0  0  0
  -24.0323  -27.2225   18.9348 H   0  0  0  0  0  0
  -23.9410  -30.4638   19.3809 H   0  0  0  0  0  0
  -22.8688  -29.1705   19.8154 H   0  0  0  0  0  0
  -25.1353  -36.1666   25.0772 H   0  0  0  0  0  0
  -21.0058  -28.3417   24.1267 H   0  0  0  0  0  0
  -20.5680  -26.2410   23.3664 H   0  0  0  0  0  0
  -21.6671  -26.7392   22.1214 H   0  0  0  0  0  0
  -19.6941  -25.6264   21.1298 H   0  0  0  0  0  0
  -19.6729  -27.3140   20.6713 H   0  0  0  0  0  0
  -17.4237  -26.6697   21.4022 H   0  0  0  0  0  0
  -18.0351  -26.0109   22.9027 H   0  0  0  0  0  0
  -19.7987  -30.7346   24.2164 H   0  0  0  0  0  0
  -17.5053  -31.6276   24.5173 H   0  0  0  0  0  0
  -15.5388  -30.2968   23.7714 H   0  0  0  0  0  0
  -15.8723  -28.0808   22.7117 H   0  0  0  0  0  0
  -24.5877  -30.7134   25.7610 H   0  0  0  0  0  0
  -24.8816  -32.3037   26.4531 H   0  0  0  0  0  0
  -25.7843  -30.9118   27.0219 H   0  0  0  0  0  0
  -26.3237  -29.6458   24.1581 H   0  0  0  0  0  0
  -27.3966  -29.7289   25.5315 H   0  0  0  0  0  0
  -27.9213  -30.3967   24.0095 H   0  0  0  0  0  0
  -27.2591  -33.3742   26.1873 H   0  0  0  0  0  0
  -28.3968  -32.6804   25.0417 H   0  0  0  0  0  0
  -28.0594  -31.8636   26.5599 H   0  0  0  0  0  0
  -28.2553  -38.0055   24.7499 H   0  0  0  0  0  0
  -28.1084  -36.2576   24.6317 H   0  0  0  0  0  0
  -27.2270  -37.1403   25.8867 H   0  0  0  0  0  0
  -20.9718  -29.8699   21.6534 H   0  0  0  0  0  0
  -26.0102  -38.2704   24.1410 H   0  0  0  0  0  0
  -27.6477  -16.2943   19.2430 H   0  0  0  0  0  0
  -30.5993  -22.1382   21.1062 H   0  0  0  0  0  0
  -25.5830  -17.7860   18.6533 H   0  0  0  0  0  0
  -26.1951  -19.2741   17.9332 H   0  0  0  0  0  0
  -25.5025  -19.2977   19.5535 H   0  0  0  0  0  0
  -27.0766  -23.6858   20.9411 H   0  0  0  0  0  0
  -27.3061  -23.7301   19.2459 H   0  0  0  0  0  0
  1 25  1  0  0  0
  1 30  2  0  0  0
  1 72  1  0  0  0
  2  3  1  0  0  0
  2 25  1  0  0  0
  2 83  1  0  0  0
  2 84  1  0  0  0
  3  4  1  0  0  0
  3 85  1  0  0  0
  3 86  1  0  0  0
  4  5  1  0  0  0
  4 87  1  0  0  0
  4 88  1  0  0  0
  5  6  1  0  0  0
  5 26  1  0  0  0
  5 89  1  0  0  0
  6 25  1  0  0  0
  6 90  1  0  0  0
  6 91  1  0  0  0
  7  8  2  0  0  0
  7 26  1  0  0  0
  7 29  1  0  0  0
  8  9  1  0  0  0
  8 22  1  0  0  0
  9 10  1  0  0  0
  9 27  2  0  0  0
 10 11  2  0  0  0
 10 15  1  0  0  0
 11 12  1  0  0  0
 11 92  1  0  0  0
 12 13  2  0  0  0
 12 93  1  0  0  0
 13 14  1  0  0  0
 13 31  1  0  0  0
 14 15  2  0  0  0
 14 94  1  0  0  0
 15 95  1  0  0  0
 16 17  2  0  0  0
 16 21  1  0  0  0
 16 31  1  0  0  0
 17 18  1  0  0  0
 17 96  1  0  0  0
 18 19  2  0  0  0
 18 97  1  0  0  0
 19 20  1  0  0  0
 19 24  1  0  0  0
 20 21  2  0  0  0
 20 98  1  0  0  0
 21 23  1  0  0  0
 22 28  1  0  0  0
 22 32  2  0  0  0
 26 27  1  0  0  0
 28 99  1  0  0  0
 28100  1  0  0  0
 29101  1  0  0  0
 29102  1  0  0  0
 33 34  1  0  0  0
 33 66  1  0  0  0
 33 70  2  0  0  0
 34 36  1  0  0  0
 34 59  1  0  0  0
 34103  1  0  0  0
 35 44  2  0  0  0
 35 45  1  0  0  0
 35 68  1  0  0  0
 36 56  1  0  0  0
 36104  1  0  0  0
 37 39  1  0  0  0
 37 47  1  0  0  0
 37 66  1  0  0  0
 37105  1  0  0  0
 38 43  2  0  0  0
 38 46  1  0  0  0
 38 47  1  0  0  0
 39 64  1  0  0  0
 39 67  2  0  0  0
 40 52  1  0  0  0
 40 53  2  0  0  0
 40 58  1  0  0  0
 41106  1  0  0  0
 41107  1  0  0  0
 41108  1  0  0  0
 41 48  1  0  0  0
 42 43  1  0  0  0
 42 66  1  0  0  0
 42109  1  0  0  0
 42110  1  0  0  0
 43 44  1  0  0  0
 44111  1  0  0  0
 45 46  2  0  0  0
 45112  1  0  0  0
 46113  1  0  0  0
 47114  1  0  0  0
 47115  1  0  0  0
 48 56  1  0  0  0
 48 65  1  0  0  0
 48116  1  0  0  0
 49 50  1  0  0  0
 49 53  1  0  0  0
 49 64  1  0  0  0
 49117  1  0  0  0
 50 51  1  0  0  0
 50118  1  0  0  0
 50119  1  0  0  0
 51 52  1  0  0  0
 51120  1  0  0  0
 51121  1  0  0  0
 52122  1  0  0  0
 52123  1  0  0  0
 53 54  1  0  0  0
 54 55  2  0  0  0
 54124  1  0  0  0
 55 57  1  0  0  0
 55125  1  0  0  0
 56 69  2  0  0  0
 57 58  2  0  0  0
 57126  1  0  0  0
 58127  1  0  0  0
 59 60  1  0  0  0
 59 61  1  0  0  0
 59 62  1  0  0  0
 60128  1  0  0  0
 60129  1  0  0  0
 60130  1  0  0  0
 61131  1  0  0  0
 61132  1  0  0  0
 61133  1  0  0  0
 62134  1  0  0  0
 62135  1  0  0  0
 62136  1  0  0  0
 63 65  1  0  0  0
 63137  1  0  0  0
 63138  1  0  0  0
 63139  1  0  0  0
 64140  1  0  0  0
 65141  1  0  0  0
 68 79  1  0  0  0
 71 72  1  0  0  0
 71 74  2  0  0  0
 71142  1  0  0  0
 72 73  2  0  0  0
 73 76  1  0  0  0
 73 81  1  0  0  0
 74 78  1  0  0  0
 74 81  1  0  0  0
 75 76  2  0  0  0
 75 77  1  0  0  0
 75143  1  0  0  0
 76 82  1  0  0  0
 77 79  1  0  0  0
 77 80  2  0  0  0
 78144  1  0  0  0
 78145  1  0  0  0
 78146  1  0  0  0
 79147  1  0  0  0
 79148  1  0  0  0
 80 81  1  0  0  0
M  ISO  4   1 100  68 101  72 100  79 101
M  END
> <chiral flag>
0

> <version>
0

> <s_m_source_file>
/data/baiqing/PycharmProjects/Reinvent-master-3.2/result/LINK_invent/BTK/process_docking_weight1_custom_sum_contain_oxygen_bond_distance_aromatic_linkinvent_7_9_3/rearranged_h_0031.sdf

> <i_m_source_file_index>
64

> <r_mmod_Potential_Energy-OPLS-2005>
2154.935546875

> <r_mmod_Stretch_Energy-OPLS-2005>
918.542297363281

> <r_mmod_Bend_Energy-OPLS-2005>
678.090637207031

> <r_mmod_Torsional_Energy-OPLS-2005>
211.905960083008

> <r_mmod_Improper_Torsional_Energy-OPLS-2005>
5.79527521133423

> <r_mmod_Van_der_Waal_Energy-OPLS-2005>
120.513298034668

> <r_mmod_Electrostatic_Energy-OPLS-2005>
-452.084655761719

> <r_mmod_Solvation_Energy-OPLS-2005>
-203.134811401367

> <b_mmod_Minimization_Converged-OPLS-2005>
0

> <r_mmod_RMS_Derivative-OPLS-2005>
0.466854006052017

$$$$
64
                    3D
 Structure written by MMmdl.
153161  0  0  1  0            999 V2000
  -30.5366  -14.9483   20.4300 C   0  0  0  0  0  0
  -30.4339  -12.5887   19.5049 C   0  0  0  0  0  0
  -29.5174  -12.5308   18.2625 C   0  0  0  0  0  0
  -28.0489  -12.3217   18.6739 C   0  0  0  0  0  0
  -27.6254  -13.2526   19.8395 C   0  0  2  0  0  0
  -28.6652  -13.2761   20.9806 C   0  0  0  0  0  0
  -25.2414  -13.8230   20.5666 C   0  0  0  0  0  0
  -24.1748  -13.0442   20.9256 C   0  0  0  0  0  0
  -24.6379  -11.6938   20.8784 C   0  0  0  0  0  0
  -23.9066  -10.4295   21.0415 C   0  0  0  0  0  0
  -24.3619   -9.4212   21.9190 C   0  0  0  0  0  0
  -23.6296   -8.2243   22.0746 C   0  0  0  0  0  0
  -22.4272   -8.0287   21.3540 C   0  0  0  0  0  0
  -21.9922   -9.0260   20.4641 C   0  0  0  0  0  0
  -22.7245  -10.2138   20.3058 C   0  0  0  0  0  0
  -21.6851   -6.0743   22.5285 C   0  0  0  0  0  0
  -21.4014   -6.5642   23.8223 C   0  0  0  0  0  0
  -21.3660   -5.6787   24.9185 C   0  0  0  0  0  0
  -21.6050   -4.3055   24.7226 C   0  0  0  0  0  0
  -21.8809   -3.8148   23.4347 C   0  0  0  0  0  0
  -21.9186   -4.6972   22.3404 C   0  0  0  0  0  0
  -22.7771  -13.5213   21.1907 C   0  0  0  0  0  0
  -22.1652   -4.2152   21.0986 F   0  0  0  0  0  0
  -21.5630   -3.4545   25.7744 F   0  0  0  0  0  0
  -29.9416  -13.6889   20.3830 N   0  0  0  0  0  0
  -26.2847  -12.9466   20.3246 N   0  0  0  0  0  0
  -25.9313  -11.6594   20.5762 N   0  0  0  0  0  0
  -22.0406  -12.8195   22.0454 N   0  0  0  0  0  0
  -25.4054  -15.1959   20.4017 N   0  0  0  0  0  0
  -31.7409  -15.0095   20.1535 O   0  0  0  0  0  0
  -21.6636   -6.8886   21.4234 O   0  0  0  0  0  0
  -22.3435  -14.5488   20.6724 O   0  0  0  0  0  0
  -24.6453  -31.8418   23.1906 C   0  0  0  0  0  0
  -25.9203  -32.4701   23.8283 C   0  0  1  0  0  0
  -27.1997  -27.1159   20.1454 C   0  0  0  0  0  0
  -25.5930  -33.8509   24.2183 N   0  0  0  0  0  0
  -23.4469  -30.4578   21.5437 C   0  0  2  0  0  0
  -24.8892  -28.8930   20.1086 C   0  0  0  0  0  0
  -22.7617  -29.4433   22.4897 C   0  0  0  0  0  0
  -18.0330  -28.1298   22.8477 C   0  0  0  0  0  0
  -24.1489  -36.7258   23.2639 C   0  0  0  0  0  0
  -26.0060  -30.7090   21.3906 C   0  0  0  0  0  0
  -26.0722  -29.3218   20.7252 C   0  0  0  0  0  0
  -27.2306  -28.4543   20.7191 C   0  0  0  0  0  0
  -25.9896  -26.7949   19.4880 C   0  0  0  0  0  0
  -24.8635  -27.6445   19.4710 C   0  0  0  0  0  0
  -23.6695  -29.8017   20.1576 C   0  0  0  0  0  0
  -25.4114  -36.3030   24.0321 C   0  0  1  0  0  0
  -20.5915  -28.3645   23.1304 C   0  0  2  0  0  0
  -20.6783  -26.9352   22.5420 C   0  0  0  0  0  0
  -19.5829  -26.6381   21.5152 C   0  0  0  0  0  0
  -18.2011  -26.7849   22.1592 C   0  0  0  0  0  0
  -19.1554  -28.8829   23.2867 C   0  0  0  0  0  0
  -18.9402  -30.1451   23.8824 C   0  0  0  0  0  0
  -17.6382  -30.6523   24.0453 C   0  0  0  0  0  0
  -25.9056  -34.9409   23.5066 C   0  0  0  0  0  0
  -16.5307  -29.8917   23.6284 C   0  0  0  0  0  0
  -16.7296  -28.6312   23.0367 C   0  0  0  0  0  0
  -26.4515  -31.6579   25.0731 C   0  0  0  0  0  0
  -25.3721  -31.3740   26.1437 C   0  0  0  0  0  0
  -27.0377  -30.2976   24.6326 C   0  0  0  0  0  0
  -27.6040  -32.4351   25.7520 C   0  0  0  0  0  0
  -27.5575  -37.1804   24.8472 C   0  0  0  0  0  0
  -21.4295  -29.3002   22.3733 N   0  0  0  0  0  0
  -26.4283  -37.3747   23.9410 N   0  0  0  0  0  0
  -24.7197  -31.0221   22.0977 N   0  0  0  0  0  0
  -23.4300  -28.7934   23.2974 O   0  0  0  0  0  0
  -28.2422  -26.1119   20.2036 O   0  0  0  0  0  0
  -26.5659  -34.8922   22.4657 O   0  0  0  0  0  0
  -23.5574  -32.1276   23.7129 O   0  0  0  0  0  0
  -27.7633  -18.7349   20.6594 C   0  0  0  0  0  0
  -26.8308  -19.7913   20.7438 C   0  0  0  0  0  0
  -29.4679  -20.4348   20.3902 C   0  0  0  0  0  0
  -29.1343  -18.9818   20.4957 C   0  0  0  0  0  0
  -27.1757  -21.1668   20.6697 C   0  0  0  0  0  0
  -28.5229  -21.5925   20.4553 C   0  0  0  0  0  0
  -26.0310  -22.1397   20.8750 C   0  0  0  0  0  0
  -28.9269  -23.2167   20.3522 C   0  0  0  0  0  0
  -30.1467  -17.6732   20.4492 C   0  0  0  0  0  0
  -27.9079  -24.5785   20.2156 C   0  0  0  0  0  0
  -29.7645  -16.1383   20.5753 N   0  0  0  0  0  0
  -31.4670  -12.7450   19.1920 H   0  0  0  0  0  0
  -30.4283  -11.6360   20.0360 H   0  0  0  0  0  0
  -29.8371  -11.7365   17.5877 H   0  0  0  0  0  0
  -29.6114  -13.4645   17.7067 H   0  0  0  0  0  0
  -27.9352  -11.2793   18.9737 H   0  0  0  0  0  0
  -27.3900  -12.4650   17.8170 H   0  0  0  0  0  0
  -27.5875  -14.2566   19.4141 H   0  0  0  0  0  0
  -28.7483  -12.2948   21.4547 H   0  0  0  0  0  0
  -28.3633  -13.9779   21.7605 H   0  0  0  0  0  0
  -25.2756   -9.5690   22.4782 H   0  0  0  0  0  0
  -24.0007   -7.4617   22.7471 H   0  0  0  0  0  0
  -21.0853   -8.8780   19.8945 H   0  0  0  0  0  0
  -22.3702  -10.9681   19.6175 H   0  0  0  0  0  0
  -21.2001   -7.6151   23.9724 H   0  0  0  0  0  0
  -21.1497   -6.0528   25.9089 H   0  0  0  0  0  0
  -22.0584   -2.7611   23.2851 H   0  0  0  0  0  0
  -22.4016  -11.9884   22.4874 H   0  0  0  0  0  0
  -21.1026  -13.1231   22.2652 H   0  0  0  0  0  0
  -24.6211  -15.8380   20.4692 H   0  0  0  0  0  0
  -26.2262  -15.6194   19.9874 H   0  0  0  0  0  0
  -26.7251  -32.5294   23.0987 H   0  0  0  0  0  0
  -25.0091  -33.9628   25.0338 H   0  0  0  0  0  0
  -22.7430  -31.2807   21.4037 H   0  0  0  0  0  0
  -23.3754  -35.9596   23.3302 H   0  0  0  0  0  0
  -24.3559  -36.8898   22.2055 H   0  0  0  0  0  0
  -23.7269  -37.6464   23.6681 H   0  0  0  0  0  0
  -26.1615  -31.4644   20.6185 H   0  0  0  0  0  0
  -26.8774  -30.7507   22.0342 H   0  0  0  0  0  0
  -28.1349  -28.7851   21.2100 H   0  0  0  0  0  0
  -25.8714  -25.8495   18.9812 H   0  0  0  0  0  0
  -23.9634  -27.3153   18.9686 H   0  0  0  0  0  0
  -23.8135  -30.5900   19.4161 H   0  0  0  0  0  0
  -22.7756  -29.2620   19.8379 H   0  0  0  0  0  0
  -25.1314  -36.1845   25.0822 H   0  0  0  0  0  0
  -20.9975  -28.3153   24.1431 H   0  0  0  0  0  0
  -20.5548  -26.2184   23.3542 H   0  0  0  0  0  0
  -21.6684  -26.7303   22.1343 H   0  0  0  0  0  0
  -19.7085  -25.6339   21.1102 H   0  0  0  0  0  0
  -19.6751  -27.3281   20.6746 H   0  0  0  0  0  0
  -17.4216  -26.6553   21.4061 H   0  0  0  0  0  0
  -18.0455  -26.0016   22.9025 H   0  0  0  0  0  0
  -19.7836  -30.7351   24.2164 H   0  0  0  0  0  0
  -17.4869  -31.6251   24.4927 H   0  0  0  0  0  0
  -15.5271  -30.2741   23.7594 H   0  0  0  0  0  0
  -15.8750  -28.0505   22.7127 H   0  0  0  0  0  0
  -24.5897  -30.7060   25.7785 H   0  0  0  0  0  0
  -24.8880  -32.2897   26.4865 H   0  0  0  0  0  0
  -25.8025  -30.8936   27.0230 H   0  0  0  0  0  0
  -26.2982  -29.6703   24.1317 H   0  0  0  0  0  0
  -27.3942  -29.7271   25.4915 H   0  0  0  0  0  0
  -27.8920  -30.4200   23.9651 H   0  0  0  0  0  0
  -27.2612  -33.3670   26.2042 H   0  0  0  0  0  0
  -28.3881  -32.6907   25.0368 H   0  0  0  0  0  0
  -28.0674  -31.8518   26.5495 H   0  0  0  0  0  0
  -28.2601  -38.0093   24.7490 H   0  0  0  0  0  0
  -28.1063  -36.2623   24.6320 H   0  0  0  0  0  0
  -27.2284  -37.1474   25.8875 H   0  0  0  0  0  0
  -20.9465  -29.8879   21.7083 H   0  0  0  0  0  0
  -26.0140  -38.2821   24.1398 H   0  0  0  0  0  0
  -27.4091  -17.7175   20.7425 H   0  0  0  0  0  0
  -25.7968  -19.5126   20.8949 H   0  0  0  0  0  0
  -30.5126  -20.6759   20.2621 H   0  0  0  0  0  0
  -25.1032  -21.6110   21.0968 H   0  0  0  0  0  0
  -25.8540  -22.7401   19.9827 H   0  0  0  0  0  0
  -26.2232  -22.7714   21.7412 H   0  0  0  0  0  0
  -29.6105  -23.2697   19.5031 H   0  0  0  0  0  0
  -29.5607  -23.4045   21.2211 H   0  0  0  0  0  0
  -30.8807  -17.8573   21.2336 H   0  0  0  0  0  0
  -30.7053  -17.7671   19.5183 H   0  0  0  0  0  0
  -27.3298  -24.3855   19.3126 H   0  0  0  0  0  0
  -27.2104  -24.5182   21.0482 H   0  0  0  0  0  0
  -28.7890  -15.9649   20.7619 H   0  0  0  0  0  0
  1 25  1  0  0  0
  1 30  2  0  0  0
  1 81  1  0  0  0
  2  3  1  0  0  0
  2 25  1  0  0  0
  2 82  1  0  0  0
  2 83  1  0  0  0
  3  4  1  0  0  0
  3 84  1  0  0  0
  3 85  1  0  0  0
  4  5  1  0  0  0
  4 86  1  0  0  0
  4 87  1  0  0  0
  5  6  1  0  0  0
  5 26  1  0  0  0
  5 88  1  0  0  0
  6 25  1  0  0  0
  6 89  1  0  0  0
  6 90  1  0  0  0
  7  8  2  0  0  0
  7 26  1  0  0  0
  7 29  1  0  0  0
  8  9  1  0  0  0
  8 22  1  0  0  0
  9 10  1  0  0  0
  9 27  2  0  0  0
 10 11  2  0  0  0
 10 15  1  0  0  0
 11 12  1  0  0  0
 11 91  1  0  0  0
 12 13  2  0  0  0
 12 92  1  0  0  0
 13 14  1  0  0  0
 13 31  1  0  0  0
 14 15  2  0  0  0
 14 93  1  0  0  0
 15 94  1  0  0  0
 16 17  2  0  0  0
 16 21  1  0  0  0
 16 31  1  0  0  0
 17 18  1  0  0  0
 17 95  1  0  0  0
 18 19  2  0  0  0
 18 96  1  0  0  0
 19 20  1  0  0  0
 19 24  1  0  0  0
 20 21  2  0  0  0
 20 97  1  0  0  0
 21 23  1  0  0  0
 22 28  1  0  0  0
 22 32  2  0  0  0
 26 27  1  0  0  0
 28 98  1  0  0  0
 28 99  1  0  0  0
 29100  1  0  0  0
 29101  1  0  0  0
 33 34  1  0  0  0
 33 66  1  0  0  0
 33 70  2  0  0  0
 34 36  1  0  0  0
 34 59  1  0  0  0
 34102  1  0  0  0
 35 44  2  0  0  0
 35 45  1  0  0  0
 35 68  1  0  0  0
 36 56  1  0  0  0
 36103  1  0  0  0
 37 39  1  0  0  0
 37 47  1  0  0  0
 37 66  1  0  0  0
 37104  1  0  0  0
 38 43  2  0  0  0
 38 46  1  0  0  0
 38 47  1  0  0  0
 39 64  1  0  0  0
 39 67  2  0  0  0
 40 52  1  0  0  0
 40 53  2  0  0  0
 40 58  1  0  0  0
 41105  1  0  0  0
 41106  1  0  0  0
 41107  1  0  0  0
 41 48  1  0  0  0
 42 43  1  0  0  0
 42 66  1  0  0  0
 42108  1  0  0  0
 42109  1  0  0  0
 43 44  1  0  0  0
 44110  1  0  0  0
 45 46  2  0  0  0
 45111  1  0  0  0
 46112  1  0  0  0
 47113  1  0  0  0
 47114  1  0  0  0
 48 56  1  0  0  0
 48 65  1  0  0  0
 48115  1  0  0  0
 49 50  1  0  0  0
 49 53  1  0  0  0
 49 64  1  0  0  0
 49116  1  0  0  0
 50 51  1  0  0  0
 50117  1  0  0  0
 50118  1  0  0  0
 51 52  1  0  0  0
 51119  1  0  0  0
 51120  1  0  0  0
 52121  1  0  0  0
 52122  1  0  0  0
 53 54  1  0  0  0
 54 55  2  0  0  0
 54123  1  0  0  0
 55 57  1  0  0  0
 55124  1  0  0  0
 56 69  2  0  0  0
 57 58  2  0  0  0
 57125  1  0  0  0
 58126  1  0  0  0
 59 60  1  0  0  0
 59 61  1  0  0  0
 59 62  1  0  0  0
 60127  1  0  0  0
 60128  1  0  0  0
 60129  1  0  0  0
 61130  1  0  0  0
 61131  1  0  0  0
 61132  1  0  0  0
 62133  1  0  0  0
 62134  1  0  0  0
 62135  1  0  0  0
 63 65  1  0  0  0
 63136  1  0  0  0
 63137  1  0  0  0
 63138  1  0  0  0
 64139  1  0  0  0
 65140  1  0  0  0
 68 80  1  0  0  0
 71 72  2  0  0  0
 71 74  1  0  0  0
 71141  1  0  0  0
 72 75  1  0  0  0
 72142  1  0  0  0
 73 74  2  0  0  0
 73 76  1  0  0  0
 73143  1  0  0  0
 74 79  1  0  0  0
 75 76  2  0  0  0
 75 77  1  0  0  0
 76 78  1  0  0  0
 77144  1  0  0  0
 77145  1  0  0  0
 77146  1  0  0  0
 78 80  1  0  0  0
 78147  1  0  0  0
 78148  1  0  0  0
 79 81  1  0  0  0
 79149  1  0  0  0
 79150  1  0  0  0
 80151  1  0  0  0
 80152  1  0  0  0
 81153  1  0  0  0
M  ISO  4   1 100  68 101  80 101  81 100
M  END
> <chiral flag>
0

> <version>
0

> <s_m_source_file>
/data/baiqing/PycharmProjects/Reinvent-master-3.2/result/LINK_invent/BTK/process_docking_weight1_custom_sum_contain_oxygen_bond_distance_aromatic_linkinvent_7_9_3/rearranged_h_0031.sdf

> <i_m_source_file_index>
65

> <r_mmod_Potential_Energy-OPLS-2005>
464.639526367188

> <r_mmod_Stretch_Energy-OPLS-2005>
280.626037597656

> <r_mmod_Bend_Energy-OPLS-2005>
253.110412597656

> <r_mmod_Torsional_Energy-OPLS-2005>
202.303512573242

> <r_mmod_Improper_Torsional_Energy-OPLS-2005>
4.87410449981689

> <r_mmod_Van_der_Waal_Energy-OPLS-2005>
134.599472045898

> <r_mmod_Electrostatic_Energy-OPLS-2005>
-401.624298095703

> <r_mmod_Solvation_Energy-OPLS-2005>
-210.563034057617

> <b_mmod_Minimization_Converged-OPLS-2005>
0

> <r_mmod_RMS_Derivative-OPLS-2005>
4.66804075241089

$$$$
65
                    3D
 Structure written by MMmdl.
160169  0  0  1  0            999 V2000
  -30.6992  -14.5872   20.5253 C   0  0  0  0  0  0
  -30.4209  -12.3697   19.4507 C   0  0  0  0  0  0
  -29.4986  -12.4988   18.2214 C   0  0  0  0  0  0
  -28.0234  -12.3452   18.6367 C   0  0  0  0  0  0
  -27.6514  -13.2235   19.8617 C   0  0  2  0  0  0
  -28.6974  -13.0982   20.9924 C   0  0  0  0  0  0
  -25.2546  -13.8191   20.5697 C   0  0  0  0  0  0
  -24.1820  -13.0445   20.9195 C   0  0  0  0  0  0
  -24.6398  -11.6918   20.8746 C   0  0  0  0  0  0
  -23.9070  -10.4295   21.0405 C   0  0  0  0  0  0
  -24.3619   -9.4210   21.9183 C   0  0  0  0  0  0
  -23.6293   -8.2245   22.0753 C   0  0  0  0  0  0
  -22.4276   -8.0283   21.3543 C   0  0  0  0  0  0
  -21.9913   -9.0257   20.4645 C   0  0  0  0  0  0
  -22.7242  -10.2135   20.3055 C   0  0  0  0  0  0
  -21.6855   -6.0736   22.5280 C   0  0  0  0  0  0
  -21.4015   -6.5640   23.8212 C   0  0  0  0  0  0
  -21.3660   -5.6792   24.9173 C   0  0  0  0  0  0
  -21.6043   -4.3055   24.7225 C   0  0  0  0  0  0
  -21.8819   -3.8146   23.4346 C   0  0  0  0  0  0
  -21.9192   -4.6963   22.3403 C   0  0  0  0  0  0
  -22.7839  -13.5229   21.1858 C   0  0  0  0  0  0
  -22.1660   -4.2147   21.0981 F   0  0  0  0  0  0
  -21.5629   -3.4540   25.7738 F   0  0  0  0  0  0
  -30.0147  -13.4073   20.4191 N   0  0  0  0  0  0
  -26.2985  -12.9390   20.3338 N   0  0  0  0  0  0
  -25.9332  -11.6536   20.5776 N   0  0  0  0  0  0
  -22.0488  -12.8215   22.0415 N   0  0  0  0  0  0
  -25.4249  -15.1914   20.4107 N   0  0  0  0  0  0
  -31.8640  -14.6864   20.1349 O   0  0  0  0  0  0
  -21.6642   -6.8879   21.4240 O   0  0  0  0  0  0
  -22.3518  -14.5535   20.6709 O   0  0  0  0  0  0
  -24.6262  -31.8639   23.2099 C   0  0  0  0  0  0
  -25.9120  -32.4803   23.8403 C   0  0  1  0  0  0
  -27.2071  -27.3268   20.0976 C   0  0  0  0  0  0
  -25.5944  -33.8605   24.2319 N   0  0  0  0  0  0
  -23.4175  -30.4955   21.5532 C   0  0  2  0  0  0
  -24.8599  -28.9703   20.1077 C   0  0  0  0  0  0
  -22.7476  -29.4652   22.4942 C   0  0  0  0  0  0
  -18.0288  -28.1383   22.8487 C   0  0  0  0  0  0
  -24.1491  -36.7302   23.2635 C   0  0  0  0  0  0
  -25.9636  -30.7936   21.3873 C   0  0  0  0  0  0
  -26.0327  -29.4265   20.7227 C   0  0  0  0  0  0
  -27.2076  -28.6134   20.7206 C   0  0  0  0  0  0
  -26.0105  -26.9555   19.4262 C   0  0  0  0  0  0
  -24.8507  -27.7374   19.4529 C   0  0  0  0  0  0
  -23.6301  -29.8481   20.1634 C   0  0  0  0  0  0
  -25.4113  -36.3097   24.0330 C   0  0  1  0  0  0
  -20.5890  -28.3688   23.1278 C   0  0  2  0  0  0
  -20.6781  -26.9413   22.5400 C   0  0  0  0  0  0
  -19.5750  -26.6381   21.5211 C   0  0  0  0  0  0
  -18.1931  -26.7926   22.1625 C   0  0  0  0  0  0
  -19.1542  -28.8852   23.2880 C   0  0  0  0  0  0
  -18.9464  -30.1455   23.8895 C   0  0  0  0  0  0
  -17.6465  -30.6587   24.0564 C   0  0  0  0  0  0
  -25.9050  -34.9464   23.5117 C   0  0  0  0  0  0
  -16.5356  -29.9084   23.6334 C   0  0  0  0  0  0
  -16.7275  -28.6503   23.0353 C   0  0  0  0  0  0
  -26.4502  -31.6601   25.0762 C   0  0  0  0  0  0
  -25.3735  -31.3737   26.1487 C   0  0  0  0  0  0
  -27.0344  -30.3021   24.6217 C   0  0  0  0  0  0
  -27.6059  -32.4335   25.7529 C   0  0  0  0  0  0
  -27.5581  -37.1808   24.8464 C   0  0  0  0  0  0
  -21.4191  -29.3056   22.3683 N   0  0  0  0  0  0
  -26.4294  -37.3787   23.9408 N   0  0  0  0  0  0
  -24.6879  -31.0662   22.1060 N   0  0  0  0  0  0
  -23.4209  -28.8161   23.2991 O   0  0  0  0  0  0
  -28.2912  -26.4258   20.1738 O   0  0  0  0  0  0
  -26.5604  -34.8921   22.4674 O   0  0  0  0  0  0
  -23.5426  -32.1438   23.7426 O   0  0  0  0  0  0
  -29.1037  -21.3206   19.5439 C   0  0  0  0  0  0
  -30.0264  -22.2211   21.5716 C   0  0  0  0  0  0
  -28.5588  -22.5960   19.2242 C   0  0  0  0  0  0
  -29.8310  -21.0938   20.7283 C   0  0  0  0  0  0
  -28.7601  -23.7348   20.0745 C   0  0  0  0  0  0
  -29.5038  -23.5120   21.2641 C   0  0  0  0  0  0
  -26.2458  -22.9174   18.0085 C   0  0  0  0  0  0
  -26.7882  -21.5908   17.5400 C   0  0  0  0  0  0
  -27.7415  -22.6899   17.9617 C   0  0  0  0  0  0
  -30.4860  -19.7137   21.0555 C   0  0  0  0  0  0
  -27.9660  -25.0479   19.7486 C   0  0  0  0  0  0
  -29.7358  -18.3486   20.7680 C   0  0  0  0  0  0
  -30.6106  -17.0695   21.0982 C   0  0  0  0  0  0
  -30.0164  -15.7019   20.9197 N   0  0  0  0  0  0
  -29.7597  -24.7932   22.3948 Cl  0  0  0  0  0  0
  -31.4654  -12.4618   19.1481 H   0  0  0  0  0  0
  -30.3287  -11.3793   19.8994 H   0  0  0  0  0  0
  -29.7568  -11.7467   17.4747 H   0  0  0  0  0  0
  -29.6489  -13.4688   17.7449 H   0  0  0  0  0  0
  -27.8575  -11.2935   18.8727 H   0  0  0  0  0  0
  -27.3677  -12.5732   17.7955 H   0  0  0  0  0  0
  -27.6671  -14.2567   19.5136 H   0  0  0  0  0  0
  -28.6985  -12.0891   21.4070 H   0  0  0  0  0  0
  -28.4537  -13.7643   21.8215 H   0  0  0  0  0  0
  -25.2764   -9.5686   22.4757 H   0  0  0  0  0  0
  -24.0004   -7.4637   22.7472 H   0  0  0  0  0  0
  -21.0846   -8.8774   19.8951 H   0  0  0  0  0  0
  -22.3700  -10.9673   19.6164 H   0  0  0  0  0  0
  -21.2007   -7.6148   23.9715 H   0  0  0  0  0  0
  -21.1483   -6.0523   25.9076 H   0  0  0  0  0  0
  -22.0597   -2.7608   23.2848 H   0  0  0  0  0  0
  -22.4110  -11.9874   22.4792 H   0  0  0  0  0  0
  -21.1107  -13.1235   22.2633 H   0  0  0  0  0  0
  -24.6581  -15.8466   20.5184 H   0  0  0  0  0  0
  -26.2764  -15.6306   20.0840 H   0  0  0  0  0  0
  -26.7185  -32.5469   23.1147 H   0  0  0  0  0  0
  -25.0123  -33.9762   25.0484 H   0  0  0  0  0  0
  -22.7106  -31.3171   21.4193 H   0  0  0  0  0  0
  -23.3754  -35.9634   23.3303 H   0  0  0  0  0  0
  -24.3584  -36.8913   22.2049 H   0  0  0  0  0  0
  -23.7242  -37.6506   23.6652 H   0  0  0  0  0  0
  -26.1024  -31.5604   20.6239 H   0  0  0  0  0  0
  -26.8425  -30.8327   22.0191 H   0  0  0  0  0  0
  -28.0988  -28.9518   21.2303 H   0  0  0  0  0  0
  -25.9051  -26.0379   18.8690 H   0  0  0  0  0  0
  -23.9583  -27.3888   18.9517 H   0  0  0  0  0  0
  -23.7496  -30.6328   19.4154 H   0  0  0  0  0  0
  -22.7492  -29.2815   19.8557 H   0  0  0  0  0  0
  -25.1290  -36.1956   25.0822 H   0  0  0  0  0  0
  -20.9985  -28.3256   24.1397 H   0  0  0  0  0  0
  -20.5692  -26.2296   23.3598 H   0  0  0  0  0  0
  -21.6647  -26.7447   22.1185 H   0  0  0  0  0  0
  -19.6912  -25.6291   21.1241 H   0  0  0  0  0  0
  -19.6686  -27.3194   20.6743 H   0  0  0  0  0  0
  -17.4198  -26.6677   21.4028 H   0  0  0  0  0  0
  -18.0333  -26.0066   22.9020 H   0  0  0  0  0  0
  -19.7942  -30.7275   24.2258 H   0  0  0  0  0  0
  -17.5020  -31.6269   24.5161 H   0  0  0  0  0  0
  -15.5356  -30.2987   23.7660 H   0  0  0  0  0  0
  -15.8674  -28.0823   22.7068 H   0  0  0  0  0  0
  -24.5915  -30.7076   25.7821 H   0  0  0  0  0  0
  -24.8924  -32.2905   26.4906 H   0  0  0  0  0  0
  -25.8062  -30.8923   27.0267 H   0  0  0  0  0  0
  -26.2926  -29.6778   24.1222 H   0  0  0  0  0  0
  -27.4020  -29.7266   25.4722 H   0  0  0  0  0  0
  -27.8809  -30.4306   23.9466 H   0  0  0  0  0  0
  -27.2668  -33.3635   26.2105 H   0  0  0  0  0  0
  -28.3871  -32.6894   25.0358 H   0  0  0  0  0  0
  -28.0727  -31.8464   26.5447 H   0  0  0  0  0  0
  -28.2597  -38.0107   24.7514 H   0  0  0  0  0  0
  -28.1079  -36.2637   24.6289 H   0  0  0  0  0  0
  -27.2300  -37.1454   25.8868 H   0  0  0  0  0  0
  -20.9356  -29.8811   21.6929 H   0  0  0  0  0  0
  -26.0178  -38.2863   24.1407 H   0  0  0  0  0  0
  -28.9525  -20.4948   18.8624 H   0  0  0  0  0  0
  -30.5932  -22.1025   22.4841 H   0  0  0  0  0  0
  -25.7590  -22.9367   18.9818 H   0  0  0  0  0  0
  -25.8072  -23.5668   17.2534 H   0  0  0  0  0  0
  -26.7001  -21.3736   16.4773 H   0  0  0  0  0  0
  -26.6407  -20.7405   18.2031 H   0  0  0  0  0  0
  -28.3059  -23.1854   17.1731 H   0  0  0  0  0  0
  -30.7605  -19.7251   22.1111 H   0  0  0  0  0  0
  -31.4342  -19.6956   20.5171 H   0  0  0  0  0  0
  -26.9950  -24.7815   20.1673 H   0  0  0  0  0  0
  -27.8733  -25.1116   18.6653 H   0  0  0  0  0  0
  -29.4430  -18.3121   19.7186 H   0  0  0  0  0  0
  -28.8119  -18.3214   21.3465 H   0  0  0  0  0  0
  -30.9350  -17.1343   22.1375 H   0  0  0  0  0  0
  -31.5261  -17.1429   20.5088 H   0  0  0  0  0  0
  -29.0487  -15.5745   21.1770 H   0  0  0  0  0  0
  1 25  1  0  0  0
  1 30  2  0  0  0
  1 84  1  0  0  0
  2  3  1  0  0  0
  2 25  1  0  0  0
  2 86  1  0  0  0
  2 87  1  0  0  0
  3  4  1  0  0  0
  3 88  1  0  0  0
  3 89  1  0  0  0
  4  5  1  0  0  0
  4 90  1  0  0  0
  4 91  1  0  0  0
  5  6  1  0  0  0
  5 26  1  0  0  0
  5 92  1  0  0  0
  6 25  1  0  0  0
  6 93  1  0  0  0
  6 94  1  0  0  0
  7  8  2  0  0  0
  7 26  1  0  0  0
  7 29  1  0  0  0
  8  9  1  0  0  0
  8 22  1  0  0  0
  9 10  1  0  0  0
  9 27  2  0  0  0
 10 11  2  0  0  0
 10 15  1  0  0  0
 11 12  1  0  0  0
 11 95  1  0  0  0
 12 13  2  0  0  0
 12 96  1  0  0  0
 13 14  1  0  0  0
 13 31  1  0  0  0
 14 15  2  0  0  0
 14 97  1  0  0  0
 15 98  1  0  0  0
 16 17  2  0  0  0
 16 21  1  0  0  0
 16 31  1  0  0  0
 17 18  1  0  0  0
 17 99  1  0  0  0
 18 19  2  0  0  0
 18100  1  0  0  0
 19 20  1  0  0  0
 19 24  1  0  0  0
 20 21  2  0  0  0
 20101  1  0  0  0
 21 23  1  0  0  0
 22 28  1  0  0  0
 22 32  2  0  0  0
 26 27  1  0  0  0
 28102  1  0  0  0
 28103  1  0  0  0
 29104  1  0  0  0
 29105  1  0  0  0
 33 34  1  0  0  0
 33 66  1  0  0  0
 33 70  2  0  0  0
 34 36  1  0  0  0
 34 59  1  0  0  0
 34106  1  0  0  0
 35 44  2  0  0  0
 35 45  1  0  0  0
 35 68  1  0  0  0
 36 56  1  0  0  0
 36107  1  0  0  0
 37 39  1  0  0  0
 37 47  1  0  0  0
 37 66  1  0  0  0
 37108  1  0  0  0
 38 43  2  0  0  0
 38 46  1  0  0  0
 38 47  1  0  0  0
 39 64  1  0  0  0
 39 67  2  0  0  0
 40 52  1  0  0  0
 40 53  2  0  0  0
 40 58  1  0  0  0
 41109  1  0  0  0
 41110  1  0  0  0
 41111  1  0  0  0
 41 48  1  0  0  0
 42 43  1  0  0  0
 42 66  1  0  0  0
 42112  1  0  0  0
 42113  1  0  0  0
 43 44  1  0  0  0
 44114  1  0  0  0
 45 46  2  0  0  0
 45115  1  0  0  0
 46116  1  0  0  0
 47117  1  0  0  0
 47118  1  0  0  0
 48 56  1  0  0  0
 48 65  1  0  0  0
 48119  1  0  0  0
 49 50  1  0  0  0
 49 53  1  0  0  0
 49 64  1  0  0  0
 49120  1  0  0  0
 50 51  1  0  0  0
 50121  1  0  0  0
 50122  1  0  0  0
 51 52  1  0  0  0
 51123  1  0  0  0
 51124  1  0  0  0
 52125  1  0  0  0
 52126  1  0  0  0
 53 54  1  0  0  0
 54 55  2  0  0  0
 54127  1  0  0  0
 55 57  1  0  0  0
 55128  1  0  0  0
 56 69  2  0  0  0
 57 58  2  0  0  0
 57129  1  0  0  0
 58130  1  0  0  0
 59 60  1  0  0  0
 59 61  1  0  0  0
 59 62  1  0  0  0
 60131  1  0  0  0
 60132  1  0  0  0
 60133  1  0  0  0
 61134  1  0  0  0
 61135  1  0  0  0
 61136  1  0  0  0
 62137  1  0  0  0
 62138  1  0  0  0
 62139  1  0  0  0
 63 65  1  0  0  0
 63140  1  0  0  0
 63141  1  0  0  0
 63142  1  0  0  0
 64143  1  0  0  0
 65144  1  0  0  0
 68 81  1  0  0  0
 71 73  2  0  0  0
 71 74  1  0  0  0
 71145  1  0  0  0
 72 74  2  0  0  0
 72 76  1  0  0  0
 72146  1  0  0  0
 73 75  1  0  0  0
 73 79  1  0  0  0
 74 80  1  0  0  0
 75 76  2  0  0  0
 75 81  1  0  0  0
 76 85  1  0  0  0
 77 78  1  0  0  0
 77 79  1  0  0  0
 77147  1  0  0  0
 77148  1  0  0  0
 78 79  1  0  0  0
 78149  1  0  0  0
 78150  1  0  0  0
 79151  1  0  0  0
 80 82  1  0  0  0
 80152  1  0  0  0
 80153  1  0  0  0
 81154  1  0  0  0
 81155  1  0  0  0
 82 83  1  0  0  0
 82156  1  0  0  0
 82157  1  0  0  0
 83 84  1  0  0  0
 83158  1  0  0  0
 83159  1  0  0  0
 84160  1  0  0  0
M  ISO  4   1 100  68 101  81 101  84 100
M  END
> <chiral flag>
0

> <version>
0

> <s_m_source_file>
/data/baiqing/PycharmProjects/Reinvent-master-3.2/result/LINK_invent/BTK/process_docking_weight1_custom_sum_contain_oxygen_bond_distance_aromatic_linkinvent_7_9_3/rearranged_h_0031.sdf

> <i_m_source_file_index>
66

> <r_mmod_Potential_Energy-OPLS-2005>
110.424118041992

> <r_mmod_Stretch_Energy-OPLS-2005>
72.3065643310547

> <r_mmod_Bend_Energy-OPLS-2005>
149.326507568359

> <r_mmod_Torsional_Energy-OPLS-2005>
232.942474365234

> <r_mmod_Improper_Torsional_Energy-OPLS-2005>
4.81354999542236

> <r_mmod_Van_der_Waal_Energy-OPLS-2005>
158.473815917969

> <r_mmod_Electrostatic_Energy-OPLS-2005>
-345.949615478516

> <r_mmod_Solvation_Energy-OPLS-2005>
-208.753540039062

> <b_mmod_Minimization_Converged-OPLS-2005>
0

> <r_mmod_RMS_Derivative-OPLS-2005>
0.426051497459412

$$$$
66
                    3D
 Structure written by MMmdl.
153161  0  0  1  0            999 V2000
  -30.5187  -14.9614   20.4551 C   0  0  0  0  0  0
  -30.4381  -12.6158   19.4901 C   0  0  0  0  0  0
  -29.5186  -12.5433   18.2485 C   0  0  0  0  0  0
  -28.0386  -12.3556   18.6422 C   0  0  0  0  0  0
  -27.6237  -13.2618   19.8334 C   0  0  2  0  0  0
  -28.6610  -13.2530   20.9727 C   0  0  0  0  0  0
  -25.2394  -13.8231   20.5711 C   0  0  0  0  0  0
  -24.1699  -13.0431   20.9221 C   0  0  0  0  0  0
  -24.6361  -11.6924   20.8704 C   0  0  0  0  0  0
  -23.9039  -10.4265   21.0325 C   0  0  0  0  0  0
  -24.3599   -9.4202   21.9128 C   0  0  0  0  0  0
  -23.6297   -8.2224   22.0709 C   0  0  0  0  0  0
  -22.4269   -8.0242   21.3499 C   0  0  0  0  0  0
  -21.9864   -9.0218   20.4614 C   0  0  0  0  0  0
  -22.7193  -10.2098   20.3010 C   0  0  0  0  0  0
  -21.6848   -6.0718   22.5239 C   0  0  0  0  0  0
  -21.4040   -6.5616   23.8183 C   0  0  0  0  0  0
  -21.3660   -5.6766   24.9145 C   0  0  0  0  0  0
  -21.6036   -4.3024   24.7191 C   0  0  0  0  0  0
  -21.8820   -3.8127   23.4303 C   0  0  0  0  0  0
  -21.9190   -4.6953   22.3385 C   0  0  0  0  0  0
  -22.7717  -13.5148   21.1877 C   0  0  0  0  0  0
  -22.1661   -4.2140   21.0935 F   0  0  0  0  0  0
  -21.5649   -3.4524   25.7719 F   0  0  0  0  0  0
  -29.9314  -13.6948   20.3847 N   0  0  0  0  0  0
  -26.2808  -12.9505   20.3165 N   0  0  0  0  0  0
  -25.9277  -11.6619   20.5649 N   0  0  0  0  0  0
  -22.0388  -12.8164   22.0459 N   0  0  0  0  0  0
  -25.4065  -15.1960   20.4137 N   0  0  0  0  0  0
  -31.7185  -15.0238   20.1679 O   0  0  0  0  0  0
  -21.6634   -6.8842   21.4196 O   0  0  0  0  0  0
  -22.3347  -14.5452   20.6744 O   0  0  0  0  0  0
  -24.6484  -31.8403   23.1868 C   0  0  0  0  0  0
  -25.9245  -32.4669   23.8225 C   0  0  1  0  0  0
  -27.2150  -27.1113   20.1486 C   0  0  0  0  0  0
  -25.6024  -33.8485   24.2181 N   0  0  0  0  0  0
  -23.4497  -30.4636   21.5315 C   0  0  2  0  0  0
  -24.9032  -28.8911   20.1070 C   0  0  0  0  0  0
  -22.7586  -29.4511   22.4827 C   0  0  0  0  0  0
  -18.0312  -28.1367   22.8485 C   0  0  0  0  0  0
  -24.1506  -36.7204   23.2627 C   0  0  0  0  0  0
  -26.0072  -30.7060   21.3962 C   0  0  0  0  0  0
  -26.0794  -29.3168   20.7326 C   0  0  0  0  0  0
  -27.2373  -28.4470   20.7297 C   0  0  0  0  0  0
  -26.0146  -26.7934   19.4807 C   0  0  0  0  0  0
  -24.8891  -27.6470   19.4551 C   0  0  0  0  0  0
  -23.6796  -29.7992   20.1461 C   0  0  0  0  0  0
  -25.4150  -36.3022   24.0302 C   0  0  1  0  0  0
  -20.5929  -28.3699   23.1249 C   0  0  2  0  0  0
  -20.6813  -26.9410   22.5428 C   0  0  0  0  0  0
  -19.5782  -26.6374   21.5240 C   0  0  0  0  0  0
  -18.1947  -26.7910   22.1644 C   0  0  0  0  0  0
  -19.1567  -28.8858   23.2857 C   0  0  0  0  0  0
  -18.9491  -30.1460   23.8883 C   0  0  0  0  0  0
  -17.6495  -30.6582   24.0552 C   0  0  0  0  0  0
  -25.9111  -34.9395   23.5041 C   0  0  0  0  0  0
  -16.5380  -29.9068   23.6352 C   0  0  0  0  0  0
  -16.7303  -28.6479   23.0375 C   0  0  0  0  0  0
  -26.4537  -31.6537   25.0680 C   0  0  0  0  0  0
  -25.3725  -31.3756   26.1387 C   0  0  0  0  0  0
  -27.0408  -30.2931   24.6316 C   0  0  0  0  0  0
  -27.6070  -32.4266   25.7463 C   0  0  0  0  0  0
  -27.5581  -37.1799   24.8451 C   0  0  0  0  0  0
  -21.4276  -29.3026   22.3627 N   0  0  0  0  0  0
  -26.4298  -37.3761   23.9396 N   0  0  0  0  0  0
  -24.7207  -31.0264   22.0910 N   0  0  0  0  0  0
  -23.4253  -28.8093   23.2976 O   0  0  0  0  0  0
  -28.2608  -26.1092   20.1809 O   0  0  0  0  0  0
  -26.5676  -34.8889   22.4615 O   0  0  0  0  0  0
  -23.5621  -32.1276   23.7109 O   0  0  0  0  0  0
  -28.1007  -21.5617   21.9180 C   0  0  0  0  0  0
  -29.3891  -20.4092   20.2249 C   0  0  0  0  0  0
  -28.7970  -21.6939   20.6974 C   0  0  0  0  0  0
  -28.0090  -20.3351   22.6206 C   0  0  0  0  0  0
  -29.3082  -19.0767   20.8959 C   0  0  0  0  0  0
  -28.5798  -19.1236   22.1260 C   0  0  0  0  0  0
  -27.3338  -20.3516   23.9914 C   0  0  0  0  0  0
  -28.9616  -23.2202   20.0639 C   0  0  0  0  0  0
  -30.1134  -17.6869   20.4369 C   0  0  0  0  0  0
  -27.9708  -24.5711   20.3669 C   0  0  0  0  0  0
  -29.7516  -16.1493   20.6421 N   0  0  0  0  0  0
  -28.4250  -17.6946   23.0909 Cl  0  0  0  0  0  0
  -31.4567  -12.8192   19.1522 H   0  0  0  0  0  0
  -30.4930  -11.6597   20.0157 H   0  0  0  0  0  0
  -29.8412  -11.7401   17.5878 H   0  0  0  0  0  0
  -29.6281  -13.4682   17.6696 H   0  0  0  0  0  0
  -27.8695  -11.3048   18.8859 H   0  0  0  0  0  0
  -27.4027  -12.5772   17.7859 H   0  0  0  0  0  0
  -27.6033  -14.2793   19.4381 H   0  0  0  0  0  0
  -28.7442  -12.2583   21.4188 H   0  0  0  0  0  0
  -28.3548  -13.9264   21.7746 H   0  0  0  0  0  0
  -25.2766   -9.5753   22.4671 H   0  0  0  0  0  0
  -24.0040   -7.4627   22.7412 H   0  0  0  0  0  0
  -21.0817   -8.8724   19.8908 H   0  0  0  0  0  0
  -22.3630  -10.9635   19.6121 H   0  0  0  0  0  0
  -21.2043   -7.6139   23.9685 H   0  0  0  0  0  0
  -21.1491   -6.0492   25.9035 H   0  0  0  0  0  0
  -22.0607   -2.7601   23.2790 H   0  0  0  0  0  0
  -22.4032  -11.9912   22.4986 H   0  0  0  0  0  0
  -21.0961  -13.1087   22.2553 H   0  0  0  0  0  0
  -24.6683  -15.8667   20.5826 H   0  0  0  0  0  0
  -26.2424  -15.6203   20.0350 H   0  0  0  0  0  0
  -26.7283  -32.5259   23.0915 H   0  0  0  0  0  0
  -25.0254  -33.9572   25.0382 H   0  0  0  0  0  0
  -22.7569  -31.2939   21.3908 H   0  0  0  0  0  0
  -23.3804  -35.9497   23.3305 H   0  0  0  0  0  0
  -24.3582  -36.8844   22.2046 H   0  0  0  0  0  0
  -23.7245  -37.6400   23.6640 H   0  0  0  0  0  0
  -26.1943  -31.4722   20.6379 H   0  0  0  0  0  0
  -26.8597  -30.7371   22.0606 H   0  0  0  0  0  0
  -28.1347  -28.7812   21.2386 H   0  0  0  0  0  0
  -25.9194  -25.8489   18.9618 H   0  0  0  0  0  0
  -24.0016  -27.3317   18.9262 H   0  0  0  0  0  0
  -23.8233  -30.5793   19.3954 H   0  0  0  0  0  0
  -22.7908  -29.2496   19.8345 H   0  0  0  0  0  0
  -25.1366  -36.1822   25.0799 H   0  0  0  0  0  0
  -21.0049  -28.3256   24.1351 H   0  0  0  0  0  0
  -20.5781  -26.2271   23.3630 H   0  0  0  0  0  0
  -21.6679  -26.7441   22.1215 H   0  0  0  0  0  0
  -19.6952  -25.6286   21.1237 H   0  0  0  0  0  0
  -19.6716  -27.3196   20.6784 H   0  0  0  0  0  0
  -17.4266  -26.6684   21.3980 H   0  0  0  0  0  0
  -18.0320  -26.0013   22.9009 H   0  0  0  0  0  0
  -19.7953  -30.7259   24.2254 H   0  0  0  0  0  0
  -17.5046  -31.6261   24.5142 H   0  0  0  0  0  0
  -15.5381  -30.2986   23.7665 H   0  0  0  0  0  0
  -15.8693  -28.0800   22.7132 H   0  0  0  0  0  0
  -24.5892  -30.7110   25.7733 H   0  0  0  0  0  0
  -24.8927  -32.2975   26.4722 H   0  0  0  0  0  0
  -25.8044  -30.8999   27.0218 H   0  0  0  0  0  0
  -26.3041  -29.6652   24.1317 H   0  0  0  0  0  0
  -27.4010  -29.7243   25.4903 H   0  0  0  0  0  0
  -27.8954  -30.4150   23.9648 H   0  0  0  0  0  0
  -27.2671  -33.3576   26.1998 H   0  0  0  0  0  0
  -28.3912  -32.6834   25.0315 H   0  0  0  0  0  0
  -28.0688  -31.8416   26.5436 H   0  0  0  0  0  0
  -28.2622  -38.0081   24.7576 H   0  0  0  0  0  0
  -28.1085  -36.2658   24.6220 H   0  0  0  0  0  0
  -27.2293  -37.1386   25.8844 H   0  0  0  0  0  0
  -20.9488  -29.8736   21.6800 H   0  0  0  0  0  0
  -26.0156  -38.2816   24.1439 H   0  0  0  0  0  0
  -27.6505  -22.4427   22.3519 H   0  0  0  0  0  0
  -29.9672  -20.4491   19.3119 H   0  0  0  0  0  0
  -26.8985  -21.3222   24.2344 H   0  0  0  0  0  0
  -28.0617  -20.1417   24.7743 H   0  0  0  0  0  0
  -26.5361  -19.6101   24.0741 H   0  0  0  0  0  0
  -28.9833  -23.0864   18.9817 H   0  0  0  0  0  0
  -29.9890  -23.4990   20.2985 H   0  0  0  0  0  0
  -31.0922  -17.7748   20.9149 H   0  0  0  0  0  0
  -30.3362  -17.8086   19.3804 H   0  0  0  0  0  0
  -27.6978  -24.5006   21.4184 H   0  0  0  0  0  0
  -27.0463  -24.3436   19.8435 H   0  0  0  0  0  0
  -28.7828  -15.9878   20.8781 H   0  0  0  0  0  0
  1 25  1  0  0  0
  1 30  2  0  0  0
  1 81  1  0  0  0
  2  3  1  0  0  0
  2 25  1  0  0  0
  2 83  1  0  0  0
  2 84  1  0  0  0
  3  4  1  0  0  0
  3 85  1  0  0  0
  3 86  1  0  0  0
  4  5  1  0  0  0
  4 87  1  0  0  0
  4 88  1  0  0  0
  5  6  1  0  0  0
  5 26  1  0  0  0
  5 89  1  0  0  0
  6 25  1  0  0  0
  6 90  1  0  0  0
  6 91  1  0  0  0
  7  8  2  0  0  0
  7 26  1  0  0  0
  7 29  1  0  0  0
  8  9  1  0  0  0
  8 22  1  0  0  0
  9 10  1  0  0  0
  9 27  2  0  0  0
 10 11  2  0  0  0
 10 15  1  0  0  0
 11 12  1  0  0  0
 11 92  1  0  0  0
 12 13  2  0  0  0
 12 93  1  0  0  0
 13 14  1  0  0  0
 13 31  1  0  0  0
 14 15  2  0  0  0
 14 94  1  0  0  0
 15 95  1  0  0  0
 16 17  2  0  0  0
 16 21  1  0  0  0
 16 31  1  0  0  0
 17 18  1  0  0  0
 17 96  1  0  0  0
 18 19  2  0  0  0
 18 97  1  0  0  0
 19 20  1  0  0  0
 19 24  1  0  0  0
 20 21  2  0  0  0
 20 98  1  0  0  0
 21 23  1  0  0  0
 22 28  1  0  0  0
 22 32  2  0  0  0
 26 27  1  0  0  0
 28 99  1  0  0  0
 28100  1  0  0  0
 29101  1  0  0  0
 29102  1  0  0  0
 33 34  1  0  0  0
 33 66  1  0  0  0
 33 70  2  0  0  0
 34 36  1  0  0  0
 34 59  1  0  0  0
 34103  1  0  0  0
 35 44  2  0  0  0
 35 45  1  0  0  0
 35 68  1  0  0  0
 36 56  1  0  0  0
 36104  1  0  0  0
 37 39  1  0  0  0
 37 47  1  0  0  0
 37 66  1  0  0  0
 37105  1  0  0  0
 38 43  2  0  0  0
 38 46  1  0  0  0
 38 47  1  0  0  0
 39 64  1  0  0  0
 39 67  2  0  0  0
 40 52  1  0  0  0
 40 53  2  0  0  0
 40 58  1  0  0  0
 41106  1  0  0  0
 41107  1  0  0  0
 41108  1  0  0  0
 41 48  1  0  0  0
 42 43  1  0  0  0
 42 66  1  0  0  0
 42109  1  0  0  0
 42110  1  0  0  0
 43 44  1  0  0  0
 44111  1  0  0  0
 45 46  2  0  0  0
 45112  1  0  0  0
 46113  1  0  0  0
 47114  1  0  0  0
 47115  1  0  0  0
 48 56  1  0  0  0
 48 65  1  0  0  0
 48116  1  0  0  0
 49 50  1  0  0  0
 49 53  1  0  0  0
 49 64  1  0  0  0
 49117  1  0  0  0
 50 51  1  0  0  0
 50118  1  0  0  0
 50119  1  0  0  0
 51 52  1  0  0  0
 51120  1  0  0  0
 51121  1  0  0  0
 52122  1  0  0  0
 52123  1  0  0  0
 53 54  1  0  0  0
 54 55  2  0  0  0
 54124  1  0  0  0
 55 57  1  0  0  0
 55125  1  0  0  0
 56 69  2  0  0  0
 57 58  2  0  0  0
 57126  1  0  0  0
 58127  1  0  0  0
 59 60  1  0  0  0
 59 61  1  0  0  0
 59 62  1  0  0  0
 60128  1  0  0  0
 60129  1  0  0  0
 60130  1  0  0  0
 61131  1  0  0  0
 61132  1  0  0  0
 61133  1  0  0  0
 62134  1  0  0  0
 62135  1  0  0  0
 62136  1  0  0  0
 63 65  1  0  0  0
 63137  1  0  0  0
 63138  1  0  0  0
 63139  1  0  0  0
 64140  1  0  0  0
 65141  1  0  0  0
 68 80  1  0  0  0
 71 73  2  0  0  0
 71 74  1  0  0  0
 71142  1  0  0  0
 72 73  1  0  0  0
 72 75  2  0  0  0
 72143  1  0  0  0
 73 78  1  0  0  0
 74 76  2  0  0  0
 74 77  1  0  0  0
 75 76  1  0  0  0
 75 79  1  0  0  0
 76 82  1  0  0  0
 77144  1  0  0  0
 77145  1  0  0  0
 77146  1  0  0  0
 78 80  1  0  0  0
 78147  1  0  0  0
 78148  1  0  0  0
 79 81  1  0  0  0
 79149  1  0  0  0
 79150  1  0  0  0
 80151  1  0  0  0
 80152  1  0  0  0
 81153  1  0  0  0
M  ISO  4   1 100  68 101  80 101  81 100
M  END
> <chiral flag>
0

> <version>
0

> <s_m_source_file>
/data/baiqing/PycharmProjects/Reinvent-master-3.2/result/LINK_invent/BTK/process_docking_weight1_custom_sum_contain_oxygen_bond_distance_aromatic_linkinvent_7_9_3/rearranged_h_0031.sdf

> <i_m_source_file_index>
67

> <r_mmod_Potential_Energy-OPLS-2005>
519.219970703125

> <r_mmod_Stretch_Energy-OPLS-2005>
285.555572509766

> <r_mmod_Bend_Energy-OPLS-2005>
259.466461181641

> <r_mmod_Torsional_Energy-OPLS-2005>
216.214096069336

> <r_mmod_Improper_Torsional_Energy-OPLS-2005>
5.39691066741943

> <r_mmod_Van_der_Waal_Energy-OPLS-2005>
132.123092651367

> <r_mmod_Electrostatic_Energy-OPLS-2005>
-382.23876953125

> <r_mmod_Solvation_Energy-OPLS-2005>
-202.3466796875

> <b_mmod_Minimization_Converged-OPLS-2005>
0

> <r_mmod_RMS_Derivative-OPLS-2005>
8.49559497833252

$$$$
67
                    3D
 Structure written by MMmdl.
152160  0  0  1  0            999 V2000
  -30.6452  -14.6806   20.4682 C   0  0  0  0  0  0
  -30.4267  -12.4123   19.4737 C   0  0  0  0  0  0
  -29.5082  -12.5007   18.2356 C   0  0  0  0  0  0
  -28.0326  -12.3373   18.6465 C   0  0  0  0  0  0
  -27.6467  -13.2289   19.8574 C   0  0  2  0  0  0
  -28.6905  -13.1416   20.9940 C   0  0  0  0  0  0
  -25.2525  -13.8197   20.5697 C   0  0  0  0  0  0
  -24.1810  -13.0444   20.9202 C   0  0  0  0  0  0
  -24.6396  -11.6921   20.8747 C   0  0  0  0  0  0
  -23.9072  -10.4297   21.0406 C   0  0  0  0  0  0
  -24.3622   -9.4210   21.9183 C   0  0  0  0  0  0
  -23.6296   -8.2246   22.0753 C   0  0  0  0  0  0
  -22.4278   -8.0283   21.3544 C   0  0  0  0  0  0
  -21.9914   -9.0258   20.4646 C   0  0  0  0  0  0
  -22.7244  -10.2137   20.3056 C   0  0  0  0  0  0
  -21.6855   -6.0737   22.5278 C   0  0  0  0  0  0
  -21.4015   -6.5640   23.8212 C   0  0  0  0  0  0
  -21.3660   -5.6793   24.9174 C   0  0  0  0  0  0
  -21.6044   -4.3055   24.7224 C   0  0  0  0  0  0
  -21.8819   -3.8147   23.4345 C   0  0  0  0  0  0
  -21.9193   -4.6964   22.3402 C   0  0  0  0  0  0
  -22.7830  -13.5226   21.1861 C   0  0  0  0  0  0
  -22.1662   -4.2150   21.0979 F   0  0  0  0  0  0
  -21.5628   -3.4539   25.7737 F   0  0  0  0  0  0
  -30.0013  -13.4685   20.4189 N   0  0  0  0  0  0
  -26.2960  -12.9402   20.3311 N   0  0  0  0  0  0
  -25.9329  -11.6545   20.5765 N   0  0  0  0  0  0
  -22.0477  -12.8215   22.0418 N   0  0  0  0  0  0
  -25.4215  -15.1921   20.4107 N   0  0  0  0  0  0
  -31.8213  -14.7761   20.1098 O   0  0  0  0  0  0
  -21.6642   -6.8881   21.4240 O   0  0  0  0  0  0
  -22.3513  -14.5531   20.6708 O   0  0  0  0  0  0
  -24.6292  -31.8583   23.2026 C   0  0  0  0  0  0
  -25.9130  -32.4770   23.8356 C   0  0  1  0  0  0
  -27.2143  -27.2859   20.1178 C   0  0  0  0  0  0
  -25.5937  -33.8573   24.2277 N   0  0  0  0  0  0
  -23.4240  -30.4841   21.5456 C   0  0  2  0  0  0
  -24.8701  -28.9426   20.1064 C   0  0  0  0  0  0
  -22.7493  -29.4618   22.4919 C   0  0  0  0  0  0
  -18.0291  -28.1386   22.8484 C   0  0  0  0  0  0
  -24.1490  -36.7290   23.2639 C   0  0  0  0  0  0
  -25.9698  -30.7773   21.3822 C   0  0  0  0  0  0
  -26.0411  -29.4042   20.7206 C   0  0  0  0  0  0
  -27.2149  -28.5865   20.7212 C   0  0  0  0  0  0
  -26.0241  -26.9037   19.4524 C   0  0  0  0  0  0
  -24.8660  -27.6992   19.4619 C   0  0  0  0  0  0
  -23.6402  -29.8255   20.1590 C   0  0  0  0  0  0
  -25.4116  -36.3079   24.0327 C   0  0  1  0  0  0
  -20.5894  -28.3696   23.1271 C   0  0  2  0  0  0
  -20.6780  -26.9415   22.5406 C   0  0  0  0  0  0
  -19.5753  -26.6384   21.5211 C   0  0  0  0  0  0
  -18.1934  -26.7928   22.1625 C   0  0  0  0  0  0
  -19.1544  -28.8858   23.2873 C   0  0  0  0  0  0
  -18.9466  -30.1459   23.8891 C   0  0  0  0  0  0
  -17.6465  -30.6587   24.0563 C   0  0  0  0  0  0
  -25.9055  -34.9447   23.5101 C   0  0  0  0  0  0
  -16.5356  -29.9085   23.6331 C   0  0  0  0  0  0
  -16.7277  -28.6503   23.0352 C   0  0  0  0  0  0
  -26.4503  -31.6587   25.0736 C   0  0  0  0  0  0
  -25.3727  -31.3733   26.1455 C   0  0  0  0  0  0
  -27.0352  -30.3004   24.6217 C   0  0  0  0  0  0
  -27.6056  -32.4328   25.7509 C   0  0  0  0  0  0
  -27.5579  -37.1803   24.8465 C   0  0  0  0  0  0
  -21.4202  -29.3047   22.3663 N   0  0  0  0  0  0
  -26.4293  -37.3774   23.9406 N   0  0  0  0  0  0
  -24.6932  -31.0569   22.0996 N   0  0  0  0  0  0
  -23.4205  -28.8148   23.3001 O   0  0  0  0  0  0
  -28.2981  -26.3825   20.2087 O   0  0  0  0  0  0
  -26.5622  -34.8916   22.4667 O   0  0  0  0  0  0
  -23.5447  -32.1398   23.7333 O   0  0  0  0  0  0
  -28.8855  -22.4214   20.0192 C   0  0  0  0  0  0
  -29.7092  -23.9892   21.6475 C   0  0  0  0  0  0
  -28.9141  -23.7779   20.5124 C   0  0  0  0  0  0
  -29.6490  -21.3602   20.6315 C   0  0  0  0  0  0
  -30.4240  -21.7578   21.7470 C   0  0  0  0  0  0
  -29.8095  -19.9103   20.0001 C   0  0  0  0  0  0
  -28.0298  -24.9397   19.9176 C   0  0  0  0  0  0
  -29.5154  -18.5288   20.7796 C   0  0  0  0  0  0
  -30.2713  -17.2221   20.2212 C   0  0  0  0  0  0
  -30.4362  -23.0174   22.2417 N   0  0  0  0  0  0
  -29.8978  -15.8207   20.6784 N   0  0  0  0  0  0
  -31.4888  -20.6403   22.5207 Cl  0  0  0  0  0  0
  -31.4711  -12.5155   19.1744 H   0  0  0  0  0  0
  -30.3484  -11.4305   19.9432 H   0  0  0  0  0  0
  -29.7803  -11.7354   17.5075 H   0  0  0  0  0  0
  -29.6486  -13.4616   17.7378 H   0  0  0  0  0  0
  -27.8776  -11.2873   18.8974 H   0  0  0  0  0  0
  -27.3781  -12.5459   17.7993 H   0  0  0  0  0  0
  -27.6495  -14.2549   19.4888 H   0  0  0  0  0  0
  -28.7071  -12.1418   21.4302 H   0  0  0  0  0  0
  -28.4365  -13.8247   21.8060 H   0  0  0  0  0  0
  -25.2766   -9.5686   22.4758 H   0  0  0  0  0  0
  -24.0006   -7.4637   22.7472 H   0  0  0  0  0  0
  -21.0846   -8.8777   19.8951 H   0  0  0  0  0  0
  -22.3702  -10.9676   19.6165 H   0  0  0  0  0  0
  -21.2008   -7.6148   23.9716 H   0  0  0  0  0  0
  -21.1482   -6.0523   25.9077 H   0  0  0  0  0  0
  -22.0598   -2.7610   23.2845 H   0  0  0  0  0  0
  -22.4099  -11.9880   22.4808 H   0  0  0  0  0  0
  -21.1093  -13.1234   22.2622 H   0  0  0  0  0  0
  -24.6526  -15.8447   20.5189 H   0  0  0  0  0  0
  -26.2675  -15.6323   20.0720 H   0  0  0  0  0  0
  -26.7195  -32.5426   23.1098 H   0  0  0  0  0  0
  -25.0084  -33.9716   25.0422 H   0  0  0  0  0  0
  -22.7192  -31.3062   21.4045 H   0  0  0  0  0  0
  -23.3752  -35.9623   23.3303 H   0  0  0  0  0  0
  -24.3581  -36.8909   22.2052 H   0  0  0  0  0  0
  -23.7245  -37.6493   23.6660 H   0  0  0  0  0  0
  -26.1096  -31.5410   20.6158 H   0  0  0  0  0  0
  -26.8473  -30.8218   22.0155 H   0  0  0  0  0  0
  -28.1063  -28.9297   21.2274 H   0  0  0  0  0  0
  -25.9455  -25.9653   18.9249 H   0  0  0  0  0  0
  -23.9729  -27.3454   18.9652 H   0  0  0  0  0  0
  -23.7623  -30.6055   19.4066 H   0  0  0  0  0  0
  -22.7588  -29.2589   19.8529 H   0  0  0  0  0  0
  -25.1297  -36.1930   25.0820 H   0  0  0  0  0  0
  -20.9987  -28.3273   24.1391 H   0  0  0  0  0  0
  -20.5682  -26.2306   23.3609 H   0  0  0  0  0  0
  -21.6647  -26.7442   22.1198 H   0  0  0  0  0  0
  -19.6916  -25.6294   21.1243 H   0  0  0  0  0  0
  -19.6689  -27.3192   20.6738 H   0  0  0  0  0  0
  -17.4203  -26.6673   21.4030 H   0  0  0  0  0  0
  -18.0338  -26.0072   22.9024 H   0  0  0  0  0  0
  -19.7942  -30.7277   24.2258 H   0  0  0  0  0  0
  -17.5019  -31.6267   24.5166 H   0  0  0  0  0  0
  -15.5356  -30.2985   23.7658 H   0  0  0  0  0  0
  -15.8677  -28.0821   22.7069 H   0  0  0  0  0  0
  -24.5907  -30.7075   25.7784 H   0  0  0  0  0  0
  -24.8911  -32.2900   26.4867 H   0  0  0  0  0  0
  -25.8044  -30.8921   27.0240 H   0  0  0  0  0  0
  -26.2938  -29.6751   24.1229 H   0  0  0  0  0  0
  -27.4021  -29.7267   25.4738 H   0  0  0  0  0  0
  -27.8822  -30.4280   23.9473 H   0  0  0  0  0  0
  -27.2662  -33.3630   26.2078 H   0  0  0  0  0  0
  -28.3871  -32.6885   25.0341 H   0  0  0  0  0  0
  -28.0719  -31.8460   26.5433 H   0  0  0  0  0  0
  -28.2599  -38.0097   24.7508 H   0  0  0  0  0  0
  -28.1073  -36.2628   24.6299 H   0  0  0  0  0  0
  -27.2295  -37.1460   25.8868 H   0  0  0  0  0  0
  -20.9382  -29.8780   21.6880 H   0  0  0  0  0  0
  -26.0173  -38.2850   24.1402 H   0  0  0  0  0  0
  -28.2889  -22.1996   19.1460 H   0  0  0  0  0  0
  -29.7609  -24.9665   22.1045 H   0  0  0  0  0  0
  -30.8502  -19.8690   19.6757 H   0  0  0  0  0  0
  -29.2397  -19.8923   19.0705 H   0  0  0  0  0  0
  -27.0355  -24.6851   20.2860 H   0  0  0  0  0  0
  -28.0053  -24.8141   18.8343 H   0  0  0  0  0  0
  -28.4384  -18.3585   20.7801 H   0  0  0  0  0  0
  -29.7870  -18.6335   21.8287 H   0  0  0  0  0  0
  -31.3396  -17.3609   20.3961 H   0  0  0  0  0  0
  -30.1612  -17.2183   19.1358 H   0  0  0  0  0  0
  -28.9406  -15.6734   20.9625 H   0  0  0  0  0  0
  1 25  1  0  0  0
  1 30  2  0  0  0
  1 81  1  0  0  0
  2  3  1  0  0  0
  2 25  1  0  0  0
  2 83  1  0  0  0
  2 84  1  0  0  0
  3  4  1  0  0  0
  3 85  1  0  0  0
  3 86  1  0  0  0
  4  5  1  0  0  0
  4 87  1  0  0  0
  4 88  1  0  0  0
  5  6  1  0  0  0
  5 26  1  0  0  0
  5 89  1  0  0  0
  6 25  1  0  0  0
  6 90  1  0  0  0
  6 91  1  0  0  0
  7  8  2  0  0  0
  7 26  1  0  0  0
  7 29  1  0  0  0
  8  9  1  0  0  0
  8 22  1  0  0  0
  9 10  1  0  0  0
  9 27  2  0  0  0
 10 11  2  0  0  0
 10 15  1  0  0  0
 11 12  1  0  0  0
 11 92  1  0  0  0
 12 13  2  0  0  0
 12 93  1  0  0  0
 13 14  1  0  0  0
 13 31  1  0  0  0
 14 15  2  0  0  0
 14 94  1  0  0  0
 15 95  1  0  0  0
 16 17  2  0  0  0
 16 21  1  0  0  0
 16 31  1  0  0  0
 17 18  1  0  0  0
 17 96  1  0  0  0
 18 19  2  0  0  0
 18 97  1  0  0  0
 19 20  1  0  0  0
 19 24  1  0  0  0
 20 21  2  0  0  0
 20 98  1  0  0  0
 21 23  1  0  0  0
 22 28  1  0  0  0
 22 32  2  0  0  0
 26 27  1  0  0  0
 28 99  1  0  0  0
 28100  1  0  0  0
 29101  1  0  0  0
 29102  1  0  0  0
 33 34  1  0  0  0
 33 66  1  0  0  0
 33 70  2  0  0  0
 34 36  1  0  0  0
 34 59  1  0  0  0
 34103  1  0  0  0
 35 44  2  0  0  0
 35 45  1  0  0  0
 35 68  1  0  0  0
 36 56  1  0  0  0
 36104  1  0  0  0
 37 39  1  0  0  0
 37 47  1  0  0  0
 37 66  1  0  0  0
 37105  1  0  0  0
 38 43  2  0  0  0
 38 46  1  0  0  0
 38 47  1  0  0  0
 39 64  1  0  0  0
 39 67  2  0  0  0
 40 52  1  0  0  0
 40 53  2  0  0  0
 40 58  1  0  0  0
 41106  1  0  0  0
 41107  1  0  0  0
 41108  1  0  0  0
 41 48  1  0  0  0
 42 43  1  0  0  0
 42 66  1  0  0  0
 42109  1  0  0  0
 42110  1  0  0  0
 43 44  1  0  0  0
 44111  1  0  0  0
 45 46  2  0  0  0
 45112  1  0  0  0
 46113  1  0  0  0
 47114  1  0  0  0
 47115  1  0  0  0
 48 56  1  0  0  0
 48 65  1  0  0  0
 48116  1  0  0  0
 49 50  1  0  0  0
 49 53  1  0  0  0
 49 64  1  0  0  0
 49117  1  0  0  0
 50 51  1  0  0  0
 50118  1  0  0  0
 50119  1  0  0  0
 51 52  1  0  0  0
 51120  1  0  0  0
 51121  1  0  0  0
 52122  1  0  0  0
 52123  1  0  0  0
 53 54  1  0  0  0
 54 55  2  0  0  0
 54124  1  0  0  0
 55 57  1  0  0  0
 55125  1  0  0  0
 56 69  2  0  0  0
 57 58  2  0  0  0
 57126  1  0  0  0
 58127  1  0  0  0
 59 60  1  0  0  0
 59 61  1  0  0  0
 59 62  1  0  0  0
 60128  1  0  0  0
 60129  1  0  0  0
 60130  1  0  0  0
 61131  1  0  0  0
 61132  1  0  0  0
 61133  1  0  0  0
 62134  1  0  0  0
 62135  1  0  0  0
 62136  1  0  0  0
 63 65  1  0  0  0
 63137  1  0  0  0
 63138  1  0  0  0
 63139  1  0  0  0
 64140  1  0  0  0
 65141  1  0  0  0
 68 77  1  0  0  0
 71 73  2  0  0  0
 71 74  1  0  0  0
 71142  1  0  0  0
 72 73  1  0  0  0
 72 80  2  0  0  0
 72143  1  0  0  0
 73 77  1  0  0  0
 74 75  2  0  0  0
 74 76  1  0  0  0
 75 80  1  0  0  0
 75 82  1  0  0  0
 76 78  1  0  0  0
 76144  1  0  0  0
 76145  1  0  0  0
 77146  1  0  0  0
 77147  1  0  0  0
 78 79  1  0  0  0
 78148  1  0  0  0
 78149  1  0  0  0
 79 81  1  0  0  0
 79150  1  0  0  0
 79151  1  0  0  0
 81152  1  0  0  0
M  ISO  4   1 100  68 101  77 101  81 100
M  END
> <chiral flag>
0

> <version>
0

> <s_m_source_file>
/data/baiqing/PycharmProjects/Reinvent-master-3.2/result/LINK_invent/BTK/process_docking_weight1_custom_sum_contain_oxygen_bond_distance_aromatic_linkinvent_7_9_3/rearranged_h_0031.sdf

> <i_m_source_file_index>
68

> <r_mmod_Potential_Energy-OPLS-2005>
-28.026969909668

> <r_mmod_Stretch_Energy-OPLS-2005>
100.103866577148

> <r_mmod_Bend_Energy-OPLS-2005>
149.72021484375

> <r_mmod_Torsional_Energy-OPLS-2005>
216.398132324219

> <r_mmod_Improper_Torsional_Energy-OPLS-2005>
7.64794588088989

> <r_mmod_Van_der_Waal_Energy-OPLS-2005>
146.649475097656

> <r_mmod_Electrostatic_Energy-OPLS-2005>
-495.992065429688

> <r_mmod_Solvation_Energy-OPLS-2005>
-221.378234863281

> <b_mmod_Minimization_Converged-OPLS-2005>
0

> <r_mmod_RMS_Derivative-OPLS-2005>
0.0818099677562714

$$$$
68
                    3D
 Structure written by MMmdl.
147155  0  0  1  0            999 V2000
  -30.4328  -15.1903   20.3868 C   0  0  0  0  0  0
  -30.4563  -12.7575   19.5130 C   0  0  0  0  0  0
  -29.5458  -12.5778   18.2713 C   0  0  0  0  0  0
  -28.0835  -12.3142   18.6869 C   0  0  0  0  0  0
  -27.6171  -13.2692   19.8163 C   0  0  2  0  0  0
  -28.6552  -13.3836   20.9528 C   0  0  0  0  0  0
  -25.2378  -13.8172   20.5692 C   0  0  0  0  0  0
  -24.1738  -13.0375   20.9233 C   0  0  0  0  0  0
  -24.6402  -11.6883   20.8719 C   0  0  0  0  0  0
  -23.9083  -10.4259   21.0387 C   0  0  0  0  0  0
  -24.3622   -9.4181   21.9173 C   0  0  0  0  0  0
  -23.6293   -8.2223   22.0754 C   0  0  0  0  0  0
  -22.4277   -8.0260   21.3541 C   0  0  0  0  0  0
  -21.9912   -9.0226   20.4640 C   0  0  0  0  0  0
  -22.7249  -10.2100   20.3041 C   0  0  0  0  0  0
  -21.6847   -6.0722   22.5274 C   0  0  0  0  0  0
  -21.4007   -6.5621   23.8209 C   0  0  0  0  0  0
  -21.3665   -5.6773   24.9165 C   0  0  0  0  0  0
  -21.6053   -4.3040   24.7214 C   0  0  0  0  0  0
  -21.8819   -3.8132   23.4334 C   0  0  0  0  0  0
  -21.9183   -4.6947   22.3388 C   0  0  0  0  0  0
  -22.7753  -13.5151   21.1863 C   0  0  0  0  0  0
  -22.1654   -4.2139   21.0964 F   0  0  0  0  0  0
  -21.5638   -3.4519   25.7727 F   0  0  0  0  0  0
  -29.8996  -13.8792   20.3434 N   0  0  0  0  0  0
  -26.2828  -12.9479   20.3121 N   0  0  0  0  0  0
  -25.9345  -11.6588   20.5661 N   0  0  0  0  0  0
  -22.0367  -12.8204   22.0437 N   0  0  0  0  0  0
  -25.3892  -15.1895   20.4155 N   0  0  0  0  0  0
  -31.6524  -15.2511   20.1830 O   0  0  0  0  0  0
  -21.6625   -6.8870   21.4246 O   0  0  0  0  0  0
  -22.3449  -14.5429   20.6642 O   0  0  0  0  0  0
  -24.6578  -31.8280   23.1739 C   0  0  0  0  0  0
  -25.9277  -32.4617   23.8199 C   0  0  1  0  0  0
  -27.2231  -26.9828   20.1846 C   0  0  0  0  0  0
  -25.5969  -33.8434   24.2110 N   0  0  0  0  0  0
  -23.4701  -30.4379   21.5226 C   0  0  2  0  0  0
  -24.9250  -28.8355   20.1100 C   0  0  0  0  0  0
  -22.7635  -29.4449   22.4806 C   0  0  0  0  0  0
  -18.0299  -28.1416   22.8463 C   0  0  0  0  0  0
  -24.1496  -36.7233   23.2642 C   0  0  0  0  0  0
  -26.0349  -30.6531   21.3951 C   0  0  0  0  0  0
  -26.1044  -29.2472   20.7428 C   0  0  0  0  0  0
  -27.2496  -28.3408   20.7553 C   0  0  0  0  0  0
  -26.0176  -26.7071   19.5034 C   0  0  0  0  0  0
  -24.9035  -27.5841   19.4712 C   0  0  0  0  0  0
  -23.7060  -29.7533   20.1478 C   0  0  0  0  0  0
  -25.4139  -36.3007   24.0302 C   0  0  1  0  0  0
  -20.5928  -28.3755   23.1211 C   0  0  2  0  0  0
  -20.6803  -26.9447   22.5409 C   0  0  0  0  0  0
  -19.5786  -26.6382   21.5219 C   0  0  0  0  0  0
  -18.1954  -26.7949   22.1616 C   0  0  0  0  0  0
  -19.1561  -28.8902   23.2820 C   0  0  0  0  0  0
  -18.9476  -30.1498   23.8837 C   0  0  0  0  0  0
  -17.6474  -30.6604   24.0560 C   0  0  0  0  0  0
  -25.9095  -34.9375   23.5030 C   0  0  0  0  0  0
  -16.5364  -29.9095   23.6353 C   0  0  0  0  0  0
  -16.7282  -28.6523   23.0359 C   0  0  0  0  0  0
  -26.4553  -31.6541   25.0703 C   0  0  0  0  0  0
  -25.3703  -31.3759   26.1371 C   0  0  0  0  0  0
  -27.0430  -30.2913   24.6395 C   0  0  0  0  0  0
  -27.6062  -32.4324   25.7500 C   0  0  0  0  0  0
  -27.5577  -37.1781   24.8464 C   0  0  0  0  0  0
  -21.4308  -29.3033   22.3548 N   0  0  0  0  0  0
  -26.4300  -37.3726   23.9389 N   0  0  0  0  0  0
  -24.7416  -30.9997   22.0842 N   0  0  0  0  0  0
  -23.4200  -28.8012   23.3027 O   0  0  0  0  0  0
  -28.2455  -25.9197   20.2818 O   0  0  0  0  0  0
  -26.5703  -34.8899   22.4623 O   0  0  0  0  0  0
  -23.5661  -32.1211   23.6876 O   0  0  0  0  0  0
  -28.1656  -20.2279   20.0456 C   0  0  0  0  0  0
  -30.5186  -18.9762   20.7710 C   0  0  0  0  0  0
  -29.1456  -21.2243   20.4335 C   0  0  0  0  0  0
  -29.5328  -17.9814   20.3966 C   0  0  0  0  0  0
  -28.3437  -18.7518   20.0302 C   0  0  0  0  0  0
  -30.3388  -20.4508   20.7935 C   0  0  0  0  0  0
  -29.0488  -22.9555   20.6067 C   0  0  0  0  0  0
  -28.0548  -24.3153   20.0654 C   0  0  0  0  0  0
  -29.5664  -16.3741   20.4343 N   0  0  0  0  0  0
  -26.9785  -17.8374   19.5079 Cl  0  0  0  0  0  0
  -31.7074  -21.3489   21.3468 Cl  0  0  0  0  0  0
  -31.4762  -12.9723   19.1895 H   0  0  0  0  0  0
  -30.5187  -11.8357   20.0946 H   0  0  0  0  0  0
  -29.9174  -11.7685   17.6411 H   0  0  0  0  0  0
  -29.5899  -13.4853   17.6664 H   0  0  0  0  0  0
  -28.0199  -11.2811   19.0319 H   0  0  0  0  0  0
  -27.4263  -12.3904   17.8192 H   0  0  0  0  0  0
  -27.5454  -14.2511   19.3460 H   0  0  0  0  0  0
  -28.8020  -12.4255   21.4539 H   0  0  0  0  0  0
  -28.3106  -14.0836   21.7150 H   0  0  0  0  0  0
  -25.2779   -9.5652   22.4733 H   0  0  0  0  0  0
  -23.9981   -7.4631   22.7502 H   0  0  0  0  0  0
  -21.0829   -8.8745   19.8973 H   0  0  0  0  0  0
  -22.3715  -10.9615   19.6126 H   0  0  0  0  0  0
  -21.2004   -7.6133   23.9711 H   0  0  0  0  0  0
  -21.1498   -6.0500   25.9074 H   0  0  0  0  0  0
  -22.0603   -2.7593   23.2822 H   0  0  0  0  0  0
  -22.3963  -11.9926   22.4950 H   0  0  0  0  0  0
  -21.0962  -13.1262   22.2521 H   0  0  0  0  0  0
  -24.5970  -15.8151   20.5118 H   0  0  0  0  0  0
  -26.2001  -15.6520   20.0249 H   0  0  0  0  0  0
  -26.7342  -32.5175   23.0917 H   0  0  0  0  0  0
  -25.0086  -33.9524   25.0242 H   0  0  0  0  0  0
  -22.7810  -31.2677   21.3532 H   0  0  0  0  0  0
  -23.3775  -35.9548   23.3302 H   0  0  0  0  0  0
  -24.3564  -36.8880   22.2055 H   0  0  0  0  0  0
  -23.7239  -37.6417   23.6696 H   0  0  0  0  0  0
  -26.2080  -31.3953   20.6145 H   0  0  0  0  0  0
  -26.8982  -30.7102   22.0465 H   0  0  0  0  0  0
  -28.1430  -28.6524   21.2787 H   0  0  0  0  0  0
  -25.9078  -25.7488   19.0178 H   0  0  0  0  0  0
  -24.0064  -27.2621   18.9589 H   0  0  0  0  0  0
  -23.8509  -30.5183   19.3842 H   0  0  0  0  0  0
  -22.8201  -29.1965   19.8375 H   0  0  0  0  0  0
  -25.1337  -36.1828   25.0795 H   0  0  0  0  0  0
  -20.9999  -28.3361   24.1348 H   0  0  0  0  0  0
  -20.5731  -26.2353   23.3630 H   0  0  0  0  0  0
  -21.6669  -26.7466   22.1197 H   0  0  0  0  0  0
  -19.6968  -25.6283   21.1284 H   0  0  0  0  0  0
  -19.6751  -27.3161   20.6730 H   0  0  0  0  0  0
  -17.4240  -26.6668   21.4011 H   0  0  0  0  0  0
  -18.0363  -26.0096   22.9018 H   0  0  0  0  0  0
  -19.7949  -30.7332   24.2172 H   0  0  0  0  0  0
  -17.5031  -31.6276   24.5185 H   0  0  0  0  0  0
  -15.5375  -30.2996   23.7715 H   0  0  0  0  0  0
  -15.8675  -28.0844   22.7112 H   0  0  0  0  0  0
  -24.5906  -30.7087   25.7672 H   0  0  0  0  0  0
  -24.8875  -32.2949   26.4706 H   0  0  0  0  0  0
  -25.7965  -30.8981   27.0205 H   0  0  0  0  0  0
  -26.3072  -29.6602   24.1401 H   0  0  0  0  0  0
  -27.3966  -29.7261   25.5029 H   0  0  0  0  0  0
  -27.9019  -30.4090   23.9787 H   0  0  0  0  0  0
  -27.2651  -33.3662   26.1982 H   0  0  0  0  0  0
  -28.3935  -32.6817   25.0373 H   0  0  0  0  0  0
  -28.0669  -31.8510   26.5498 H   0  0  0  0  0  0
  -28.2601  -38.0071   24.7512 H   0  0  0  0  0  0
  -28.1078  -36.2608   24.6317 H   0  0  0  0  0  0
  -27.2291  -37.1449   25.8864 H   0  0  0  0  0  0
  -20.9557  -29.8682   21.6647 H   0  0  0  0  0  0
  -26.0172  -38.2801   24.1368 H   0  0  0  0  0  0
  -27.1941  -20.5966   19.7496 H   0  0  0  0  0  0
  -31.4790  -18.6030   21.0951 H   0  0  0  0  0  0
  -30.0468  -23.2731   20.3109 H   0  0  0  0  0  0
  -29.0556  -23.0694   21.6903 H   0  0  0  0  0  0
  -27.0454  -24.0968   20.4138 H   0  0  0  0  0  0
  -27.9967  -24.2121   18.9822 H   0  0  0  0  0  0
  -28.6169  -16.0315   20.4408 H   0  0  0  0  0  0
  1 25  1  0  0  0
  1 30  2  0  0  0
  1 79  1  0  0  0
  2  3  1  0  0  0
  2 25  1  0  0  0
  2 82  1  0  0  0
  2 83  1  0  0  0
  3  4  1  0  0  0
  3 84  1  0  0  0
  3 85  1  0  0  0
  4  5  1  0  0  0
  4 86  1  0  0  0
  4 87  1  0  0  0
  5  6  1  0  0  0
  5 26  1  0  0  0
  5 88  1  0  0  0
  6 25  1  0  0  0
  6 89  1  0  0  0
  6 90  1  0  0  0
  7  8  2  0  0  0
  7 26  1  0  0  0
  7 29  1  0  0  0
  8  9  1  0  0  0
  8 22  1  0  0  0
  9 10  1  0  0  0
  9 27  2  0  0  0
 10 11  2  0  0  0
 10 15  1  0  0  0
 11 12  1  0  0  0
 11 91  1  0  0  0
 12 13  2  0  0  0
 12 92  1  0  0  0
 13 14  1  0  0  0
 13 31  1  0  0  0
 14 15  2  0  0  0
 14 93  1  0  0  0
 15 94  1  0  0  0
 16 17  2  0  0  0
 16 21  1  0  0  0
 16 31  1  0  0  0
 17 18  1  0  0  0
 17 95  1  0  0  0
 18 19  2  0  0  0
 18 96  1  0  0  0
 19 20  1  0  0  0
 19 24  1  0  0  0
 20 21  2  0  0  0
 20 97  1  0  0  0
 21 23  1  0  0  0
 22 28  1  0  0  0
 22 32  2  0  0  0
 26 27  1  0  0  0
 28 98  1  0  0  0
 28 99  1  0  0  0
 29100  1  0  0  0
 29101  1  0  0  0
 33 34  1  0  0  0
 33 66  1  0  0  0
 33 70  2  0  0  0
 34 36  1  0  0  0
 34 59  1  0  0  0
 34102  1  0  0  0
 35 44  2  0  0  0
 35 45  1  0  0  0
 35 68  1  0  0  0
 36 56  1  0  0  0
 36103  1  0  0  0
 37 39  1  0  0  0
 37 47  1  0  0  0
 37 66  1  0  0  0
 37104  1  0  0  0
 38 43  2  0  0  0
 38 46  1  0  0  0
 38 47  1  0  0  0
 39 64  1  0  0  0
 39 67  2  0  0  0
 40 52  1  0  0  0
 40 53  2  0  0  0
 40 58  1  0  0  0
 41105  1  0  0  0
 41106  1  0  0  0
 41107  1  0  0  0
 41 48  1  0  0  0
 42 43  1  0  0  0
 42 66  1  0  0  0
 42108  1  0  0  0
 42109  1  0  0  0
 43 44  1  0  0  0
 44110  1  0  0  0
 45 46  2  0  0  0
 45111  1  0  0  0
 46112  1  0  0  0
 47113  1  0  0  0
 47114  1  0  0  0
 48 56  1  0  0  0
 48 65  1  0  0  0
 48115  1  0  0  0
 49 50  1  0  0  0
 49 53  1  0  0  0
 49 64  1  0  0  0
 49116  1  0  0  0
 50 51  1  0  0  0
 50117  1  0  0  0
 50118  1  0  0  0
 51 52  1  0  0  0
 51119  1  0  0  0
 51120  1  0  0  0
 52121  1  0  0  0
 52122  1  0  0  0
 53 54  1  0  0  0
 54 55  2  0  0  0
 54123  1  0  0  0
 55 57  1  0  0  0
 55124  1  0  0  0
 56 69  2  0  0  0
 57 58  2  0  0  0
 57125  1  0  0  0
 58126  1  0  0  0
 59 60  1  0  0  0
 59 61  1  0  0  0
 59 62  1  0  0  0
 60127  1  0  0  0
 60128  1  0  0  0
 60129  1  0  0  0
 61130  1  0  0  0
 61131  1  0  0  0
 61132  1  0  0  0
 62133  1  0  0  0
 62134  1  0  0  0
 62135  1  0  0  0
 63 65  1  0  0  0
 63136  1  0  0  0
 63137  1  0  0  0
 63138  1  0  0  0
 64139  1  0  0  0
 65140  1  0  0  0
 68 78  1  0  0  0
 71 73  2  0  0  0
 71 75  1  0  0  0
 71141  1  0  0  0
 72 74  1  0  0  0
 72 76  2  0  0  0
 72142  1  0  0  0
 73 76  1  0  0  0
 73 77  1  0  0  0
 74 75  2  0  0  0
 74 79  1  0  0  0
 75 80  1  0  0  0
 76 81  1  0  0  0
 77 78  1  0  0  0
 77143  1  0  0  0
 77144  1  0  0  0
 78145  1  0  0  0
 78146  1  0  0  0
 79147  1  0  0  0
M  ISO  4   1 100  68 101  78 101  79 100
M  END
> <chiral flag>
0

> <version>
0

> <s_m_source_file>
/data/baiqing/PycharmProjects/Reinvent-master-3.2/result/LINK_invent/BTK/process_docking_weight1_custom_sum_contain_oxygen_bond_distance_aromatic_linkinvent_7_9_3/rearranged_h_0031.sdf

> <i_m_source_file_index>
69

> <r_mmod_Potential_Energy-OPLS-2005>
1002.19122314453

> <r_mmod_Stretch_Energy-OPLS-2005>
450.683197021484

> <r_mmod_Bend_Energy-OPLS-2005>
415.337677001953

> <r_mmod_Torsional_Energy-OPLS-2005>
216.207763671875

> <r_mmod_Improper_Torsional_Energy-OPLS-2005>
5.68010663986206

> <r_mmod_Van_der_Waal_Energy-OPLS-2005>
124.128570556641

> <r_mmod_Electrostatic_Energy-OPLS-2005>
-390.233703613281

> <r_mmod_Solvation_Energy-OPLS-2005>
-204.531982421875

> <b_mmod_Minimization_Converged-OPLS-2005>
0

> <r_mmod_RMS_Derivative-OPLS-2005>
2.39136981964111

$$$$
69
                    3D
 Structure written by MMmdl.
168177  0  0  1  0            999 V2000
  -30.9915  -14.5332   19.5886 C   0  0  0  0  0  0
  -30.6499  -12.2014   19.6965 C   0  0  0  0  0  0
  -29.7675  -12.0796   18.4821 C   0  0  0  0  0  0
  -28.4220  -12.6769   18.8793 C   0  0  0  0  0  0
  -28.1321  -14.1536   19.7876 C   0  0  2  0  0  0
  -29.1494  -13.7836   20.9554 C   0  0  0  0  0  0
  -24.6159  -15.7505   20.5723 C   0  0  0  0  0  0
  -23.8552  -14.3328   21.0470 C   0  0  0  0  0  0
  -24.7531  -13.0258   20.9721 C   0  0  0  0  0  0
  -23.9753  -11.3134   21.1462 C   0  0  0  0  0  0
  -24.2930  -10.1474   22.0380 C   0  0  0  0  0  0
  -23.6971   -8.8034   22.1393 C   0  0  0  0  0  0
  -22.5803   -8.3932   21.3673 C   0  0  0  0  0  0
  -22.2276   -9.4181   20.4403 C   0  0  0  0  0  0
  -22.8884  -10.7298   20.3322 C   0  0  0  0  0  0
  -21.8171   -6.2411   22.4918 C   0  0  0  0  0  0
  -21.4915   -6.6675   23.8024 C   0  0  0  0  0  0
  -21.3885   -5.7488   24.8764 C   0  0  0  0  0  0
  -21.5998   -4.3731   24.6668 C   0  0  0  0  0  0
  -21.8725   -3.9176   23.3668 C   0  0  0  0  0  0
  -21.9625   -4.8327   22.2918 C   0  0  0  0  0  0
  -22.4366  -14.0557   21.2298 C   0  0  0  0  0  0
  -22.1890   -4.3297   21.0542 F   0  0  0  0  0  0
  -21.5404   -3.4993   25.7046 F   0  0  0  0  0  0
  -30.3966  -13.5270   20.2451 N   0  0  0  0  0  0
  -26.8509  -15.2118   20.0112 N   0  0  0  0  0  0
  -26.7625  -13.6490   20.3286 N   0  0  0  0  0  0
  -22.0106  -13.1327   22.0993 N   0  0  0  0  0  0
  -24.0238  -16.8849   20.6523 N   0  0  0  0  0  0
  -32.0049  -15.0084   20.0722 O   0  0  0  0  0  0
  -21.8914   -7.1421   21.4108 O   0  0  0  0  0  0
  -21.6931  -14.7081   20.5420 O   0  0  0  0  0  0
  -24.8226  -31.5449   23.0258 C   0  0  0  0  0  0
  -25.9979  -32.3264   23.7304 C   0  0  1  0  0  0
  -26.3961  -24.6484   20.4823 C   0  0  0  0  0  0
  -25.5877  -33.7252   24.0906 N   0  0  0  0  0  0
  -23.6699  -30.1040   21.4264 C   0  0  2  0  0  0
  -24.9381  -27.9946   20.1632 C   0  0  0  0  0  0
  -22.8037  -29.3058   22.4389 C   0  0  0  0  0  0
  -18.0319  -28.1444   22.8395 C   0  0  0  0  0  0
  -24.1478  -36.6653   23.2711 C   0  0  0  0  0  0
  -26.1881  -29.5309   21.6150 C   0  0  0  0  0  0
  -26.0490  -27.8939   20.9910 C   0  0  0  0  0  0
  -26.7151  -26.3258   21.0702 C   0  0  0  0  0  0
  -25.5110  -25.4424   19.5273 C   0  0  0  0  0  0
  -24.8360  -26.7950   19.3932 C   0  0  0  0  0  0
  -23.9552  -29.2556   20.1138 C   0  0  0  0  0  0
  -25.4179  -36.2227   24.0177 C   0  0  1  0  0  0
  -20.5953  -28.3768   23.0969 C   0  0  2  0  0  0
  -20.6654  -26.9316   22.5496 C   0  0  0  0  0  0
  -19.5713  -26.6274   21.5227 C   0  0  0  0  0  0
  -18.1886  -26.7955   22.1567 C   0  0  0  0  0  0
  -19.1611  -28.8974   23.2623 C   0  0  0  0  0  0
  -18.9553  -30.1534   23.8722 C   0  0  0  0  0  0
  -17.6549  -30.6621   24.0524 C   0  0  0  0  0  0
  -25.9236  -34.8645   23.4562 C   0  0  0  0  0  0
  -16.5418  -29.9106   23.6369 C   0  0  0  0  0  0
  -16.7310  -28.6520   23.0392 C   0  0  0  0  0  0
  -26.4817  -31.6264   25.0615 C   0  0  0  0  0  0
  -25.3583  -31.3985   26.1036 C   0  0  0  0  0  0
  -27.1079  -30.2589   24.7582 C   0  0  0  0  0  0
  -27.5938  -32.4638   25.7395 C   0  0  0  0  0  0
  -27.5495  -37.1436   24.8460 C   0  0  0  0  0  0
  -21.4624  -29.2673   22.3088 N   0  0  0  0  0  0
  -26.4153  -37.3197   23.9439 N   0  0  0  0  0  0
  -24.9647  -30.4864   22.0695 N   0  0  0  0  0  0
  -23.3769  -28.7006   23.3466 O   0  0  0  0  0  0
  -26.6880  -22.5424   20.5877 O   0  0  0  0  0  0
  -26.6197  -34.8607   22.4407 O   0  0  0  0  0  0
  -23.7019  -31.9566   23.4067 O   0  0  0  0  0  0
  -25.9781  -14.8590   21.9434 C   0  0  0  0  0  0
  -25.1341  -14.2959   19.0813 C   0  0  0  0  0  0
  -26.5579  -13.2495   22.5792 C   0  0  0  0  0  0
  -25.5171  -12.6422   18.6658 C   0  0  0  0  0  0
  -26.6626  -11.7172   21.5364 C   0  0  0  0  0  0
  -26.3790  -17.3466   21.7763 C   0  0  0  0  0  0
  -25.3875  -16.2875   18.3428 C   0  0  0  0  0  0
  -25.9449  -18.2575   19.1166 C   0  0  0  0  0  0
  -26.2568  -19.7647   20.6003 C   0  0  2  0  0  0
  -27.3772  -13.2852   23.8552 C   0  0  0  0  0  0
  -27.4459  -10.5384   22.0955 C   0  0  0  0  0  0
  -25.9541  -12.6593   17.1331 C   0  0  0  0  0  0
  -26.9414  -13.9146   16.6848 C   0  0  0  0  0  0
  -28.5413  -13.9928   16.4037 C   0  0  0  0  0  0
  -29.5229  -15.0332   17.2441 C   0  0  0  0  0  0
  -26.1660  -11.4798   19.8264 N   0  0  0  0  0  0
  -30.7150  -14.7026   18.2100 N   0  0  0  0  0  0
  -31.6989  -12.0560   19.4246 H   0  0  0  0  0  0
  -30.4179  -11.4419   20.4450 H   0  0  0  0  0  0
  -29.6479  -11.0143   18.2646 H   0  0  0  0  0  0
  -30.2655  -12.4362   17.5891 H   0  0  0  0  0  0
  -28.3344  -11.8980   19.6217 H   0  0  0  0  0  0
  -27.8727  -12.2860   18.0974 H   0  0  0  0  0  0
  -28.6251  -14.9808   19.3593 H   0  0  0  0  0  0
  -28.9267  -12.9108   21.5557 H   0  0  0  0  0  0
  -29.2826  -14.6229   21.6395 H   0  0  0  0  0  0
  -25.0305  -10.3245   22.7997 H   0  0  0  0  0  0
  -24.0859   -8.1260   22.8868 H   0  0  0  0  0  0
  -21.4157   -9.2137   19.7574 H   0  0  0  0  0  0
  -22.5007  -11.3818   19.5615 H   0  0  0  0  0  0
  -21.3312   -7.7190   23.9920 H   0  0  0  0  0  0
  -21.1598   -6.1076   25.8690 H   0  0  0  0  0  0
  -22.0129   -2.8630   23.1859 H   0  0  0  0  0  0
  -22.6639  -12.5936   22.6483 H   0  0  0  0  0  0
  -21.0209  -12.9586   22.2007 H   0  0  0  0  0  0
  -23.0458  -16.9786   20.9003 H   0  0  0  0  0  0
  -24.4807  -17.7608   20.4511 H   0  0  0  0  0  0
  -26.8289  -32.3610   23.0237 H   0  0  0  0  0  0
  -24.9594  -33.8023   24.8767 H   0  0  0  0  0  0
  -23.1176  -30.9973   21.1269 H   0  0  0  0  0  0
  -23.3817  -35.8890   23.3078 H   0  0  0  0  0  0
  -24.3521  -36.8706   22.2195 H   0  0  0  0  0  0
  -23.7160  -37.5647   23.7109 H   0  0  0  0  0  0
  -26.6818  -30.0901   20.8185 H   0  0  0  0  0  0
  -26.9499  -29.4743   22.3751 H   0  0  0  0  0  0
  -27.5056  -26.3102   21.8090 H   0  0  0  0  0  0
  -25.1103  -24.7710   18.7808 H   0  0  0  0  0  0
  -24.0796  -26.8279   18.6201 H   0  0  0  0  0  0
  -24.3551  -29.9286   19.3558 H   0  0  0  0  0  0
  -23.0039  -28.9143   19.7055 H   0  0  0  0  0  0
  -25.1458  -36.0734   25.0650 H   0  0  0  0  0  0
  -20.9966  -28.3493   24.1124 H   0  0  0  0  0  0
  -20.5294  -26.2442   23.3860 H   0  0  0  0  0  0
  -21.6517  -26.6983   22.1471 H   0  0  0  0  0  0
  -19.6822  -25.6137   21.1361 H   0  0  0  0  0  0
  -19.6735  -27.3004   20.6701 H   0  0  0  0  0  0
  -17.4178  -26.6761   21.3937 H   0  0  0  0  0  0
  -18.0172  -26.0119   22.8963 H   0  0  0  0  0  0
  -19.8059  -30.7343   24.2028 H   0  0  0  0  0  0
  -17.5129  -31.6287   24.5159 H   0  0  0  0  0  0
  -15.5424  -30.2986   23.7777 H   0  0  0  0  0  0
  -15.8693  -28.0794   22.7219 H   0  0  0  0  0  0
  -24.5856  -30.7215   25.7376 H   0  0  0  0  0  0
  -24.8697  -32.3329   26.3816 H   0  0  0  0  0  0
  -25.7523  -30.9614   27.0224 H   0  0  0  0  0  0
  -26.3684  -29.5372   24.4135 H   0  0  0  0  0  0
  -27.5384  -29.8208   25.6597 H   0  0  0  0  0  0
  -27.9264  -30.3444   24.0433 H   0  0  0  0  0  0
  -27.2245  -33.4220   26.1073 H   0  0  0  0  0  0
  -28.4119  -32.6739   25.0490 H   0  0  0  0  0  0
  -28.0200  -31.9477   26.6013 H   0  0  0  0  0  0
  -28.2291  -37.9926   24.7587 H   0  0  0  0  0  0
  -28.1192  -36.2421   24.6148 H   0  0  0  0  0  0
  -27.2231  -37.0861   25.8863 H   0  0  0  0  0  0
  -21.0261  -29.8066   21.5741 H   0  0  0  0  0  0
  -25.9801  -38.2136   24.1559 H   0  0  0  0  0  0
  -27.4531  -17.3113   21.9630 H   0  0  0  0  0  0
  -25.9660  -17.6112   22.7498 H   0  0  0  0  0  0
  -24.3897  -16.4701   17.9405 H   0  0  0  0  0  0
  -25.9356  -16.2596   17.4074 H   0  0  0  0  0  0
  -24.8984  -18.4846   19.2618 H   0  0  0  0  0  0
  -26.6964  -17.7096   19.6543 H   0  0  0  0  0  0
  -25.2224  -19.9767   20.8704 H   0  0  0  0  0  0
  -27.7955  -14.2830   23.9974 H   0  0  0  0  0  0
  -28.2234  -12.5997   23.7912 H   0  0  0  0  0  0
  -26.7872  -13.0233   24.7319 H   0  0  0  0  0  0
  -27.2524  -10.4133   23.1611 H   0  0  0  0  0  0
  -28.5178  -10.6905   21.9648 H   0  0  0  0  0  0
  -27.1782   -9.6134   21.5867 H   0  0  0  0  0  0
  -25.0267  -12.7533   16.5680 H   0  0  0  0  0  0
  -26.3491  -11.6920   16.8178 H   0  0  0  0  0  0
  -26.9460  -14.5766   17.5152 H   0  0  0  0  0  0
  -26.4305  -14.4442   15.8794 H   0  0  0  0  0  0
  -28.5708  -14.4136   15.3968 H   0  0  0  0  0  0
  -28.9480  -13.0134   16.1776 H   0  0  0  0  0  0
  -28.9240  -15.8695   17.6093 H   0  0  0  0  0  0
  -30.0596  -15.5548   16.4523 H   0  0  0  0  0  0
  -31.5719  -14.9879   17.7570 H   0  0  0  0  0  0
  1 25  1  0  0  0
  1 30  2  0  0  0
  1 87  1  0  0  0
  2  3  1  0  0  0
  2 25  1  0  0  0
  2 88  1  0  0  0
  2 89  1  0  0  0
  3  4  1  0  0  0
  3 90  1  0  0  0
  3 91  1  0  0  0
  4  5  1  0  0  0
  4 92  1  0  0  0
  4 93  1  0  0  0
  5  6  1  0  0  0
  5 26  1  0  0  0
  5 94  1  0  0  0
  6 25  1  0  0  0
  6 95  1  0  0  0
  6 96  1  0  0  0
  7  8  2  0  0  0
  7 26  1  0  0  0
  7 29  1  0  0  0
  8  9  1  0  0  0
  8 22  1  0  0  0
  9 10  1  0  0  0
  9 27  2  0  0  0
 10 11  2  0  0  0
 10 15  1  0  0  0
 11 12  1  0  0  0
 11 97  1  0  0  0
 12 13  2  0  0  0
 12 98  1  0  0  0
 13 14  1  0  0  0
 13 31  1  0  0  0
 14 15  2  0  0  0
 14 99  1  0  0  0
 15100  1  0  0  0
 16 17  2  0  0  0
 16 21  1  0  0  0
 16 31  1  0  0  0
 17 18  1  0  0  0
 17101  1  0  0  0
 18 19  2  0  0  0
 18102  1  0  0  0
 19 20  1  0  0  0
 19 24  1  0  0  0
 20 21  2  0  0  0
 20103  1  0  0  0
 21 23  1  0  0  0
 22 28  1  0  0  0
 22 32  2  0  0  0
 26 27  1  0  0  0
 28104  1  0  0  0
 28105  1  0  0  0
 29106  1  0  0  0
 29107  1  0  0  0
 33 34  1  0  0  0
 33 66  1  0  0  0
 33 70  2  0  0  0
 34 36  1  0  0  0
 34 59  1  0  0  0
 34108  1  0  0  0
 35 44  2  0  0  0
 35 45  1  0  0  0
 35 68  1  0  0  0
 36 56  1  0  0  0
 36109  1  0  0  0
 37 39  1  0  0  0
 37 47  1  0  0  0
 37 66  1  0  0  0
 37110  1  0  0  0
 38 43  2  0  0  0
 38 46  1  0  0  0
 38 47  1  0  0  0
 39 64  1  0  0  0
 39 67  2  0  0  0
 40 52  1  0  0  0
 40 53  2  0  0  0
 40 58  1  0  0  0
 41111  1  0  0  0
 41112  1  0  0  0
 41113  1  0  0  0
 41 48  1  0  0  0
 42 43  1  0  0  0
 42 66  1  0  0  0
 42114  1  0  0  0
 42115  1  0  0  0
 43 44  1  0  0  0
 44116  1  0  0  0
 45 46  2  0  0  0
 45117  1  0  0  0
 46118  1  0  0  0
 47119  1  0  0  0
 47120  1  0  0  0
 48 56  1  0  0  0
 48 65  1  0  0  0
 48121  1  0  0  0
 49 50  1  0  0  0
 49 53  1  0  0  0
 49 64  1  0  0  0
 49122  1  0  0  0
 50 51  1  0  0  0
 50123  1  0  0  0
 50124  1  0  0  0
 51 52  1  0  0  0
 51125  1  0  0  0
 51126  1  0  0  0
 52127  1  0  0  0
 52128  1  0  0  0
 53 54  1  0  0  0
 54 55  2  0  0  0
 54129  1  0  0  0
 55 57  1  0  0  0
 55130  1  0  0  0
 56 69  2  0  0  0
 57 58  2  0  0  0
 57131  1  0  0  0
 58132  1  0  0  0
 59 60  1  0  0  0
 59 61  1  0  0  0
 59 62  1  0  0  0
 60133  1  0  0  0
 60134  1  0  0  0
 60135  1  0  0  0
 61136  1  0  0  0
 61137  1  0  0  0
 61138  1  0  0  0
 62139  1  0  0  0
 62140  1  0  0  0
 62141  1  0  0  0
 63 65  1  0  0  0
 63142  1  0  0  0
 63143  1  0  0  0
 63144  1  0  0  0
 64145  1  0  0  0
 65146  1  0  0  0
 68 79  1  0  0  0
 71 72  1  0  0  0
 71 73  2  0  0  0
 71 76  1  0  0  0
 72 74  2  0  0  0
 72 77  1  0  0  0
 73 75  1  0  0  0
 73 80  1  0  0  0
 74 82  1  0  0  0
 74 86  1  0  0  0
 75 81  1  0  0  0
 75 86  2  0  0  0
 76 79  1  0  0  0
 76147  1  0  0  0
 76148  1  0  0  0
 77 78  1  0  0  0
 77149  1  0  0  0
 77150  1  0  0  0
 78 79  1  0  0  0
 78151  1  0  0  0
 78152  1  0  0  0
 79153  1  0  0  0
 80154  1  0  0  0
 80155  1  0  0  0
 80156  1  0  0  0
 81157  1  0  0  0
 81158  1  0  0  0
 81159  1  0  0  0
 82 83  1  0  0  0
 82160  1  0  0  0
 82161  1  0  0  0
 83 84  1  0  0  0
 83162  1  0  0  0
 83163  1  0  0  0
 84 85  1  0  0  0
 84164  1  0  0  0
 84165  1  0  0  0
 85 87  1  0  0  0
 85166  1  0  0  0
 85167  1  0  0  0
 87168  1  0  0  0
M  ISO  4   1 100  68 101  79 101  87 100
M  END
> <chiral flag>
0

> <version>
0

> <s_m_source_file>
/data/baiqing/PycharmProjects/Reinvent-master-3.2/result/LINK_invent/BTK/process_docking_weight1_custom_sum_contain_oxygen_bond_distance_aromatic_linkinvent_7_9_3/rearranged_h_0031.sdf

> <i_m_source_file_index>
70

> <r_mmod_Potential_Energy-OPLS-2005>
35580.28515625

> <r_mmod_Stretch_Energy-OPLS-2005>
19868.77734375

> <r_mmod_Bend_Energy-OPLS-2005>
2940.73095703125

> <r_mmod_Torsional_Energy-OPLS-2005>
486.580230712891

> <r_mmod_Improper_Torsional_Energy-OPLS-2005>
68.8691329956055

> <r_mmod_Van_der_Waal_Energy-OPLS-2005>
5101.33154296875

> <r_mmod_Electrostatic_Energy-OPLS-2005>
-457.326080322266

> <r_mmod_Solvation_Energy-OPLS-2005>
-246.001892089844

> <b_mmod_Minimization_Converged-OPLS-2005>
0

> <r_mmod_RMS_Derivative-OPLS-2005>
7.45670890808105

$$$$
70
                    3D
 Structure written by MMmdl.
160169  0  0  1  0            999 V2000
  -30.6971  -14.6046   20.5061 C   0  0  0  0  0  0
  -30.4205  -12.3753   19.4540 C   0  0  0  0  0  0
  -29.4963  -12.4856   18.2246 C   0  0  0  0  0  0
  -28.0223  -12.3337   18.6420 C   0  0  0  0  0  0
  -27.6489  -13.2216   19.8589 C   0  0  2  0  0  0
  -28.6968  -13.1128   20.9889 C   0  0  0  0  0  0
  -25.2542  -13.8188   20.5675 C   0  0  0  0  0  0
  -24.1807  -13.0450   20.9159 C   0  0  0  0  0  0
  -24.6386  -11.6917   20.8736 C   0  0  0  0  0  0
  -23.9060  -10.4299   21.0393 C   0  0  0  0  0  0
  -24.3613   -9.4209   21.9174 C   0  0  0  0  0  0
  -23.6280   -8.2251   22.0758 C   0  0  0  0  0  0
  -22.4269   -8.0274   21.3541 C   0  0  0  0  0  0
  -21.9905   -9.0250   20.4642 C   0  0  0  0  0  0
  -22.7243  -10.2125   20.3044 C   0  0  0  0  0  0
  -21.6855   -6.0721   22.5268 C   0  0  0  0  0  0
  -21.4011   -6.5638   23.8202 C   0  0  0  0  0  0
  -21.3661   -5.6793   24.9167 C   0  0  0  0  0  0
  -21.6048   -4.3053   24.7228 C   0  0  0  0  0  0
  -21.8823   -3.8138   23.4349 C   0  0  0  0  0  0
  -21.9199   -4.6949   22.3396 C   0  0  0  0  0  0
  -22.7832  -13.5233   21.1823 C   0  0  0  0  0  0
  -22.1659   -4.2131   21.0970 F   0  0  0  0  0  0
  -21.5639   -3.4541   25.7743 F   0  0  0  0  0  0
  -30.0099  -13.4246   20.4082 N   0  0  0  0  0  0
  -26.2971  -12.9378   20.3344 N   0  0  0  0  0  0
  -25.9321  -11.6530   20.5799 N   0  0  0  0  0  0
  -22.0506  -12.8196   22.0388 N   0  0  0  0  0  0
  -25.4294  -15.1907   20.4075 N   0  0  0  0  0  0
  -31.8692  -14.6823   20.1332 O   0  0  0  0  0  0
  -21.6643   -6.8861   21.4227 O   0  0  0  0  0  0
  -22.3509  -14.5541   20.6706 O   0  0  0  0  0  0
  -24.6247  -31.8610   23.2053 C   0  0  0  0  0  0
  -25.9084  -32.4781   23.8383 C   0  0  1  0  0  0
  -27.2240  -27.3386   20.0940 C   0  0  0  0  0  0
  -25.5920  -33.8586   24.2313 N   0  0  0  0  0  0
  -23.4183  -30.4892   21.5438 C   0  0  2  0  0  0
  -24.8626  -28.9402   20.1131 C   0  0  0  0  0  0
  -22.7464  -29.4655   22.4907 C   0  0  0  0  0  0
  -18.0293  -28.1392   22.8525 C   0  0  0  0  0  0
  -24.1467  -36.7270   23.2646 C   0  0  0  0  0  0
  -25.9589  -30.7946   21.3727 C   0  0  0  0  0  0
  -26.0316  -29.4215   20.7158 C   0  0  0  0  0  0
  -27.2176  -28.6320   20.6994 C   0  0  0  0  0  0
  -26.0353  -26.9062   19.4669 C   0  0  0  0  0  0
  -24.8624  -27.6842   19.4840 C   0  0  0  0  0  0
  -23.6326  -29.8229   20.1595 C   0  0  0  0  0  0
  -25.4099  -36.3077   24.0345 C   0  0  1  0  0  0
  -20.5889  -28.3684   23.1283 C   0  0  2  0  0  0
  -20.6767  -26.9403   22.5411 C   0  0  0  0  0  0
  -19.5732  -26.6379   21.5223 C   0  0  0  0  0  0
  -18.1916  -26.7951   22.1630 C   0  0  0  0  0  0
  -19.1547  -28.8851   23.2913 C   0  0  0  0  0  0
  -18.9485  -30.1459   23.8911 C   0  0  0  0  0  0
  -17.6488  -30.6603   24.0579 C   0  0  0  0  0  0
  -25.9036  -34.9449   23.5127 C   0  0  0  0  0  0
  -16.5369  -29.9118   23.6341 C   0  0  0  0  0  0
  -16.7281  -28.6527   23.0375 C   0  0  0  0  0  0
  -26.4475  -31.6609   25.0749 C   0  0  0  0  0  0
  -25.3728  -31.3771   26.1495 C   0  0  0  0  0  0
  -27.0310  -30.3042   24.6177 C   0  0  0  0  0  0
  -27.6031  -32.4345   25.7524 C   0  0  0  0  0  0
  -27.5568  -37.1800   24.8482 C   0  0  0  0  0  0
  -21.4163  -29.3074   22.3681 N   0  0  0  0  0  0
  -26.4266  -37.3784   23.9440 N   0  0  0  0  0  0
  -24.6860  -31.0651   22.0967 N   0  0  0  0  0  0
  -23.4197  -28.8148   23.2937 O   0  0  0  0  0  0
  -28.3504  -26.5091   20.0716 O   0  0  0  0  0  0
  -26.5583  -34.8910   22.4670 O   0  0  0  0  0  0
  -23.5427  -32.1357   23.7420 O   0  0  0  0  0  0
  -28.6886  -20.4390   21.3014 C   0  0  0  0  0  0
  -30.8185  -19.3091   19.9172 C   0  0  0  0  0  0
  -29.5139  -21.3292   20.5511 C   0  0  0  0  0  0
  -30.5464  -20.7041   19.7903 C   0  0  0  0  0  0
  -30.0856  -18.4548   20.7809 C   0  0  0  0  0  0
  -28.9663  -19.0425   21.4247 C   0  0  0  0  0  0
  -28.8093  -23.3881   22.0649 C   0  0  0  0  0  0
  -28.6544  -24.9056   21.8930 C   0  0  0  0  0  0
  -28.8929  -23.9166   19.6829 C   0  0  0  0  0  0
  -29.4536  -22.9005   20.7556 C   0  0  2  0  0  0
  -28.1699  -25.0941   20.4575 C   0  0  2  0  0  0
  -31.4592  -21.5148   18.8850 C   0  0  0  0  0  0
  -30.6817  -17.0528   21.1774 C   0  0  0  0  0  0
  -30.0243  -15.7352   20.8786 N   0  0  0  0  0  0
  -27.9787  -18.0885   22.4746 Cl  0  0  0  0  0  0
  -31.4637  -12.4674   19.1458 H   0  0  0  0  0  0
  -30.3364  -11.3900   19.9164 H   0  0  0  0  0  0
  -29.7560  -11.7251   17.4875 H   0  0  0  0  0  0
  -29.6448  -13.4506   17.7386 H   0  0  0  0  0  0
  -27.8576  -11.2845   18.8846 H   0  0  0  0  0  0
  -27.3670  -12.5537   17.7993 H   0  0  0  0  0  0
  -27.6629  -14.2508   19.4999 H   0  0  0  0  0  0
  -28.7058  -12.1076   21.4139 H   0  0  0  0  0  0
  -28.4522  -13.7855   21.8116 H   0  0  0  0  0  0
  -25.2762   -9.5688   22.4740 H   0  0  0  0  0  0
  -23.9993   -7.4645   22.7485 H   0  0  0  0  0  0
  -21.0850   -8.8750   19.8947 H   0  0  0  0  0  0
  -22.3693  -10.9643   19.6137 H   0  0  0  0  0  0
  -21.1990   -7.6150   23.9694 H   0  0  0  0  0  0
  -21.1479   -6.0528   25.9069 H   0  0  0  0  0  0
  -22.0601   -2.7599   23.2854 H   0  0  0  0  0  0
  -22.4159  -11.9839   22.4699 H   0  0  0  0  0  0
  -21.1127  -13.1197   22.2657 H   0  0  0  0  0  0
  -24.6740  -15.8538   20.5322 H   0  0  0  0  0  0
  -26.2936  -15.6275   20.1141 H   0  0  0  0  0  0
  -26.7136  -32.5430   23.1124 H   0  0  0  0  0  0
  -25.0158  -33.9742   25.0514 H   0  0  0  0  0  0
  -22.7164  -31.3133   21.4013 H   0  0  0  0  0  0
  -23.3728  -35.9599   23.3318 H   0  0  0  0  0  0
  -24.3580  -36.8863   22.2063 H   0  0  0  0  0  0
  -23.7190  -37.6472   23.6642 H   0  0  0  0  0  0
  -26.0961  -31.5580   20.6066 H   0  0  0  0  0  0
  -26.8419  -30.8413   22.0002 H   0  0  0  0  0  0
  -28.1177  -29.0033   21.1690 H   0  0  0  0  0  0
  -26.0115  -25.9587   18.9468 H   0  0  0  0  0  0
  -23.9668  -27.3162   19.0023 H   0  0  0  0  0  0
  -23.7566  -30.5992   19.4026 H   0  0  0  0  0  0
  -22.7547  -29.2554   19.8516 H   0  0  0  0  0  0
  -25.1278  -36.1923   25.0836 H   0  0  0  0  0  0
  -21.0041  -28.3215   24.1372 H   0  0  0  0  0  0
  -20.5643  -26.2291   23.3599 H   0  0  0  0  0  0
  -21.6627  -26.7402   22.1192 H   0  0  0  0  0  0
  -19.6869  -25.6290   21.1235 H   0  0  0  0  0  0
  -19.6664  -27.3209   20.6761 H   0  0  0  0  0  0
  -17.4197  -26.6750   21.4006 H   0  0  0  0  0  0
  -18.0270  -26.0086   22.9002 H   0  0  0  0  0  0
  -19.7964  -30.7291   24.2240 H   0  0  0  0  0  0
  -17.5057  -31.6285   24.5187 H   0  0  0  0  0  0
  -15.5381  -30.3052   23.7661 H   0  0  0  0  0  0
  -15.8665  -28.0871   22.7078 H   0  0  0  0  0  0
  -24.5947  -30.7030   25.7904 H   0  0  0  0  0  0
  -24.8839  -32.2938   26.4818 H   0  0  0  0  0  0
  -25.8073  -30.9098   27.0330 H   0  0  0  0  0  0
  -26.2884  -29.6828   24.1159 H   0  0  0  0  0  0
  -27.4005  -29.7265   25.4656 H   0  0  0  0  0  0
  -27.8755  -30.4394   23.9410 H   0  0  0  0  0  0
  -27.2651  -33.3683   26.2035 H   0  0  0  0  0  0
  -28.3879  -32.6832   25.0366 H   0  0  0  0  0  0
  -28.0635  -31.8494   26.5498 H   0  0  0  0  0  0
  -28.2582  -38.0101   24.7513 H   0  0  0  0  0  0
  -28.1041  -36.2617   24.6287 H   0  0  0  0  0  0
  -27.2299  -37.1449   25.8890 H   0  0  0  0  0  0
  -20.9289  -29.8911   21.7019 H   0  0  0  0  0  0
  -26.0124  -38.2838   24.1460 H   0  0  0  0  0  0
  -27.8669  -20.8277   21.8814 H   0  0  0  0  0  0
  -31.6797  -18.9031   19.4037 H   0  0  0  0  0  0
  -27.8131  -22.9668   22.1947 H   0  0  0  0  0  0
  -29.4044  -23.1293   22.9407 H   0  0  0  0  0  0
  -29.6230  -25.3950   22.0250 H   0  0  0  0  0  0
  -27.9621  -25.3375   22.6167 H   0  0  0  0  0  0
  -28.1932  -23.4244   19.0068 H   0  0  0  0  0  0
  -29.7039  -24.3029   19.0654 H   0  0  0  0  0  0
  -30.5046  -23.1715   20.8675 H   0  0  0  0  0  0
  -27.1144  -24.8231   20.4700 H   0  0  0  0  0  0
  -31.7483  -20.9278   18.0116 H   0  0  0  0  0  0
  -32.3701  -21.7968   19.4144 H   0  0  0  0  0  0
  -30.9773  -22.4181   18.5138 H   0  0  0  0  0  0
  -30.8073  -17.0799   22.2629 H   0  0  0  0  0  0
  -31.7059  -17.0403   20.8044 H   0  0  0  0  0  0
  -29.0515  -15.6351   21.1261 H   0  0  0  0  0  0
  1 25  1  0  0  0
  1 30  2  0  0  0
  1 84  1  0  0  0
  2  3  1  0  0  0
  2 25  1  0  0  0
  2 86  1  0  0  0
  2 87  1  0  0  0
  3  4  1  0  0  0
  3 88  1  0  0  0
  3 89  1  0  0  0
  4  5  1  0  0  0
  4 90  1  0  0  0
  4 91  1  0  0  0
  5  6  1  0  0  0
  5 26  1  0  0  0
  5 92  1  0  0  0
  6 25  1  0  0  0
  6 93  1  0  0  0
  6 94  1  0  0  0
  7  8  2  0  0  0
  7 26  1  0  0  0
  7 29  1  0  0  0
  8  9  1  0  0  0
  8 22  1  0  0  0
  9 10  1  0  0  0
  9 27  2  0  0  0
 10 11  2  0  0  0
 10 15  1  0  0  0
 11 12  1  0  0  0
 11 95  1  0  0  0
 12 13  2  0  0  0
 12 96  1  0  0  0
 13 14  1  0  0  0
 13 31  1  0  0  0
 14 15  2  0  0  0
 14 97  1  0  0  0
 15 98  1  0  0  0
 16 17  2  0  0  0
 16 21  1  0  0  0
 16 31  1  0  0  0
 17 18  1  0  0  0
 17 99  1  0  0  0
 18 19  2  0  0  0
 18100  1  0  0  0
 19 20  1  0  0  0
 19 24  1  0  0  0
 20 21  2  0  0  0
 20101  1  0  0  0
 21 23  1  0  0  0
 22 28  1  0  0  0
 22 32  2  0  0  0
 26 27  1  0  0  0
 28102  1  0  0  0
 28103  1  0  0  0
 29104  1  0  0  0
 29105  1  0  0  0
 33 34  1  0  0  0
 33 66  1  0  0  0
 33 70  2  0  0  0
 34 36  1  0  0  0
 34 59  1  0  0  0
 34106  1  0  0  0
 35 44  2  0  0  0
 35 45  1  0  0  0
 35 68  1  0  0  0
 36 56  1  0  0  0
 36107  1  0  0  0
 37 39  1  0  0  0
 37 47  1  0  0  0
 37 66  1  0  0  0
 37108  1  0  0  0
 38 43  2  0  0  0
 38 46  1  0  0  0
 38 47  1  0  0  0
 39 64  1  0  0  0
 39 67  2  0  0  0
 40 52  1  0  0  0
 40 53  2  0  0  0
 40 58  1  0  0  0
 41109  1  0  0  0
 41110  1  0  0  0
 41111  1  0  0  0
 41 48  1  0  0  0
 42 43  1  0  0  0
 42 66  1  0  0  0
 42112  1  0  0  0
 42113  1  0  0  0
 43 44  1  0  0  0
 44114  1  0  0  0
 45 46  2  0  0  0
 45115  1  0  0  0
 46116  1  0  0  0
 47117  1  0  0  0
 47118  1  0  0  0
 48 56  1  0  0  0
 48 65  1  0  0  0
 48119  1  0  0  0
 49 50  1  0  0  0
 49 53  1  0  0  0
 49 64  1  0  0  0
 49120  1  0  0  0
 50 51  1  0  0  0
 50121  1  0  0  0
 50122  1  0  0  0
 51 52  1  0  0  0
 51123  1  0  0  0
 51124  1  0  0  0
 52125  1  0  0  0
 52126  1  0  0  0
 53 54  1  0  0  0
 54 55  2  0  0  0
 54127  1  0  0  0
 55 57  1  0  0  0
 55128  1  0  0  0
 56 69  2  0  0  0
 57 58  2  0  0  0
 57129  1  0  0  0
 58130  1  0  0  0
 59 60  1  0  0  0
 59 61  1  0  0  0
 59 62  1  0  0  0
 60131  1  0  0  0
 60132  1  0  0  0
 60133  1  0  0  0
 61134  1  0  0  0
 61135  1  0  0  0
 61136  1  0  0  0
 62137  1  0  0  0
 62138  1  0  0  0
 62139  1  0  0  0
 63 65  1  0  0  0
 63140  1  0  0  0
 63141  1  0  0  0
 63142  1  0  0  0
 64143  1  0  0  0
 65144  1  0  0  0
 68 81  1  0  0  0
 71 73  2  0  0  0
 71 76  1  0  0  0
 71145  1  0  0  0
 72 74  2  0  0  0
 72 75  1  0  0  0
 72146  1  0  0  0
 73 74  1  0  0  0
 73 80  1  0  0  0
 74 82  1  0  0  0
 75 76  2  0  0  0
 75 83  1  0  0  0
 76 85  1  0  0  0
 77 78  1  0  0  0
 77 80  1  0  0  0
 77147  1  0  0  0
 77148  1  0  0  0
 78 81  1  0  0  0
 78149  1  0  0  0
 78150  1  0  0  0
 79 80  1  0  0  0
 79 81  1  0  0  0
 79151  1  0  0  0
 79152  1  0  0  0
 80153  1  0  0  0
 81154  1  0  0  0
 82155  1  0  0  0
 82156  1  0  0  0
 82157  1  0  0  0
 83 84  1  0  0  0
 83158  1  0  0  0
 83159  1  0  0  0
 84160  1  0  0  0
M  ISO  4   1 100  68 101  81 101  84 100
M  END
> <chiral flag>
0

> <version>
0

> <s_m_source_file>
/data/baiqing/PycharmProjects/Reinvent-master-3.2/result/LINK_invent/BTK/process_docking_weight1_custom_sum_contain_oxygen_bond_distance_aromatic_linkinvent_7_9_3/rearranged_h_0031.sdf

> <i_m_source_file_index>
71

> <r_mmod_Potential_Energy-OPLS-2005>
111.780174255371

> <r_mmod_Stretch_Energy-OPLS-2005>
74.8877944946289

> <r_mmod_Bend_Energy-OPLS-2005>
174.790618896484

> <r_mmod_Torsional_Energy-OPLS-2005>
280.641265869141

> <r_mmod_Improper_Torsional_Energy-OPLS-2005>
6.58968162536621

> <r_mmod_Van_der_Waal_Energy-OPLS-2005>
142.994995117188

> <r_mmod_Electrostatic_Energy-OPLS-2005>
-415.590606689453

> <r_mmod_Solvation_Energy-OPLS-2005>
-193.27848815918

> <b_mmod_Minimization_Converged-OPLS-2005>
0

> <r_mmod_RMS_Derivative-OPLS-2005>
3.618008852005

$$$$
71
                    3D
 Structure written by MMmdl.
150158  0  0  1  0            999 V2000
  -30.4237  -15.2718   20.3759 C   0  0  0  0  0  0
  -30.4454  -12.8138   19.5315 C   0  0  0  0  0  0
  -29.5402  -12.5787   18.2949 C   0  0  0  0  0  0
  -28.0895  -12.2966   18.7232 C   0  0  0  0  0  0
  -27.6143  -13.2732   19.8271 C   0  0  2  0  0  0
  -28.6471  -13.4407   20.9621 C   0  0  0  0  0  0
  -25.2407  -13.8250   20.5752 C   0  0  0  0  0  0
  -24.1748  -13.0451   20.9278 C   0  0  0  0  0  0
  -24.6393  -11.6944   20.8769 C   0  0  0  0  0  0
  -23.9084  -10.4303   21.0408 C   0  0  0  0  0  0
  -24.3631   -9.4214   21.9188 C   0  0  0  0  0  0
  -23.6303   -8.2247   22.0752 C   0  0  0  0  0  0
  -22.4283   -8.0288   21.3547 C   0  0  0  0  0  0
  -21.9926   -9.0259   20.4646 C   0  0  0  0  0  0
  -22.7255  -10.2139   20.3059 C   0  0  0  0  0  0
  -21.6854   -6.0744   22.5280 C   0  0  0  0  0  0
  -21.4012   -6.5641   23.8218 C   0  0  0  0  0  0
  -21.3658   -5.6792   24.9174 C   0  0  0  0  0  0
  -21.6044   -4.3055   24.7224 C   0  0  0  0  0  0
  -21.8818   -3.8150   23.4343 C   0  0  0  0  0  0
  -21.9193   -4.6969   22.3402 C   0  0  0  0  0  0
  -22.7766  -13.5202   21.1907 C   0  0  0  0  0  0
  -22.1661   -4.2160   21.0980 F   0  0  0  0  0  0
  -21.5629   -3.4534   25.7734 F   0  0  0  0  0  0
  -29.8788  -13.9554   20.3414 N   0  0  0  0  0  0
  -26.2823  -12.9510   20.3214 N   0  0  0  0  0  0
  -25.9330  -11.6619   20.5728 N   0  0  0  0  0  0
  -22.0406  -12.8196   22.0456 N   0  0  0  0  0  0
  -25.4041  -15.1980   20.4152 N   0  0  0  0  0  0
  -31.6400  -15.2909   20.1380 O   0  0  0  0  0  0
  -21.6641   -6.8888   21.4245 O   0  0  0  0  0  0
  -22.3449  -14.5499   20.6730 O   0  0  0  0  0  0
  -24.6649  -31.8242   23.1706 C   0  0  0  0  0  0
  -25.9324  -32.4586   23.8185 C   0  0  1  0  0  0
  -27.2182  -26.9208   20.1914 C   0  0  0  0  0  0
  -25.5989  -33.8400   24.2087 N   0  0  0  0  0  0
  -23.4794  -30.4375   21.5187 C   0  0  2  0  0  0
  -24.9317  -28.8212   20.1140 C   0  0  0  0  0  0
  -22.7672  -29.4468   22.4770 C   0  0  0  0  0  0
  -18.0341  -28.1415   22.8464 C   0  0  0  0  0  0
  -24.1499  -36.7204   23.2647 C   0  0  0  0  0  0
  -26.0495  -30.6278   21.4020 C   0  0  0  0  0  0
  -26.1167  -29.2168   20.7475 C   0  0  0  0  0  0
  -27.2558  -28.2904   20.7567 C   0  0  0  0  0  0
  -26.0038  -26.6794   19.5088 C   0  0  0  0  0  0
  -24.9017  -27.5719   19.4735 C   0  0  0  0  0  0
  -23.7195  -29.7508   20.1459 C   0  0  0  0  0  0
  -25.4136  -36.2969   24.0304 C   0  0  1  0  0  0
  -20.5960  -28.3768   23.1172 C   0  0  2  0  0  0
  -20.6812  -26.9449   22.5389 C   0  0  0  0  0  0
  -19.5780  -26.6383   21.5206 C   0  0  0  0  0  0
  -18.1968  -26.7947   22.1619 C   0  0  0  0  0  0
  -19.1601  -28.8912   23.2805 C   0  0  0  0  0  0
  -18.9504  -30.1498   23.8847 C   0  0  0  0  0  0
  -17.6494  -30.6598   24.0560 C   0  0  0  0  0  0
  -25.9101  -34.9349   23.5019 C   0  0  0  0  0  0
  -16.5387  -29.9082   23.6348 C   0  0  0  0  0  0
  -16.7319  -28.6505   23.0361 C   0  0  0  0  0  0
  -26.4572  -31.6528   25.0715 C   0  0  0  0  0  0
  -25.3704  -31.3759   26.1372 C   0  0  0  0  0  0
  -27.0472  -30.2895   24.6459 C   0  0  0  0  0  0
  -27.6073  -32.4343   25.7504 C   0  0  0  0  0  0
  -27.5573  -37.1761   24.8469 C   0  0  0  0  0  0
  -21.4341  -29.3056   22.3512 N   0  0  0  0  0  0
  -26.4287  -37.3697   23.9409 N   0  0  0  0  0  0
  -24.7526  -30.9902   22.0837 N   0  0  0  0  0  0
  -23.4213  -28.8042   23.3028 O   0  0  0  0  0  0
  -28.2276  -25.8177   20.2288 O   0  0  0  0  0  0
  -26.5702  -34.8881   22.4610 O   0  0  0  0  0  0
  -23.5716  -32.1215   23.6796 O   0  0  0  0  0  0
  -27.0284  -21.3224   21.3498 C   0  0  0  0  0  0
  -27.7025  -18.6524   21.5491 C   0  0  0  0  0  0
  -28.2734  -21.0016   20.7396 C   0  0  0  0  0  0
  -28.6308  -19.4324   20.8020 C   0  0  0  0  0  0
  -26.1841  -20.4482   22.0351 C   0  0  0  0  0  0
  -26.5341  -19.1127   22.1570 C   0  0  0  0  0  0
  -28.8147  -22.5850   20.2302 C   0  0  0  0  0  0
  -29.7664  -18.2012   20.3206 C   0  0  0  0  0  0
  -27.9434  -24.1924   20.3885 C   0  0  0  0  0  0
  -29.6302  -16.5240   20.4813 N   0  0  0  0  0  0
  -25.0373  -20.9141   22.5900 F   0  0  0  0  0  0
  -25.5319  -18.0195   23.0432 Cl  0  0  0  0  0  0
  -31.4602  -13.0304   19.1957 H   0  0  0  0  0  0
  -30.5257  -11.9095   20.1370 H   0  0  0  0  0  0
  -29.9240  -11.7555   17.6900 H   0  0  0  0  0  0
  -29.5646  -13.4646   17.6595 H   0  0  0  0  0  0
  -28.0507  -11.2733   19.1006 H   0  0  0  0  0  0
  -27.4211  -12.3308   17.8614 H   0  0  0  0  0  0
  -27.5316  -14.2397   19.3281 H   0  0  0  0  0  0
  -28.8186  -12.4987   21.4847 H   0  0  0  0  0  0
  -28.2857  -14.1514   21.7076 H   0  0  0  0  0  0
  -25.2769   -9.5694   22.4771 H   0  0  0  0  0  0
  -24.0006   -7.4641   22.7477 H   0  0  0  0  0  0
  -21.0854   -8.8783   19.8957 H   0  0  0  0  0  0
  -22.3707  -10.9680   19.6174 H   0  0  0  0  0  0
  -21.1998   -7.6148   23.9726 H   0  0  0  0  0  0
  -21.1480   -6.0516   25.9082 H   0  0  0  0  0  0
  -22.0598   -2.7613   23.2839 H   0  0  0  0  0  0
  -22.4017  -11.9862   22.4858 H   0  0  0  0  0  0
  -21.1021  -13.1223   22.2639 H   0  0  0  0  0  0
  -24.6360  -15.8459   20.5489 H   0  0  0  0  0  0
  -26.2265  -15.6355   20.0243 H   0  0  0  0  0  0
  -26.7400  -32.5124   23.0904 H   0  0  0  0  0  0
  -25.0099  -33.9485   25.0218 H   0  0  0  0  0  0
  -22.7943  -31.2702   21.3478 H   0  0  0  0  0  0
  -23.3776  -35.9522   23.3279 H   0  0  0  0  0  0
  -24.3580  -36.8877   22.2071 H   0  0  0  0  0  0
  -23.7244  -37.6380   23.6722 H   0  0  0  0  0  0
  -26.2324  -31.3687   20.6234 H   0  0  0  0  0  0
  -26.9070  -30.6835   22.0604 H   0  0  0  0  0  0
  -28.1552  -28.5972   21.2713 H   0  0  0  0  0  0
  -25.8758  -25.7345   19.0030 H   0  0  0  0  0  0
  -24.0035  -27.2639   18.9566 H   0  0  0  0  0  0
  -23.8785  -30.5188   19.3887 H   0  0  0  0  0  0
  -22.8278  -29.2082   19.8287 H   0  0  0  0  0  0
  -25.1334  -36.1766   25.0797 H   0  0  0  0  0  0
  -21.0065  -28.3382   24.1283 H   0  0  0  0  0  0
  -20.5698  -26.2391   23.3633 H   0  0  0  0  0  0
  -21.6676  -26.7419   22.1193 H   0  0  0  0  0  0
  -19.6941  -25.6280   21.1270 H   0  0  0  0  0  0
  -19.6719  -27.3165   20.6713 H   0  0  0  0  0  0
  -17.4235  -26.6698   21.4024 H   0  0  0  0  0  0
  -18.0364  -26.0100   22.9026 H   0  0  0  0  0  0
  -19.7981  -30.7333   24.2188 H   0  0  0  0  0  0
  -17.5046  -31.6272   24.5173 H   0  0  0  0  0  0
  -15.5385  -30.2963   23.7700 H   0  0  0  0  0  0
  -15.8723  -28.0804   22.7097 H   0  0  0  0  0  0
  -24.5911  -30.7078   25.7670 H   0  0  0  0  0  0
  -24.8863  -32.2948   26.4695 H   0  0  0  0  0  0
  -25.7948  -30.8994   27.0217 H   0  0  0  0  0  0
  -26.3138  -29.6555   24.1453 H   0  0  0  0  0  0
  -27.3980  -29.7274   25.5124 H   0  0  0  0  0  0
  -27.9094  -30.4066   23.9888 H   0  0  0  0  0  0
  -27.2654  -33.3696   26.1941 H   0  0  0  0  0  0
  -28.3942  -32.6809   25.0366 H   0  0  0  0  0  0
  -28.0672  -31.8558   26.5526 H   0  0  0  0  0  0
  -28.2570  -38.0074   24.7515 H   0  0  0  0  0  0
  -28.1093  -36.2603   24.6303 H   0  0  0  0  0  0
  -27.2293  -37.1403   25.8871 H   0  0  0  0  0  0
  -20.9606  -29.8728   21.6618 H   0  0  0  0  0  0
  -26.0138  -38.2761   24.1400 H   0  0  0  0  0  0
  -26.6429  -22.3246   21.3348 H   0  0  0  0  0  0
  -27.8645  -17.6007   21.7050 H   0  0  0  0  0  0
  -29.7787  -22.7161   20.7215 H   0  0  0  0  0  0
  -29.0632  -22.4754   19.1737 H   0  0  0  0  0  0
  -29.9504  -18.3754   19.2603 H   0  0  0  0  0  0
  -30.7062  -18.4630   20.8062 H   0  0  0  0  0  0
  -27.6226  -24.1953   21.4297 H   0  0  0  0  0  0
  -27.0283  -24.0361   19.8200 H   0  0  0  0  0  0
  -28.6700  -16.2701   20.6545 H   0  0  0  0  0  0
  1 25  1  0  0  0
  1 30  2  0  0  0
  1 80  1  0  0  0
  2  3  1  0  0  0
  2 25  1  0  0  0
  2 83  1  0  0  0
  2 84  1  0  0  0
  3  4  1  0  0  0
  3 85  1  0  0  0
  3 86  1  0  0  0
  4  5  1  0  0  0
  4 87  1  0  0  0
  4 88  1  0  0  0
  5  6  1  0  0  0
  5 26  1  0  0  0
  5 89  1  0  0  0
  6 25  1  0  0  0
  6 90  1  0  0  0
  6 91  1  0  0  0
  7  8  2  0  0  0
  7 26  1  0  0  0
  7 29  1  0  0  0
  8  9  1  0  0  0
  8 22  1  0  0  0
  9 10  1  0  0  0
  9 27  2  0  0  0
 10 11  2  0  0  0
 10 15  1  0  0  0
 11 12  1  0  0  0
 11 92  1  0  0  0
 12 13  2  0  0  0
 12 93  1  0  0  0
 13 14  1  0  0  0
 13 31  1  0  0  0
 14 15  2  0  0  0
 14 94  1  0  0  0
 15 95  1  0  0  0
 16 17  2  0  0  0
 16 21  1  0  0  0
 16 31  1  0  0  0
 17 18  1  0  0  0
 17 96  1  0  0  0
 18 19  2  0  0  0
 18 97  1  0  0  0
 19 20  1  0  0  0
 19 24  1  0  0  0
 20 21  2  0  0  0
 20 98  1  0  0  0
 21 23  1  0  0  0
 22 28  1  0  0  0
 22 32  2  0  0  0
 26 27  1  0  0  0
 28 99  1  0  0  0
 28100  1  0  0  0
 29101  1  0  0  0
 29102  1  0  0  0
 33 34  1  0  0  0
 33 66  1  0  0  0
 33 70  2  0  0  0
 34 36  1  0  0  0
 34 59  1  0  0  0
 34103  1  0  0  0
 35 44  2  0  0  0
 35 45  1  0  0  0
 35 68  1  0  0  0
 36 56  1  0  0  0
 36104  1  0  0  0
 37 39  1  0  0  0
 37 47  1  0  0  0
 37 66  1  0  0  0
 37105  1  0  0  0
 38 43  2  0  0  0
 38 46  1  0  0  0
 38 47  1  0  0  0
 39 64  1  0  0  0
 39 67  2  0  0  0
 40 52  1  0  0  0
 40 53  2  0  0  0
 40 58  1  0  0  0
 41106  1  0  0  0
 41107  1  0  0  0
 41108  1  0  0  0
 41 48  1  0  0  0
 42 43  1  0  0  0
 42 66  1  0  0  0
 42109  1  0  0  0
 42110  1  0  0  0
 43 44  1  0  0  0
 44111  1  0  0  0
 45 46  2  0  0  0
 45112  1  0  0  0
 46113  1  0  0  0
 47114  1  0  0  0
 47115  1  0  0  0
 48 56  1  0  0  0
 48 65  1  0  0  0
 48116  1  0  0  0
 49 50  1  0  0  0
 49 53  1  0  0  0
 49 64  1  0  0  0
 49117  1  0  0  0
 50 51  1  0  0  0
 50118  1  0  0  0
 50119  1  0  0  0
 51 52  1  0  0  0
 51120  1  0  0  0
 51121  1  0  0  0
 52122  1  0  0  0
 52123  1  0  0  0
 53 54  1  0  0  0
 54 55  2  0  0  0
 54124  1  0  0  0
 55 57  1  0  0  0
 55125  1  0  0  0
 56 69  2  0  0  0
 57 58  2  0  0  0
 57126  1  0  0  0
 58127  1  0  0  0
 59 60  1  0  0  0
 59 61  1  0  0  0
 59 62  1  0  0  0
 60128  1  0  0  0
 60129  1  0  0  0
 60130  1  0  0  0
 61131  1  0  0  0
 61132  1  0  0  0
 61133  1  0  0  0
 62134  1  0  0  0
 62135  1  0  0  0
 62136  1  0  0  0
 63 65  1  0  0  0
 63137  1  0  0  0
 63138  1  0  0  0
 63139  1  0  0  0
 64140  1  0  0  0
 65141  1  0  0  0
 68 79  1  0  0  0
 71 73  2  0  0  0
 71 75  1  0  0  0
 71142  1  0  0  0
 72 74  2  0  0  0
 72 76  1  0  0  0
 72143  1  0  0  0
 73 74  1  0  0  0
 73 77  1  0  0  0
 74 78  1  0  0  0
 75 76  2  0  0  0
 75 81  1  0  0  0
 76 82  1  0  0  0
 77 79  1  0  0  0
 77144  1  0  0  0
 77145  1  0  0  0
 78 80  1  0  0  0
 78146  1  0  0  0
 78147  1  0  0  0
 79148  1  0  0  0
 79149  1  0  0  0
 80150  1  0  0  0
M  ISO  4   1 100  68 101  79 101  80 100
M  END
> <chiral flag>
0

> <version>
0

> <s_m_source_file>
/data/baiqing/PycharmProjects/Reinvent-master-3.2/result/LINK_invent/BTK/process_docking_weight1_custom_sum_contain_oxygen_bond_distance_aromatic_linkinvent_7_9_3/rearranged_h_0031.sdf

> <i_m_source_file_index>
72

> <r_mmod_Potential_Energy-OPLS-2005>
1436.25744628906

> <r_mmod_Stretch_Energy-OPLS-2005>
667.283203125

> <r_mmod_Bend_Energy-OPLS-2005>
536.496704101562

> <r_mmod_Torsional_Energy-OPLS-2005>
209.752151489258

> <r_mmod_Improper_Torsional_Energy-OPLS-2005>
3.94846439361572

> <r_mmod_Van_der_Waal_Energy-OPLS-2005>
133.585479736328

> <r_mmod_Electrostatic_Energy-OPLS-2005>
-364.039489746094

> <r_mmod_Solvation_Energy-OPLS-2005>
-214.811477661133

> <b_mmod_Minimization_Converged-OPLS-2005>
0

> <r_mmod_RMS_Derivative-OPLS-2005>
1.88608109951019

$$$$
72
                    3D
 Structure written by MMmdl.
150158  0  0  1  0            999 V2000
  -30.5862  -14.8909   20.4480 C   0  0  0  0  0  0
  -30.4361  -12.5754   19.4481 C   0  0  0  0  0  0
  -29.4882  -12.4926   18.2236 C   0  0  0  0  0  0
  -28.0372  -12.2695   18.6739 C   0  0  0  0  0  0
  -27.6198  -13.2346   19.8119 C   0  0  2  0  0  0
  -28.6748  -13.2932   20.9403 C   0  0  0  0  0  0
  -25.2491  -13.8256   20.5773 C   0  0  0  0  0  0
  -24.1784  -13.0452   20.9224 C   0  0  0  0  0  0
  -24.6350  -11.6954   20.8780 C   0  0  0  0  0  0
  -23.9053  -10.4300   21.0425 C   0  0  0  0  0  0
  -24.3589   -9.4217   21.9196 C   0  0  0  0  0  0
  -23.6274   -8.2251   22.0778 C   0  0  0  0  0  0
  -22.4283   -8.0272   21.3567 C   0  0  0  0  0  0
  -21.9875   -9.0260   20.4677 C   0  0  0  0  0  0
  -22.7205  -10.2135   20.3073 C   0  0  0  0  0  0
  -21.6821   -6.0708   22.5290 C   0  0  0  0  0  0
  -21.4034   -6.5639   23.8220 C   0  0  0  0  0  0
  -21.3634   -5.6790   24.9172 C   0  0  0  0  0  0
  -21.6069   -4.3064   24.7230 C   0  0  0  0  0  0
  -21.8796   -3.8133   23.4352 C   0  0  0  0  0  0
  -21.9216   -4.6947   22.3400 C   0  0  0  0  0  0
  -22.7774  -13.5231   21.1871 C   0  0  0  0  0  0
  -22.1669   -4.2141   21.0965 F   0  0  0  0  0  0
  -21.5624   -3.4530   25.7729 F   0  0  0  0  0  0
  -29.9490  -13.6673   20.3316 N   0  0  0  0  0  0
  -26.2855  -12.9409   20.3192 N   0  0  0  0  0  0
  -25.9286  -11.6603   20.5781 N   0  0  0  0  0  0
  -22.0415  -12.8267   22.0429 N   0  0  0  0  0  0
  -25.4190  -15.1926   20.4278 N   0  0  0  0  0  0
  -31.8065  -14.9282   20.2683 O   0  0  0  0  0  0
  -21.6644   -6.8864   21.4264 O   0  0  0  0  0  0
  -22.3483  -14.5530   20.6678 O   0  0  0  0  0  0
  -24.6442  -31.8464   23.1899 C   0  0  0  0  0  0
  -25.9226  -32.4725   23.8299 C   0  0  1  0  0  0
  -27.2460  -27.1847   20.2006 C   0  0  0  0  0  0
  -25.6005  -33.8524   24.2266 N   0  0  0  0  0  0
  -23.4445  -30.4670   21.5330 C   0  0  2  0  0  0
  -24.9017  -28.8904   20.1257 C   0  0  0  0  0  0
  -22.7540  -29.4615   22.4929 C   0  0  0  0  0  0
  -18.0299  -28.1391   22.8502 C   0  0  0  0  0  0
  -24.1471  -36.7212   23.2635 C   0  0  0  0  0  0
  -25.9916  -30.7488   21.3696 C   0  0  0  0  0  0
  -26.0779  -29.3590   20.7285 C   0  0  0  0  0  0
  -27.2548  -28.5316   20.7306 C   0  0  0  0  0  0
  -26.0416  -26.7907   19.5742 C   0  0  0  0  0  0
  -24.8892  -27.6110   19.5435 C   0  0  0  0  0  0
  -23.6713  -29.7854   20.1578 C   0  0  0  0  0  0
  -25.4109  -36.3034   24.0345 C   0  0  1  0  0  0
  -20.5912  -28.3727   23.1227 C   0  0  2  0  0  0
  -20.6792  -26.9436   22.5406 C   0  0  0  0  0  0
  -19.5748  -26.6405   21.5199 C   0  0  0  0  0  0
  -18.1936  -26.7951   22.1608 C   0  0  0  0  0  0
  -19.1551  -28.8882   23.2866 C   0  0  0  0  0  0
  -18.9461  -30.1473   23.8901 C   0  0  0  0  0  0
  -17.6454  -30.6596   24.0574 C   0  0  0  0  0  0
  -25.9061  -34.9442   23.5100 C   0  0  0  0  0  0
  -16.5359  -29.9086   23.6317 C   0  0  0  0  0  0
  -16.7278  -28.6488   23.0381 C   0  0  0  0  0  0
  -26.4574  -31.6569   25.0722 C   0  0  0  0  0  0
  -25.3819  -31.3735   26.1465 C   0  0  0  0  0  0
  -27.0456  -30.2986   24.6250 C   0  0  0  0  0  0
  -27.6111  -32.4334   25.7523 C   0  0  0  0  0  0
  -27.5563  -37.1767   24.8485 C   0  0  0  0  0  0
  -21.4245  -29.3066   22.3616 N   0  0  0  0  0  0
  -26.4269  -37.3747   23.9447 N   0  0  0  0  0  0
  -24.7117  -31.0424   22.0864 N   0  0  0  0  0  0
  -23.4197  -28.8176   23.3097 O   0  0  0  0  0  0
  -28.3587  -26.2836   20.2435 O   0  0  0  0  0  0
  -26.5581  -34.8911   22.4643 O   0  0  0  0  0  0
  -23.5570  -32.1333   23.7175 O   0  0  0  0  0  0
  -30.7670  -21.4141   20.5734 C   0  0  0  0  0  0
  -28.6594  -19.6490   20.8028 C   0  0  0  0  0  0
  -29.4868  -22.0571   20.5370 C   0  0  0  0  0  0
  -29.9523  -19.0171   20.8057 C   0  0  0  0  0  0
  -28.4275  -21.0935   20.6682 C   0  0  0  0  0  0
  -30.9967  -19.9958   20.7090 C   0  0  0  0  0  0
  -29.4057  -23.6771   20.2554 C   0  0  0  0  0  0
  -30.2667  -17.4440   21.2129 C   0  0  0  0  0  0
  -28.2191  -24.7863   20.5958 C   0  0  0  0  0  0
  -29.8468  -16.0855   20.5916 N   0  0  0  0  0  0
  -26.7967  -21.6616   20.7066 Cl  0  0  0  0  0  0
  -32.6491  -19.4932   20.8229 Cl  0  0  0  0  0  0
  -31.4574  -12.7428   19.1002 H   0  0  0  0  0  0
  -30.4450  -11.6317   20.0010 H   0  0  0  0  0  0
  -29.7995  -11.6841   17.5580 H   0  0  0  0  0  0
  -29.5507  -13.4086   17.6292 H   0  0  0  0  0  0
  -27.9644  -11.2404   19.0265 H   0  0  0  0  0  0
  -27.3507  -12.3514   17.8275 H   0  0  0  0  0  0
  -27.5698  -14.2193   19.3503 H   0  0  0  0  0  0
  -28.7726  -12.3385   21.4608 H   0  0  0  0  0  0
  -28.3792  -14.0393   21.6796 H   0  0  0  0  0  0
  -25.2711   -9.5694   22.4786 H   0  0  0  0  0  0
  -23.9987   -7.4639   22.7474 H   0  0  0  0  0  0
  -21.0796   -8.8761   19.8963 H   0  0  0  0  0  0
  -22.3647  -10.9689   19.6184 H   0  0  0  0  0  0
  -21.2022   -7.6148   23.9718 H   0  0  0  0  0  0
  -21.1476   -6.0517   25.9083 H   0  0  0  0  0  0
  -22.0591   -2.7598   23.2846 H   0  0  0  0  0  0
  -22.4065  -11.9928   22.4815 H   0  0  0  0  0  0
  -21.1033  -13.1332   22.2671 H   0  0  0  0  0  0
  -24.6575  -15.8488   20.5634 H   0  0  0  0  0  0
  -26.2803  -15.6415   20.1503 H   0  0  0  0  0  0
  -26.7347  -32.5370   23.1084 H   0  0  0  0  0  0
  -25.0316  -33.9634   25.0522 H   0  0  0  0  0  0
  -22.7473  -31.2951   21.3767 H   0  0  0  0  0  0
  -23.3751  -35.9512   23.3289 H   0  0  0  0  0  0
  -24.3564  -36.8800   22.2042 H   0  0  0  0  0  0
  -23.7188  -37.6417   23.6614 H   0  0  0  0  0  0
  -26.1279  -31.5040   20.5939 H   0  0  0  0  0  0
  -26.8658  -30.8113   22.0026 H   0  0  0  0  0  0
  -28.1527  -28.8989   21.2100 H   0  0  0  0  0  0
  -25.9723  -25.8028   19.1363 H   0  0  0  0  0  0
  -23.9819  -27.2330   19.0855 H   0  0  0  0  0  0
  -23.8025  -30.5548   19.3948 H   0  0  0  0  0  0
  -22.7811  -29.2278   19.8556 H   0  0  0  0  0  0
  -25.1280  -36.1864   25.0829 H   0  0  0  0  0  0
  -21.0022  -28.3287   24.1337 H   0  0  0  0  0  0
  -20.5648  -26.2341   23.3630 H   0  0  0  0  0  0
  -21.6668  -26.7442   22.1195 H   0  0  0  0  0  0
  -19.6904  -25.6299   21.1275 H   0  0  0  0  0  0
  -19.6676  -27.3197   20.6716 H   0  0  0  0  0  0
  -17.4220  -26.6743   21.3983 H   0  0  0  0  0  0
  -18.0278  -26.0075   22.8955 H   0  0  0  0  0  0
  -19.7937  -30.7275   24.2293 H   0  0  0  0  0  0
  -17.5013  -31.6266   24.5191 H   0  0  0  0  0  0
  -15.5359  -30.2999   23.7640 H   0  0  0  0  0  0
  -15.8678  -28.0796   22.7126 H   0  0  0  0  0  0
  -24.6000  -30.7046   25.7833 H   0  0  0  0  0  0
  -24.9014  -32.2913   26.4861 H   0  0  0  0  0  0
  -25.8184  -30.8972   27.0261 H   0  0  0  0  0  0
  -26.3064  -29.6709   24.1254 H   0  0  0  0  0  0
  -27.4113  -29.7270   25.4793 H   0  0  0  0  0  0
  -27.8942  -30.4252   23.9529 H   0  0  0  0  0  0
  -27.2686  -33.3622   26.2088 H   0  0  0  0  0  0
  -28.3941  -32.6922   25.0388 H   0  0  0  0  0  0
  -28.0778  -31.8500   26.5465 H   0  0  0  0  0  0
  -28.2625  -38.0004   24.7517 H   0  0  0  0  0  0
  -28.1008  -36.2580   24.6334 H   0  0  0  0  0  0
  -27.2303  -37.1457   25.8879 H   0  0  0  0  0  0
  -20.9435  -29.8706   21.6746 H   0  0  0  0  0  0
  -26.0142  -38.2815   24.1411 H   0  0  0  0  0  0
  -31.6385  -22.0557   20.5146 H   0  0  0  0  0  0
  -27.7918  -19.0172   20.9576 H   0  0  0  0  0  0
  -29.5652  -23.7572   19.1788 H   0  0  0  0  0  0
  -30.3070  -24.0834   20.7246 H   0  0  0  0  0  0
  -29.7315  -17.3742   22.1578 H   0  0  0  0  0  0
  -31.3208  -17.3437   21.4834 H   0  0  0  0  0  0
  -27.2978  -24.4074   20.1677 H   0  0  0  0  0  0
  -28.0951  -24.7705   21.6817 H   0  0  0  0  0  0
  -28.8428  -15.9410   20.5439 H   0  0  0  0  0  0
  1 25  1  0  0  0
  1 30  2  0  0  0
  1 80  1  0  0  0
  2  3  1  0  0  0
  2 25  1  0  0  0
  2 83  1  0  0  0
  2 84  1  0  0  0
  3  4  1  0  0  0
  3 85  1  0  0  0
  3 86  1  0  0  0
  4  5  1  0  0  0
  4 87  1  0  0  0
  4 88  1  0  0  0
  5  6  1  0  0  0
  5 26  1  0  0  0
  5 89  1  0  0  0
  6 25  1  0  0  0
  6 90  1  0  0  0
  6 91  1  0  0  0
  7  8  2  0  0  0
  7 26  1  0  0  0
  7 29  1  0  0  0
  8  9  1  0  0  0
  8 22  1  0  0  0
  9 10  1  0  0  0
  9 27  2  0  0  0
 10 11  2  0  0  0
 10 15  1  0  0  0
 11 12  1  0  0  0
 11 92  1  0  0  0
 12 13  2  0  0  0
 12 93  1  0  0  0
 13 14  1  0  0  0
 13 31  1  0  0  0
 14 15  2  0  0  0
 14 94  1  0  0  0
 15 95  1  0  0  0
 16 17  2  0  0  0
 16 21  1  0  0  0
 16 31  1  0  0  0
 17 18  1  0  0  0
 17 96  1  0  0  0
 18 19  2  0  0  0
 18 97  1  0  0  0
 19 20  1  0  0  0
 19 24  1  0  0  0
 20 21  2  0  0  0
 20 98  1  0  0  0
 21 23  1  0  0  0
 22 28  1  0  0  0
 22 32  2  0  0  0
 26 27  1  0  0  0
 28 99  1  0  0  0
 28100  1  0  0  0
 29101  1  0  0  0
 29102  1  0  0  0
 33 34  1  0  0  0
 33 66  1  0  0  0
 33 70  2  0  0  0
 34 36  1  0  0  0
 34 59  1  0  0  0
 34103  1  0  0  0
 35 44  2  0  0  0
 35 45  1  0  0  0
 35 68  1  0  0  0
 36 56  1  0  0  0
 36104  1  0  0  0
 37 39  1  0  0  0
 37 47  1  0  0  0
 37 66  1  0  0  0
 37105  1  0  0  0
 38 43  2  0  0  0
 38 46  1  0  0  0
 38 47  1  0  0  0
 39 64  1  0  0  0
 39 67  2  0  0  0
 40 52  1  0  0  0
 40 53  2  0  0  0
 40 58  1  0  0  0
 41106  1  0  0  0
 41107  1  0  0  0
 41108  1  0  0  0
 41 48  1  0  0  0
 42 43  1  0  0  0
 42 66  1  0  0  0
 42109  1  0  0  0
 42110  1  0  0  0
 43 44  1  0  0  0
 44111  1  0  0  0
 45 46  2  0  0  0
 45112  1  0  0  0
 46113  1  0  0  0
 47114  1  0  0  0
 47115  1  0  0  0
 48 56  1  0  0  0
 48 65  1  0  0  0
 48116  1  0  0  0
 49 50  1  0  0  0
 49 53  1  0  0  0
 49 64  1  0  0  0
 49117  1  0  0  0
 50 51  1  0  0  0
 50118  1  0  0  0
 50119  1  0  0  0
 51 52  1  0  0  0
 51120  1  0  0  0
 51121  1  0  0  0
 52122  1  0  0  0
 52123  1  0  0  0
 53 54  1  0  0  0
 54 55  2  0  0  0
 54124  1  0  0  0
 55 57  1  0  0  0
 55125  1  0  0  0
 56 69  2  0  0  0
 57 58  2  0  0  0
 57126  1  0  0  0
 58127  1  0  0  0
 59 60  1  0  0  0
 59 61  1  0  0  0
 59 62  1  0  0  0
 60128  1  0  0  0
 60129  1  0  0  0
 60130  1  0  0  0
 61131  1  0  0  0
 61132  1  0  0  0
 61133  1  0  0  0
 62134  1  0  0  0
 62135  1  0  0  0
 62136  1  0  0  0
 63 65  1  0  0  0
 63137  1  0  0  0
 63138  1  0  0  0
 63139  1  0  0  0
 64140  1  0  0  0
 65141  1  0  0  0
 68 79  1  0  0  0
 71 73  2  0  0  0
 71 76  1  0  0  0
 71142  1  0  0  0
 72 74  1  0  0  0
 72 75  2  0  0  0
 72143  1  0  0  0
 73 75  1  0  0  0
 73 77  1  0  0  0
 74 76  2  0  0  0
 74 78  1  0  0  0
 75 81  1  0  0  0
 76 82  1  0  0  0
 77 79  1  0  0  0
 77144  1  0  0  0
 77145  1  0  0  0
 78 80  1  0  0  0
 78146  1  0  0  0
 78147  1  0  0  0
 79148  1  0  0  0
 79149  1  0  0  0
 80150  1  0  0  0
M  ISO  4   1 100  68 101  79 101  80 100
M  END
> <chiral flag>
0

> <version>
0

> <s_m_source_file>
/data/baiqing/PycharmProjects/Reinvent-master-3.2/result/LINK_invent/BTK/process_docking_weight1_custom_sum_contain_oxygen_bond_distance_aromatic_linkinvent_7_9_3/rearranged_h_0031.sdf

> <i_m_source_file_index>
73

> <r_mmod_Potential_Energy-OPLS-2005>
374.754852294922

> <r_mmod_Stretch_Energy-OPLS-2005>
199.72770690918

> <r_mmod_Bend_Energy-OPLS-2005>
256.817016601562

> <r_mmod_Torsional_Energy-OPLS-2005>
230.235488891602

> <r_mmod_Improper_Torsional_Energy-OPLS-2005>
6.81293201446533

> <r_mmod_Van_der_Waal_Energy-OPLS-2005>
129.319915771484

> <r_mmod_Electrostatic_Energy-OPLS-2005>
-391.130706787109

> <r_mmod_Solvation_Energy-OPLS-2005>
-215.869079589844

> <b_mmod_Minimization_Converged-OPLS-2005>
0

> <r_mmod_RMS_Derivative-OPLS-2005>
12.9325256347656

$$$$
73
                    3D
 Structure written by MMmdl.
162170  0  0  1  0            999 V2000
  -30.6844  -14.5492   20.5618 C   0  0  0  0  0  0
  -30.4343  -12.3620   19.4307 C   0  0  0  0  0  0
  -29.5020  -12.5049   18.2106 C   0  0  0  0  0  0
  -28.0246  -12.3618   18.6245 C   0  0  0  0  0  0
  -27.6596  -13.2148   19.8701 C   0  0  2  0  0  0
  -28.7056  -13.0442   20.9947 C   0  0  0  0  0  0
  -25.2594  -13.8183   20.5671 C   0  0  0  0  0  0
  -24.1856  -13.0456   20.9201 C   0  0  0  0  0  0
  -24.6414  -11.6922   20.8746 C   0  0  0  0  0  0
  -23.9074  -10.4305   21.0402 C   0  0  0  0  0  0
  -24.3630   -9.4221   21.9172 C   0  0  0  0  0  0
  -23.6300   -8.2255   22.0740 C   0  0  0  0  0  0
  -22.4280   -8.0292   21.3534 C   0  0  0  0  0  0
  -21.9922   -9.0270   20.4636 C   0  0  0  0  0  0
  -22.7247  -10.2148   20.3048 C   0  0  0  0  0  0
  -21.6866   -6.0737   22.5271 C   0  0  0  0  0  0
  -21.4014   -6.5640   23.8202 C   0  0  0  0  0  0
  -21.3658   -5.6792   24.9164 C   0  0  0  0  0  0
  -21.6053   -4.3054   24.7219 C   0  0  0  0  0  0
  -21.8829   -3.8145   23.4339 C   0  0  0  0  0  0
  -21.9200   -4.6963   22.3393 C   0  0  0  0  0  0
  -22.7876  -13.5247   21.1863 C   0  0  0  0  0  0
  -22.1665   -4.2153   21.0971 F   0  0  0  0  0  0
  -21.5633   -3.4533   25.7733 F   0  0  0  0  0  0
  -30.0238  -13.3652   20.4263 N   0  0  0  0  0  0
  -26.3032  -12.9353   20.3351 N   0  0  0  0  0  0
  -25.9349  -11.6513   20.5787 N   0  0  0  0  0  0
  -22.0513  -12.8226   22.0404 N   0  0  0  0  0  0
  -25.4319  -15.1895   20.4043 N   0  0  0  0  0  0
  -31.8336  -14.7153   20.1430 O   0  0  0  0  0  0
  -21.6654   -6.8878   21.4232 O   0  0  0  0  0  0
  -22.3559  -14.5544   20.6695 O   0  0  0  0  0  0
  -24.6213  -31.8632   23.2077 C   0  0  0  0  0  0
  -25.9079  -32.4794   23.8393 C   0  0  1  0  0  0
  -27.2188  -27.3801   20.1092 C   0  0  0  0  0  0
  -25.5925  -33.8595   24.2302 N   0  0  0  0  0  0
  -23.4107  -30.4897   21.5500 C   0  0  2  0  0  0
  -24.8527  -28.9476   20.1168 C   0  0  0  0  0  0
  -22.7444  -29.4646   22.4971 C   0  0  0  0  0  0
  -18.0275  -28.1384   22.8493 C   0  0  0  0  0  0
  -24.1487  -36.7307   23.2638 C   0  0  0  0  0  0
  -25.9456  -30.8123   21.3679 C   0  0  0  0  0  0
  -26.0172  -29.4401   20.7198 C   0  0  0  0  0  0
  -27.2054  -28.6655   20.7104 C   0  0  0  0  0  0
  -26.0406  -26.9172   19.4885 C   0  0  0  0  0  0
  -24.8616  -27.6872   19.4958 C   0  0  0  0  0  0
  -23.6184  -29.8232   20.1646 C   0  0  0  0  0  0
  -25.4111  -36.3088   24.0324 C   0  0  1  0  0  0
  -20.5872  -28.3679   23.1310 C   0  0  2  0  0  0
  -20.6774  -26.9408   22.5422 C   0  0  0  0  0  0
  -19.5753  -26.6381   21.5226 C   0  0  0  0  0  0
  -18.1925  -26.7928   22.1629 C   0  0  0  0  0  0
  -19.1525  -28.8846   23.2896 C   0  0  0  0  0  0
  -18.9460  -30.1450   23.8903 C   0  0  0  0  0  0
  -17.6459  -30.6589   24.0568 C   0  0  0  0  0  0
  -25.9050  -34.9454   23.5108 C   0  0  0  0  0  0
  -16.5349  -29.9092   23.6342 C   0  0  0  0  0  0
  -16.7261  -28.6511   23.0352 C   0  0  0  0  0  0
  -26.4463  -31.6592   25.0742 C   0  0  0  0  0  0
  -25.3708  -31.3705   26.1487 C   0  0  0  0  0  0
  -27.0298  -30.3043   24.6125 C   0  0  0  0  0  0
  -27.6056  -32.4309   25.7480 C   0  0  0  0  0  0
  -27.5575  -37.1805   24.8465 C   0  0  0  0  0  0
  -21.4169  -29.3037   22.3718 N   0  0  0  0  0  0
  -26.4290  -37.3783   23.9401 N   0  0  0  0  0  0
  -24.6783  -31.0720   22.0988 N   0  0  0  0  0  0
  -23.4192  -28.8176   23.3032 O   0  0  0  0  0  0
  -28.3629  -26.6043   20.0510 O   0  0  0  0  0  0
  -26.5623  -34.8914   22.4674 O   0  0  0  0  0  0
  -23.5397  -32.1383   23.7461 O   0  0  0  0  0  0
  -29.6219  -22.0398   18.0109 C   0  0  0  0  0  0
  -28.5995  -21.6828   20.5666 C   0  0  0  0  0  0
  -29.6783  -20.7552   18.5956 C   0  0  0  0  0  0
  -29.0287  -23.1387   18.6624 C   0  0  0  0  0  0
  -29.1674  -20.5470   19.9097 C   0  0  0  0  0  0
  -28.5078  -22.9773   19.9659 C   0  0  0  0  0  0
  -30.2598  -19.6464   17.7329 C   0  0  0  0  0  0
  -28.9390  -24.4613   17.9206 C   0  0  0  0  0  0
  -29.1170  -19.1625   20.6409 C   0  0  0  0  0  0
  -27.7501  -24.1246   20.6859 C   0  0  0  0  0  0
  -30.2117  -18.0707   20.3560 C   0  0  0  0  0  0
  -30.4384  -16.9419   21.4179 C   0  0  0  0  0  0
  -28.4703  -25.4923   20.9780 C   0  0  0  0  0  0
  -29.9630  -15.5798   21.0647 N   0  0  0  0  0  0
  -31.4750  -12.4813   19.1236 H   0  0  0  0  0  0
  -30.3602  -11.3619   19.8595 H   0  0  0  0  0  0
  -29.7549  -11.7539   17.4611 H   0  0  0  0  0  0
  -29.6578  -13.4743   17.7331 H   0  0  0  0  0  0
  -27.8433  -11.3061   18.8282 H   0  0  0  0  0  0
  -27.3750  -12.6252   17.7899 H   0  0  0  0  0  0
  -27.6886  -14.2567   19.5516 H   0  0  0  0  0  0
  -28.7123  -12.0225   21.3758 H   0  0  0  0  0  0
  -28.4593  -13.6764   21.8497 H   0  0  0  0  0  0
  -25.2780   -9.5714   22.4732 H   0  0  0  0  0  0
  -24.0035   -7.4658   22.7453 H   0  0  0  0  0  0
  -21.0858   -8.8780   19.8939 H   0  0  0  0  0  0
  -22.3698  -10.9687   19.6159 H   0  0  0  0  0  0
  -21.1985   -7.6147   23.9702 H   0  0  0  0  0  0
  -21.1474   -6.0518   25.9069 H   0  0  0  0  0  0
  -22.0606   -2.7612   23.2837 H   0  0  0  0  0  0
  -22.4152  -11.9913   22.4816 H   0  0  0  0  0  0
  -21.1111  -13.1211   22.2569 H   0  0  0  0  0  0
  -24.6647  -15.8456   20.5021 H   0  0  0  0  0  0
  -26.2798  -15.6225   20.0585 H   0  0  0  0  0  0
  -26.7161  -32.5449   23.1167 H   0  0  0  0  0  0
  -25.0091  -33.9768   25.0455 H   0  0  0  0  0  0
  -22.7034  -31.3099   21.4110 H   0  0  0  0  0  0
  -23.3737  -35.9657   23.3316 H   0  0  0  0  0  0
  -24.3589  -36.8909   22.2053 H   0  0  0  0  0  0
  -23.7252  -37.6517   23.6655 H   0  0  0  0  0  0
  -26.0685  -31.5696   20.5925 H   0  0  0  0  0  0
  -26.8337  -30.8647   21.9869 H   0  0  0  0  0  0
  -28.1099  -29.0421   21.1665 H   0  0  0  0  0  0
  -26.0242  -25.9648   18.9812 H   0  0  0  0  0  0
  -23.9708  -27.3077   19.0151 H   0  0  0  0  0  0
  -23.7301  -30.5980   19.4055 H   0  0  0  0  0  0
  -22.7386  -29.2488   19.8690 H   0  0  0  0  0  0
  -25.1280  -36.1963   25.0817 H   0  0  0  0  0  0
  -20.9966  -28.3246   24.1429 H   0  0  0  0  0  0
  -20.5705  -26.2273   23.3604 H   0  0  0  0  0  0
  -21.6637  -26.7462   22.1190 H   0  0  0  0  0  0
  -19.6915  -25.6295   21.1246 H   0  0  0  0  0  0
  -19.6695  -27.3206   20.6765 H   0  0  0  0  0  0
  -17.4194  -26.6690   21.4024 H   0  0  0  0  0  0
  -18.0317  -26.0060   22.9016 H   0  0  0  0  0  0
  -19.7932  -30.7271   24.2270 H   0  0  0  0  0  0
  -17.5012  -31.6273   24.5167 H   0  0  0  0  0  0
  -15.5352  -30.2998   23.7655 H   0  0  0  0  0  0
  -15.8659  -28.0838   22.7062 H   0  0  0  0  0  0
  -24.5893  -30.7035   25.7818 H   0  0  0  0  0  0
  -24.8873  -32.2844   26.4936 H   0  0  0  0  0  0
  -25.8031  -30.8868   27.0255 H   0  0  0  0  0  0
  -26.2843  -29.6816   24.1162 H   0  0  0  0  0  0
  -27.4065  -29.7270   25.4581 H   0  0  0  0  0  0
  -27.8674  -30.4376   23.9274 H   0  0  0  0  0  0
  -27.2712  -33.3628   26.2048 H   0  0  0  0  0  0
  -28.3839  -32.6837   25.0263 H   0  0  0  0  0  0
  -28.0745  -31.8426   26.5378 H   0  0  0  0  0  0
  -28.2591  -38.0106   24.7513 H   0  0  0  0  0  0
  -28.1064  -36.2634   24.6277 H   0  0  0  0  0  0
  -27.2300  -37.1439   25.8872 H   0  0  0  0  0  0
  -20.9347  -29.8731   21.6904 H   0  0  0  0  0  0
  -26.0171  -38.2852   24.1425 H   0  0  0  0  0  0
  -30.0146  -22.1838   17.0138 H   0  0  0  0  0  0
  -28.1798  -21.5412   21.5537 H   0  0  0  0  0  0
  -30.5599  -20.0148   16.7521 H   0  0  0  0  0  0
  -29.5266  -18.8557   17.5681 H   0  0  0  0  0  0
  -31.1590  -19.2269   18.1763 H   0  0  0  0  0  0
  -29.6676  -25.1659   18.3192 H   0  0  0  0  0  0
  -27.9430  -24.8988   17.9983 H   0  0  0  0  0  0
  -29.1532  -24.3400   16.8583 H   0  0  0  0  0  0
  -28.1335  -18.7258   20.4659 H   0  0  0  0  0  0
  -29.1430  -19.3783   21.7095 H   0  0  0  0  0  0
  -27.4501  -23.7267   21.6562 H   0  0  0  0  0  0
  -26.8080  -24.2904   20.1688 H   0  0  0  0  0  0
  -31.1614  -18.6030   20.3024 H   0  0  0  0  0  0
  -30.0617  -17.6060   19.3839 H   0  0  0  0  0  0
  -30.0027  -17.2365   22.3720 H   0  0  0  0  0  0
  -31.5102  -16.8757   21.6159 H   0  0  0  0  0  0
  -29.5304  -25.2958   21.1397 H   0  0  0  0  0  0
  -28.1083  -25.8574   21.9406 H   0  0  0  0  0  0
  -29.0078  -15.3621   21.3105 H   0  0  0  0  0  0
  1 25  1  0  0  0
  1 30  2  0  0  0
  1 84  1  0  0  0
  2  3  1  0  0  0
  2 25  1  0  0  0
  2 85  1  0  0  0
  2 86  1  0  0  0
  3  4  1  0  0  0
  3 87  1  0  0  0
  3 88  1  0  0  0
  4  5  1  0  0  0
  4 89  1  0  0  0
  4 90  1  0  0  0
  5  6  1  0  0  0
  5 26  1  0  0  0
  5 91  1  0  0  0
  6 25  1  0  0  0
  6 92  1  0  0  0
  6 93  1  0  0  0
  7  8  2  0  0  0
  7 26  1  0  0  0
  7 29  1  0  0  0
  8  9  1  0  0  0
  8 22  1  0  0  0
  9 10  1  0  0  0
  9 27  2  0  0  0
 10 11  2  0  0  0
 10 15  1  0  0  0
 11 12  1  0  0  0
 11 94  1  0  0  0
 12 13  2  0  0  0
 12 95  1  0  0  0
 13 14  1  0  0  0
 13 31  1  0  0  0
 14 15  2  0  0  0
 14 96  1  0  0  0
 15 97  1  0  0  0
 16 17  2  0  0  0
 16 21  1  0  0  0
 16 31  1  0  0  0
 17 18  1  0  0  0
 17 98  1  0  0  0
 18 19  2  0  0  0
 18 99  1  0  0  0
 19 20  1  0  0  0
 19 24  1  0  0  0
 20 21  2  0  0  0
 20100  1  0  0  0
 21 23  1  0  0  0
 22 28  1  0  0  0
 22 32  2  0  0  0
 26 27  1  0  0  0
 28101  1  0  0  0
 28102  1  0  0  0
 29103  1  0  0  0
 29104  1  0  0  0
 33 34  1  0  0  0
 33 66  1  0  0  0
 33 70  2  0  0  0
 34 36  1  0  0  0
 34 59  1  0  0  0
 34105  1  0  0  0
 35 44  2  0  0  0
 35 45  1  0  0  0
 35 68  1  0  0  0
 36 56  1  0  0  0
 36106  1  0  0  0
 37 39  1  0  0  0
 37 47  1  0  0  0
 37 66  1  0  0  0
 37107  1  0  0  0
 38 43  2  0  0  0
 38 46  1  0  0  0
 38 47  1  0  0  0
 39 64  1  0  0  0
 39 67  2  0  0  0
 40 52  1  0  0  0
 40 53  2  0  0  0
 40 58  1  0  0  0
 41108  1  0  0  0
 41109  1  0  0  0
 41110  1  0  0  0
 41 48  1  0  0  0
 42 43  1  0  0  0
 42 66  1  0  0  0
 42111  1  0  0  0
 42112  1  0  0  0
 43 44  1  0  0  0
 44113  1  0  0  0
 45 46  2  0  0  0
 45114  1  0  0  0
 46115  1  0  0  0
 47116  1  0  0  0
 47117  1  0  0  0
 48 56  1  0  0  0
 48 65  1  0  0  0
 48118  1  0  0  0
 49 50  1  0  0  0
 49 53  1  0  0  0
 49 64  1  0  0  0
 49119  1  0  0  0
 50 51  1  0  0  0
 50120  1  0  0  0
 50121  1  0  0  0
 51 52  1  0  0  0
 51122  1  0  0  0
 51123  1  0  0  0
 52124  1  0  0  0
 52125  1  0  0  0
 53 54  1  0  0  0
 54 55  2  0  0  0
 54126  1  0  0  0
 55 57  1  0  0  0
 55127  1  0  0  0
 56 69  2  0  0  0
 57 58  2  0  0  0
 57128  1  0  0  0
 58129  1  0  0  0
 59 60  1  0  0  0
 59 61  1  0  0  0
 59 62  1  0  0  0
 60130  1  0  0  0
 60131  1  0  0  0
 60132  1  0  0  0
 61133  1  0  0  0
 61134  1  0  0  0
 61135  1  0  0  0
 62136  1  0  0  0
 62137  1  0  0  0
 62138  1  0  0  0
 63 65  1  0  0  0
 63139  1  0  0  0
 63140  1  0  0  0
 63141  1  0  0  0
 64142  1  0  0  0
 65143  1  0  0  0
 68 83  1  0  0  0
 71 73  2  0  0  0
 71 74  1  0  0  0
 71144  1  0  0  0
 72 75  2  0  0  0
 72 76  1  0  0  0
 72145  1  0  0  0
 73 75  1  0  0  0
 73 77  1  0  0  0
 74 76  2  0  0  0
 74 78  1  0  0  0
 75 79  1  0  0  0
 76 80  1  0  0  0
 77146  1  0  0  0
 77147  1  0  0  0
 77148  1  0  0  0
 78149  1  0  0  0
 78150  1  0  0  0
 78151  1  0  0  0
 79 81  1  0  0  0
 79152  1  0  0  0
 79153  1  0  0  0
 80 83  1  0  0  0
 80154  1  0  0  0
 80155  1  0  0  0
 81 82  1  0  0  0
 81156  1  0  0  0
 81157  1  0  0  0
 82 84  1  0  0  0
 82158  1  0  0  0
 82159  1  0  0  0
 83160  1  0  0  0
 83161  1  0  0  0
 84162  1  0  0  0
M  ISO  4   1 100  68 101  83 101  84 100
M  END
> <chiral flag>
0

> <version>
0

> <s_m_source_file>
/data/baiqing/PycharmProjects/Reinvent-master-3.2/result/LINK_invent/BTK/process_docking_weight1_custom_sum_contain_oxygen_bond_distance_aromatic_linkinvent_7_9_3/rearranged_h_0031.sdf

> <i_m_source_file_index>
74

> <r_mmod_Potential_Energy-OPLS-2005>
8.73692321777344

> <r_mmod_Stretch_Energy-OPLS-2005>
54.1397438049316

> <r_mmod_Bend_Energy-OPLS-2005>
130.568023681641

> <r_mmod_Torsional_Energy-OPLS-2005>
238.691040039062

> <r_mmod_Improper_Torsional_Energy-OPLS-2005>
3.52683877944946

> <r_mmod_Van_der_Waal_Energy-OPLS-2005>
149.118194580078

> <r_mmod_Electrostatic_Energy-OPLS-2005>
-386.856475830078

> <r_mmod_Solvation_Energy-OPLS-2005>
-204.298767089844

> <b_mmod_Minimization_Converged-OPLS-2005>
0

> <r_mmod_RMS_Derivative-OPLS-2005>
2.86645579338074

$$$$
74
                    3D
 Structure written by MMmdl.
162170  0  0  1  0            999 V2000
  -30.7426  -14.3972   20.6640 C   0  0  0  0  0  0
  -30.4229  -12.3016   19.3959 C   0  0  0  0  0  0
  -29.4862  -12.5197   18.1921 C   0  0  0  0  0  0
  -28.0102  -12.3742   18.6105 C   0  0  0  0  0  0
  -27.6651  -13.2009   19.8771 C   0  0  2  0  0  0
  -28.7039  -12.9451   20.9902 C   0  0  0  0  0  0
  -25.2608  -13.8150   20.5671 C   0  0  0  0  0  0
  -24.1848  -13.0438   20.9164 C   0  0  0  0  0  0
  -24.6388  -11.6900   20.8726 C   0  0  0  0  0  0
  -23.9054  -10.4292   21.0402 C   0  0  0  0  0  0
  -24.3607   -9.4209   21.9182 C   0  0  0  0  0  0
  -23.6285   -8.2245   22.0755 C   0  0  0  0  0  0
  -22.4270   -8.0279   21.3543 C   0  0  0  0  0  0
  -21.9902   -9.0252   20.4646 C   0  0  0  0  0  0
  -22.7228  -10.2133   20.3052 C   0  0  0  0  0  0
  -21.6852   -6.0733   22.5278 C   0  0  0  0  0  0
  -21.4013   -6.5638   23.8210 C   0  0  0  0  0  0
  -21.3658   -5.6792   24.9174 C   0  0  0  0  0  0
  -21.6046   -4.3054   24.7227 C   0  0  0  0  0  0
  -21.8819   -3.8145   23.4347 C   0  0  0  0  0  0
  -21.9192   -4.6961   22.3402 C   0  0  0  0  0  0
  -22.7873  -13.5244   21.1832 C   0  0  0  0  0  0
  -22.1661   -4.2147   21.0980 F   0  0  0  0  0  0
  -21.5630   -3.4538   25.7739 F   0  0  0  0  0  0
  -30.0415  -13.2537   20.4492 N   0  0  0  0  0  0
  -26.3039  -12.9309   20.3364 N   0  0  0  0  0  0
  -25.9311  -11.6473   20.5751 N   0  0  0  0  0  0
  -22.0509  -12.8240   22.0386 N   0  0  0  0  0  0
  -25.4356  -15.1866   20.4084 N   0  0  0  0  0  0
  -31.8061  -14.6593   20.0947 O   0  0  0  0  0  0
  -21.6636   -6.8875   21.4240 O   0  0  0  0  0  0
  -22.3564  -14.5555   20.6686 O   0  0  0  0  0  0
  -24.6137  -31.8694   23.2114 C   0  0  0  0  0  0
  -25.9034  -32.4831   23.8410 C   0  0  1  0  0  0
  -27.2366  -27.4387   20.0888 C   0  0  0  0  0  0
  -25.5884  -33.8630   24.2334 N   0  0  0  0  0  0
  -23.4010  -30.4927   21.5531 C   0  0  2  0  0  0
  -24.8448  -28.9567   20.1214 C   0  0  0  0  0  0
  -22.7412  -29.4660   22.5014 C   0  0  0  0  0  0
  -18.0268  -28.1375   22.8492 C   0  0  0  0  0  0
  -24.1487  -36.7320   23.2637 C   0  0  0  0  0  0
  -25.9300  -30.8337   21.3656 C   0  0  0  0  0  0
  -26.0055  -29.4682   20.7132 C   0  0  0  0  0  0
  -27.2018  -28.7169   20.6917 C   0  0  0  0  0  0
  -26.0519  -26.9391   19.4966 C   0  0  0  0  0  0
  -24.8623  -27.6905   19.5138 C   0  0  0  0  0  0
  -23.6085  -29.8247   20.1686 C   0  0  0  0  0  0
  -25.4105  -36.3118   24.0338 C   0  0  1  0  0  0
  -20.5860  -28.3655   23.1331 C   0  0  2  0  0  0
  -20.6765  -26.9397   22.5420 C   0  0  0  0  0  0
  -19.5741  -26.6386   21.5217 C   0  0  0  0  0  0
  -18.1915  -26.7919   22.1624 C   0  0  0  0  0  0
  -19.1518  -28.8832   23.2905 C   0  0  0  0  0  0
  -18.9451  -30.1440   23.8915 C   0  0  0  0  0  0
  -17.6457  -30.6584   24.0564 C   0  0  0  0  0  0
  -25.9030  -34.9483   23.5137 C   0  0  0  0  0  0
  -16.5346  -29.9087   23.6327 C   0  0  0  0  0  0
  -16.7258  -28.6504   23.0346 C   0  0  0  0  0  0
  -26.4461  -31.6610   25.0738 C   0  0  0  0  0  0
  -25.3725  -31.3715   26.1492 C   0  0  0  0  0  0
  -27.0291  -30.3051   24.6111 C   0  0  0  0  0  0
  -27.6038  -32.4330   25.7500 C   0  0  0  0  0  0
  -27.5583  -37.1815   24.8463 C   0  0  0  0  0  0
  -21.4142  -29.3028   22.3752 N   0  0  0  0  0  0
  -26.4298  -37.3797   23.9404 N   0  0  0  0  0  0
  -24.6665  -31.0798   22.1015 N   0  0  0  0  0  0
  -23.4196  -28.8201   23.3045 O   0  0  0  0  0  0
  -28.4386  -26.7582   20.0605 O   0  0  0  0  0  0
  -26.5604  -34.8929   22.4704 O   0  0  0  0  0  0
  -23.5331  -32.1455   23.7511 O   0  0  0  0  0  0
  -27.8822  -19.7623   21.9034 C   0  0  0  0  0  0
  -29.0730  -21.9397   20.5981 C   0  0  0  0  0  0
  -27.4421  -21.0731   22.1845 C   0  0  0  0  0  0
  -28.9027  -19.5219   20.9616 C   0  0  0  0  0  0
  -28.0403  -22.1838   21.5333 C   0  0  0  0  0  0
  -29.4980  -20.6255   20.3054 C   0  0  0  0  0  0
  -26.3107  -21.2547   23.1842 C   0  0  0  0  0  0
  -29.2992  -18.0778   20.6529 C   0  0  0  0  0  0
  -27.5355  -23.6034   21.8303 C   0  0  0  0  0  0
  -30.7143  -17.6853   21.1343 C   0  0  0  0  0  0
  -28.4692  -24.7978   21.5287 C   0  0  0  0  0  0
  -30.7825  -16.4687   22.0839 C   0  0  0  0  0  0
  -28.4473  -25.3232   20.0781 C   0  0  0  0  0  0
  -30.1909  -15.2410   21.5478 N   0  0  0  0  0  0
  -30.7402  -20.3972   19.1250 Cl  0  0  0  0  0  0
  -31.4643  -12.4137   19.0888 H   0  0  0  0  0  0
  -30.3345  -11.2807   19.7703 H   0  0  0  0  0  0
  -29.7209  -11.8078   17.3999 H   0  0  0  0  0  0
  -29.6525  -13.5125   17.7712 H   0  0  0  0  0  0
  -27.8207  -11.3162   18.7967 H   0  0  0  0  0  0
  -27.3555  -12.6585   17.7861 H   0  0  0  0  0  0
  -27.7225  -14.2541   19.6012 H   0  0  0  0  0  0
  -28.6750  -11.8988   21.2979 H   0  0  0  0  0  0
  -28.4495  -13.5098   21.8871 H   0  0  0  0  0  0
  -25.2752   -9.5688   22.4753 H   0  0  0  0  0  0
  -23.9995   -7.4639   22.7475 H   0  0  0  0  0  0
  -21.0835   -8.8768   19.8950 H   0  0  0  0  0  0
  -22.3687  -10.9669   19.6159 H   0  0  0  0  0  0
  -21.2003   -7.6146   23.9714 H   0  0  0  0  0  0
  -21.1481   -6.0521   25.9077 H   0  0  0  0  0  0
  -22.0600   -2.7607   23.2848 H   0  0  0  0  0  0
  -22.4114  -11.9895   22.4770 H   0  0  0  0  0  0
  -21.1126  -13.1271   22.2583 H   0  0  0  0  0  0
  -24.6740  -15.8471   20.5192 H   0  0  0  0  0  0
  -26.2947  -15.6211   20.0952 H   0  0  0  0  0  0
  -26.7106  -32.5549   23.1178 H   0  0  0  0  0  0
  -25.0021  -33.9788   25.0473 H   0  0  0  0  0  0
  -22.6888  -31.3089   21.4154 H   0  0  0  0  0  0
  -23.3746  -35.9656   23.3314 H   0  0  0  0  0  0
  -24.3578  -36.8921   22.2047 H   0  0  0  0  0  0
  -23.7249  -37.6530   23.6649 H   0  0  0  0  0  0
  -26.0453  -31.6005   20.5983 H   0  0  0  0  0  0
  -26.8167  -30.8852   21.9860 H   0  0  0  0  0  0
  -28.1021  -29.1134   21.1407 H   0  0  0  0  0  0
  -26.0201  -25.9884   18.9885 H   0  0  0  0  0  0
  -23.9704  -27.2927   19.0495 H   0  0  0  0  0  0
  -23.7175  -30.5998   19.4093 H   0  0  0  0  0  0
  -22.7320  -29.2442   19.8737 H   0  0  0  0  0  0
  -25.1283  -36.1992   25.0830 H   0  0  0  0  0  0
  -20.9941  -28.3222   24.1456 H   0  0  0  0  0  0
  -20.5691  -26.2258   23.3600 H   0  0  0  0  0  0
  -21.6633  -26.7459   22.1196 H   0  0  0  0  0  0
  -19.6910  -25.6308   21.1221 H   0  0  0  0  0  0
  -19.6684  -27.3220   20.6767 H   0  0  0  0  0  0
  -17.4190  -26.6672   21.4019 H   0  0  0  0  0  0
  -18.0307  -26.0061   22.9021 H   0  0  0  0  0  0
  -19.7935  -30.7236   24.2299 H   0  0  0  0  0  0
  -17.5019  -31.6266   24.5159 H   0  0  0  0  0  0
  -15.5346  -30.2992   23.7649 H   0  0  0  0  0  0
  -15.8657  -28.0830   22.7053 H   0  0  0  0  0  0
  -24.5884  -30.7081   25.7832 H   0  0  0  0  0  0
  -24.8930  -32.2864   26.4974 H   0  0  0  0  0  0
  -25.8070  -30.8860   27.0239 H   0  0  0  0  0  0
  -26.2842  -29.6823   24.1143 H   0  0  0  0  0  0
  -27.4039  -29.7278   25.4572 H   0  0  0  0  0  0
  -27.8686  -30.4370   23.9282 H   0  0  0  0  0  0
  -27.2653  -33.3616   26.2113 H   0  0  0  0  0  0
  -28.3822  -32.6916   25.0310 H   0  0  0  0  0  0
  -28.0734  -31.8438   26.5385 H   0  0  0  0  0  0
  -28.2605  -38.0110   24.7502 H   0  0  0  0  0  0
  -28.1073  -36.2638   24.6299 H   0  0  0  0  0  0
  -27.2294  -37.1471   25.8866 H   0  0  0  0  0  0
  -20.9318  -29.8758   21.6974 H   0  0  0  0  0  0
  -26.0195  -38.2881   24.1396 H   0  0  0  0  0  0
  -27.4153  -18.9250   22.4043 H   0  0  0  0  0  0
  -29.5488  -22.7558   20.0774 H   0  0  0  0  0  0
  -25.8343  -20.3040   23.4250 H   0  0  0  0  0  0
  -25.5370  -21.9117   22.7864 H   0  0  0  0  0  0
  -26.6852  -21.6829   24.1143 H   0  0  0  0  0  0
  -29.2265  -17.9232   19.5756 H   0  0  0  0  0  0
  -28.5556  -17.4072   21.0844 H   0  0  0  0  0  0
  -27.3250  -23.6538   22.8987 H   0  0  0  0  0  0
  -26.5740  -23.7472   21.3360 H   0  0  0  0  0  0
  -31.1761  -18.5339   21.6413 H   0  0  0  0  0  0
  -31.3453  -17.5010   20.2637 H   0  0  0  0  0  0
  -29.4894  -24.5978   21.8589 H   0  0  0  0  0  0
  -28.1244  -25.6134   22.1653 H   0  0  0  0  0  0
  -30.2676  -16.7092   23.0150 H   0  0  0  0  0  0
  -31.8212  -16.2761   22.3590 H   0  0  0  0  0  0
  -27.6522  -24.8606   19.4990 H   0  0  0  0  0  0
  -29.3629  -25.0080   19.5784 H   0  0  0  0  0  0
  -29.3172  -14.9402   21.9546 H   0  0  0  0  0  0
  1 25  1  0  0  0
  1 30  2  0  0  0
  1 84  1  0  0  0
  2  3  1  0  0  0
  2 25  1  0  0  0
  2 86  1  0  0  0
  2 87  1  0  0  0
  3  4  1  0  0  0
  3 88  1  0  0  0
  3 89  1  0  0  0
  4  5  1  0  0  0
  4 90  1  0  0  0
  4 91  1  0  0  0
  5  6  1  0  0  0
  5 26  1  0  0  0
  5 92  1  0  0  0
  6 25  1  0  0  0
  6 93  1  0  0  0
  6 94  1  0  0  0
  7  8  2  0  0  0
  7 26  1  0  0  0
  7 29  1  0  0  0
  8  9  1  0  0  0
  8 22  1  0  0  0
  9 10  1  0  0  0
  9 27  2  0  0  0
 10 11  2  0  0  0
 10 15  1  0  0  0
 11 12  1  0  0  0
 11 95  1  0  0  0
 12 13  2  0  0  0
 12 96  1  0  0  0
 13 14  1  0  0  0
 13 31  1  0  0  0
 14 15  2  0  0  0
 14 97  1  0  0  0
 15 98  1  0  0  0
 16 17  2  0  0  0
 16 21  1  0  0  0
 16 31  1  0  0  0
 17 18  1  0  0  0
 17 99  1  0  0  0
 18 19  2  0  0  0
 18100  1  0  0  0
 19 20  1  0  0  0
 19 24  1  0  0  0
 20 21  2  0  0  0
 20101  1  0  0  0
 21 23  1  0  0  0
 22 28  1  0  0  0
 22 32  2  0  0  0
 26 27  1  0  0  0
 28102  1  0  0  0
 28103  1  0  0  0
 29104  1  0  0  0
 29105  1  0  0  0
 33 34  1  0  0  0
 33 66  1  0  0  0
 33 70  2  0  0  0
 34 36  1  0  0  0
 34 59  1  0  0  0
 34106  1  0  0  0
 35 44  2  0  0  0
 35 45  1  0  0  0
 35 68  1  0  0  0
 36 56  1  0  0  0
 36107  1  0  0  0
 37 39  1  0  0  0
 37 47  1  0  0  0
 37 66  1  0  0  0
 37108  1  0  0  0
 38 43  2  0  0  0
 38 46  1  0  0  0
 38 47  1  0  0  0
 39 64  1  0  0  0
 39 67  2  0  0  0
 40 52  1  0  0  0
 40 53  2  0  0  0
 40 58  1  0  0  0
 41109  1  0  0  0
 41110  1  0  0  0
 41111  1  0  0  0
 41 48  1  0  0  0
 42 43  1  0  0  0
 42 66  1  0  0  0
 42112  1  0  0  0
 42113  1  0  0  0
 43 44  1  0  0  0
 44114  1  0  0  0
 45 46  2  0  0  0
 45115  1  0  0  0
 46116  1  0  0  0
 47117  1  0  0  0
 47118  1  0  0  0
 48 56  1  0  0  0
 48 65  1  0  0  0
 48119  1  0  0  0
 49 50  1  0  0  0
 49 53  1  0  0  0
 49 64  1  0  0  0
 49120  1  0  0  0
 50 51  1  0  0  0
 50121  1  0  0  0
 50122  1  0  0  0
 51 52  1  0  0  0
 51123  1  0  0  0
 51124  1  0  0  0
 52125  1  0  0  0
 52126  1  0  0  0
 53 54  1  0  0  0
 54 55  2  0  0  0
 54127  1  0  0  0
 55 57  1  0  0  0
 55128  1  0  0  0
 56 69  2  0  0  0
 57 58  2  0  0  0
 57129  1  0  0  0
 58130  1  0  0  0
 59 60  1  0  0  0
 59 61  1  0  0  0
 59 62  1  0  0  0
 60131  1  0  0  0
 60132  1  0  0  0
 60133  1  0  0  0
 61134  1  0  0  0
 61135  1  0  0  0
 61136  1  0  0  0
 62137  1  0  0  0
 62138  1  0  0  0
 62139  1  0  0  0
 63 65  1  0  0  0
 63140  1  0  0  0
 63141  1  0  0  0
 63142  1  0  0  0
 64143  1  0  0  0
 65144  1  0  0  0
 68 83  1  0  0  0
 71 73  2  0  0  0
 71 74  1  0  0  0
 71145  1  0  0  0
 72 75  2  0  0  0
 72 76  1  0  0  0
 72146  1  0  0  0
 73 75  1  0  0  0
 73 77  1  0  0  0
 74 76  2  0  0  0
 74 78  1  0  0  0
 75 79  1  0  0  0
 76 85  1  0  0  0
 77147  1  0  0  0
 77148  1  0  0  0
 77149  1  0  0  0
 78 80  1  0  0  0
 78150  1  0  0  0
 78151  1  0  0  0
 79 81  1  0  0  0
 79152  1  0  0  0
 79153  1  0  0  0
 80 82  1  0  0  0
 80154  1  0  0  0
 80155  1  0  0  0
 81 83  1  0  0  0
 81156  1  0  0  0
 81157  1  0  0  0
 82 84  1  0  0  0
 82158  1  0  0  0
 82159  1  0  0  0
 83160  1  0  0  0
 83161  1  0  0  0
 84162  1  0  0  0
M  ISO  4   1 100  68 101  83 101  84 100
M  END
> <chiral flag>
0

> <version>
0

> <s_m_source_file>
/data/baiqing/PycharmProjects/Reinvent-master-3.2/result/LINK_invent/BTK/process_docking_weight1_custom_sum_contain_oxygen_bond_distance_aromatic_linkinvent_7_9_3/rearranged_h_0031.sdf

> <i_m_source_file_index>
75

> <r_mmod_Potential_Energy-OPLS-2005>
-56.6947937011719

> <r_mmod_Stretch_Energy-OPLS-2005>
35.6417961120605

> <r_mmod_Bend_Energy-OPLS-2005>
104.854782104492

> <r_mmod_Torsional_Energy-OPLS-2005>
219.668334960938

> <r_mmod_Improper_Torsional_Energy-OPLS-2005>
1.89909958839417

> <r_mmod_Van_der_Waal_Energy-OPLS-2005>
153.690856933594

> <r_mmod_Electrostatic_Energy-OPLS-2005>
-378.458862304688

> <r_mmod_Solvation_Energy-OPLS-2005>
-202.39306640625

> <b_mmod_Minimization_Converged-OPLS-2005>
0

> <r_mmod_RMS_Derivative-OPLS-2005>
0.835932195186615

$$$$
75
                    3D
 Structure written by MMmdl.
161170  0  0  1  0            999 V2000
  -30.6216  -14.6699   20.5379 C   0  0  0  0  0  0
  -30.4525  -12.4314   19.4311 C   0  0  0  0  0  0
  -29.5017  -12.5291   18.2148 C   0  0  0  0  0  0
  -28.0266  -12.3504   18.6329 C   0  0  0  0  0  0
  -27.6609  -13.1947   19.8808 C   0  0  2  0  0  0
  -28.7264  -12.9772   20.9836 C   0  0  0  0  0  0
  -25.2569  -13.8101   20.5686 C   0  0  0  0  0  0
  -24.1824  -13.0393   20.9195 C   0  0  0  0  0  0
  -24.6389  -11.6871   20.8775 C   0  0  0  0  0  0
  -23.9046  -10.4276   21.0427 C   0  0  0  0  0  0
  -24.3611   -9.4190   21.9194 C   0  0  0  0  0  0
  -23.6291   -8.2222   22.0753 C   0  0  0  0  0  0
  -22.4265   -8.0278   21.3541 C   0  0  0  0  0  0
  -21.9903   -9.0249   20.4634 C   0  0  0  0  0  0
  -22.7231  -10.2133   20.3050 C   0  0  0  0  0  0
  -21.6843   -6.0744   22.5288 C   0  0  0  0  0  0
  -21.4013   -6.5649   23.8226 C   0  0  0  0  0  0
  -21.3650   -5.6797   24.9183 C   0  0  0  0  0  0
  -21.6029   -4.3059   24.7234 C   0  0  0  0  0  0
  -21.8820   -3.8153   23.4356 C   0  0  0  0  0  0
  -21.9194   -4.6971   22.3412 C   0  0  0  0  0  0
  -22.7851  -13.5212   21.1840 C   0  0  0  0  0  0
  -22.1658   -4.2157   21.0986 F   0  0  0  0  0  0
  -21.5617   -3.4541   25.7742 F   0  0  0  0  0  0
  -30.0108  -13.4320   20.4341 N   0  0  0  0  0  0
  -26.3030  -12.9259   20.3455 N   0  0  0  0  0  0
  -25.9319  -11.6437   20.5844 N   0  0  0  0  0  0
  -22.0489  -12.8220   22.0406 N   0  0  0  0  0  0
  -25.4158  -15.1808   20.4017 N   0  0  0  0  0  0
  -31.7639  -14.7851   20.0817 O   0  0  0  0  0  0
  -21.6615   -6.8882   21.4248 O   0  0  0  0  0  0
  -22.3540  -14.5516   20.6677 O   0  0  0  0  0  0
  -24.6241  -31.8604   23.2023 C   0  0  0  0  0  0
  -25.9093  -32.4784   23.8354 C   0  0  1  0  0  0
  -27.2362  -27.3214   20.1086 C   0  0  0  0  0  0
  -25.5922  -33.8588   24.2274 N   0  0  0  0  0  0
  -23.4187  -30.4829   21.5442 C   0  0  2  0  0  0
  -24.8700  -28.9377   20.1105 C   0  0  0  0  0  0
  -22.7460  -29.4630   22.4934 C   0  0  0  0  0  0
  -18.0282  -28.1388   22.8495 C   0  0  0  0  0  0
  -24.1494  -36.7294   23.2634 C   0  0  0  0  0  0
  -25.9603  -30.7857   21.3799 C   0  0  0  0  0  0
  -26.0356  -29.4131   20.7237 C   0  0  0  0  0  0
  -27.2167  -28.6121   20.7217 C   0  0  0  0  0  0
  -26.0472  -26.9059   19.4603 C   0  0  0  0  0  0
  -24.8778  -27.6886   19.4729 C   0  0  0  0  0  0
  -23.6357  -29.8150   20.1600 C   0  0  0  0  0  0
  -25.4123  -36.3084   24.0318 C   0  0  1  0  0  0
  -20.5881  -28.3695   23.1297 C   0  0  2  0  0  0
  -20.6788  -26.9423   22.5421 C   0  0  0  0  0  0
  -19.5772  -26.6387   21.5220 C   0  0  0  0  0  0
  -18.1942  -26.7931   22.1623 C   0  0  0  0  0  0
  -19.1534  -28.8861   23.2887 C   0  0  0  0  0  0
  -18.9458  -30.1456   23.8910 C   0  0  0  0  0  0
  -17.6460  -30.6595   24.0568 C   0  0  0  0  0  0
  -25.9060  -34.9453   23.5096 C   0  0  0  0  0  0
  -16.5350  -29.9097   23.6328 C   0  0  0  0  0  0
  -16.7266  -28.6508   23.0358 C   0  0  0  0  0  0
  -26.4483  -31.6597   25.0721 C   0  0  0  0  0  0
  -25.3704  -31.3732   26.1433 C   0  0  0  0  0  0
  -27.0334  -30.3019   24.6191 C   0  0  0  0  0  0
  -27.6044  -32.4323   25.7505 C   0  0  0  0  0  0
  -27.5586  -37.1808   24.8456 C   0  0  0  0  0  0
  -21.4172  -29.3045   22.3676 N   0  0  0  0  0  0
  -26.4296  -37.3785   23.9403 N   0  0  0  0  0  0
  -24.6862  -31.0598   22.0988 N   0  0  0  0  0  0
  -23.4177  -28.8165   23.3009 O   0  0  0  0  0  0
  -28.3651  -26.4834   20.1618 O   0  0  0  0  0  0
  -26.5636  -34.8922   22.4660 O   0  0  0  0  0  0
  -23.5402  -32.1418   23.7343 O   0  0  0  0  0  0
  -27.7059  -19.7743   21.8750 C   0  0  0  0  0  0
  -29.8984  -20.0149   20.1796 C   0  0  0  0  0  0
  -28.4909  -18.6381   21.6014 C   0  0  0  0  0  0
  -29.6181  -18.7203   20.7554 C   0  0  0  0  0  0
  -27.9703  -21.0246   21.2809 C   0  0  0  0  0  0
  -29.0811  -21.1859   20.4151 C   0  0  0  0  0  0
  -28.0655  -17.3121   22.1911 C   0  0  0  0  0  0
  -30.4539  -17.4103   20.4591 C   0  0  0  0  0  0
  -28.4609  -16.1316   21.3031 C   0  0  0  0  0  0
  -29.9900  -16.0267   21.1366 C   0  0  1  0  0  0
  -26.9847  -22.1480   21.5468 C   0  0  0  0  0  0
  -29.2897  -22.5328   19.6219 C   0  0  0  0  0  0
  -29.2847  -23.9784   20.3158 C   0  0  0  0  0  0
  -28.2121  -25.0505   19.8215 C   0  0  0  0  0  0
  -31.4832  -12.5825   19.1083 H   0  0  0  0  0  0
  -30.4340  -11.4233   19.8501 H   0  0  0  0  0  0
  -29.7679  -11.7826   17.4653 H   0  0  0  0  0  0
  -29.6264  -13.5016   17.7353 H   0  0  0  0  0  0
  -27.8676  -11.2928   18.8473 H   0  0  0  0  0  0
  -27.3648  -12.5959   17.8019 H   0  0  0  0  0  0
  -27.6892  -14.2298   19.5523 H   0  0  0  0  0  0
  -28.7782  -11.9094   21.2048 H   0  0  0  0  0  0
  -28.5048  -13.3947   21.9601 H   0  0  0  0  0  0
  -25.2772   -9.5667   22.4754 H   0  0  0  0  0  0
  -24.0001   -7.4617   22.7475 H   0  0  0  0  0  0
  -21.0829   -8.8783   19.8945 H   0  0  0  0  0  0
  -22.3712  -10.9675   19.6149 H   0  0  0  0  0  0
  -21.2009   -7.6160   23.9732 H   0  0  0  0  0  0
  -21.1457   -6.0523   25.9083 H   0  0  0  0  0  0
  -22.0609   -2.7618   23.2851 H   0  0  0  0  0  0
  -22.4127  -11.9901   22.4807 H   0  0  0  0  0  0
  -21.1092  -13.1223   22.2589 H   0  0  0  0  0  0
  -24.6414  -15.8276   20.5026 H   0  0  0  0  0  0
  -26.2667  -15.6287   20.0904 H   0  0  0  0  0  0
  -26.7147  -32.5470   23.1094 H   0  0  0  0  0  0
  -25.0070  -33.9751   25.0422 H   0  0  0  0  0  0
  -22.7122  -31.3029   21.3981 H   0  0  0  0  0  0
  -23.3768  -35.9618   23.3292 H   0  0  0  0  0  0
  -24.3578  -36.8925   22.2047 H   0  0  0  0  0  0
  -23.7238  -37.6484   23.6677 H   0  0  0  0  0  0
  -26.0924  -31.5483   20.6108 H   0  0  0  0  0  0
  -26.8394  -30.8368   22.0113 H   0  0  0  0  0  0
  -28.1048  -28.9664   21.2259 H   0  0  0  0  0  0
  -25.9906  -25.9627   18.9373 H   0  0  0  0  0  0
  -23.9856  -27.3238   18.9822 H   0  0  0  0  0  0
  -23.7518  -30.5894   19.4012 H   0  0  0  0  0  0
  -22.7589  -29.2395   19.8591 H   0  0  0  0  0  0
  -25.1300  -36.1937   25.0813 H   0  0  0  0  0  0
  -20.9971  -28.3282   24.1423 H   0  0  0  0  0  0
  -20.5715  -26.2300   23.3613 H   0  0  0  0  0  0
  -21.6657  -26.7485   22.1208 H   0  0  0  0  0  0
  -19.6951  -25.6295   21.1262 H   0  0  0  0  0  0
  -19.6722  -27.3189   20.6743 H   0  0  0  0  0  0
  -17.4215  -26.6674   21.4014 H   0  0  0  0  0  0
  -18.0345  -26.0067   22.9013 H   0  0  0  0  0  0
  -19.7930  -30.7261   24.2305 H   0  0  0  0  0  0
  -17.5016  -31.6288   24.5144 H   0  0  0  0  0  0
  -15.5349  -30.3011   23.7652 H   0  0  0  0  0  0
  -15.8657  -28.0825   22.7097 H   0  0  0  0  0  0
  -24.5882  -30.7088   25.7733 H   0  0  0  0  0  0
  -24.8893  -32.2899   26.4851 H   0  0  0  0  0  0
  -25.8006  -30.8891   27.0210 H   0  0  0  0  0  0
  -26.2924  -29.6772   24.1188 H   0  0  0  0  0  0
  -27.3986  -29.7267   25.4709 H   0  0  0  0  0  0
  -27.8809  -30.4282   23.9452 H   0  0  0  0  0  0
  -27.2650  -33.3601   26.2124 H   0  0  0  0  0  0
  -28.3853  -32.6915   25.0341 H   0  0  0  0  0  0
  -28.0729  -31.8419   26.5392 H   0  0  0  0  0  0
  -28.2588  -38.0119   24.7526 H   0  0  0  0  0  0
  -28.1096  -36.2651   24.6263 H   0  0  0  0  0  0
  -27.2302  -37.1420   25.8856 H   0  0  0  0  0  0
  -20.9347  -29.8739   21.6869 H   0  0  0  0  0  0
  -26.0174  -38.2856   24.1422 H   0  0  0  0  0  0
  -26.8452  -19.6684   22.5217 H   0  0  0  0  0  0
  -30.7347  -20.0991   19.4986 H   0  0  0  0  0  0
  -26.9820  -17.3061   22.3224 H   0  0  0  0  0  0
  -28.4983  -17.2076   23.1865 H   0  0  0  0  0  0
  -31.4907  -17.6064   20.7344 H   0  0  0  0  0  0
  -30.4619  -17.2764   19.3765 H   0  0  0  0  0  0
  -27.9980  -16.2494   20.3244 H   0  0  0  0  0  0
  -28.0010  -15.2847   21.7818 H   0  0  0  0  0  0
  -30.3859  -16.0425   22.1526 H   0  0  0  0  0  0
  -26.0736  -21.7795   22.0191 H   0  0  0  0  0  0
  -26.6835  -22.6205   20.6140 H   0  0  0  0  0  0
  -27.4142  -22.8943   22.2137 H   0  0  0  0  0  0
  -28.5444  -22.5361   18.8251 H   0  0  0  0  0  0
  -30.2374  -22.4366   19.0907 H   0  0  0  0  0  0
  -30.2652  -24.4136   20.1214 H   0  0  0  0  0  0
  -29.2527  -23.8803   21.3990 H   0  0  0  0  0  0
  -27.2522  -24.7100   20.2056 H   0  0  0  0  0  0
  -28.1479  -24.9883   18.7341 H   0  0  0  0  0  0
  1 25  1  0  0  0
  1 30  2  0  0  0
  1 80  1  0  0  0
  2  3  1  0  0  0
  2 25  1  0  0  0
  2 85  1  0  0  0
  2 86  1  0  0  0
  3  4  1  0  0  0
  3 87  1  0  0  0
  3 88  1  0  0  0
  4  5  1  0  0  0
  4 89  1  0  0  0
  4 90  1  0  0  0
  5  6  1  0  0  0
  5 26  1  0  0  0
  5 91  1  0  0  0
  6 25  1  0  0  0
  6 92  1  0  0  0
  6 93  1  0  0  0
  7  8  2  0  0  0
  7 26  1  0  0  0
  7 29  1  0  0  0
  8  9  1  0  0  0
  8 22  1  0  0  0
  9 10  1  0  0  0
  9 27  2  0  0  0
 10 11  2  0  0  0
 10 15  1  0  0  0
 11 12  1  0  0  0
 11 94  1  0  0  0
 12 13  2  0  0  0
 12 95  1  0  0  0
 13 14  1  0  0  0
 13 31  1  0  0  0
 14 15  2  0  0  0
 14 96  1  0  0  0
 15 97  1  0  0  0
 16 17  2  0  0  0
 16 21  1  0  0  0
 16 31  1  0  0  0
 17 18  1  0  0  0
 17 98  1  0  0  0
 18 19  2  0  0  0
 18 99  1  0  0  0
 19 20  1  0  0  0
 19 24  1  0  0  0
 20 21  2  0  0  0
 20100  1  0  0  0
 21 23  1  0  0  0
 22 28  1  0  0  0
 22 32  2  0  0  0
 26 27  1  0  0  0
 28101  1  0  0  0
 28102  1  0  0  0
 29103  1  0  0  0
 29104  1  0  0  0
 33 34  1  0  0  0
 33 66  1  0  0  0
 33 70  2  0  0  0
 34 36  1  0  0  0
 34 59  1  0  0  0
 34105  1  0  0  0
 35 44  2  0  0  0
 35 45  1  0  0  0
 35 68  1  0  0  0
 36 56  1  0  0  0
 36106  1  0  0  0
 37 39  1  0  0  0
 37 47  1  0  0  0
 37 66  1  0  0  0
 37107  1  0  0  0
 38 43  2  0  0  0
 38 46  1  0  0  0
 38 47  1  0  0  0
 39 64  1  0  0  0
 39 67  2  0  0  0
 40 52  1  0  0  0
 40 53  2  0  0  0
 40 58  1  0  0  0
 41108  1  0  0  0
 41109  1  0  0  0
 41110  1  0  0  0
 41 48  1  0  0  0
 42 43  1  0  0  0
 42 66  1  0  0  0
 42111  1  0  0  0
 42112  1  0  0  0
 43 44  1  0  0  0
 44113  1  0  0  0
 45 46  2  0  0  0
 45114  1  0  0  0
 46115  1  0  0  0
 47116  1  0  0  0
 47117  1  0  0  0
 48 56  1  0  0  0
 48 65  1  0  0  0
 48118  1  0  0  0
 49 50  1  0  0  0
 49 53  1  0  0  0
 49 64  1  0  0  0
 49119  1  0  0  0
 50 51  1  0  0  0
 50120  1  0  0  0
 50121  1  0  0  0
 51 52  1  0  0  0
 51122  1  0  0  0
 51123  1  0  0  0
 52124  1  0  0  0
 52125  1  0  0  0
 53 54  1  0  0  0
 54 55  2  0  0  0
 54126  1  0  0  0
 55 57  1  0  0  0
 55127  1  0  0  0
 56 69  2  0  0  0
 57 58  2  0  0  0
 57128  1  0  0  0
 58129  1  0  0  0
 59 60  1  0  0  0
 59 61  1  0  0  0
 59 62  1  0  0  0
 60130  1  0  0  0
 60131  1  0  0  0
 60132  1  0  0  0
 61133  1  0  0  0
 61134  1  0  0  0
 61135  1  0  0  0
 62136  1  0  0  0
 62137  1  0  0  0
 62138  1  0  0  0
 63 65  1  0  0  0
 63139  1  0  0  0
 63140  1  0  0  0
 63141  1  0  0  0
 64142  1  0  0  0
 65143  1  0  0  0
 68 84  1  0  0  0
 71 73  2  0  0  0
 71 75  1  0  0  0
 71144  1  0  0  0
 72 74  2  0  0  0
 72 76  1  0  0  0
 72145  1  0  0  0
 73 74  1  0  0  0
 73 77  1  0  0  0
 74 78  1  0  0  0
 75 76  2  0  0  0
 75 81  1  0  0  0
 76 82  1  0  0  0
 77 79  1  0  0  0
 77146  1  0  0  0
 77147  1  0  0  0
 78 80  1  0  0  0
 78148  1  0  0  0
 78149  1  0  0  0
 79 80  1  0  0  0
 79150  1  0  0  0
 79151  1  0  0  0
 80152  1  0  0  0
 81153  1  0  0  0
 81154  1  0  0  0
 81155  1  0  0  0
 82 83  1  0  0  0
 82156  1  0  0  0
 82157  1  0  0  0
 83 84  1  0  0  0
 83158  1  0  0  0
 83159  1  0  0  0
 84160  1  0  0  0
 84161  1  0  0  0
M  ISO  4   1 100  68 101  80 100  84 101
M  END
> <chiral flag>
0

> <version>
0

> <s_m_source_file>
/data/baiqing/PycharmProjects/Reinvent-master-3.2/result/LINK_invent/BTK/process_docking_weight1_custom_sum_contain_oxygen_bond_distance_aromatic_linkinvent_7_9_3/rearranged_h_0031.sdf

> <i_m_source_file_index>
76

> <r_mmod_Potential_Energy-OPLS-2005>
148.219787597656

> <r_mmod_Stretch_Energy-OPLS-2005>
99.5224227905273

> <r_mmod_Bend_Energy-OPLS-2005>
171.456604003906

> <r_mmod_Torsional_Energy-OPLS-2005>
198.694442749023

> <r_mmod_Improper_Torsional_Energy-OPLS-2005>
2.87573504447937

> <r_mmod_Van_der_Waal_Energy-OPLS-2005>
161.166473388672

> <r_mmod_Electrostatic_Energy-OPLS-2005>
-344.773132324219

> <r_mmod_Solvation_Energy-OPLS-2005>
-189.163787841797

> <b_mmod_Minimization_Converged-OPLS-2005>
0

> <r_mmod_RMS_Derivative-OPLS-2005>
1.91946971416473

$$$$
76
                    3D
 Structure written by MMmdl.
166174  0  0  1  0            999 V2000
  -30.6788  -14.4113   20.7142 C   0  0  0  0  0  0
  -30.4361  -12.3383   19.3774 C   0  0  0  0  0  0
  -29.4674  -12.5316   18.1917 C   0  0  0  0  0  0
  -28.0039  -12.3298   18.6304 C   0  0  0  0  0  0
  -27.6611  -13.1684   19.8865 C   0  0  2  0  0  0
  -28.7046  -12.8577   20.9827 C   0  0  0  0  0  0
  -25.2636  -13.8092   20.5641 C   0  0  0  0  0  0
  -24.1885  -13.0466   20.9188 C   0  0  0  0  0  0
  -24.6357  -11.6900   20.8805 C   0  0  0  0  0  0
  -23.9018  -10.4314   21.0419 C   0  0  0  0  0  0
  -24.3586   -9.4254   21.9199 C   0  0  0  0  0  0
  -23.6315   -8.2274   22.0754 C   0  0  0  0  0  0
  -22.4283   -8.0299   21.3578 C   0  0  0  0  0  0
  -21.9893   -9.0263   20.4686 C   0  0  0  0  0  0
  -22.7173  -10.2166   20.3103 C   0  0  0  0  0  0
  -21.6865   -6.0764   22.5298 C   0  0  0  0  0  0
  -21.4000   -6.5672   23.8218 C   0  0  0  0  0  0
  -21.3634   -5.6844   24.9180 C   0  0  0  0  0  0
  -21.6052   -4.3113   24.7246 C   0  0  0  0  0  0
  -21.8819   -3.8186   23.4367 C   0  0  0  0  0  0
  -21.9211   -4.6996   22.3411 C   0  0  0  0  0  0
  -22.7920  -13.5270   21.1873 C   0  0  0  0  0  0
  -22.1701   -4.2189   21.0997 F   0  0  0  0  0  0
  -21.5621   -3.4575   25.7742 F   0  0  0  0  0  0
  -30.0223  -13.2460   20.4631 N   0  0  0  0  0  0
  -26.3017  -12.9198   20.3427 N   0  0  0  0  0  0
  -25.9252  -11.6401   20.5867 N   0  0  0  0  0  0
  -22.0621  -12.8251   22.0448 N   0  0  0  0  0  0
  -25.4471  -15.1808   20.3952 N   0  0  0  0  0  0
  -31.7387  -14.7028   20.1513 O   0  0  0  0  0  0
  -21.6702   -6.8881   21.4251 O   0  0  0  0  0  0
  -22.3575  -14.5594   20.6737 O   0  0  0  0  0  0
  -24.6040  -31.8679   23.2105 C   0  0  0  0  0  0
  -25.8953  -32.4830   23.8395 C   0  0  1  0  0  0
  -27.2205  -27.4633   20.1072 C   0  0  0  0  0  0
  -25.5831  -33.8621   24.2345 N   0  0  0  0  0  0
  -23.3838  -30.4872   21.5541 C   0  0  2  0  0  0
  -24.8315  -28.9583   20.1156 C   0  0  0  0  0  0
  -22.7375  -29.4612   22.5094 C   0  0  0  0  0  0
  -18.0272  -28.1466   22.8487 C   0  0  0  0  0  0
  -24.1486  -36.7334   23.2663 C   0  0  0  0  0  0
  -25.9015  -30.8552   21.3411 C   0  0  0  0  0  0
  -25.9858  -29.4849   20.7078 C   0  0  0  0  0  0
  -27.1841  -28.7413   20.7087 C   0  0  0  0  0  0
  -26.0567  -26.9502   19.5000 C   0  0  0  0  0  0
  -24.8571  -27.6878   19.5165 C   0  0  0  0  0  0
  -23.5848  -29.8119   20.1677 C   0  0  0  0  0  0
  -25.4101  -36.3126   24.0375 C   0  0  1  0  0  0
  -20.5859  -28.3623   23.1536 C   0  0  2  0  0  0
  -20.6544  -26.9244   22.5983 C   0  0  0  0  0  0
  -19.5870  -26.6365   21.5427 C   0  0  0  0  0  0
  -18.1903  -26.8141   22.1416 C   0  0  0  0  0  0
  -19.1510  -28.8879   23.2998 C   0  0  0  0  0  0
  -18.9427  -30.1465   23.9027 C   0  0  0  0  0  0
  -17.6434  -30.6625   24.0580 C   0  0  0  0  0  0
  -25.9024  -34.9471   23.5175 C   0  0  0  0  0  0
  -16.5300  -29.9145   23.6291 C   0  0  0  0  0  0
  -16.7248  -28.6566   23.0333 C   0  0  0  0  0  0
  -26.4426  -31.6549   25.0656 C   0  0  0  0  0  0
  -25.3743  -31.3591   26.1441 C   0  0  0  0  0  0
  -27.0205  -30.3024   24.5886 C   0  0  0  0  0  0
  -27.6110  -32.4165   25.7375 C   0  0  0  0  0  0
  -27.5578  -37.1786   24.8484 C   0  0  0  0  0  0
  -21.4164  -29.2745   22.3727 N   0  0  0  0  0  0
  -26.4290  -37.3791   23.9407 N   0  0  0  0  0  0
  -24.6486  -31.0830   22.0966 N   0  0  0  0  0  0
  -23.4190  -28.8318   23.3236 O   0  0  0  0  0  0
  -28.3515  -26.6899   20.1011 O   0  0  0  0  0  0
  -26.5617  -34.8934   22.4727 O   0  0  0  0  0  0
  -23.5272  -32.1427   23.7512 O   0  0  0  0  0  0
  -28.0473  -23.5476   20.2167 C   0  0  0  0  0  0
  -27.8431  -21.8417   22.4323 C   0  0  0  0  0  0
  -28.7317  -23.8792   21.4086 C   0  0  0  0  0  0
  -27.3248  -22.3385   20.1065 C   0  0  0  0  0  0
  -28.6170  -23.0163   22.5341 C   0  0  0  0  0  0
  -27.2472  -21.4744   21.2140 C   0  0  0  0  0  0
  -26.6693  -21.9334   18.7998 C   0  0  0  0  0  0
  -29.3728  -23.2580   23.8325 C   0  0  0  0  0  0
  -29.6399  -25.1055   21.3967 C   0  0  0  0  0  0
  -29.0418  -17.3081   21.1919 C   0  0  0  0  0  0
  -27.8911  -18.2560   21.5966 C   0  0  0  0  0  0
  -28.9789  -15.9189   21.8686 C   0  0  0  0  0  0
  -28.9186  -26.4620   21.3918 C   0  0  0  0  0  0
  -27.5009  -19.2610   20.4974 C   0  0  0  0  0  0
  -30.2389  -15.1574   21.7476 N   0  0  0  0  0  0
  -26.6478  -20.2473   21.0878 O   0  0  0  0  0  0
  -31.4609  -12.5226   19.0501 H   0  0  0  0  0  0
  -30.4284  -11.3060   19.7276 H   0  0  0  0  0  0
  -29.7224  -11.8378   17.3930 H   0  0  0  0  0  0
  -29.5722  -13.5408   17.7919 H   0  0  0  0  0  0
  -27.8683  -11.2695   18.8537 H   0  0  0  0  0  0
  -27.3158  -12.5649   17.8161 H   0  0  0  0  0  0
  -27.7326  -14.2167   19.6016 H   0  0  0  0  0  0
  -28.7093  -11.7841   21.1807 H   0  0  0  0  0  0
  -28.4576  -13.2942   21.9490 H   0  0  0  0  0  0
  -25.2702   -9.5807   22.4779 H   0  0  0  0  0  0
  -24.0101   -7.4666   22.7416 H   0  0  0  0  0  0
  -21.0830   -8.8689   19.8995 H   0  0  0  0  0  0
  -22.3520  -10.9701   19.6251 H   0  0  0  0  0  0
  -21.1974   -7.6179   23.9697 H   0  0  0  0  0  0
  -21.1439   -6.0599   25.9075 H   0  0  0  0  0  0
  -22.0609   -2.7656   23.2856 H   0  0  0  0  0  0
  -22.4245  -11.9843   22.4708 H   0  0  0  0  0  0
  -21.1285  -13.1293   22.2803 H   0  0  0  0  0  0
  -24.6820  -15.8374   20.4930 H   0  0  0  0  0  0
  -26.2824  -15.6012   20.0112 H   0  0  0  0  0  0
  -26.6980  -32.5556   23.1137 H   0  0  0  0  0  0
  -24.9806  -33.9820   25.0380 H   0  0  0  0  0  0
  -22.6627  -31.2968   21.4086 H   0  0  0  0  0  0
  -23.3730  -35.9680   23.3351 H   0  0  0  0  0  0
  -24.3648  -36.8900   22.2079 H   0  0  0  0  0  0
  -23.7227  -37.6563   23.6629 H   0  0  0  0  0  0
  -25.9653  -31.6062   20.5541 H   0  0  0  0  0  0
  -26.8113  -30.9541   21.9178 H   0  0  0  0  0  0
  -28.0685  -29.1583   21.1669 H   0  0  0  0  0  0
  -26.0723  -25.9743   19.0393 H   0  0  0  0  0  0
  -23.9682  -27.2775   19.0598 H   0  0  0  0  0  0
  -23.6702  -30.5814   19.3977 H   0  0  0  0  0  0
  -22.7126  -29.2184   19.8855 H   0  0  0  0  0  0
  -25.1236  -36.2032   25.0873 H   0  0  0  0  0  0
  -21.0086  -28.3310   24.1611 H   0  0  0  0  0  0
  -20.4669  -26.2361   23.4277 H   0  0  0  0  0  0
  -21.6561  -26.6865   22.2369 H   0  0  0  0  0  0
  -19.7044  -25.6267   21.1543 H   0  0  0  0  0  0
  -19.7264  -27.3174   20.7059 H   0  0  0  0  0  0
  -17.4467  -26.7418   21.3499 H   0  0  0  0  0  0
  -17.9720  -26.0137   22.8496 H   0  0  0  0  0  0
  -19.7923  -30.7228   24.2485 H   0  0  0  0  0  0
  -17.4993  -31.6329   24.5117 H   0  0  0  0  0  0
  -15.5279  -30.3033   23.7610 H   0  0  0  0  0  0
  -15.8652  -28.0876   22.6983 H   0  0  0  0  0  0
  -24.6018  -30.6819   25.7777 H   0  0  0  0  0  0
  -24.8822  -32.2706   26.4848 H   0  0  0  0  0  0
  -25.8207  -30.8830   27.0187 H   0  0  0  0  0  0
  -26.2680  -29.6838   24.0991 H   0  0  0  0  0  0
  -27.4097  -29.7205   25.4249 H   0  0  0  0  0  0
  -27.8461  -30.4443   23.8909 H   0  0  0  0  0  0
  -27.2880  -33.3479   26.2032 H   0  0  0  0  0  0
  -28.3885  -32.6630   25.0126 H   0  0  0  0  0  0
  -28.0784  -31.8159   26.5194 H   0  0  0  0  0  0
  -28.2608  -38.0065   24.7455 H   0  0  0  0  0  0
  -28.1045  -36.2577   24.6339 H   0  0  0  0  0  0
  -27.2337  -37.1470   25.8912 H   0  0  0  0  0  0
  -20.9341  -29.7912   21.6495 H   0  0  0  0  0  0
  -26.0209  -38.2904   24.1310 H   0  0  0  0  0  0
  -28.1314  -24.2141   19.3710 H   0  0  0  0  0  0
  -27.7537  -21.1627   23.2706 H   0  0  0  0  0  0
  -26.5545  -22.7718   18.1200 H   0  0  0  0  0  0
  -25.6841  -21.5100   18.9956 H   0  0  0  0  0  0
  -27.2671  -21.1661   18.3065 H   0  0  0  0  0  0
  -28.9916  -22.6296   24.6372 H   0  0  0  0  0  0
  -29.3049  -24.2960   24.1565 H   0  0  0  0  0  0
  -30.4286  -23.0072   23.7157 H   0  0  0  0  0  0
  -30.2501  -25.0601   20.4944 H   0  0  0  0  0  0
  -30.3544  -25.0599   22.2166 H   0  0  0  0  0  0
  -29.9849  -17.8043   21.4365 H   0  0  0  0  0  0
  -29.0299  -17.1786   20.1098 H   0  0  0  0  0  0
  -28.2045  -18.8202   22.4733 H   0  0  0  0  0  0
  -26.9923  -17.7168   21.9128 H   0  0  0  0  0  0
  -28.1093  -15.3913   21.4849 H   0  0  0  0  0  0
  -28.7799  -16.0424   22.9348 H   0  0  0  0  0  0
  -29.6451  -27.2493   21.5895 H   0  0  0  0  0  0
  -28.1733  -26.5043   22.1884 H   0  0  0  0  0  0
  -26.9765  -18.7651   19.6771 H   0  0  0  0  0  0
  -28.3953  -19.7070   20.0487 H   0  0  0  0  0  0
  -31.0016  -15.6486   22.1894 H   0  0  0  0  0  0
  1 25  1  0  0  0
  1 30  2  0  0  0
  1 85  1  0  0  0
  2  3  1  0  0  0
  2 25  1  0  0  0
  2 87  1  0  0  0
  2 88  1  0  0  0
  3  4  1  0  0  0
  3 89  1  0  0  0
  3 90  1  0  0  0
  4  5  1  0  0  0
  4 91  1  0  0  0
  4 92  1  0  0  0
  5  6  1  0  0  0
  5 26  1  0  0  0
  5 93  1  0  0  0
  6 25  1  0  0  0
  6 94  1  0  0  0
  6 95  1  0  0  0
  7  8  2  0  0  0
  7 26  1  0  0  0
  7 29  1  0  0  0
  8  9  1  0  0  0
  8 22  1  0  0  0
  9 10  1  0  0  0
  9 27  2  0  0  0
 10 11  2  0  0  0
 10 15  1  0  0  0
 11 12  1  0  0  0
 11 96  1  0  0  0
 12 13  2  0  0  0
 12 97  1  0  0  0
 13 14  1  0  0  0
 13 31  1  0  0  0
 14 15  2  0  0  0
 14 98  1  0  0  0
 15 99  1  0  0  0
 16 17  2  0  0  0
 16 21  1  0  0  0
 16 31  1  0  0  0
 17 18  1  0  0  0
 17100  1  0  0  0
 18 19  2  0  0  0
 18101  1  0  0  0
 19 20  1  0  0  0
 19 24  1  0  0  0
 20 21  2  0  0  0
 20102  1  0  0  0
 21 23  1  0  0  0
 22 28  1  0  0  0
 22 32  2  0  0  0
 26 27  1  0  0  0
 28103  1  0  0  0
 28104  1  0  0  0
 29105  1  0  0  0
 29106  1  0  0  0
 33 34  1  0  0  0
 33 66  1  0  0  0
 33 70  2  0  0  0
 34 36  1  0  0  0
 34 59  1  0  0  0
 34107  1  0  0  0
 35 44  2  0  0  0
 35 45  1  0  0  0
 35 68  1  0  0  0
 36 56  1  0  0  0
 36108  1  0  0  0
 37 39  1  0  0  0
 37 47  1  0  0  0
 37 66  1  0  0  0
 37109  1  0  0  0
 38 43  2  0  0  0
 38 46  1  0  0  0
 38 47  1  0  0  0
 39 64  1  0  0  0
 39 67  2  0  0  0
 40 52  1  0  0  0
 40 53  2  0  0  0
 40 58  1  0  0  0
 41110  1  0  0  0
 41111  1  0  0  0
 41112  1  0  0  0
 41 48  1  0  0  0
 42 43  1  0  0  0
 42 66  1  0  0  0
 42113  1  0  0  0
 42114  1  0  0  0
 43 44  1  0  0  0
 44115  1  0  0  0
 45 46  2  0  0  0
 45116  1  0  0  0
 46117  1  0  0  0
 47118  1  0  0  0
 47119  1  0  0  0
 48 56  1  0  0  0
 48 65  1  0  0  0
 48120  1  0  0  0
 49 50  1  0  0  0
 49 53  1  0  0  0
 49 64  1  0  0  0
 49121  1  0  0  0
 50 51  1  0  0  0
 50122  1  0  0  0
 50123  1  0  0  0
 51 52  1  0  0  0
 51124  1  0  0  0
 51125  1  0  0  0
 52126  1  0  0  0
 52127  1  0  0  0
 53 54  1  0  0  0
 54 55  2  0  0  0
 54128  1  0  0  0
 55 57  1  0  0  0
 55129  1  0  0  0
 56 69  2  0  0  0
 57 58  2  0  0  0
 57130  1  0  0  0
 58131  1  0  0  0
 59 60  1  0  0  0
 59 61  1  0  0  0
 59 62  1  0  0  0
 60132  1  0  0  0
 60133  1  0  0  0
 60134  1  0  0  0
 61135  1  0  0  0
 61136  1  0  0  0
 61137  1  0  0  0
 62138  1  0  0  0
 62139  1  0  0  0
 62140  1  0  0  0
 63 65  1  0  0  0
 63141  1  0  0  0
 63142  1  0  0  0
 63143  1  0  0  0
 64144  1  0  0  0
 65145  1  0  0  0
 68 83  1  0  0  0
 71 73  2  0  0  0
 71 74  1  0  0  0
 71146  1  0  0  0
 72 75  2  0  0  0
 72 76  1  0  0  0
 72147  1  0  0  0
 73 75  1  0  0  0
 73 79  1  0  0  0
 74 76  2  0  0  0
 74 77  1  0  0  0
 75 78  1  0  0  0
 76 86  1  0  0  0
 77148  1  0  0  0
 77149  1  0  0  0
 77150  1  0  0  0
 78151  1  0  0  0
 78152  1  0  0  0
 78153  1  0  0  0
 79 83  1  0  0  0
 79154  1  0  0  0
 79155  1  0  0  0
 80 81  1  0  0  0
 80 82  1  0  0  0
 80156  1  0  0  0
 80157  1  0  0  0
 81 84  1  0  0  0
 81158  1  0  0  0
 81159  1  0  0  0
 82 85  1  0  0  0
 82160  1  0  0  0
 82161  1  0  0  0
 83162  1  0  0  0
 83163  1  0  0  0
 84 86  1  0  0  0
 84164  1  0  0  0
 84165  1  0  0  0
 85166  1  0  0  0
M  ISO  4   1 100  68 101  83 101  85 100
M  END
> <chiral flag>
0

> <version>
0

> <s_m_source_file>
/data/baiqing/PycharmProjects/Reinvent-master-3.2/result/LINK_invent/BTK/process_docking_weight1_custom_sum_contain_oxygen_bond_distance_aromatic_linkinvent_7_9_3/rearranged_h_0031.sdf

> <i_m_source_file_index>
77

> <r_mmod_Potential_Energy-OPLS-2005>
2.99288105964661

> <r_mmod_Stretch_Energy-OPLS-2005>
34.3125343322754

> <r_mmod_Bend_Energy-OPLS-2005>
105.713539123535

> <r_mmod_Torsional_Energy-OPLS-2005>
301.542358398438

> <r_mmod_Improper_Torsional_Energy-OPLS-2005>
7.95998764038086

> <r_mmod_Van_der_Waal_Energy-OPLS-2005>
146.475341796875

> <r_mmod_Electrostatic_Energy-OPLS-2005>
-399.257843017578

> <r_mmod_Solvation_Energy-OPLS-2005>
-207.257675170898

> <b_mmod_Minimization_Converged-OPLS-2005>
0

> <r_mmod_RMS_Derivative-OPLS-2005>
8.79329109191895

$$$$
77
                    3D
 Structure written by MMmdl.
156164  0  0  1  0            999 V2000
  -30.6664  -14.7624   20.4416 C   0  0  0  0  0  0
  -30.4021  -12.4743   19.4669 C   0  0  0  0  0  0
  -29.4844  -12.4868   18.2290 C   0  0  0  0  0  0
  -28.0184  -12.3089   18.6609 C   0  0  0  0  0  0
  -27.6250  -13.2415   19.8376 C   0  0  2  0  0  0
  -28.6767  -13.2444   20.9658 C   0  0  0  0  0  0
  -25.2448  -13.8229   20.5752 C   0  0  0  0  0  0
  -24.1758  -13.0473   20.9258 C   0  0  0  0  0  0
  -24.6360  -11.6944   20.8790 C   0  0  0  0  0  0
  -23.9055  -10.4314   21.0425 C   0  0  0  0  0  0
  -24.3615   -9.4221   21.9190 C   0  0  0  0  0  0
  -23.6302   -8.2248   22.0747 C   0  0  0  0  0  0
  -22.4284   -8.0285   21.3541 C   0  0  0  0  0  0
  -21.9922   -9.0258   20.4641 C   0  0  0  0  0  0
  -22.7238  -10.2147   20.3059 C   0  0  0  0  0  0
  -21.6860   -6.0747   22.5281 C   0  0  0  0  0  0
  -21.4020   -6.5646   23.8217 C   0  0  0  0  0  0
  -21.3654   -5.6792   24.9171 C   0  0  0  0  0  0
  -21.6043   -4.3057   24.7221 C   0  0  0  0  0  0
  -21.8820   -3.8155   23.4340 C   0  0  0  0  0  0
  -21.9195   -4.6974   22.3396 C   0  0  0  0  0  0
  -22.7774  -13.5235   21.1912 C   0  0  0  0  0  0
  -22.1663   -4.2162   21.0970 F   0  0  0  0  0  0
  -21.5621   -3.4535   25.7729 F   0  0  0  0  0  0
  -29.9551  -13.5862   20.3409 N   0  0  0  0  0  0
  -26.2859  -12.9457   20.3304 N   0  0  0  0  0  0
  -25.9291  -11.6594   20.5815 N   0  0  0  0  0  0
  -22.0440  -12.8192   22.0450 N   0  0  0  0  0  0
  -25.4184  -15.1952   20.4135 N   0  0  0  0  0  0
  -31.8803  -14.7259   20.2495 O   0  0  0  0  0  0
  -21.6643   -6.8889   21.4246 O   0  0  0  0  0  0
  -22.3442  -14.5538   20.6754 O   0  0  0  0  0  0
  -24.6323  -31.8509   23.1973 C   0  0  0  0  0  0
  -25.9124  -32.4737   23.8338 C   0  0  1  0  0  0
  -27.2162  -27.2437   20.1451 C   0  0  0  0  0  0
  -25.5896  -33.8539   24.2255 N   0  0  0  0  0  0
  -23.4305  -30.4718   21.5390 C   0  0  2  0  0  0
  -24.8774  -28.9067   20.1178 C   0  0  0  0  0  0
  -22.7499  -29.4579   22.4912 C   0  0  0  0  0  0
  -18.0283  -28.1394   22.8472 C   0  0  0  0  0  0
  -24.1484  -36.7305   23.2641 C   0  0  0  0  0  0
  -25.9753  -30.7627   21.3737 C   0  0  0  0  0  0
  -26.0487  -29.3777   20.7265 C   0  0  0  0  0  0
  -27.2267  -28.5620   20.7169 C   0  0  0  0  0  0
  -26.0236  -26.8321   19.5225 C   0  0  0  0  0  0
  -24.8703  -27.6441   19.5005 C   0  0  0  0  0  0
  -23.6497  -29.7978   20.1581 C   0  0  0  0  0  0
  -25.4102  -36.3060   24.0329 C   0  0  1  0  0  0
  -20.5879  -28.3707   23.1265 C   0  0  2  0  0  0
  -20.6759  -26.9423   22.5406 C   0  0  0  0  0  0
  -19.5747  -26.6394   21.5193 C   0  0  0  0  0  0
  -18.1927  -26.7938   22.1609 C   0  0  0  0  0  0
  -19.1534  -28.8870   23.2863 C   0  0  0  0  0  0
  -18.9449  -30.1460   23.8898 C   0  0  0  0  0  0
  -17.6444  -30.6586   24.0564 C   0  0  0  0  0  0
  -25.9038  -34.9425   23.5108 C   0  0  0  0  0  0
  -16.5339  -29.9084   23.6317 C   0  0  0  0  0  0
  -16.7268  -28.6502   23.0345 C   0  0  0  0  0  0
  -26.4491  -31.6569   25.0739 C   0  0  0  0  0  0
  -25.3744  -31.3678   26.1489 C   0  0  0  0  0  0
  -27.0329  -30.2992   24.6199 C   0  0  0  0  0  0
  -27.6052  -32.4309   25.7511 C   0  0  0  0  0  0
  -27.5573  -37.1804   24.8457 C   0  0  0  0  0  0
  -21.4201  -29.3046   22.3657 N   0  0  0  0  0  0
  -26.4280  -37.3753   23.9413 N   0  0  0  0  0  0
  -24.6988  -31.0472   22.0937 N   0  0  0  0  0  0
  -23.4188  -28.8116   23.3019 O   0  0  0  0  0  0
  -28.3303  -26.3835   20.0672 O   0  0  0  0  0  0
  -26.5620  -34.8900   22.4680 O   0  0  0  0  0  0
  -23.5467  -32.1315   23.7269 O   0  0  0  0  0  0
  -30.2850  -21.3169   21.3513 C   0  0  0  0  0  0
  -30.9893  -20.2444   21.9350 C   0  0  0  0  0  0
  -28.8495  -19.6893   20.2574 C   0  0  0  0  0  0
  -29.1980  -21.0914   20.4888 C   0  0  0  0  0  0
  -30.6448  -18.8923   21.6996 C   0  0  0  0  0  0
  -29.5555  -18.5537   20.8522 C   0  0  0  0  0  0
  -31.4656  -17.8250   22.4062 C   0  0  0  0  0  0
  -28.6141  -22.3660   19.7179 C   0  0  0  0  0  0
  -29.1339  -17.0074   20.6945 C   0  0  0  0  0  0
  -27.8134  -23.6140   20.3907 C   0  0  0  0  0  0
  -28.4169  -25.0700   20.7980 C   0  0  0  0  0  0
  -30.0975  -15.9868   20.1127 N   0  0  0  0  0  0
  -31.4443  -12.5645   19.1585 H   0  0  0  0  0  0
  -30.3288  -11.5205   19.9919 H   0  0  0  0  0  0
  -29.7669  -11.6938   17.5360 H   0  0  0  0  0  0
  -29.5958  -13.4282   17.6907 H   0  0  0  0  0  0
  -27.8941  -11.2679   18.9604 H   0  0  0  0  0  0
  -27.3473  -12.4592   17.8148 H   0  0  0  0  0  0
  -27.6034  -14.2481   19.4207 H   0  0  0  0  0  0
  -28.7301  -12.2717   21.4567 H   0  0  0  0  0  0
  -28.4190  -13.9728   21.7357 H   0  0  0  0  0  0
  -25.2761   -9.5695   22.4771 H   0  0  0  0  0  0
  -24.0019   -7.4629   22.7446 H   0  0  0  0  0  0
  -21.0868   -8.8774   19.8930 H   0  0  0  0  0  0
  -22.3705  -10.9686   19.6164 H   0  0  0  0  0  0
  -21.2024   -7.6158   23.9730 H   0  0  0  0  0  0
  -21.1468   -6.0516   25.9075 H   0  0  0  0  0  0
  -22.0607   -2.7624   23.2830 H   0  0  0  0  0  0
  -22.4084  -11.9833   22.4779 H   0  0  0  0  0  0
  -21.1056  -13.1173   22.2705 H   0  0  0  0  0  0
  -24.6612  -15.8601   20.5257 H   0  0  0  0  0  0
  -26.2728  -15.6205   20.0789 H   0  0  0  0  0  0
  -26.7209  -32.5393   23.1099 H   0  0  0  0  0  0
  -25.0015  -33.9659   25.0384 H   0  0  0  0  0  0
  -22.7293  -31.2952   21.3892 H   0  0  0  0  0  0
  -23.3720  -35.9659   23.3281 H   0  0  0  0  0  0
  -24.3578  -36.8951   22.2057 H   0  0  0  0  0  0
  -23.7268  -37.6513   23.6690 H   0  0  0  0  0  0
  -26.1062  -31.5145   20.5941 H   0  0  0  0  0  0
  -26.8565  -30.8227   22.0017 H   0  0  0  0  0  0
  -28.1408  -28.9258   21.1648 H   0  0  0  0  0  0
  -25.9862  -25.8657   19.0420 H   0  0  0  0  0  0
  -23.9776  -27.2821   19.0090 H   0  0  0  0  0  0
  -23.7772  -30.5696   19.3984 H   0  0  0  0  0  0
  -22.7670  -29.2302   19.8565 H   0  0  0  0  0  0
  -25.1285  -36.1897   25.0820 H   0  0  0  0  0  0
  -20.9974  -28.3285   24.1382 H   0  0  0  0  0  0
  -20.5612  -26.2324   23.3610 H   0  0  0  0  0  0
  -21.6636  -26.7420   22.1231 H   0  0  0  0  0  0
  -19.6905  -25.6302   21.1227 H   0  0  0  0  0  0
  -19.6686  -27.3199   20.6718 H   0  0  0  0  0  0
  -17.4187  -26.6664   21.4025 H   0  0  0  0  0  0
  -18.0354  -26.0088   22.9020 H   0  0  0  0  0  0
  -19.7918  -30.7270   24.2294 H   0  0  0  0  0  0
  -17.4990  -31.6266   24.5168 H   0  0  0  0  0  0
  -15.5339  -30.2982   23.7644 H   0  0  0  0  0  0
  -15.8666  -28.0815   22.7073 H   0  0  0  0  0  0
  -24.5951  -30.6980   25.7842 H   0  0  0  0  0  0
  -24.8897  -32.2810   26.4945 H   0  0  0  0  0  0
  -25.8101  -30.8871   27.0259 H   0  0  0  0  0  0
  -26.2899  -29.6755   24.1219 H   0  0  0  0  0  0
  -27.4010  -29.7240   25.4704 H   0  0  0  0  0  0
  -27.8778  -30.4273   23.9432 H   0  0  0  0  0  0
  -27.2672  -33.3621   26.2069 H   0  0  0  0  0  0
  -28.3867  -32.6837   25.0336 H   0  0  0  0  0  0
  -28.0719  -31.8450   26.5438 H   0  0  0  0  0  0
  -28.2571  -38.0114   24.7486 H   0  0  0  0  0  0
  -28.1082  -36.2640   24.6290 H   0  0  0  0  0  0
  -27.2298  -37.1466   25.8861 H   0  0  0  0  0  0
  -20.9402  -29.8781   21.6863 H   0  0  0  0  0  0
  -26.0150  -38.2826   24.1401 H   0  0  0  0  0  0
  -30.6155  -22.3296   21.5385 H   0  0  0  0  0  0
  -31.8259  -20.4781   22.5809 H   0  0  0  0  0  0
  -28.0250  -19.4709   19.5916 H   0  0  0  0  0  0
  -32.0854  -18.2661   23.1892 H   0  0  0  0  0  0
  -32.1302  -17.3233   21.7034 H   0  0  0  0  0  0
  -30.8297  -17.0782   22.8814 H   0  0  0  0  0  0
  -27.9330  -21.9394   18.9814 H   0  0  0  0  0  0
  -29.4214  -22.7755   19.1113 H   0  0  0  0  0  0
  -28.2387  -16.9786   20.0735 H   0  0  0  0  0  0
  -28.8115  -16.6483   21.6722 H   0  0  0  0  0  0
  -27.3240  -23.2032   21.2748 H   0  0  0  0  0  0
  -26.9807  -23.8348   19.7240 H   0  0  0  0  0  0
  -29.4806  -24.9152   20.9809 H   0  0  0  0  0  0
  -28.0169  -25.2875   21.7889 H   0  0  0  0  0  0
  -30.8045  -16.5018   19.6096 H   0  0  0  0  0  0
  1 25  1  0  0  0
  1 30  2  0  0  0
  1 82  1  0  0  0
  2  3  1  0  0  0
  2 25  1  0  0  0
  2 83  1  0  0  0
  2 84  1  0  0  0
  3  4  1  0  0  0
  3 85  1  0  0  0
  3 86  1  0  0  0
  4  5  1  0  0  0
  4 87  1  0  0  0
  4 88  1  0  0  0
  5  6  1  0  0  0
  5 26  1  0  0  0
  5 89  1  0  0  0
  6 25  1  0  0  0
  6 90  1  0  0  0
  6 91  1  0  0  0
  7  8  2  0  0  0
  7 26  1  0  0  0
  7 29  1  0  0  0
  8  9  1  0  0  0
  8 22  1  0  0  0
  9 10  1  0  0  0
  9 27  2  0  0  0
 10 11  2  0  0  0
 10 15  1  0  0  0
 11 12  1  0  0  0
 11 92  1  0  0  0
 12 13  2  0  0  0
 12 93  1  0  0  0
 13 14  1  0  0  0
 13 31  1  0  0  0
 14 15  2  0  0  0
 14 94  1  0  0  0
 15 95  1  0  0  0
 16 17  2  0  0  0
 16 21  1  0  0  0
 16 31  1  0  0  0
 17 18  1  0  0  0
 17 96  1  0  0  0
 18 19  2  0  0  0
 18 97  1  0  0  0
 19 20  1  0  0  0
 19 24  1  0  0  0
 20 21  2  0  0  0
 20 98  1  0  0  0
 21 23  1  0  0  0
 22 28  1  0  0  0
 22 32  2  0  0  0
 26 27  1  0  0  0
 28 99  1  0  0  0
 28100  1  0  0  0
 29101  1  0  0  0
 29102  1  0  0  0
 33 34  1  0  0  0
 33 66  1  0  0  0
 33 70  2  0  0  0
 34 36  1  0  0  0
 34 59  1  0  0  0
 34103  1  0  0  0
 35 44  2  0  0  0
 35 45  1  0  0  0
 35 68  1  0  0  0
 36 56  1  0  0  0
 36104  1  0  0  0
 37 39  1  0  0  0
 37 47  1  0  0  0
 37 66  1  0  0  0
 37105  1  0  0  0
 38 43  2  0  0  0
 38 46  1  0  0  0
 38 47  1  0  0  0
 39 64  1  0  0  0
 39 67  2  0  0  0
 40 52  1  0  0  0
 40 53  2  0  0  0
 40 58  1  0  0  0
 41106  1  0  0  0
 41107  1  0  0  0
 41108  1  0  0  0
 41 48  1  0  0  0
 42 43  1  0  0  0
 42 66  1  0  0  0
 42109  1  0  0  0
 42110  1  0  0  0
 43 44  1  0  0  0
 44111  1  0  0  0
 45 46  2  0  0  0
 45112  1  0  0  0
 46113  1  0  0  0
 47114  1  0  0  0
 47115  1  0  0  0
 48 56  1  0  0  0
 48 65  1  0  0  0
 48116  1  0  0  0
 49 50  1  0  0  0
 49 53  1  0  0  0
 49 64  1  0  0  0
 49117  1  0  0  0
 50 51  1  0  0  0
 50118  1  0  0  0
 50119  1  0  0  0
 51 52  1  0  0  0
 51120  1  0  0  0
 51121  1  0  0  0
 52122  1  0  0  0
 52123  1  0  0  0
 53 54  1  0  0  0
 54 55  2  0  0  0
 54124  1  0  0  0
 55 57  1  0  0  0
 55125  1  0  0  0
 56 69  2  0  0  0
 57 58  2  0  0  0
 57126  1  0  0  0
 58127  1  0  0  0
 59 60  1  0  0  0
 59 61  1  0  0  0
 59 62  1  0  0  0
 60128  1  0  0  0
 60129  1  0  0  0
 60130  1  0  0  0
 61131  1  0  0  0
 61132  1  0  0  0
 61133  1  0  0  0
 62134  1  0  0  0
 62135  1  0  0  0
 62136  1  0  0  0
 63 65  1  0  0  0
 63137  1  0  0  0
 63138  1  0  0  0
 63139  1  0  0  0
 64140  1  0  0  0
 65141  1  0  0  0
 68 81  1  0  0  0
 71 72  2  0  0  0
 71 74  1  0  0  0
 71142  1  0  0  0
 72 75  1  0  0  0
 72143  1  0  0  0
 73 74  2  0  0  0
 73 76  1  0  0  0
 73144  1  0  0  0
 74 78  1  0  0  0
 75 76  2  0  0  0
 75 77  1  0  0  0
 76 79  1  0  0  0
 77145  1  0  0  0
 77146  1  0  0  0
 77147  1  0  0  0
 78 80  1  0  0  0
 78148  1  0  0  0
 78149  1  0  0  0
 79 82  1  0  0  0
 79150  1  0  0  0
 79151  1  0  0  0
 80 81  1  0  0  0
 80152  1  0  0  0
 80153  1  0  0  0
 81154  1  0  0  0
 81155  1  0  0  0
 82156  1  0  0  0
M  ISO  4   1 100  68 101  81 101  82 100
M  END
> <chiral flag>
0

> <version>
0

> <s_m_source_file>
/data/baiqing/PycharmProjects/Reinvent-master-3.2/result/LINK_invent/BTK/process_docking_weight1_custom_sum_contain_oxygen_bond_distance_aromatic_linkinvent_7_9_3/rearranged_h_0031.sdf

> <i_m_source_file_index>
78

> <r_mmod_Potential_Energy-OPLS-2005>
306.078796386719

> <r_mmod_Stretch_Energy-OPLS-2005>
130.996109008789

> <r_mmod_Bend_Energy-OPLS-2005>
253.633193969727

> <r_mmod_Torsional_Energy-OPLS-2005>
295.576629638672

> <r_mmod_Improper_Torsional_Energy-OPLS-2005>
27.3879241943359

> <r_mmod_Van_der_Waal_Energy-OPLS-2005>
122.298042297363

> <r_mmod_Electrostatic_Energy-OPLS-2005>
-423.401123046875

> <r_mmod_Solvation_Energy-OPLS-2005>
-198.597366333008

> <b_mmod_Minimization_Converged-OPLS-2005>
0

> <r_mmod_RMS_Derivative-OPLS-2005>
2.32137417793274

$$$$
78
                    3D
 Structure written by MMmdl.
159168  0  0  1  0            999 V2000
  -30.6482  -15.0325   20.4100 C   0  0  0  0  0  0
  -30.4075  -12.6441   19.5477 C   0  0  0  0  0  0
  -29.5270  -12.5508   18.2857 C   0  0  0  0  0  0
  -28.0646  -12.3301   18.6914 C   0  0  0  0  0  0
  -27.6211  -13.2882   19.8294 C   0  0  2  0  0  0
  -28.6530  -13.4288   20.9702 C   0  0  0  0  0  0
  -25.2440  -13.8309   20.5763 C   0  0  0  0  0  0
  -24.1790  -13.0503   20.9243 C   0  0  0  0  0  0
  -24.6455  -11.6997   20.8788 C   0  0  0  0  0  0
  -23.9155  -10.4352   21.0401 C   0  0  0  0  0  0
  -24.3675   -9.4250   21.9171 C   0  0  0  0  0  0
  -23.6349   -8.2283   22.0734 C   0  0  0  0  0  0
  -22.4335   -8.0321   21.3518 C   0  0  0  0  0  0
  -21.9978   -9.0318   20.4631 C   0  0  0  0  0  0
  -22.7331  -10.2186   20.3050 C   0  0  0  0  0  0
  -21.6875   -6.0769   22.5265 C   0  0  0  0  0  0
  -21.4045   -6.5648   23.8207 C   0  0  0  0  0  0
  -21.3652   -5.6785   24.9155 C   0  0  0  0  0  0
  -21.6033   -4.3046   24.7197 C   0  0  0  0  0  0
  -21.8831   -3.8164   23.4311 C   0  0  0  0  0  0
  -21.9207   -4.6998   22.3384 C   0  0  0  0  0  0
  -22.7796  -13.5249   21.1860 C   0  0  0  0  0  0
  -22.1669   -4.2185   21.0958 F   0  0  0  0  0  0
  -21.5615   -3.4508   25.7698 F   0  0  0  0  0  0
  -29.9351  -13.8186   20.3685 N   0  0  0  0  0  0
  -26.2883  -12.9617   20.3265 N   0  0  0  0  0  0
  -25.9405  -11.6702   20.5752 N   0  0  0  0  0  0
  -22.0440  -12.8276   22.0416 N   0  0  0  0  0  0
  -25.4188  -15.2031   20.4275 N   0  0  0  0  0  0
  -31.8318  -14.8659   20.0914 O   0  0  0  0  0  0
  -21.6663   -6.8931   21.4234 O   0  0  0  0  0  0
  -22.3463  -14.5530   20.6677 O   0  0  0  0  0  0
  -24.6510  -31.8386   23.1805 C   0  0  0  0  0  0
  -25.9250  -32.4644   23.8247 C   0  0  1  0  0  0
  -27.2065  -27.0615   20.1804 C   0  0  0  0  0  0
  -25.5975  -33.8454   24.2161 N   0  0  0  0  0  0
  -23.4556  -30.4586   21.5261 C   0  0  2  0  0  0
  -24.9054  -28.8697   20.1098 C   0  0  0  0  0  0
  -22.7611  -29.4547   22.4822 C   0  0  0  0  0  0
  -18.0318  -28.1389   22.8502 C   0  0  0  0  0  0
  -24.1494  -36.7232   23.2651 C   0  0  0  0  0  0
  -26.0188  -30.6899   21.3877 C   0  0  0  0  0  0
  -26.0865  -29.2934   20.7333 C   0  0  0  0  0  0
  -27.2393  -28.4121   20.7414 C   0  0  0  0  0  0
  -26.0018  -26.7588   19.5084 C   0  0  0  0  0  0
  -24.8820  -27.6186   19.4761 C   0  0  0  0  0  0
  -23.6856  -29.7815   20.1486 C   0  0  0  0  0  0
  -25.4115  -36.2996   24.0319 C   0  0  1  0  0  0
  -20.5949  -28.3725   23.1213 C   0  0  2  0  0  0
  -20.6792  -26.9418   22.5401 C   0  0  0  0  0  0
  -19.5754  -26.6365   21.5224 C   0  0  0  0  0  0
  -18.1940  -26.7930   22.1638 C   0  0  0  0  0  0
  -19.1585  -28.8869   23.2859 C   0  0  0  0  0  0
  -18.9492  -30.1467   23.8877 C   0  0  0  0  0  0
  -17.6485  -30.6588   24.0554 C   0  0  0  0  0  0
  -25.9065  -34.9367   23.5036 C   0  0  0  0  0  0
  -16.5375  -29.9080   23.6346 C   0  0  0  0  0  0
  -16.7300  -28.6497   23.0375 C   0  0  0  0  0  0
  -26.4533  -31.6547   25.0721 C   0  0  0  0  0  0
  -25.3711  -31.3771   26.1427 C   0  0  0  0  0  0
  -27.0425  -30.2946   24.6333 C   0  0  0  0  0  0
  -27.6051  -32.4329   25.7507 C   0  0  0  0  0  0
  -27.5568  -37.1771   24.8470 C   0  0  0  0  0  0
  -21.4294  -29.3044   22.3574 N   0  0  0  0  0  0
  -26.4266  -37.3708   23.9422 N   0  0  0  0  0  0
  -24.7292  -31.0195   22.0855 N   0  0  0  0  0  0
  -23.4245  -28.8106   23.2998 O   0  0  0  0  0  0
  -28.2337  -26.0293   20.2543 O   0  0  0  0  0  0
  -26.5667  -34.8877   22.4624 O   0  0  0  0  0  0
  -23.5607  -32.1290   23.6992 O   0  0  0  0  0  0
  -24.6478  -18.6924   20.6577 C   0  0  0  0  0  0
  -25.9810  -18.6263   20.2011 C   0  0  0  0  0  0
  -24.3748  -18.7219   22.0400 C   0  0  0  0  0  0
  -26.7598  -18.6002   22.5197 C   0  0  0  0  0  0
  -27.0383  -18.5724   21.1348 C   0  0  0  0  0  0
  -25.4291  -18.6833   22.9707 C   0  0  0  0  0  0
  -31.2156  -17.4017   20.9662 C   0  0  0  0  0  0
  -30.4808  -19.7668   21.2502 C   0  0  0  0  0  0
  -28.4439  -18.4652   20.7059 C   0  0  0  0  0  0
  -30.1766  -16.5404   20.6808 C   0  0  0  0  0  0
  -29.2078  -19.9027   20.4147 C   0  0  1  0  0  0
  -28.8975  -23.0615   20.3550 C   0  0  0  0  0  0
  -27.9089  -24.4773   20.4076 C   0  0  0  0  0  0
  -28.3915  -21.4329   20.5998 C   0  0  0  0  0  0
  -31.2702  -18.7531   21.4263 N   0  0  0  0  0  0
  -28.8605  -17.1726   20.7067 N   0  0  0  0  0  0
  -29.5702  -19.9192   19.1283 F   0  0  0  0  0  0
  -27.3424  -21.3432   19.7829 F   0  0  0  0  0  0
  -27.9108  -21.4353   21.8440 F   0  0  0  0  0  0
  -25.0886  -18.7403   24.6621 Cl  0  0  0  0  0  0
  -31.4539  -12.7129   19.2469 H   0  0  0  0  0  0
  -30.3460  -11.7211   20.1243 H   0  0  0  0  0  0
  -29.8652  -11.7375   17.6429 H   0  0  0  0  0  0
  -29.6213  -13.4665   17.7004 H   0  0  0  0  0  0
  -27.9745  -11.2959   19.0223 H   0  0  0  0  0  0
  -27.4089  -12.4315   17.8251 H   0  0  0  0  0  0
  -27.5541  -14.2713   19.3610 H   0  0  0  0  0  0
  -28.7444  -12.5024   21.5386 H   0  0  0  0  0  0
  -28.3337  -14.1991   21.6732 H   0  0  0  0  0  0
  -25.2803   -9.5708   22.4761 H   0  0  0  0  0  0
  -24.0023   -7.4677   22.7478 H   0  0  0  0  0  0
  -21.0880   -8.8906   19.8964 H   0  0  0  0  0  0
  -22.3816  -10.9738   19.6168 H   0  0  0  0  0  0
  -21.2064   -7.6154   23.9728 H   0  0  0  0  0  0
  -21.1440   -6.0490   25.9049 H   0  0  0  0  0  0
  -22.0624   -2.7624   23.2781 H   0  0  0  0  0  0
  -22.4010  -11.9940   22.4856 H   0  0  0  0  0  0
  -21.1026  -13.1300   22.2514 H   0  0  0  0  0  0
  -24.6774  -15.8742   20.5830 H   0  0  0  0  0  0
  -26.3043  -15.6378   20.2008 H   0  0  0  0  0  0
  -26.7329  -32.5228   23.0990 H   0  0  0  0  0  0
  -25.0128  -33.9541   25.0319 H   0  0  0  0  0  0
  -22.7583  -31.2841   21.3678 H   0  0  0  0  0  0
  -23.3737  -35.9577   23.3273 H   0  0  0  0  0  0
  -24.3604  -36.8896   22.2073 H   0  0  0  0  0  0
  -23.7239  -37.6412   23.6711 H   0  0  0  0  0  0
  -26.1824  -31.4368   20.6096 H   0  0  0  0  0  0
  -26.8863  -30.7474   22.0340 H   0  0  0  0  0  0
  -28.1410  -28.7387   21.2389 H   0  0  0  0  0  0
  -25.8859  -25.8118   19.0063 H   0  0  0  0  0  0
  -23.9890  -27.2857   18.9664 H   0  0  0  0  0  0
  -23.8249  -30.5512   19.3901 H   0  0  0  0  0  0
  -22.7979  -29.2270   19.8420 H   0  0  0  0  0  0
  -25.1299  -36.1806   25.0802 H   0  0  0  0  0  0
  -21.0061  -28.3314   24.1331 H   0  0  0  0  0  0
  -20.5666  -26.2345   23.3636 H   0  0  0  0  0  0
  -21.6646  -26.7389   22.1206 H   0  0  0  0  0  0
  -19.6884  -25.6270   21.1270 H   0  0  0  0  0  0
  -19.6667  -27.3151   20.6740 H   0  0  0  0  0  0
  -17.4214  -26.6713   21.4033 H   0  0  0  0  0  0
  -18.0311  -26.0069   22.9027 H   0  0  0  0  0  0
  -19.7959  -30.7304   24.2231 H   0  0  0  0  0  0
  -17.5024  -31.6262   24.5147 H   0  0  0  0  0  0
  -15.5370  -30.2955   23.7645 H   0  0  0  0  0  0
  -15.8719  -28.0767   22.7109 H   0  0  0  0  0  0
  -24.5842  -30.7163   25.7771 H   0  0  0  0  0  0
  -24.8950  -32.2970   26.4837 H   0  0  0  0  0  0
  -25.7988  -30.8951   27.0229 H   0  0  0  0  0  0
  -26.3081  -29.6642   24.1304 H   0  0  0  0  0  0
  -27.4020  -29.7266   25.4924 H   0  0  0  0  0  0
  -27.8985  -30.4199   23.9696 H   0  0  0  0  0  0
  -27.2636  -33.3646   26.2031 H   0  0  0  0  0  0
  -28.3893  -32.6865   25.0363 H   0  0  0  0  0  0
  -28.0692  -31.8495   26.5468 H   0  0  0  0  0  0
  -28.2566  -38.0093   24.7510 H   0  0  0  0  0  0
  -28.1088  -36.2610   24.6288 H   0  0  0  0  0  0
  -27.2316  -37.1410   25.8889 H   0  0  0  0  0  0
  -20.9512  -29.8766   21.6761 H   0  0  0  0  0  0
  -26.0123  -38.2773   24.1407 H   0  0  0  0  0  0
  -23.8300  -18.7175   19.9515 H   0  0  0  0  0  0
  -26.1856  -18.6101   19.1402 H   0  0  0  0  0  0
  -23.3556  -18.7758   22.3908 H   0  0  0  0  0  0
  -27.5621  -18.5516   23.2406 H   0  0  0  0  0  0
  -32.2190  -16.9947   20.9652 H   0  0  0  0  0  0
  -30.7246  -20.7070   21.7545 H   0  0  0  0  0  0
  -29.7011  -23.2273   21.0728 H   0  0  0  0  0  0
  -29.4023  -23.0791   19.3887 H   0  0  0  0  0  0
  -27.4099  -24.4243   21.3766 H   0  0  0  0  0  0
  -27.1177  -24.2552   19.6957 H   0  0  0  0  0  0
  1 25  1  0  0  0
  1 30  2  0  0  0
  1 80  1  0  0  0
  2  3  1  0  0  0
  2 25  1  0  0  0
  2 91  1  0  0  0
  2 92  1  0  0  0
  3  4  1  0  0  0
  3 93  1  0  0  0
  3 94  1  0  0  0
  4  5  1  0  0  0
  4 95  1  0  0  0
  4 96  1  0  0  0
  5  6  1  0  0  0
  5 26  1  0  0  0
  5 97  1  0  0  0
  6 25  1  0  0  0
  6 98  1  0  0  0
  6 99  1  0  0  0
  7  8  2  0  0  0
  7 26  1  0  0  0
  7 29  1  0  0  0
  8  9  1  0  0  0
  8 22  1  0  0  0
  9 10  1  0  0  0
  9 27  2  0  0  0
 10 11  2  0  0  0
 10 15  1  0  0  0
 11 12  1  0  0  0
 11100  1  0  0  0
 12 13  2  0  0  0
 12101  1  0  0  0
 13 14  1  0  0  0
 13 31  1  0  0  0
 14 15  2  0  0  0
 14102  1  0  0  0
 15103  1  0  0  0
 16 17  2  0  0  0
 16 21  1  0  0  0
 16 31  1  0  0  0
 17 18  1  0  0  0
 17104  1  0  0  0
 18 19  2  0  0  0
 18105  1  0  0  0
 19 20  1  0  0  0
 19 24  1  0  0  0
 20 21  2  0  0  0
 20106  1  0  0  0
 21 23  1  0  0  0
 22 28  1  0  0  0
 22 32  2  0  0  0
 26 27  1  0  0  0
 28107  1  0  0  0
 28108  1  0  0  0
 29109  1  0  0  0
 29110  1  0  0  0
 33 34  1  0  0  0
 33 66  1  0  0  0
 33 70  2  0  0  0
 34 36  1  0  0  0
 34 59  1  0  0  0
 34111  1  0  0  0
 35 44  2  0  0  0
 35 45  1  0  0  0
 35 68  1  0  0  0
 36 56  1  0  0  0
 36112  1  0  0  0
 37 39  1  0  0  0
 37 47  1  0  0  0
 37 66  1  0  0  0
 37113  1  0  0  0
 38 43  2  0  0  0
 38 46  1  0  0  0
 38 47  1  0  0  0
 39 64  1  0  0  0
 39 67  2  0  0  0
 40 52  1  0  0  0
 40 53  2  0  0  0
 40 58  1  0  0  0
 41114  1  0  0  0
 41115  1  0  0  0
 41116  1  0  0  0
 41 48  1  0  0  0
 42 43  1  0  0  0
 42 66  1  0  0  0
 42117  1  0  0  0
 42118  1  0  0  0
 43 44  1  0  0  0
 44119  1  0  0  0
 45 46  2  0  0  0
 45120  1  0  0  0
 46121  1  0  0  0
 47122  1  0  0  0
 47123  1  0  0  0
 48 56  1  0  0  0
 48 65  1  0  0  0
 48124  1  0  0  0
 49 50  1  0  0  0
 49 53  1  0  0  0
 49 64  1  0  0  0
 49125  1  0  0  0
 50 51  1  0  0  0
 50126  1  0  0  0
 50127  1  0  0  0
 51 52  1  0  0  0
 51128  1  0  0  0
 51129  1  0  0  0
 52130  1  0  0  0
 52131  1  0  0  0
 53 54  1  0  0  0
 54 55  2  0  0  0
 54132  1  0  0  0
 55 57  1  0  0  0
 55133  1  0  0  0
 56 69  2  0  0  0
 57 58  2  0  0  0
 57134  1  0  0  0
 58135  1  0  0  0
 59 60  1  0  0  0
 59 61  1  0  0  0
 59 62  1  0  0  0
 60136  1  0  0  0
 60137  1  0  0  0
 60138  1  0  0  0
 61139  1  0  0  0
 61140  1  0  0  0
 61141  1  0  0  0
 62142  1  0  0  0
 62143  1  0  0  0
 62144  1  0  0  0
 63 65  1  0  0  0
 63145  1  0  0  0
 63146  1  0  0  0
 63147  1  0  0  0
 64148  1  0  0  0
 65149  1  0  0  0
 68 83  1  0  0  0
 71 72  2  0  0  0
 71 73  1  0  0  0
 71150  1  0  0  0
 72 75  1  0  0  0
 72151  1  0  0  0
 73 76  2  0  0  0
 73152  1  0  0  0
 74 75  2  0  0  0
 74 76  1  0  0  0
 74153  1  0  0  0
 75 79  1  0  0  0
 76 90  1  0  0  0
 77 80  2  0  0  0
 77 85  1  0  0  0
 77154  1  0  0  0
 78 81  1  0  0  0
 78 85  2  0  0  0
 78155  1  0  0  0
 79 81  1  0  0  0
 79 86  2  0  0  0
 80 86  1  0  0  0
 81 84  1  0  0  0
 81 87  1  0  0  0
 82 83  1  0  0  0
 82 84  1  0  0  0
 82156  1  0  0  0
 82157  1  0  0  0
 83158  1  0  0  0
 83159  1  0  0  0
 84 88  1  0  0  0
 84 89  1  0  0  0
M  ISO  4   1 100  68 101  80 100  83 101
M  END
> <chiral flag>
0

> <version>
0

> <s_m_source_file>
/data/baiqing/PycharmProjects/Reinvent-master-3.2/result/LINK_invent/BTK/process_docking_weight1_custom_sum_contain_oxygen_bond_distance_aromatic_linkinvent_7_9_3/rearranged_h_0031.sdf

> <i_m_source_file_index>
79

> <r_mmod_Potential_Energy-OPLS-2005>
1034.11779785156

> <r_mmod_Stretch_Energy-OPLS-2005>
371.189727783203

> <r_mmod_Bend_Energy-OPLS-2005>
435.63134765625

> <r_mmod_Torsional_Energy-OPLS-2005>
221.082733154297

> <r_mmod_Improper_Torsional_Energy-OPLS-2005>
2.64507484436035

> <r_mmod_Van_der_Waal_Energy-OPLS-2005>
141.721771240234

> <r_mmod_Electrostatic_Energy-OPLS-2005>
-203.825988769531

> <r_mmod_Solvation_Energy-OPLS-2005>
-195.208541870117

> <b_mmod_Minimization_Converged-OPLS-2005>
0

> <r_mmod_RMS_Derivative-OPLS-2005>
3.93065047264099

$$$$
79
                    3D
 Structure written by MMmdl.
182193  0  0  1  0            999 V2000
  -30.5241  -15.0136   20.3871 C   0  0  0  0  0  0
  -30.4428  -12.6240   19.5184 C   0  0  0  0  0  0
  -29.5285  -12.5402   18.2729 C   0  0  0  0  0  0
  -28.0625  -12.3195   18.6876 C   0  0  0  0  0  0
  -27.6294  -13.2593   19.8433 C   0  0  2  0  0  0
  -28.6710  -13.3134   20.9834 C   0  0  0  0  0  0
  -25.2444  -13.8245   20.5740 C   0  0  0  0  0  0
  -24.1772  -13.0441   20.9242 C   0  0  0  0  0  0
  -24.6419  -11.6933   20.8783 C   0  0  0  0  0  0
  -23.9120  -10.4293   21.0426 C   0  0  0  0  0  0
  -24.3665   -9.4192   21.9190 C   0  0  0  0  0  0
  -23.6319   -8.2240   22.0757 C   0  0  0  0  0  0
  -22.4295   -8.0293   21.3556 C   0  0  0  0  0  0
  -21.9948   -9.0274   20.4652 C   0  0  0  0  0  0
  -22.7304  -10.2134   20.3060 C   0  0  0  0  0  0
  -21.6844   -6.0754   22.5288 C   0  0  0  0  0  0
  -21.4018   -6.5664   23.8228 C   0  0  0  0  0  0
  -21.3650   -5.6812   24.9188 C   0  0  0  0  0  0
  -21.6039   -4.3074   24.7235 C   0  0  0  0  0  0
  -21.8823   -3.8162   23.4356 C   0  0  0  0  0  0
  -21.9188   -4.6979   22.3410 C   0  0  0  0  0  0
  -22.7782  -13.5181   21.1888 C   0  0  0  0  0  0
  -22.1663   -4.2165   21.0984 F   0  0  0  0  0  0
  -21.5610   -3.4557   25.7748 F   0  0  0  0  0  0
  -29.9449  -13.7372   20.3849 N   0  0  0  0  0  0
  -26.2888  -12.9499   20.3270 N   0  0  0  0  0  0
  -25.9356  -11.6618   20.5770 N   0  0  0  0  0  0
  -22.0442  -12.8154   22.0447 N   0  0  0  0  0  0
  -25.4078  -15.1983   20.4193 N   0  0  0  0  0  0
  -31.7159  -15.0752   20.0686 O   0  0  0  0  0  0
  -21.6644   -6.8896   21.4250 O   0  0  0  0  0  0
  -22.3445  -14.5478   20.6733 O   0  0  0  0  0  0
  -24.6504  -31.8378   23.1848 C   0  0  0  0  0  0
  -25.9250  -32.4653   23.8253 C   0  0  1  0  0  0
  -27.2138  -27.0796   20.1507 C   0  0  0  0  0  0
  -25.5969  -33.8466   24.2168 N   0  0  0  0  0  0
  -23.4549  -30.4585   21.5326 C   0  0  2  0  0  0
  -24.9024  -28.8758   20.1120 C   0  0  0  0  0  0
  -22.7583  -29.4530   22.4847 C   0  0  0  0  0  0
  -18.0310  -28.1410   22.8473 C   0  0  0  0  0  0
  -24.1490  -36.7246   23.2640 C   0  0  0  0  0  0
  -26.0156  -30.6944   21.3899 C   0  0  0  0  0  0
  -26.0847  -29.2999   20.7315 C   0  0  0  0  0  0
  -27.2409  -28.4214   20.7298 C   0  0  0  0  0  0
  -26.0036  -26.7762   19.4869 C   0  0  0  0  0  0
  -24.8784  -27.6284   19.4732 C   0  0  0  0  0  0
  -23.6822  -29.7858   20.1531 C   0  0  0  0  0  0
  -25.4119  -36.3006   24.0313 C   0  0  1  0  0  0
  -20.5924  -28.3743   23.1224 C   0  0  2  0  0  0
  -20.6803  -26.9446   22.5403 C   0  0  0  0  0  0
  -19.5773  -26.6396   21.5218 C   0  0  0  0  0  0
  -18.1950  -26.7948   22.1620 C   0  0  0  0  0  0
  -19.1567  -28.8895   23.2837 C   0  0  0  0  0  0
  -18.9481  -30.1491   23.8865 C   0  0  0  0  0  0
  -17.6476  -30.6604   24.0566 C   0  0  0  0  0  0
  -25.9080  -34.9382   23.5048 C   0  0  0  0  0  0
  -16.5370  -29.9093   23.6340 C   0  0  0  0  0  0
  -16.7297  -28.6513   23.0360 C   0  0  0  0  0  0
  -26.4554  -31.6533   25.0715 C   0  0  0  0  0  0
  -25.3744  -31.3744   26.1417 C   0  0  0  0  0  0
  -27.0416  -30.2911   24.6338 C   0  0  0  0  0  0
  -27.6065  -32.4315   25.7512 C   0  0  0  0  0  0
  -27.5576  -37.1773   24.8461 C   0  0  0  0  0  0
  -21.4276  -29.3049   22.3580 N   0  0  0  0  0  0
  -26.4275  -37.3731   23.9415 N   0  0  0  0  0  0
  -24.7277  -31.0190   22.0906 N   0  0  0  0  0  0
  -23.4189  -28.8077   23.3032 O   0  0  0  0  0  0
  -28.2534  -26.0598   20.1905 O   0  0  0  0  0  0
  -26.5664  -34.8891   22.4629 O   0  0  0  0  0  0
  -23.5610  -32.1293   23.7029 O   0  0  0  0  0  0
  -30.2390  -23.5334   19.5661 C   0  0  0  0  0  0
  -31.2636  -22.5735   19.4773 C   0  0  0  0  0  0
  -32.5911  -22.6908   18.9765 C   0  0  0  0  0  0
  -31.0557  -21.2347   19.9597 C   0  0  0  0  0  0
  -33.2351  -21.5436   19.3232 C   0  0  0  0  0  0
  -28.9975  -23.2362   20.1216 C   0  0  0  0  0  0
  -29.7470  -20.7866   20.3314 C   0  0  0  0  0  0
  -33.2479  -23.8489   18.2834 C   0  0  0  0  0  0
  -34.6909  -21.2849   19.0558 C   0  0  0  0  0  0
  -34.5887  -23.4311   17.6457 C   0  0  0  0  0  0
  -35.4332  -22.5589   18.5974 C   0  0  0  0  0  0
  -34.5500  -19.8653   24.7926 C   0  0  0  0  0  0
  -33.6694  -18.6550   24.4474 C   0  0  0  0  0  0
  -34.0333  -21.1398   24.1101 C   0  0  0  0  0  0
  -33.5478  -18.4728   22.9261 C   0  0  0  0  0  0
  -33.9298  -20.9465   22.5895 C   0  0  0  0  0  0
  -33.0197  -19.7479   22.2391 C   0  0  0  0  0  0
  -29.4965  -19.1860   20.7983 C   0  0  0  0  0  0
  -27.9247  -24.5098   20.2595 C   0  0  0  0  0  0
  -32.8308  -19.5095   20.7244 C   0  0  0  0  0  0
  -29.8548  -17.7145   19.9774 C   0  0  0  0  0  0
  -28.7722  -21.8474   20.4321 N   0  0  0  0  0  0
  -32.3612  -20.6967   20.0121 N   0  0  0  0  0  0
  -29.7407  -16.2075   20.5291 N   0  0  0  0  0  0
  -31.4774  -12.7776   19.2066 H   0  0  0  0  0  0
  -30.4404  -11.6808   20.0659 H   0  0  0  0  0  0
  -29.8577  -11.7374   17.6124 H   0  0  0  0  0  0
  -29.6120  -13.4638   17.6970 H   0  0  0  0  0  0
  -27.9647  -11.2802   19.0022 H   0  0  0  0  0  0
  -27.4034  -12.4407   17.8280 H   0  0  0  0  0  0
  -27.5851  -14.2561   19.4037 H   0  0  0  0  0  0
  -28.7651  -12.3459   21.4797 H   0  0  0  0  0  0
  -28.3594  -14.0241   21.7503 H   0  0  0  0  0  0
  -25.2809   -9.5657   22.4763 H   0  0  0  0  0  0
  -24.0020   -7.4628   22.7479 H   0  0  0  0  0  0
  -21.0882   -8.8823   19.8948 H   0  0  0  0  0  0
  -22.3797  -10.9687   19.6162 H   0  0  0  0  0  0
  -21.2029   -7.6177   23.9745 H   0  0  0  0  0  0
  -21.1452   -6.0537   25.9094 H   0  0  0  0  0  0
  -22.0602   -2.7619   23.2864 H   0  0  0  0  0  0
  -22.4092  -11.9826   22.4831 H   0  0  0  0  0  0
  -21.1047  -13.1145   22.2653 H   0  0  0  0  0  0
  -24.6372  -15.8474   20.5377 H   0  0  0  0  0  0
  -26.2470  -15.6453   20.0754 H   0  0  0  0  0  0
  -26.7313  -32.5238   23.0972 H   0  0  0  0  0  0
  -25.0095  -33.9572   25.0301 H   0  0  0  0  0  0
  -22.7622  -31.2879   21.3763 H   0  0  0  0  0  0
  -23.3760  -35.9569   23.3260 H   0  0  0  0  0  0
  -24.3582  -36.8930   22.2065 H   0  0  0  0  0  0
  -23.7240  -37.6426   23.6714 H   0  0  0  0  0  0
  -26.1761  -31.4449   20.6148 H   0  0  0  0  0  0
  -26.8841  -30.7452   22.0345 H   0  0  0  0  0  0
  -28.1436  -28.7443   21.2282 H   0  0  0  0  0  0
  -25.8873  -25.8373   18.9698 H   0  0  0  0  0  0
  -23.9793  -27.3008   18.9685 H   0  0  0  0  0  0
  -23.8203  -30.5607   19.3979 H   0  0  0  0  0  0
  -22.7939  -29.2325   19.8426 H   0  0  0  0  0  0
  -25.1306  -36.1820   25.0805 H   0  0  0  0  0  0
  -21.0024  -28.3358   24.1344 H   0  0  0  0  0  0
  -20.5725  -26.2364   23.3632 H   0  0  0  0  0  0
  -21.6668  -26.7462   22.1193 H   0  0  0  0  0  0
  -19.6944  -25.6300   21.1267 H   0  0  0  0  0  0
  -19.6715  -27.3195   20.6739 H   0  0  0  0  0  0
  -17.4228  -26.6699   21.4018 H   0  0  0  0  0  0
  -18.0340  -26.0099   22.9023 H   0  0  0  0  0  0
  -19.7959  -30.7321   24.2221 H   0  0  0  0  0  0
  -17.5030  -31.6279   24.5178 H   0  0  0  0  0  0
  -15.5371  -30.2983   23.7697 H   0  0  0  0  0  0
  -15.8696  -28.0829   22.7092 H   0  0  0  0  0  0
  -24.5923  -30.7078   25.7769 H   0  0  0  0  0  0
  -24.8941  -32.2932   26.4789 H   0  0  0  0  0  0
  -25.8044  -30.8970   27.0232 H   0  0  0  0  0  0
  -26.3043  -29.6623   24.1334 H   0  0  0  0  0  0
  -27.3984  -29.7223   25.4936 H   0  0  0  0  0  0
  -27.8974  -30.4115   23.9693 H   0  0  0  0  0  0
  -27.2643  -33.3650   26.1997 H   0  0  0  0  0  0
  -28.3933  -32.6818   25.0384 H   0  0  0  0  0  0
  -28.0665  -31.8498   26.5514 H   0  0  0  0  0  0
  -28.2553  -38.0106   24.7523 H   0  0  0  0  0  0
  -28.1110  -36.2632   24.6254 H   0  0  0  0  0  0
  -27.2299  -37.1384   25.8864 H   0  0  0  0  0  0
  -20.9511  -29.8728   21.6715 H   0  0  0  0  0  0
  -26.0130  -38.2790   24.1439 H   0  0  0  0  0  0
  -30.4407  -24.5458   19.2428 H   0  0  0  0  0  0
  -33.4209  -24.6481   19.0048 H   0  0  0  0  0  0
  -32.5900  -24.2708   17.5225 H   0  0  0  0  0  0
  -34.7771  -20.5214   18.2820 H   0  0  0  0  0  0
  -35.1916  -20.8844   19.9358 H   0  0  0  0  0  0
  -35.1466  -24.3134   17.3315 H   0  0  0  0  0  0
  -34.3907  -22.8595   16.7373 H   0  0  0  0  0  0
  -36.3891  -22.2977   18.1423 H   0  0  0  0  0  0
  -35.6702  -23.1560   19.4791 H   0  0  0  0  0  0
  -35.5774  -19.6706   24.4803 H   0  0  0  0  0  0
  -34.5806  -20.0099   25.8728 H   0  0  0  0  0  0
  -32.6771  -18.7859   24.8831 H   0  0  0  0  0  0
  -34.0876  -17.7530   24.8953 H   0  0  0  0  0  0
  -34.6949  -21.9779   24.3333 H   0  0  0  0  0  0
  -33.0546  -21.4029   24.5152 H   0  0  0  0  0  0
  -32.8876  -17.6312   22.7133 H   0  0  0  0  0  0
  -34.5216  -18.2102   22.5081 H   0  0  0  0  0  0
  -34.9292  -20.7895   22.1819 H   0  0  0  0  0  0
  -33.5481  -21.8641   22.1402 H   0  0  0  0  0  0
  -32.0346  -19.9655   22.6540 H   0  0  0  0  0  0
  -28.4401  -19.1349   21.0624 H   0  0  0  0  0  0
  -30.0025  -19.1139   21.7603 H   0  0  0  0  0  0
  -27.4166  -24.3583   21.2121 H   0  0  0  0  0  0
  -27.1761  -24.2872   19.5039 H   0  0  0  0  0  0
  -32.1508  -18.6895   20.5937 H   0  0  0  0  0  0
  -33.7615  -19.1591   20.2781 H   0  0  0  0  0  0
  -30.8015  -17.7765   19.4494 H   0  0  0  0  0  0
  -29.1547  -17.7116   19.1406 H   0  0  0  0  0  0
  -28.8127  -15.9933   20.8630 H   0  0  0  0  0  0
  1 25  1  0  0  0
  1 30  2  0  0  0
  1 94  1  0  0  0
  2  3  1  0  0  0
  2 25  1  0  0  0
  2 95  1  0  0  0
  2 96  1  0  0  0
  3  4  1  0  0  0
  3 97  1  0  0  0
  3 98  1  0  0  0
  4  5  1  0  0  0
  4 99  1  0  0  0
  4100  1  0  0  0
  5  6  1  0  0  0
  5 26  1  0  0  0
  5101  1  0  0  0
  6 25  1  0  0  0
  6102  1  0  0  0
  6103  1  0  0  0
  7  8  2  0  0  0
  7 26  1  0  0  0
  7 29  1  0  0  0
  8  9  1  0  0  0
  8 22  1  0  0  0
  9 10  1  0  0  0
  9 27  2  0  0  0
 10 11  2  0  0  0
 10 15  1  0  0  0
 11 12  1  0  0  0
 11104  1  0  0  0
 12 13  2  0  0  0
 12105  1  0  0  0
 13 14  1  0  0  0
 13 31  1  0  0  0
 14 15  2  0  0  0
 14106  1  0  0  0
 15107  1  0  0  0
 16 17  2  0  0  0
 16 21  1  0  0  0
 16 31  1  0  0  0
 17 18  1  0  0  0
 17108  1  0  0  0
 18 19  2  0  0  0
 18109  1  0  0  0
 19 20  1  0  0  0
 19 24  1  0  0  0
 20 21  2  0  0  0
 20110  1  0  0  0
 21 23  1  0  0  0
 22 28  1  0  0  0
 22 32  2  0  0  0
 26 27  1  0  0  0
 28111  1  0  0  0
 28112  1  0  0  0
 29113  1  0  0  0
 29114  1  0  0  0
 33 34  1  0  0  0
 33 66  1  0  0  0
 33 70  2  0  0  0
 34 36  1  0  0  0
 34 59  1  0  0  0
 34115  1  0  0  0
 35 44  2  0  0  0
 35 45  1  0  0  0
 35 68  1  0  0  0
 36 56  1  0  0  0
 36116  1  0  0  0
 37 39  1  0  0  0
 37 47  1  0  0  0
 37 66  1  0  0  0
 37117  1  0  0  0
 38 43  2  0  0  0
 38 46  1  0  0  0
 38 47  1  0  0  0
 39 64  1  0  0  0
 39 67  2  0  0  0
 40 52  1  0  0  0
 40 53  2  0  0  0
 40 58  1  0  0  0
 41118  1  0  0  0
 41119  1  0  0  0
 41120  1  0  0  0
 41 48  1  0  0  0
 42 43  1  0  0  0
 42 66  1  0  0  0
 42121  1  0  0  0
 42122  1  0  0  0
 43 44  1  0  0  0
 44123  1  0  0  0
 45 46  2  0  0  0
 45124  1  0  0  0
 46125  1  0  0  0
 47126  1  0  0  0
 47127  1  0  0  0
 48 56  1  0  0  0
 48 65  1  0  0  0
 48128  1  0  0  0
 49 50  1  0  0  0
 49 53  1  0  0  0
 49 64  1  0  0  0
 49129  1  0  0  0
 50 51  1  0  0  0
 50130  1  0  0  0
 50131  1  0  0  0
 51 52  1  0  0  0
 51132  1  0  0  0
 51133  1  0  0  0
 52134  1  0  0  0
 52135  1  0  0  0
 53 54  1  0  0  0
 54 55  2  0  0  0
 54136  1  0  0  0
 55 57  1  0  0  0
 55137  1  0  0  0
 56 69  2  0  0  0
 57 58  2  0  0  0
 57138  1  0  0  0
 58139  1  0  0  0
 59 60  1  0  0  0
 59 61  1  0  0  0
 59 62  1  0  0  0
 60140  1  0  0  0
 60141  1  0  0  0
 60142  1  0  0  0
 61143  1  0  0  0
 61144  1  0  0  0
 61145  1  0  0  0
 62146  1  0  0  0
 62147  1  0  0  0
 62148  1  0  0  0
 63 65  1  0  0  0
 63149  1  0  0  0
 63150  1  0  0  0
 63151  1  0  0  0
 64152  1  0  0  0
 65153  1  0  0  0
 68 89  1  0  0  0
 71 72  2  0  0  0
 71 76  1  0  0  0
 71154  1  0  0  0
 72 73  1  0  0  0
 72 74  1  0  0  0
 73 75  2  0  0  0
 73 78  1  0  0  0
 74 77  2  0  0  0
 74 93  1  0  0  0
 75 79  1  0  0  0
 75 93  1  0  0  0
 76 89  1  0  0  0
 76 92  2  0  0  0
 77 88  1  0  0  0
 77 92  1  0  0  0
 78 80  1  0  0  0
 78155  1  0  0  0
 78156  1  0  0  0
 79 81  1  0  0  0
 79157  1  0  0  0
 79158  1  0  0  0
 80 81  1  0  0  0
 80159  1  0  0  0
 80160  1  0  0  0
 81161  1  0  0  0
 81162  1  0  0  0
 82 83  1  0  0  0
 82 84  1  0  0  0
 82163  1  0  0  0
 82164  1  0  0  0
 83 85  1  0  0  0
 83165  1  0  0  0
 83166  1  0  0  0
 84 86  1  0  0  0
 84167  1  0  0  0
 84168  1  0  0  0
 85 87  1  0  0  0
 85169  1  0  0  0
 85170  1  0  0  0
 86 87  1  0  0  0
 86171  1  0  0  0
 86172  1  0  0  0
 87 90  1  0  0  0
 87173  1  0  0  0
 88 91  1  0  0  0
 88174  1  0  0  0
 88175  1  0  0  0
 89176  1  0  0  0
 89177  1  0  0  0
 90 93  1  0  0  0
 90178  1  0  0  0
 90179  1  0  0  0
 91 94  1  0  0  0
 91180  1  0  0  0
 91181  1  0  0  0
 94182  1  0  0  0
M  ISO  4   1 100  68 101  89 101  94 100
M  END
> <chiral flag>
0

> <version>
0

> <s_m_source_file>
/data/baiqing/PycharmProjects/Reinvent-master-3.2/result/LINK_invent/BTK/process_docking_weight1_custom_sum_contain_oxygen_bond_distance_aromatic_linkinvent_7_9_3/rearranged_h_0031.sdf

> <i_m_source_file_index>
80

> <r_mmod_Potential_Energy-OPLS-2005>
576.923706054688

> <r_mmod_Stretch_Energy-OPLS-2005>
340.742431640625

> <r_mmod_Bend_Energy-OPLS-2005>
310.005279541016

> <r_mmod_Torsional_Energy-OPLS-2005>
282.678192138672

> <r_mmod_Improper_Torsional_Energy-OPLS-2005>
6.96714305877686

> <r_mmod_Van_der_Waal_Energy-OPLS-2005>
131.544143676758

> <r_mmod_Electrostatic_Energy-OPLS-2005>
-507.60400390625

> <r_mmod_Solvation_Energy-OPLS-2005>
-229.208587646484

> <b_mmod_Minimization_Converged-OPLS-2005>
0

> <r_mmod_RMS_Derivative-OPLS-2005>
1.90662515163422

$$$$
80
                    3D
 Structure written by MMmdl.
162170  0  0  1  0            999 V2000
  -30.6403  -14.6517   20.5044 C   0  0  0  0  0  0
  -30.4311  -12.4069   19.4461 C   0  0  0  0  0  0
  -29.5010  -12.5017   18.2179 C   0  0  0  0  0  0
  -28.0264  -12.3370   18.6362 C   0  0  0  0  0  0
  -27.6465  -13.2210   19.8541 C   0  0  2  0  0  0
  -28.6932  -13.1058   20.9829 C   0  0  0  0  0  0
  -25.2537  -13.8181   20.5687 C   0  0  0  0  0  0
  -24.1816  -13.0438   20.9202 C   0  0  0  0  0  0
  -24.6393  -11.6913   20.8750 C   0  0  0  0  0  0
  -23.9068  -10.4293   21.0411 C   0  0  0  0  0  0
  -24.3620   -9.4207   21.9186 C   0  0  0  0  0  0
  -23.6295   -8.2244   22.0755 C   0  0  0  0  0  0
  -22.4277   -8.0283   21.3546 C   0  0  0  0  0  0
  -21.9914   -9.0257   20.4648 C   0  0  0  0  0  0
  -22.7243  -10.2135   20.3059 C   0  0  0  0  0  0
  -21.6852   -6.0737   22.5281 C   0  0  0  0  0  0
  -21.4013   -6.5640   23.8214 C   0  0  0  0  0  0
  -21.3659   -5.6794   24.9176 C   0  0  0  0  0  0
  -21.6044   -4.3056   24.7226 C   0  0  0  0  0  0
  -21.8819   -3.8148   23.4347 C   0  0  0  0  0  0
  -21.9192   -4.6965   22.3404 C   0  0  0  0  0  0
  -22.7839  -13.5227   21.1865 C   0  0  0  0  0  0
  -22.1661   -4.2152   21.0980 F   0  0  0  0  0  0
  -21.5629   -3.4539   25.7737 F   0  0  0  0  0  0
  -29.9996  -13.4449   20.4032 N   0  0  0  0  0  0
  -26.2959  -12.9368   20.3295 N   0  0  0  0  0  0
  -25.9319  -11.6519   20.5758 N   0  0  0  0  0  0
  -22.0485  -12.8215   22.0420 N   0  0  0  0  0  0
  -25.4235  -15.1905   20.4093 N   0  0  0  0  0  0
  -31.8236  -14.7724   20.1777 O   0  0  0  0  0  0
  -21.6640   -6.8881   21.4243 O   0  0  0  0  0  0
  -22.3523  -14.5533   20.6715 O   0  0  0  0  0  0
  -24.6248  -31.8598   23.2016 C   0  0  0  0  0  0
  -25.9097  -32.4780   23.8348 C   0  0  1  0  0  0
  -27.2276  -27.3280   20.1256 C   0  0  0  0  0  0
  -25.5915  -33.8579   24.2278 N   0  0  0  0  0  0
  -23.4197  -30.4805   21.5437 C   0  0  2  0  0  0
  -24.8694  -28.9292   20.1175 C   0  0  0  0  0  0
  -22.7473  -29.4618   22.4944 C   0  0  0  0  0  0
  -18.0286  -28.1382   22.8485 C   0  0  0  0  0  0
  -24.1490  -36.7295   23.2639 C   0  0  0  0  0  0
  -25.9585  -30.7923   21.3720 C   0  0  0  0  0  0
  -26.0363  -29.4166   20.7223 C   0  0  0  0  0  0
  -27.2228  -28.6256   20.7195 C   0  0  0  0  0  0
  -26.0442  -26.8810   19.5089 C   0  0  0  0  0  0
  -24.8730  -27.6644   19.5047 C   0  0  0  0  0  0
  -23.6364  -29.8092   20.1614 C   0  0  0  0  0  0
  -25.4114  -36.3084   24.0330 C   0  0  1  0  0  0
  -20.5884  -28.3685   23.1289 C   0  0  2  0  0  0
  -20.6775  -26.9410   22.5413 C   0  0  0  0  0  0
  -19.5751  -26.6381   21.5215 C   0  0  0  0  0  0
  -18.1928  -26.7925   22.1624 C   0  0  0  0  0  0
  -19.1538  -28.8851   23.2879 C   0  0  0  0  0  0
  -18.9462  -30.1453   23.8895 C   0  0  0  0  0  0
  -17.6461  -30.6584   24.0563 C   0  0  0  0  0  0
  -25.9049  -34.9453   23.5106 C   0  0  0  0  0  0
  -16.5353  -29.9082   23.6332 C   0  0  0  0  0  0
  -16.7273  -28.6501   23.0350 C   0  0  0  0  0  0
  -26.4487  -31.6588   25.0716 C   0  0  0  0  0  0
  -25.3722  -31.3722   26.1444 C   0  0  0  0  0  0
  -27.0335  -30.3016   24.6161 C   0  0  0  0  0  0
  -27.6046  -32.4324   25.7487 C   0  0  0  0  0  0
  -27.5579  -37.1800   24.8463 C   0  0  0  0  0  0
  -21.4187  -29.3038   22.3687 N   0  0  0  0  0  0
  -26.4295  -37.3777   23.9406 N   0  0  0  0  0  0
  -24.6862  -31.0612   22.0963 N   0  0  0  0  0  0
  -23.4198  -28.8169   23.3032 O   0  0  0  0  0  0
  -28.3315  -26.4734   20.0919 O   0  0  0  0  0  0
  -26.5620  -34.8920   22.4674 O   0  0  0  0  0  0
  -23.5413  -32.1390   23.7350 O   0  0  0  0  0  0
  -27.9034  -21.5851   21.6025 C   0  0  0  0  0  0
  -27.7397  -22.9946   21.6860 C   0  0  0  0  0  0
  -28.7730  -20.9438   20.6901 C   0  0  0  0  0  0
  -29.4749  -21.8232   19.8048 C   0  0  0  0  0  0
  -29.3673  -23.2651   19.9224 C   0  0  0  0  0  0
  -28.4789  -23.8935   20.8582 C   0  0  0  0  0  0
  -26.7562  -23.5080   22.7283 C   0  0  0  0  0  0
  -30.3400  -21.2146   18.7082 C   0  0  0  0  0  0
  -30.2433  -24.1507   19.0424 C   0  0  0  0  0  0
  -28.7792  -19.3527   20.7079 C   0  0  0  0  0  0
  -28.4205  -25.4598   21.1511 C   0  0  0  0  0  0
  -30.0544  -18.4510   20.4029 C   0  0  0  0  0  0
  -30.3394  -17.1217   21.2533 C   0  0  0  0  0  0
  -29.8789  -15.7512   20.8195 N   0  0  0  0  0  0
  -31.4714  -12.5310   19.1405 H   0  0  0  0  0  0
  -30.3683  -11.4184   19.9038 H   0  0  0  0  0  0
  -29.7675  -11.7413   17.4825 H   0  0  0  0  0  0
  -29.6375  -13.4655   17.7250 H   0  0  0  0  0  0
  -27.8711  -11.2859   18.8817 H   0  0  0  0  0  0
  -27.3678  -12.5513   17.7939 H   0  0  0  0  0  0
  -27.6563  -14.2512   19.4975 H   0  0  0  0  0  0
  -28.7122  -12.0948   21.3921 H   0  0  0  0  0  0
  -28.4413  -13.7638   21.8161 H   0  0  0  0  0  0
  -25.2766   -9.5681   22.4761 H   0  0  0  0  0  0
  -24.0005   -7.4633   22.7472 H   0  0  0  0  0  0
  -21.0847   -8.8778   19.8951 H   0  0  0  0  0  0
  -22.3706  -10.9676   19.6169 H   0  0  0  0  0  0
  -21.2006   -7.6148   23.9719 H   0  0  0  0  0  0
  -21.1481   -6.0522   25.9078 H   0  0  0  0  0  0
  -22.0597   -2.7611   23.2846 H   0  0  0  0  0  0
  -22.4103  -11.9872   22.4798 H   0  0  0  0  0  0
  -21.1106  -13.1240   22.2637 H   0  0  0  0  0  0
  -24.6538  -15.8425   20.5161 H   0  0  0  0  0  0
  -26.2675  -15.6302   20.0650 H   0  0  0  0  0  0
  -26.7163  -32.5462   23.1098 H   0  0  0  0  0  0
  -25.0066  -33.9724   25.0426 H   0  0  0  0  0  0
  -22.7133  -31.3000   21.3971 H   0  0  0  0  0  0
  -23.3750  -35.9628   23.3308 H   0  0  0  0  0  0
  -24.3576  -36.8912   22.2051 H   0  0  0  0  0  0
  -23.7247  -37.6500   23.6662 H   0  0  0  0  0  0
  -26.0857  -31.5529   20.6002 H   0  0  0  0  0  0
  -26.8402  -30.8468   21.9988 H   0  0  0  0  0  0
  -28.1230  -28.9966   21.1888 H   0  0  0  0  0  0
  -26.0270  -25.9073   19.0390 H   0  0  0  0  0  0
  -23.9782  -27.2832   19.0317 H   0  0  0  0  0  0
  -23.7552  -30.5823   19.4013 H   0  0  0  0  0  0
  -22.7572  -29.2362   19.8610 H   0  0  0  0  0  0
  -25.1294  -36.1937   25.0823 H   0  0  0  0  0  0
  -20.9972  -28.3259   24.1412 H   0  0  0  0  0  0
  -20.5685  -26.2292   23.3611 H   0  0  0  0  0  0
  -21.6642  -26.7446   22.1201 H   0  0  0  0  0  0
  -19.6917  -25.6293   21.1243 H   0  0  0  0  0  0
  -19.6690  -27.3195   20.6748 H   0  0  0  0  0  0
  -17.4200  -26.6677   21.4022 H   0  0  0  0  0  0
  -18.0323  -26.0067   22.9020 H   0  0  0  0  0  0
  -19.7938  -30.7264   24.2267 H   0  0  0  0  0  0
  -17.5018  -31.6266   24.5158 H   0  0  0  0  0  0
  -15.5352  -30.2980   23.7658 H   0  0  0  0  0  0
  -15.8676  -28.0819   22.7064 H   0  0  0  0  0  0
  -24.5897  -30.7075   25.7769 H   0  0  0  0  0  0
  -24.8911  -32.2886   26.4873 H   0  0  0  0  0  0
  -25.8041  -30.8896   27.0220 H   0  0  0  0  0  0
  -26.2907  -29.6761   24.1197 H   0  0  0  0  0  0
  -27.4055  -29.7274   25.4657 H   0  0  0  0  0  0
  -27.8765  -30.4311   23.9369 H   0  0  0  0  0  0
  -27.2660  -33.3626   26.2062 H   0  0  0  0  0  0
  -28.3858  -32.6882   25.0317 H   0  0  0  0  0  0
  -28.0712  -31.8451   26.5405 H   0  0  0  0  0  0
  -28.2597  -38.0096   24.7511 H   0  0  0  0  0  0
  -28.1075  -36.2628   24.6295 H   0  0  0  0  0  0
  -27.2294  -37.1454   25.8866 H   0  0  0  0  0  0
  -20.9371  -29.8757   21.6892 H   0  0  0  0  0  0
  -26.0178  -38.2853   24.1404 H   0  0  0  0  0  0
  -27.3216  -20.9628   22.2688 H   0  0  0  0  0  0
  -26.2332  -22.6929   23.2297 H   0  0  0  0  0  0
  -25.9969  -24.1385   22.2644 H   0  0  0  0  0  0
  -27.2709  -24.0838   23.4979 H   0  0  0  0  0  0
  -29.9116  -20.2820   18.3456 H   0  0  0  0  0  0
  -31.3467  -21.0163   19.0764 H   0  0  0  0  0  0
  -30.4148  -21.8574   17.8322 H   0  0  0  0  0  0
  -31.2398  -23.7259   18.9218 H   0  0  0  0  0  0
  -30.3962  -25.1422   19.4645 H   0  0  0  0  0  0
  -29.7949  -24.2686   18.0558 H   0  0  0  0  0  0
  -27.9737  -19.0244   20.0501 H   0  0  0  0  0  0
  -28.4447  -19.0660   21.7052 H   0  0  0  0  0  0
  -29.3440  -25.6833   21.6856 H   0  0  0  0  0  0
  -27.6448  -25.6864   21.8795 H   0  0  0  0  0  0
  -30.9092  -19.0964   20.6094 H   0  0  0  0  0  0
  -30.1245  -18.2334   19.3373 H   0  0  0  0  0  0
  -29.9707  -17.2759   22.2679 H   0  0  0  0  0  0
  -31.4221  -17.0585   21.3762 H   0  0  0  0  0  0
  -28.9000  -15.5546   20.9659 H   0  0  0  0  0  0
  1 25  1  0  0  0
  1 30  2  0  0  0
  1 84  1  0  0  0
  2  3  1  0  0  0
  2 25  1  0  0  0
  2 85  1  0  0  0
  2 86  1  0  0  0
  3  4  1  0  0  0
  3 87  1  0  0  0
  3 88  1  0  0  0
  4  5  1  0  0  0
  4 89  1  0  0  0
  4 90  1  0  0  0
  5  6  1  0  0  0
  5 26  1  0  0  0
  5 91  1  0  0  0
  6 25  1  0  0  0
  6 92  1  0  0  0
  6 93  1  0  0  0
  7  8  2  0  0  0
  7 26  1  0  0  0
  7 29  1  0  0  0
  8  9  1  0  0  0
  8 22  1  0  0  0
  9 10  1  0  0  0
  9 27  2  0  0  0
 10 11  2  0  0  0
 10 15  1  0  0  0
 11 12  1  0  0  0
 11 94  1  0  0  0
 12 13  2  0  0  0
 12 95  1  0  0  0
 13 14  1  0  0  0
 13 31  1  0  0  0
 14 15  2  0  0  0
 14 96  1  0  0  0
 15 97  1  0  0  0
 16 17  2  0  0  0
 16 21  1  0  0  0
 16 31  1  0  0  0
 17 18  1  0  0  0
 17 98  1  0  0  0
 18 19  2  0  0  0
 18 99  1  0  0  0
 19 20  1  0  0  0
 19 24  1  0  0  0
 20 21  2  0  0  0
 20100  1  0  0  0
 21 23  1  0  0  0
 22 28  1  0  0  0
 22 32  2  0  0  0
 26 27  1  0  0  0
 28101  1  0  0  0
 28102  1  0  0  0
 29103  1  0  0  0
 29104  1  0  0  0
 33 34  1  0  0  0
 33 66  1  0  0  0
 33 70  2  0  0  0
 34 36  1  0  0  0
 34 59  1  0  0  0
 34105  1  0  0  0
 35 44  2  0  0  0
 35 45  1  0  0  0
 35 68  1  0  0  0
 36 56  1  0  0  0
 36106  1  0  0  0
 37 39  1  0  0  0
 37 47  1  0  0  0
 37 66  1  0  0  0
 37107  1  0  0  0
 38 43  2  0  0  0
 38 46  1  0  0  0
 38 47  1  0  0  0
 39 64  1  0  0  0
 39 67  2  0  0  0
 40 52  1  0  0  0
 40 53  2  0  0  0
 40 58  1  0  0  0
 41108  1  0  0  0
 41109  1  0  0  0
 41110  1  0  0  0
 41 48  1  0  0  0
 42 43  1  0  0  0
 42 66  1  0  0  0
 42111  1  0  0  0
 42112  1  0  0  0
 43 44  1  0  0  0
 44113  1  0  0  0
 45 46  2  0  0  0
 45114  1  0  0  0
 46115  1  0  0  0
 47116  1  0  0  0
 47117  1  0  0  0
 48 56  1  0  0  0
 48 65  1  0  0  0
 48118  1  0  0  0
 49 50  1  0  0  0
 49 53  1  0  0  0
 49 64  1  0  0  0
 49119  1  0  0  0
 50 51  1  0  0  0
 50120  1  0  0  0
 50121  1  0  0  0
 51 52  1  0  0  0
 51122  1  0  0  0
 51123  1  0  0  0
 52124  1  0  0  0
 52125  1  0  0  0
 53 54  1  0  0  0
 54 55  2  0  0  0
 54126  1  0  0  0
 55 57  1  0  0  0
 55127  1  0  0  0
 56 69  2  0  0  0
 57 58  2  0  0  0
 57128  1  0  0  0
 58129  1  0  0  0
 59 60  1  0  0  0
 59 61  1  0  0  0
 59 62  1  0  0  0
 60130  1  0  0  0
 60131  1  0  0  0
 60132  1  0  0  0
 61133  1  0  0  0
 61134  1  0  0  0
 61135  1  0  0  0
 62136  1  0  0  0
 62137  1  0  0  0
 62138  1  0  0  0
 63 65  1  0  0  0
 63139  1  0  0  0
 63140  1  0  0  0
 63141  1  0  0  0
 64142  1  0  0  0
 65143  1  0  0  0
 68 81  1  0  0  0
 71 72  2  0  0  0
 71 73  1  0  0  0
 71144  1  0  0  0
 72 76  1  0  0  0
 72 77  1  0  0  0
 73 74  2  0  0  0
 73 80  1  0  0  0
 74 75  1  0  0  0
 74 78  1  0  0  0
 75 76  2  0  0  0
 75 79  1  0  0  0
 76 81  1  0  0  0
 77145  1  0  0  0
 77146  1  0  0  0
 77147  1  0  0  0
 78148  1  0  0  0
 78149  1  0  0  0
 78150  1  0  0  0
 79151  1  0  0  0
 79152  1  0  0  0
 79153  1  0  0  0
 80 82  1  0  0  0
 80154  1  0  0  0
 80155  1  0  0  0
 81156  1  0  0  0
 81157  1  0  0  0
 82 83  1  0  0  0
 82158  1  0  0  0
 82159  1  0  0  0
 83 84  1  0  0  0
 83160  1  0  0  0
 83161  1  0  0  0
 84162  1  0  0  0
M  ISO  4   1 100  68 101  81 101  84 100
M  END
> <chiral flag>
0

> <version>
0

> <s_m_source_file>
/data/baiqing/PycharmProjects/Reinvent-master-3.2/result/LINK_invent/BTK/process_docking_weight1_custom_sum_contain_oxygen_bond_distance_aromatic_linkinvent_7_9_3/rearranged_h_0031.sdf

> <i_m_source_file_index>
81

> <r_mmod_Potential_Energy-OPLS-2005>
137.638549804688

> <r_mmod_Stretch_Energy-OPLS-2005>
90.0750961303711

> <r_mmod_Bend_Energy-OPLS-2005>
168.294479370117

> <r_mmod_Torsional_Energy-OPLS-2005>
259.569915771484

> <r_mmod_Improper_Torsional_Energy-OPLS-2005>
4.93631649017334

> <r_mmod_Van_der_Waal_Energy-OPLS-2005>
148.483383178711

> <r_mmod_Electrostatic_Energy-OPLS-2005>
-379.901824951172

> <r_mmod_Solvation_Energy-OPLS-2005>
-203.778625488281

> <b_mmod_Minimization_Converged-OPLS-2005>
0

> <r_mmod_RMS_Derivative-OPLS-2005>
0.463189482688904

$$$$
81
                    3D
 Structure written by MMmdl.
158166  0  0  1  0            999 V2000
  -30.7642  -14.3524   20.7076 C   0  0  0  0  0  0
  -30.4198  -12.3006   19.3741 C   0  0  0  0  0  0
  -29.4766  -12.5286   18.1780 C   0  0  0  0  0  0
  -28.0018  -12.3873   18.6005 C   0  0  0  0  0  0
  -27.6654  -13.1996   19.8783 C   0  0  2  0  0  0
  -28.7047  -12.9217   20.9840 C   0  0  0  0  0  0
  -25.2614  -13.8154   20.5668 C   0  0  0  0  0  0
  -24.1846  -13.0427   20.9149 C   0  0  0  0  0  0
  -24.6388  -11.6898   20.8717 C   0  0  0  0  0  0
  -23.9058  -10.4287   21.0403 C   0  0  0  0  0  0
  -24.3612   -9.4207   21.9175 C   0  0  0  0  0  0
  -23.6285   -8.2250   22.0758 C   0  0  0  0  0  0
  -22.4273   -8.0282   21.3549 C   0  0  0  0  0  0
  -21.9904   -9.0246   20.4652 C   0  0  0  0  0  0
  -22.7232  -10.2130   20.3049 C   0  0  0  0  0  0
  -21.6853   -6.0729   22.5277 C   0  0  0  0  0  0
  -21.4008   -6.5637   23.8204 C   0  0  0  0  0  0
  -21.3649   -5.6793   24.9169 C   0  0  0  0  0  0
  -21.6044   -4.3055   24.7230 C   0  0  0  0  0  0
  -21.8824   -3.8143   23.4351 C   0  0  0  0  0  0
  -21.9195   -4.6959   22.3405 C   0  0  0  0  0  0
  -22.7880  -13.5238   21.1823 C   0  0  0  0  0  0
  -22.1668   -4.2149   21.0982 F   0  0  0  0  0  0
  -21.5628   -3.4540   25.7743 F   0  0  0  0  0  0
  -30.0443  -13.2311   20.4490 N   0  0  0  0  0  0
  -26.3038  -12.9310   20.3373 N   0  0  0  0  0  0
  -25.9306  -11.6481   20.5749 N   0  0  0  0  0  0
  -22.0518  -12.8235   22.0383 N   0  0  0  0  0  0
  -25.4336  -15.1869   20.4091 N   0  0  0  0  0  0
  -31.7839  -14.6645   20.0840 O   0  0  0  0  0  0
  -21.6634   -6.8878   21.4243 O   0  0  0  0  0  0
  -22.3574  -14.5543   20.6676 O   0  0  0  0  0  0
  -24.6140  -31.8682   23.2114 C   0  0  0  0  0  0
  -25.9051  -32.4797   23.8396 C   0  0  1  0  0  0
  -27.2442  -27.4465   20.0737 C   0  0  0  0  0  0
  -25.5908  -33.8608   24.2314 N   0  0  0  0  0  0
  -23.4000  -30.4908   21.5554 C   0  0  2  0  0  0
  -24.8443  -28.9557   20.1185 C   0  0  0  0  0  0
  -22.7382  -29.4674   22.5042 C   0  0  0  0  0  0
  -18.0239  -28.1362   22.8513 C   0  0  0  0  0  0
  -24.1462  -36.7285   23.2607 C   0  0  0  0  0  0
  -25.9279  -30.8314   21.3646 C   0  0  0  0  0  0
  -26.0047  -29.4667   20.7122 C   0  0  0  0  0  0
  -27.2022  -28.7149   20.6966 C   0  0  0  0  0  0
  -26.0555  -26.9391   19.4957 C   0  0  0  0  0  0
  -24.8630  -27.6882   19.5120 C   0  0  0  0  0  0
  -23.6017  -29.8171   20.1725 C   0  0  0  0  0  0
  -25.4060  -36.3092   24.0334 C   0  0  1  0  0  0
  -20.5832  -28.3672   23.1322 C   0  0  2  0  0  0
  -20.6752  -26.9412   22.5430 C   0  0  0  0  0  0
  -19.5730  -26.6391   21.5224 C   0  0  0  0  0  0
  -18.1895  -26.7909   22.1614 C   0  0  0  0  0  0
  -19.1487  -28.8828   23.2906 C   0  0  0  0  0  0
  -18.9418  -30.1443   23.8903 C   0  0  0  0  0  0
  -17.6433  -30.6588   24.0577 C   0  0  0  0  0  0
  -25.9048  -34.9472   23.5133 C   0  0  0  0  0  0
  -16.5321  -29.9104   23.6339 C   0  0  0  0  0  0
  -16.7231  -28.6507   23.0371 C   0  0  0  0  0  0
  -26.4474  -31.6577   25.0726 C   0  0  0  0  0  0
  -25.3718  -31.3687   26.1464 C   0  0  0  0  0  0
  -27.0333  -30.3010   24.6147 C   0  0  0  0  0  0
  -27.6056  -32.4311   25.7461 C   0  0  0  0  0  0
  -27.5618  -37.1663   24.8358 C   0  0  0  0  0  0
  -21.4121  -29.3038   22.3737 N   0  0  0  0  0  0
  -26.4179  -37.3855   23.9545 N   0  0  0  0  0  0
  -24.6647  -31.0778   22.1011 N   0  0  0  0  0  0
  -23.4147  -28.8222   23.3093 O   0  0  0  0  0  0
  -28.4388  -26.7500   20.0576 O   0  0  0  0  0  0
  -26.5633  -34.8946   22.4706 O   0  0  0  0  0  0
  -23.5344  -32.1463   23.7524 O   0  0  0  0  0  0
  -28.7576  -20.0733   20.5768 C   0  0  0  0  0  0
  -30.6123  -20.6835   22.0163 C   0  0  0  0  0  0
  -29.6996  -19.7102   21.5604 C   0  0  0  0  0  0
  -29.5841  -22.3941   20.5673 C   0  0  0  0  0  0
  -28.6909  -21.3949   20.0866 C   0  0  0  0  0  0
  -30.5647  -22.0051   21.5181 C   0  0  0  0  0  0
  -29.7127  -18.2962   22.1379 C   0  0  0  0  0  0
  -30.9915  -17.5075   21.7939 C   0  0  0  0  0  0
  -31.0869  -16.1127   22.4497 C   0  0  0  0  0  0
  -28.4349  -24.3335   19.4035 C   0  0  0  0  0  0
  -28.6782  -25.8070   19.0030 C   0  0  0  0  0  0
  -29.5524  -23.7490   20.1523 N   0  0  0  0  0  0
  -30.3336  -15.0665   21.7582 N   0  0  0  0  0  0
  -27.7501  -21.6774   19.1528 F   0  0  0  0  0  0
  -31.7250  -23.1510   22.1025 Cl  0  0  0  0  0  0
  -31.4569  -12.4232   19.0564 H   0  0  0  0  0  0
  -30.3412  -11.2723   19.7302 H   0  0  0  0  0  0
  -29.7028  -11.8212   17.3782 H   0  0  0  0  0  0
  -29.6434  -13.5233   17.7616 H   0  0  0  0  0  0
  -27.8021  -11.3279   18.7704 H   0  0  0  0  0  0
  -27.3467  -12.6918   17.7827 H   0  0  0  0  0  0
  -27.7301  -14.2564   19.6171 H   0  0  0  0  0  0
  -28.6741  -11.8690   21.2696 H   0  0  0  0  0  0
  -28.4485  -13.4717   21.8896 H   0  0  0  0  0  0
  -25.2761   -9.5684   22.4737 H   0  0  0  0  0  0
  -23.9995   -7.4649   22.7481 H   0  0  0  0  0  0
  -21.0842   -8.8765   19.8955 H   0  0  0  0  0  0
  -22.3694  -10.9663   19.6155 H   0  0  0  0  0  0
  -21.1994   -7.6146   23.9713 H   0  0  0  0  0  0
  -21.1463   -6.0520   25.9071 H   0  0  0  0  0  0
  -22.0611   -2.7613   23.2855 H   0  0  0  0  0  0
  -22.4134  -11.9887   22.4755 H   0  0  0  0  0  0
  -21.1133  -13.1278   22.2595 H   0  0  0  0  0  0
  -24.6701  -15.8453   20.5199 H   0  0  0  0  0  0
  -26.2961  -15.6258   20.1109 H   0  0  0  0  0  0
  -26.7120  -32.5512   23.1158 H   0  0  0  0  0  0
  -25.0018  -33.9754   25.0426 H   0  0  0  0  0  0
  -22.6889  -31.3079   21.4199 H   0  0  0  0  0  0
  -23.3803  -35.9525   23.3054 H   0  0  0  0  0  0
  -24.3624  -36.9149   22.2077 H   0  0  0  0  0  0
  -23.7109  -37.6364   23.6778 H   0  0  0  0  0  0
  -26.0373  -31.5952   20.5945 H   0  0  0  0  0  0
  -26.8181  -30.8852   21.9806 H   0  0  0  0  0  0
  -28.1032  -29.1145   21.1398 H   0  0  0  0  0  0
  -26.0331  -25.9612   19.0370 H   0  0  0  0  0  0
  -23.9671  -27.2827   19.0633 H   0  0  0  0  0  0
  -23.6928  -30.5876   19.4063 H   0  0  0  0  0  0
  -22.7272  -29.2265   19.8932 H   0  0  0  0  0  0
  -25.1194  -36.1864   25.0805 H   0  0  0  0  0  0
  -20.9882  -28.3272   24.1461 H   0  0  0  0  0  0
  -20.5672  -26.2297   23.3638 H   0  0  0  0  0  0
  -21.6629  -26.7499   22.1214 H   0  0  0  0  0  0
  -19.6921  -25.6311   21.1241 H   0  0  0  0  0  0
  -19.6652  -27.3210   20.6756 H   0  0  0  0  0  0
  -17.4190  -26.6662   21.3994 H   0  0  0  0  0  0
  -18.0268  -26.0032   22.8967 H   0  0  0  0  0  0
  -19.7898  -30.7252   24.2263 H   0  0  0  0  0  0
  -17.4999  -31.6255   24.5197 H   0  0  0  0  0  0
  -15.5323  -30.3020   23.7691 H   0  0  0  0  0  0
  -15.8604  -28.0857   22.7093 H   0  0  0  0  0  0
  -24.5920  -30.7015   25.7794 H   0  0  0  0  0  0
  -24.8851  -32.2835   26.4856 H   0  0  0  0  0  0
  -25.8053  -30.8900   27.0251 H   0  0  0  0  0  0
  -26.2916  -29.6702   24.1255 H   0  0  0  0  0  0
  -27.4156  -29.7325   25.4632 H   0  0  0  0  0  0
  -27.8707  -30.4319   23.9295 H   0  0  0  0  0  0
  -27.2708  -33.3651   26.1988 H   0  0  0  0  0  0
  -28.3858  -32.6809   25.0253 H   0  0  0  0  0  0
  -28.0722  -31.8464   26.5402 H   0  0  0  0  0  0
  -28.2264  -38.0299   24.8067 H   0  0  0  0  0  0
  -28.1488  -36.2969   24.5360 H   0  0  0  0  0  0
  -27.2477  -37.0282   25.8715 H   0  0  0  0  0  0
  -20.9301  -29.8748   21.6928 H   0  0  0  0  0  0
  -26.0022  -38.2811   24.1977 H   0  0  0  0  0  0
  -28.0623  -19.3361   20.2023 H   0  0  0  0  0  0
  -31.3524  -20.4243   22.7592 H   0  0  0  0  0  0
  -28.8328  -17.7463   21.7972 H   0  0  0  0  0  0
  -29.6148  -18.3794   23.2222 H   0  0  0  0  0  0
  -31.8486  -18.0835   22.1430 H   0  0  0  0  0  0
  -31.1057  -17.4275   20.7118 H   0  0  0  0  0  0
  -30.7443  -16.1578   23.4847 H   0  0  0  0  0  0
  -32.1330  -15.8066   22.5024 H   0  0  0  0  0  0
  -28.3213  -23.7796   18.4706 H   0  0  0  0  0  0
  -27.4991  -24.2272   19.9561 H   0  0  0  0  0  0
  -28.0824  -26.0521   18.1223 H   0  0  0  0  0  0
  -29.7075  -25.9227   18.6656 H   0  0  0  0  0  0
  -30.1693  -24.3865   20.6479 H   0  0  0  0  0  0
  -29.4983  -14.7215   22.2110 H   0  0  0  0  0  0
  1 25  1  0  0  0
  1 30  2  0  0  0
  1 83  1  0  0  0
  2  3  1  0  0  0
  2 25  1  0  0  0
  2 86  1  0  0  0
  2 87  1  0  0  0
  3  4  1  0  0  0
  3 88  1  0  0  0
  3 89  1  0  0  0
  4  5  1  0  0  0
  4 90  1  0  0  0
  4 91  1  0  0  0
  5  6  1  0  0  0
  5 26  1  0  0  0
  5 92  1  0  0  0
  6 25  1  0  0  0
  6 93  1  0  0  0
  6 94  1  0  0  0
  7  8  2  0  0  0
  7 26  1  0  0  0
  7 29  1  0  0  0
  8  9  1  0  0  0
  8 22  1  0  0  0
  9 10  1  0  0  0
  9 27  2  0  0  0
 10 11  2  0  0  0
 10 15  1  0  0  0
 11 12  1  0  0  0
 11 95  1  0  0  0
 12 13  2  0  0  0
 12 96  1  0  0  0
 13 14  1  0  0  0
 13 31  1  0  0  0
 14 15  2  0  0  0
 14 97  1  0  0  0
 15 98  1  0  0  0
 16 17  2  0  0  0
 16 21  1  0  0  0
 16 31  1  0  0  0
 17 18  1  0  0  0
 17 99  1  0  0  0
 18 19  2  0  0  0
 18100  1  0  0  0
 19 20  1  0  0  0
 19 24  1  0  0  0
 20 21  2  0  0  0
 20101  1  0  0  0
 21 23  1  0  0  0
 22 28  1  0  0  0
 22 32  2  0  0  0
 26 27  1  0  0  0
 28102  1  0  0  0
 28103  1  0  0  0
 29104  1  0  0  0
 29105  1  0  0  0
 33 34  1  0  0  0
 33 66  1  0  0  0
 33 70  2  0  0  0
 34 36  1  0  0  0
 34 59  1  0  0  0
 34106  1  0  0  0
 35 44  2  0  0  0
 35 45  1  0  0  0
 35 68  1  0  0  0
 36 56  1  0  0  0
 36107  1  0  0  0
 37 39  1  0  0  0
 37 47  1  0  0  0
 37 66  1  0  0  0
 37108  1  0  0  0
 38 43  2  0  0  0
 38 46  1  0  0  0
 38 47  1  0  0  0
 39 64  1  0  0  0
 39 67  2  0  0  0
 40 52  1  0  0  0
 40 53  2  0  0  0
 40 58  1  0  0  0
 41109  1  0  0  0
 41110  1  0  0  0
 41111  1  0  0  0
 41 48  1  0  0  0
 42 43  1  0  0  0
 42 66  1  0  0  0
 42112  1  0  0  0
 42113  1  0  0  0
 43 44  1  0  0  0
 44114  1  0  0  0
 45 46  2  0  0  0
 45115  1  0  0  0
 46116  1  0  0  0
 47117  1  0  0  0
 47118  1  0  0  0
 48 56  1  0  0  0
 48 65  1  0  0  0
 48119  1  0  0  0
 49 50  1  0  0  0
 49 53  1  0  0  0
 49 64  1  0  0  0
 49120  1  0  0  0
 50 51  1  0  0  0
 50121  1  0  0  0
 50122  1  0  0  0
 51 52  1  0  0  0
 51123  1  0  0  0
 51124  1  0  0  0
 52125  1  0  0  0
 52126  1  0  0  0
 53 54  1  0  0  0
 54 55  2  0  0  0
 54127  1  0  0  0
 55 57  1  0  0  0
 55128  1  0  0  0
 56 69  2  0  0  0
 57 58  2  0  0  0
 57129  1  0  0  0
 58130  1  0  0  0
 59 60  1  0  0  0
 59 61  1  0  0  0
 59 62  1  0  0  0
 60131  1  0  0  0
 60132  1  0  0  0
 60133  1  0  0  0
 61134  1  0  0  0
 61135  1  0  0  0
 61136  1  0  0  0
 62137  1  0  0  0
 62138  1  0  0  0
 62139  1  0  0  0
 63 65  1  0  0  0
 63140  1  0  0  0
 63141  1  0  0  0
 63142  1  0  0  0
 64143  1  0  0  0
 65144  1  0  0  0
 68 81  1  0  0  0
 71 73  2  0  0  0
 71 75  1  0  0  0
 71145  1  0  0  0
 72 73  1  0  0  0
 72 76  2  0  0  0
 72146  1  0  0  0
 73 77  1  0  0  0
 74 75  2  0  0  0
 74 76  1  0  0  0
 74 82  1  0  0  0
 75 84  1  0  0  0
 76 85  1  0  0  0
 77 78  1  0  0  0
 77147  1  0  0  0
 77148  1  0  0  0
 78 79  1  0  0  0
 78149  1  0  0  0
 78150  1  0  0  0
 79 83  1  0  0  0
 79151  1  0  0  0
 79152  1  0  0  0
 80 81  1  0  0  0
 80 82  1  0  0  0
 80153  1  0  0  0
 80154  1  0  0  0
 81155  1  0  0  0
 81156  1  0  0  0
 82157  1  0  0  0
 83158  1  0  0  0
M  ISO  4   1 100  68 101  81 101  83 100
M  END
> <chiral flag>
0

> <version>
0

> <s_m_source_file>
/data/baiqing/PycharmProjects/Reinvent-master-3.2/result/LINK_invent/BTK/process_docking_weight1_custom_sum_contain_oxygen_bond_distance_aromatic_linkinvent_7_9_3/rearranged_h_0031.sdf

> <i_m_source_file_index>
82

> <r_mmod_Potential_Energy-OPLS-2005>
-16.9693126678467

> <r_mmod_Stretch_Energy-OPLS-2005>
36.3401069641113

> <r_mmod_Bend_Energy-OPLS-2005>
107.549156188965

> <r_mmod_Torsional_Energy-OPLS-2005>
199.128326416016

> <r_mmod_Improper_Torsional_Energy-OPLS-2005>
3.36245274543762

> <r_mmod_Van_der_Waal_Energy-OPLS-2005>
158.026031494141

> <r_mmod_Electrostatic_Energy-OPLS-2005>
-317.737915039062

> <r_mmod_Solvation_Energy-OPLS-2005>
-211.990142822266

> <b_mmod_Minimization_Converged-OPLS-2005>
0

> <r_mmod_RMS_Derivative-OPLS-2005>
3.28040933609009

$$$$
82
                    3D
 Structure written by MMmdl.
165174  0  0  1  0            999 V2000
  -30.7474  -14.4024   20.6030 C   0  0  0  0  0  0
  -30.4081  -12.2731   19.4053 C   0  0  0  0  0  0
  -29.4830  -12.5144   18.1964 C   0  0  0  0  0  0
  -28.0046  -12.3885   18.6088 C   0  0  0  0  0  0
  -27.6640  -13.2137   19.8785 C   0  0  2  0  0  0
  -28.7097  -12.9847   20.9938 C   0  0  0  0  0  0
  -25.2590  -13.8184   20.5716 C   0  0  0  0  0  0
  -24.1853  -13.0447   20.9195 C   0  0  0  0  0  0
  -24.6404  -11.6918   20.8739 C   0  0  0  0  0  0
  -23.9077  -10.4307   21.0402 C   0  0  0  0  0  0
  -24.3619   -9.4215   21.9182 C   0  0  0  0  0  0
  -23.6296   -8.2252   22.0755 C   0  0  0  0  0  0
  -22.4278   -8.0291   21.3541 C   0  0  0  0  0  0
  -21.9913   -9.0266   20.4641 C   0  0  0  0  0  0
  -22.7244  -10.2147   20.3054 C   0  0  0  0  0  0
  -21.6849   -6.0745   22.5283 C   0  0  0  0  0  0
  -21.4012   -6.5651   23.8221 C   0  0  0  0  0  0
  -21.3655   -5.6803   24.9183 C   0  0  0  0  0  0
  -21.6044   -4.3068   24.7227 C   0  0  0  0  0  0
  -21.8819   -3.8156   23.4351 C   0  0  0  0  0  0
  -21.9191   -4.6972   22.3404 C   0  0  0  0  0  0
  -22.7867  -13.5221   21.1858 C   0  0  0  0  0  0
  -22.1663   -4.2165   21.0979 F   0  0  0  0  0  0
  -21.5627   -3.4545   25.7738 F   0  0  0  0  0  0
  -30.0441  -13.2525   20.4400 N   0  0  0  0  0  0
  -26.3055  -12.9379   20.3426 N   0  0  0  0  0  0
  -25.9342  -11.6523   20.5774 N   0  0  0  0  0  0
  -22.0506  -12.8216   22.0409 N   0  0  0  0  0  0
  -25.4301  -15.1912   20.4138 N   0  0  0  0  0  0
  -31.8476  -14.5669   20.0664 O   0  0  0  0  0  0
  -21.6632   -6.8889   21.4247 O   0  0  0  0  0  0
  -22.3543  -14.5527   20.6694 O   0  0  0  0  0  0
  -24.6121  -31.8730   23.2156 C   0  0  0  0  0  0
  -25.9046  -32.4828   23.8427 C   0  0  1  0  0  0
  -27.2200  -27.4580   20.0775 C   0  0  0  0  0  0
  -25.5950  -33.8629   24.2357 N   0  0  0  0  0  0
  -23.3921  -30.5003   21.5573 C   0  0  2  0  0  0
  -24.8276  -28.9634   20.1214 C   0  0  0  0  0  0
  -22.7374  -29.4715   22.5046 C   0  0  0  0  0  0
  -18.0275  -28.1362   22.8512 C   0  0  0  0  0  0
  -24.1476  -36.7288   23.2627 C   0  0  0  0  0  0
  -25.9202  -30.8370   21.3688 C   0  0  0  0  0  0
  -25.9889  -29.4769   20.7089 C   0  0  0  0  0  0
  -27.1835  -28.7285   20.6887 C   0  0  0  0  0  0
  -26.0254  -26.9306   19.5301 C   0  0  0  0  0  0
  -24.8362  -27.6822   19.5423 C   0  0  0  0  0  0
  -23.5931  -29.8336   20.1713 C   0  0  0  0  0  0
  -25.4099  -36.3102   24.0336 C   0  0  1  0  0  0
  -20.5863  -28.3679   23.1338 C   0  0  2  0  0  0
  -20.6779  -26.9437   22.5406 C   0  0  0  0  0  0
  -19.5750  -26.6400   21.5206 C   0  0  0  0  0  0
  -18.1920  -26.7926   22.1618 C   0  0  0  0  0  0
  -19.1522  -28.8830   23.2916 C   0  0  0  0  0  0
  -18.9453  -30.1436   23.8925 C   0  0  0  0  0  0
  -17.6462  -30.6589   24.0569 C   0  0  0  0  0  0
  -25.9044  -34.9473   23.5130 C   0  0  0  0  0  0
  -16.5358  -29.9091   23.6333 C   0  0  0  0  0  0
  -16.7263  -28.6484   23.0380 C   0  0  0  0  0  0
  -26.4497  -31.6626   25.0759 C   0  0  0  0  0  0
  -25.3786  -31.3674   26.1519 C   0  0  0  0  0  0
  -27.0366  -30.3074   24.6155 C   0  0  0  0  0  0
  -27.6057  -32.4372   25.7531 C   0  0  0  0  0  0
  -27.5591  -37.1783   24.8455 C   0  0  0  0  0  0
  -21.4117  -29.3053   22.3747 N   0  0  0  0  0  0
  -26.4273  -37.3810   23.9430 N   0  0  0  0  0  0
  -24.6585  -31.0856   22.1039 N   0  0  0  0  0  0
  -23.4167  -28.8265   23.3074 O   0  0  0  0  0  0
  -28.4334  -26.8092   20.0588 O   0  0  0  0  0  0
  -26.5613  -34.8936   22.4700 O   0  0  0  0  0  0
  -23.5329  -32.1487   23.7572 O   0  0  0  0  0  0
  -29.9274  -19.1227   21.0307 C   0  0  0  0  0  0
  -29.5789  -20.3225   21.6618 C   0  0  0  0  0  0
  -30.4301  -18.0992   21.8398 C   0  0  0  0  0  0
  -30.1546  -19.4166   23.6837 C   0  0  0  0  0  0
  -30.4436  -22.5073   20.7294 C   0  0  0  0  0  0
  -27.9624  -22.3014   21.2578 C   0  0  0  0  0  0
  -30.1463  -23.6699   19.7734 C   0  0  0  0  0  0
  -27.6715  -23.4858   20.3104 C   0  0  0  0  0  0
  -29.2402  -21.5514   20.8255 C   0  0  2  0  0  0
  -28.8843  -24.4398   20.2037 C   0  0  2  0  0  0
  -30.3443  -19.5935   25.1735 C   0  0  0  0  0  0
  -31.0198  -16.8467   21.2327 C   0  0  0  0  0  0
  -30.1378  -15.5878   21.3686 C   0  0  0  0  0  0
  -28.6325  -25.6409   19.2695 C   0  0  0  0  0  0
  -29.7035  -20.4631   22.9970 N   0  0  0  0  0  0
  -30.5209  -18.2439   23.1733 N   0  0  0  0  0  0
  -31.4536  -12.3442   19.1019 H   0  0  0  0  0  0
  -30.2795  -11.2594   19.7906 H   0  0  0  0  0  0
  -29.7085  -11.8068   17.3977 H   0  0  0  0  0  0
  -29.6684  -13.5082   17.7870 H   0  0  0  0  0  0
  -27.7936  -11.3338   18.7809 H   0  0  0  0  0  0
  -27.3614  -12.6972   17.7835 H   0  0  0  0  0  0
  -27.7108  -14.2648   19.5942 H   0  0  0  0  0  0
  -28.6675  -11.9530   21.3462 H   0  0  0  0  0  0
  -28.4885  -13.6032   21.8638 H   0  0  0  0  0  0
  -25.2760   -9.5702   22.4764 H   0  0  0  0  0  0
  -24.0010   -7.4644   22.7470 H   0  0  0  0  0  0
  -21.0853   -8.8782   19.8941 H   0  0  0  0  0  0
  -22.3697  -10.9690   19.6172 H   0  0  0  0  0  0
  -21.2003   -7.6158   23.9725 H   0  0  0  0  0  0
  -21.1481   -6.0534   25.9087 H   0  0  0  0  0  0
  -22.0602   -2.7624   23.2846 H   0  0  0  0  0  0
  -22.4101  -11.9870   22.4797 H   0  0  0  0  0  0
  -21.1124  -13.1254   22.2606 H   0  0  0  0  0  0
  -24.6645  -15.8489   20.5164 H   0  0  0  0  0  0
  -26.2907  -15.6317   20.1143 H   0  0  0  0  0  0
  -26.7124  -32.5523   23.1187 H   0  0  0  0  0  0
  -25.0152  -33.9799   25.0541 H   0  0  0  0  0  0
  -22.6781  -31.3163   21.4253 H   0  0  0  0  0  0
  -23.3780  -35.9581   23.3230 H   0  0  0  0  0  0
  -24.3574  -36.8953   22.2054 H   0  0  0  0  0  0
  -23.7184  -37.6445   23.6708 H   0  0  0  0  0  0
  -26.0514  -31.6115   20.6127 H   0  0  0  0  0  0
  -26.8002  -30.8702   21.9992 H   0  0  0  0  0  0
  -28.0830  -29.1277   21.1365 H   0  0  0  0  0  0
  -25.9662  -25.9406   19.1067 H   0  0  0  0  0  0
  -23.9304  -27.2614   19.1235 H   0  0  0  0  0  0
  -23.7025  -30.6101   19.4137 H   0  0  0  0  0  0
  -22.7125  -29.2579   19.8812 H   0  0  0  0  0  0
  -25.1254  -36.1950   25.0824 H   0  0  0  0  0  0
  -20.9955  -28.3274   24.1462 H   0  0  0  0  0  0
  -20.5712  -26.2293   23.3576 H   0  0  0  0  0  0
  -21.6659  -26.7517   22.1181 H   0  0  0  0  0  0
  -19.6916  -25.6308   21.1240 H   0  0  0  0  0  0
  -19.6669  -27.3207   20.6727 H   0  0  0  0  0  0
  -17.4194  -26.6686   21.4012 H   0  0  0  0  0  0
  -18.0308  -26.0045   22.8975 H   0  0  0  0  0  0
  -19.7928  -30.7224   24.2333 H   0  0  0  0  0  0
  -17.5028  -31.6276   24.5167 H   0  0  0  0  0  0
  -15.5358  -30.3003   23.7636 H   0  0  0  0  0  0
  -15.8654  -28.0790   22.7144 H   0  0  0  0  0  0
  -24.5974  -30.7016   25.7841 H   0  0  0  0  0  0
  -24.8984  -32.2796   26.5074 H   0  0  0  0  0  0
  -25.8176  -30.8780   27.0225 H   0  0  0  0  0  0
  -26.2918  -29.6789   24.1262 H   0  0  0  0  0  0
  -27.4175  -29.7373   25.4643 H   0  0  0  0  0  0
  -27.8751  -30.4373   23.9299 H   0  0  0  0  0  0
  -27.2673  -33.3671   26.2131 H   0  0  0  0  0  0
  -28.3886  -32.6937   25.0377 H   0  0  0  0  0  0
  -28.0747  -31.8505   26.5439 H   0  0  0  0  0  0
  -28.2540  -38.0157   24.7686 H   0  0  0  0  0  0
  -28.1163  -36.2709   24.6074 H   0  0  0  0  0  0
  -27.2340  -37.1192   25.8858 H   0  0  0  0  0  0
  -20.9279  -29.8710   21.6918 H   0  0  0  0  0  0
  -26.0137  -38.2855   24.1548 H   0  0  0  0  0  0
  -29.8904  -19.0269   19.9524 H   0  0  0  0  0  0
  -30.6967  -22.8893   21.7207 H   0  0  0  0  0  0
  -31.3201  -21.9641   20.3755 H   0  0  0  0  0  0
  -27.1148  -21.6149   21.2700 H   0  0  0  0  0  0
  -28.0749  -22.6690   22.2785 H   0  0  0  0  0  0
  -30.0241  -23.2897   18.7590 H   0  0  0  0  0  0
  -31.0045  -24.3443   19.7473 H   0  0  0  0  0  0
  -26.7935  -24.0326   20.6545 H   0  0  0  0  0  0
  -27.4208  -23.0994   19.3215 H   0  0  0  0  0  0
  -29.0467  -21.1821   19.8180 H   0  0  0  0  0  0
  -29.0851  -24.8277   21.2031 H   0  0  0  0  0  0
  -29.8673  -20.5051   25.5351 H   0  0  0  0  0  0
  -31.4077  -19.6554   25.4059 H   0  0  0  0  0  0
  -29.9237  -18.7520   25.7232 H   0  0  0  0  0  0
  -31.9918  -16.6695   21.6950 H   0  0  0  0  0  0
  -31.2241  -17.0551   20.1808 H   0  0  0  0  0  0
  -29.1522  -15.8004   20.9553 H   0  0  0  0  0  0
  -30.0072  -15.3334   22.4203 H   0  0  0  0  0  0
  -27.8755  -25.4308   18.5157 H   0  0  0  0  0  0
  -29.5294  -25.8474   18.6837 H   0  0  0  0  0  0
  1 25  1  0  0  0
  1 30  2  0  0  0
  1 83  1  0  0  0
  2  3  1  0  0  0
  2 25  1  0  0  0
  2 87  1  0  0  0
  2 88  1  0  0  0
  3  4  1  0  0  0
  3 89  1  0  0  0
  3 90  1  0  0  0
  4  5  1  0  0  0
  4 91  1  0  0  0
  4 92  1  0  0  0
  5  6  1  0  0  0
  5 26  1  0  0  0
  5 93  1  0  0  0
  6 25  1  0  0  0
  6 94  1  0  0  0
  6 95  1  0  0  0
  7  8  2  0  0  0
  7 26  1  0  0  0
  7 29  1  0  0  0
  8  9  1  0  0  0
  8 22  1  0  0  0
  9 10  1  0  0  0
  9 27  2  0  0  0
 10 11  2  0  0  0
 10 15  1  0  0  0
 11 12  1  0  0  0
 11 96  1  0  0  0
 12 13  2  0  0  0
 12 97  1  0  0  0
 13 14  1  0  0  0
 13 31  1  0  0  0
 14 15  2  0  0  0
 14 98  1  0  0  0
 15 99  1  0  0  0
 16 17  2  0  0  0
 16 21  1  0  0  0
 16 31  1  0  0  0
 17 18  1  0  0  0
 17100  1  0  0  0
 18 19  2  0  0  0
 18101  1  0  0  0
 19 20  1  0  0  0
 19 24  1  0  0  0
 20 21  2  0  0  0
 20102  1  0  0  0
 21 23  1  0  0  0
 22 28  1  0  0  0
 22 32  2  0  0  0
 26 27  1  0  0  0
 28103  1  0  0  0
 28104  1  0  0  0
 29105  1  0  0  0
 29106  1  0  0  0
 33 34  1  0  0  0
 33 66  1  0  0  0
 33 70  2  0  0  0
 34 36  1  0  0  0
 34 59  1  0  0  0
 34107  1  0  0  0
 35 44  2  0  0  0
 35 45  1  0  0  0
 35 68  1  0  0  0
 36 56  1  0  0  0
 36108  1  0  0  0
 37 39  1  0  0  0
 37 47  1  0  0  0
 37 66  1  0  0  0
 37109  1  0  0  0
 38 43  2  0  0  0
 38 46  1  0  0  0
 38 47  1  0  0  0
 39 64  1  0  0  0
 39 67  2  0  0  0
 40 52  1  0  0  0
 40 53  2  0  0  0
 40 58  1  0  0  0
 41110  1  0  0  0
 41111  1  0  0  0
 41112  1  0  0  0
 41 48  1  0  0  0
 42 43  1  0  0  0
 42 66  1  0  0  0
 42113  1  0  0  0
 42114  1  0  0  0
 43 44  1  0  0  0
 44115  1  0  0  0
 45 46  2  0  0  0
 45116  1  0  0  0
 46117  1  0  0  0
 47118  1  0  0  0
 47119  1  0  0  0
 48 56  1  0  0  0
 48 65  1  0  0  0
 48120  1  0  0  0
 49 50  1  0  0  0
 49 53  1  0  0  0
 49 64  1  0  0  0
 49121  1  0  0  0
 50 51  1  0  0  0
 50122  1  0  0  0
 50123  1  0  0  0
 51 52  1  0  0  0
 51124  1  0  0  0
 51125  1  0  0  0
 52126  1  0  0  0
 52127  1  0  0  0
 53 54  1  0  0  0
 54 55  2  0  0  0
 54128  1  0  0  0
 55 57  1  0  0  0
 55129  1  0  0  0
 56 69  2  0  0  0
 57 58  2  0  0  0
 57130  1  0  0  0
 58131  1  0  0  0
 59 60  1  0  0  0
 59 61  1  0  0  0
 59 62  1  0  0  0
 60132  1  0  0  0
 60133  1  0  0  0
 60134  1  0  0  0
 61135  1  0  0  0
 61136  1  0  0  0
 61137  1  0  0  0
 62138  1  0  0  0
 62139  1  0  0  0
 62140  1  0  0  0
 63 65  1  0  0  0
 63141  1  0  0  0
 63142  1  0  0  0
 63143  1  0  0  0
 64144  1  0  0  0
 65145  1  0  0  0
 68 84  1  0  0  0
 71 72  2  0  0  0
 71 73  1  0  0  0
 71146  1  0  0  0
 72 85  1  0  0  0
 72 79  1  0  0  0
 73 82  1  0  0  0
 73 86  2  0  0  0
 74 81  1  0  0  0
 74 85  2  0  0  0
 74 86  1  0  0  0
 75 77  1  0  0  0
 75 79  1  0  0  0
 75147  1  0  0  0
 75148  1  0  0  0
 76 78  1  0  0  0
 76 79  1  0  0  0
 76149  1  0  0  0
 76150  1  0  0  0
 77 80  1  0  0  0
 77151  1  0  0  0
 77152  1  0  0  0
 78 80  1  0  0  0
 78153  1  0  0  0
 78154  1  0  0  0
 79155  1  0  0  0
 80 84  1  0  0  0
 80156  1  0  0  0
 81157  1  0  0  0
 81158  1  0  0  0
 81159  1  0  0  0
 82 83  1  0  0  0
 82160  1  0  0  0
 82161  1  0  0  0
 83162  1  0  0  0
 83163  1  0  0  0
 84164  1  0  0  0
 84165  1  0  0  0
M  ISO  4   1 100  68 101  83 100  84 101
M  END
> <chiral flag>
0

> <version>
0

> <s_m_source_file>
/data/baiqing/PycharmProjects/Reinvent-master-3.2/result/LINK_invent/BTK/process_docking_weight1_custom_sum_contain_oxygen_bond_distance_aromatic_linkinvent_7_9_3/rearranged_h_0031.sdf

> <i_m_source_file_index>
83

> <r_mmod_Potential_Energy-OPLS-2005>
-533.176208496094

> <r_mmod_Stretch_Energy-OPLS-2005>
31.1575756072998

> <r_mmod_Bend_Energy-OPLS-2005>
106.843635559082

> <r_mmod_Torsional_Energy-OPLS-2005>
176.472381591797

> <r_mmod_Improper_Torsional_Energy-OPLS-2005>
3.77498316764832

> <r_mmod_Van_der_Waal_Energy-OPLS-2005>
169.949783325195

> <r_mmod_Electrostatic_Energy-OPLS-2005>
-820.653869628906

> <r_mmod_Solvation_Energy-OPLS-2005>
-211.675201416016

> <b_mmod_Minimization_Converged-OPLS-2005>
0

> <r_mmod_RMS_Derivative-OPLS-2005>
3.06503844261169

$$$$
83
                    3D
 Structure written by MMmdl.
149157  0  0  1  0            999 V2000
  -30.5859  -14.8614   20.4322 C   0  0  0  0  0  0
  -30.4293  -12.5295   19.4963 C   0  0  0  0  0  0
  -29.5154  -12.5141   18.2507 C   0  0  0  0  0  0
  -28.0449  -12.3186   18.6649 C   0  0  0  0  0  0
  -27.6308  -13.2444   19.8401 C   0  0  2  0  0  0
  -28.6719  -13.2478   20.9796 C   0  0  0  0  0  0
  -25.2458  -13.8216   20.5707 C   0  0  0  0  0  0
  -24.1774  -13.0440   20.9228 C   0  0  0  0  0  0
  -24.6387  -11.6924   20.8756 C   0  0  0  0  0  0
  -23.9076  -10.4290   21.0407 C   0  0  0  0  0  0
  -24.3625   -9.4204   21.9183 C   0  0  0  0  0  0
  -23.6299   -8.2239   22.0754 C   0  0  0  0  0  0
  -22.4278   -8.0281   21.3547 C   0  0  0  0  0  0
  -21.9914   -9.0255   20.4649 C   0  0  0  0  0  0
  -22.7246  -10.2133   20.3058 C   0  0  0  0  0  0
  -21.6852   -6.0738   22.5281 C   0  0  0  0  0  0
  -21.4016   -6.5640   23.8214 C   0  0  0  0  0  0
  -21.3659   -5.6792   24.9177 C   0  0  0  0  0  0
  -21.6041   -4.3056   24.7227 C   0  0  0  0  0  0
  -21.8818   -3.8148   23.4347 C   0  0  0  0  0  0
  -21.9190   -4.6964   22.3405 C   0  0  0  0  0  0
  -22.7792  -13.5209   21.1880 C   0  0  0  0  0  0
  -22.1658   -4.2150   21.0981 F   0  0  0  0  0  0
  -21.5625   -3.4539   25.7741 F   0  0  0  0  0  0
  -29.9583  -13.6255   20.3856 N   0  0  0  0  0  0
  -26.2882  -12.9445   20.3247 N   0  0  0  0  0  0
  -25.9318  -11.6576   20.5745 N   0  0  0  0  0  0
  -22.0439  -12.8205   22.0439 N   0  0  0  0  0  0
  -25.4116  -15.1945   20.4128 N   0  0  0  0  0  0
  -31.7865  -14.9075   20.1485 O   0  0  0  0  0  0
  -21.6641   -6.8880   21.4242 O   0  0  0  0  0  0
  -22.3473  -14.5506   20.6714 O   0  0  0  0  0  0
  -24.6390  -31.8474   23.1914 C   0  0  0  0  0  0
  -25.9183  -32.4713   23.8286 C   0  0  1  0  0  0
  -27.2148  -27.1797   20.1457 C   0  0  0  0  0  0
  -25.5945  -33.8518   24.2206 N   0  0  0  0  0  0
  -23.4397  -30.4682   21.5363 C   0  0  2  0  0  0
  -24.8876  -28.9011   20.1092 C   0  0  0  0  0  0
  -22.7542  -29.4563   22.4875 C   0  0  0  0  0  0
  -18.0299  -28.1393   22.8476 C   0  0  0  0  0  0
  -24.1491  -36.7265   23.2640 C   0  0  0  0  0  0
  -25.9918  -30.7357   21.3822 C   0  0  0  0  0  0
  -26.0629  -29.3510   20.7239 C   0  0  0  0  0  0
  -27.2287  -28.5054   20.7250 C   0  0  0  0  0  0
  -26.0154  -26.8186   19.4940 C   0  0  0  0  0  0
  -24.8741  -27.6473   19.4795 C   0  0  0  0  0  0
  -23.6625  -29.7985   20.1543 C   0  0  0  0  0  0
  -25.4120  -36.3042   24.0316 C   0  0  1  0  0  0
  -20.5908  -28.3711   23.1244 C   0  0  2  0  0  0
  -20.6783  -26.9419   22.5404 C   0  0  0  0  0  0
  -19.5760  -26.6380   21.5209 C   0  0  0  0  0  0
  -18.1941  -26.7929   22.1623 C   0  0  0  0  0  0
  -19.1554  -28.8871   23.2851 C   0  0  0  0  0  0
  -18.9473  -30.1468   23.8875 C   0  0  0  0  0  0
  -17.6470  -30.6589   24.0560 C   0  0  0  0  0  0
  -25.9067  -34.9417   23.5067 C   0  0  0  0  0  0
  -16.5361  -29.9084   23.6336 C   0  0  0  0  0  0
  -16.7284  -28.6504   23.0352 C   0  0  0  0  0  0
  -26.4522  -31.6570   25.0713 C   0  0  0  0  0  0
  -25.3717  -31.3747   26.1415 C   0  0  0  0  0  0
  -27.0387  -30.2975   24.6264 C   0  0  0  0  0  0
  -27.6055  -32.4330   25.7499 C   0  0  0  0  0  0
  -27.5574  -37.1787   24.8464 C   0  0  0  0  0  0
  -21.4240  -29.3043   22.3623 N   0  0  0  0  0  0
  -26.4286  -37.3751   23.9407 N   0  0  0  0  0  0
  -24.7099  -31.0370   22.0924 N   0  0  0  0  0  0
  -23.4206  -28.8106   23.3004 O   0  0  0  0  0  0
  -28.2826  -26.2290   20.2217 O   0  0  0  0  0  0
  -26.5651  -34.8909   22.4645 O   0  0  0  0  0  0
  -23.5521  -32.1330   23.7164 O   0  0  0  0  0  0
  -28.8673  -21.0706   21.5729 C   0  0  0  0  0  0
  -29.7485  -19.9073   19.3000 C   0  0  0  0  0  0
  -29.6637  -18.9858   20.3968 C   0  0  0  0  0  0
  -29.1665  -19.6548   21.5582 C   0  0  0  0  0  0
  -29.0500  -21.9241   20.4402 C   0  0  0  0  0  0
  -30.3906  -17.5111   20.3493 C   0  0  0  0  0  0
  -29.1360  -23.5607   20.5369 C   0  0  0  0  0  0
  -28.0369  -24.7117   20.0769 C   0  0  0  0  0  0
  -29.4717  -21.2700   19.3128 N   0  0  0  0  0  0
  -29.8538  -16.0617   20.5699 N   0  0  0  0  0  0
  -29.0229  -18.7692   23.0335 Cl  0  0  0  0  0  0
  -31.4690  -12.6598   19.1924 H   0  0  0  0  0  0
  -30.3918  -11.5715   20.0171 H   0  0  0  0  0  0
  -29.8213  -11.7214   17.5666 H   0  0  0  0  0  0
  -29.6233  -13.4517   17.7027 H   0  0  0  0  0  0
  -27.9240  -11.2754   18.9590 H   0  0  0  0  0  0
  -27.3857  -12.4699   17.8093 H   0  0  0  0  0  0
  -27.6036  -14.2521   19.4248 H   0  0  0  0  0  0
  -28.7346  -12.2702   21.4592 H   0  0  0  0  0  0
  -28.3871  -13.9578   21.7577 H   0  0  0  0  0  0
  -25.2767   -9.5680   22.4764 H   0  0  0  0  0  0
  -24.0005   -7.4629   22.7475 H   0  0  0  0  0  0
  -21.0844   -8.8779   19.8958 H   0  0  0  0  0  0
  -22.3703  -10.9676   19.6172 H   0  0  0  0  0  0
  -21.2012   -7.6149   23.9720 H   0  0  0  0  0  0
  -21.1481   -6.0522   25.9078 H   0  0  0  0  0  0
  -22.0597   -2.7611   23.2848 H   0  0  0  0  0  0
  -22.4062  -11.9881   22.4848 H   0  0  0  0  0  0
  -21.1052  -13.1225   22.2632 H   0  0  0  0  0  0
  -24.6405  -15.8443   20.5225 H   0  0  0  0  0  0
  -26.2530  -15.6369   20.0664 H   0  0  0  0  0  0
  -26.7245  -32.5333   23.1015 H   0  0  0  0  0  0
  -25.0073  -33.9639   25.0341 H   0  0  0  0  0  0
  -22.7402  -31.2929   21.3852 H   0  0  0  0  0  0
  -23.3754  -35.9596   23.3293 H   0  0  0  0  0  0
  -24.3573  -36.8906   22.2056 H   0  0  0  0  0  0
  -23.7250  -37.6460   23.6682 H   0  0  0  0  0  0
  -26.1403  -31.4919   20.6102 H   0  0  0  0  0  0
  -26.8651  -30.7856   22.0210 H   0  0  0  0  0  0
  -28.1257  -28.8434   21.2246 H   0  0  0  0  0  0
  -25.9296  -25.8586   19.0074 H   0  0  0  0  0  0
  -23.9755  -27.2989   18.9890 H   0  0  0  0  0  0
  -23.7955  -30.5735   19.3986 H   0  0  0  0  0  0
  -22.7783  -29.2379   19.8456 H   0  0  0  0  0  0
  -25.1309  -36.1869   25.0808 H   0  0  0  0  0  0
  -20.9999  -28.3297   24.1365 H   0  0  0  0  0  0
  -20.5675  -26.2323   23.3618 H   0  0  0  0  0  0
  -21.6652  -26.7429   22.1205 H   0  0  0  0  0  0
  -19.6920  -25.6284   21.1254 H   0  0  0  0  0  0
  -19.6698  -27.3178   20.6729 H   0  0  0  0  0  0
  -17.4208  -26.6668   21.4029 H   0  0  0  0  0  0
  -18.0346  -26.0078   22.9030 H   0  0  0  0  0  0
  -19.7949  -30.7291   24.2232 H   0  0  0  0  0  0
  -17.5024  -31.6267   24.5165 H   0  0  0  0  0  0
  -15.5361  -30.2979   23.7672 H   0  0  0  0  0  0
  -15.8684  -28.0819   22.7074 H   0  0  0  0  0  0
  -24.5901  -30.7089   25.7738 H   0  0  0  0  0  0
  -24.8900  -32.2925   26.4796 H   0  0  0  0  0  0
  -25.8008  -30.8952   27.0222 H   0  0  0  0  0  0
  -26.2998  -29.6698   24.1269 H   0  0  0  0  0  0
  -27.4018  -29.7269   25.4823 H   0  0  0  0  0  0
  -27.8896  -30.4227   23.9564 H   0  0  0  0  0  0
  -27.2651  -33.3644   26.2036 H   0  0  0  0  0  0
  -28.3892  -32.6868   25.0349 H   0  0  0  0  0  0
  -28.0696  -31.8483   26.5452 H   0  0  0  0  0  0
  -28.2585  -38.0090   24.7509 H   0  0  0  0  0  0
  -28.1078  -36.2619   24.6294 H   0  0  0  0  0  0
  -27.2289  -37.1439   25.8866 H   0  0  0  0  0  0
  -20.9440  -29.8761   21.6815 H   0  0  0  0  0  0
  -26.0153  -38.2818   24.1413 H   0  0  0  0  0  0
  -28.5788  -21.5181   22.5137 H   0  0  0  0  0  0
  -30.1550  -19.5531   18.3645 H   0  0  0  0  0  0
  -31.2193  -17.6042   21.0531 H   0  0  0  0  0  0
  -30.8811  -17.4727   19.3757 H   0  0  0  0  0  0
  -30.0608  -23.8154   20.0199 H   0  0  0  0  0  0
  -29.3560  -23.7661   21.5842 H   0  0  0  0  0  0
  -27.1160  -24.4871   20.6159 H   0  0  0  0  0  0
  -27.8139  -24.5312   19.0250 H   0  0  0  0  0  0
  -28.8691  -15.9630   20.7630 H   0  0  0  0  0  0
  1 25  1  0  0  0
  1 30  2  0  0  0
  1 80  1  0  0  0
  2  3  1  0  0  0
  2 25  1  0  0  0
  2 82  1  0  0  0
  2 83  1  0  0  0
  3  4  1  0  0  0
  3 84  1  0  0  0
  3 85  1  0  0  0
  4  5  1  0  0  0
  4 86  1  0  0  0
  4 87  1  0  0  0
  5  6  1  0  0  0
  5 26  1  0  0  0
  5 88  1  0  0  0
  6 25  1  0  0  0
  6 89  1  0  0  0
  6 90  1  0  0  0
  7  8  2  0  0  0
  7 26  1  0  0  0
  7 29  1  0  0  0
  8  9  1  0  0  0
  8 22  1  0  0  0
  9 10  1  0  0  0
  9 27  2  0  0  0
 10 11  2  0  0  0
 10 15  1  0  0  0
 11 12  1  0  0  0
 11 91  1  0  0  0
 12 13  2  0  0  0
 12 92  1  0  0  0
 13 14  1  0  0  0
 13 31  1  0  0  0
 14 15  2  0  0  0
 14 93  1  0  0  0
 15 94  1  0  0  0
 16 17  2  0  0  0
 16 21  1  0  0  0
 16 31  1  0  0  0
 17 18  1  0  0  0
 17 95  1  0  0  0
 18 19  2  0  0  0
 18 96  1  0  0  0
 19 20  1  0  0  0
 19 24  1  0  0  0
 20 21  2  0  0  0
 20 97  1  0  0  0
 21 23  1  0  0  0
 22 28  1  0  0  0
 22 32  2  0  0  0
 26 27  1  0  0  0
 28 98  1  0  0  0
 28 99  1  0  0  0
 29100  1  0  0  0
 29101  1  0  0  0
 33 34  1  0  0  0
 33 66  1  0  0  0
 33 70  2  0  0  0
 34 36  1  0  0  0
 34 59  1  0  0  0
 34102  1  0  0  0
 35 44  2  0  0  0
 35 45  1  0  0  0
 35 68  1  0  0  0
 36 56  1  0  0  0
 36103  1  0  0  0
 37 39  1  0  0  0
 37 47  1  0  0  0
 37 66  1  0  0  0
 37104  1  0  0  0
 38 43  2  0  0  0
 38 46  1  0  0  0
 38 47  1  0  0  0
 39 64  1  0  0  0
 39 67  2  0  0  0
 40 52  1  0  0  0
 40 53  2  0  0  0
 40 58  1  0  0  0
 41105  1  0  0  0
 41106  1  0  0  0
 41107  1  0  0  0
 41 48  1  0  0  0
 42 43  1  0  0  0
 42 66  1  0  0  0
 42108  1  0  0  0
 42109  1  0  0  0
 43 44  1  0  0  0
 44110  1  0  0  0
 45 46  2  0  0  0
 45111  1  0  0  0
 46112  1  0  0  0
 47113  1  0  0  0
 47114  1  0  0  0
 48 56  1  0  0  0
 48 65  1  0  0  0
 48115  1  0  0  0
 49 50  1  0  0  0
 49 53  1  0  0  0
 49 64  1  0  0  0
 49116  1  0  0  0
 50 51  1  0  0  0
 50117  1  0  0  0
 50118  1  0  0  0
 51 52  1  0  0  0
 51119  1  0  0  0
 51120  1  0  0  0
 52121  1  0  0  0
 52122  1  0  0  0
 53 54  1  0  0  0
 54 55  2  0  0  0
 54123  1  0  0  0
 55 57  1  0  0  0
 55124  1  0  0  0
 56 69  2  0  0  0
 57 58  2  0  0  0
 57125  1  0  0  0
 58126  1  0  0  0
 59 60  1  0  0  0
 59 61  1  0  0  0
 59 62  1  0  0  0
 60127  1  0  0  0
 60128  1  0  0  0
 60129  1  0  0  0
 61130  1  0  0  0
 61131  1  0  0  0
 61132  1  0  0  0
 62133  1  0  0  0
 62134  1  0  0  0
 62135  1  0  0  0
 63 65  1  0  0  0
 63136  1  0  0  0
 63137  1  0  0  0
 63138  1  0  0  0
 64139  1  0  0  0
 65140  1  0  0  0
 68 78  1  0  0  0
 71 74  2  0  0  0
 71 75  1  0  0  0
 71141  1  0  0  0
 72 73  2  0  0  0
 72 79  1  0  0  0
 72142  1  0  0  0
 73 74  1  0  0  0
 73 76  1  0  0  0
 74 81  1  0  0  0
 75 77  1  0  0  0
 75 79  2  0  0  0
 76 80  1  0  0  0
 76143  1  0  0  0
 76144  1  0  0  0
 77 78  1  0  0  0
 77145  1  0  0  0
 77146  1  0  0  0
 78147  1  0  0  0
 78148  1  0  0  0
 80149  1  0  0  0
M  ISO  4   1 100  68 101  78 101  80 100
M  END
> <chiral flag>
0

> <version>
0

> <s_m_source_file>
/data/baiqing/PycharmProjects/Reinvent-master-3.2/result/LINK_invent/BTK/process_docking_weight1_custom_sum_contain_oxygen_bond_distance_aromatic_linkinvent_7_9_3/rearranged_h_0031.sdf

> <i_m_source_file_index>
84

> <r_mmod_Potential_Energy-OPLS-2005>
209.553009033203

> <r_mmod_Stretch_Energy-OPLS-2005>
190.166839599609

> <r_mmod_Bend_Energy-OPLS-2005>
238.791351318359

> <r_mmod_Torsional_Energy-OPLS-2005>
213.733413696289

> <r_mmod_Improper_Torsional_Energy-OPLS-2005>
9.84205722808838

> <r_mmod_Van_der_Waal_Energy-OPLS-2005>
134.647720336914

> <r_mmod_Electrostatic_Energy-OPLS-2005>
-502.175048828125

> <r_mmod_Solvation_Energy-OPLS-2005>
-220.882308959961

> <b_mmod_Minimization_Converged-OPLS-2005>
0

> <r_mmod_RMS_Derivative-OPLS-2005>
0.640609860420227

$$$$
84
                    3D
 Structure written by MMmdl.
183192  0  0  1  0            999 V2000
  -30.8513  -14.5567   20.3689 C   0  0  0  0  0  0
  -30.3734  -12.3544   19.4084 C   0  0  0  0  0  0
  -29.5012  -12.5027   18.1492 C   0  0  0  0  0  0
  -27.9915  -12.5492   18.4847 C   0  0  0  0  0  0
  -27.6961  -12.7992   19.9832 C   0  0  2  0  0  0
  -28.7475  -13.3101   20.9862 C   0  0  0  0  0  0
  -25.2981  -13.7373   20.5819 C   0  0  0  0  0  0
  -24.1732  -13.0322   20.9202 C   0  0  0  0  0  0
  -24.5659  -11.6631   20.8946 C   0  0  0  0  0  0
  -23.8338  -10.4242   21.0680 C   0  0  0  0  0  0
  -24.3267   -9.4086   21.9142 C   0  0  0  0  0  0
  -23.6133   -8.2043   22.0595 C   0  0  0  0  0  0
  -22.4019   -8.0159   21.3519 C   0  0  0  0  0  0
  -21.9394   -9.0210   20.4837 C   0  0  0  0  0  0
  -22.6547  -10.2160   20.3366 C   0  0  0  0  0  0
  -21.6814   -6.0667   22.5229 C   0  0  0  0  0  0
  -21.4006   -6.5640   23.8166 C   0  0  0  0  0  0
  -21.3660   -5.6779   24.9141 C   0  0  0  0  0  0
  -21.6056   -4.3048   24.7226 C   0  0  0  0  0  0
  -21.8899   -3.8120   23.4353 C   0  0  0  0  0  0
  -21.9246   -4.6898   22.3400 C   0  0  0  0  0  0
  -22.7885  -13.5574   21.1800 C   0  0  0  0  0  0
  -22.1749   -4.2105   21.0967 F   0  0  0  0  0  0
  -21.5502   -3.4524   25.7753 F   0  0  0  0  0  0
  -30.0158  -13.4932   20.2760 N   0  0  0  0  0  0
  -26.2980  -12.7867   20.3832 N   0  0  0  0  0  0
  -25.8317  -11.5472   20.5980 N   0  0  0  0  0  0
  -22.0294  -12.8776   22.0323 N   0  0  0  0  0  0
  -25.5544  -15.0847   20.4192 N   0  0  0  0  0  0
  -32.0666  -14.3775   20.3651 O   0  0  0  0  0  0
  -21.6569   -6.8684   21.4135 O   0  0  0  0  0  0
  -22.3881  -14.5963   20.6583 O   0  0  0  0  0  0
  -24.6115  -31.8726   23.2175 C   0  0  0  0  0  0
  -25.9047  -32.4844   23.8426 C   0  0  1  0  0  0
  -27.2320  -27.4768   20.0896 C   0  0  0  0  0  0
  -25.5905  -33.8642   24.2346 N   0  0  0  0  0  0
  -23.3952  -30.5032   21.5546 C   0  0  2  0  0  0
  -24.8410  -28.9788   20.1238 C   0  0  0  0  0  0
  -22.7398  -29.4681   22.4982 C   0  0  0  0  0  0
  -18.0290  -28.1378   22.8516 C   0  0  0  0  0  0
  -24.1501  -36.7333   23.2637 C   0  0  0  0  0  0
  -25.9251  -30.8524   21.3679 C   0  0  0  0  0  0
  -26.0021  -29.4941   20.7091 C   0  0  0  0  0  0
  -27.2001  -28.7525   20.6867 C   0  0  0  0  0  0
  -26.0336  -26.9583   19.5362 C   0  0  0  0  0  0
  -24.8469  -27.7040   19.5450 C   0  0  0  0  0  0
  -23.6067  -29.8430   20.1683 C   0  0  0  0  0  0
  -25.4118  -36.3129   24.0345 C   0  0  1  0  0  0
  -20.5882  -28.3661   23.1334 C   0  0  2  0  0  0
  -20.6789  -26.9396   22.5424 C   0  0  0  0  0  0
  -19.5750  -26.6384   21.5242 C   0  0  0  0  0  0
  -18.1934  -26.7928   22.1651 C   0  0  0  0  0  0
  -19.1538  -28.8839   23.2924 C   0  0  0  0  0  0
  -18.9457  -30.1455   23.8918 C   0  0  0  0  0  0
  -17.6450  -30.6584   24.0579 C   0  0  0  0  0  0
  -25.9034  -34.9491   23.5132 C   0  0  0  0  0  0
  -16.5346  -29.9092   23.6314 C   0  0  0  0  0  0
  -16.7274  -28.6509   23.0340 C   0  0  0  0  0  0
  -26.4492  -31.6620   25.0741 C   0  0  0  0  0  0
  -25.3774  -31.3751   26.1500 C   0  0  0  0  0  0
  -27.0279  -30.3034   24.6137 C   0  0  0  0  0  0
  -27.6061  -32.4345   25.7496 C   0  0  0  0  0  0
  -27.5598  -37.1815   24.8457 C   0  0  0  0  0  0
  -21.4124  -29.3040   22.3731 N   0  0  0  0  0  0
  -26.4314  -37.3799   23.9400 N   0  0  0  0  0  0
  -24.6609  -31.0901   22.1038 N   0  0  0  0  0  0
  -23.4199  -28.8236   23.3004 O   0  0  0  0  0  0
  -28.4356  -26.8033   20.0758 O   0  0  0  0  0  0
  -26.5582  -34.8928   22.4683 O   0  0  0  0  0  0
  -23.5315  -32.1450   23.7602 O   0  0  0  0  0  0
  -26.6304  -21.9706   18.8638 C   0  0  0  0  0  0
  -25.6063  -20.8138   20.7283 C   0  0  0  0  0  0
  -26.5154  -21.7705   20.2540 C   0  0  0  0  0  0
  -25.6667  -21.3954   18.0252 C   0  0  0  0  0  0
  -24.8964  -20.0760   19.7533 C   0  0  0  0  0  0
  -27.7572  -22.7615   18.2501 C   0  0  0  0  0  0
  -25.5652  -21.8360   16.5697 C   0  0  0  0  0  0
  -25.3564  -23.3725   16.4678 C   0  0  0  0  0  0
  -26.6242  -24.2603   16.6453 C   0  0  0  0  0  0
  -25.5551  -20.5133   22.2293 C   0  0  0  0  0  0
  -31.4765  -16.7551   19.4871 C   0  0  0  0  0  0
  -24.8186  -18.5710   19.8818 C   0  0  0  0  0  0
  -26.2195  -18.0124   19.5539 C   0  0  0  0  0  0
  -26.3645  -17.3390   18.1771 C   0  0  0  0  0  0
  -27.8223  -17.3107   17.6973 C   0  0  0  0  0  0
  -28.6819  -16.1772   18.2841 C   0  0  0  0  0  0
  -29.0995  -16.3584   19.7551 C   0  0  0  0  0  0
  -28.3289  -25.1375   18.2695 C   0  0  0  0  0  0
  -28.4213  -25.4120   19.7870 C   0  0  0  0  0  0
  -24.7916  -20.4777   18.4683 N   0  0  0  0  0  0
  -30.4434  -15.8004   19.9616 N   0  0  0  0  0  0
  -27.2814  -24.1254   17.9755 N   0  3  2  0  0  0
  -27.5234  -22.6099   21.3766 Cl  0  0  0  0  0  0
  -31.4275  -12.3410   19.1280 H   0  0  0  0  0  0
  -30.1950  -11.4013   19.9110 H   0  0  0  0  0  0
  -29.7142  -11.7053   17.4355 H   0  0  0  0  0  0
  -29.7866  -13.4259   17.6385 H   0  0  0  0  0  0
  -27.5633  -11.5840   18.2094 H   0  0  0  0  0  0
  -27.4629  -13.2497   17.8369 H   0  0  0  0  0  0
  -27.9785  -11.7718   20.2137 H   0  0  0  0  0  0
  -28.9047  -12.5881   21.7928 H   0  0  0  0  0  0
  -28.4251  -14.2028   21.5215 H   0  0  0  0  0  0
  -25.2641   -9.5590   22.4382 H   0  0  0  0  0  0
  -24.0200   -7.4325   22.7030 H   0  0  0  0  0  0
  -21.0346   -8.8728   19.9147 H   0  0  0  0  0  0
  -22.2946  -10.9808   19.6626 H   0  0  0  0  0  0
  -21.1992   -7.6144   23.9691 H   0  0  0  0  0  0
  -21.1359   -6.0485   25.9033 H   0  0  0  0  0  0
  -22.0650   -2.7568   23.2869 H   0  0  0  0  0  0
  -22.3658  -12.0324   22.4714 H   0  0  0  0  0  0
  -21.1104  -13.2189   22.2792 H   0  0  0  0  0  0
  -24.8362  -15.7952   20.4476 H   0  0  0  0  0  0
  -26.4173  -15.4054   20.0049 H   0  0  0  0  0  0
  -26.7108  -32.5568   23.1176 H   0  0  0  0  0  0
  -25.0082  -33.9800   25.0512 H   0  0  0  0  0  0
  -22.6802  -31.3192   21.4185 H   0  0  0  0  0  0
  -23.3754  -35.9670   23.3311 H   0  0  0  0  0  0
  -24.3601  -36.8934   22.2047 H   0  0  0  0  0  0
  -23.7274  -37.6554   23.6636 H   0  0  0  0  0  0
  -26.0478  -31.6295   20.6125 H   0  0  0  0  0  0
  -26.8073  -30.8898   21.9954 H   0  0  0  0  0  0
  -28.1016  -29.1538   21.1289 H   0  0  0  0  0  0
  -25.9648  -25.9815   19.0966 H   0  0  0  0  0  0
  -23.9458  -27.2919   19.1151 H   0  0  0  0  0  0
  -23.7215  -30.6176   19.4094 H   0  0  0  0  0  0
  -22.7301  -29.2692   19.8654 H   0  0  0  0  0  0
  -25.1293  -36.1983   25.0839 H   0  0  0  0  0  0
  -20.9986  -28.3232   24.1454 H   0  0  0  0  0  0
  -20.5751  -26.2250   23.3610 H   0  0  0  0  0  0
  -21.6651  -26.7482   22.1172 H   0  0  0  0  0  0
  -19.6902  -25.6306   21.1261 H   0  0  0  0  0  0
  -19.6688  -27.3213   20.6793 H   0  0  0  0  0  0
  -17.4209  -26.6713   21.4049 H   0  0  0  0  0  0
  -18.0304  -26.0060   22.9026 H   0  0  0  0  0  0
  -19.7923  -30.7293   24.2277 H   0  0  0  0  0  0
  -17.4997  -31.6264   24.5185 H   0  0  0  0  0  0
  -15.5344  -30.2996   23.7636 H   0  0  0  0  0  0
  -15.8677  -28.0851   22.7008 H   0  0  0  0  0  0
  -24.5876  -30.7182   25.7844 H   0  0  0  0  0  0
  -24.9068  -32.2933   26.5016 H   0  0  0  0  0  0
  -25.8134  -30.8841   27.0205 H   0  0  0  0  0  0
  -26.2788  -29.6813   24.1213 H   0  0  0  0  0  0
  -27.4021  -29.7276   25.4616 H   0  0  0  0  0  0
  -27.8665  -30.4304   23.9285 H   0  0  0  0  0  0
  -27.2655  -33.3612   26.2120 H   0  0  0  0  0  0
  -28.3844  -32.6966   25.0322 H   0  0  0  0  0  0
  -28.0749  -31.8446   26.5376 H   0  0  0  0  0  0
  -28.2613  -38.0115   24.7493 H   0  0  0  0  0  0
  -28.1097  -36.2644   24.6279 H   0  0  0  0  0  0
  -27.2307  -37.1458   25.8859 H   0  0  0  0  0  0
  -20.9276  -29.8735   21.6941 H   0  0  0  0  0  0
  -26.0210  -38.2884   24.1374 H   0  0  0  0  0  0
  -28.1079  -22.2889   17.3298 H   0  0  0  0  0  0
  -28.6276  -22.7290   18.9042 H   0  0  0  0  0  0
  -24.7379  -21.3138   16.0891 H   0  0  0  0  0  0
  -26.4525  -21.5156   16.0201 H   0  0  0  0  0  0
  -24.5727  -23.6814   17.1622 H   0  0  0  0  0  0
  -24.9441  -23.5813   15.4805 H   0  0  0  0  0  0
  -26.3125  -25.3019   16.5251 H   0  0  0  0  0  0
  -27.3430  -24.0687   15.8476 H   0  0  0  0  0  0
  -25.0635  -21.3411   22.7440 H   0  0  0  0  0  0
  -26.5562  -20.4184   22.6520 H   0  0  0  0  0  0
  -25.0094  -19.6099   22.4922 H   0  0  0  0  0  0
  -32.0589  -16.3114   18.6759 H   0  0  0  0  0  0
  -32.1710  -17.0124   20.2886 H   0  0  0  0  0  0
  -31.0817  -17.6869   19.0851 H   0  0  0  0  0  0
  -24.0579  -18.1685   19.2151 H   0  0  0  0  0  0
  -24.5217  -18.2598   20.8787 H   0  0  0  0  0  0
  -26.5559  -17.3724   20.3618 H   0  0  0  0  0  0
  -26.9413  -18.8278   19.5857 H   0  0  0  0  0  0
  -25.7856  -17.9157   17.4579 H   0  0  0  0  0  0
  -25.9322  -16.3397   18.1550 H   0  0  0  0  0  0
  -28.2982  -18.2759   17.8860 H   0  0  0  0  0  0
  -27.8160  -17.2005   16.6114 H   0  0  0  0  0  0
  -29.5768  -16.1264   17.6586 H   0  0  0  0  0  0
  -28.1746  -15.2291   18.1546 H   0  0  0  0  0  0
  -28.3600  -15.9596   20.4430 H   0  0  0  0  0  0
  -29.1168  -17.4266   19.9858 H   0  0  0  0  0  0
  -29.2992  -24.8044   17.8967 H   0  0  0  0  0  0
  -28.1112  -26.0719   17.7517 H   0  0  0  0  0  0
  -29.3202  -24.9497   20.1987 H   0  0  0  0  0  0
  -27.5940  -24.9696   20.3361 H   0  0  0  0  0  0
  -26.5440  -24.3015   18.6423 H   0  0  0  0  0  0
  1 25  1  0  0  0
  1 30  2  0  0  0
  1 91  1  0  0  0
  2  3  1  0  0  0
  2 25  1  0  0  0
  2 94  1  0  0  0
  2 95  1  0  0  0
  3  4  1  0  0  0
  3 96  1  0  0  0
  3 97  1  0  0  0
  4  5  1  0  0  0
  4 98  1  0  0  0
  4 99  1  0  0  0
  5  6  1  0  0  0
  5 26  1  0  0  0
  5100  1  0  0  0
  6 25  1  0  0  0
  6101  1  0  0  0
  6102  1  0  0  0
  7  8  2  0  0  0
  7 26  1  0  0  0
  7 29  1  0  0  0
  8  9  1  0  0  0
  8 22  1  0  0  0
  9 10  1  0  0  0
  9 27  2  0  0  0
 10 11  2  0  0  0
 10 15  1  0  0  0
 11 12  1  0  0  0
 11103  1  0  0  0
 12 13  2  0  0  0
 12104  1  0  0  0
 13 14  1  0  0  0
 13 31  1  0  0  0
 14 15  2  0  0  0
 14105  1  0  0  0
 15106  1  0  0  0
 16 17  2  0  0  0
 16 21  1  0  0  0
 16 31  1  0  0  0
 17 18  1  0  0  0
 17107  1  0  0  0
 18 19  2  0  0  0
 18108  1  0  0  0
 19 20  1  0  0  0
 19 24  1  0  0  0
 20 21  2  0  0  0
 20109  1  0  0  0
 21 23  1  0  0  0
 22 28  1  0  0  0
 22 32  2  0  0  0
 26 27  1  0  0  0
 28110  1  0  0  0
 28111  1  0  0  0
 29112  1  0  0  0
 29113  1  0  0  0
 33 34  1  0  0  0
 33 66  1  0  0  0
 33 70  2  0  0  0
 34 36  1  0  0  0
 34 59  1  0  0  0
 34114  1  0  0  0
 35 44  2  0  0  0
 35 45  1  0  0  0
 35 68  1  0  0  0
 36 56  1  0  0  0
 36115  1  0  0  0
 37 39  1  0  0  0
 37 47  1  0  0  0
 37 66  1  0  0  0
 37116  1  0  0  0
 38 43  2  0  0  0
 38 46  1  0  0  0
 38 47  1  0  0  0
 39 64  1  0  0  0
 39 67  2  0  0  0
 40 52  1  0  0  0
 40 53  2  0  0  0
 40 58  1  0  0  0
 41117  1  0  0  0
 41118  1  0  0  0
 41119  1  0  0  0
 41 48  1  0  0  0
 42 43  1  0  0  0
 42 66  1  0  0  0
 42120  1  0  0  0
 42121  1  0  0  0
 43 44  1  0  0  0
 44122  1  0  0  0
 45 46  2  0  0  0
 45123  1  0  0  0
 46124  1  0  0  0
 47125  1  0  0  0
 47126  1  0  0  0
 48 56  1  0  0  0
 48 65  1  0  0  0
 48127  1  0  0  0
 49 50  1  0  0  0
 49 53  1  0  0  0
 49 64  1  0  0  0
 49128  1  0  0  0
 50 51  1  0  0  0
 50129  1  0  0  0
 50130  1  0  0  0
 51 52  1  0  0  0
 51131  1  0  0  0
 51132  1  0  0  0
 52133  1  0  0  0
 52134  1  0  0  0
 53 54  1  0  0  0
 54 55  2  0  0  0
 54135  1  0  0  0
 55 57  1  0  0  0
 55136  1  0  0  0
 56 69  2  0  0  0
 57 58  2  0  0  0
 57137  1  0  0  0
 58138  1  0  0  0
 59 60  1  0  0  0
 59 61  1  0  0  0
 59 62  1  0  0  0
 60139  1  0  0  0
 60140  1  0  0  0
 60141  1  0  0  0
 61142  1  0  0  0
 61143  1  0  0  0
 61144  1  0  0  0
 62145  1  0  0  0
 62146  1  0  0  0
 62147  1  0  0  0
 63 65  1  0  0  0
 63148  1  0  0  0
 63149  1  0  0  0
 63150  1  0  0  0
 64151  1  0  0  0
 65152  1  0  0  0
 68 89  1  0  0  0
 71 73  1  0  0  0
 71 74  2  0  0  0
 71 76  1  0  0  0
 72 73  2  0  0  0
 72 75  1  0  0  0
 72 80  1  0  0  0
 73 93  1  0  0  0
 74 77  1  0  0  0
 74 90  1  0  0  0
 75 82  1  0  0  0
 75 90  2  0  0  0
 76 92  1  0  0  0
 76153  1  0  0  0
 76154  1  0  0  0
 77 78  1  0  0  0
 77155  1  0  0  0
 77156  1  0  0  0
 78 79  1  0  0  0
 78157  1  0  0  0
 78158  1  0  0  0
 79 92  1  0  0  0
 79159  1  0  0  0
 79160  1  0  0  0
 80161  1  0  0  0
 80162  1  0  0  0
 80163  1  0  0  0
 81 91  1  0  0  0
 81164  1  0  0  0
 81165  1  0  0  0
 81166  1  0  0  0
 82 83  1  0  0  0
 82167  1  0  0  0
 82168  1  0  0  0
 83 84  1  0  0  0
 83169  1  0  0  0
 83170  1  0  0  0
 84 85  1  0  0  0
 84171  1  0  0  0
 84172  1  0  0  0
 85 86  1  0  0  0
 85173  1  0  0  0
 85174  1  0  0  0
 86 87  1  0  0  0
 86175  1  0  0  0
 86176  1  0  0  0
 87 91  1  0  0  0
 87177  1  0  0  0
 87178  1  0  0  0
 88 89  1  0  0  0
 88179  1  0  0  0
 88180  1  0  0  0
 88 92  1  0  0  0
 89181  1  0  0  0
 89182  1  0  0  0
 92183  1  0  0  0
M  CHG  1  92   1
M  ISO  4   1 100  68 101  89 101  91 100
M  END
> <chiral flag>
0

> <version>
0

> <s_m_source_file>
/data/baiqing/PycharmProjects/Reinvent-master-3.2/result/LINK_invent/BTK/process_docking_weight1_custom_sum_contain_oxygen_bond_distance_aromatic_linkinvent_7_9_3/rearranged_h_0031.sdf

> <i_m_source_file_index>
85

> <r_mmod_Potential_Energy-OPLS-2005>
203.186569213867

> <r_mmod_Stretch_Energy-OPLS-2005>
38.3726387023926

> <r_mmod_Bend_Energy-OPLS-2005>
214.934997558594

> <r_mmod_Torsional_Energy-OPLS-2005>
393.792297363281

> <r_mmod_Improper_Torsional_Energy-OPLS-2005>
24.8595371246338

> <r_mmod_Van_der_Waal_Energy-OPLS-2005>
200.161956787109

> <r_mmod_Electrostatic_Energy-OPLS-2005>
-367.319885253906

> <r_mmod_Solvation_Energy-OPLS-2005>
-410.114379882812

> <b_mmod_Minimization_Converged-OPLS-2005>
0

> <r_mmod_RMS_Derivative-OPLS-2005>
8.63501644134521

$$$$
85
                    3D
 Structure written by MMmdl.
168176  0  0  1  0            999 V2000
  -30.8429  -14.2775   20.7589 C   0  0  0  0  0  0
  -30.4049  -12.2882   19.3742 C   0  0  0  0  0  0
  -29.4714  -12.5440   18.1816 C   0  0  0  0  0  0
  -28.0033  -12.3816   18.6075 C   0  0  0  0  0  0
  -27.6655  -13.2052   19.8764 C   0  0  2  0  0  0
  -28.7042  -12.9627   20.9943 C   0  0  0  0  0  0
  -25.2598  -13.8165   20.5675 C   0  0  0  0  0  0
  -24.1845  -13.0443   20.9159 C   0  0  0  0  0  0
  -24.6393  -11.6908   20.8720 C   0  0  0  0  0  0
  -23.9059  -10.4294   21.0396 C   0  0  0  0  0  0
  -24.3611   -9.4211   21.9178 C   0  0  0  0  0  0
  -23.6286   -8.2249   22.0755 C   0  0  0  0  0  0
  -22.4272   -8.0278   21.3542 C   0  0  0  0  0  0
  -21.9902   -9.0253   20.4646 C   0  0  0  0  0  0
  -22.7229  -10.2135   20.3048 C   0  0  0  0  0  0
  -21.6852   -6.0733   22.5280 C   0  0  0  0  0  0
  -21.4016   -6.5637   23.8214 C   0  0  0  0  0  0
  -21.3661   -5.6791   24.9176 C   0  0  0  0  0  0
  -21.6043   -4.3053   24.7230 C   0  0  0  0  0  0
  -21.8819   -3.8145   23.4349 C   0  0  0  0  0  0
  -21.9192   -4.6960   22.3402 C   0  0  0  0  0  0
  -22.7866  -13.5238   21.1829 C   0  0  0  0  0  0
  -22.1661   -4.2143   21.0980 F   0  0  0  0  0  0
  -21.5628   -3.4537   25.7745 F   0  0  0  0  0  0
  -30.0548  -13.2155   20.4586 N   0  0  0  0  0  0
  -26.3043  -12.9335   20.3372 N   0  0  0  0  0  0
  -25.9318  -11.6493   20.5749 N   0  0  0  0  0  0
  -22.0507  -12.8233   22.0389 N   0  0  0  0  0  0
  -25.4321  -15.1884   20.4094 N   0  0  0  0  0  0
  -31.7777  -14.6517   20.0449 O   0  0  0  0  0  0
  -21.6640   -6.8874   21.4241 O   0  0  0  0  0  0
  -22.3553  -14.5548   20.6687 O   0  0  0  0  0  0
  -24.6079  -31.8706   23.2128 C   0  0  0  0  0  0
  -25.8991  -32.4842   23.8410 C   0  0  1  0  0  0
  -27.2414  -27.4768   20.0913 C   0  0  0  0  0  0
  -25.5859  -33.8639   24.2353 N   0  0  0  0  0  0
  -23.3959  -30.4925   21.5515 C   0  0  2  0  0  0
  -24.8464  -28.9601   20.1170 C   0  0  0  0  0  0
  -22.7383  -29.4660   22.5005 C   0  0  0  0  0  0
  -18.0263  -28.1349   22.8479 C   0  0  0  0  0  0
  -24.1489  -36.7334   23.2630 C   0  0  0  0  0  0
  -25.9196  -30.8454   21.3640 C   0  0  0  0  0  0
  -26.0002  -29.4806   20.7179 C   0  0  0  0  0  0
  -27.2002  -28.7407   20.7142 C   0  0  0  0  0  0
  -26.0808  -26.9647   19.4772 C   0  0  0  0  0  0
  -24.8771  -27.6963   19.4987 C   0  0  0  0  0  0
  -23.6054  -29.8215   20.1660 C   0  0  0  0  0  0
  -25.4105  -36.3131   24.0337 C   0  0  1  0  0  0
  -20.5848  -28.3640   23.1320 C   0  0  2  0  0  0
  -20.6758  -26.9378   22.5415 C   0  0  0  0  0  0
  -19.5744  -26.6368   21.5193 C   0  0  0  0  0  0
  -18.1917  -26.7900   22.1607 C   0  0  0  0  0  0
  -19.1508  -28.8810   23.2896 C   0  0  0  0  0  0
  -18.9447  -30.1418   23.8916 C   0  0  0  0  0  0
  -17.6456  -30.6573   24.0560 C   0  0  0  0  0  0
  -25.9013  -34.9489   23.5146 C   0  0  0  0  0  0
  -16.5337  -29.9078   23.6318 C   0  0  0  0  0  0
  -16.7255  -28.6489   23.0341 C   0  0  0  0  0  0
  -26.4441  -31.6604   25.0716 C   0  0  0  0  0  0
  -25.3726  -31.3696   26.1484 C   0  0  0  0  0  0
  -27.0265  -30.3056   24.6055 C   0  0  0  0  0  0
  -27.6041  -32.4298   25.7474 C   0  0  0  0  0  0
  -27.5594  -37.1812   24.8450 C   0  0  0  0  0  0
  -21.4113  -29.3025   22.3748 N   0  0  0  0  0  0
  -26.4305  -37.3807   23.9407 N   0  0  0  0  0  0
  -24.6583  -31.0829   22.1024 N   0  0  0  0  0  0
  -23.4171  -28.8183   23.3017 O   0  0  0  0  0  0
  -28.4046  -26.7521   20.0510 O   0  0  0  0  0  0
  -26.5595  -34.8939   22.4716 O   0  0  0  0  0  0
  -23.5284  -32.1442   23.7547 O   0  0  0  0  0  0
  -27.0116  -24.2399   21.3227 C   0  0  0  0  0  0
  -29.3280  -23.5942   20.9604 C   0  0  0  0  0  0
  -28.3665  -24.6050   21.1897 C   0  0  0  0  0  0
  -26.6067  -22.8972   21.1891 C   0  0  0  0  0  0
  -28.9404  -22.2404   20.8416 C   0  0  0  0  0  0
  -27.5703  -21.8946   20.9364 C   0  0  0  0  0  0
  -25.1340  -22.5487   21.3064 C   0  0  0  0  0  0
  -30.2214  -26.3714   21.5453 C   0  0  0  0  0  0
  -30.0049  -21.1792   20.5799 C   0  0  0  0  0  0
  -31.9976  -16.8909   22.2587 C   0  0  0  0  0  0
  -30.8192  -17.8755   22.3002 C   0  0  0  0  0  0
  -31.6661  -15.4834   22.7911 C   0  0  0  0  0  0
  -31.1155  -19.1541   21.4937 C   0  0  0  0  0  0
  -28.7394  -26.0862   21.2673 C   0  0  1  0  0  0
  -30.6726  -14.7501   22.0009 N   0  0  0  0  0  0
  -30.0595  -20.1735   21.6604 N   0  3  0  0  0  0
  -27.0697  -20.2447   20.7583 Cl  0  0  0  0  0  0
  -31.4470  -12.3827   19.0628 H   0  0  0  0  0  0
  -30.2955  -11.2610   19.7260 H   0  0  0  0  0  0
  -29.7027  -11.8584   17.3654 H   0  0  0  0  0  0
  -29.6344  -13.5508   17.7928 H   0  0  0  0  0  0
  -27.8221  -11.3221   18.7925 H   0  0  0  0  0  0
  -27.3410  -12.6652   17.7888 H   0  0  0  0  0  0
  -27.7212  -14.2579   19.5985 H   0  0  0  0  0  0
  -28.6502  -11.9316   21.3476 H   0  0  0  0  0  0
  -28.4571  -13.5868   21.8533 H   0  0  0  0  0  0
  -25.2757   -9.5695   22.4747 H   0  0  0  0  0  0
  -23.9997   -7.4646   22.7478 H   0  0  0  0  0  0
  -21.0830   -8.8763   19.8956 H   0  0  0  0  0  0
  -22.3676  -10.9668   19.6154 H   0  0  0  0  0  0
  -21.2010   -7.6147   23.9715 H   0  0  0  0  0  0
  -21.1483   -6.0523   25.9079 H   0  0  0  0  0  0
  -22.0596   -2.7606   23.2853 H   0  0  0  0  0  0
  -22.4119  -11.9889   22.4773 H   0  0  0  0  0  0
  -21.1126  -13.1262   22.2598 H   0  0  0  0  0  0
  -24.6688  -15.8466   20.5208 H   0  0  0  0  0  0
  -26.2952  -15.6268   20.1129 H   0  0  0  0  0  0
  -26.7066  -32.5590   23.1185 H   0  0  0  0  0  0
  -25.0024  -33.9802   25.0507 H   0  0  0  0  0  0
  -22.6841  -31.3086   21.4116 H   0  0  0  0  0  0
  -23.3761  -35.9657   23.3282 H   0  0  0  0  0  0
  -24.3600  -36.8955   22.2046 H   0  0  0  0  0  0
  -23.7226  -37.6526   23.6659 H   0  0  0  0  0  0
  -26.0248  -31.6121   20.5945 H   0  0  0  0  0  0
  -26.8072  -30.9005   21.9812 H   0  0  0  0  0  0
  -28.0926  -29.1377   21.1788 H   0  0  0  0  0  0
  -26.1119  -26.0018   18.9887 H   0  0  0  0  0  0
  -23.9918  -27.2905   19.0278 H   0  0  0  0  0  0
  -23.7109  -30.5951   19.4046 H   0  0  0  0  0  0
  -22.7323  -29.2359   19.8715 H   0  0  0  0  0  0
  -25.1279  -36.2010   25.0830 H   0  0  0  0  0  0
  -20.9936  -28.3203   24.1433 H   0  0  0  0  0  0
  -20.5633  -26.2244   23.3597 H   0  0  0  0  0  0
  -21.6639  -26.7421   22.1210 H   0  0  0  0  0  0
  -19.6915  -25.6276   21.1212 H   0  0  0  0  0  0
  -19.6690  -27.3201   20.6734 H   0  0  0  0  0  0
  -17.4184  -26.6639   21.4007 H   0  0  0  0  0  0
  -18.0327  -26.0035   22.9002 H   0  0  0  0  0  0
  -19.7933  -30.7199   24.2316 H   0  0  0  0  0  0
  -17.5023  -31.6265   24.5144 H   0  0  0  0  0  0
  -15.5340  -30.2992   23.7629 H   0  0  0  0  0  0
  -15.8651  -28.0816   22.7048 H   0  0  0  0  0  0
  -24.5887  -30.7051   25.7833 H   0  0  0  0  0  0
  -24.8923  -32.2842   26.4976 H   0  0  0  0  0  0
  -25.8081  -30.8843   27.0230 H   0  0  0  0  0  0
  -26.2798  -29.6832   24.1115 H   0  0  0  0  0  0
  -27.4052  -29.7272   25.4493 H   0  0  0  0  0  0
  -27.8627  -30.4395   23.9192 H   0  0  0  0  0  0
  -27.2687  -33.3596   26.2096 H   0  0  0  0  0  0
  -28.3830  -32.6852   25.0274 H   0  0  0  0  0  0
  -28.0733  -31.8382   26.5348 H   0  0  0  0  0  0
  -28.2585  -38.0141   24.7561 H   0  0  0  0  0  0
  -28.1117  -36.2675   24.6203 H   0  0  0  0  0  0
  -27.2321  -37.1367   25.8852 H   0  0  0  0  0  0
  -20.9265  -29.8785   21.7010 H   0  0  0  0  0  0
  -26.0203  -38.2882   24.1442 H   0  0  0  0  0  0
  -26.2725  -25.0071   21.5064 H   0  0  0  0  0  0
  -30.3714  -23.8528   20.8530 H   0  0  0  0  0  0
  -24.5213  -23.4369   21.4664 H   0  0  0  0  0  0
  -24.9673  -21.8701   22.1430 H   0  0  0  0  0  0
  -24.7849  -22.0612   20.3957 H   0  0  0  0  0  0
  -30.5704  -25.8415   22.4321 H   0  0  0  0  0  0
  -30.3812  -27.4356   21.7209 H   0  0  0  0  0  0
  -30.8501  -26.0843   20.7025 H   0  0  0  0  0  0
  -30.9843  -21.6483   20.4771 H   0  0  0  0  0  0
  -29.7924  -20.6952   19.6257 H   0  0  0  0  0  0
  -32.8174  -17.3018   22.8505 H   0  0  0  0  0  0
  -32.3900  -16.8199   21.2442 H   0  0  0  0  0  0
  -30.6025  -18.1247   23.3402 H   0  0  0  0  0  0
  -29.9217  -17.3995   21.9026 H   0  0  0  0  0  0
  -31.3034  -15.5525   23.8177 H   0  0  0  0  0  0
  -32.5793  -14.8869   22.8389 H   0  0  0  0  0  0
  -31.2087  -18.8872   20.4398 H   0  0  0  0  0  0
  -32.0721  -19.5850   21.7928 H   0  0  0  0  0  0
  -28.1780  -26.5024   22.1074 H   0  0  0  0  0  0
  -29.8999  -14.3491   22.5130 H   0  0  0  0  0  0
  -29.1592  -19.7188   21.6734 H   0  0  0  0  0  0
  -30.1864  -20.6426   22.5425 H   0  0  0  0  0  0
  1 25  1  0  0  0
  1 30  2  0  0  0
  1 85  1  0  0  0
  2  3  1  0  0  0
  2 25  1  0  0  0
  2 88  1  0  0  0
  2 89  1  0  0  0
  3  4  1  0  0  0
  3 90  1  0  0  0
  3 91  1  0  0  0
  4  5  1  0  0  0
  4 92  1  0  0  0
  4 93  1  0  0  0
  5  6  1  0  0  0
  5 26  1  0  0  0
  5 94  1  0  0  0
  6 25  1  0  0  0
  6 95  1  0  0  0
  6 96  1  0  0  0
  7  8  2  0  0  0
  7 26  1  0  0  0
  7 29  1  0  0  0
  8  9  1  0  0  0
  8 22  1  0  0  0
  9 10  1  0  0  0
  9 27  2  0  0  0
 10 11  2  0  0  0
 10 15  1  0  0  0
 11 12  1  0  0  0
 11 97  1  0  0  0
 12 13  2  0  0  0
 12 98  1  0  0  0
 13 14  1  0  0  0
 13 31  1  0  0  0
 14 15  2  0  0  0
 14 99  1  0  0  0
 15100  1  0  0  0
 16 17  2  0  0  0
 16 21  1  0  0  0
 16 31  1  0  0  0
 17 18  1  0  0  0
 17101  1  0  0  0
 18 19  2  0  0  0
 18102  1  0  0  0
 19 20  1  0  0  0
 19 24  1  0  0  0
 20 21  2  0  0  0
 20103  1  0  0  0
 21 23  1  0  0  0
 22 28  1  0  0  0
 22 32  2  0  0  0
 26 27  1  0  0  0
 28104  1  0  0  0
 28105  1  0  0  0
 29106  1  0  0  0
 29107  1  0  0  0
 33 34  1  0  0  0
 33 66  1  0  0  0
 33 70  2  0  0  0
 34 36  1  0  0  0
 34 59  1  0  0  0
 34108  1  0  0  0
 35 44  2  0  0  0
 35 45  1  0  0  0
 35 68  1  0  0  0
 36 56  1  0  0  0
 36109  1  0  0  0
 37 39  1  0  0  0
 37 47  1  0  0  0
 37 66  1  0  0  0
 37110  1  0  0  0
 38 43  2  0  0  0
 38 46  1  0  0  0
 38 47  1  0  0  0
 39 64  1  0  0  0
 39 67  2  0  0  0
 40 52  1  0  0  0
 40 53  2  0  0  0
 40 58  1  0  0  0
 41111  1  0  0  0
 41112  1  0  0  0
 41113  1  0  0  0
 41 48  1  0  0  0
 42 43  1  0  0  0
 42 66  1  0  0  0
 42114  1  0  0  0
 42115  1  0  0  0
 43 44  1  0  0  0
 44116  1  0  0  0
 45 46  2  0  0  0
 45117  1  0  0  0
 46118  1  0  0  0
 47119  1  0  0  0
 47120  1  0  0  0
 48 56  1  0  0  0
 48 65  1  0  0  0
 48121  1  0  0  0
 49 50  1  0  0  0
 49 53  1  0  0  0
 49 64  1  0  0  0
 49122  1  0  0  0
 50 51  1  0  0  0
 50123  1  0  0  0
 50124  1  0  0  0
 51 52  1  0  0  0
 51125  1  0  0  0
 51126  1  0  0  0
 52127  1  0  0  0
 52128  1  0  0  0
 53 54  1  0  0  0
 54 55  2  0  0  0
 54129  1  0  0  0
 55 57  1  0  0  0
 55130  1  0  0  0
 56 69  2  0  0  0
 57 58  2  0  0  0
 57131  1  0  0  0
 58132  1  0  0  0
 59 60  1  0  0  0
 59 61  1  0  0  0
 59 62  1  0  0  0
 60133  1  0  0  0
 60134  1  0  0  0
 60135  1  0  0  0
 61136  1  0  0  0
 61137  1  0  0  0
 61138  1  0  0  0
 62139  1  0  0  0
 62140  1  0  0  0
 62141  1  0  0  0
 63 65  1  0  0  0
 63142  1  0  0  0
 63143  1  0  0  0
 63144  1  0  0  0
 64145  1  0  0  0
 65146  1  0  0  0
 68 84  1  0  0  0
 71 73  2  0  0  0
 71 74  1  0  0  0
 71147  1  0  0  0
 72 73  1  0  0  0
 72 75  2  0  0  0
 72148  1  0  0  0
 73 84  1  0  0  0
 74 76  2  0  0  0
 74 77  1  0  0  0
 75 76  1  0  0  0
 75 79  1  0  0  0
 76 87  1  0  0  0
 77149  1  0  0  0
 77150  1  0  0  0
 77151  1  0  0  0
 78152  1  0  0  0
 78153  1  0  0  0
 78154  1  0  0  0
 78 84  1  0  0  0
 79 86  1  0  0  0
 79155  1  0  0  0
 79156  1  0  0  0
 80 81  1  0  0  0
 80 82  1  0  0  0
 80157  1  0  0  0
 80158  1  0  0  0
 81 83  1  0  0  0
 81159  1  0  0  0
 81160  1  0  0  0
 82 85  1  0  0  0
 82161  1  0  0  0
 82162  1  0  0  0
 83 86  1  0  0  0
 83163  1  0  0  0
 83164  1  0  0  0
 84165  1  0  0  0
 85166  1  0  0  0
 86167  1  0  0  0
 86168  1  0  0  0
M  CHG  1  86   1
M  ISO  4   1 100  68 101  84 101  85 100
M  END
> <chiral flag>
0

> <version>
0

> <s_m_source_file>
/data/baiqing/PycharmProjects/Reinvent-master-3.2/result/LINK_invent/BTK/process_docking_weight1_custom_sum_contain_oxygen_bond_distance_aromatic_linkinvent_7_9_3/rearranged_h_0031.sdf

> <i_m_source_file_index>
86

> <r_mmod_Potential_Energy-OPLS-2005>
-278.451538085938

> <r_mmod_Stretch_Energy-OPLS-2005>
32.0755805969238

> <r_mmod_Bend_Energy-OPLS-2005>
85.7681503295898

> <r_mmod_Torsional_Energy-OPLS-2005>
234.593368530273

> <r_mmod_Improper_Torsional_Energy-OPLS-2005>
5.17661666870117

> <r_mmod_Van_der_Waal_Energy-OPLS-2005>
148.855102539062

> <r_mmod_Electrostatic_Energy-OPLS-2005>
-349.113220214844

> <r_mmod_Solvation_Energy-OPLS-2005>
-444.050750732422

> <b_mmod_Minimization_Converged-OPLS-2005>
0

> <r_mmod_RMS_Derivative-OPLS-2005>
1.63880264759064

$$$$
86
                    3D
 Structure written by MMmdl.
171180  0  0  1  0            999 V2000
  -30.6295  -14.5094   20.5052 C   0  0  0  0  0  0
  -30.4403  -12.2949   19.3994 C   0  0  0  0  0  0
  -29.5005  -12.4892   18.1896 C   0  0  0  0  0  0
  -28.0153  -12.3493   18.5914 C   0  0  0  0  0  0
  -27.6544  -13.1864   19.8468 C   0  0  2  0  0  0
  -28.6923  -12.9634   20.9691 C   0  0  0  0  0  0
  -25.2599  -13.8086   20.5596 C   0  0  0  0  0  0
  -24.1831  -13.0392   20.9086 C   0  0  0  0  0  0
  -24.6336  -11.6849   20.8604 C   0  0  0  0  0  0
  -23.8998  -10.4251   21.0282 C   0  0  0  0  0  0
  -24.3585   -9.4193   21.9074 C   0  0  0  0  0  0
  -23.6281   -8.2237   22.0721 C   0  0  0  0  0  0
  -22.4252   -8.0254   21.3530 C   0  0  0  0  0  0
  -21.9846   -9.0191   20.4600 C   0  0  0  0  0  0
  -22.7161  -10.2077   20.2951 C   0  0  0  0  0  0
  -21.6860   -6.0687   22.5253 C   0  0  0  0  0  0
  -21.4015   -6.5605   23.8178 C   0  0  0  0  0  0
  -21.3648   -5.6757   24.9145 C   0  0  0  0  0  0
  -21.6069   -4.3027   24.7192 C   0  0  0  0  0  0
  -21.8839   -3.8113   23.4312 C   0  0  0  0  0  0
  -21.9195   -4.6916   22.3370 C   0  0  0  0  0  0
  -22.7870  -13.5212   21.1817 C   0  0  0  0  0  0
  -22.1667   -4.2095   21.0944 F   0  0  0  0  0  0
  -21.5626   -3.4527   25.7712 F   0  0  0  0  0  0
  -30.0314  -13.2451   20.4345 N   0  0  0  0  0  0
  -26.2971  -12.9192   20.3173 N   0  0  0  0  0  0
  -25.9257  -11.6367   20.5608 N   0  0  0  0  0  0
  -22.0561  -12.8164   22.0376 N   0  0  0  0  0  0
  -25.4392  -15.1805   20.4132 N   0  0  0  0  0  0
  -31.7997  -14.7775   20.2118 O   0  0  0  0  0  0
  -21.6659   -6.8824   21.4218 O   0  0  0  0  0  0
  -22.3509  -14.5516   20.6695 O   0  0  0  0  0  0
  -24.6112  -31.8701   23.2179 C   0  0  0  0  0  0
  -25.8992  -32.4844   23.8517 C   0  0  1  0  0  0
  -27.2105  -27.4146   20.1087 C   0  0  0  0  0  0
  -25.5849  -33.8664   24.2434 N   0  0  0  0  0  0
  -23.4029  -30.4959   21.5622 C   0  0  2  0  0  0
  -24.8492  -28.9775   20.1223 C   0  0  0  0  0  0
  -22.7408  -29.4567   22.5004 C   0  0  0  0  0  0
  -18.0231  -28.1238   22.8475 C   0  0  0  0  0  0
  -24.1477  -36.7320   23.2638 C   0  0  0  0  0  0
  -25.9354  -30.8315   21.3826 C   0  0  0  0  0  0
  -26.0105  -29.4655   20.7292 C   0  0  0  0  0  0
  -27.1949  -28.6885   20.7269 C   0  0  0  0  0  0
  -26.0418  -26.9845   19.4438 C   0  0  0  0  0  0
  -24.8542  -27.7331   19.4823 C   0  0  0  0  0  0
  -23.6185  -29.8490   20.1731 C   0  0  0  0  0  0
  -25.4072  -36.3145   24.0377 C   0  0  1  0  0  0
  -20.5832  -28.3523   23.1322 C   0  0  2  0  0  0
  -20.6677  -26.9239   22.5527 C   0  0  0  0  0  0
  -19.5726  -26.6266   21.5211 C   0  0  0  0  0  0
  -18.1883  -26.7788   22.1625 C   0  0  0  0  0  0
  -19.1498  -28.8691   23.2895 C   0  0  0  0  0  0
  -18.9470  -30.1298   23.8860 C   0  0  0  0  0  0
  -17.6487  -30.6502   24.0437 C   0  0  0  0  0  0
  -25.8972  -34.9481   23.5203 C   0  0  0  0  0  0
  -16.5375  -29.9025   23.6172 C   0  0  0  0  0  0
  -16.7239  -28.6380   23.0333 C   0  0  0  0  0  0
  -26.4440  -31.6601   25.0822 C   0  0  0  0  0  0
  -25.3718  -31.3631   26.1576 C   0  0  0  0  0  0
  -27.0323  -30.3077   24.6125 C   0  0  0  0  0  0
  -27.6028  -32.4340   25.7540 C   0  0  0  0  0  0
  -27.5577  -37.1812   24.8467 C   0  0  0  0  0  0
  -21.4128  -29.2915   22.3734 N   0  0  0  0  0  0
  -26.4277  -37.3809   23.9426 N   0  0  0  0  0  0
  -24.6683  -31.0815   22.1102 N   0  0  0  0  0  0
  -23.4170  -28.8107   23.3048 O   0  0  0  0  0  0
  -28.3626  -26.6479   20.0793 O   0  0  0  0  0  0
  -26.5552  -34.8893   22.4767 O   0  0  0  0  0  0
  -23.5303  -32.1434   23.7539 O   0  0  0  0  0  0
  -29.0120  -18.5336   23.3590 C   0  0  0  0  0  0
  -29.2554  -17.7817   21.0651 C   0  0  0  0  0  0
  -28.9504  -18.8263   21.9745 C   0  0  0  0  0  0
  -29.3510  -17.2371   23.8191 C   0  0  0  0  0  0
  -29.6249  -16.4890   21.5131 C   0  0  0  0  0  0
  -29.6857  -16.2291   22.8970 C   0  0  0  0  0  0
  -28.3369  -21.3830   22.4018 C   0  0  0  0  0  0
  -28.8668  -20.6141   20.0605 C   0  0  0  0  0  0
  -27.3133  -22.4479   21.9103 C   0  0  0  0  0  0
  -28.6540  -22.1261   19.7629 C   0  0  0  0  0  0
  -28.3526  -20.1569   21.4562 C   0  0  1  0  0  0
  -27.3725  -22.7666   20.3804 C   0  0  1  0  0  0
  -29.2342  -16.9030   25.2964 C   0  0  0  0  0  0
  -25.5718  -20.8469   19.7345 C   0  0  0  0  0  0
  -26.0650  -22.2994   19.6483 C   0  0  0  0  0  0
  -27.3343  -24.3125   20.0985 C   0  0  0  0  0  0
  -28.3588  -25.3231   20.6835 C   0  0  0  0  0  0
  -29.6465  -15.4511   20.6112 O   0  0  0  0  0  0
  -29.9689  -14.9809   23.3420 F   0  0  0  0  0  0
  -31.4758  -12.4404   19.0901 H   0  0  0  0  0  0
  -30.3639  -11.2765   19.7811 H   0  0  0  0  0  0
  -29.7449  -11.7693   17.4092 H   0  0  0  0  0  0
  -29.6596  -13.4754   17.7525 H   0  0  0  0  0  0
  -27.8134  -11.2936   18.7761 H   0  0  0  0  0  0
  -27.3782  -12.6348   17.7529 H   0  0  0  0  0  0
  -27.6844  -14.2310   19.5375 H   0  0  0  0  0  0
  -28.6584  -11.9350   21.3346 H   0  0  0  0  0  0
  -28.4598  -13.5903   21.8291 H   0  0  0  0  0  0
  -25.2751   -9.5732   22.4585 H   0  0  0  0  0  0
  -23.9987   -7.4660   22.7491 H   0  0  0  0  0  0
  -21.0751   -8.8689   19.8933 H   0  0  0  0  0  0
  -22.3586  -10.9578   19.6028 H   0  0  0  0  0  0
  -21.2030   -7.6112   23.9677 H   0  0  0  0  0  0
  -21.1454   -6.0470   25.9043 H   0  0  0  0  0  0
  -22.0641   -2.7577   23.2821 H   0  0  0  0  0  0
  -22.4292  -11.9834   22.4701 H   0  0  0  0  0  0
  -21.1181  -13.1095   22.2630 H   0  0  0  0  0  0
  -24.6945  -15.8470   20.5822 H   0  0  0  0  0  0
  -26.3183  -15.6215   20.1783 H   0  0  0  0  0  0
  -26.7043  -32.5577   23.1295 H   0  0  0  0  0  0
  -25.0070  -33.9858   25.0639 H   0  0  0  0  0  0
  -22.6817  -31.3058   21.4335 H   0  0  0  0  0  0
  -23.3771  -35.9633   23.3303 H   0  0  0  0  0  0
  -24.3565  -36.8948   22.2053 H   0  0  0  0  0  0
  -23.7225  -37.6515   23.6660 H   0  0  0  0  0  0
  -26.0501  -31.5948   20.6122 H   0  0  0  0  0  0
  -26.8232  -30.8837   22.0043 H   0  0  0  0  0  0
  -28.0951  -29.0567   21.2029 H   0  0  0  0  0  0
  -26.0144  -26.0797   18.8647 H   0  0  0  0  0  0
  -23.9598  -27.3695   18.9940 H   0  0  0  0  0  0
  -23.7387  -30.6412   19.4296 H   0  0  0  0  0  0
  -22.7428  -29.2785   19.8620 H   0  0  0  0  0  0
  -25.1261  -36.2012   25.0881 H   0  0  0  0  0  0
  -20.9930  -28.3102   24.1477 H   0  0  0  0  0  0
  -20.5364  -26.2147   23.3739 H   0  0  0  0  0  0
  -21.6605  -26.7213   22.1516 H   0  0  0  0  0  0
  -19.6752  -25.6141   21.1268 H   0  0  0  0  0  0
  -19.6651  -27.3062   20.6737 H   0  0  0  0  0  0
  -17.4205  -26.6548   21.3987 H   0  0  0  0  0  0
  -18.0299  -25.9893   22.8970 H   0  0  0  0  0  0
  -19.7995  -30.7040   24.2188 H   0  0  0  0  0  0
  -17.5065  -31.6210   24.5014 H   0  0  0  0  0  0
  -15.5364  -30.2986   23.7377 H   0  0  0  0  0  0
  -15.8581  -28.0701   22.7180 H   0  0  0  0  0  0
  -24.5859  -30.7027   25.7874 H   0  0  0  0  0  0
  -24.8943  -32.2774   26.5107 H   0  0  0  0  0  0
  -25.8061  -30.8712   27.0285 H   0  0  0  0  0  0
  -26.2900  -29.6834   24.1116 H   0  0  0  0  0  0
  -27.4146  -29.7254   25.4521 H   0  0  0  0  0  0
  -27.8706  -30.4517   23.9302 H   0  0  0  0  0  0
  -27.2660  -33.3651   26.2089 H   0  0  0  0  0  0
  -28.3782  -32.6889   25.0307 H   0  0  0  0  0  0
  -28.0739  -31.8515   26.5468 H   0  0  0  0  0  0
  -28.2601  -38.0091   24.7524 H   0  0  0  0  0  0
  -28.1081  -36.2653   24.6297 H   0  0  0  0  0  0
  -27.2316  -37.1460   25.8867 H   0  0  0  0  0  0
  -20.9247  -29.8776   21.7112 H   0  0  0  0  0  0
  -26.0188  -38.2910   24.1378 H   0  0  0  0  0  0
  -28.7253  -19.2599   24.1007 H   0  0  0  0  0  0
  -29.1120  -17.9323   20.0076 H   0  0  0  0  0  0
  -28.0481  -21.1169   23.4116 H   0  0  0  0  0  0
  -29.3335  -21.8206   22.4827 H   0  0  0  0  0  0
  -29.9385  -20.4177   19.9848 H   0  0  0  0  0  0
  -28.4171  -20.0174   19.2666 H   0  0  0  0  0  0
  -27.4265  -23.3489   22.5096 H   0  0  0  0  0  0
  -26.3147  -22.0982   22.1710 H   0  0  0  0  0  0
  -28.7131  -22.3137   18.6904 H   0  0  0  0  0  0
  -29.5158  -22.6447   20.1826 H   0  0  0  0  0  0
  -27.3082  -19.8722   21.3553 H   0  0  0  0  0  0
  -28.3289  -17.3327   25.7207 H   0  0  0  0  0  0
  -30.0876  -17.2766   25.8652 H   0  0  0  0  0  0
  -29.1620  -15.8259   25.4424 H   0  0  0  0  0  0
  -26.2765  -20.1276   19.3280 H   0  0  0  0  0  0
  -24.6628  -20.7473   19.1421 H   0  0  0  0  0  0
  -25.3041  -20.5530   20.7486 H   0  0  0  0  0  0
  -26.1369  -22.5626   18.5911 H   0  0  0  0  0  0
  -25.2306  -22.8845   20.0333 H   0  0  0  0  0  0
  -26.3664  -24.6560   20.4567 H   0  0  0  0  0  0
  -27.3492  -24.4364   19.0157 H   0  0  0  0  0  0
  -29.3607  -24.9252   20.5381 H   0  0  0  0  0  0
  -28.2188  -25.4187   21.7616 H   0  0  0  0  0  0
  1 25  1  0  0  0
  1 30  2  0  0  0
  1 88  1  0  0  0
  2  3  1  0  0  0
  2 25  1  0  0  0
  2 90  1  0  0  0
  2 91  1  0  0  0
  3  4  1  0  0  0
  3 92  1  0  0  0
  3 93  1  0  0  0
  4  5  1  0  0  0
  4 94  1  0  0  0
  4 95  1  0  0  0
  5  6  1  0  0  0
  5 26  1  0  0  0
  5 96  1  0  0  0
  6 25  1  0  0  0
  6 97  1  0  0  0
  6 98  1  0  0  0
  7  8  2  0  0  0
  7 26  1  0  0  0
  7 29  1  0  0  0
  8  9  1  0  0  0
  8 22  1  0  0  0
  9 10  1  0  0  0
  9 27  2  0  0  0
 10 11  2  0  0  0
 10 15  1  0  0  0
 11 12  1  0  0  0
 11 99  1  0  0  0
 12 13  2  0  0  0
 12100  1  0  0  0
 13 14  1  0  0  0
 13 31  1  0  0  0
 14 15  2  0  0  0
 14101  1  0  0  0
 15102  1  0  0  0
 16 17  2  0  0  0
 16 21  1  0  0  0
 16 31  1  0  0  0
 17 18  1  0  0  0
 17103  1  0  0  0
 18 19  2  0  0  0
 18104  1  0  0  0
 19 20  1  0  0  0
 19 24  1  0  0  0
 20 21  2  0  0  0
 20105  1  0  0  0
 21 23  1  0  0  0
 22 28  1  0  0  0
 22 32  2  0  0  0
 26 27  1  0  0  0
 28106  1  0  0  0
 28107  1  0  0  0
 29108  1  0  0  0
 29109  1  0  0  0
 33 34  1  0  0  0
 33 66  1  0  0  0
 33 70  2  0  0  0
 34 36  1  0  0  0
 34 59  1  0  0  0
 34110  1  0  0  0
 35 44  2  0  0  0
 35 45  1  0  0  0
 35 68  1  0  0  0
 36 56  1  0  0  0
 36111  1  0  0  0
 37 39  1  0  0  0
 37 47  1  0  0  0
 37 66  1  0  0  0
 37112  1  0  0  0
 38 43  2  0  0  0
 38 46  1  0  0  0
 38 47  1  0  0  0
 39 64  1  0  0  0
 39 67  2  0  0  0
 40 52  1  0  0  0
 40 53  2  0  0  0
 40 58  1  0  0  0
 41113  1  0  0  0
 41114  1  0  0  0
 41115  1  0  0  0
 41 48  1  0  0  0
 42 43  1  0  0  0
 42 66  1  0  0  0
 42116  1  0  0  0
 42117  1  0  0  0
 43 44  1  0  0  0
 44118  1  0  0  0
 45 46  2  0  0  0
 45119  1  0  0  0
 46120  1  0  0  0
 47121  1  0  0  0
 47122  1  0  0  0
 48 56  1  0  0  0
 48 65  1  0  0  0
 48123  1  0  0  0
 49 50  1  0  0  0
 49 53  1  0  0  0
 49 64  1  0  0  0
 49124  1  0  0  0
 50 51  1  0  0  0
 50125  1  0  0  0
 50126  1  0  0  0
 51 52  1  0  0  0
 51127  1  0  0  0
 51128  1  0  0  0
 52129  1  0  0  0
 52130  1  0  0  0
 53 54  1  0  0  0
 54 55  2  0  0  0
 54131  1  0  0  0
 55 57  1  0  0  0
 55132  1  0  0  0
 56 69  2  0  0  0
 57 58  2  0  0  0
 57133  1  0  0  0
 58134  1  0  0  0
 59 60  1  0  0  0
 59 61  1  0  0  0
 59 62  1  0  0  0
 60135  1  0  0  0
 60136  1  0  0  0
 60137  1  0  0  0
 61138  1  0  0  0
 61139  1  0  0  0
 61140  1  0  0  0
 62141  1  0  0  0
 62142  1  0  0  0
 62143  1  0  0  0
 63 65  1  0  0  0
 63144  1  0  0  0
 63145  1  0  0  0
 63146  1  0  0  0
 64147  1  0  0  0
 65148  1  0  0  0
 68 87  1  0  0  0
 71 73  2  0  0  0
 71 74  1  0  0  0
 71149  1  0  0  0
 72 73  1  0  0  0
 72 75  2  0  0  0
 72150  1  0  0  0
 73 81  1  0  0  0
 74 76  2  0  0  0
 74 83  1  0  0  0
 75 76  1  0  0  0
 75 88  1  0  0  0
 76 89  1  0  0  0
 77 79  1  0  0  0
 77 81  1  0  0  0
 77151  1  0  0  0
 77152  1  0  0  0
 78 80  1  0  0  0
 78 81  1  0  0  0
 78153  1  0  0  0
 78154  1  0  0  0
 79 82  1  0  0  0
 79155  1  0  0  0
 79156  1  0  0  0
 80 82  1  0  0  0
 80157  1  0  0  0
 80158  1  0  0  0
 81159  1  0  0  0
 82 85  1  0  0  0
 82 86  1  0  0  0
 83160  1  0  0  0
 83161  1  0  0  0
 83162  1  0  0  0
 84 85  1  0  0  0
 84163  1  0  0  0
 84164  1  0  0  0
 84165  1  0  0  0
 85166  1  0  0  0
 85167  1  0  0  0
 86 87  1  0  0  0
 86168  1  0  0  0
 86169  1  0  0  0
 87170  1  0  0  0
 87171  1  0  0  0
M  ISO  4   1 100  68 101  87 101  88 100
M  END
> <chiral flag>
0

> <version>
0

> <s_m_source_file>
/data/baiqing/PycharmProjects/Reinvent-master-3.2/result/LINK_invent/BTK/process_docking_weight1_custom_sum_contain_oxygen_bond_distance_aromatic_linkinvent_7_9_3/rearranged_h_0031.sdf

> <i_m_source_file_index>
87

> <r_mmod_Potential_Energy-OPLS-2005>
190.834823608398

> <r_mmod_Stretch_Energy-OPLS-2005>
47.8258323669434

> <r_mmod_Bend_Energy-OPLS-2005>
150.016937255859

> <r_mmod_Torsional_Energy-OPLS-2005>
297.290405273438

> <r_mmod_Improper_Torsional_Energy-OPLS-2005>
12.0951232910156

> <r_mmod_Van_der_Waal_Energy-OPLS-2005>
174.595260620117

> <r_mmod_Electrostatic_Energy-OPLS-2005>
-342.347961425781

> <r_mmod_Solvation_Energy-OPLS-2005>
-170.743392944336

> <b_mmod_Minimization_Converged-OPLS-2005>
0

> <r_mmod_RMS_Derivative-OPLS-2005>
7.33727407455444

$$$$
87
                    3D
 Structure written by MMmdl.
156164  0  0  1  0            999 V2000
  -30.7124  -14.4527   20.6054 C   0  0  0  0  0  0
  -30.4234  -12.3057   19.4204 C   0  0  0  0  0  0
  -29.4942  -12.5189   18.2066 C   0  0  0  0  0  0
  -28.0165  -12.3749   18.6170 C   0  0  0  0  0  0
  -27.6649  -13.2049   19.8805 C   0  0  2  0  0  0
  -28.7059  -12.9732   20.9995 C   0  0  0  0  0  0
  -25.2604  -13.8144   20.5682 C   0  0  0  0  0  0
  -24.1846  -13.0427   20.9150 C   0  0  0  0  0  0
  -24.6390  -11.6895   20.8690 C   0  0  0  0  0  0
  -23.9047  -10.4286   21.0376 C   0  0  0  0  0  0
  -24.3604   -9.4209   21.9168 C   0  0  0  0  0  0
  -23.6275   -8.2244   22.0748 C   0  0  0  0  0  0
  -22.4256   -8.0269   21.3535 C   0  0  0  0  0  0
  -21.9886   -9.0239   20.4638 C   0  0  0  0  0  0
  -22.7206  -10.2121   20.3040 C   0  0  0  0  0  0
  -21.6863   -6.0711   22.5265 C   0  0  0  0  0  0
  -21.4023   -6.5618   23.8190 C   0  0  0  0  0  0
  -21.3664   -5.6781   24.9162 C   0  0  0  0  0  0
  -21.6055   -4.3045   24.7224 C   0  0  0  0  0  0
  -21.8821   -3.8127   23.4350 C   0  0  0  0  0  0
  -21.9196   -4.6940   22.3399 C   0  0  0  0  0  0
  -22.7873  -13.5224   21.1826 C   0  0  0  0  0  0
  -22.1660   -4.2123   21.0981 F   0  0  0  0  0  0
  -21.5637   -3.4536   25.7743 F   0  0  0  0  0  0
  -30.0408  -13.2792   20.4544 N   0  0  0  0  0  0
  -26.3045  -12.9311   20.3387 N   0  0  0  0  0  0
  -25.9324  -11.6470   20.5740 N   0  0  0  0  0  0
  -22.0535  -12.8221   22.0404 N   0  0  0  0  0  0
  -25.4361  -15.1857   20.4115 N   0  0  0  0  0  0
  -31.8061  -14.6745   20.0780 O   0  0  0  0  0  0
  -21.6633   -6.8855   21.4223 O   0  0  0  0  0  0
  -22.3553  -14.5528   20.6666 O   0  0  0  0  0  0
  -24.6165  -31.8674   23.2090 C   0  0  0  0  0  0
  -25.9050  -32.4821   23.8395 C   0  0  1  0  0  0
  -27.2354  -27.4204   20.1052 C   0  0  0  0  0  0
  -25.5902  -33.8623   24.2329 N   0  0  0  0  0  0
  -23.4055  -30.4910   21.5488 C   0  0  2  0  0  0
  -24.8519  -28.9573   20.1126 C   0  0  0  0  0  0
  -22.7420  -29.4660   22.4973 C   0  0  0  0  0  0
  -18.0278  -28.1376   22.8491 C   0  0  0  0  0  0
  -24.1491  -36.7321   23.2639 C   0  0  0  0  0  0
  -25.9349  -30.8313   21.3622 C   0  0  0  0  0  0
  -26.0123  -29.4649   20.7094 C   0  0  0  0  0  0
  -27.2061  -28.7057   20.6982 C   0  0  0  0  0  0
  -26.0551  -26.9345   19.4940 C   0  0  0  0  0  0
  -24.8696  -27.6935   19.4986 C   0  0  0  0  0  0
  -23.6143  -29.8243   20.1630 C   0  0  0  0  0  0
  -25.4110  -36.3121   24.0341 C   0  0  1  0  0  0
  -20.5869  -28.3672   23.1306 C   0  0  2  0  0  0
  -20.6768  -26.9405   22.5411 C   0  0  0  0  0  0
  -19.5747  -26.6382   21.5209 C   0  0  0  0  0  0
  -18.1925  -26.7924   22.1619 C   0  0  0  0  0  0
  -19.1526  -28.8836   23.2900 C   0  0  0  0  0  0
  -18.9454  -30.1439   23.8918 C   0  0  0  0  0  0
  -17.6455  -30.6583   24.0562 C   0  0  0  0  0  0
  -25.9032  -34.9483   23.5135 C   0  0  0  0  0  0
  -16.5347  -29.9090   23.6317 C   0  0  0  0  0  0
  -16.7264  -28.6501   23.0350 C   0  0  0  0  0  0
  -26.4473  -31.6600   25.0721 C   0  0  0  0  0  0
  -25.3730  -31.3709   26.1459 C   0  0  0  0  0  0
  -27.0304  -30.3049   24.6092 C   0  0  0  0  0  0
  -27.6060  -32.4307   25.7477 C   0  0  0  0  0  0
  -27.5586  -37.1818   24.8465 C   0  0  0  0  0  0
  -21.4144  -29.3044   22.3718 N   0  0  0  0  0  0
  -26.4302  -37.3796   23.9403 N   0  0  0  0  0  0
  -24.6707  -31.0774   22.0991 N   0  0  0  0  0  0
  -23.4185  -28.8193   23.3015 O   0  0  0  0  0  0
  -28.4060  -26.6816   20.1452 O   0  0  0  0  0  0
  -26.5593  -34.8934   22.4694 O   0  0  0  0  0  0
  -23.5349  -32.1425   23.7477 O   0  0  0  0  0  0
  -28.8504  -21.4406   19.9987 C   0  0  0  0  0  0
  -31.0747  -19.7832   20.3799 C   0  0  0  0  0  0
  -30.1321  -22.0310   20.0455 C   0  0  0  0  0  0
  -29.7979  -19.1859   20.2761 C   0  0  0  0  0  0
  -31.2482  -21.1822   20.2760 C   0  0  0  0  0  0
  -28.6760  -20.0428   20.1135 C   0  0  0  0  0  0
  -30.2872  -23.5329   19.7416 C   0  0  0  0  0  0
  -29.6598  -17.6511   20.2364 C   0  0  0  0  0  0
  -29.5299  -24.5263   20.6657 C   0  0  0  0  0  0
  -30.3874  -16.8454   21.3438 C   0  0  0  0  0  0
  -28.3044  -25.2466   20.0410 C   0  0  0  0  0  0
  -30.0486  -15.4120   21.2723 N   0  0  0  0  0  0
  -32.8577  -21.8051   20.3949 Cl  0  0  0  0  0  0
  -27.0665  -19.4208   19.9959 Cl  0  0  0  0  0  0
  -31.4688  -12.4003   19.1232 H   0  0  0  0  0  0
  -30.3206  -11.2926   19.8094 H   0  0  0  0  0  0
  -29.7308  -11.8067   17.4148 H   0  0  0  0  0  0
  -29.6613  -13.5114   17.7871 H   0  0  0  0  0  0
  -27.8232  -11.3173   18.7995 H   0  0  0  0  0  0
  -27.3676  -12.6598   17.7878 H   0  0  0  0  0  0
  -27.7136  -14.2547   19.5930 H   0  0  0  0  0  0
  -28.6824  -11.9313   21.3220 H   0  0  0  0  0  0
  -28.4632  -13.5533   21.8902 H   0  0  0  0  0  0
  -25.2757   -9.5687   22.4734 H   0  0  0  0  0  0
  -23.9986   -7.4639   22.7475 H   0  0  0  0  0  0
  -21.0812   -8.8730   19.8953 H   0  0  0  0  0  0
  -22.3637  -10.9645   19.6144 H   0  0  0  0  0  0
  -21.2011   -7.6123   23.9679 H   0  0  0  0  0  0
  -21.1496   -6.0524   25.9063 H   0  0  0  0  0  0
  -22.0605   -2.7587   23.2856 H   0  0  0  0  0  0
  -22.4162  -11.9850   22.4730 H   0  0  0  0  0  0
  -21.1166  -13.1258   22.2647 H   0  0  0  0  0  0
  -24.6773  -15.8500   20.5184 H   0  0  0  0  0  0
  -26.2982  -15.6172   20.1056 H   0  0  0  0  0  0
  -26.7124  -32.5537   23.1164 H   0  0  0  0  0  0
  -25.0068  -33.9783   25.0490 H   0  0  0  0  0  0
  -22.6957  -31.3087   21.4090 H   0  0  0  0  0  0
  -23.3745  -35.9662   23.3324 H   0  0  0  0  0  0
  -24.3581  -36.8908   22.2048 H   0  0  0  0  0  0
  -23.7251  -37.6540   23.6631 H   0  0  0  0  0  0
  -26.0457  -31.5960   20.5920 H   0  0  0  0  0  0
  -26.8238  -30.8876   21.9786 H   0  0  0  0  0  0
  -28.1022  -29.0937   21.1629 H   0  0  0  0  0  0
  -26.0331  -25.9698   19.0082 H   0  0  0  0  0  0
  -23.9790  -27.2997   19.0275 H   0  0  0  0  0  0
  -23.7247  -30.5994   19.4038 H   0  0  0  0  0  0
  -22.7384  -29.2443   19.8655 H   0  0  0  0  0  0
  -25.1289  -36.1998   25.0835 H   0  0  0  0  0  0
  -20.9966  -28.3237   24.1424 H   0  0  0  0  0  0
  -20.5666  -26.2282   23.3603 H   0  0  0  0  0  0
  -21.6640  -26.7442   22.1207 H   0  0  0  0  0  0
  -19.6911  -25.6295   21.1238 H   0  0  0  0  0  0
  -19.6690  -27.3194   20.6740 H   0  0  0  0  0  0
  -17.4198  -26.6677   21.4017 H   0  0  0  0  0  0
  -18.0323  -26.0058   22.9004 H   0  0  0  0  0  0
  -19.7930  -30.7245   24.2309 H   0  0  0  0  0  0
  -17.5012  -31.6267   24.5158 H   0  0  0  0  0  0
  -15.5351  -30.3001   23.7624 H   0  0  0  0  0  0
  -15.8663  -28.0823   22.7063 H   0  0  0  0  0  0
  -24.5905  -30.7062   25.7782 H   0  0  0  0  0  0
  -24.8917  -32.2865   26.4906 H   0  0  0  0  0  0
  -25.8066  -30.8869   27.0218 H   0  0  0  0  0  0
  -26.2852  -29.6807   24.1145 H   0  0  0  0  0  0
  -27.4087  -29.7285   25.4546 H   0  0  0  0  0  0
  -27.8679  -30.4379   23.9237 H   0  0  0  0  0  0
  -27.2702  -33.3596   26.2097 H   0  0  0  0  0  0
  -28.3846  -32.6879   25.0282 H   0  0  0  0  0  0
  -28.0756  -31.8398   26.5350 H   0  0  0  0  0  0
  -28.2621  -38.0100   24.7498 H   0  0  0  0  0  0
  -28.1069  -36.2633   24.6313 H   0  0  0  0  0  0
  -27.2303  -37.1498   25.8870 H   0  0  0  0  0  0
  -20.9308  -29.8778   21.6953 H   0  0  0  0  0  0
  -26.0203  -38.2886   24.1375 H   0  0  0  0  0  0
  -27.9830  -22.0627   19.8310 H   0  0  0  0  0  0
  -31.9508  -19.1624   20.4993 H   0  0  0  0  0  0
  -30.0087  -23.6931   18.6997 H   0  0  0  0  0  0
  -31.3402  -23.8061   19.7714 H   0  0  0  0  0  0
  -30.0288  -17.3242   19.2635 H   0  0  0  0  0  0
  -28.6094  -17.3663   20.2543 H   0  0  0  0  0  0
  -30.2412  -25.2978   20.9617 H   0  0  0  0  0  0
  -29.2528  -24.0397   21.6017 H   0  0  0  0  0  0
  -30.0851  -17.2131   22.3250 H   0  0  0  0  0  0
  -31.4677  -16.9872   21.2797 H   0  0  0  0  0  0
  -27.4168  -24.8892   20.5669 H   0  0  0  0  0  0
  -28.1803  -24.9731   18.9926 H   0  0  0  0  0  0
  -29.1667  -15.1354   21.6791 H   0  0  0  0  0  0
  1 25  1  0  0  0
  1 30  2  0  0  0
  1 82  1  0  0  0
  2  3  1  0  0  0
  2 25  1  0  0  0
  2 85  1  0  0  0
  2 86  1  0  0  0
  3  4  1  0  0  0
  3 87  1  0  0  0
  3 88  1  0  0  0
  4  5  1  0  0  0
  4 89  1  0  0  0
  4 90  1  0  0  0
  5  6  1  0  0  0
  5 26  1  0  0  0
  5 91  1  0  0  0
  6 25  1  0  0  0
  6 92  1  0  0  0
  6 93  1  0  0  0
  7  8  2  0  0  0
  7 26  1  0  0  0
  7 29  1  0  0  0
  8  9  1  0  0  0
  8 22  1  0  0  0
  9 10  1  0  0  0
  9 27  2  0  0  0
 10 11  2  0  0  0
 10 15  1  0  0  0
 11 12  1  0  0  0
 11 94  1  0  0  0
 12 13  2  0  0  0
 12 95  1  0  0  0
 13 14  1  0  0  0
 13 31  1  0  0  0
 14 15  2  0  0  0
 14 96  1  0  0  0
 15 97  1  0  0  0
 16 17  2  0  0  0
 16 21  1  0  0  0
 16 31  1  0  0  0
 17 18  1  0  0  0
 17 98  1  0  0  0
 18 19  2  0  0  0
 18 99  1  0  0  0
 19 20  1  0  0  0
 19 24  1  0  0  0
 20 21  2  0  0  0
 20100  1  0  0  0
 21 23  1  0  0  0
 22 28  1  0  0  0
 22 32  2  0  0  0
 26 27  1  0  0  0
 28101  1  0  0  0
 28102  1  0  0  0
 29103  1  0  0  0
 29104  1  0  0  0
 33 34  1  0  0  0
 33 66  1  0  0  0
 33 70  2  0  0  0
 34 36  1  0  0  0
 34 59  1  0  0  0
 34105  1  0  0  0
 35 44  2  0  0  0
 35 45  1  0  0  0
 35 68  1  0  0  0
 36 56  1  0  0  0
 36106  1  0  0  0
 37 39  1  0  0  0
 37 47  1  0  0  0
 37 66  1  0  0  0
 37107  1  0  0  0
 38 43  2  0  0  0
 38 46  1  0  0  0
 38 47  1  0  0  0
 39 64  1  0  0  0
 39 67  2  0  0  0
 40 52  1  0  0  0
 40 53  2  0  0  0
 40 58  1  0  0  0
 41108  1  0  0  0
 41109  1  0  0  0
 41110  1  0  0  0
 41 48  1  0  0  0
 42 43  1  0  0  0
 42 66  1  0  0  0
 42111  1  0  0  0
 42112  1  0  0  0
 43 44  1  0  0  0
 44113  1  0  0  0
 45 46  2  0  0  0
 45114  1  0  0  0
 46115  1  0  0  0
 47116  1  0  0  0
 47117  1  0  0  0
 48 56  1  0  0  0
 48 65  1  0  0  0
 48118  1  0  0  0
 49 50  1  0  0  0
 49 53  1  0  0  0
 49 64  1  0  0  0
 49119  1  0  0  0
 50 51  1  0  0  0
 50120  1  0  0  0
 50121  1  0  0  0
 51 52  1  0  0  0
 51122  1  0  0  0
 51123  1  0  0  0
 52124  1  0  0  0
 52125  1  0  0  0
 53 54  1  0  0  0
 54 55  2  0  0  0
 54126  1  0  0  0
 55 57  1  0  0  0
 55127  1  0  0  0
 56 69  2  0  0  0
 57 58  2  0  0  0
 57128  1  0  0  0
 58129  1  0  0  0
 59 60  1  0  0  0
 59 61  1  0  0  0
 59 62  1  0  0  0
 60130  1  0  0  0
 60131  1  0  0  0
 60132  1  0  0  0
 61133  1  0  0  0
 61134  1  0  0  0
 61135  1  0  0  0
 62136  1  0  0  0
 62137  1  0  0  0
 62138  1  0  0  0
 63 65  1  0  0  0
 63139  1  0  0  0
 63140  1  0  0  0
 63141  1  0  0  0
 64142  1  0  0  0
 65143  1  0  0  0
 68 81  1  0  0  0
 71 73  2  0  0  0
 71 76  1  0  0  0
 71144  1  0  0  0
 72 74  1  0  0  0
 72 75  2  0  0  0
 72145  1  0  0  0
 73 75  1  0  0  0
 73 77  1  0  0  0
 74 76  2  0  0  0
 74 78  1  0  0  0
 75 83  1  0  0  0
 76 84  1  0  0  0
 77 79  1  0  0  0
 77146  1  0  0  0
 77147  1  0  0  0
 78 80  1  0  0  0
 78148  1  0  0  0
 78149  1  0  0  0
 79 81  1  0  0  0
 79150  1  0  0  0
 79151  1  0  0  0
 80 82  1  0  0  0
 80152  1  0  0  0
 80153  1  0  0  0
 81154  1  0  0  0
 81155  1  0  0  0
 82156  1  0  0  0
M  ISO  4   1 100  68 101  81 101  82 100
M  END
> <chiral flag>
0

> <version>
0

> <s_m_source_file>
/data/baiqing/PycharmProjects/Reinvent-master-3.2/result/LINK_invent/BTK/process_docking_weight1_custom_sum_contain_oxygen_bond_distance_aromatic_linkinvent_7_9_3/rearranged_h_0031.sdf

> <i_m_source_file_index>
88

> <r_mmod_Potential_Energy-OPLS-2005>
-64.5599975585938

> <r_mmod_Stretch_Energy-OPLS-2005>
40.4321670532227

> <r_mmod_Bend_Energy-OPLS-2005>
98.7011566162109

> <r_mmod_Torsional_Energy-OPLS-2005>
217.230133056641

> <r_mmod_Improper_Torsional_Energy-OPLS-2005>
3.43324995040894

> <r_mmod_Van_der_Waal_Energy-OPLS-2005>
154.138244628906

> <r_mmod_Electrostatic_Energy-OPLS-2005>
-385.114288330078

> <r_mmod_Solvation_Energy-OPLS-2005>
-205.660003662109

> <b_mmod_Minimization_Converged-OPLS-2005>
0

> <r_mmod_RMS_Derivative-OPLS-2005>
1.78586399555206

$$$$
88
                    3D
 Structure written by MMmdl.
159167  0  0  1  0            999 V2000
  -30.5197  -14.9980   20.3920 C   0  0  0  0  0  0
  -30.4441  -12.6076   19.5296 C   0  0  0  0  0  0
  -29.5375  -12.5320   18.2779 C   0  0  0  0  0  0
  -28.0684  -12.3162   18.6889 C   0  0  0  0  0  0
  -27.6358  -13.2578   19.8450 C   0  0  2  0  0  0
  -28.6719  -13.2985   20.9915 C   0  0  0  0  0  0
  -25.2456  -13.8232   20.5709 C   0  0  0  0  0  0
  -24.1778  -13.0453   20.9241 C   0  0  0  0  0  0
  -24.6414  -11.6940   20.8762 C   0  0  0  0  0  0
  -23.9113  -10.4289   21.0410 C   0  0  0  0  0  0
  -24.3661   -9.4194   21.9185 C   0  0  0  0  0  0
  -23.6320   -8.2234   22.0747 C   0  0  0  0  0  0
  -22.4296   -8.0292   21.3540 C   0  0  0  0  0  0
  -21.9934   -9.0280   20.4653 C   0  0  0  0  0  0
  -22.7278  -10.2151   20.3059 C   0  0  0  0  0  0
  -21.6850   -6.0753   22.5283 C   0  0  0  0  0  0
  -21.4009   -6.5648   23.8224 C   0  0  0  0  0  0
  -21.3659   -5.6788   24.9175 C   0  0  0  0  0  0
  -21.6045   -4.3055   24.7227 C   0  0  0  0  0  0
  -21.8812   -3.8155   23.4343 C   0  0  0  0  0  0
  -21.9182   -4.6975   22.3396 C   0  0  0  0  0  0
  -22.7781  -13.5218   21.1875 C   0  0  0  0  0  0
  -22.1650   -4.2168   21.0967 F   0  0  0  0  0  0
  -21.5629   -3.4532   25.7743 F   0  0  0  0  0  0
  -29.9533  -13.7167   20.4051 N   0  0  0  0  0  0
  -26.2911  -12.9504   20.3254 N   0  0  0  0  0  0
  -25.9365  -11.6629   20.5790 N   0  0  0  0  0  0
  -22.0409  -12.8231   22.0440 N   0  0  0  0  0  0
  -25.4094  -15.1953   20.4096 N   0  0  0  0  0  0
  -31.6905  -15.0728   20.0082 O   0  0  0  0  0  0
  -21.6634   -6.8910   21.4251 O   0  0  0  0  0  0
  -22.3466  -14.5523   20.6716 O   0  0  0  0  0  0
  -24.6463  -31.8365   23.1826 C   0  0  0  0  0  0
  -25.9218  -32.4651   23.8237 C   0  0  1  0  0  0
  -27.2397  -27.1104   20.1472 C   0  0  0  0  0  0
  -25.5930  -33.8455   24.2137 N   0  0  0  0  0  0
  -23.4527  -30.4514   21.5257 C   0  0  2  0  0  0
  -24.9078  -28.8672   20.1054 C   0  0  0  0  0  0
  -22.7586  -29.4489   22.4826 C   0  0  0  0  0  0
  -18.0304  -28.1393   22.8466 C   0  0  0  0  0  0
  -24.1491  -36.7244   23.2641 C   0  0  0  0  0  0
  -26.0084  -30.7022   21.3866 C   0  0  0  0  0  0
  -26.0817  -29.3107   20.7255 C   0  0  0  0  0  0
  -27.2416  -28.4463   20.7289 C   0  0  0  0  0  0
  -26.0365  -26.7652   19.4938 C   0  0  0  0  0  0
  -24.8986  -27.6093   19.4769 C   0  0  0  0  0  0
  -23.6837  -29.7720   20.1473 C   0  0  0  0  0  0
  -25.4122  -36.2996   24.0300 C   0  0  1  0  0  0
  -20.5917  -28.3706   23.1222 C   0  0  2  0  0  0
  -20.6773  -26.9401   22.5406 C   0  0  0  0  0  0
  -19.5758  -26.6363   21.5200 C   0  0  0  0  0  0
  -18.1940  -26.7923   22.1614 C   0  0  0  0  0  0
  -19.1567  -28.8871   23.2829 C   0  0  0  0  0  0
  -18.9479  -30.1468   23.8859 C   0  0  0  0  0  0
  -17.6479  -30.6582   24.0547 C   0  0  0  0  0  0
  -25.9066  -34.9372   23.5036 C   0  0  0  0  0  0
  -16.5366  -29.9076   23.6337 C   0  0  0  0  0  0
  -16.7291  -28.6495   23.0352 C   0  0  0  0  0  0
  -26.4526  -31.6570   25.0726 C   0  0  0  0  0  0
  -25.3683  -31.3815   26.1422 C   0  0  0  0  0  0
  -27.0399  -30.2944   24.6386 C   0  0  0  0  0  0
  -27.6046  -32.4359   25.7522 C   0  0  0  0  0  0
  -27.5568  -37.1779   24.8451 C   0  0  0  0  0  0
  -21.4269  -29.3020   22.3590 N   0  0  0  0  0  0
  -26.4278  -37.3718   23.9399 N   0  0  0  0  0  0
  -24.7218  -31.0187   22.0868 N   0  0  0  0  0  0
  -23.4210  -28.8048   23.2996 O   0  0  0  0  0  0
  -28.3227  -26.1556   20.2650 O   0  0  0  0  0  0
  -26.5664  -34.8884   22.4624 O   0  0  0  0  0  0
  -23.5575  -32.1257   23.7023 O   0  0  0  0  0  0
  -31.5701  -20.8419   20.8899 C   0  0  0  0  0  0
  -28.9596  -20.3796   20.2172 C   0  0  0  0  0  0
  -31.1689  -19.4963   20.6975 C   0  0  0  0  0  0
  -30.7160  -21.9680   20.7654 C   0  0  0  0  0  0
  -29.3393  -21.8211   20.4196 C   0  0  0  0  0  0
  -29.8399  -19.1693   20.3489 C   0  0  0  0  0  0
  -32.2248  -18.4098   20.8100 C   0  0  0  0  0  0
  -32.4155  -23.7413   20.0595 C   0  0  0  0  0  0
  -31.3507  -23.3206   21.0842 C   0  0  0  0  0  0
  -28.3418  -23.1667   20.4846 C   0  0  0  0  0  0
  -29.5202  -17.5846   19.9194 C   0  0  0  0  0  0
  -28.4495  -24.6879   19.7139 C   0  0  0  0  0  0
  -29.7398  -16.1705   20.6377 N   0  0  0  0  0  0
  -31.4830  -12.7465   19.2260 H   0  0  0  0  0  0
  -30.4283  -11.6630   20.0716 H   0  0  0  0  0  0
  -29.8698  -11.7218   17.6271 H   0  0  0  0  0  0
  -29.6308  -13.4470   17.6905 H   0  0  0  0  0  0
  -27.9634  -11.2797   19.0121 H   0  0  0  0  0  0
  -27.4101  -12.4301   17.8279 H   0  0  0  0  0  0
  -27.6019  -14.2575   19.4107 H   0  0  0  0  0  0
  -28.7568  -12.3255   21.4802 H   0  0  0  0  0  0
  -28.3600  -14.0090   21.7587 H   0  0  0  0  0  0
  -25.2810   -9.5668   22.4764 H   0  0  0  0  0  0
  -24.0026   -7.4619   22.7475 H   0  0  0  0  0  0
  -21.0844   -8.8828   19.8984 H   0  0  0  0  0  0
  -22.3735  -10.9705   19.6181 H   0  0  0  0  0  0
  -21.1993   -7.6160   23.9746 H   0  0  0  0  0  0
  -21.1489   -6.0506   25.9088 H   0  0  0  0  0  0
  -22.0588   -2.7623   23.2825 H   0  0  0  0  0  0
  -22.4028  -11.9942   22.4903 H   0  0  0  0  0  0
  -21.1030  -13.1285   22.2659 H   0  0  0  0  0  0
  -24.6349  -15.8437   20.5066 H   0  0  0  0  0  0
  -26.2468  -15.6297   20.0434 H   0  0  0  0  0  0
  -26.7282  -32.5244   23.0959 H   0  0  0  0  0  0
  -25.0018  -33.9557   25.0246 H   0  0  0  0  0  0
  -22.7555  -31.2766   21.3644 H   0  0  0  0  0  0
  -23.3733  -35.9594   23.3281 H   0  0  0  0  0  0
  -24.3564  -36.8914   22.2058 H   0  0  0  0  0  0
  -23.7287  -37.6446   23.6705 H   0  0  0  0  0  0
  -26.1683  -31.4594   20.6179 H   0  0  0  0  0  0
  -26.8739  -30.7488   22.0376 H   0  0  0  0  0  0
  -28.1369  -28.7815   21.2335 H   0  0  0  0  0  0
  -25.9396  -25.7953   19.0278 H   0  0  0  0  0  0
  -23.9987  -27.2625   18.9889 H   0  0  0  0  0  0
  -23.8203  -30.5418   19.3866 H   0  0  0  0  0  0
  -22.7997  -29.2129   19.8369 H   0  0  0  0  0  0
  -25.1324  -36.1786   25.0790 H   0  0  0  0  0  0
  -21.0003  -28.3288   24.1345 H   0  0  0  0  0  0
  -20.5627  -26.2318   23.3624 H   0  0  0  0  0  0
  -21.6641  -26.7376   22.1233 H   0  0  0  0  0  0
  -19.6903  -25.6258   21.1266 H   0  0  0  0  0  0
  -19.6710  -27.3141   20.6696 H   0  0  0  0  0  0
  -17.4207  -26.6656   21.4017 H   0  0  0  0  0  0
  -18.0348  -26.0082   22.9031 H   0  0  0  0  0  0
  -19.7955  -30.7289   24.2212 H   0  0  0  0  0  0
  -17.5031  -31.6257   24.5155 H   0  0  0  0  0  0
  -15.5368  -30.2966   23.7676 H   0  0  0  0  0  0
  -15.8686  -28.0801   22.7092 H   0  0  0  0  0  0
  -24.5826  -30.7200   25.7752 H   0  0  0  0  0  0
  -24.8918  -32.3029   26.4781 H   0  0  0  0  0  0
  -25.7948  -30.9025   27.0245 H   0  0  0  0  0  0
  -26.3034  -29.6661   24.1363 H   0  0  0  0  0  0
  -27.3915  -29.7285   25.5026 H   0  0  0  0  0  0
  -27.8987  -30.4143   23.9778 H   0  0  0  0  0  0
  -27.2604  -33.3664   26.2055 H   0  0  0  0  0  0
  -28.3888  -32.6925   25.0381 H   0  0  0  0  0  0
  -28.0673  -31.8517   26.5491 H   0  0  0  0  0  0
  -28.2575  -38.0082   24.7469 H   0  0  0  0  0  0
  -28.1076  -36.2606   24.6297 H   0  0  0  0  0  0
  -27.2275  -37.1449   25.8854 H   0  0  0  0  0  0
  -20.9484  -29.8747   21.6786 H   0  0  0  0  0  0
  -26.0121  -38.2777   24.1410 H   0  0  0  0  0  0
  -32.6052  -21.0244   21.1483 H   0  0  0  0  0  0
  -27.9296  -20.1965   19.9419 H   0  0  0  0  0  0
  -33.2070  -18.8135   21.0594 H   0  0  0  0  0  0
  -32.3203  -17.8810   19.8612 H   0  0  0  0  0  0
  -31.9555  -17.6872   21.5805 H   0  0  0  0  0  0
  -32.8779  -24.6834   20.3554 H   0  0  0  0  0  0
  -31.9826  -23.8779   19.0690 H   0  0  0  0  0  0
  -33.2168  -23.0046   19.9757 H   0  0  0  0  0  0
  -31.8185  -23.2404   22.0660 H   0  0  0  0  0  0
  -30.6201  -24.1172   21.1927 H   0  0  0  0  0  0
  -28.2696  -23.3949   21.5468 H   0  0  0  0  0  0
  -27.3505  -22.7878   20.2358 H   0  0  0  0  0  0
  -30.0074  -17.4708   18.9492 H   0  0  0  0  0  0
  -28.4577  -17.5889   19.6761 H   0  0  0  0  0  0
  -27.8259  -24.6277   18.8235 H   0  0  0  0  0  0
  -29.4502  -24.6965   19.2832 H   0  0  0  0  0  0
  -28.9144  -15.9231   21.1637 H   0  0  0  0  0  0
  1 25  1  0  0  0
  1 30  2  0  0  0
  1 83  1  0  0  0
  2  3  1  0  0  0
  2 25  1  0  0  0
  2 84  1  0  0  0
  2 85  1  0  0  0
  3  4  1  0  0  0
  3 86  1  0  0  0
  3 87  1  0  0  0
  4  5  1  0  0  0
  4 88  1  0  0  0
  4 89  1  0  0  0
  5  6  1  0  0  0
  5 26  1  0  0  0
  5 90  1  0  0  0
  6 25  1  0  0  0
  6 91  1  0  0  0
  6 92  1  0  0  0
  7  8  2  0  0  0
  7 26  1  0  0  0
  7 29  1  0  0  0
  8  9  1  0  0  0
  8 22  1  0  0  0
  9 10  1  0  0  0
  9 27  2  0  0  0
 10 11  2  0  0  0
 10 15  1  0  0  0
 11 12  1  0  0  0
 11 93  1  0  0  0
 12 13  2  0  0  0
 12 94  1  0  0  0
 13 14  1  0  0  0
 13 31  1  0  0  0
 14 15  2  0  0  0
 14 95  1  0  0  0
 15 96  1  0  0  0
 16 17  2  0  0  0
 16 21  1  0  0  0
 16 31  1  0  0  0
 17 18  1  0  0  0
 17 97  1  0  0  0
 18 19  2  0  0  0
 18 98  1  0  0  0
 19 20  1  0  0  0
 19 24  1  0  0  0
 20 21  2  0  0  0
 20 99  1  0  0  0
 21 23  1  0  0  0
 22 28  1  0  0  0
 22 32  2  0  0  0
 26 27  1  0  0  0
 28100  1  0  0  0
 28101  1  0  0  0
 29102  1  0  0  0
 29103  1  0  0  0
 33 34  1  0  0  0
 33 66  1  0  0  0
 33 70  2  0  0  0
 34 36  1  0  0  0
 34 59  1  0  0  0
 34104  1  0  0  0
 35 44  2  0  0  0
 35 45  1  0  0  0
 35 68  1  0  0  0
 36 56  1  0  0  0
 36105  1  0  0  0
 37 39  1  0  0  0
 37 47  1  0  0  0
 37 66  1  0  0  0
 37106  1  0  0  0
 38 43  2  0  0  0
 38 46  1  0  0  0
 38 47  1  0  0  0
 39 64  1  0  0  0
 39 67  2  0  0  0
 40 52  1  0  0  0
 40 53  2  0  0  0
 40 58  1  0  0  0
 41107  1  0  0  0
 41108  1  0  0  0
 41109  1  0  0  0
 41 48  1  0  0  0
 42 43  1  0  0  0
 42 66  1  0  0  0
 42110  1  0  0  0
 42111  1  0  0  0
 43 44  1  0  0  0
 44112  1  0  0  0
 45 46  2  0  0  0
 45113  1  0  0  0
 46114  1  0  0  0
 47115  1  0  0  0
 47116  1  0  0  0
 48 56  1  0  0  0
 48 65  1  0  0  0
 48117  1  0  0  0
 49 50  1  0  0  0
 49 53  1  0  0  0
 49 64  1  0  0  0
 49118  1  0  0  0
 50 51  1  0  0  0
 50119  1  0  0  0
 50120  1  0  0  0
 51 52  1  0  0  0
 51121  1  0  0  0
 51122  1  0  0  0
 52123  1  0  0  0
 52124  1  0  0  0
 53 54  1  0  0  0
 54 55  2  0  0  0
 54125  1  0  0  0
 55 57  1  0  0  0
 55126  1  0  0  0
 56 69  2  0  0  0
 57 58  2  0  0  0
 57127  1  0  0  0
 58128  1  0  0  0
 59 60  1  0  0  0
 59 61  1  0  0  0
 59 62  1  0  0  0
 60129  1  0  0  0
 60130  1  0  0  0
 60131  1  0  0  0
 61132  1  0  0  0
 61133  1  0  0  0
 61134  1  0  0  0
 62135  1  0  0  0
 62136  1  0  0  0
 62137  1  0  0  0
 63 65  1  0  0  0
 63138  1  0  0  0
 63139  1  0  0  0
 63140  1  0  0  0
 64141  1  0  0  0
 65142  1  0  0  0
 68 82  1  0  0  0
 71 73  2  0  0  0
 71 74  1  0  0  0
 71143  1  0  0  0
 72 75  1  0  0  0
 72 76  2  0  0  0
 72144  1  0  0  0
 73 76  1  0  0  0
 73 77  1  0  0  0
 74 75  2  0  0  0
 74 79  1  0  0  0
 75 80  1  0  0  0
 76 81  1  0  0  0
 77145  1  0  0  0
 77146  1  0  0  0
 77147  1  0  0  0
 78 79  1  0  0  0
 78148  1  0  0  0
 78149  1  0  0  0
 78150  1  0  0  0
 79151  1  0  0  0
 79152  1  0  0  0
 80 82  1  0  0  0
 80153  1  0  0  0
 80154  1  0  0  0
 81 83  1  0  0  0
 81155  1  0  0  0
 81156  1  0  0  0
 82157  1  0  0  0
 82158  1  0  0  0
 83159  1  0  0  0
M  ISO  4   1 100  68 101  82 101  83 100
M  END
> <chiral flag>
0

> <version>
0

> <s_m_source_file>
/data/baiqing/PycharmProjects/Reinvent-master-3.2/result/LINK_invent/BTK/process_docking_weight1_custom_sum_contain_oxygen_bond_distance_aromatic_linkinvent_7_9_3/rearranged_h_0031.sdf

> <i_m_source_file_index>
89

> <r_mmod_Potential_Energy-OPLS-2005>
608.161437988281

> <r_mmod_Stretch_Energy-OPLS-2005>
308.503936767578

> <r_mmod_Bend_Energy-OPLS-2005>
330.315734863281

> <r_mmod_Torsional_Energy-OPLS-2005>
234.647476196289

> <r_mmod_Improper_Torsional_Energy-OPLS-2005>
7.94525623321533

> <r_mmod_Van_der_Waal_Energy-OPLS-2005>
126.453620910645

> <r_mmod_Electrostatic_Energy-OPLS-2005>
-408.642486572266

> <r_mmod_Solvation_Energy-OPLS-2005>
-211.952209472656

> <b_mmod_Minimization_Converged-OPLS-2005>
0

> <r_mmod_RMS_Derivative-OPLS-2005>
3.44441342353821

$$$$
89
                    3D
 Structure written by MMmdl.
158166  0  0  1  0            999 V2000
  -30.7199  -14.4244   20.4911 C   0  0  0  0  0  0
  -30.4100  -12.2525   19.4065 C   0  0  0  0  0  0
  -29.4776  -12.4602   18.1959 C   0  0  0  0  0  0
  -28.0064  -12.3162   18.6268 C   0  0  0  0  0  0
  -27.6586  -13.1855   19.8660 C   0  0  2  0  0  0
  -28.7068  -13.0031   20.9883 C   0  0  0  0  0  0
  -25.2612  -13.8130   20.5779 C   0  0  0  0  0  0
  -24.1842  -13.0441   20.9201 C   0  0  0  0  0  0
  -24.6329  -11.6882   20.8698 C   0  0  0  0  0  0
  -23.8999  -10.4271   21.0382 C   0  0  0  0  0  0
  -24.3587   -9.4194   21.9144 C   0  0  0  0  0  0
  -23.6308   -8.2215   22.0717 C   0  0  0  0  0  0
  -22.4293   -8.0242   21.3517 C   0  0  0  0  0  0
  -21.9901   -9.0173   20.4611 C   0  0  0  0  0  0
  -22.7179  -10.2076   20.3025 C   0  0  0  0  0  0
  -21.6846   -6.0730   22.5263 C   0  0  0  0  0  0
  -21.3996   -6.5631   23.8192 C   0  0  0  0  0  0
  -21.3652   -5.6789   24.9158 C   0  0  0  0  0  0
  -21.6063   -4.3055   24.7217 C   0  0  0  0  0  0
  -21.8823   -3.8144   23.4336 C   0  0  0  0  0  0
  -21.9216   -4.6961   22.3396 C   0  0  0  0  0  0
  -22.7847  -13.5203   21.1912 C   0  0  0  0  0  0
  -22.1687   -4.2130   21.0978 F   0  0  0  0  0  0
  -21.5637   -3.4557   25.7736 F   0  0  0  0  0  0
  -30.0386  -13.2568   20.4117 N   0  0  0  0  0  0
  -26.3007  -12.9251   20.3383 N   0  0  0  0  0  0
  -25.9243  -11.6416   20.5677 N   0  0  0  0  0  0
  -22.0563  -12.8095   22.0449 N   0  0  0  0  0  0
  -25.4426  -15.1863   20.4205 N   0  0  0  0  0  0
  -31.8909  -14.5667   20.1408 O   0  0  0  0  0  0
  -21.6642   -6.8866   21.4233 O   0  0  0  0  0  0
  -22.3486  -14.5514   20.6820 O   0  0  0  0  0  0
  -24.6030  -31.8731   23.2121 C   0  0  0  0  0  0
  -25.8969  -32.4844   23.8366 C   0  0  1  0  0  0
  -27.2363  -27.4910   20.0817 C   0  0  0  0  0  0
  -25.5900  -33.8642   24.2305 N   0  0  0  0  0  0
  -23.3892  -30.4941   21.5494 C   0  0  2  0  0  0
  -24.8343  -28.9572   20.1277 C   0  0  0  0  0  0
  -22.7340  -29.4682   22.4983 C   0  0  0  0  0  0
  -18.0283  -28.1354   22.8469 C   0  0  0  0  0  0
  -24.1545  -36.7353   23.2634 C   0  0  0  0  0  0
  -25.9103  -30.8506   21.3655 C   0  0  0  0  0  0
  -25.9882  -29.4858   20.7188 C   0  0  0  0  0  0
  -27.1886  -28.7533   20.7038 C   0  0  0  0  0  0
  -26.0672  -26.9526   19.5026 C   0  0  0  0  0  0
  -24.8646  -27.6859   19.5283 C   0  0  0  0  0  0
  -23.5943  -29.8190   20.1665 C   0  0  0  0  0  0
  -25.4162  -36.3119   24.0303 C   0  0  1  0  0  0
  -20.5849  -28.3636   23.1364 C   0  0  2  0  0  0
  -20.6792  -26.9377   22.5452 C   0  0  0  0  0  0
  -19.5792  -26.6343   21.5226 C   0  0  0  0  0  0
  -18.1952  -26.7905   22.1590 C   0  0  0  0  0  0
  -19.1513  -28.8795   23.2914 C   0  0  0  0  0  0
  -18.9435  -30.1415   23.8912 C   0  0  0  0  0  0
  -17.6436  -30.6551   24.0544 C   0  0  0  0  0  0
  -25.9060  -34.9483   23.5095 C   0  0  0  0  0  0
  -16.5334  -29.9058   23.6300 C   0  0  0  0  0  0
  -16.7268  -28.6480   23.0298 C   0  0  0  0  0  0
  -26.4429  -31.6606   25.0668 C   0  0  0  0  0  0
  -25.3725  -31.3630   26.1428 C   0  0  0  0  0  0
  -27.0266  -30.3069   24.5993 C   0  0  0  0  0  0
  -27.5994  -32.4305   25.7470 C   0  0  0  0  0  0
  -27.5610  -37.1855   24.8428 C   0  0  0  0  0  0
  -21.4085  -29.3015   22.3756 N   0  0  0  0  0  0
  -26.4348  -37.3781   23.9342 N   0  0  0  0  0  0
  -24.6506  -31.0871   22.1009 N   0  0  0  0  0  0
  -23.4151  -28.8230   23.2988 O   0  0  0  0  0  0
  -28.4567  -26.8950   19.9472 O   0  0  0  0  0  0
  -26.5590  -34.8917   22.4630 O   0  0  0  0  0  0
  -23.5249  -32.1451   23.7575 O   0  0  0  0  0  0
  -29.2641  -23.3850   19.3746 C   0  0  0  0  0  0
  -28.8106  -25.0840   21.4852 C   0  0  0  0  0  0
  -28.8246  -24.6847   19.0876 C   0  0  0  0  0  0
  -28.6297  -25.5635   20.1721 C   0  0  0  0  0  0
  -29.5041  -23.0253   20.7074 C   0  0  0  0  0  0
  -28.6508  -25.1192   17.6422 C   0  0  0  0  0  0
  -30.1837  -21.7104   20.9975 C   0  0  0  0  0  0
  -29.2434  -20.5040   21.0815 C   0  0  0  0  0  0
  -30.0694  -19.2756   20.6831 C   0  0  0  0  0  0
  -29.4116  -17.9183   20.9205 C   0  0  0  0  0  0
  -30.3813  -16.8494   20.3926 C   0  0  0  0  0  0
  -29.2452  -23.8316   21.7551 N   0  0  0  0  0  0
  -29.9430  -15.4967   20.6998 N   0  0  0  0  0  0
  -31.4538  -12.3280   19.0929 H   0  0  0  0  0  0
  -30.2883  -11.2495   19.8188 H   0  0  0  0  0  0
  -29.7064  -11.7261   17.4167 H   0  0  0  0  0  0
  -29.6366  -13.4464   17.7561 H   0  0  0  0  0  0
  -27.8445  -11.2610   18.8638 H   0  0  0  0  0  0
  -27.3343  -12.5474   17.7995 H   0  0  0  0  0  0
  -27.7045  -14.2193   19.5305 H   0  0  0  0  0  0
  -28.6712  -11.9940   21.3929 H   0  0  0  0  0  0
  -28.4804  -13.6635   21.8300 H   0  0  0  0  0  0
  -25.2715   -9.5681   22.4724 H   0  0  0  0  0  0
  -24.0027   -7.4585   22.7402 H   0  0  0  0  0  0
  -21.0846   -8.8621   19.8889 H   0  0  0  0  0  0
  -22.3580  -10.9601   19.6139 H   0  0  0  0  0  0
  -21.1944   -7.6129   23.9674 H   0  0  0  0  0  0
  -21.1491   -6.0533   25.9055 H   0  0  0  0  0  0
  -22.0623   -2.7616   23.2835 H   0  0  0  0  0  0
  -22.4262  -11.9732   22.4714 H   0  0  0  0  0  0
  -21.1149  -13.0962   22.2735 H   0  0  0  0  0  0
  -24.6805  -15.8516   20.5123 H   0  0  0  0  0  0
  -26.2888  -15.5984   20.0503 H   0  0  0  0  0  0
  -26.7043  -32.5550   23.1138 H   0  0  0  0  0  0
  -25.0111  -33.9827   25.0493 H   0  0  0  0  0  0
  -22.6731  -31.3061   21.4075 H   0  0  0  0  0  0
  -23.3778  -35.9722   23.3303 H   0  0  0  0  0  0
  -24.3659  -36.8960   22.2052 H   0  0  0  0  0  0
  -23.7366  -37.6567   23.6678 H   0  0  0  0  0  0
  -26.0221  -31.6259   20.6064 H   0  0  0  0  0  0
  -26.7990  -30.8971   21.9814 H   0  0  0  0  0  0
  -28.0903  -29.1660   21.1341 H   0  0  0  0  0  0
  -26.0878  -25.9922   19.0073 H   0  0  0  0  0  0
  -23.9740  -27.2736   19.0768 H   0  0  0  0  0  0
  -23.7059  -30.5854   19.4015 H   0  0  0  0  0  0
  -22.7189  -29.2388   19.8703 H   0  0  0  0  0  0
  -25.1389  -36.1976   25.0800 H   0  0  0  0  0  0
  -20.9943  -28.3220   24.1484 H   0  0  0  0  0  0
  -20.5739  -26.2223   23.3611 H   0  0  0  0  0  0
  -21.6682  -26.7480   22.1235 H   0  0  0  0  0  0
  -19.6993  -25.6256   21.1255 H   0  0  0  0  0  0
  -19.6782  -27.3145   20.6751 H   0  0  0  0  0  0
  -17.4253  -26.6629   21.3964 H   0  0  0  0  0  0
  -18.0365  -26.0050   22.8989 H   0  0  0  0  0  0
  -19.7904  -30.7230   24.2285 H   0  0  0  0  0  0
  -17.4983  -31.6246   24.5134 H   0  0  0  0  0  0
  -15.5333  -30.2943   23.7623 H   0  0  0  0  0  0
  -15.8671  -28.0816   22.6965 H   0  0  0  0  0  0
  -24.5858  -30.7066   25.7691 H   0  0  0  0  0  0
  -24.9003  -32.2784   26.5013 H   0  0  0  0  0  0
  -25.8124  -30.8627   27.0077 H   0  0  0  0  0  0
  -26.2797  -29.6833   24.1076 H   0  0  0  0  0  0
  -27.4084  -29.7277   25.4407 H   0  0  0  0  0  0
  -27.8614  -30.4361   23.9097 H   0  0  0  0  0  0
  -27.2578  -33.3551   26.2127 H   0  0  0  0  0  0
  -28.3819  -32.6947   25.0352 H   0  0  0  0  0  0
  -28.0666  -31.8381   26.5335 H   0  0  0  0  0  0
  -28.2608  -38.0163   24.7488 H   0  0  0  0  0  0
  -28.1139  -36.2706   24.6302 H   0  0  0  0  0  0
  -27.2304  -37.1523   25.8812 H   0  0  0  0  0  0
  -20.9210  -29.8690   21.6971 H   0  0  0  0  0  0
  -26.0237  -38.2862   24.1286 H   0  0  0  0  0  0
  -29.4919  -22.6885   18.5785 H   0  0  0  0  0  0
  -28.7095  -25.7447   22.3353 H   0  0  0  0  0  0
  -29.1285  -26.0786   17.4484 H   0  0  0  0  0  0
  -27.6002  -25.2001   17.3700 H   0  0  0  0  0  0
  -29.0933  -24.3802   16.9731 H   0  0  0  0  0  0
  -30.8115  -21.7811   21.8887 H   0  0  0  0  0  0
  -30.8792  -21.5593   20.1694 H   0  0  0  0  0  0
  -28.8099  -20.4145   22.0828 H   0  0  0  0  0  0
  -28.4080  -20.6283   20.3862 H   0  0  0  0  0  0
  -31.0217  -19.2865   21.2197 H   0  0  0  0  0  0
  -30.3325  -19.3636   19.6219 H   0  0  0  0  0  0
  -28.4540  -17.8803   20.3947 H   0  0  0  0  0  0
  -29.1912  -17.7743   21.9840 H   0  0  0  0  0  0
  -31.3863  -17.0118   20.8020 H   0  0  0  0  0  0
  -30.4760  -16.9432   19.3057 H   0  0  0  0  0  0
  -28.9669  -15.3335   20.8791 H   0  0  0  0  0  0
  1 25  1  0  0  0
  1 30  2  0  0  0
  1 83  1  0  0  0
  2  3  1  0  0  0
  2 25  1  0  0  0
  2 84  1  0  0  0
  2 85  1  0  0  0
  3  4  1  0  0  0
  3 86  1  0  0  0
  3 87  1  0  0  0
  4  5  1  0  0  0
  4 88  1  0  0  0
  4 89  1  0  0  0
  5  6  1  0  0  0
  5 26  1  0  0  0
  5 90  1  0  0  0
  6 25  1  0  0  0
  6 91  1  0  0  0
  6 92  1  0  0  0
  7  8  2  0  0  0
  7 26  1  0  0  0
  7 29  1  0  0  0
  8  9  1  0  0  0
  8 22  1  0  0  0
  9 10  1  0  0  0
  9 27  2  0  0  0
 10 11  2  0  0  0
 10 15  1  0  0  0
 11 12  1  0  0  0
 11 93  1  0  0  0
 12 13  2  0  0  0
 12 94  1  0  0  0
 13 14  1  0  0  0
 13 31  1  0  0  0
 14 15  2  0  0  0
 14 95  1  0  0  0
 15 96  1  0  0  0
 16 17  2  0  0  0
 16 21  1  0  0  0
 16 31  1  0  0  0
 17 18  1  0  0  0
 17 97  1  0  0  0
 18 19  2  0  0  0
 18 98  1  0  0  0
 19 20  1  0  0  0
 19 24  1  0  0  0
 20 21  2  0  0  0
 20 99  1  0  0  0
 21 23  1  0  0  0
 22 28  1  0  0  0
 22 32  2  0  0  0
 26 27  1  0  0  0
 28100  1  0  0  0
 28101  1  0  0  0
 29102  1  0  0  0
 29103  1  0  0  0
 33 34  1  0  0  0
 33 66  1  0  0  0
 33 70  2  0  0  0
 34 36  1  0  0  0
 34 59  1  0  0  0
 34104  1  0  0  0
 35 44  2  0  0  0
 35 45  1  0  0  0
 35 68  1  0  0  0
 36 56  1  0  0  0
 36105  1  0  0  0
 37 39  1  0  0  0
 37 47  1  0  0  0
 37 66  1  0  0  0
 37106  1  0  0  0
 38 43  2  0  0  0
 38 46  1  0  0  0
 38 47  1  0  0  0
 39 64  1  0  0  0
 39 67  2  0  0  0
 40 52  1  0  0  0
 40 53  2  0  0  0
 40 58  1  0  0  0
 41107  1  0  0  0
 41108  1  0  0  0
 41109  1  0  0  0
 41 48  1  0  0  0
 42 43  1  0  0  0
 42 66  1  0  0  0
 42110  1  0  0  0
 42111  1  0  0  0
 43 44  1  0  0  0
 44112  1  0  0  0
 45 46  2  0  0  0
 45113  1  0  0  0
 46114  1  0  0  0
 47115  1  0  0  0
 47116  1  0  0  0
 48 56  1  0  0  0
 48 65  1  0  0  0
 48117  1  0  0  0
 49 50  1  0  0  0
 49 53  1  0  0  0
 49 64  1  0  0  0
 49118  1  0  0  0
 50 51  1  0  0  0
 50119  1  0  0  0
 50120  1  0  0  0
 51 52  1  0  0  0
 51121  1  0  0  0
 51122  1  0  0  0
 52123  1  0  0  0
 52124  1  0  0  0
 53 54  1  0  0  0
 54 55  2  0  0  0
 54125  1  0  0  0
 55 57  1  0  0  0
 55126  1  0  0  0
 56 69  2  0  0  0
 57 58  2  0  0  0
 57127  1  0  0  0
 58128  1  0  0  0
 59 60  1  0  0  0
 59 61  1  0  0  0
 59 62  1  0  0  0
 60129  1  0  0  0
 60130  1  0  0  0
 60131  1  0  0  0
 61132  1  0  0  0
 61133  1  0  0  0
 61134  1  0  0  0
 62135  1  0  0  0
 62136  1  0  0  0
 62137  1  0  0  0
 63 65  1  0  0  0
 63138  1  0  0  0
 63139  1  0  0  0
 63140  1  0  0  0
 64141  1  0  0  0
 65142  1  0  0  0
 68 74  1  0  0  0
 71 73  2  0  0  0
 71 75  1  0  0  0
 71143  1  0  0  0
 72 74  2  0  0  0
 72 82  1  0  0  0
 72144  1  0  0  0
 73 74  1  0  0  0
 73 76  1  0  0  0
 75 77  1  0  0  0
 75 82  2  0  0  0
 76145  1  0  0  0
 76146  1  0  0  0
 76147  1  0  0  0
 77 78  1  0  0  0
 77148  1  0  0  0
 77149  1  0  0  0
 78 79  1  0  0  0
 78150  1  0  0  0
 78151  1  0  0  0
 79 80  1  0  0  0
 79152  1  0  0  0
 79153  1  0  0  0
 80 81  1  0  0  0
 80154  1  0  0  0
 80155  1  0  0  0
 81 83  1  0  0  0
 81156  1  0  0  0
 81157  1  0  0  0
 83158  1  0  0  0
M  ISO  4   1 100  68 101  74 101  83 100
M  END
> <chiral flag>
0

> <version>
0

> <s_m_source_file>
/data/baiqing/PycharmProjects/Reinvent-master-3.2/result/LINK_invent/BTK/process_docking_weight1_custom_sum_contain_oxygen_bond_distance_aromatic_linkinvent_7_9_3/rearranged_h_0031.sdf

> <i_m_source_file_index>
90

> <r_mmod_Potential_Energy-OPLS-2005>
-167.632141113281

> <r_mmod_Stretch_Energy-OPLS-2005>
28.2108726501465

> <r_mmod_Bend_Energy-OPLS-2005>
94.658447265625

> <r_mmod_Torsional_Energy-OPLS-2005>
214.3046875

> <r_mmod_Improper_Torsional_Energy-OPLS-2005>
9.39733123779297

> <r_mmod_Van_der_Waal_Energy-OPLS-2005>
156.476547241211

> <r_mmod_Electrostatic_Energy-OPLS-2005>
-473.880859375

> <r_mmod_Solvation_Energy-OPLS-2005>
-214.407806396484

> <b_mmod_Minimization_Converged-OPLS-2005>
0

> <r_mmod_RMS_Derivative-OPLS-2005>
7.59508323669434

$$$$
90
                    3D
 Structure written by MMmdl.
162170  0  0  1  0            999 V2000
  -30.7972  -14.3466   20.6903 C   0  0  0  0  0  0
  -30.4098  -12.2857   19.3933 C   0  0  0  0  0  0
  -29.4795  -12.5161   18.1899 C   0  0  0  0  0  0
  -28.0049  -12.3756   18.6107 C   0  0  0  0  0  0
  -27.6647  -13.2057   19.8762 C   0  0  2  0  0  0
  -28.7038  -12.9657   20.9949 C   0  0  0  0  0  0
  -25.2605  -13.8167   20.5678 C   0  0  0  0  0  0
  -24.1846  -13.0445   20.9167 C   0  0  0  0  0  0
  -24.6396  -11.6908   20.8722 C   0  0  0  0  0  0
  -23.9059  -10.4292   21.0394 C   0  0  0  0  0  0
  -24.3605   -9.4219   21.9186 C   0  0  0  0  0  0
  -23.6281   -8.2260   22.0766 C   0  0  0  0  0  0
  -22.4269   -8.0285   21.3543 C   0  0  0  0  0  0
  -21.9905   -9.0257   20.4641 C   0  0  0  0  0  0
  -22.7234  -10.2135   20.3044 C   0  0  0  0  0  0
  -21.6852   -6.0734   22.5281 C   0  0  0  0  0  0
  -21.4010   -6.5643   23.8219 C   0  0  0  0  0  0
  -21.3654   -5.6791   24.9174 C   0  0  0  0  0  0
  -21.6043   -4.3050   24.7226 C   0  0  0  0  0  0
  -21.8823   -3.8141   23.4344 C   0  0  0  0  0  0
  -21.9195   -4.6958   22.3403 C   0  0  0  0  0  0
  -22.7865  -13.5245   21.1816 C   0  0  0  0  0  0
  -22.1659   -4.2146   21.0980 F   0  0  0  0  0  0
  -21.5634   -3.4537   25.7737 F   0  0  0  0  0  0
  -30.0484  -13.2384   20.4541 N   0  0  0  0  0  0
  -26.3044  -12.9341   20.3377 N   0  0  0  0  0  0
  -25.9326  -11.6488   20.5756 N   0  0  0  0  0  0
  -22.0490  -12.8234   22.0364 N   0  0  0  0  0  0
  -25.4331  -15.1888   20.4097 N   0  0  0  0  0  0
  -31.7912  -14.6461   20.0230 O   0  0  0  0  0  0
  -21.6642   -6.8876   21.4240 O   0  0  0  0  0  0
  -22.3548  -14.5549   20.6666 O   0  0  0  0  0  0
  -24.6128  -31.8700   23.2117 C   0  0  0  0  0  0
  -25.9035  -32.4823   23.8416 C   0  0  1  0  0  0
  -27.2340  -27.4528   20.0908 C   0  0  0  0  0  0
  -25.5917  -33.8626   24.2352 N   0  0  0  0  0  0
  -23.4010  -30.4899   21.5521 C   0  0  2  0  0  0
  -24.8483  -28.9571   20.1156 C   0  0  0  0  0  0
  -22.7408  -29.4652   22.5019 C   0  0  0  0  0  0
  -18.0271  -28.1370   22.8486 C   0  0  0  0  0  0
  -24.1484  -36.7297   23.2638 C   0  0  0  0  0  0
  -25.9278  -30.8361   21.3658 C   0  0  0  0  0  0
  -26.0044  -29.4696   20.7193 C   0  0  0  0  0  0
  -27.2013  -28.7211   20.7137 C   0  0  0  0  0  0
  -26.0705  -26.9533   19.4757 C   0  0  0  0  0  0
  -24.8751  -27.6960   19.4925 C   0  0  0  0  0  0
  -23.6085  -29.8201   20.1662 C   0  0  0  0  0  0
  -25.4105  -36.3100   24.0338 C   0  0  1  0  0  0
  -20.5857  -28.3658   23.1326 C   0  0  2  0  0  0
  -20.6759  -26.9403   22.5403 C   0  0  0  0  0  0
  -19.5734  -26.6389   21.5202 C   0  0  0  0  0  0
  -18.1914  -26.7928   22.1614 C   0  0  0  0  0  0
  -19.1518  -28.8832   23.2897 C   0  0  0  0  0  0
  -18.9447  -30.1437   23.8906 C   0  0  0  0  0  0
  -17.6445  -30.6579   24.0564 C   0  0  0  0  0  0
  -25.9035  -34.9470   23.5135 C   0  0  0  0  0  0
  -16.5336  -29.9080   23.6325 C   0  0  0  0  0  0
  -16.7261  -28.6493   23.0347 C   0  0  0  0  0  0
  -26.4472  -31.6578   25.0727 C   0  0  0  0  0  0
  -25.3742  -31.3627   26.1465 C   0  0  0  0  0  0
  -27.0328  -30.3039   24.6059 C   0  0  0  0  0  0
  -27.6044  -32.4302   25.7510 C   0  0  0  0  0  0
  -27.5579  -37.1812   24.8462 C   0  0  0  0  0  0
  -21.4136  -29.3029   22.3742 N   0  0  0  0  0  0
  -26.4280  -37.3793   23.9417 N   0  0  0  0  0  0
  -24.6654  -31.0803   22.1018 N   0  0  0  0  0  0
  -23.4181  -28.8209   23.3074 O   0  0  0  0  0  0
  -28.3800  -26.6994   20.0228 O   0  0  0  0  0  0
  -26.5586  -34.8913   22.4690 O   0  0  0  0  0  0
  -23.5321  -32.1476   23.7492 O   0  0  0  0  0  0
  -29.0385  -22.7431   22.8948 C   0  0  0  0  0  0
  -28.3702  -23.8817   20.4198 C   0  0  0  0  0  0
  -29.1224  -24.1411   22.7225 C   0  0  0  0  0  0
  -28.6140  -21.9052   21.8438 C   0  0  0  0  0  0
  -28.7841  -24.7269   21.4758 C   0  0  0  0  0  0
  -28.2825  -22.4847   20.5961 C   0  0  0  0  0  0
  -29.5816  -24.9941   23.8935 C   0  0  0  0  0  0
  -28.5186  -20.4015   22.0884 C   0  0  0  0  0  0
  -28.8946  -26.2423   21.2719 C   0  0  0  0  0  0
  -29.7933  -19.6501   21.6687 C   0  0  0  0  0  0
  -29.7731  -18.1514   22.0271 C   0  0  0  0  0  0
  -31.1317  -17.4816   21.7579 C   0  0  0  0  0  0
  -31.3004  -16.0844   22.3878 C   0  0  0  0  0  0
  -30.4603  -15.0511   21.7783 N   0  0  0  0  0  0
  -27.7730  -21.5058   19.2653 Cl  0  0  0  0  0  0
  -31.4530  -12.3748   19.0846 H   0  0  0  0  0  0
  -30.3020  -11.2662   19.7678 H   0  0  0  0  0  0
  -29.7087  -11.8030   17.3971 H   0  0  0  0  0  0
  -29.6531  -13.5082   17.7700 H   0  0  0  0  0  0
  -27.8114  -11.3180   18.7958 H   0  0  0  0  0  0
  -27.3498  -12.6625   17.7865 H   0  0  0  0  0  0
  -27.7192  -14.2573   19.5926 H   0  0  0  0  0  0
  -28.6614  -11.9312   21.3379 H   0  0  0  0  0  0
  -28.4529  -13.5725   21.8648 H   0  0  0  0  0  0
  -25.2740   -9.5717   22.4770 H   0  0  0  0  0  0
  -23.9991   -7.4663   22.7492 H   0  0  0  0  0  0
  -21.0845   -8.8758   19.8935 H   0  0  0  0  0  0
  -22.3681  -10.9667   19.6149 H   0  0  0  0  0  0
  -21.1994   -7.6147   23.9714 H   0  0  0  0  0  0
  -21.1472   -6.0519   25.9079 H   0  0  0  0  0  0
  -22.0602   -2.7609   23.2848 H   0  0  0  0  0  0
  -22.4088  -11.9879   22.4744 H   0  0  0  0  0  0
  -21.1091  -13.1255   22.2513 H   0  0  0  0  0  0
  -24.6735  -15.8503   20.5279 H   0  0  0  0  0  0
  -26.2965  -15.6258   20.1123 H   0  0  0  0  0  0
  -26.7123  -32.5539   23.1201 H   0  0  0  0  0  0
  -25.0117  -33.9809   25.0529 H   0  0  0  0  0  0
  -22.6874  -31.3045   21.4130 H   0  0  0  0  0  0
  -23.3771  -35.9604   23.3257 H   0  0  0  0  0  0
  -24.3599  -36.8971   22.2065 H   0  0  0  0  0  0
  -23.7196  -37.6465   23.6698 H   0  0  0  0  0  0
  -26.0391  -31.5978   20.5928 H   0  0  0  0  0  0
  -26.8188  -30.8931   21.9796 H   0  0  0  0  0  0
  -28.0960  -29.1162   21.1743 H   0  0  0  0  0  0
  -26.0913  -25.9901   18.9852 H   0  0  0  0  0  0
  -23.9909  -27.2966   19.0155 H   0  0  0  0  0  0
  -23.7130  -30.5947   19.4052 H   0  0  0  0  0  0
  -22.7340  -29.2346   19.8738 H   0  0  0  0  0  0
  -25.1269  -36.1970   25.0829 H   0  0  0  0  0  0
  -20.9937  -28.3216   24.1449 H   0  0  0  0  0  0
  -20.5692  -26.2251   23.3578 H   0  0  0  0  0  0
  -21.6634  -26.7475   22.1186 H   0  0  0  0  0  0
  -19.6893  -25.6313   21.1195 H   0  0  0  0  0  0
  -19.6655  -27.3220   20.6751 H   0  0  0  0  0  0
  -17.4190  -26.6705   21.4005 H   0  0  0  0  0  0
  -18.0291  -26.0056   22.8993 H   0  0  0  0  0  0
  -19.7922  -30.7249   24.2283 H   0  0  0  0  0  0
  -17.5004  -31.6257   24.5178 H   0  0  0  0  0  0
  -15.5335  -30.2979   23.7643 H   0  0  0  0  0  0
  -15.8663  -28.0805   22.7065 H   0  0  0  0  0  0
  -24.5892  -30.7027   25.7756 H   0  0  0  0  0  0
  -24.8957  -32.2759   26.5009 H   0  0  0  0  0  0
  -25.8094  -30.8688   27.0158 H   0  0  0  0  0  0
  -26.2872  -29.6791   24.1125 H   0  0  0  0  0  0
  -27.4156  -29.7265   25.4483 H   0  0  0  0  0  0
  -27.8679  -30.4408   23.9186 H   0  0  0  0  0  0
  -27.2680  -33.3638   26.2035 H   0  0  0  0  0  0
  -28.3886  -32.6797   25.0351 H   0  0  0  0  0  0
  -28.0664  -31.8442   26.5463 H   0  0  0  0  0  0
  -28.2537  -38.0163   24.7576 H   0  0  0  0  0  0
  -28.1128  -36.2695   24.6213 H   0  0  0  0  0  0
  -27.2297  -37.1363   25.8858 H   0  0  0  0  0  0
  -20.9302  -29.8753   21.6956 H   0  0  0  0  0  0
  -26.0153  -38.2860   24.1441 H   0  0  0  0  0  0
  -29.3006  -22.3059   23.8494 H   0  0  0  0  0  0
  -28.1139  -24.2998   19.4580 H   0  0  0  0  0  0
  -29.7284  -24.3910   24.7893 H   0  0  0  0  0  0
  -28.8406  -25.7555   24.1354 H   0  0  0  0  0  0
  -30.5256  -25.4875   23.6638 H   0  0  0  0  0  0
  -27.6473  -19.9894   21.5782 H   0  0  0  0  0  0
  -28.3396  -20.2381   23.1525 H   0  0  0  0  0  0
  -29.9478  -26.5184   21.3156 H   0  0  0  0  0  0
  -28.4096  -26.7447   22.1101 H   0  0  0  0  0  0
  -30.6452  -20.1196   22.1621 H   0  0  0  0  0  0
  -29.9574  -19.7685   20.5976 H   0  0  0  0  0  0
  -28.9877  -17.6419   21.4665 H   0  0  0  0  0  0
  -29.5186  -18.0401   23.0811 H   0  0  0  0  0  0
  -31.9164  -18.1178   22.1677 H   0  0  0  0  0  0
  -31.3192  -17.4410   20.6841 H   0  0  0  0  0  0
  -31.0890  -16.1244   23.4576 H   0  0  0  0  0  0
  -32.3481  -15.7866   22.3107 H   0  0  0  0  0  0
  -29.6524  -14.7368   22.2961 H   0  0  0  0  0  0
  1 25  1  0  0  0
  1 30  2  0  0  0
  1 84  1  0  0  0
  2  3  1  0  0  0
  2 25  1  0  0  0
  2 86  1  0  0  0
  2 87  1  0  0  0
  3  4  1  0  0  0
  3 88  1  0  0  0
  3 89  1  0  0  0
  4  5  1  0  0  0
  4 90  1  0  0  0
  4 91  1  0  0  0
  5  6  1  0  0  0
  5 26  1  0  0  0
  5 92  1  0  0  0
  6 25  1  0  0  0
  6 93  1  0  0  0
  6 94  1  0  0  0
  7  8  2  0  0  0
  7 26  1  0  0  0
  7 29  1  0  0  0
  8  9  1  0  0  0
  8 22  1  0  0  0
  9 10  1  0  0  0
  9 27  2  0  0  0
 10 11  2  0  0  0
 10 15  1  0  0  0
 11 12  1  0  0  0
 11 95  1  0  0  0
 12 13  2  0  0  0
 12 96  1  0  0  0
 13 14  1  0  0  0
 13 31  1  0  0  0
 14 15  2  0  0  0
 14 97  1  0  0  0
 15 98  1  0  0  0
 16 17  2  0  0  0
 16 21  1  0  0  0
 16 31  1  0  0  0
 17 18  1  0  0  0
 17 99  1  0  0  0
 18 19  2  0  0  0
 18100  1  0  0  0
 19 20  1  0  0  0
 19 24  1  0  0  0
 20 21  2  0  0  0
 20101  1  0  0  0
 21 23  1  0  0  0
 22 28  1  0  0  0
 22 32  2  0  0  0
 26 27  1  0  0  0
 28102  1  0  0  0
 28103  1  0  0  0
 29104  1  0  0  0
 29105  1  0  0  0
 33 34  1  0  0  0
 33 66  1  0  0  0
 33 70  2  0  0  0
 34 36  1  0  0  0
 34 59  1  0  0  0
 34106  1  0  0  0
 35 44  2  0  0  0
 35 45  1  0  0  0
 35 68  1  0  0  0
 36 56  1  0  0  0
 36107  1  0  0  0
 37 39  1  0  0  0
 37 47  1  0  0  0
 37 66  1  0  0  0
 37108  1  0  0  0
 38 43  2  0  0  0
 38 46  1  0  0  0
 38 47  1  0  0  0
 39 64  1  0  0  0
 39 67  2  0  0  0
 40 52  1  0  0  0
 40 53  2  0  0  0
 40 58  1  0  0  0
 41109  1  0  0  0
 41110  1  0  0  0
 41111  1  0  0  0
 41 48  1  0  0  0
 42 43  1  0  0  0
 42 66  1  0  0  0
 42112  1  0  0  0
 42113  1  0  0  0
 43 44  1  0  0  0
 44114  1  0  0  0
 45 46  2  0  0  0
 45115  1  0  0  0
 46116  1  0  0  0
 47117  1  0  0  0
 47118  1  0  0  0
 48 56  1  0  0  0
 48 65  1  0  0  0
 48119  1  0  0  0
 49 50  1  0  0  0
 49 53  1  0  0  0
 49 64  1  0  0  0
 49120  1  0  0  0
 50 51  1  0  0  0
 50121  1  0  0  0
 50122  1  0  0  0
 51 52  1  0  0  0
 51123  1  0  0  0
 51124  1  0  0  0
 52125  1  0  0  0
 52126  1  0  0  0
 53 54  1  0  0  0
 54 55  2  0  0  0
 54127  1  0  0  0
 55 57  1  0  0  0
 55128  1  0  0  0
 56 69  2  0  0  0
 57 58  2  0  0  0
 57129  1  0  0  0
 58130  1  0  0  0
 59 60  1  0  0  0
 59 61  1  0  0  0
 59 62  1  0  0  0
 60131  1  0  0  0
 60132  1  0  0  0
 60133  1  0  0  0
 61134  1  0  0  0
 61135  1  0  0  0
 61136  1  0  0  0
 62137  1  0  0  0
 62138  1  0  0  0
 62139  1  0  0  0
 63 65  1  0  0  0
 63140  1  0  0  0
 63141  1  0  0  0
 63142  1  0  0  0
 64143  1  0  0  0
 65144  1  0  0  0
 68 79  1  0  0  0
 71 73  2  0  0  0
 71 74  1  0  0  0
 71145  1  0  0  0
 72 75  2  0  0  0
 72 76  1  0  0  0
 72146  1  0  0  0
 73 75  1  0  0  0
 73 77  1  0  0  0
 74 76  2  0  0  0
 74 78  1  0  0  0
 75 79  1  0  0  0
 76 85  1  0  0  0
 77147  1  0  0  0
 77148  1  0  0  0
 77149  1  0  0  0
 78 80  1  0  0  0
 78150  1  0  0  0
 78151  1  0  0  0
 79152  1  0  0  0
 79153  1  0  0  0
 80 81  1  0  0  0
 80154  1  0  0  0
 80155  1  0  0  0
 81 82  1  0  0  0
 81156  1  0  0  0
 81157  1  0  0  0
 82 83  1  0  0  0
 82158  1  0  0  0
 82159  1  0  0  0
 83 84  1  0  0  0
 83160  1  0  0  0
 83161  1  0  0  0
 84162  1  0  0  0
M  ISO  4   1 100  68 101  79 101  84 100
M  END
> <chiral flag>
0

> <version>
0

> <s_m_source_file>
/data/baiqing/PycharmProjects/Reinvent-master-3.2/result/LINK_invent/BTK/process_docking_weight1_custom_sum_contain_oxygen_bond_distance_aromatic_linkinvent_7_9_3/rearranged_h_0031.sdf

> <i_m_source_file_index>
91

> <r_mmod_Potential_Energy-OPLS-2005>
-62.6479644775391

> <r_mmod_Stretch_Energy-OPLS-2005>
33.4714393615723

> <r_mmod_Bend_Energy-OPLS-2005>
86.2494888305664

> <r_mmod_Torsional_Energy-OPLS-2005>
227.146606445312

> <r_mmod_Improper_Torsional_Energy-OPLS-2005>
2.64732432365417

> <r_mmod_Van_der_Waal_Energy-OPLS-2005>
148.008224487305

> <r_mmod_Electrostatic_Energy-OPLS-2005>
-368.60693359375

> <r_mmod_Solvation_Energy-OPLS-2005>
-198.670196533203

> <b_mmod_Minimization_Converged-OPLS-2005>
0

> <r_mmod_RMS_Derivative-OPLS-2005>
1.94161605834961

$$$$
91
                    3D
 Structure written by MMmdl.
167176  0  0  1  0            999 V2000
  -30.6010  -14.7421   20.4728 C   0  0  0  0  0  0
  -30.4343  -12.4324   19.4760 C   0  0  0  0  0  0
  -29.5130  -12.5110   18.2374 C   0  0  0  0  0  0
  -28.0336  -12.3460   18.6394 C   0  0  0  0  0  0
  -27.6385  -13.2359   19.8494 C   0  0  2  0  0  0
  -28.6690  -13.1474   20.9900 C   0  0  0  0  0  0
  -25.2502  -13.8222   20.5667 C   0  0  0  0  0  0
  -24.1798  -13.0471   20.9181 C   0  0  0  0  0  0
  -24.6380  -11.6937   20.8720 C   0  0  0  0  0  0
  -23.9058  -10.4314   21.0395 C   0  0  0  0  0  0
  -24.3617   -9.4235   21.9177 C   0  0  0  0  0  0
  -23.6302   -8.2267   22.0760 C   0  0  0  0  0  0
  -22.4288   -8.0285   21.3543 C   0  0  0  0  0  0
  -21.9903   -9.0259   20.4651 C   0  0  0  0  0  0
  -22.7224  -10.2142   20.3056 C   0  0  0  0  0  0
  -21.6877   -6.0735   22.5275 C   0  0  0  0  0  0
  -21.4033   -6.5645   23.8205 C   0  0  0  0  0  0
  -21.3652   -5.6796   24.9167 C   0  0  0  0  0  0
  -21.6037   -4.3060   24.7223 C   0  0  0  0  0  0
  -21.8826   -3.8147   23.4350 C   0  0  0  0  0  0
  -21.9213   -4.6962   22.3402 C   0  0  0  0  0  0
  -22.7822  -13.5255   21.1837 C   0  0  0  0  0  0
  -22.1680   -4.2138   21.0984 F   0  0  0  0  0  0
  -21.5621   -3.4552   25.7743 F   0  0  0  0  0  0
  -29.9810  -13.4654   20.4283 N   0  0  0  0  0  0
  -26.2907  -12.9422   20.3232 N   0  0  0  0  0  0
  -25.9301  -11.6561   20.5691 N   0  0  0  0  0  0
  -22.0476  -12.8254   22.0393 N   0  0  0  0  0  0
  -25.4249  -15.1945   20.4106 N   0  0  0  0  0  0
  -31.7733  -14.9124   20.1330 O   0  0  0  0  0  0
  -21.6665   -6.8870   21.4236 O   0  0  0  0  0  0
  -22.3518  -14.5571   20.6682 O   0  0  0  0  0  0
  -24.6300  -31.8541   23.1986 C   0  0  0  0  0  0
  -25.9130  -32.4744   23.8326 C   0  0  1  0  0  0
  -27.2082  -27.2494   20.1330 C   0  0  0  0  0  0
  -25.5926  -33.8548   24.2244 N   0  0  0  0  0  0
  -23.4255  -30.4761   21.5436 C   0  0  2  0  0  0
  -24.8696  -28.9219   20.1103 C   0  0  0  0  0  0
  -22.7492  -29.4585   22.4937 C   0  0  0  0  0  0
  -18.0274  -28.1389   22.8483 C   0  0  0  0  0  0
  -24.1490  -36.7292   23.2638 C   0  0  0  0  0  0
  -25.9705  -30.7641   21.3773 C   0  0  0  0  0  0
  -26.0407  -29.3846   20.7220 C   0  0  0  0  0  0
  -27.2113  -28.5612   20.7198 C   0  0  0  0  0  0
  -26.0117  -26.8541   19.4928 C   0  0  0  0  0  0
  -24.8621  -27.6681   19.4814 C   0  0  0  0  0  0
  -23.6416  -29.8105   20.1590 C   0  0  0  0  0  0
  -25.4119  -36.3066   24.0316 C   0  0  1  0  0  0
  -20.5877  -28.3694   23.1293 C   0  0  2  0  0  0
  -20.6774  -26.9416   22.5423 C   0  0  0  0  0  0
  -19.5755  -26.6384   21.5220 C   0  0  0  0  0  0
  -18.1927  -26.7933   22.1625 C   0  0  0  0  0  0
  -19.1530  -28.8859   23.2875 C   0  0  0  0  0  0
  -18.9455  -30.1461   23.8896 C   0  0  0  0  0  0
  -17.6454  -30.6594   24.0564 C   0  0  0  0  0  0
  -25.9056  -34.9433   23.5086 C   0  0  0  0  0  0
  -16.5341  -29.9094   23.6331 C   0  0  0  0  0  0
  -16.7264  -28.6509   23.0355 C   0  0  0  0  0  0
  -26.4508  -31.6569   25.0714 C   0  0  0  0  0  0
  -25.3730  -31.3715   26.1430 C   0  0  0  0  0  0
  -27.0360  -30.2986   24.6196 C   0  0  0  0  0  0
  -27.6054  -32.4315   25.7498 C   0  0  0  0  0  0
  -27.5575  -37.1801   24.8460 C   0  0  0  0  0  0
  -21.4198  -29.3036   22.3688 N   0  0  0  0  0  0
  -26.4288  -37.3766   23.9398 N   0  0  0  0  0  0
  -24.6946  -31.0499   22.0966 N   0  0  0  0  0  0
  -23.4194  -28.8117   23.3030 O   0  0  0  0  0  0
  -28.3271  -26.3851   20.1806 O   0  0  0  0  0  0
  -26.5640  -34.8912   22.4661 O   0  0  0  0  0  0
  -23.5457  -32.1374   23.7279 O   0  0  0  0  0  0
  -31.1133  -22.2470   19.1026 C   0  0  0  0  0  0
  -29.8667  -22.6469   19.6446 C   0  0  0  0  0  0
  -29.5735  -24.1057   19.5626 C   0  0  0  0  0  0
  -30.5784  -24.9051   18.9170 C   0  0  0  0  0  0
  -32.0305  -23.1507   18.5777 C   0  0  0  0  0  0
  -27.8275  -18.4078   21.4056 C   0  0  0  0  0  0
  -27.9700  -17.5635   22.6933 C   0  0  0  0  0  0
  -30.4776  -17.4153   22.4476 C   0  0  0  0  0  0
  -29.1233  -18.5041   20.5616 C   0  0  2  0  0  0
  -30.1146  -17.2638   20.9508 C   0  0  2  0  0  0
  -30.4189  -26.3682   18.5272 C   0  0  0  0  0  0
  -28.9923  -21.3952   20.1283 C   0  0  0  0  0  0
  -28.2488  -24.8882   19.9818 C   0  0  0  0  0  0
  -29.7306  -20.0149   20.6614 C   0  0  0  0  0  0
  -31.7684  -24.4515   18.4917 N   0  0  0  0  0  0
  -29.3055  -17.7064   23.3215 N   0  3  0  0  0  0
  -29.6973  -15.8368   20.7857 O   0  0  0  0  0  0
  -33.5321  -22.5730   17.9581 Cl  0  0  0  0  0  0
  -31.4767  -12.5760   19.1841 H   0  0  0  0  0  0
  -30.3782  -11.4449   19.9360 H   0  0  0  0  0  0
  -29.7901  -11.7472   17.5101 H   0  0  0  0  0  0
  -29.6476  -13.4718   17.7388 H   0  0  0  0  0  0
  -27.8768  -11.2958   18.8857 H   0  0  0  0  0  0
  -27.3848  -12.5603   17.7881 H   0  0  0  0  0  0
  -27.6403  -14.2633   19.4848 H   0  0  0  0  0  0
  -28.6819  -12.1469   21.4262 H   0  0  0  0  0  0
  -28.4096  -13.8312   21.7992 H   0  0  0  0  0  0
  -25.2758   -9.5745   22.4751 H   0  0  0  0  0  0
  -24.0025   -7.4676   22.7494 H   0  0  0  0  0  0
  -21.0830   -8.8775   19.8961 H   0  0  0  0  0  0
  -22.3666  -10.9686   19.6178 H   0  0  0  0  0  0
  -21.2038   -7.6152   23.9708 H   0  0  0  0  0  0
  -21.1461   -6.0524   25.9065 H   0  0  0  0  0  0
  -22.0613   -2.7607   23.2858 H   0  0  0  0  0  0
  -22.4092  -11.9910   22.4770 H   0  0  0  0  0  0
  -21.1101  -13.1281   22.2608 H   0  0  0  0  0  0
  -24.6535  -15.8483   20.4824 H   0  0  0  0  0  0
  -26.2765  -15.6196   20.0688 H   0  0  0  0  0  0
  -26.7183  -32.5396   23.1058 H   0  0  0  0  0  0
  -25.0044  -33.9697   25.0367 H   0  0  0  0  0  0
  -22.7202  -31.2971   21.4000 H   0  0  0  0  0  0
  -23.3745  -35.9630   23.3293 H   0  0  0  0  0  0
  -24.3578  -36.8934   22.2053 H   0  0  0  0  0  0
  -23.7256  -37.6490   23.6684 H   0  0  0  0  0  0
  -26.1039  -31.5215   20.6037 H   0  0  0  0  0  0
  -26.8506  -30.8183   22.0071 H   0  0  0  0  0  0
  -28.1094  -28.9109   21.2088 H   0  0  0  0  0  0
  -25.9250  -25.9021   18.9948 H   0  0  0  0  0  0
  -23.9677  -27.3160   18.9870 H   0  0  0  0  0  0
  -23.7643  -30.5869   19.4031 H   0  0  0  0  0  0
  -22.7595  -29.2434   19.8560 H   0  0  0  0  0  0
  -25.1301  -36.1908   25.0809 H   0  0  0  0  0  0
  -20.9945  -28.3268   24.1426 H   0  0  0  0  0  0
  -20.5689  -26.2295   23.3618 H   0  0  0  0  0  0
  -21.6642  -26.7463   22.1212 H   0  0  0  0  0  0
  -19.6925  -25.6294   21.1255 H   0  0  0  0  0  0
  -19.6698  -27.3192   20.6748 H   0  0  0  0  0  0
  -17.4199  -26.6663   21.4024 H   0  0  0  0  0  0
  -18.0328  -26.0078   22.9028 H   0  0  0  0  0  0
  -19.7927  -30.7269   24.2271 H   0  0  0  0  0  0
  -17.5012  -31.6279   24.5161 H   0  0  0  0  0  0
  -15.5348  -30.3001   23.7663 H   0  0  0  0  0  0
  -15.8655  -28.0832   22.7085 H   0  0  0  0  0  0
  -24.5911  -30.7063   25.7753 H   0  0  0  0  0  0
  -24.8920  -32.2879   26.4849 H   0  0  0  0  0  0
  -25.8046  -30.8892   27.0208 H   0  0  0  0  0  0
  -26.2948  -29.6723   24.1218 H   0  0  0  0  0  0
  -27.4038  -29.7258   25.4721 H   0  0  0  0  0  0
  -27.8825  -30.4260   23.9446 H   0  0  0  0  0  0
  -27.2651  -33.3616   26.2067 H   0  0  0  0  0  0
  -28.3878  -32.6869   25.0337 H   0  0  0  0  0  0
  -28.0707  -31.8441   26.5426 H   0  0  0  0  0  0
  -28.2582  -38.0107   24.7507 H   0  0  0  0  0  0
  -28.1083  -36.2634   24.6286 H   0  0  0  0  0  0
  -27.2291  -37.1448   25.8863 H   0  0  0  0  0  0
  -20.9376  -29.8764   21.6899 H   0  0  0  0  0  0
  -26.0160  -38.2837   24.1408 H   0  0  0  0  0  0
  -31.4273  -21.2255   19.0163 H   0  0  0  0  0  0
  -27.4744  -19.4063   21.6646 H   0  0  0  0  0  0
  -27.0283  -17.9707   20.8059 H   0  0  0  0  0  0
  -27.7891  -16.5098   22.4773 H   0  0  0  0  0  0
  -27.1999  -17.8547   23.4097 H   0  0  0  0  0  0
  -31.1803  -18.2401   22.5634 H   0  0  0  0  0  0
  -31.0008  -16.5327   22.8152 H   0  0  0  0  0  0
  -28.8466  -18.3599   19.5167 H   0  0  0  0  0  0
  -31.0253  -17.3836   20.3616 H   0  0  0  0  0  0
  -29.4622  -26.5429   18.0336 H   0  0  0  0  0  0
  -31.1849  -26.6825   17.8174 H   0  0  0  0  0  0
  -30.5162  -27.0188   19.3961 H   0  0  0  0  0  0
  -28.3705  -21.1252   19.2743 H   0  0  0  0  0  0
  -28.2914  -21.7427   20.8871 H   0  0  0  0  0  0
  -27.8625  -24.4447   20.9000 H   0  0  0  0  0  0
  -27.5359  -24.6391   19.2000 H   0  0  0  0  0  0
  -30.6842  -19.8717   20.1741 H   0  0  0  0  0  0
  -30.0131  -20.2049   21.6962 H   0  0  0  0  0  0
  -29.3409  -17.1008   24.1273 H   0  0  0  0  0  0
  -29.3900  -18.6476   23.6717 H   0  0  0  0  0  0
  1 25  1  0  0  0
  1 30  2  0  0  0
  1 87  1  0  0  0
  2  3  1  0  0  0
  2 25  1  0  0  0
  2 89  1  0  0  0
  2 90  1  0  0  0
  3  4  1  0  0  0
  3 91  1  0  0  0
  3 92  1  0  0  0
  4  5  1  0  0  0
  4 93  1  0  0  0
  4 94  1  0  0  0
  5  6  1  0  0  0
  5 26  1  0  0  0
  5 95  1  0  0  0
  6 25  1  0  0  0
  6 96  1  0  0  0
  6 97  1  0  0  0
  7  8  2  0  0  0
  7 26  1  0  0  0
  7 29  1  0  0  0
  8  9  1  0  0  0
  8 22  1  0  0  0
  9 10  1  0  0  0
  9 27  2  0  0  0
 10 11  2  0  0  0
 10 15  1  0  0  0
 11 12  1  0  0  0
 11 98  1  0  0  0
 12 13  2  0  0  0
 12 99  1  0  0  0
 13 14  1  0  0  0
 13 31  1  0  0  0
 14 15  2  0  0  0
 14100  1  0  0  0
 15101  1  0  0  0
 16 17  2  0  0  0
 16 21  1  0  0  0
 16 31  1  0  0  0
 17 18  1  0  0  0
 17102  1  0  0  0
 18 19  2  0  0  0
 18103  1  0  0  0
 19 20  1  0  0  0
 19 24  1  0  0  0
 20 21  2  0  0  0
 20104  1  0  0  0
 21 23  1  0  0  0
 22 28  1  0  0  0
 22 32  2  0  0  0
 26 27  1  0  0  0
 28105  1  0  0  0
 28106  1  0  0  0
 29107  1  0  0  0
 29108  1  0  0  0
 33 34  1  0  0  0
 33 66  1  0  0  0
 33 70  2  0  0  0
 34 36  1  0  0  0
 34 59  1  0  0  0
 34109  1  0  0  0
 35 44  2  0  0  0
 35 45  1  0  0  0
 35 68  1  0  0  0
 36 56  1  0  0  0
 36110  1  0  0  0
 37 39  1  0  0  0
 37 47  1  0  0  0
 37 66  1  0  0  0
 37111  1  0  0  0
 38 43  2  0  0  0
 38 46  1  0  0  0
 38 47  1  0  0  0
 39 64  1  0  0  0
 39 67  2  0  0  0
 40 52  1  0  0  0
 40 53  2  0  0  0
 40 58  1  0  0  0
 41112  1  0  0  0
 41113  1  0  0  0
 41114  1  0  0  0
 41 48  1  0  0  0
 42 43  1  0  0  0
 42 66  1  0  0  0
 42115  1  0  0  0
 42116  1  0  0  0
 43 44  1  0  0  0
 44117  1  0  0  0
 45 46  2  0  0  0
 45118  1  0  0  0
 46119  1  0  0  0
 47120  1  0  0  0
 47121  1  0  0  0
 48 56  1  0  0  0
 48 65  1  0  0  0
 48122  1  0  0  0
 49 50  1  0  0  0
 49 53  1  0  0  0
 49 64  1  0  0  0
 49123  1  0  0  0
 50 51  1  0  0  0
 50124  1  0  0  0
 50125  1  0  0  0
 51 52  1  0  0  0
 51126  1  0  0  0
 51127  1  0  0  0
 52128  1  0  0  0
 52129  1  0  0  0
 53 54  1  0  0  0
 54 55  2  0  0  0
 54130  1  0  0  0
 55 57  1  0  0  0
 55131  1  0  0  0
 56 69  2  0  0  0
 57 58  2  0  0  0
 57132  1  0  0  0
 58133  1  0  0  0
 59 60  1  0  0  0
 59 61  1  0  0  0
 59 62  1  0  0  0
 60134  1  0  0  0
 60135  1  0  0  0
 60136  1  0  0  0
 61137  1  0  0  0
 61138  1  0  0  0
 61139  1  0  0  0
 62140  1  0  0  0
 62141  1  0  0  0
 62142  1  0  0  0
 63 65  1  0  0  0
 63143  1  0  0  0
 63144  1  0  0  0
 63145  1  0  0  0
 64146  1  0  0  0
 65147  1  0  0  0
 68 83  1  0  0  0
 71 72  2  0  0  0
 71 75  1  0  0  0
 71148  1  0  0  0
 72 73  1  0  0  0
 72 82  1  0  0  0
 73 74  2  0  0  0
 73 83  1  0  0  0
 74 81  1  0  0  0
 74 85  1  0  0  0
 75 85  2  0  0  0
 75 88  1  0  0  0
 76 77  1  0  0  0
 76 79  1  0  0  0
 76149  1  0  0  0
 76150  1  0  0  0
 77 86  1  0  0  0
 77151  1  0  0  0
 77152  1  0  0  0
 78 80  1  0  0  0
 78 86  1  0  0  0
 78153  1  0  0  0
 78154  1  0  0  0
 79 80  1  0  0  0
 79 84  1  0  0  0
 79155  1  0  0  0
 80 87  1  0  0  0
 80156  1  0  0  0
 81157  1  0  0  0
 81158  1  0  0  0
 81159  1  0  0  0
 82 84  1  0  0  0
 82160  1  0  0  0
 82161  1  0  0  0
 83162  1  0  0  0
 83163  1  0  0  0
 84164  1  0  0  0
 84165  1  0  0  0
 86166  1  0  0  0
 86167  1  0  0  0
M  CHG  1  86   1
M  ISO  4   1 100  68 101  83 101  87 100
M  END
> <chiral flag>
0

> <version>
0

> <s_m_source_file>
/data/baiqing/PycharmProjects/Reinvent-master-3.2/result/LINK_invent/BTK/process_docking_weight1_custom_sum_contain_oxygen_bond_distance_aromatic_linkinvent_7_9_3/rearranged_h_0031.sdf

> <i_m_source_file_index>
92

> <r_mmod_Potential_Energy-OPLS-2005>
15.7574415206909

> <r_mmod_Stretch_Energy-OPLS-2005>
163.875564575195

> <r_mmod_Bend_Energy-OPLS-2005>
208.615570068359

> <r_mmod_Torsional_Energy-OPLS-2005>
247.102005004883

> <r_mmod_Improper_Torsional_Energy-OPLS-2005>
4.51547861099243

> <r_mmod_Van_der_Waal_Energy-OPLS-2005>
161.085021972656

> <r_mmod_Electrostatic_Energy-OPLS-2005>
-378.811889648438

> <r_mmod_Solvation_Energy-OPLS-2005>
-473.244781494141

> <b_mmod_Minimization_Converged-OPLS-2005>
0

> <r_mmod_RMS_Derivative-OPLS-2005>
1.7943480014801

$$$$
92
                    3D
 Structure written by MMmdl.
166175  0  0  1  0            999 V2000
  -30.6594  -14.4869   20.4984 C   0  0  0  0  0  0
  -30.4240  -12.2938   19.4228 C   0  0  0  0  0  0
  -29.4991  -12.5141   18.2054 C   0  0  0  0  0  0
  -28.0174  -12.3848   18.6126 C   0  0  0  0  0  0
  -27.6657  -13.2055   19.8814 C   0  0  2  0  0  0
  -28.7097  -12.9793   21.0019 C   0  0  0  0  0  0
  -25.2597  -13.8160   20.5683 C   0  0  0  0  0  0
  -24.1871  -13.0453   20.9143 C   0  0  0  0  0  0
  -24.6414  -11.6899   20.8713 C   0  0  0  0  0  0
  -23.9099  -10.4290   21.0393 C   0  0  0  0  0  0
  -24.3649   -9.4202   21.9175 C   0  0  0  0  0  0
  -23.6307   -8.2254   22.0754 C   0  0  0  0  0  0
  -22.4286   -8.0299   21.3545 C   0  0  0  0  0  0
  -21.9931   -9.0279   20.4648 C   0  0  0  0  0  0
  -22.7270  -10.2140   20.3046 C   0  0  0  0  0  0
  -21.6862   -6.0758   22.5284 C   0  0  0  0  0  0
  -21.4019   -6.5656   23.8218 C   0  0  0  0  0  0
  -21.3651   -5.6800   24.9173 C   0  0  0  0  0  0
  -21.6045   -4.3066   24.7219 C   0  0  0  0  0  0
  -21.8820   -3.8165   23.4336 C   0  0  0  0  0  0
  -21.9195   -4.6987   22.3397 C   0  0  0  0  0  0
  -22.7882  -13.5205   21.1805 C   0  0  0  0  0  0
  -22.1668   -4.2174   21.0975 F   0  0  0  0  0  0
  -21.5616   -3.4543   25.7727 F   0  0  0  0  0  0
  -30.0408  -13.2770   20.4470 N   0  0  0  0  0  0
  -26.3045  -12.9330   20.3377 N   0  0  0  0  0  0
  -25.9338  -11.6482   20.5772 N   0  0  0  0  0  0
  -22.0549  -12.8229   22.0383 N   0  0  0  0  0  0
  -25.4298  -15.1893   20.4058 N   0  0  0  0  0  0
  -31.8011  -14.6797   20.0728 O   0  0  0  0  0  0
  -21.6646   -6.8899   21.4246 O   0  0  0  0  0  0
  -22.3585  -14.5535   20.6654 O   0  0  0  0  0  0
  -24.6321  -31.8621   23.1973 C   0  0  0  0  0  0
  -25.9068  -32.4841   23.8371 C   0  0  1  0  0  0
  -27.2986  -27.4635   20.0706 C   0  0  0  0  0  0
  -25.5841  -33.8614   24.2240 N   0  0  0  0  0  0
  -23.5737  -30.2406   21.6541 C   0  0  2  0  0  0
  -24.9169  -28.9686   20.0127 C   0  0  0  0  0  0
  -22.6923  -29.4530   22.6494 C   0  0  0  0  0  0
  -18.0028  -28.1448   22.8366 C   0  0  0  0  0  0
  -24.1479  -36.7329   23.2646 C   0  0  0  0  0  0
  -25.9694  -30.8945   21.2951 C   0  0  0  0  0  0
  -26.0748  -29.5163   20.6123 C   0  0  0  0  0  0
  -27.2656  -28.7520   20.6559 C   0  0  0  0  0  0
  -26.1316  -26.9367   19.4832 C   0  0  0  0  0  0
  -24.9343  -27.6713   19.4703 C   0  0  0  0  0  0
  -23.6292  -29.7523   20.1874 C   0  0  0  0  0  0
  -25.4099  -36.3103   24.0339 C   0  0  1  0  0  0
  -20.5442  -28.3777   23.1193 C   0  0  2  0  0  0
  -20.6515  -26.9494   22.5370 C   0  0  0  0  0  0
  -19.5530  -26.6374   21.5204 C   0  0  0  0  0  0
  -18.1698  -26.7982   22.1568 C   0  0  0  0  0  0
  -19.1209  -28.8966   23.2750 C   0  0  0  0  0  0
  -18.9212  -30.1545   23.8826 C   0  0  0  0  0  0
  -17.6221  -30.6628   24.0517 C   0  0  0  0  0  0
  -25.9035  -34.9509   23.5077 C   0  0  0  0  0  0
  -16.5123  -29.9132   23.6252 C   0  0  0  0  0  0
  -16.7050  -28.6549   23.0270 C   0  0  0  0  0  0
  -26.4464  -31.6597   25.0673 C   0  0  0  0  0  0
  -25.3679  -31.3737   26.1428 C   0  0  0  0  0  0
  -27.0258  -30.3034   24.5944 C   0  0  0  0  0  0
  -27.5985  -32.4331   25.7443 C   0  0  0  0  0  0
  -27.5545  -37.1817   24.8452 C   0  0  0  0  0  0
  -21.3947  -29.3090   22.3786 N   0  0  0  0  0  0
  -26.4247  -37.3789   23.9410 N   0  0  0  0  0  0
  -24.6946  -31.1262   22.0488 N   0  0  0  0  0  0
  -23.2016  -28.8561   23.6128 O   0  0  0  0  0  0
  -28.4945  -26.8134   19.8544 O   0  0  0  0  0  0
  -26.5652  -34.8987   22.4658 O   0  0  0  0  0  0
  -23.5510  -32.0939   23.7553 O   0  0  0  0  0  0
  -27.5668  -19.3290   21.8673 C   0  0  0  0  0  0
  -28.4126  -18.2215   21.6341 C   0  0  0  0  0  0
  -27.2551  -20.2259   20.8279 C   0  0  0  0  0  0
  -27.8140  -20.0316   19.5459 C   0  0  0  0  0  0
  -28.9775  -18.0057   20.3544 C   0  0  0  0  0  0
  -28.6860  -18.9285   19.3158 C   0  0  0  0  0  0
  -26.3161  -21.3969   21.0729 C   0  0  0  0  0  0
  -27.3560  -20.9524   18.4207 C   0  0  0  0  0  0
  -27.0355  -22.7567   21.0860 C   0  0  0  0  0  0
  -27.8255  -22.4199   18.4971 C   0  0  0  0  0  0
  -27.9003  -23.1768   19.8542 C   0  0  2  0  0  0
  -29.8936  -16.8017   20.0626 C   0  0  0  0  0  0
  -29.8106  -24.8245   20.0652 C   0  0  0  0  0  0
  -29.0342  -25.9392   20.8303 C   0  0  0  0  0  0
  -29.8359  -15.5162   20.7715 N   0  0  0  0  0  0
  -29.2988  -23.4393   20.2727 N   0  3  0  0  0  0
  -29.3807  -18.6632   17.7554 Cl  0  0  0  0  0  0
  -31.4726  -12.3901   19.1307 H   0  0  0  0  0  0
  -30.3155  -11.2779   19.8043 H   0  0  0  0  0  0
  -29.7333  -11.8061   17.4093 H   0  0  0  0  0  0
  -29.6822  -13.5071   17.7887 H   0  0  0  0  0  0
  -27.8094  -11.3294   18.7825 H   0  0  0  0  0  0
  -27.3770  -12.6913   17.7849 H   0  0  0  0  0  0
  -27.7073  -14.2535   19.5896 H   0  0  0  0  0  0
  -28.6772  -11.9434   21.3425 H   0  0  0  0  0  0
  -28.4867  -13.5826   21.8830 H   0  0  0  0  0  0
  -25.2793   -9.5692   22.4747 H   0  0  0  0  0  0
  -24.0021   -7.4658   22.7478 H   0  0  0  0  0  0
  -21.0862   -8.8799   19.8966 H   0  0  0  0  0  0
  -22.3730  -10.9685   19.6165 H   0  0  0  0  0  0
  -21.2021   -7.6165   23.9728 H   0  0  0  0  0  0
  -21.1467   -6.0529   25.9076 H   0  0  0  0  0  0
  -22.0606   -2.7628   23.2824 H   0  0  0  0  0  0
  -22.4164  -11.9878   22.4760 H   0  0  0  0  0  0
  -21.1175  -13.1267   22.2606 H   0  0  0  0  0  0
  -24.6509  -15.8312   20.4944 H   0  0  0  0  0  0
  -26.2727  -15.6367   20.0733 H   0  0  0  0  0  0
  -26.7165  -32.5567   23.1216 H   0  0  0  0  0  0
  -25.0043  -33.9764   25.0431 H   0  0  0  0  0  0
  -24.2427  -29.4791   22.0108 H   0  0  0  0  0  0
  -23.3683  -35.9710   23.3302 H   0  0  0  0  0  0
  -24.3545  -36.8940   22.2048 H   0  0  0  0  0  0
  -23.7292  -37.6565   23.6629 H   0  0  0  0  0  0
  -26.0763  -31.6661   20.5270 H   0  0  0  0  0  0
  -26.8529  -30.9495   21.9211 H   0  0  0  0  0  0
  -28.1669  -29.1714   21.0824 H   0  0  0  0  0  0
  -26.1623  -25.9685   19.0023 H   0  0  0  0  0  0
  -24.0493  -27.2286   19.0282 H   0  0  0  0  0  0
  -22.7680  -29.1199   19.9497 H   0  0  0  0  0  0
  -23.6118  -30.5944   19.4950 H   0  0  0  0  0  0
  -25.1266  -36.1940   25.0819 H   0  0  0  0  0  0
  -20.9014  -28.3202   24.1518 H   0  0  0  0  0  0
  -20.5460  -26.2340   23.3566 H   0  0  0  0  0  0
  -21.6398  -26.7574   22.1160 H   0  0  0  0  0  0
  -19.6677  -25.6287   21.1242 H   0  0  0  0  0  0
  -19.6485  -27.3144   20.6722 H   0  0  0  0  0  0
  -17.3945  -26.6690   21.3990 H   0  0  0  0  0  0
  -18.0114  -26.0206   22.9009 H   0  0  0  0  0  0
  -19.7726  -30.7317   24.2175 H   0  0  0  0  0  0
  -17.4748  -31.6305   24.5203 H   0  0  0  0  0  0
  -15.5109  -30.2959   23.7660 H   0  0  0  0  0  0
  -15.8466  -28.0876   22.7005 H   0  0  0  0  0  0
  -24.5868  -30.7088   25.7729 H   0  0  0  0  0  0
  -24.8922  -32.2955   26.4770 H   0  0  0  0  0  0
  -25.8041  -30.8918   27.0208 H   0  0  0  0  0  0
  -26.2821  -29.6887   24.0868 H   0  0  0  0  0  0
  -27.4041  -29.7261   25.4388 H   0  0  0  0  0  0
  -27.8678  -30.4352   23.9163 H   0  0  0  0  0  0
  -27.2547  -33.3616   26.2027 H   0  0  0  0  0  0
  -28.3858  -32.6970   25.0345 H   0  0  0  0  0  0
  -28.0600  -31.8433   26.5378 H   0  0  0  0  0  0
  -28.2574  -38.0093   24.7456 H   0  0  0  0  0  0
  -28.1053  -36.2640   24.6315 H   0  0  0  0  0  0
  -27.2290  -37.1526   25.8865 H   0  0  0  0  0  0
  -20.9977  -29.7812   21.5765 H   0  0  0  0  0  0
  -26.0150  -38.2848   24.1392 H   0  0  0  0  0  0
  -27.1362  -19.4823   22.8516 H   0  0  0  0  0  0
  -28.6526  -17.5501   22.4451 H   0  0  0  0  0  0
  -25.8242  -21.2629   22.0340 H   0  0  0  0  0  0
  -25.4879  -21.4070   20.3644 H   0  0  0  0  0  0
  -26.2671  -20.9204   18.3853 H   0  0  0  0  0  0
  -27.6446  -20.5717   17.4459 H   0  0  0  0  0  0
  -27.6549  -22.7743   21.9891 H   0  0  0  0  0  0
  -26.2922  -23.5385   21.2634 H   0  0  0  0  0  0
  -27.1575  -22.9676   17.8272 H   0  0  0  0  0  0
  -28.7888  -22.4884   17.9957 H   0  0  0  0  0  0
  -27.5037  -24.1557   19.5817 H   0  0  0  0  0  0
  -28.9206  -16.3820   19.7943 H   0  0  0  0  0  0
  -30.4386  -17.1022   20.9599 H   0  0  0  0  0  0
  -30.8561  -24.8393   20.3749 H   0  0  0  0  0  0
  -29.8527  -25.0361   18.9947 H   0  0  0  0  0  0
  -29.7430  -26.5105   21.4325 H   0  0  0  0  0  0
  -28.2689  -25.5500   21.5039 H   0  0  0  0  0  0
  -28.9520  -15.2832   21.1962 H   0  0  0  0  0  0
  -29.9084  -22.7972   19.7844 H   0  0  0  0  0  0
  -29.3733  -23.2194   21.2514 H   0  0  0  0  0  0
  1 25  1  0  0  0
  1 30  2  0  0  0
  1 85  1  0  0  0
  2  3  1  0  0  0
  2 25  1  0  0  0
  2 88  1  0  0  0
  2 89  1  0  0  0
  3  4  1  0  0  0
  3 90  1  0  0  0
  3 91  1  0  0  0
  4  5  1  0  0  0
  4 92  1  0  0  0
  4 93  1  0  0  0
  5  6  1  0  0  0
  5 26  1  0  0  0
  5 94  1  0  0  0
  6 25  1  0  0  0
  6 95  1  0  0  0
  6 96  1  0  0  0
  7  8  2  0  0  0
  7 26  1  0  0  0
  7 29  1  0  0  0
  8  9  1  0  0  0
  8 22  1  0  0  0
  9 10  1  0  0  0
  9 27  2  0  0  0
 10 11  2  0  0  0
 10 15  1  0  0  0
 11 12  1  0  0  0
 11 97  1  0  0  0
 12 13  2  0  0  0
 12 98  1  0  0  0
 13 14  1  0  0  0
 13 31  1  0  0  0
 14 15  2  0  0  0
 14 99  1  0  0  0
 15100  1  0  0  0
 16 17  2  0  0  0
 16 21  1  0  0  0
 16 31  1  0  0  0
 17 18  1  0  0  0
 17101  1  0  0  0
 18 19  2  0  0  0
 18102  1  0  0  0
 19 20  1  0  0  0
 19 24  1  0  0  0
 20 21  2  0  0  0
 20103  1  0  0  0
 21 23  1  0  0  0
 22 28  1  0  0  0
 22 32  2  0  0  0
 26 27  1  0  0  0
 28104  1  0  0  0
 28105  1  0  0  0
 29106  1  0  0  0
 29107  1  0  0  0
 33 34  1  0  0  0
 33 66  1  0  0  0
 33 70  2  0  0  0
 34 36  1  0  0  0
 34 59  1  0  0  0
 34108  1  0  0  0
 35 44  2  0  0  0
 35 45  1  0  0  0
 35 68  1  0  0  0
 36 56  1  0  0  0
 36109  1  0  0  0
 37 39  1  0  0  0
 37 47  1  0  0  0
 37 66  1  0  0  0
 37110  1  0  0  0
 38 43  2  0  0  0
 38 46  1  0  0  0
 38 47  1  0  0  0
 39 64  1  0  0  0
 39 67  2  0  0  0
 40 52  1  0  0  0
 40 53  2  0  0  0
 40 58  1  0  0  0
 41111  1  0  0  0
 41112  1  0  0  0
 41113  1  0  0  0
 41 48  1  0  0  0
 42 43  1  0  0  0
 42 66  1  0  0  0
 42114  1  0  0  0
 42115  1  0  0  0
 43 44  1  0  0  0
 44116  1  0  0  0
 45 46  2  0  0  0
 45117  1  0  0  0
 46118  1  0  0  0
 47119  1  0  0  0
 47120  1  0  0  0
 48 56  1  0  0  0
 48 65  1  0  0  0
 48121  1  0  0  0
 49 50  1  0  0  0
 49 53  1  0  0  0
 49 64  1  0  0  0
 49122  1  0  0  0
 50 51  1  0  0  0
 50123  1  0  0  0
 50124  1  0  0  0
 51 52  1  0  0  0
 51125  1  0  0  0
 51126  1  0  0  0
 52127  1  0  0  0
 52128  1  0  0  0
 53 54  1  0  0  0
 54 55  2  0  0  0
 54129  1  0  0  0
 55 57  1  0  0  0
 55130  1  0  0  0
 56 69  2  0  0  0
 57 58  2  0  0  0
 57131  1  0  0  0
 58132  1  0  0  0
 59 60  1  0  0  0
 59 61  1  0  0  0
 59 62  1  0  0  0
 60133  1  0  0  0
 60134  1  0  0  0
 60135  1  0  0  0
 61136  1  0  0  0
 61137  1  0  0  0
 61138  1  0  0  0
 62139  1  0  0  0
 62140  1  0  0  0
 62141  1  0  0  0
 63 65  1  0  0  0
 63142  1  0  0  0
 63143  1  0  0  0
 63144  1  0  0  0
 64145  1  0  0  0
 65146  1  0  0  0
 68 84  1  0  0  0
 71 72  2  0  0  0
 71 73  1  0  0  0
 71147  1  0  0  0
 72 75  1  0  0  0
 72148  1  0  0  0
 73 74  2  0  0  0
 73 77  1  0  0  0
 74 76  1  0  0  0
 74 78  1  0  0  0
 75 76  2  0  0  0
 75 82  1  0  0  0
 76 87  1  0  0  0
 77 79  1  0  0  0
 77149  1  0  0  0
 77150  1  0  0  0
 78 80  1  0  0  0
 78151  1  0  0  0
 78152  1  0  0  0
 79 81  1  0  0  0
 79153  1  0  0  0
 79154  1  0  0  0
 80 81  1  0  0  0
 80155  1  0  0  0
 80156  1  0  0  0
 81 86  1  0  0  0
 81157  1  0  0  0
 82 85  1  0  0  0
 82158  1  0  0  0
 82159  1  0  0  0
 83 84  1  0  0  0
 83 86  1  0  0  0
 83160  1  0  0  0
 83161  1  0  0  0
 84162  1  0  0  0
 84163  1  0  0  0
 85164  1  0  0  0
 86165  1  0  0  0
 86166  1  0  0  0
M  CHG  1  86   1
M  ISO  4   1 100  68 101  84 101  85 100
M  END
> <chiral flag>
0

> <version>
0

> <s_m_source_file>
/data/baiqing/PycharmProjects/Reinvent-master-3.2/result/LINK_invent/BTK/process_docking_weight1_custom_sum_contain_oxygen_bond_distance_aromatic_linkinvent_7_9_3/rearranged_h_0031.sdf

> <i_m_source_file_index>
93

> <r_mmod_Potential_Energy-OPLS-2005>
340.899078369141

> <r_mmod_Stretch_Energy-OPLS-2005>
40.4176330566406

> <r_mmod_Bend_Energy-OPLS-2005>
449.494659423828

> <r_mmod_Torsional_Energy-OPLS-2005>
323.243103027344

> <r_mmod_Improper_Torsional_Energy-OPLS-2005>
13.6420822143555

> <r_mmod_Van_der_Waal_Energy-OPLS-2005>
207.025115966797

> <r_mmod_Electrostatic_Energy-OPLS-2005>
-299.879943847656

> <r_mmod_Solvation_Energy-OPLS-2005>
-444.525115966797

> <b_mmod_Minimization_Converged-OPLS-2005>
0

> <r_mmod_RMS_Derivative-OPLS-2005>
9.1821403503418

$$$$
93
                    3D
 Structure written by MMmdl.
148156  0  0  1  0            999 V2000
  -30.4188  -15.3635   20.3539 C   0  0  0  0  0  0
  -30.4330  -12.8780   19.5404 C   0  0  0  0  0  0
  -29.5388  -12.5930   18.3057 C   0  0  0  0  0  0
  -28.0948  -12.2939   18.7389 C   0  0  0  0  0  0
  -27.6071  -13.2848   19.8236 C   0  0  2  0  0  0
  -28.6343  -13.5165   20.9545 C   0  0  0  0  0  0
  -25.2364  -13.8260   20.5788 C   0  0  0  0  0  0
  -24.1723  -13.0444   20.9276 C   0  0  0  0  0  0
  -24.6390  -11.6944   20.8771 C   0  0  0  0  0  0
  -23.9085  -10.4297   21.0409 C   0  0  0  0  0  0
  -24.3633   -9.4215   21.9191 C   0  0  0  0  0  0
  -23.6309   -8.2246   22.0757 C   0  0  0  0  0  0
  -22.4290   -8.0284   21.3545 C   0  0  0  0  0  0
  -21.9927   -9.0258   20.4650 C   0  0  0  0  0  0
  -22.7255  -10.2135   20.3064 C   0  0  0  0  0  0
  -21.6855   -6.0745   22.5284 C   0  0  0  0  0  0
  -21.4018   -6.5653   23.8216 C   0  0  0  0  0  0
  -21.3658   -5.6806   24.9179 C   0  0  0  0  0  0
  -21.6038   -4.3067   24.7228 C   0  0  0  0  0  0
  -21.8814   -3.8156   23.4351 C   0  0  0  0  0  0
  -21.9194   -4.6971   22.3408 C   0  0  0  0  0  0
  -22.7743  -13.5186   21.1917 C   0  0  0  0  0  0
  -22.1666   -4.2158   21.0985 F   0  0  0  0  0  0
  -21.5621   -3.4551   25.7741 F   0  0  0  0  0  0
  -29.8569  -14.0434   20.3217 N   0  0  0  0  0  0
  -26.2799  -12.9550   20.3257 N   0  0  0  0  0  0
  -25.9328  -11.6641   20.5737 N   0  0  0  0  0  0
  -22.0414  -12.8161   22.0472 N   0  0  0  0  0  0
  -25.3996  -15.1992   20.4234 N   0  0  0  0  0  0
  -31.6391  -15.3347   20.1295 O   0  0  0  0  0  0
  -21.6654   -6.8883   21.4242 O   0  0  0  0  0  0
  -22.3426  -14.5493   20.6767 O   0  0  0  0  0  0
  -24.6678  -31.8175   23.1647 C   0  0  0  0  0  0
  -25.9333  -32.4563   23.8119 C   0  0  1  0  0  0
  -27.2253  -26.8741   20.1893 C   0  0  0  0  0  0
  -25.5990  -33.8374   24.2028 N   0  0  0  0  0  0
  -23.4875  -30.4281   21.5129 C   0  0  2  0  0  0
  -24.9448  -28.8062   20.1072 C   0  0  0  0  0  0
  -22.7709  -29.4410   22.4725 C   0  0  0  0  0  0
  -18.0339  -28.1424   22.8478 C   0  0  0  0  0  0
  -24.1497  -36.7192   23.2648 C   0  0  0  0  0  0
  -26.0592  -30.6078   21.4024 C   0  0  0  0  0  0
  -26.1271  -29.1916   20.7501 C   0  0  0  0  0  0
  -27.2579  -28.2466   20.7688 C   0  0  0  0  0  0
  -26.0174  -26.6628   19.4831 C   0  0  0  0  0  0
  -24.9196  -27.5649   19.4510 C   0  0  0  0  0  0
  -23.7331  -29.7407   20.1402 C   0  0  0  0  0  0
  -25.4138  -36.2952   24.0294 C   0  0  1  0  0  0
  -20.5972  -28.3772   23.1180 C   0  0  2  0  0  0
  -20.6818  -26.9445   22.5413 C   0  0  0  0  0  0
  -19.5787  -26.6380   21.5232 C   0  0  0  0  0  0
  -18.1965  -26.7961   22.1628 C   0  0  0  0  0  0
  -19.1605  -28.8914   23.2817 C   0  0  0  0  0  0
  -18.9513  -30.1497   23.8859 C   0  0  0  0  0  0
  -17.6506  -30.6612   24.0564 C   0  0  0  0  0  0
  -25.9104  -34.9338   23.4976 C   0  0  0  0  0  0
  -16.5392  -29.9108   23.6344 C   0  0  0  0  0  0
  -16.7322  -28.6524   23.0366 C   0  0  0  0  0  0
  -26.4566  -31.6530   25.0670 C   0  0  0  0  0  0
  -25.3685  -31.3814   26.1316 C   0  0  0  0  0  0
  -27.0457  -30.2894   24.6435 C   0  0  0  0  0  0
  -27.6050  -32.4347   25.7470 C   0  0  0  0  0  0
  -27.5560  -37.1757   24.8466 C   0  0  0  0  0  0
  -21.4366  -29.3043   22.3502 N   0  0  0  0  0  0
  -26.4269  -37.3694   23.9414 N   0  0  0  0  0  0
  -24.7597  -30.9794   22.0806 N   0  0  0  0  0  0
  -23.4231  -28.7975   23.2979 O   0  0  0  0  0  0
  -28.1982  -25.7249   20.3104 O   0  0  0  0  0  0
  -26.5706  -34.8891   22.4570 O   0  0  0  0  0  0
  -23.5732  -32.1149   23.6717 O   0  0  0  0  0  0
  -28.9331  -21.1531   19.6428 C   0  0  0  0  0  0
  -28.8717  -21.9612   21.6090 C   0  0  0  0  0  0
  -28.6296  -22.4944   20.3526 C   0  0  0  0  0  0
  -29.3092  -19.9363   20.3816 C   0  0  0  0  0  0
  -29.5809  -19.8825   22.8772 C   0  0  0  0  0  0
  -27.9821  -24.1205   19.8872 C   0  0  0  0  0  0
  -29.9982  -18.3056   20.0989 C   0  0  0  0  0  0
  -29.2529  -20.5695   21.6406 N   0  0  0  0  0  0
  -29.6804  -16.6739   20.4314 N   0  0  0  0  0  0
  -31.4490  -13.0855   19.2013 H   0  0  0  0  0  0
  -30.5164  -11.9918   20.1719 H   0  0  0  0  0  0
  -29.9394  -11.7575   17.7294 H   0  0  0  0  0  0
  -29.5488  -13.4593   17.6424 H   0  0  0  0  0  0
  -28.0734  -11.2786   19.1380 H   0  0  0  0  0  0
  -27.4245  -12.2989   17.8797 H   0  0  0  0  0  0
  -27.5050  -14.2360   19.2993 H   0  0  0  0  0  0
  -28.8236  -12.6061   21.5241 H   0  0  0  0  0  0
  -28.2506  -14.2519   21.6641 H   0  0  0  0  0  0
  -25.2764   -9.5702   22.4782 H   0  0  0  0  0  0
  -24.0020   -7.4638   22.7474 H   0  0  0  0  0  0
  -21.0859   -8.8768   19.8956 H   0  0  0  0  0  0
  -22.3696  -10.9679   19.6186 H   0  0  0  0  0  0
  -21.2014   -7.6161   23.9720 H   0  0  0  0  0  0
  -21.1483   -6.0540   25.9079 H   0  0  0  0  0  0
  -22.0588   -2.7620   23.2851 H   0  0  0  0  0  0
  -22.4057  -11.9819   22.4825 H   0  0  0  0  0  0
  -21.1034  -13.1164   22.2720 H   0  0  0  0  0  0
  -24.6266  -15.8468   20.5349 H   0  0  0  0  0  0
  -26.2394  -15.6414   20.0740 H   0  0  0  0  0  0
  -26.7399  -32.5083   23.0824 H   0  0  0  0  0  0
  -25.0136  -33.9444   25.0182 H   0  0  0  0  0  0
  -22.8028  -31.2600   21.3359 H   0  0  0  0  0  0
  -23.3760  -35.9522   23.3295 H   0  0  0  0  0  0
  -24.3576  -36.8855   22.2063 H   0  0  0  0  0  0
  -23.7269  -37.6382   23.6711 H   0  0  0  0  0  0
  -26.2429  -31.3457   20.6202 H   0  0  0  0  0  0
  -26.9165  -30.6679   22.0600 H   0  0  0  0  0  0
  -28.1463  -28.5409   21.3102 H   0  0  0  0  0  0
  -25.8761  -25.7184   18.9797 H   0  0  0  0  0  0
  -24.0245  -27.2673   18.9217 H   0  0  0  0  0  0
  -23.8975  -30.5080   19.3825 H   0  0  0  0  0  0
  -22.8422  -29.2008   19.8152 H   0  0  0  0  0  0
  -25.1350  -36.1716   25.0789 H   0  0  0  0  0  0
  -21.0071  -28.3387   24.1296 H   0  0  0  0  0  0
  -20.5707  -26.2393   23.3659 H   0  0  0  0  0  0
  -21.6683  -26.7417   22.1212 H   0  0  0  0  0  0
  -19.6955  -25.6275   21.1296 H   0  0  0  0  0  0
  -19.6742  -27.3166   20.6741 H   0  0  0  0  0  0
  -17.4250  -26.6720   21.4014 H   0  0  0  0  0  0
  -18.0333  -26.0104   22.9023 H   0  0  0  0  0  0
  -19.7986  -30.7326   24.2208 H   0  0  0  0  0  0
  -17.5061  -31.6293   24.5178 H   0  0  0  0  0  0
  -15.5389  -30.3002   23.7692 H   0  0  0  0  0  0
  -15.8720  -28.0832   22.7098 H   0  0  0  0  0  0
  -24.5896  -30.7124   25.7634 H   0  0  0  0  0  0
  -24.8831  -32.3019   26.4555 H   0  0  0  0  0  0
  -25.7901  -30.9112   27.0207 H   0  0  0  0  0  0
  -26.3123  -29.6559   24.1428 H   0  0  0  0  0  0
  -27.3959  -29.7275   25.5099 H   0  0  0  0  0  0
  -27.9083  -30.4059   23.9876 H   0  0  0  0  0  0
  -27.2623  -33.3711   26.1877 H   0  0  0  0  0  0
  -28.3942  -32.6799   25.0354 H   0  0  0  0  0  0
  -28.0618  -31.8581   26.5516 H   0  0  0  0  0  0
  -28.2568  -38.0056   24.7486 H   0  0  0  0  0  0
  -28.1057  -36.2579   24.6316 H   0  0  0  0  0  0
  -27.2273  -37.1437   25.8868 H   0  0  0  0  0  0
  -20.9610  -29.8742   21.6640 H   0  0  0  0  0  0
  -26.0100  -38.2745   24.1425 H   0  0  0  0  0  0
  -28.8875  -21.0993   18.5638 H   0  0  0  0  0  0
  -28.7878  -22.4812   22.5560 H   0  0  0  0  0  0
  -29.2165  -20.4468   23.7356 H   0  0  0  0  0  0
  -30.6617  -19.7713   22.9641 H   0  0  0  0  0  0
  -29.1180  -18.8955   22.8941 H   0  0  0  0  0  0
  -26.9116  -23.9707   20.0267 H   0  0  0  0  0  0
  -28.1050  -24.1360   18.8044 H   0  0  0  0  0  0
  -31.0159  -18.3914   20.4816 H   0  0  0  0  0  0
  -30.1581  -18.2737   19.0212 H   0  0  0  0  0  0
  -28.6997  -16.5222   20.6131 H   0  0  0  0  0  0
  1 25  1  0  0  0
  1 30  2  0  0  0
  1 79  1  0  0  0
  2  3  1  0  0  0
  2 25  1  0  0  0
  2 80  1  0  0  0
  2 81  1  0  0  0
  3  4  1  0  0  0
  3 82  1  0  0  0
  3 83  1  0  0  0
  4  5  1  0  0  0
  4 84  1  0  0  0
  4 85  1  0  0  0
  5  6  1  0  0  0
  5 26  1  0  0  0
  5 86  1  0  0  0
  6 25  1  0  0  0
  6 87  1  0  0  0
  6 88  1  0  0  0
  7  8  2  0  0  0
  7 26  1  0  0  0
  7 29  1  0  0  0
  8  9  1  0  0  0
  8 22  1  0  0  0
  9 10  1  0  0  0
  9 27  2  0  0  0
 10 11  2  0  0  0
 10 15  1  0  0  0
 11 12  1  0  0  0
 11 89  1  0  0  0
 12 13  2  0  0  0
 12 90  1  0  0  0
 13 14  1  0  0  0
 13 31  1  0  0  0
 14 15  2  0  0  0
 14 91  1  0  0  0
 15 92  1  0  0  0
 16 17  2  0  0  0
 16 21  1  0  0  0
 16 31  1  0  0  0
 17 18  1  0  0  0
 17 93  1  0  0  0
 18 19  2  0  0  0
 18 94  1  0  0  0
 19 20  1  0  0  0
 19 24  1  0  0  0
 20 21  2  0  0  0
 20 95  1  0  0  0
 21 23  1  0  0  0
 22 28  1  0  0  0
 22 32  2  0  0  0
 26 27  1  0  0  0
 28 96  1  0  0  0
 28 97  1  0  0  0
 29 98  1  0  0  0
 29 99  1  0  0  0
 33 34  1  0  0  0
 33 66  1  0  0  0
 33 70  2  0  0  0
 34 36  1  0  0  0
 34 59  1  0  0  0
 34100  1  0  0  0
 35 44  2  0  0  0
 35 45  1  0  0  0
 35 68  1  0  0  0
 36 56  1  0  0  0
 36101  1  0  0  0
 37 39  1  0  0  0
 37 47  1  0  0  0
 37 66  1  0  0  0
 37102  1  0  0  0
 38 43  2  0  0  0
 38 46  1  0  0  0
 38 47  1  0  0  0
 39 64  1  0  0  0
 39 67  2  0  0  0
 40 52  1  0  0  0
 40 53  2  0  0  0
 40 58  1  0  0  0
 41103  1  0  0  0
 41104  1  0  0  0
 41105  1  0  0  0
 41 48  1  0  0  0
 42 43  1  0  0  0
 42 66  1  0  0  0
 42106  1  0  0  0
 42107  1  0  0  0
 43 44  1  0  0  0
 44108  1  0  0  0
 45 46  2  0  0  0
 45109  1  0  0  0
 46110  1  0  0  0
 47111  1  0  0  0
 47112  1  0  0  0
 48 56  1  0  0  0
 48 65  1  0  0  0
 48113  1  0  0  0
 49 50  1  0  0  0
 49 53  1  0  0  0
 49 64  1  0  0  0
 49114  1  0  0  0
 50 51  1  0  0  0
 50115  1  0  0  0
 50116  1  0  0  0
 51 52  1  0  0  0
 51117  1  0  0  0
 51118  1  0  0  0
 52119  1  0  0  0
 52120  1  0  0  0
 53 54  1  0  0  0
 54 55  2  0  0  0
 54121  1  0  0  0
 55 57  1  0  0  0
 55122  1  0  0  0
 56 69  2  0  0  0
 57 58  2  0  0  0
 57123  1  0  0  0
 58124  1  0  0  0
 59 60  1  0  0  0
 59 61  1  0  0  0
 59 62  1  0  0  0
 60125  1  0  0  0
 60126  1  0  0  0
 60127  1  0  0  0
 61128  1  0  0  0
 61129  1  0  0  0
 61130  1  0  0  0
 62131  1  0  0  0
 62132  1  0  0  0
 62133  1  0  0  0
 63 65  1  0  0  0
 63134  1  0  0  0
 63135  1  0  0  0
 63136  1  0  0  0
 64137  1  0  0  0
 65138  1  0  0  0
 68 76  1  0  0  0
 71 73  1  0  0  0
 71 74  2  0  0  0
 71139  1  0  0  0
 72 73  2  0  0  0
 72 78  1  0  0  0
 72140  1  0  0  0
 73 76  1  0  0  0
 74 77  1  0  0  0
 74 78  1  0  0  0
 75 78  1  0  0  0
 75141  1  0  0  0
 75142  1  0  0  0
 75143  1  0  0  0
 76144  1  0  0  0
 76145  1  0  0  0
 77 79  1  0  0  0
 77146  1  0  0  0
 77147  1  0  0  0
 79148  1  0  0  0
M  ISO  4   1 100  68 101  76 101  79 100
M  END
> <chiral flag>
0

> <version>
0

> <s_m_source_file>
/data/baiqing/PycharmProjects/Reinvent-master-3.2/result/LINK_invent/BTK/process_docking_weight1_custom_sum_contain_oxygen_bond_distance_aromatic_linkinvent_7_9_3/rearranged_h_0031.sdf

> <i_m_source_file_index>
94

> <r_mmod_Potential_Energy-OPLS-2005>
1432.72131347656

> <r_mmod_Stretch_Energy-OPLS-2005>
663.338256835938

> <r_mmod_Bend_Energy-OPLS-2005>
481.370697021484

> <r_mmod_Torsional_Energy-OPLS-2005>
220.140823364258

> <r_mmod_Improper_Torsional_Energy-OPLS-2005>
6.66515254974365

> <r_mmod_Van_der_Waal_Energy-OPLS-2005>
108.252426147461

> <r_mmod_Electrostatic_Energy-OPLS-2005>
-383.716613769531

> <r_mmod_Solvation_Energy-OPLS-2005>
-225.03125

> <b_mmod_Minimization_Converged-OPLS-2005>
0

> <r_mmod_RMS_Derivative-OPLS-2005>
1.92257845401764

$$$$
94
                    3D
 Structure written by MMmdl.
159167  0  0  1  0            999 V2000
  -31.1579  -14.3658   20.1867 C   0  0  0  0  0  0
  -30.2173  -12.9497   18.4471 C   0  0  0  0  0  0
  -29.2444  -11.8926   17.9583 C   0  0  0  0  0  0
  -28.0907  -11.9414   18.9385 C   0  0  0  0  0  0
  -27.5945  -13.2479   19.6358 C   0  0  2  0  0  0
  -28.8118  -13.6777   20.5010 C   0  0  0  0  0  0
  -25.2373  -13.8632   20.6402 C   0  0  0  0  0  0
  -24.1511  -13.0555   20.9965 C   0  0  0  0  0  0
  -24.6322  -11.7258   20.9140 C   0  0  0  0  0  0
  -23.9114  -10.4259   21.0564 C   0  0  0  0  0  0
  -24.3453   -9.4045   21.9323 C   0  0  0  0  0  0
  -23.6143   -8.1921   22.0740 C   0  0  0  0  0  0
  -22.4189   -7.9968   21.3564 C   0  0  0  0  0  0
  -21.9933   -9.0037   20.4764 C   0  0  0  0  0  0
  -22.7294  -10.1977   20.3366 C   0  0  0  0  0  0
  -21.6603   -6.0309   22.5299 C   0  0  0  0  0  0
  -21.3756   -6.5400   23.8123 C   0  0  0  0  0  0
  -21.3738   -5.6718   24.9211 C   0  0  0  0  0  0
  -21.6077   -4.2932   24.7423 C   0  0  0  0  0  0
  -21.8972   -3.7870   23.4720 C   0  0  0  0  0  0
  -21.9070   -4.6538   22.3573 C   0  0  0  0  0  0
  -22.7404  -13.5498   21.1937 C   0  0  0  0  0  0
  -22.1694   -4.1670   21.1187 F   0  0  0  0  0  0
  -21.5538   -3.4533   25.8032 F   0  0  0  0  0  0
  -30.1735  -13.4752   19.8623 N   0  0  0  0  0  0
  -26.3036  -12.9934   20.3733 N   0  0  0  0  0  0
  -25.9418  -11.7170   20.6954 N   0  0  0  0  0  0
  -21.9657  -12.8784   22.0743 N   0  0  0  0  0  0
  -25.3364  -15.2168   20.4730 N   0  0  0  0  0  0
  -31.0717  -15.2247   20.9922 O   0  0  0  0  0  0
  -21.6662   -6.8452   21.4185 O   0  0  0  0  0  0
  -22.3324  -14.5701   20.6473 O   0  0  0  0  0  0
  -24.6443  -31.8483   23.1938 C   0  0  0  0  0  0
  -25.9154  -32.4776   23.8353 C   0  0  1  0  0  0
  -27.2327  -27.2588   20.0651 C   0  0  0  0  0  0
  -25.5850  -33.8588   24.2175 N   0  0  0  0  0  0
  -23.4285  -30.4723   21.5361 C   0  0  2  0  0  0
  -24.8577  -28.9070   20.1152 C   0  0  0  0  0  0
  -22.7591  -29.4596   22.5010 C   0  0  0  0  0  0
  -18.0304  -28.1336   22.8412 C   0  0  0  0  0  0
  -24.1534  -36.7360   23.2686 C   0  0  0  0  0  0
  -25.9620  -30.7657   21.3626 C   0  0  0  0  0  0
  -26.0326  -29.3821   20.7095 C   0  0  0  0  0  0
  -27.2220  -28.5713   20.6681 C   0  0  0  0  0  0
  -26.0029  -26.8387   19.4959 C   0  0  0  0  0  0
  -24.8444  -27.6342   19.5163 C   0  0  0  0  0  0
  -23.6330  -29.7944   20.1582 C   0  0  0  0  0  0
  -25.4136  -36.3098   24.0358 C   0  0  1  0  0  0
  -20.5885  -28.3707   23.1260 C   0  0  2  0  0  0
  -20.6807  -26.9410   22.5449 C   0  0  0  0  0  0
  -19.5794  -26.6330   21.5210 C   0  0  0  0  0  0
  -18.1962  -26.7858   22.1563 C   0  0  0  0  0  0
  -19.1529  -28.8845   23.2826 C   0  0  0  0  0  0
  -18.9452  -30.1465   23.8846 C   0  0  0  0  0  0
  -17.6445  -30.6586   24.0551 C   0  0  0  0  0  0
  -25.8995  -34.9470   23.5042 C   0  0  0  0  0  0
  -16.5341  -29.9069   23.6322 C   0  0  0  0  0  0
  -16.7288  -28.6460   23.0338 C   0  0  0  0  0  0
  -26.4467  -31.6568   25.0696 C   0  0  0  0  0  0
  -25.3741  -31.3616   26.1470 C   0  0  0  0  0  0
  -27.0409  -30.3051   24.6137 C   0  0  0  0  0  0
  -27.6044  -32.4327   25.7452 C   0  0  0  0  0  0
  -27.5549  -37.1841   24.8429 C   0  0  0  0  0  0
  -21.4280  -29.3047   22.3777 N   0  0  0  0  0  0
  -26.4267  -37.3798   23.9350 N   0  0  0  0  0  0
  -24.6945  -31.0486   22.0903 N   0  0  0  0  0  0
  -23.4133  -28.8170   23.3229 O   0  0  0  0  0  0
  -28.3867  -26.4188   20.0209 O   0  0  0  0  0  0
  -26.5731  -34.8998   22.4674 O   0  0  0  0  0  0
  -23.5583  -32.1333   23.7160 O   0  0  0  0  0  0
  -30.7617  -18.0014   17.1981 C   0  0  0  0  0  0
  -31.3463  -16.8225   16.7077 C   0  0  0  0  0  0
  -32.2282  -17.9322   19.1148 C   0  0  0  0  0  0
  -31.2219  -18.6605   18.3912 C   0  0  0  0  0  0
  -32.7475  -16.6900   18.6232 C   0  0  0  0  0  0
  -32.4486  -16.2481   17.3236 C   0  0  0  0  0  0
  -33.2829  -15.5651   19.5151 C   0  0  0  0  0  0
  -30.3596  -19.8274   19.0904 C   0  0  0  0  0  0
  -29.6202  -23.9169   19.5703 C   0  0  0  0  0  0
  -29.4647  -22.3362   19.1103 C   0  0  0  0  0  0
  -28.3069  -24.9201   19.7645 C   0  0  0  0  0  0
  -32.3211  -14.4050   19.5253 N   0  0  0  0  0  0
  -30.6564  -21.3378   18.9997 N   0  3  0  0  0  0
  -33.1441  -14.8035   16.6444 Cl  0  0  0  0  0  0
  -29.5298  -13.7555   18.1397 H   0  0  0  0  0  0
  -30.9158  -13.3418   17.6505 H   0  0  0  0  0  0
  -29.6163  -10.8353   17.7831 H   0  0  0  0  0  0
  -28.7227  -12.0987   17.0155 H   0  0  0  0  0  0
  -28.5489  -11.3742   19.7541 H   0  0  0  0  0  0
  -27.2756  -11.3410   18.5488 H   0  0  0  0  0  0
  -27.3140  -14.0118   18.8766 H   0  0  0  0  0  0
  -28.7925  -13.2683   21.4848 H   0  0  0  0  0  0
  -28.6296  -14.7604   20.5937 H   0  0  0  0  0  0
  -25.2340   -9.5351   22.5239 H   0  0  0  0  0  0
  -23.9564   -7.4300   22.7693 H   0  0  0  0  0  0
  -21.0794   -8.8900   19.9111 H   0  0  0  0  0  0
  -22.3798  -10.9525   19.6530 H   0  0  0  0  0  0
  -21.1809   -7.5902   23.9555 H   0  0  0  0  0  0
  -21.1446   -6.0468   25.9058 H   0  0  0  0  0  0
  -22.0732   -2.7344   23.3556 H   0  0  0  0  0  0
  -22.3194  -12.0538   22.5224 H   0  0  0  0  0  0
  -20.9922  -13.1306   22.2216 H   0  0  0  0  0  0
  -24.4699  -15.7215   20.3127 H   0  0  0  0  0  0
  -26.1206  -15.6566   20.0127 H   0  0  0  0  0  0
  -26.7134  -32.5395   23.1098 H   0  0  0  0  0  0
  -24.9856  -33.9578   25.0245 H   0  0  0  0  0  0
  -22.7350  -31.3054   21.4005 H   0  0  0  0  0  0
  -23.3700  -35.9752   23.3329 H   0  0  0  0  0  0
  -24.3625  -36.9029   22.2074 H   0  0  0  0  0  0
  -23.7328  -37.6570   23.6758 H   0  0  0  0  0  0
  -26.0831  -31.5056   20.5678 H   0  0  0  0  0  0
  -26.8701  -30.8223   21.9519 H   0  0  0  0  0  0
  -28.1543  -28.9186   21.1056 H   0  0  0  0  0  0
  -25.8901  -25.8825   19.0151 H   0  0  0  0  0  0
  -23.9466  -27.2536   19.0504 H   0  0  0  0  0  0
  -23.7426  -30.5588   19.4011 H   0  0  0  0  0  0
  -22.7411  -29.2404   19.8718 H   0  0  0  0  0  0
  -25.1298  -36.1941   25.0854 H   0  0  0  0  0  0
  -20.9928  -28.3271   24.1369 H   0  0  0  0  0  0
  -20.5580  -26.2326   23.3669 H   0  0  0  0  0  0
  -21.6722  -26.7397   22.1307 H   0  0  0  0  0  0
  -19.6974  -25.6210   21.1302 H   0  0  0  0  0  0
  -19.6748  -27.3126   20.6702 H   0  0  0  0  0  0
  -17.4252  -26.6596   21.3985 H   0  0  0  0  0  0
  -18.0396  -26.0069   22.8979 H   0  0  0  0  0  0
  -19.7944  -30.7337   24.2125 H   0  0  0  0  0  0
  -17.4983  -31.6203   24.5218 H   0  0  0  0  0  0
  -15.5330  -30.2908   23.7679 H   0  0  0  0  0  0
  -15.8684  -28.0787   22.6996 H   0  0  0  0  0  0
  -24.5920  -30.6962   25.7748 H   0  0  0  0  0  0
  -24.9001  -32.2784   26.5006 H   0  0  0  0  0  0
  -25.8175  -30.8693   27.0181 H   0  0  0  0  0  0
  -26.3083  -29.6780   24.1067 H   0  0  0  0  0  0
  -27.4147  -29.7287   25.4580 H   0  0  0  0  0  0
  -27.8896  -30.4397   23.9459 H   0  0  0  0  0  0
  -27.2653  -33.3692   26.2001 H   0  0  0  0  0  0
  -28.3896  -32.6847   25.0269 H   0  0  0  0  0  0
  -28.0810  -31.8445   26.5348 H   0  0  0  0  0  0
  -28.2555  -38.0168   24.7488 H   0  0  0  0  0  0
  -28.1106  -36.2679   24.6176 H   0  0  0  0  0  0
  -27.2346  -37.1553   25.8900 H   0  0  0  0  0  0
  -20.9484  -29.8696   21.6972 H   0  0  0  0  0  0
  -26.0129  -38.2874   24.1271 H   0  0  0  0  0  0
  -29.9013  -18.2864   16.6271 H   0  0  0  0  0  0
  -30.9554  -16.2761   15.8641 H   0  0  0  0  0  0
  -32.4749  -18.1931   20.1385 H   0  0  0  0  0  0
  -33.8833  -15.9401   20.3680 H   0  0  0  0  0  0
  -34.1100  -15.0403   19.0346 H   0  0  0  0  0  0
  -30.2635  -19.6010   20.1675 H   0  0  0  0  0  0
  -29.3917  -19.6818   18.6204 H   0  0  0  0  0  0
  -30.2478  -24.3928   18.7948 H   0  0  0  0  0  0
  -30.2253  -23.9608   20.4868 H   0  0  0  0  0  0
  -29.0701  -22.3448   18.0923 H   0  0  0  0  0  0
  -28.6950  -21.8493   19.7077 H   0  0  0  0  0  0
  -27.7264  -24.5281   20.5927 H   0  0  0  0  0  0
  -27.7186  -24.7711   18.8679 H   0  0  0  0  0  0
  -32.2712  -13.9279   18.6358 H   0  0  0  0  0  0
  -31.1138  -21.4853   18.1094 H   0  0  0  0  0  0
  -31.3763  -21.5425   19.6768 H   0  0  0  0  0  0
  1 25  1  0  0  0
  1 30  2  0  0  0
  1 82  1  0  0  0
  2  3  1  0  0  0
  2 25  1  0  0  0
  2 85  1  0  0  0
  2 86  1  0  0  0
  3  4  1  0  0  0
  3 87  1  0  0  0
  3 88  1  0  0  0
  4  5  1  0  0  0
  4 89  1  0  0  0
  4 90  1  0  0  0
  5  6  1  0  0  0
  5 26  1  0  0  0
  5 91  1  0  0  0
  6 25  1  0  0  0
  6 92  1  0  0  0
  6 93  1  0  0  0
  7  8  2  0  0  0
  7 26  1  0  0  0
  7 29  1  0  0  0
  8  9  1  0  0  0
  8 22  1  0  0  0
  9 10  1  0  0  0
  9 27  2  0  0  0
 10 11  2  0  0  0
 10 15  1  0  0  0
 11 12  1  0  0  0
 11 94  1  0  0  0
 12 13  2  0  0  0
 12 95  1  0  0  0
 13 14  1  0  0  0
 13 31  1  0  0  0
 14 15  2  0  0  0
 14 96  1  0  0  0
 15 97  1  0  0  0
 16 17  2  0  0  0
 16 21  1  0  0  0
 16 31  1  0  0  0
 17 18  1  0  0  0
 17 98  1  0  0  0
 18 19  2  0  0  0
 18 99  1  0  0  0
 19 20  1  0  0  0
 19 24  1  0  0  0
 20 21  2  0  0  0
 20100  1  0  0  0
 21 23  1  0  0  0
 22 28  1  0  0  0
 22 32  2  0  0  0
 26 27  1  0  0  0
 28101  1  0  0  0
 28102  1  0  0  0
 29103  1  0  0  0
 29104  1  0  0  0
 33 34  1  0  0  0
 33 66  1  0  0  0
 33 70  2  0  0  0
 34 36  1  0  0  0
 34 59  1  0  0  0
 34105  1  0  0  0
 35 44  2  0  0  0
 35 45  1  0  0  0
 35 68  1  0  0  0
 36 56  1  0  0  0
 36106  1  0  0  0
 37 39  1  0  0  0
 37 47  1  0  0  0
 37 66  1  0  0  0
 37107  1  0  0  0
 38 43  2  0  0  0
 38 46  1  0  0  0
 38 47  1  0  0  0
 39 64  1  0  0  0
 39 67  2  0  0  0
 40 52  1  0  0  0
 40 53  2  0  0  0
 40 58  1  0  0  0
 41108  1  0  0  0
 41109  1  0  0  0
 41110  1  0  0  0
 41 48  1  0  0  0
 42 43  1  0  0  0
 42 66  1  0  0  0
 42111  1  0  0  0
 42112  1  0  0  0
 43 44  1  0  0  0
 44113  1  0  0  0
 45 46  2  0  0  0
 45114  1  0  0  0
 46115  1  0  0  0
 47116  1  0  0  0
 47117  1  0  0  0
 48 56  1  0  0  0
 48 65  1  0  0  0
 48118  1  0  0  0
 49 50  1  0  0  0
 49 53  1  0  0  0
 49 64  1  0  0  0
 49119  1  0  0  0
 50 51  1  0  0  0
 50120  1  0  0  0
 50121  1  0  0  0
 51 52  1  0  0  0
 51122  1  0  0  0
 51123  1  0  0  0
 52124  1  0  0  0
 52125  1  0  0  0
 53 54  1  0  0  0
 54 55  2  0  0  0
 54126  1  0  0  0
 55 57  1  0  0  0
 55127  1  0  0  0
 56 69  2  0  0  0
 57 58  2  0  0  0
 57128  1  0  0  0
 58129  1  0  0  0
 59 60  1  0  0  0
 59 61  1  0  0  0
 59 62  1  0  0  0
 60130  1  0  0  0
 60131  1  0  0  0
 60132  1  0  0  0
 61133  1  0  0  0
 61134  1  0  0  0
 61135  1  0  0  0
 62136  1  0  0  0
 62137  1  0  0  0
 62138  1  0  0  0
 63 65  1  0  0  0
 63139  1  0  0  0
 63140  1  0  0  0
 63141  1  0  0  0
 64142  1  0  0  0
 65143  1  0  0  0
 68 81  1  0  0  0
 71 72  2  0  0  0
 71 74  1  0  0  0
 71144  1  0  0  0
 72 76  1  0  0  0
 72145  1  0  0  0
 73 74  2  0  0  0
 73 75  1  0  0  0
 73146  1  0  0  0
 74 78  1  0  0  0
 75 76  2  0  0  0
 75 77  1  0  0  0
 76 84  1  0  0  0
 77 82  1  0  0  0
 77147  1  0  0  0
 77148  1  0  0  0
 78 83  1  0  0  0
 78149  1  0  0  0
 78150  1  0  0  0
 79 80  1  0  0  0
 79 81  1  0  0  0
 79151  1  0  0  0
 79152  1  0  0  0
 80 83  1  0  0  0
 80153  1  0  0  0
 80154  1  0  0  0
 81155  1  0  0  0
 81156  1  0  0  0
 82157  1  0  0  0
 83158  1  0  0  0
 83159  1  0  0  0
M  CHG  1  83   1
M  ISO  4   1 100  68 101  81 101  82 100
M  END
> <chiral flag>
0

> <version>
0

> <s_m_source_file>
/data/baiqing/PycharmProjects/Reinvent-master-3.2/result/LINK_invent/BTK/process_docking_weight1_custom_sum_contain_oxygen_bond_distance_aromatic_linkinvent_7_9_3/rearranged_h_0031.sdf

> <i_m_source_file_index>
95

> <r_mmod_Potential_Energy-OPLS-2005>
826.77783203125

> <r_mmod_Stretch_Energy-OPLS-2005>
186.346603393555

> <r_mmod_Bend_Energy-OPLS-2005>
380.633178710938

> <r_mmod_Torsional_Energy-OPLS-2005>
277.249267578125

> <r_mmod_Improper_Torsional_Energy-OPLS-2005>
22.1579055786133

> <r_mmod_Van_der_Waal_Energy-OPLS-2005>
167.452209472656

> <r_mmod_Electrostatic_Energy-OPLS-2005>
-332.209686279297

> <r_mmod_Solvation_Energy-OPLS-2005>
-482.494354248047

> <b_mmod_Minimization_Converged-OPLS-2005>
0

> <r_mmod_RMS_Derivative-OPLS-2005>
53.6023445129395

$$$$
95
                    3D
 Structure written by MMmdl.
159167  0  0  1  0            999 V2000
  -30.5851  -14.7117   20.4794 C   0  0  0  0  0  0
  -30.4382  -12.4345   19.4383 C   0  0  0  0  0  0
  -29.4990  -12.4881   18.2136 C   0  0  0  0  0  0
  -28.0304  -12.2951   18.6427 C   0  0  0  0  0  0
  -27.6360  -13.2112   19.8343 C   0  0  2  0  0  0
  -28.6829  -13.1327   20.9638 C   0  0  0  0  0  0
  -25.2531  -13.8162   20.5678 C   0  0  0  0  0  0
  -24.1819  -13.0455   20.9168 C   0  0  0  0  0  0
  -24.6357  -11.6900   20.8726 C   0  0  0  0  0  0
  -23.9048  -10.4296   21.0387 C   0  0  0  0  0  0
  -24.3603   -9.4218   21.9177 C   0  0  0  0  0  0
  -23.6287   -8.2250   22.0771 C   0  0  0  0  0  0
  -22.4266   -8.0282   21.3551 C   0  0  0  0  0  0
  -21.9884   -9.0253   20.4653 C   0  0  0  0  0  0
  -22.7214  -10.2124   20.3047 C   0  0  0  0  0  0
  -21.6831   -6.0754   22.5294 C   0  0  0  0  0  0
  -21.4024   -6.5669   23.8240 C   0  0  0  0  0  0
  -21.3651   -5.6808   24.9188 C   0  0  0  0  0  0
  -21.6036   -4.3071   24.7220 C   0  0  0  0  0  0
  -21.8819   -3.8172   23.4337 C   0  0  0  0  0  0
  -21.9199   -4.6993   22.3406 C   0  0  0  0  0  0
  -22.7837  -13.5243   21.1847 C   0  0  0  0  0  0
  -22.1663   -4.2201   21.0968 F   0  0  0  0  0  0
  -21.5614   -3.4536   25.7708 F   0  0  0  0  0  0
  -29.9808  -13.4831   20.3710 N   0  0  0  0  0  0
  -26.2916  -12.9327   20.3199 N   0  0  0  0  0  0
  -25.9271  -11.6491   20.5712 N   0  0  0  0  0  0
  -22.0452  -12.8252   22.0366 N   0  0  0  0  0  0
  -25.4280  -15.1903   20.4140 N   0  0  0  0  0  0
  -31.7958  -14.8372   20.2833 O   0  0  0  0  0  0
  -21.6632   -6.8864   21.4240 O   0  0  0  0  0  0
  -22.3542  -14.5550   20.6664 O   0  0  0  0  0  0
  -24.6245  -31.8608   23.2073 C   0  0  0  0  0  0
  -25.9079  -32.4791   23.8426 C   0  0  1  0  0  0
  -27.2179  -27.2958   20.1357 C   0  0  0  0  0  0
  -25.5918  -33.8609   24.2355 N   0  0  0  0  0  0
  -23.4233  -30.4877   21.5409 C   0  0  2  0  0  0
  -24.8727  -28.9406   20.1063 C   0  0  0  0  0  0
  -22.7509  -29.4608   22.4833 C   0  0  0  0  0  0
  -18.0287  -28.1458   22.8353 C   0  0  0  0  0  0
  -24.1473  -36.7292   23.2644 C   0  0  0  0  0  0
  -25.9659  -30.7808   21.3857 C   0  0  0  0  0  0
  -26.0389  -29.4084   20.7242 C   0  0  0  0  0  0
  -27.2166  -28.5991   20.7283 C   0  0  0  0  0  0
  -26.0254  -26.8920   19.4878 C   0  0  0  0  0  0
  -24.8696  -27.6874   19.4764 C   0  0  0  0  0  0
  -23.6546  -29.8404   20.1491 C   0  0  0  0  0  0
  -25.4109  -36.3113   24.0335 C   0  0  1  0  0  0
  -20.5876  -28.3754   23.1190 C   0  0  2  0  0  0
  -20.6762  -26.9467   22.5352 C   0  0  0  0  0  0
  -19.5774  -26.6402   21.5130 C   0  0  0  0  0  0
  -18.1949  -26.7975   22.1536 C   0  0  0  0  0  0
  -19.1543  -28.8920   23.2744 C   0  0  0  0  0  0
  -18.9500  -30.1508   23.8778 C   0  0  0  0  0  0
  -17.6516  -30.6614   24.0567 C   0  0  0  0  0  0
  -25.9035  -34.9471   23.5157 C   0  0  0  0  0  0
  -16.5386  -29.9142   23.6330 C   0  0  0  0  0  0
  -16.7271  -28.6608   23.0212 C   0  0  0  0  0  0
  -26.4471  -31.6621   25.0807 C   0  0  0  0  0  0
  -25.3734  -31.3725   26.1574 C   0  0  0  0  0  0
  -27.0341  -30.3073   24.6281 C   0  0  0  0  0  0
  -27.6092  -32.4300   25.7543 C   0  0  0  0  0  0
  -27.5558  -37.1811   24.8470 C   0  0  0  0  0  0
  -21.4218  -29.3124   22.3633 N   0  0  0  0  0  0
  -26.4254  -37.3822   23.9445 N   0  0  0  0  0  0
  -24.6896  -31.0620   22.1020 N   0  0  0  0  0  0
  -23.4228  -28.8068   23.2863 O   0  0  0  0  0  0
  -28.3093  -26.4093   20.2061 O   0  0  0  0  0  0
  -26.5560  -34.8909   22.4693 O   0  0  0  0  0  0
  -23.5391  -32.1388   23.7372 O   0  0  0  0  0  0
  -32.0456  -20.1524   20.8487 C   0  0  0  0  0  0
  -29.3291  -19.6722   20.7321 C   0  0  0  0  0  0
  -31.1760  -21.2514   20.7149 C   0  0  0  0  0  0
  -31.6049  -18.8197   20.9166 C   0  0  0  0  0  0
  -29.7656  -21.0602   20.6244 C   0  0  0  0  0  0
  -30.2187  -18.5299   20.9006 C   0  0  0  0  0  0
  -31.8597  -22.6066   20.7158 C   0  0  0  0  0  0
  -32.6902  -17.7648   21.0678 C   0  0  0  0  0  0
  -28.7305  -22.2714   20.4378 C   0  0  0  0  0  0
  -29.7320  -17.0828   21.3485 C   0  0  0  0  0  0
  -29.1206  -23.8447   20.4305 C   0  0  0  0  0  0
  -28.0208  -24.9482   20.0927 C   0  0  0  0  0  0
  -29.7411  -15.8026   20.5330 N   0  0  0  0  0  0
  -31.4741  -12.5826   19.1295 H   0  0  0  0  0  0
  -30.4049  -11.4509   19.9125 H   0  0  0  0  0  0
  -29.7770  -11.7211   17.4907 H   0  0  0  0  0  0
  -29.6125  -13.4451   17.7001 H   0  0  0  0  0  0
  -27.9018  -11.2480   18.9304 H   0  0  0  0  0  0
  -27.3611  -12.4627   17.7987 H   0  0  0  0  0  0
  -27.6320  -14.2272   19.4432 H   0  0  0  0  0  0
  -28.7125  -12.1314   21.3984 H   0  0  0  0  0  0
  -28.4211  -13.8090   21.7788 H   0  0  0  0  0  0
  -25.2728   -9.5731   22.4757 H   0  0  0  0  0  0
  -24.0021   -7.4635   22.7486 H   0  0  0  0  0  0
  -21.0832   -8.8753   19.8921 H   0  0  0  0  0  0
  -22.3678  -10.9663   19.6163 H   0  0  0  0  0  0
  -21.2023   -7.6177   23.9768 H   0  0  0  0  0  0
  -21.1462   -6.0514   25.9095 H   0  0  0  0  0  0
  -22.0593   -2.7638   23.2810 H   0  0  0  0  0  0
  -22.4041  -11.9930   22.4801 H   0  0  0  0  0  0
  -21.1069  -13.1322   22.2521 H   0  0  0  0  0  0
  -24.6634  -15.8429   20.5483 H   0  0  0  0  0  0
  -26.2834  -15.6356   20.1134 H   0  0  0  0  0  0
  -26.7117  -32.5462   23.1135 H   0  0  0  0  0  0
  -25.0198  -33.9792   25.0595 H   0  0  0  0  0  0
  -22.7087  -31.3008   21.3967 H   0  0  0  0  0  0
  -23.3747  -35.9608   23.3320 H   0  0  0  0  0  0
  -24.3557  -36.8895   22.2053 H   0  0  0  0  0  0
  -23.7180  -37.6485   23.6644 H   0  0  0  0  0  0
  -26.0954  -31.5364   20.6116 H   0  0  0  0  0  0
  -26.8461  -30.8306   22.0129 H   0  0  0  0  0  0
  -28.0998  -28.9589   21.2362 H   0  0  0  0  0  0
  -25.9512  -25.9337   18.9960 H   0  0  0  0  0  0
  -23.9805  -27.3193   18.9826 H   0  0  0  0  0  0
  -23.8208  -30.6331   19.4159 H   0  0  0  0  0  0
  -22.7691  -29.3054   19.8035 H   0  0  0  0  0  0
  -25.1259  -36.1971   25.0810 H   0  0  0  0  0  0
  -20.9862  -28.3322   24.1338 H   0  0  0  0  0  0
  -20.5588  -26.2392   23.3556 H   0  0  0  0  0  0
  -21.6657  -26.7447   22.1210 H   0  0  0  0  0  0
  -19.6963  -25.6292   21.1211 H   0  0  0  0  0  0
  -19.6754  -27.3147   20.6599 H   0  0  0  0  0  0
  -17.4189  -26.6538   21.3979 H   0  0  0  0  0  0
  -18.0451  -26.0219   22.9050 H   0  0  0  0  0  0
  -19.8023  -30.7323   24.2054 H   0  0  0  0  0  0
  -17.5128  -31.6259   24.5275 H   0  0  0  0  0  0
  -15.5411  -30.3023   23.7821 H   0  0  0  0  0  0
  -15.8636  -28.1012   22.6834 H   0  0  0  0  0  0
  -24.5967  -30.6982   25.7930 H   0  0  0  0  0  0
  -24.8832  -32.2853   26.4995 H   0  0  0  0  0  0
  -25.8131  -30.8964   27.0358 H   0  0  0  0  0  0
  -26.2962  -29.6812   24.1251 H   0  0  0  0  0  0
  -27.4023  -29.7333   25.4788 H   0  0  0  0  0  0
  -27.8831  -30.4417   23.9560 H   0  0  0  0  0  0
  -27.2837  -33.3657   26.2105 H   0  0  0  0  0  0
  -28.3921  -32.6756   25.0346 H   0  0  0  0  0  0
  -28.0734  -31.8399   26.5448 H   0  0  0  0  0  0
  -28.2579  -38.0106   24.7504 H   0  0  0  0  0  0
  -28.1031  -36.2627   24.6288 H   0  0  0  0  0  0
  -27.2252  -37.1428   25.8863 H   0  0  0  0  0  0
  -20.9393  -29.9090   21.7048 H   0  0  0  0  0  0
  -26.0135  -38.2885   24.1534 H   0  0  0  0  0  0
  -33.1059  -20.3418   20.9370 H   0  0  0  0  0  0
  -28.2626  -19.4779   20.7390 H   0  0  0  0  0  0
  -31.5021  -23.2139   21.5413 H   0  0  0  0  0  0
  -31.7255  -23.1061   19.7588 H   0  0  0  0  0  0
  -32.9368  -22.5273   20.8596 H   0  0  0  0  0  0
  -33.6039  -18.2158   21.4589 H   0  0  0  0  0  0
  -32.9461  -17.3372   20.0970 H   0  0  0  0  0  0
  -32.4290  -16.9623   21.7524 H   0  0  0  0  0  0
  -27.9673  -22.1448   21.2057 H   0  0  0  0  0  0
  -28.2129  -22.0843   19.5002 H   0  0  0  0  0  0
  -28.6990  -17.2044   21.6754 H   0  0  0  0  0  0
  -30.2557  -16.8610   22.2768 H   0  0  0  0  0  0
  -29.8864  -24.0299   19.6861 H   0  0  0  0  0  0
  -29.5259  -24.0987   21.4068 H   0  0  0  0  0  0
  -27.1551  -24.7138   20.7145 H   0  0  0  0  0  0
  -27.7315  -24.7741   19.0559 H   0  0  0  0  0  0
  -28.8033  -15.5277   20.2821 H   0  0  0  0  0  0
  1 25  1  0  0  0
  1 30  2  0  0  0
  1 83  1  0  0  0
  2  3  1  0  0  0
  2 25  1  0  0  0
  2 84  1  0  0  0
  2 85  1  0  0  0
  3  4  1  0  0  0
  3 86  1  0  0  0
  3 87  1  0  0  0
  4  5  1  0  0  0
  4 88  1  0  0  0
  4 89  1  0  0  0
  5  6  1  0  0  0
  5 26  1  0  0  0
  5 90  1  0  0  0
  6 25  1  0  0  0
  6 91  1  0  0  0
  6 92  1  0  0  0
  7  8  2  0  0  0
  7 26  1  0  0  0
  7 29  1  0  0  0
  8  9  1  0  0  0
  8 22  1  0  0  0
  9 10  1  0  0  0
  9 27  2  0  0  0
 10 11  2  0  0  0
 10 15  1  0  0  0
 11 12  1  0  0  0
 11 93  1  0  0  0
 12 13  2  0  0  0
 12 94  1  0  0  0
 13 14  1  0  0  0
 13 31  1  0  0  0
 14 15  2  0  0  0
 14 95  1  0  0  0
 15 96  1  0  0  0
 16 17  2  0  0  0
 16 21  1  0  0  0
 16 31  1  0  0  0
 17 18  1  0  0  0
 17 97  1  0  0  0
 18 19  2  0  0  0
 18 98  1  0  0  0
 19 20  1  0  0  0
 19 24  1  0  0  0
 20 21  2  0  0  0
 20 99  1  0  0  0
 21 23  1  0  0  0
 22 28  1  0  0  0
 22 32  2  0  0  0
 26 27  1  0  0  0
 28100  1  0  0  0
 28101  1  0  0  0
 29102  1  0  0  0
 29103  1  0  0  0
 33 34  1  0  0  0
 33 66  1  0  0  0
 33 70  2  0  0  0
 34 36  1  0  0  0
 34 59  1  0  0  0
 34104  1  0  0  0
 35 44  2  0  0  0
 35 45  1  0  0  0
 35 68  1  0  0  0
 36 56  1  0  0  0
 36105  1  0  0  0
 37 39  1  0  0  0
 37 47  1  0  0  0
 37 66  1  0  0  0
 37106  1  0  0  0
 38 43  2  0  0  0
 38 46  1  0  0  0
 38 47  1  0  0  0
 39 64  1  0  0  0
 39 67  2  0  0  0
 40 52  1  0  0  0
 40 53  2  0  0  0
 40 58  1  0  0  0
 41107  1  0  0  0
 41108  1  0  0  0
 41109  1  0  0  0
 41 48  1  0  0  0
 42 43  1  0  0  0
 42 66  1  0  0  0
 42110  1  0  0  0
 42111  1  0  0  0
 43 44  1  0  0  0
 44112  1  0  0  0
 45 46  2  0  0  0
 45113  1  0  0  0
 46114  1  0  0  0
 47115  1  0  0  0
 47116  1  0  0  0
 48 56  1  0  0  0
 48 65  1  0  0  0
 48117  1  0  0  0
 49 50  1  0  0  0
 49 53  1  0  0  0
 49 64  1  0  0  0
 49118  1  0  0  0
 50 51  1  0  0  0
 50119  1  0  0  0
 50120  1  0  0  0
 51 52  1  0  0  0
 51121  1  0  0  0
 51122  1  0  0  0
 52123  1  0  0  0
 52124  1  0  0  0
 53 54  1  0  0  0
 54 55  2  0  0  0
 54125  1  0  0  0
 55 57  1  0  0  0
 55126  1  0  0  0
 56 69  2  0  0  0
 57 58  2  0  0  0
 57127  1  0  0  0
 58128  1  0  0  0
 59 60  1  0  0  0
 59 61  1  0  0  0
 59 62  1  0  0  0
 60129  1  0  0  0
 60130  1  0  0  0
 60131  1  0  0  0
 61132  1  0  0  0
 61133  1  0  0  0
 61134  1  0  0  0
 62135  1  0  0  0
 62136  1  0  0  0
 62137  1  0  0  0
 63 65  1  0  0  0
 63138  1  0  0  0
 63139  1  0  0  0
 63140  1  0  0  0
 64141  1  0  0  0
 65142  1  0  0  0
 68 82  1  0  0  0
 71 73  2  0  0  0
 71 74  1  0  0  0
 71143  1  0  0  0
 72 75  2  0  0  0
 72 76  1  0  0  0
 72144  1  0  0  0
 73 75  1  0  0  0
 73 77  1  0  0  0
 74 76  2  0  0  0
 74 78  1  0  0  0
 75 79  1  0  0  0
 76 80  1  0  0  0
 77145  1  0  0  0
 77146  1  0  0  0
 77147  1  0  0  0
 78148  1  0  0  0
 78149  1  0  0  0
 78150  1  0  0  0
 79 81  1  0  0  0
 79151  1  0  0  0
 79152  1  0  0  0
 80 83  1  0  0  0
 80153  1  0  0  0
 80154  1  0  0  0
 81 82  1  0  0  0
 81155  1  0  0  0
 81156  1  0  0  0
 82157  1  0  0  0
 82158  1  0  0  0
 83159  1  0  0  0
M  ISO  4   1 100  68 101  82 101  83 100
M  END
> <chiral flag>
0

> <version>
0

> <s_m_source_file>
/data/baiqing/PycharmProjects/Reinvent-master-3.2/result/LINK_invent/BTK/process_docking_weight1_custom_sum_contain_oxygen_bond_distance_aromatic_linkinvent_7_9_3/rearranged_h_0031.sdf

> <i_m_source_file_index>
96

> <r_mmod_Potential_Energy-OPLS-2005>
150.177581787109

> <r_mmod_Stretch_Energy-OPLS-2005>
109.86124420166

> <r_mmod_Bend_Energy-OPLS-2005>
189.168228149414

> <r_mmod_Torsional_Energy-OPLS-2005>
238.478240966797

> <r_mmod_Improper_Torsional_Energy-OPLS-2005>
9.89785003662109

> <r_mmod_Van_der_Waal_Energy-OPLS-2005>
152.182891845703

> <r_mmod_Electrostatic_Energy-OPLS-2005>
-415.654022216797

> <r_mmod_Solvation_Energy-OPLS-2005>
-212.275283813477

> <b_mmod_Minimization_Converged-OPLS-2005>
0

> <r_mmod_RMS_Derivative-OPLS-2005>
6.22225046157837

$$$$
96
                    3D
 Structure written by MMmdl.
162170  0  0  1  0            999 V2000
  -30.7149  -14.4791   20.5266 C   0  0  0  0  0  0
  -30.4143  -12.3032   19.4262 C   0  0  0  0  0  0
  -29.4896  -12.4983   18.2082 C   0  0  0  0  0  0
  -28.0132  -12.3509   18.6251 C   0  0  0  0  0  0
  -27.6579  -13.1909   19.8809 C   0  0  2  0  0  0
  -28.7079  -13.0195   21.0027 C   0  0  0  0  0  0
  -25.2583  -13.8108   20.5717 C   0  0  0  0  0  0
  -24.1829  -13.0415   20.9223 C   0  0  0  0  0  0
  -24.6361  -11.6876   20.8784 C   0  0  0  0  0  0
  -23.9015  -10.4285   21.0432 C   0  0  0  0  0  0
  -24.3577   -9.4198   21.9196 C   0  0  0  0  0  0
  -23.6263   -8.2228   22.0756 C   0  0  0  0  0  0
  -22.4244   -8.0271   21.3545 C   0  0  0  0  0  0
  -21.9876   -9.0247   20.4646 C   0  0  0  0  0  0
  -22.7198  -10.2130   20.3065 C   0  0  0  0  0  0
  -21.6846   -6.0721   22.5274 C   0  0  0  0  0  0
  -21.4011   -6.5627   23.8207 C   0  0  0  0  0  0
  -21.3658   -5.6783   24.9173 C   0  0  0  0  0  0
  -21.6040   -4.3046   24.7231 C   0  0  0  0  0  0
  -21.8822   -3.8132   23.4358 C   0  0  0  0  0  0
  -21.9193   -4.6947   22.3408 C   0  0  0  0  0  0
  -22.7856  -13.5236   21.1881 C   0  0  0  0  0  0
  -22.1651   -4.2130   21.0987 F   0  0  0  0  0  0
  -21.5643   -3.4531   25.7749 F   0  0  0  0  0  0
  -30.0310  -13.3084   20.4291 N   0  0  0  0  0  0
  -26.3009  -12.9244   20.3445 N   0  0  0  0  0  0
  -25.9288  -11.6424   20.5853 N   0  0  0  0  0  0
  -22.0470  -12.8234   22.0417 N   0  0  0  0  0  0
  -25.4287  -15.1825   20.4088 N   0  0  0  0  0  0
  -31.8745  -14.6027   20.1242 O   0  0  0  0  0  0
  -21.6624   -6.8859   21.4234 O   0  0  0  0  0  0
  -22.3542  -14.5541   20.6717 O   0  0  0  0  0  0
  -24.6138  -31.8697   23.2109 C   0  0  0  0  0  0
  -25.9036  -32.4840   23.8395 C   0  0  1  0  0  0
  -27.2283  -27.4508   20.0989 C   0  0  0  0  0  0
  -25.5903  -33.8635   24.2326 N   0  0  0  0  0  0
  -23.4014  -30.4926   21.5523 C   0  0  2  0  0  0
  -24.8497  -28.9710   20.1030 C   0  0  0  0  0  0
  -22.7413  -29.4649   22.5003 C   0  0  0  0  0  0
  -18.0264  -28.1354   22.8499 C   0  0  0  0  0  0
  -24.1490  -36.7325   23.2638 C   0  0  0  0  0  0
  -25.9289  -30.8437   21.3599 C   0  0  0  0  0  0
  -26.0097  -29.4828   20.7010 C   0  0  0  0  0  0
  -27.2073  -28.7323   20.6921 C   0  0  0  0  0  0
  -26.0598  -26.9560   19.4826 C   0  0  0  0  0  0
  -24.8707  -27.7085   19.4839 C   0  0  0  0  0  0
  -23.6083  -29.8326   20.1629 C   0  0  0  0  0  0
  -25.4115  -36.3129   24.0336 C   0  0  1  0  0  0
  -20.5858  -28.3640   23.1333 C   0  0  2  0  0  0
  -20.6756  -26.9383   22.5388 C   0  0  0  0  0  0
  -19.5729  -26.6379   21.5185 C   0  0  0  0  0  0
  -18.1917  -26.7897   22.1631 C   0  0  0  0  0  0
  -19.1512  -28.8811   23.2920 C   0  0  0  0  0  0
  -18.9437  -30.1416   23.8940 C   0  0  0  0  0  0
  -17.6436  -30.6553   24.0592 C   0  0  0  0  0  0
  -25.9044  -34.9492   23.5130 C   0  0  0  0  0  0
  -16.5327  -29.9057   23.6330 C   0  0  0  0  0  0
  -16.7252  -28.6487   23.0337 C   0  0  0  0  0  0
  -26.4458  -31.6616   25.0719 C   0  0  0  0  0  0
  -25.3713  -31.3700   26.1453 C   0  0  0  0  0  0
  -27.0279  -30.3063   24.6078 C   0  0  0  0  0  0
  -27.6035  -32.4335   25.7480 C   0  0  0  0  0  0
  -27.5585  -37.1817   24.8465 C   0  0  0  0  0  0
  -21.4138  -29.3019   22.3747 N   0  0  0  0  0  0
  -26.4300  -37.3814   23.9408 N   0  0  0  0  0  0
  -24.6665  -31.0816   22.0998 N   0  0  0  0  0  0
  -23.4199  -28.8194   23.3034 O   0  0  0  0  0  0
  -28.3445  -26.6499   20.1676 O   0  0  0  0  0  0
  -26.5607  -34.8934   22.4691 O   0  0  0  0  0  0
  -23.5334  -32.1433   23.7517 O   0  0  0  0  0  0
  -27.8364  -20.3366   20.0727 C   0  0  0  0  0  0
  -29.8221  -19.3576   21.0655 C   0  0  0  0  0  0
  -29.0283  -20.4986   20.8073 C   0  0  0  0  0  0
  -27.5002  -19.0948   19.4964 C   0  0  0  0  0  0
  -29.5150  -18.0940   20.4997 C   0  0  0  0  0  0
  -28.3859  -17.9954   19.6427 C   0  0  0  0  0  0
  -24.9961  -19.6779   19.2870 C   0  0  0  0  0  0
  -29.4996  -21.8804   21.2839 C   0  0  0  0  0  0
  -26.2212  -18.9882   18.6637 C   0  0  0  0  0  0
  -30.5156  -16.9451   20.7345 C   0  0  0  0  0  0
  -28.6223  -23.0817   20.8399 C   0  0  0  0  0  0
  -29.2265  -24.4813   21.1127 C   0  0  0  0  0  0
  -28.1636  -25.6062   21.1385 C   0  0  0  0  0  0
  -30.0078  -15.5652   20.8931 N   0  0  0  0  0  0
  -28.1382  -16.5852   18.6760 Cl  0  0  0  0  0  0
  -31.4599  -12.3866   19.1247 H   0  0  0  0  0  0
  -30.3023  -11.2994   19.8377 H   0  0  0  0  0  0
  -29.7341  -11.7765   17.4276 H   0  0  0  0  0  0
  -29.6528  -13.4855   17.7721 H   0  0  0  0  0  0
  -27.8259  -11.2939   18.8185 H   0  0  0  0  0  0
  -27.3610  -12.6256   17.7950 H   0  0  0  0  0  0
  -27.6857  -14.2267   19.5695 H   0  0  0  0  0  0
  -28.6928  -12.0011   21.3921 H   0  0  0  0  0  0
  -28.4818  -13.6667   21.8516 H   0  0  0  0  0  0
  -25.2728   -9.5687   22.4753 H   0  0  0  0  0  0
  -23.9984   -7.4614   22.7460 H   0  0  0  0  0  0
  -21.0817   -8.8760   19.8941 H   0  0  0  0  0  0
  -22.3659  -10.9664   19.6166 H   0  0  0  0  0  0
  -21.1995   -7.6131   23.9707 H   0  0  0  0  0  0
  -21.1473   -6.0512   25.9075 H   0  0  0  0  0  0
  -22.0603   -2.7592   23.2865 H   0  0  0  0  0  0
  -22.4080  -11.9898   22.4819 H   0  0  0  0  0  0
  -21.1076  -13.1263   22.2595 H   0  0  0  0  0  0
  -24.6542  -15.8306   20.4953 H   0  0  0  0  0  0
  -26.2673  -15.6119   20.0398 H   0  0  0  0  0  0
  -26.7108  -32.5550   23.1163 H   0  0  0  0  0  0
  -25.0040  -33.9795   25.0461 H   0  0  0  0  0  0
  -22.6871  -31.3075   21.4203 H   0  0  0  0  0  0
  -23.3751  -35.9661   23.3322 H   0  0  0  0  0  0
  -24.3570  -36.8915   22.2045 H   0  0  0  0  0  0
  -23.7234  -37.6533   23.6637 H   0  0  0  0  0  0
  -26.0389  -31.6161   20.5970 H   0  0  0  0  0  0
  -26.8173  -30.8946   21.9777 H   0  0  0  0  0  0
  -28.1015  -29.1187   21.1613 H   0  0  0  0  0  0
  -26.0631  -25.9772   19.0233 H   0  0  0  0  0  0
  -23.9826  -27.3103   19.0131 H   0  0  0  0  0  0
  -23.7077  -30.6153   19.4095 H   0  0  0  0  0  0
  -22.7336  -29.2516   19.8652 H   0  0  0  0  0  0
  -25.1287  -36.2004   25.0828 H   0  0  0  0  0  0
  -20.9929  -28.3193   24.1468 H   0  0  0  0  0  0
  -20.5690  -26.2220   23.3549 H   0  0  0  0  0  0
  -21.6622  -26.7452   22.1147 H   0  0  0  0  0  0
  -19.6899  -25.6307   21.1173 H   0  0  0  0  0  0
  -19.6653  -27.3204   20.6728 H   0  0  0  0  0  0
  -17.4152  -26.6592   21.4070 H   0  0  0  0  0  0
  -18.0366  -26.0037   22.9038 H   0  0  0  0  0  0
  -19.7922  -30.7212   24.2329 H   0  0  0  0  0  0
  -17.4975  -31.6222   24.5208 H   0  0  0  0  0  0
  -15.5322  -30.2954   23.7645 H   0  0  0  0  0  0
  -15.8646  -28.0833   22.7017 H   0  0  0  0  0  0
  -24.5888  -30.7065   25.7752 H   0  0  0  0  0  0
  -24.8901  -32.2849   26.4924 H   0  0  0  0  0  0
  -25.8051  -30.8824   27.0191 H   0  0  0  0  0  0
  -26.2816  -29.6844   24.1122 H   0  0  0  0  0  0
  -27.4036  -29.7283   25.4527 H   0  0  0  0  0  0
  -27.8659  -30.4383   23.9230 H   0  0  0  0  0  0
  -27.2660  -33.3618   26.2103 H   0  0  0  0  0  0
  -28.3823  -32.6929   25.0298 H   0  0  0  0  0  0
  -28.0736  -31.8434   26.5352 H   0  0  0  0  0  0
  -28.2618  -38.0100   24.7514 H   0  0  0  0  0  0
  -28.1065  -36.2632   24.6303 H   0  0  0  0  0  0
  -27.2297  -37.1487   25.8865 H   0  0  0  0  0  0
  -20.9320  -29.8657   21.6883 H   0  0  0  0  0  0
  -26.0197  -38.2897   24.1408 H   0  0  0  0  0  0
  -27.1876  -21.1807   19.9005 H   0  0  0  0  0  0
  -30.7187  -19.4682   21.6592 H   0  0  0  0  0  0
  -24.7946  -19.2931   20.2872 H   0  0  0  0  0  0
  -24.1095  -19.4926   18.6816 H   0  0  0  0  0  0
  -25.1091  -20.7593   19.3513 H   0  0  0  0  0  0
  -30.5142  -22.0311   20.9121 H   0  0  0  0  0  0
  -29.5756  -21.8601   22.3724 H   0  0  0  0  0  0
  -26.4158  -19.3950   17.6709 H   0  0  0  0  0  0
  -25.9456  -17.9447   18.5212 H   0  0  0  0  0  0
  -31.1153  -17.1747   21.6165 H   0  0  0  0  0  0
  -31.2039  -16.9875   19.8884 H   0  0  0  0  0  0
  -28.4178  -23.0296   19.7692 H   0  0  0  0  0  0
  -27.6593  -22.9894   21.3449 H   0  0  0  0  0  0
  -30.0062  -24.7048   20.3833 H   0  0  0  0  0  0
  -29.7231  -24.4639   22.0829 H   0  0  0  0  0  0
  -28.1679  -26.0705   22.1263 H   0  0  0  0  0  0
  -27.1735  -25.1576   21.0434 H   0  0  0  0  0  0
  -29.0508  -15.4391   21.1852 H   0  0  0  0  0  0
  1 25  1  0  0  0
  1 30  2  0  0  0
  1 84  1  0  0  0
  2  3  1  0  0  0
  2 25  1  0  0  0
  2 86  1  0  0  0
  2 87  1  0  0  0
  3  4  1  0  0  0
  3 88  1  0  0  0
  3 89  1  0  0  0
  4  5  1  0  0  0
  4 90  1  0  0  0
  4 91  1  0  0  0
  5  6  1  0  0  0
  5 26  1  0  0  0
  5 92  1  0  0  0
  6 25  1  0  0  0
  6 93  1  0  0  0
  6 94  1  0  0  0
  7  8  2  0  0  0
  7 26  1  0  0  0
  7 29  1  0  0  0
  8  9  1  0  0  0
  8 22  1  0  0  0
  9 10  1  0  0  0
  9 27  2  0  0  0
 10 11  2  0  0  0
 10 15  1  0  0  0
 11 12  1  0  0  0
 11 95  1  0  0  0
 12 13  2  0  0  0
 12 96  1  0  0  0
 13 14  1  0  0  0
 13 31  1  0  0  0
 14 15  2  0  0  0
 14 97  1  0  0  0
 15 98  1  0  0  0
 16 17  2  0  0  0
 16 21  1  0  0  0
 16 31  1  0  0  0
 17 18  1  0  0  0
 17 99  1  0  0  0
 18 19  2  0  0  0
 18100  1  0  0  0
 19 20  1  0  0  0
 19 24  1  0  0  0
 20 21  2  0  0  0
 20101  1  0  0  0
 21 23  1  0  0  0
 22 28  1  0  0  0
 22 32  2  0  0  0
 26 27  1  0  0  0
 28102  1  0  0  0
 28103  1  0  0  0
 29104  1  0  0  0
 29105  1  0  0  0
 33 34  1  0  0  0
 33 66  1  0  0  0
 33 70  2  0  0  0
 34 36  1  0  0  0
 34 59  1  0  0  0
 34106  1  0  0  0
 35 44  2  0  0  0
 35 45  1  0  0  0
 35 68  1  0  0  0
 36 56  1  0  0  0
 36107  1  0  0  0
 37 39  1  0  0  0
 37 47  1  0  0  0
 37 66  1  0  0  0
 37108  1  0  0  0
 38 43  2  0  0  0
 38 46  1  0  0  0
 38 47  1  0  0  0
 39 64  1  0  0  0
 39 67  2  0  0  0
 40 52  1  0  0  0
 40 53  2  0  0  0
 40 58  1  0  0  0
 41109  1  0  0  0
 41110  1  0  0  0
 41111  1  0  0  0
 41 48  1  0  0  0
 42 43  1  0  0  0
 42 66  1  0  0  0
 42112  1  0  0  0
 42113  1  0  0  0
 43 44  1  0  0  0
 44114  1  0  0  0
 45 46  2  0  0  0
 45115  1  0  0  0
 46116  1  0  0  0
 47117  1  0  0  0
 47118  1  0  0  0
 48 56  1  0  0  0
 48 65  1  0  0  0
 48119  1  0  0  0
 49 50  1  0  0  0
 49 53  1  0  0  0
 49 64  1  0  0  0
 49120  1  0  0  0
 50 51  1  0  0  0
 50121  1  0  0  0
 50122  1  0  0  0
 51 52  1  0  0  0
 51123  1  0  0  0
 51124  1  0  0  0
 52125  1  0  0  0
 52126  1  0  0  0
 53 54  1  0  0  0
 54 55  2  0  0  0
 54127  1  0  0  0
 55 57  1  0  0  0
 55128  1  0  0  0
 56 69  2  0  0  0
 57 58  2  0  0  0
 57129  1  0  0  0
 58130  1  0  0  0
 59 60  1  0  0  0
 59 61  1  0  0  0
 59 62  1  0  0  0
 60131  1  0  0  0
 60132  1  0  0  0
 60133  1  0  0  0
 61134  1  0  0  0
 61135  1  0  0  0
 61136  1  0  0  0
 62137  1  0  0  0
 62138  1  0  0  0
 62139  1  0  0  0
 63 65  1  0  0  0
 63140  1  0  0  0
 63141  1  0  0  0
 63142  1  0  0  0
 64143  1  0  0  0
 65144  1  0  0  0
 68 83  1  0  0  0
 71 73  2  0  0  0
 71 74  1  0  0  0
 71145  1  0  0  0
 72 73  1  0  0  0
 72 75  2  0  0  0
 72146  1  0  0  0
 73 78  1  0  0  0
 74 76  2  0  0  0
 74 79  1  0  0  0
 75 76  1  0  0  0
 75 80  1  0  0  0
 76 85  1  0  0  0
 77 79  1  0  0  0
 77147  1  0  0  0
 77148  1  0  0  0
 77149  1  0  0  0
 78 81  1  0  0  0
 78150  1  0  0  0
 78151  1  0  0  0
 79152  1  0  0  0
 79153  1  0  0  0
 80 84  1  0  0  0
 80154  1  0  0  0
 80155  1  0  0  0
 81 82  1  0  0  0
 81156  1  0  0  0
 81157  1  0  0  0
 82 83  1  0  0  0
 82158  1  0  0  0
 82159  1  0  0  0
 83160  1  0  0  0
 83161  1  0  0  0
 84162  1  0  0  0
M  ISO  4   1 100  68 101  83 101  84 100
M  END
> <chiral flag>
0

> <version>
0

> <s_m_source_file>
/data/baiqing/PycharmProjects/Reinvent-master-3.2/result/LINK_invent/BTK/process_docking_weight1_custom_sum_contain_oxygen_bond_distance_aromatic_linkinvent_7_9_3/rearranged_h_0031.sdf

> <i_m_source_file_index>
97

> <r_mmod_Potential_Energy-OPLS-2005>
-23.1852378845215

> <r_mmod_Stretch_Energy-OPLS-2005>
38.5255088806152

> <r_mmod_Bend_Energy-OPLS-2005>
97.1414031982422

> <r_mmod_Torsional_Energy-OPLS-2005>
246.931030273438

> <r_mmod_Improper_Torsional_Energy-OPLS-2005>
5.73428916931152

> <r_mmod_Van_der_Waal_Energy-OPLS-2005>
159.249786376953

> <r_mmod_Electrostatic_Energy-OPLS-2005>
-399.998107910156

> <r_mmod_Solvation_Energy-OPLS-2005>
-188.750534057617

> <b_mmod_Minimization_Converged-OPLS-2005>
0

> <r_mmod_RMS_Derivative-OPLS-2005>
2.17182397842407

$$$$
