0
                    3D
 Structure written by MMmdl.
154162  0  0  1  0            999 V2000
  -30.5206  -14.9223   20.4505 C   0  0  0  0  0  0
  -30.4543  -12.5719   19.4979 C   0  0  0  0  0  0
  -29.5274  -12.5378   18.2578 C   0  0  0  0  0  0
  -28.0588  -12.3221   18.6729 C   0  0  0  0  0  0
  -27.6400  -13.2398   19.8500 C   0  0  2  0  0  0
  -28.6829  -13.2227   20.9897 C   0  0  0  0  0  0
  -25.2483  -13.8172   20.5653 C   0  0  0  0  0  0
  -24.1797  -13.0422   20.9211 C   0  0  0  0  0  0
  -24.6411  -11.6908   20.8767 C   0  0  0  0  0  0
  -23.9085  -10.4288   21.0419 C   0  0  0  0  0  0
  -24.3630   -9.4201   21.9196 C   0  0  0  0  0  0
  -23.6297   -8.2242   22.0763 C   0  0  0  0  0  0
  -22.4281   -8.0289   21.3549 C   0  0  0  0  0  0
  -21.9923   -9.0263   20.4652 C   0  0  0  0  0  0
  -22.7259  -10.2133   20.3065 C   0  0  0  0  0  0
  -21.6847   -6.0743   22.5283 C   0  0  0  0  0  0
  -21.4010   -6.5642   23.8216 C   0  0  0  0  0  0
  -21.3660   -5.6793   24.9176 C   0  0  0  0  0  0
  -21.6039   -4.3055   24.7222 C   0  0  0  0  0  0
  -21.8817   -3.8149   23.4342 C   0  0  0  0  0  0
  -21.9191   -4.6972   22.3401 C   0  0  0  0  0  0
  -22.7819  -13.5209   21.1862 C   0  0  0  0  0  0
  -22.1657   -4.2158   21.0978 F   0  0  0  0  0  0
  -21.5629   -3.4540   25.7729 F   0  0  0  0  0  0
  -29.9687  -13.6430   20.4121 N   0  0  0  0  0  0
  -26.2936  -12.9408   20.3273 N   0  0  0  0  0  0
  -25.9350  -11.6544   20.5771 N   0  0  0  0  0  0
  -22.0455  -12.8212   22.0423 N   0  0  0  0  0  0
  -25.4097  -15.1886   20.3946 N   0  0  0  0  0  0
  -31.6979  -15.0572   20.0974 O   0  0  0  0  0  0
  -21.6636   -6.8887   21.4246 O   0  0  0  0  0  0
  -22.3512  -14.5514   20.6708 O   0  0  0  0  0  0
  -24.6438  -31.8436   23.1885 C   0  0  0  0  0  0
  -25.9208  -32.4695   23.8280 C   0  0  1  0  0  0
  -27.2228  -27.1389   20.1477 C   0  0  0  0  0  0
  -25.5966  -33.8500   24.2207 N   0  0  0  0  0  0
  -23.4481  -30.4643   21.5336 C   0  0  2  0  0  0
  -24.8998  -28.8933   20.1103 C   0  0  0  0  0  0
  -22.7583  -29.4543   22.4855 C   0  0  0  0  0  0
  -18.0308  -28.1389   22.8486 C   0  0  0  0  0  0
  -24.1491  -36.7242   23.2645 C   0  0  0  0  0  0
  -26.0045  -30.7197   21.3871 C   0  0  0  0  0  0
  -26.0776  -29.3311   20.7296 C   0  0  0  0  0  0
  -27.2399  -28.4697   20.7328 C   0  0  0  0  0  0
  -26.0167  -26.8084   19.4863 C   0  0  0  0  0  0
  -24.8822  -27.6452   19.4741 C   0  0  0  0  0  0
  -23.6756  -29.7933   20.1530 C   0  0  0  0  0  0
  -25.4120  -36.3022   24.0325 C   0  0  1  0  0  0
  -20.5927  -28.3710   23.1234 C   0  0  2  0  0  0
  -20.6790  -26.9414   22.5397 C   0  0  0  0  0  0
  -19.5757  -26.6371   21.5211 C   0  0  0  0  0  0
  -18.1941  -26.7929   22.1621 C   0  0  0  0  0  0
  -19.1571  -28.8865   23.2855 C   0  0  0  0  0  0
  -18.9487  -30.1467   23.8873 C   0  0  0  0  0  0
  -17.6482  -30.6586   24.0555 C   0  0  0  0  0  0
  -25.9066  -34.9404   23.5064 C   0  0  0  0  0  0
  -16.5369  -29.9080   23.6340 C   0  0  0  0  0  0
  -16.7293  -28.6497   23.0363 C   0  0  0  0  0  0
  -26.4547  -31.6554   25.0707 C   0  0  0  0  0  0
  -25.3745  -31.3738   26.1411 C   0  0  0  0  0  0
  -27.0409  -30.2952   24.6260 C   0  0  0  0  0  0
  -27.6070  -32.4317   25.7492 C   0  0  0  0  0  0
  -27.5571  -37.1774   24.8471 C   0  0  0  0  0  0
  -21.4271  -29.3049   22.3612 N   0  0  0  0  0  0
  -26.4278  -37.3738   23.9419 N   0  0  0  0  0  0
  -24.7189  -31.0301   22.0922 N   0  0  0  0  0  0
  -23.4230  -28.8079   23.2993 O   0  0  0  0  0  0
  -28.2681  -26.1421   20.2214 O   0  0  0  0  0  0
  -26.5637  -34.8905   22.4632 O   0  0  0  0  0  0
  -23.5550  -32.1308   23.7107 O   0  0  0  0  0  0
  -28.3251  -19.6617   21.3299 C   0  0  0  0  0  0
  -30.3601  -18.4712   19.8859 C   0  0  0  0  0  0
  -28.5934  -18.2410   21.4392 C   0  0  0  0  0  0
  -30.0976  -19.9148   19.7915 C   0  0  0  0  0  0
  -29.0358  -20.5900   20.5040 C   0  0  0  0  0  0
  -29.6050  -17.5439   20.6924 C   0  0  0  0  0  0
  -28.9537  -23.3641   20.3077 C   0  0  0  0  0  0
  -27.7331  -17.4461   22.4100 C   0  0  0  0  0  0
  -30.9641  -20.7332   18.8527 C   0  0  0  0  0  0
  -27.9181  -24.6335   20.0450 C   0  0  0  0  0  0
  -28.4948  -22.0206   20.3403 N   0  0  0  0  0  0
  -29.6745  -16.0103   20.7721 N   0  0  0  0  0  0
  -30.1509  -23.6131   20.4643 O   0  0  0  0  0  0
  -31.4856  -12.7435   19.1861 H   0  0  0  0  0  0
  -30.4555  -11.6063   20.0065 H   0  0  0  0  0  0
  -29.8420  -11.7506   17.5710 H   0  0  0  0  0  0
  -29.6165  -13.4764   17.7083 H   0  0  0  0  0  0
  -27.9514  -11.2772   18.9670 H   0  0  0  0  0  0
  -27.3951  -12.4671   17.8196 H   0  0  0  0  0  0
  -27.6165  -14.2515   19.4436 H   0  0  0  0  0  0
  -28.7622  -12.2274   21.4301 H   0  0  0  0  0  0
  -28.3812  -13.8893   21.7994 H   0  0  0  0  0  0
  -25.2771   -9.5666   22.4779 H   0  0  0  0  0  0
  -23.9999   -7.4623   22.7480 H   0  0  0  0  0  0
  -21.0857   -8.8786   19.8948 H   0  0  0  0  0  0
  -22.3729  -10.9679   19.6175 H   0  0  0  0  0  0
  -21.1999   -7.6151   23.9722 H   0  0  0  0  0  0
  -21.1481   -6.0521   25.9075 H   0  0  0  0  0  0
  -22.0594   -2.7617   23.2835 H   0  0  0  0  0  0
  -22.4061  -11.9875   22.4823 H   0  0  0  0  0  0
  -21.1076  -13.1250   22.2612 H   0  0  0  0  0  0
  -24.6241  -15.8258   20.4703 H   0  0  0  0  0  0
  -26.2314  -15.6218   19.9945 H   0  0  0  0  0  0
  -26.7264  -32.5307   23.0996 H   0  0  0  0  0  0
  -25.0147  -33.9622   25.0377 H   0  0  0  0  0  0
  -22.7511  -31.2900   21.3767 H   0  0  0  0  0  0
  -23.3766  -35.9557   23.3277 H   0  0  0  0  0  0
  -24.3587  -36.8894   22.2066 H   0  0  0  0  0  0
  -23.7223  -37.6425   23.6687 H   0  0  0  0  0  0
  -26.1580  -31.4738   20.6141 H   0  0  0  0  0  0
  -26.8762  -30.7720   22.0278 H   0  0  0  0  0  0
  -28.1348  -28.7981   21.2426 H   0  0  0  0  0  0
  -25.9071  -25.8591   18.9855 H   0  0  0  0  0  0
  -23.9842  -27.3063   18.9760 H   0  0  0  0  0  0
  -23.8138  -30.5669   19.3965 H   0  0  0  0  0  0
  -22.7918  -29.2335   19.8406 H   0  0  0  0  0  0
  -25.1302  -36.1843   25.0816 H   0  0  0  0  0  0
  -21.0023  -28.3281   24.1351 H   0  0  0  0  0  0
  -20.5683  -26.2323   23.3617 H   0  0  0  0  0  0
  -21.6652  -26.7413   22.1187 H   0  0  0  0  0  0
  -19.6920  -25.6281   21.1241 H   0  0  0  0  0  0
  -19.6689  -27.3186   20.6748 H   0  0  0  0  0  0
  -17.4214  -26.6693   21.4018 H   0  0  0  0  0  0
  -18.0326  -26.0081   22.9019 H   0  0  0  0  0  0
  -19.7970  -30.7287   24.2229 H   0  0  0  0  0  0
  -17.5041  -31.6273   24.5148 H   0  0  0  0  0  0
  -15.5373  -30.2969   23.7685 H   0  0  0  0  0  0
  -15.8695  -28.0800   22.7085 H   0  0  0  0  0  0
  -24.5936  -30.7068   25.7741 H   0  0  0  0  0  0
  -24.8936  -32.2929   26.4772 H   0  0  0  0  0  0
  -25.8055  -30.8964   27.0221 H   0  0  0  0  0  0
  -26.3022  -29.6671   24.1273 H   0  0  0  0  0  0
  -27.4060  -29.7235   25.4802 H   0  0  0  0  0  0
  -27.8913  -30.4206   23.9552 H   0  0  0  0  0  0
  -27.2671  -33.3663   26.1962 H   0  0  0  0  0  0
  -28.3950  -32.6794   25.0366 H   0  0  0  0  0  0
  -28.0660  -31.8507   26.5501 H   0  0  0  0  0  0
  -28.2560  -38.0098   24.7526 H   0  0  0  0  0  0
  -28.1092  -36.2620   24.6273 H   0  0  0  0  0  0
  -27.2295  -37.1391   25.8877 H   0  0  0  0  0  0
  -20.9470  -29.8791   21.6823 H   0  0  0  0  0  0
  -26.0139  -38.2797   24.1439 H   0  0  0  0  0  0
  -27.5032  -20.0577   21.9105 H   0  0  0  0  0  0
  -31.1543  -18.0603   19.2778 H   0  0  0  0  0  0
  -27.1626  -18.0994   23.0702 H   0  0  0  0  0  0
  -28.3498  -16.8101   23.0463 H   0  0  0  0  0  0
  -27.0265  -16.8137   21.8759 H   0  0  0  0  0  0
  -31.4957  -20.1012   18.1408 H   0  0  0  0  0  0
  -31.7008  -21.3016   19.4218 H   0  0  0  0  0  0
  -30.3611  -21.4385   18.2809 H   0  0  0  0  0  0
  -27.0328  -24.4290   20.6479 H   0  0  0  0  0  0
  -27.6128  -24.5075   19.0064 H   0  0  0  0  0  0
  -27.4839  -22.0243   20.3034 H   0  0  0  0  0  0
  -28.8160  -15.6322   21.1415 H   0  0  0  0  0  0
  1 25  1  0  0  0
  1 30  2  0  0  0
  1 82  1  0  0  0
  2  3  1  0  0  0
  2 25  1  0  0  0
  2 84  1  0  0  0
  2 85  1  0  0  0
  3  4  1  0  0  0
  3 86  1  0  0  0
  3 87  1  0  0  0
  4  5  1  0  0  0
  4 88  1  0  0  0
  4 89  1  0  0  0
  5  6  1  0  0  0
  5 26  1  0  0  0
  5 90  1  0  0  0
  6 25  1  0  0  0
  6 91  1  0  0  0
  6 92  1  0  0  0
  7  8  2  0  0  0
  7 26  1  0  0  0
  7 29  1  0  0  0
  8  9  1  0  0  0
  8 22  1  0  0  0
  9 10  1  0  0  0
  9 27  2  0  0  0
 10 11  2  0  0  0
 10 15  1  0  0  0
 11 12  1  0  0  0
 11 93  1  0  0  0
 12 13  2  0  0  0
 12 94  1  0  0  0
 13 14  1  0  0  0
 13 31  1  0  0  0
 14 15  2  0  0  0
 14 95  1  0  0  0
 15 96  1  0  0  0
 16 17  2  0  0  0
 16 21  1  0  0  0
 16 31  1  0  0  0
 17 18  1  0  0  0
 17 97  1  0  0  0
 18 19  2  0  0  0
 18 98  1  0  0  0
 19 20  1  0  0  0
 19 24  1  0  0  0
 20 21  2  0  0  0
 20 99  1  0  0  0
 21 23  1  0  0  0
 22 28  1  0  0  0
 22 32  2  0  0  0
 26 27  1  0  0  0
 28100  1  0  0  0
 28101  1  0  0  0
 29102  1  0  0  0
 29103  1  0  0  0
 33 34  1  0  0  0
 33 66  1  0  0  0
 33 70  2  0  0  0
 34 36  1  0  0  0
 34 59  1  0  0  0
 34104  1  0  0  0
 35 44  2  0  0  0
 35 45  1  0  0  0
 35 68  1  0  0  0
 36 56  1  0  0  0
 36105  1  0  0  0
 37 39  1  0  0  0
 37 47  1  0  0  0
 37 66  1  0  0  0
 37106  1  0  0  0
 38 43  2  0  0  0
 38 46  1  0  0  0
 38 47  1  0  0  0
 39 64  1  0  0  0
 39 67  2  0  0  0
 40 52  1  0  0  0
 40 53  2  0  0  0
 40 58  1  0  0  0
 41107  1  0  0  0
 41108  1  0  0  0
 41109  1  0  0  0
 41 48  1  0  0  0
 42 43  1  0  0  0
 42 66  1  0  0  0
 42110  1  0  0  0
 42111  1  0  0  0
 43 44  1  0  0  0
 44112  1  0  0  0
 45 46  2  0  0  0
 45113  1  0  0  0
 46114  1  0  0  0
 47115  1  0  0  0
 47116  1  0  0  0
 48 56  1  0  0  0
 48 65  1  0  0  0
 48117  1  0  0  0
 49 50  1  0  0  0
 49 53  1  0  0  0
 49 64  1  0  0  0
 49118  1  0  0  0
 50 51  1  0  0  0
 50119  1  0  0  0
 50120  1  0  0  0
 51 52  1  0  0  0
 51121  1  0  0  0
 51122  1  0  0  0
 52123  1  0  0  0
 52124  1  0  0  0
 53 54  1  0  0  0
 54 55  2  0  0  0
 54125  1  0  0  0
 55 57  1  0  0  0
 55126  1  0  0  0
 56 69  2  0  0  0
 57 58  2  0  0  0
 57127  1  0  0  0
 58128  1  0  0  0
 59 60  1  0  0  0
 59 61  1  0  0  0
 59 62  1  0  0  0
 60129  1  0  0  0
 60130  1  0  0  0
 60131  1  0  0  0
 61132  1  0  0  0
 61133  1  0  0  0
 61134  1  0  0  0
 62135  1  0  0  0
 62136  1  0  0  0
 62137  1  0  0  0
 63 65  1  0  0  0
 63138  1  0  0  0
 63139  1  0  0  0
 63140  1  0  0  0
 64141  1  0  0  0
 65142  1  0  0  0
 68 80  1  0  0  0
 71 73  2  0  0  0
 71 75  1  0  0  0
 71143  1  0  0  0
 72 74  1  0  0  0
 72 76  2  0  0  0
 72144  1  0  0  0
 73 76  1  0  0  0
 73 78  1  0  0  0
 74 75  2  0  0  0
 74 79  1  0  0  0
 75 81  1  0  0  0
 76 82  1  0  0  0
 77 80  1  0  0  0
 77 81  1  0  0  0
 77 83  2  0  0  0
 78145  1  0  0  0
 78146  1  0  0  0
 78147  1  0  0  0
 79148  1  0  0  0
 79149  1  0  0  0
 79150  1  0  0  0
 80151  1  0  0  0
 80152  1  0  0  0
 81153  1  0  0  0
 82154  1  0  0  0
M  ISO  4   1 100  68 101  80 101  82 100
M  END
> <chiral flag>
0

> <version>
0

> <s_m_source_file>
/data/baiqing/PycharmProjects/Reinvent-master-3.2/result/LINK_invent/BTK/process_docking_weight1_custom_sum_contain_oxygen_bond_distance_aromatic_linkinvent_7_9_3/rearranged_h_0006.sdf

> <i_m_source_file_index>
1

> <r_mmod_Potential_Energy-OPLS-2005>
400.772918701172

> <r_mmod_Stretch_Energy-OPLS-2005>
226.624282836914

> <r_mmod_Bend_Energy-OPLS-2005>
269.122406005859

> <r_mmod_Torsional_Energy-OPLS-2005>
238.813201904297

> <r_mmod_Improper_Torsional_Energy-OPLS-2005>
4.67786645889282

> <r_mmod_Van_der_Waal_Energy-OPLS-2005>
129.205856323242

> <r_mmod_Electrostatic_Energy-OPLS-2005>
-405.990814208984

> <r_mmod_Solvation_Energy-OPLS-2005>
-244.963607788086

> <b_mmod_Minimization_Converged-OPLS-2005>
0

> <r_mmod_RMS_Derivative-OPLS-2005>
1.48286306858063

$$$$
1
                    3D
 Structure written by MMmdl.
153161  0  0  1  0            999 V2000
  -30.4176  -15.3557   20.3302 C   0  0  0  0  0  0
  -30.4337  -12.8674   19.5277 C   0  0  0  0  0  0
  -29.5366  -12.5912   18.2938 C   0  0  0  0  0  0
  -28.0953  -12.2890   18.7355 C   0  0  0  0  0  0
  -27.6077  -13.2848   19.8157 C   0  0  2  0  0  0
  -28.6348  -13.5156   20.9454 C   0  0  0  0  0  0
  -25.2365  -13.8254   20.5719 C   0  0  0  0  0  0
  -24.1737  -13.0426   20.9258 C   0  0  0  0  0  0
  -24.6407  -11.6935   20.8767 C   0  0  0  0  0  0
  -23.9113  -10.4288   21.0395 C   0  0  0  0  0  0
  -24.3639   -9.4199   21.9188 C   0  0  0  0  0  0
  -23.6292   -8.2246   22.0766 C   0  0  0  0  0  0
  -22.4276   -8.0283   21.3539 C   0  0  0  0  0  0
  -21.9925   -9.0269   20.4654 C   0  0  0  0  0  0
  -22.7283  -10.2135   20.3054 C   0  0  0  0  0  0
  -21.6860   -6.0728   22.5267 C   0  0  0  0  0  0
  -21.4014   -6.5627   23.8195 C   0  0  0  0  0  0
  -21.3652   -5.6778   24.9162 C   0  0  0  0  0  0
  -21.6030   -4.3043   24.7212 C   0  0  0  0  0  0
  -21.8838   -3.8137   23.4332 C   0  0  0  0  0  0
  -21.9189   -4.6946   22.3386 C   0  0  0  0  0  0
  -22.7753  -13.5159   21.1907 C   0  0  0  0  0  0
  -22.1665   -4.2116   21.0970 F   0  0  0  0  0  0
  -21.5623   -3.4530   25.7732 F   0  0  0  0  0  0
  -29.8622  -14.0339   20.3118 N   0  0  0  0  0  0
  -26.2802  -12.9554   20.3196 N   0  0  0  0  0  0
  -25.9340  -11.6649   20.5723 N   0  0  0  0  0  0
  -22.0430  -12.8130   22.0458 N   0  0  0  0  0  0
  -25.4005  -15.1991   20.4107 N   0  0  0  0  0  0
  -31.6385  -15.3295   20.1079 O   0  0  0  0  0  0
  -21.6637   -6.8875   21.4225 O   0  0  0  0  0  0
  -22.3415  -14.5445   20.6730 O   0  0  0  0  0  0
  -24.6698  -31.8172   23.1566 C   0  0  0  0  0  0
  -25.9351  -32.4531   23.8079 C   0  0  1  0  0  0
  -27.2460  -26.8704   20.1857 C   0  0  0  0  0  0
  -25.6011  -33.8345   24.1999 N   0  0  0  0  0  0
  -23.4924  -30.4231   21.5044 C   0  0  2  0  0  0
  -24.9504  -28.7938   20.1021 C   0  0  0  0  0  0
  -22.7713  -29.4445   22.4685 C   0  0  0  0  0  0
  -18.0338  -28.1437   22.8525 C   0  0  0  0  0  0
  -24.1464  -36.7192   23.2654 C   0  0  0  0  0  0
  -26.0654  -30.6034   21.3953 C   0  0  0  0  0  0
  -26.1292  -29.1836   20.7443 C   0  0  0  0  0  0
  -27.2628  -28.2414   20.7682 C   0  0  0  0  0  0
  -26.0399  -26.6510   19.4744 C   0  0  0  0  0  0
  -24.9313  -27.5462   19.4501 C   0  0  0  0  0  0
  -23.7372  -29.7306   20.1317 C   0  0  0  0  0  0
  -25.4098  -36.2936   24.0307 C   0  0  1  0  0  0
  -20.6006  -28.3792   23.1180 C   0  0  2  0  0  0
  -20.6839  -26.9452   22.5411 C   0  0  0  0  0  0
  -19.5767  -26.6408   21.5263 C   0  0  0  0  0  0
  -18.1950  -26.7999   22.1663 C   0  0  0  0  0  0
  -19.1618  -28.8935   23.2868 C   0  0  0  0  0  0
  -18.9509  -30.1542   23.8879 C   0  0  0  0  0  0
  -17.6499  -30.6630   24.0583 C   0  0  0  0  0  0
  -25.9109  -34.9336   23.4984 C   0  0  0  0  0  0
  -16.5388  -29.9125   23.6362 C   0  0  0  0  0  0
  -16.7327  -28.6546   23.0387 C   0  0  0  0  0  0
  -26.4578  -31.6527   25.0644 C   0  0  0  0  0  0
  -25.3675  -31.3819   26.1272 C   0  0  0  0  0  0
  -27.0471  -30.2892   24.6409 C   0  0  0  0  0  0
  -27.6054  -32.4352   25.7437 C   0  0  0  0  0  0
  -27.5537  -37.1724   24.8459 C   0  0  0  0  0  0
  -21.4372  -29.3101   22.3501 N   0  0  0  0  0  0
  -26.4210  -37.3697   23.9462 N   0  0  0  0  0  0
  -24.7654  -30.9783   22.0715 N   0  0  0  0  0  0
  -23.4238  -28.8037   23.2972 O   0  0  0  0  0  0
  -28.2468  -25.7483   20.3400 O   0  0  0  0  0  0
  -26.5709  -34.8919   22.4569 O   0  0  0  0  0  0
  -23.5752  -32.1145   23.6633 O   0  0  0  0  0  0
  -31.4103  -19.9723   19.2509 C   0  0  0  0  0  0
  -31.0528  -18.6276   19.5289 C   0  0  0  0  0  0
  -29.3521  -21.0699   20.1868 C   0  0  0  0  0  0
  -30.6491  -21.1353   19.5787 C   0  0  0  0  0  0
  -29.8681  -18.2637   20.1980 C   0  0  0  0  0  0
  -29.0452  -19.5628   20.5023 C   0  0  0  0  0  0
  -31.5117  -22.8878   18.1547 C   0  0  0  0  0  0
  -28.5858  -22.5966   20.6083 C   0  0  0  0  0  0
  -32.0783  -22.9199   20.5250 C   0  0  0  0  0  0
  -28.3253  -24.1630   19.7845 C   0  0  0  0  0  0
  -29.6559  -16.6504   20.4382 N   0  0  0  0  0  0
  -31.3223  -22.3776   19.3890 N   0  0  0  0  0  0
  -32.2056  -23.8822   17.9119 O   0  0  0  0  0  0
  -28.0725  -22.5954   21.7314 O   0  0  0  0  0  0
  -27.8778  -19.3369   21.1498 F   0  0  0  0  0  0
  -31.4524  -13.0671   19.1881 H   0  0  0  0  0  0
  -30.5084  -11.9788   20.1581 H   0  0  0  0  0  0
  -29.9365  -11.7582   17.7137 H   0  0  0  0  0  0
  -29.5406  -13.4588   17.6309 H   0  0  0  0  0  0
  -28.0861  -11.2774   19.1463 H   0  0  0  0  0  0
  -27.4193  -12.2775   17.8809 H   0  0  0  0  0  0
  -27.5078  -14.2334   19.2862 H   0  0  0  0  0  0
  -28.8201  -12.6059   21.5199 H   0  0  0  0  0  0
  -28.2470  -14.2555   21.6464 H   0  0  0  0  0  0
  -25.2798   -9.5622   22.4737 H   0  0  0  0  0  0
  -23.9969   -7.4620   22.7493 H   0  0  0  0  0  0
  -21.0854   -8.8799   19.8959 H   0  0  0  0  0  0
  -22.3775  -10.9644   19.6125 H   0  0  0  0  0  0
  -21.2035   -7.6141   23.9673 H   0  0  0  0  0  0
  -21.1443   -6.0527   25.9052 H   0  0  0  0  0  0
  -22.0624   -2.7589   23.2850 H   0  0  0  0  0  0
  -22.4085  -11.9792   22.4777 H   0  0  0  0  0  0
  -21.1050  -13.1113   22.2695 H   0  0  0  0  0  0
  -24.6315  -15.8528   20.5247 H   0  0  0  0  0  0
  -26.2418  -15.6336   20.0478 H   0  0  0  0  0  0
  -26.7447  -32.5040   23.0823 H   0  0  0  0  0  0
  -25.0133  -33.9456   25.0148 H   0  0  0  0  0  0
  -22.8135  -31.2594   21.3229 H   0  0  0  0  0  0
  -23.3748  -35.9491   23.3206 H   0  0  0  0  0  0
  -24.3601  -36.8926   22.2094 H   0  0  0  0  0  0
  -23.7170  -37.6319   23.6788 H   0  0  0  0  0  0
  -26.2592  -31.3319   20.6066 H   0  0  0  0  0  0
  -26.9258  -30.6627   22.0502 H   0  0  0  0  0  0
  -28.1457  -28.5415   21.3126 H   0  0  0  0  0  0
  -25.9110  -25.7047   18.9707 H   0  0  0  0  0  0
  -24.0404  -27.2382   18.9238 H   0  0  0  0  0  0
  -23.8963  -30.4973   19.3716 H   0  0  0  0  0  0
  -22.8437  -29.1932   19.8099 H   0  0  0  0  0  0
  -25.1290  -36.1656   25.0783 H   0  0  0  0  0  0
  -21.0148  -28.3377   24.1289 H   0  0  0  0  0  0
  -20.5754  -26.2403   23.3689 H   0  0  0  0  0  0
  -21.6676  -26.7434   22.1160 H   0  0  0  0  0  0
  -19.6891  -25.6303   21.1328 H   0  0  0  0  0  0
  -19.6678  -27.3226   20.6797 H   0  0  0  0  0  0
  -17.4240  -26.6842   21.4046 H   0  0  0  0  0  0
  -18.0228  -26.0142   22.9033 H   0  0  0  0  0  0
  -19.7954  -30.7411   24.2204 H   0  0  0  0  0  0
  -17.5014  -31.6271   24.5198 H   0  0  0  0  0  0
  -15.5376  -30.3001   23.7695 H   0  0  0  0  0  0
  -15.8750  -28.0861   22.7090 H   0  0  0  0  0  0
  -24.5850  -30.7198   25.7589 H   0  0  0  0  0  0
  -24.8871  -32.3028   26.4546 H   0  0  0  0  0  0
  -25.7862  -30.9041   27.0133 H   0  0  0  0  0  0
  -26.3117  -29.6563   24.1426 H   0  0  0  0  0  0
  -27.4025  -29.7281   25.5066 H   0  0  0  0  0  0
  -27.9069  -30.4120   23.9824 H   0  0  0  0  0  0
  -27.2646  -33.3778   26.1736 H   0  0  0  0  0  0
  -28.3986  -32.6678   25.0335 H   0  0  0  0  0  0
  -28.0584  -31.8614   26.5527 H   0  0  0  0  0  0
  -28.2462  -38.0110   24.7600 H   0  0  0  0  0  0
  -28.1097  -36.2635   24.6106 H   0  0  0  0  0  0
  -27.2330  -37.1160   25.8878 H   0  0  0  0  0  0
  -20.9599  -29.8746   21.6622 H   0  0  0  0  0  0
  -26.0001  -38.2706   24.1542 H   0  0  0  0  0  0
  -32.3771  -20.1186   18.7853 H   0  0  0  0  0  0
  -31.7369  -17.8495   19.2223 H   0  0  0  0  0  0
  -30.9910  -22.2929   17.3860 H   0  0  0  0  0  0
  -31.7249  -22.5006   21.4677 H   0  0  0  0  0  0
  -32.0161  -24.0077   20.5931 H   0  0  0  0  0  0
  -33.1352  -22.6630   20.4299 H   0  0  0  0  0  0
  -27.4114  -24.0074   19.2116 H   0  0  0  0  0  0
  -29.1073  -24.1920   19.0270 H   0  0  0  0  0  0
  -28.7016  -16.4518   20.7002 H   0  0  0  0  0  0
  1 25  1  0  0  0
  1 30  2  0  0  0
  1 81  1  0  0  0
  2  3  1  0  0  0
  2 25  1  0  0  0
  2 86  1  0  0  0
  2 87  1  0  0  0
  3  4  1  0  0  0
  3 88  1  0  0  0
  3 89  1  0  0  0
  4  5  1  0  0  0
  4 90  1  0  0  0
  4 91  1  0  0  0
  5  6  1  0  0  0
  5 26  1  0  0  0
  5 92  1  0  0  0
  6 25  1  0  0  0
  6 93  1  0  0  0
  6 94  1  0  0  0
  7  8  2  0  0  0
  7 26  1  0  0  0
  7 29  1  0  0  0
  8  9  1  0  0  0
  8 22  1  0  0  0
  9 10  1  0  0  0
  9 27  2  0  0  0
 10 11  2  0  0  0
 10 15  1  0  0  0
 11 12  1  0  0  0
 11 95  1  0  0  0
 12 13  2  0  0  0
 12 96  1  0  0  0
 13 14  1  0  0  0
 13 31  1  0  0  0
 14 15  2  0  0  0
 14 97  1  0  0  0
 15 98  1  0  0  0
 16 17  2  0  0  0
 16 21  1  0  0  0
 16 31  1  0  0  0
 17 18  1  0  0  0
 17 99  1  0  0  0
 18 19  2  0  0  0
 18100  1  0  0  0
 19 20  1  0  0  0
 19 24  1  0  0  0
 20 21  2  0  0  0
 20101  1  0  0  0
 21 23  1  0  0  0
 22 28  1  0  0  0
 22 32  2  0  0  0
 26 27  1  0  0  0
 28102  1  0  0  0
 28103  1  0  0  0
 29104  1  0  0  0
 29105  1  0  0  0
 33 34  1  0  0  0
 33 66  1  0  0  0
 33 70  2  0  0  0
 34 36  1  0  0  0
 34 59  1  0  0  0
 34106  1  0  0  0
 35 44  2  0  0  0
 35 45  1  0  0  0
 35 68  1  0  0  0
 36 56  1  0  0  0
 36107  1  0  0  0
 37 39  1  0  0  0
 37 47  1  0  0  0
 37 66  1  0  0  0
 37108  1  0  0  0
 38 43  2  0  0  0
 38 46  1  0  0  0
 38 47  1  0  0  0
 39 64  1  0  0  0
 39 67  2  0  0  0
 40 52  1  0  0  0
 40 53  2  0  0  0
 40 58  1  0  0  0
 41109  1  0  0  0
 41110  1  0  0  0
 41111  1  0  0  0
 41 48  1  0  0  0
 42 43  1  0  0  0
 42 66  1  0  0  0
 42112  1  0  0  0
 42113  1  0  0  0
 43 44  1  0  0  0
 44114  1  0  0  0
 45 46  2  0  0  0
 45115  1  0  0  0
 46116  1  0  0  0
 47117  1  0  0  0
 47118  1  0  0  0
 48 56  1  0  0  0
 48 65  1  0  0  0
 48119  1  0  0  0
 49 50  1  0  0  0
 49 53  1  0  0  0
 49 64  1  0  0  0
 49120  1  0  0  0
 50 51  1  0  0  0
 50121  1  0  0  0
 50122  1  0  0  0
 51 52  1  0  0  0
 51123  1  0  0  0
 51124  1  0  0  0
 52125  1  0  0  0
 52126  1  0  0  0
 53 54  1  0  0  0
 54 55  2  0  0  0
 54127  1  0  0  0
 55 57  1  0  0  0
 55128  1  0  0  0
 56 69  2  0  0  0
 57 58  2  0  0  0
 57129  1  0  0  0
 58130  1  0  0  0
 59 60  1  0  0  0
 59 61  1  0  0  0
 59 62  1  0  0  0
 60131  1  0  0  0
 60132  1  0  0  0
 60133  1  0  0  0
 61134  1  0  0  0
 61135  1  0  0  0
 61136  1  0  0  0
 62137  1  0  0  0
 62138  1  0  0  0
 62139  1  0  0  0
 63 65  1  0  0  0
 63140  1  0  0  0
 63141  1  0  0  0
 63142  1  0  0  0
 64143  1  0  0  0
 65144  1  0  0  0
 68 80  1  0  0  0
 71 72  2  0  0  0
 71 74  1  0  0  0
 71145  1  0  0  0
 72 75  1  0  0  0
 72146  1  0  0  0
 73 74  2  0  0  0
 73 76  1  0  0  0
 73 78  1  0  0  0
 74 82  1  0  0  0
 75 76  2  0  0  0
 75 81  1  0  0  0
 76 85  1  0  0  0
 77 82  1  0  0  0
 77 83  2  0  0  0
 77147  1  0  0  0
 78 80  1  0  0  0
 78 84  2  0  0  0
 79 82  1  0  0  0
 79148  1  0  0  0
 79149  1  0  0  0
 79150  1  0  0  0
 80151  1  0  0  0
 80152  1  0  0  0
 81153  1  0  0  0
M  ISO  4   1 100  68 101  80 101  81 100
M  END
> <chiral flag>
0

> <version>
0

> <s_m_source_file>
/data/baiqing/PycharmProjects/Reinvent-master-3.2/result/LINK_invent/BTK/process_docking_weight1_custom_sum_contain_oxygen_bond_distance_aromatic_linkinvent_7_9_3/rearranged_h_0006.sdf

> <i_m_source_file_index>
2

> <r_mmod_Potential_Energy-OPLS-2005>
1568.93725585938

> <r_mmod_Stretch_Energy-OPLS-2005>
702.510986328125

> <r_mmod_Bend_Energy-OPLS-2005>
458.186676025391

> <r_mmod_Torsional_Energy-OPLS-2005>
304.171783447266

> <r_mmod_Improper_Torsional_Energy-OPLS-2005>
5.50072193145752

> <r_mmod_Van_der_Waal_Energy-OPLS-2005>
125.735244750977

> <r_mmod_Electrostatic_Energy-OPLS-2005>
-340.296905517578

> <r_mmod_Solvation_Energy-OPLS-2005>
-244.617599487305

> <b_mmod_Minimization_Converged-OPLS-2005>
0

> <r_mmod_RMS_Derivative-OPLS-2005>
5.48507928848267

$$$$
2
                    3D
 Structure written by MMmdl.
168176  0  0  1  0            999 V2000
  -30.7545  -14.3342   20.7162 C   0  0  0  0  0  0
  -30.4283  -12.2874   19.3712 C   0  0  0  0  0  0
  -29.4821  -12.5416   18.1819 C   0  0  0  0  0  0
  -28.0086  -12.3895   18.6019 C   0  0  0  0  0  0
  -27.6730  -13.1948   19.8823 C   0  0  2  0  0  0
  -28.7096  -12.9018   20.9887 C   0  0  0  0  0  0
  -25.2645  -13.8150   20.5663 C   0  0  0  0  0  0
  -24.1865  -13.0450   20.9143 C   0  0  0  0  0  0
  -24.6393  -11.6906   20.8708 C   0  0  0  0  0  0
  -23.9043  -10.4303   21.0400 C   0  0  0  0  0  0
  -24.3598   -9.4222   21.9178 C   0  0  0  0  0  0
  -23.6277   -8.2256   22.0751 C   0  0  0  0  0  0
  -22.4260   -8.0288   21.3542 C   0  0  0  0  0  0
  -21.9886   -9.0262   20.4647 C   0  0  0  0  0  0
  -22.7214  -10.2144   20.3052 C   0  0  0  0  0  0
  -21.6855   -6.0733   22.5276 C   0  0  0  0  0  0
  -21.4021   -6.5636   23.8210 C   0  0  0  0  0  0
  -21.3659   -5.6790   24.9169 C   0  0  0  0  0  0
  -21.6040   -4.3052   24.7226 C   0  0  0  0  0  0
  -21.8818   -3.8144   23.4349 C   0  0  0  0  0  0
  -21.9192   -4.6959   22.3405 C   0  0  0  0  0  0
  -22.7893  -13.5266   21.1816 C   0  0  0  0  0  0
  -22.1662   -4.2146   21.0979 F   0  0  0  0  0  0
  -21.5623   -3.4532   25.7739 F   0  0  0  0  0  0
  -30.0646  -13.1912   20.4703 N   0  0  0  0  0  0
  -26.3077  -12.9294   20.3374 N   0  0  0  0  0  0
  -25.9314  -11.6462   20.5727 N   0  0  0  0  0  0
  -22.0524  -12.8279   22.0382 N   0  0  0  0  0  0
  -25.4415  -15.1859   20.4089 N   0  0  0  0  0  0
  -31.7014  -14.7330   20.0300 O   0  0  0  0  0  0
  -21.6636   -6.8876   21.4237 O   0  0  0  0  0  0
  -22.3585  -14.5575   20.6668 O   0  0  0  0  0  0
  -24.6118  -31.8700   23.2140 C   0  0  0  0  0  0
  -25.9026  -32.4830   23.8418 C   0  0  1  0  0  0
  -27.2383  -27.4628   20.0677 C   0  0  0  0  0  0
  -25.5894  -33.8629   24.2341 N   0  0  0  0  0  0
  -23.3974  -30.4947   21.5544 C   0  0  2  0  0  0
  -24.8412  -28.9621   20.1198 C   0  0  0  0  0  0
  -22.7391  -29.4664   22.5016 C   0  0  0  0  0  0
  -18.0267  -28.1368   22.8490 C   0  0  0  0  0  0
  -24.1486  -36.7321   23.2636 C   0  0  0  0  0  0
  -25.9251  -30.8373   21.3678 C   0  0  0  0  0  0
  -26.0000  -29.4721   20.7179 C   0  0  0  0  0  0
  -27.1962  -28.7226   20.7034 C   0  0  0  0  0  0
  -26.0528  -26.9531   19.4866 C   0  0  0  0  0  0
  -24.8595  -27.6966   19.5106 C   0  0  0  0  0  0
  -23.6035  -29.8277   20.1688 C   0  0  0  0  0  0
  -25.4104  -36.3116   24.0336 C   0  0  1  0  0  0
  -20.5852  -28.3647   23.1329 C   0  0  2  0  0  0
  -20.6759  -26.9388   22.5420 C   0  0  0  0  0  0
  -19.5740  -26.6378   21.5212 C   0  0  0  0  0  0
  -18.1915  -26.7915   22.1622 C   0  0  0  0  0  0
  -19.1514  -28.8825   23.2904 C   0  0  0  0  0  0
  -18.9445  -30.1433   23.8911 C   0  0  0  0  0  0
  -17.6449  -30.6577   24.0562 C   0  0  0  0  0  0
  -25.9030  -34.9478   23.5135 C   0  0  0  0  0  0
  -16.5340  -29.9079   23.6322 C   0  0  0  0  0  0
  -16.7256  -28.6495   23.0342 C   0  0  0  0  0  0
  -26.4465  -31.6598   25.0734 C   0  0  0  0  0  0
  -25.3745  -31.3699   26.1494 C   0  0  0  0  0  0
  -27.0286  -30.3039   24.6100 C   0  0  0  0  0  0
  -27.6048  -32.4314   25.7488 C   0  0  0  0  0  0
  -27.5579  -37.1815   24.8461 C   0  0  0  0  0  0
  -21.4123  -29.3022   22.3747 N   0  0  0  0  0  0
  -26.4295  -37.3796   23.9405 N   0  0  0  0  0  0
  -24.6625  -31.0813   22.1036 N   0  0  0  0  0  0
  -23.4176  -28.8204   23.3043 O   0  0  0  0  0  0
  -28.4356  -26.7804   20.0269 O   0  0  0  0  0  0
  -26.5589  -34.8927   22.4696 O   0  0  0  0  0  0
  -23.5317  -32.1453   23.7546 O   0  0  0  0  0  0
  -29.0619  -18.3743   21.2664 C   0  0  0  0  0  0
  -29.7760  -17.1775   21.0421 C   0  0  0  0  0  0
  -29.2348  -16.4463   23.3037 C   0  0  0  0  0  0
  -28.4252  -18.6061   22.5055 C   0  0  0  0  0  0
  -29.8431  -16.1917   22.0570 C   0  0  0  0  0  0
  -28.5318  -17.6432   23.5294 C   0  0  0  0  0  0
  -30.2451  -21.5343   21.7383 C   0  0  0  0  0  0
  -30.7102  -21.9923   20.5528 C   0  0  0  0  0  0
  -29.0109  -21.9702   22.4204 C   0  0  0  0  0  0
  -32.0134  -21.4592   19.9836 C   0  0  0  0  0  0
  -27.5945  -19.8603   22.7365 C   0  0  0  0  0  0
  -30.0303  -23.0295   19.6629 C   0  0  0  0  0  0
  -28.3752  -21.0010   23.4158 C   0  0  0  0  0  0
  -30.5878  -24.4512   19.8728 C   0  0  0  0  0  0
  -30.0931  -25.4644   18.8244 C   0  0  0  0  0  0
  -28.6128  -25.8542   18.9555 C   0  0  0  0  0  0
  -30.4316  -14.9110   21.8802 N   0  0  0  0  0  0
  -28.4847  -23.0748   22.2659 O   0  0  0  0  0  0
  -27.9373  -17.8528   24.7289 F   0  0  0  0  0  0
  -31.4672  -12.4159   19.0584 H   0  0  0  0  0  0
  -30.3456  -11.2524   19.7072 H   0  0  0  0  0  0
  -29.7078  -11.8531   17.3666 H   0  0  0  0  0  0
  -29.6480  -13.5457   17.7876 H   0  0  0  0  0  0
  -27.8145  -11.3288   18.7676 H   0  0  0  0  0  0
  -27.3513  -12.6938   17.7861 H   0  0  0  0  0  0
  -27.7413  -14.2531   19.6302 H   0  0  0  0  0  0
  -28.6606  -11.8520   21.2809 H   0  0  0  0  0  0
  -28.4452  -13.4602   21.8871 H   0  0  0  0  0  0
  -25.2752   -9.5696   22.4741 H   0  0  0  0  0  0
  -23.9991   -7.4650   22.7473 H   0  0  0  0  0  0
  -21.0812   -8.8778   19.8961 H   0  0  0  0  0  0
  -22.3669  -10.9677   19.6158 H   0  0  0  0  0  0
  -21.2022   -7.6149   23.9712 H   0  0  0  0  0  0
  -21.1477   -6.0520   25.9070 H   0  0  0  0  0  0
  -22.0596   -2.7605   23.2851 H   0  0  0  0  0  0
  -22.4130  -11.9955   22.4801 H   0  0  0  0  0  0
  -21.1148  -13.1332   22.2575 H   0  0  0  0  0  0
  -24.6846  -15.8509   20.5247 H   0  0  0  0  0  0
  -26.3094  -15.6207   20.1217 H   0  0  0  0  0  0
  -26.7097  -32.5545   23.1180 H   0  0  0  0  0  0
  -25.0050  -33.9800   25.0492 H   0  0  0  0  0  0
  -22.6847  -31.3104   21.4182 H   0  0  0  0  0  0
  -23.3738  -35.9666   23.3317 H   0  0  0  0  0  0
  -24.3579  -36.8917   22.2046 H   0  0  0  0  0  0
  -23.7257  -37.6540   23.6641 H   0  0  0  0  0  0
  -26.0391  -31.6028   20.5988 H   0  0  0  0  0  0
  -26.8129  -30.8891   21.9861 H   0  0  0  0  0  0
  -28.0939  -29.1179   21.1582 H   0  0  0  0  0  0
  -26.0286  -25.9859   19.0072 H   0  0  0  0  0  0
  -23.9661  -27.2937   19.0537 H   0  0  0  0  0  0
  -23.7101  -30.6022   19.4084 H   0  0  0  0  0  0
  -22.7280  -29.2457   19.8750 H   0  0  0  0  0  0
  -25.1284  -36.1981   25.0830 H   0  0  0  0  0  0
  -20.9940  -28.3209   24.1450 H   0  0  0  0  0  0
  -20.5660  -26.2254   23.3599 H   0  0  0  0  0  0
  -21.6632  -26.7435   22.1216 H   0  0  0  0  0  0
  -19.6904  -25.6294   21.1227 H   0  0  0  0  0  0
  -19.6682  -27.3200   20.6750 H   0  0  0  0  0  0
  -17.4188  -26.6657   21.4020 H   0  0  0  0  0  0
  -18.0318  -26.0051   22.9014 H   0  0  0  0  0  0
  -19.7921  -30.7242   24.2286 H   0  0  0  0  0  0
  -17.5005  -31.6260   24.5160 H   0  0  0  0  0  0
  -15.5341  -30.2986   23.7640 H   0  0  0  0  0  0
  -15.8653  -28.0824   22.7048 H   0  0  0  0  0  0
  -24.5912  -30.7046   25.7843 H   0  0  0  0  0  0
  -24.8942  -32.2851   26.4967 H   0  0  0  0  0  0
  -25.8111  -30.8859   27.0238 H   0  0  0  0  0  0
  -26.2823  -29.6811   24.1154 H   0  0  0  0  0  0
  -27.4056  -29.7265   25.4551 H   0  0  0  0  0  0
  -27.8664  -30.4356   23.9247 H   0  0  0  0  0  0
  -27.2668  -33.3597   26.2110 H   0  0  0  0  0  0
  -28.3831  -32.6902   25.0296 H   0  0  0  0  0  0
  -28.0749  -31.8414   26.5366 H   0  0  0  0  0  0
  -28.2609  -38.0100   24.7500 H   0  0  0  0  0  0
  -28.1063  -36.2634   24.6296 H   0  0  0  0  0  0
  -27.2297  -37.1479   25.8865 H   0  0  0  0  0  0
  -20.9278  -29.8746   21.6975 H   0  0  0  0  0  0
  -26.0181  -38.2877   24.1402 H   0  0  0  0  0  0
  -28.9920  -19.1063   20.4732 H   0  0  0  0  0  0
  -30.2379  -17.0229   20.0766 H   0  0  0  0  0  0
  -29.2754  -15.7122   24.0956 H   0  0  0  0  0  0
  -30.8132  -20.7758   22.2572 H   0  0  0  0  0  0
  -32.4815  -20.7362   20.6523 H   0  0  0  0  0  0
  -32.7245  -22.2684   19.8159 H   0  0  0  0  0  0
  -31.8337  -20.9606   19.0305 H   0  0  0  0  0  0
  -26.7431  -19.5938   23.3642 H   0  0  0  0  0  0
  -27.1571  -20.1916   21.7932 H   0  0  0  0  0  0
  -28.9514  -23.0171   19.8122 H   0  0  0  0  0  0
  -30.1725  -22.7262   18.6244 H   0  0  0  0  0  0
  -27.6816  -21.5844   24.0211 H   0  0  0  0  0  0
  -29.1239  -20.6120   24.1050 H   0  0  0  0  0  0
  -31.6760  -24.4164   19.8188 H   0  0  0  0  0  0
  -30.3491  -24.8048   20.8768 H   0  0  0  0  0  0
  -30.2641  -25.0495   17.8301 H   0  0  0  0  0  0
  -30.7009  -26.3687   18.8722 H   0  0  0  0  0  0
  -27.9956  -24.9675   19.0995 H   0  0  0  0  0  0
  -28.2980  -26.3194   18.0191 H   0  0  0  0  0  0
  -30.1009  -14.2338   22.5510 H   0  0  0  0  0  0
  1 25  1  0  0  0
  1 30  2  0  0  0
  1 87  1  0  0  0
  2  3  1  0  0  0
  2 25  1  0  0  0
  2 90  1  0  0  0
  2 91  1  0  0  0
  3  4  1  0  0  0
  3 92  1  0  0  0
  3 93  1  0  0  0
  4  5  1  0  0  0
  4 94  1  0  0  0
  4 95  1  0  0  0
  5  6  1  0  0  0
  5 26  1  0  0  0
  5 96  1  0  0  0
  6 25  1  0  0  0
  6 97  1  0  0  0
  6 98  1  0  0  0
  7  8  2  0  0  0
  7 26  1  0  0  0
  7 29  1  0  0  0
  8  9  1  0  0  0
  8 22  1  0  0  0
  9 10  1  0  0  0
  9 27  2  0  0  0
 10 11  2  0  0  0
 10 15  1  0  0  0
 11 12  1  0  0  0
 11 99  1  0  0  0
 12 13  2  0  0  0
 12100  1  0  0  0
 13 14  1  0  0  0
 13 31  1  0  0  0
 14 15  2  0  0  0
 14101  1  0  0  0
 15102  1  0  0  0
 16 17  2  0  0  0
 16 21  1  0  0  0
 16 31  1  0  0  0
 17 18  1  0  0  0
 17103  1  0  0  0
 18 19  2  0  0  0
 18104  1  0  0  0
 19 20  1  0  0  0
 19 24  1  0  0  0
 20 21  2  0  0  0
 20105  1  0  0  0
 21 23  1  0  0  0
 22 28  1  0  0  0
 22 32  2  0  0  0
 26 27  1  0  0  0
 28106  1  0  0  0
 28107  1  0  0  0
 29108  1  0  0  0
 29109  1  0  0  0
 33 34  1  0  0  0
 33 66  1  0  0  0
 33 70  2  0  0  0
 34 36  1  0  0  0
 34 59  1  0  0  0
 34110  1  0  0  0
 35 44  2  0  0  0
 35 45  1  0  0  0
 35 68  1  0  0  0
 36 56  1  0  0  0
 36111  1  0  0  0
 37 39  1  0  0  0
 37 47  1  0  0  0
 37 66  1  0  0  0
 37112  1  0  0  0
 38 43  2  0  0  0
 38 46  1  0  0  0
 38 47  1  0  0  0
 39 64  1  0  0  0
 39 67  2  0  0  0
 40 52  1  0  0  0
 40 53  2  0  0  0
 40 58  1  0  0  0
 41113  1  0  0  0
 41114  1  0  0  0
 41115  1  0  0  0
 41 48  1  0  0  0
 42 43  1  0  0  0
 42 66  1  0  0  0
 42116  1  0  0  0
 42117  1  0  0  0
 43 44  1  0  0  0
 44118  1  0  0  0
 45 46  2  0  0  0
 45119  1  0  0  0
 46120  1  0  0  0
 47121  1  0  0  0
 47122  1  0  0  0
 48 56  1  0  0  0
 48 65  1  0  0  0
 48123  1  0  0  0
 49 50  1  0  0  0
 49 53  1  0  0  0
 49 64  1  0  0  0
 49124  1  0  0  0
 50 51  1  0  0  0
 50125  1  0  0  0
 50126  1  0  0  0
 51 52  1  0  0  0
 51127  1  0  0  0
 51128  1  0  0  0
 52129  1  0  0  0
 52130  1  0  0  0
 53 54  1  0  0  0
 54 55  2  0  0  0
 54131  1  0  0  0
 55 57  1  0  0  0
 55132  1  0  0  0
 56 69  2  0  0  0
 57 58  2  0  0  0
 57133  1  0  0  0
 58134  1  0  0  0
 59 60  1  0  0  0
 59 61  1  0  0  0
 59 62  1  0  0  0
 60135  1  0  0  0
 60136  1  0  0  0
 60137  1  0  0  0
 61138  1  0  0  0
 61139  1  0  0  0
 61140  1  0  0  0
 62141  1  0  0  0
 62142  1  0  0  0
 62143  1  0  0  0
 63 65  1  0  0  0
 63144  1  0  0  0
 63145  1  0  0  0
 63146  1  0  0  0
 64147  1  0  0  0
 65148  1  0  0  0
 68 86  1  0  0  0
 71 72  2  0  0  0
 71 74  1  0  0  0
 71149  1  0  0  0
 72 75  1  0  0  0
 72150  1  0  0  0
 73 75  2  0  0  0
 73 76  1  0  0  0
 73151  1  0  0  0
 74 76  2  0  0  0
 74 81  1  0  0  0
 75 87  1  0  0  0
 76 89  1  0  0  0
 77 78  2  0  0  0
 77 79  1  0  0  0
 77152  1  0  0  0
 78 80  1  0  0  0
 78 82  1  0  0  0
 79 83  1  0  0  0
 79 88  2  0  0  0
 80153  1  0  0  0
 80154  1  0  0  0
 80155  1  0  0  0
 81 83  1  0  0  0
 81156  1  0  0  0
 81157  1  0  0  0
 82 84  1  0  0  0
 82158  1  0  0  0
 82159  1  0  0  0
 83160  1  0  0  0
 83161  1  0  0  0
 84 85  1  0  0  0
 84162  1  0  0  0
 84163  1  0  0  0
 85 86  1  0  0  0
 85164  1  0  0  0
 85165  1  0  0  0
 86166  1  0  0  0
 86167  1  0  0  0
 87168  1  0  0  0
M  ISO  4   1 100  68 101  86 101  87 100
M  END
> <chiral flag>
0

> <version>
0

> <s_m_source_file>
/data/baiqing/PycharmProjects/Reinvent-master-3.2/result/LINK_invent/BTK/process_docking_weight1_custom_sum_contain_oxygen_bond_distance_aromatic_linkinvent_7_9_3/rearranged_h_0006.sdf

> <i_m_source_file_index>
3

> <r_mmod_Potential_Energy-OPLS-2005>
-10.8278388977051

> <r_mmod_Stretch_Energy-OPLS-2005>
33.2624855041504

> <r_mmod_Bend_Energy-OPLS-2005>
100.884101867676

> <r_mmod_Torsional_Energy-OPLS-2005>
255.990371704102

> <r_mmod_Improper_Torsional_Energy-OPLS-2005>
6.75181007385254

> <r_mmod_Van_der_Waal_Energy-OPLS-2005>
150.010635375977

> <r_mmod_Electrostatic_Energy-OPLS-2005>
-353.881195068359

> <r_mmod_Solvation_Energy-OPLS-2005>
-212.86848449707

> <b_mmod_Minimization_Converged-OPLS-2005>
0

> <r_mmod_RMS_Derivative-OPLS-2005>
1.3170291185379

$$$$
3
                    3D
 Structure written by MMmdl.
151159  0  0  1  0            999 V2000
  -30.6187  -14.6492   20.4963 C   0  0  0  0  0  0
  -30.4388  -12.3971   19.4558 C   0  0  0  0  0  0
  -29.5091  -12.5078   18.2265 C   0  0  0  0  0  0
  -28.0321  -12.3427   18.6377 C   0  0  0  0  0  0
  -27.6527  -13.2166   19.8626 C   0  0  2  0  0  0
  -28.6968  -13.0772   20.9938 C   0  0  0  0  0  0
  -25.2557  -13.8172   20.5682 C   0  0  0  0  0  0
  -24.1828  -13.0438   20.9196 C   0  0  0  0  0  0
  -24.6396  -11.6909   20.8742 C   0  0  0  0  0  0
  -23.9066  -10.4292   21.0408 C   0  0  0  0  0  0
  -24.3616   -9.4206   21.9185 C   0  0  0  0  0  0
  -23.6290   -8.2242   22.0754 C   0  0  0  0  0  0
  -22.4273   -8.0282   21.3545 C   0  0  0  0  0  0
  -21.9909   -9.0257   20.4648 C   0  0  0  0  0  0
  -22.7238  -10.2135   20.3057 C   0  0  0  0  0  0
  -21.6852   -6.0736   22.5279 C   0  0  0  0  0  0
  -21.4016   -6.5639   23.8214 C   0  0  0  0  0  0
  -21.3658   -5.6791   24.9176 C   0  0  0  0  0  0
  -21.6042   -4.3054   24.7225 C   0  0  0  0  0  0
  -21.8819   -3.8146   23.4346 C   0  0  0  0  0  0
  -21.9193   -4.6963   22.3403 C   0  0  0  0  0  0
  -22.7848  -13.5230   21.1855 C   0  0  0  0  0  0
  -22.1660   -4.2149   21.0980 F   0  0  0  0  0  0
  -21.5627   -3.4538   25.7737 F   0  0  0  0  0  0
  -30.0121  -13.4208   20.4308 N   0  0  0  0  0  0
  -26.2983  -12.9352   20.3310 N   0  0  0  0  0  0
  -25.9324  -11.6507   20.5757 N   0  0  0  0  0  0
  -22.0487  -12.8229   22.0412 N   0  0  0  0  0  0
  -25.4267  -15.1894   20.4076 N   0  0  0  0  0  0
  -31.7841  -14.8026   20.1193 O   0  0  0  0  0  0
  -21.6637   -6.8879   21.4242 O   0  0  0  0  0  0
  -22.3535  -14.5535   20.6697 O   0  0  0  0  0  0
  -24.6261  -31.8601   23.2026 C   0  0  0  0  0  0
  -25.9109  -32.4783   23.8353 C   0  0  1  0  0  0
  -27.2239  -27.3194   20.1158 C   0  0  0  0  0  0
  -25.5925  -33.8583   24.2282 N   0  0  0  0  0  0
  -23.4192  -30.4843   21.5452 C   0  0  2  0  0  0
  -24.8651  -28.9391   20.1113 C   0  0  0  0  0  0
  -22.7471  -29.4631   22.4937 C   0  0  0  0  0  0
  -18.0286  -28.1388   22.8486 C   0  0  0  0  0  0
  -24.1487  -36.7295   23.2639 C   0  0  0  0  0  0
  -25.9604  -30.7917   21.3727 C   0  0  0  0  0  0
  -26.0346  -29.4192   20.7140 C   0  0  0  0  0  0
  -27.2172  -28.6217   20.7046 C   0  0  0  0  0  0
  -26.0293  -26.8916   19.4910 C   0  0  0  0  0  0
  -24.8645  -27.6809   19.4910 C   0  0  0  0  0  0
  -23.6336  -29.8195   20.1603 C   0  0  0  0  0  0
  -25.4113  -36.3088   24.0331 C   0  0  1  0  0  0
  -20.5886  -28.3695   23.1284 C   0  0  2  0  0  0
  -20.6777  -26.9420   22.5408 C   0  0  0  0  0  0
  -19.5754  -26.6390   21.5211 C   0  0  0  0  0  0
  -18.1934  -26.7931   22.1623 C   0  0  0  0  0  0
  -19.1538  -28.8857   23.2880 C   0  0  0  0  0  0
  -18.9463  -30.1458   23.8900 C   0  0  0  0  0  0
  -17.6463  -30.6592   24.0566 C   0  0  0  0  0  0
  -25.9049  -34.9457   23.5107 C   0  0  0  0  0  0
  -16.5355  -29.9092   23.6330 C   0  0  0  0  0  0
  -16.7274  -28.6508   23.0354 C   0  0  0  0  0  0
  -26.4492  -31.6591   25.0723 C   0  0  0  0  0  0
  -25.3726  -31.3730   26.1450 C   0  0  0  0  0  0
  -27.0338  -30.3018   24.6176 C   0  0  0  0  0  0
  -27.6049  -32.4326   25.7496 C   0  0  0  0  0  0
  -27.5580  -37.1806   24.8466 C   0  0  0  0  0  0
  -21.4186  -29.3048   22.3677 N   0  0  0  0  0  0
  -26.4293  -37.3782   23.9408 N   0  0  0  0  0  0
  -24.6875  -31.0617   22.0972 N   0  0  0  0  0  0
  -23.4195  -28.8173   23.3019 O   0  0  0  0  0  0
  -28.3450  -26.4748   20.1661 O   0  0  0  0  0  0
  -26.5617  -34.8923   22.4673 O   0  0  0  0  0  0
  -23.5425  -32.1398   23.7357 O   0  0  0  0  0  0
  -31.0832  -19.2733   20.1180 C   0  0  0  0  0  0
  -31.0547  -17.8500   20.2111 C   0  0  0  0  0  0
  -28.8082  -17.9908   21.0445 C   0  0  0  0  0  0
  -29.9881  -20.1093   20.4899 C   0  0  0  0  0  0
  -29.9127  -17.1594   20.6913 C   0  0  0  0  0  0
  -28.8358  -19.4200   20.9543 C   0  0  0  0  0  0
  -30.1688  -21.6482   20.5007 C   0  0  0  0  0  0
  -29.3409  -24.0537   20.4339 C   0  0  0  0  0  0
  -28.1371  -25.0112   20.0428 C   0  0  0  0  0  0
  -29.8038  -15.7006   20.8398 N   0  0  0  0  0  0
  -29.1469  -22.5514   20.3734 N   0  0  0  0  0  0
  -31.3229  -22.0750   20.5990 O   0  0  0  0  0  0
  -27.7420  -20.1203   21.3431 F   0  0  0  0  0  0
  -31.4801  -12.5230   19.1542 H   0  0  0  0  0  0
  -30.3756  -11.4025   19.8998 H   0  0  0  0  0  0
  -29.7766  -11.7565   17.4821 H   0  0  0  0  0  0
  -29.6487  -13.4774   17.7455 H   0  0  0  0  0  0
  -27.8725  -11.2900   18.8737 H   0  0  0  0  0  0
  -27.3773  -12.5678   17.7952 H   0  0  0  0  0  0
  -27.6697  -14.2503   19.5172 H   0  0  0  0  0  0
  -28.7094  -12.0571   21.3806 H   0  0  0  0  0  0
  -28.4403  -13.7125   21.8429 H   0  0  0  0  0  0
  -25.2763   -9.5679   22.4757 H   0  0  0  0  0  0
  -24.0000   -7.4631   22.7471 H   0  0  0  0  0  0
  -21.0840   -8.8778   19.8953 H   0  0  0  0  0  0
  -22.3701  -10.9674   19.6164 H   0  0  0  0  0  0
  -21.2011   -7.6147   23.9719 H   0  0  0  0  0  0
  -21.1479   -6.0520   25.9079 H   0  0  0  0  0  0
  -22.0600   -2.7609   23.2846 H   0  0  0  0  0  0
  -22.4096  -11.9894   22.4811 H   0  0  0  0  0  0
  -21.1104  -13.1259   22.2609 H   0  0  0  0  0  0
  -24.6534  -15.8391   20.5028 H   0  0  0  0  0  0
  -26.2640  -15.6243   20.0421 H   0  0  0  0  0  0
  -26.7176  -32.5454   23.1102 H   0  0  0  0  0  0
  -25.0072  -33.9724   25.0428 H   0  0  0  0  0  0
  -22.7130  -31.3049   21.4029 H   0  0  0  0  0  0
  -23.3750  -35.9628   23.3306 H   0  0  0  0  0  0
  -24.3575  -36.8909   22.2052 H   0  0  0  0  0  0
  -23.7240  -37.6500   23.6655 H   0  0  0  0  0  0
  -26.0918  -31.5561   20.6054 H   0  0  0  0  0  0
  -26.8407  -30.8398   22.0021 H   0  0  0  0  0  0
  -28.1148  -28.9868   21.1838 H   0  0  0  0  0  0
  -25.9664  -25.9310   19.0026 H   0  0  0  0  0  0
  -23.9681  -27.3077   19.0151 H   0  0  0  0  0  0
  -23.7536  -30.5963   19.4042 H   0  0  0  0  0  0
  -22.7531  -29.2500   19.8575 H   0  0  0  0  0  0
  -25.1294  -36.1944   25.0824 H   0  0  0  0  0  0
  -20.9978  -28.3271   24.1405 H   0  0  0  0  0  0
  -20.5682  -26.2308   23.3607 H   0  0  0  0  0  0
  -21.6647  -26.7455   22.1202 H   0  0  0  0  0  0
  -19.6917  -25.6299   21.1244 H   0  0  0  0  0  0
  -19.6690  -27.3196   20.6737 H   0  0  0  0  0  0
  -17.4203  -26.6677   21.4026 H   0  0  0  0  0  0
  -18.0339  -26.0073   22.9020 H   0  0  0  0  0  0
  -19.7939  -30.7272   24.2272 H   0  0  0  0  0  0
  -17.5021  -31.6270   24.5169 H   0  0  0  0  0  0
  -15.5357  -30.2999   23.7650 H   0  0  0  0  0  0
  -15.8672  -28.0826   22.7074 H   0  0  0  0  0  0
  -24.5901  -30.7077   25.7780 H   0  0  0  0  0  0
  -24.8916  -32.2897   26.4870 H   0  0  0  0  0  0
  -25.8052  -30.8912   27.0227 H   0  0  0  0  0  0
  -26.2917  -29.6767   24.1196 H   0  0  0  0  0  0
  -27.4036  -29.7273   25.4679 H   0  0  0  0  0  0
  -27.8783  -30.4307   23.9402 H   0  0  0  0  0  0
  -27.2656  -33.3620   26.2079 H   0  0  0  0  0  0
  -28.3859  -32.6895   25.0327 H   0  0  0  0  0  0
  -28.0719  -31.8448   26.5409 H   0  0  0  0  0  0
  -28.2605  -38.0097   24.7511 H   0  0  0  0  0  0
  -28.1071  -36.2630   24.6298 H   0  0  0  0  0  0
  -27.2297  -37.1461   25.8869 H   0  0  0  0  0  0
  -20.9364  -29.8768   21.6885 H   0  0  0  0  0  0
  -26.0177  -38.2859   24.1404 H   0  0  0  0  0  0
  -31.9967  -19.7364   19.7717 H   0  0  0  0  0  0
  -31.9398  -17.3027   19.9203 H   0  0  0  0  0  0
  -27.9028  -17.5328   21.4149 H   0  0  0  0  0  0
  -29.6511  -24.2990   21.4503 H   0  0  0  0  0  0
  -30.1875  -24.3155   19.7973 H   0  0  0  0  0  0
  -27.2797  -24.7307   20.6572 H   0  0  0  0  0  0
  -27.8679  -24.7911   19.0094 H   0  0  0  0  0  0
  -28.9039  -15.3833   21.1656 H   0  0  0  0  0  0
  -28.2048  -22.1897   20.3007 H   0  0  0  0  0  0
  1 25  1  0  0  0
  1 30  2  0  0  0
  1 80  1  0  0  0
  2  3  1  0  0  0
  2 25  1  0  0  0
  2 84  1  0  0  0
  2 85  1  0  0  0
  3  4  1  0  0  0
  3 86  1  0  0  0
  3 87  1  0  0  0
  4  5  1  0  0  0
  4 88  1  0  0  0
  4 89  1  0  0  0
  5  6  1  0  0  0
  5 26  1  0  0  0
  5 90  1  0  0  0
  6 25  1  0  0  0
  6 91  1  0  0  0
  6 92  1  0  0  0
  7  8  2  0  0  0
  7 26  1  0  0  0
  7 29  1  0  0  0
  8  9  1  0  0  0
  8 22  1  0  0  0
  9 10  1  0  0  0
  9 27  2  0  0  0
 10 11  2  0  0  0
 10 15  1  0  0  0
 11 12  1  0  0  0
 11 93  1  0  0  0
 12 13  2  0  0  0
 12 94  1  0  0  0
 13 14  1  0  0  0
 13 31  1  0  0  0
 14 15  2  0  0  0
 14 95  1  0  0  0
 15 96  1  0  0  0
 16 17  2  0  0  0
 16 21  1  0  0  0
 16 31  1  0  0  0
 17 18  1  0  0  0
 17 97  1  0  0  0
 18 19  2  0  0  0
 18 98  1  0  0  0
 19 20  1  0  0  0
 19 24  1  0  0  0
 20 21  2  0  0  0
 20 99  1  0  0  0
 21 23  1  0  0  0
 22 28  1  0  0  0
 22 32  2  0  0  0
 26 27  1  0  0  0
 28100  1  0  0  0
 28101  1  0  0  0
 29102  1  0  0  0
 29103  1  0  0  0
 33 34  1  0  0  0
 33 66  1  0  0  0
 33 70  2  0  0  0
 34 36  1  0  0  0
 34 59  1  0  0  0
 34104  1  0  0  0
 35 44  2  0  0  0
 35 45  1  0  0  0
 35 68  1  0  0  0
 36 56  1  0  0  0
 36105  1  0  0  0
 37 39  1  0  0  0
 37 47  1  0  0  0
 37 66  1  0  0  0
 37106  1  0  0  0
 38 43  2  0  0  0
 38 46  1  0  0  0
 38 47  1  0  0  0
 39 64  1  0  0  0
 39 67  2  0  0  0
 40 52  1  0  0  0
 40 53  2  0  0  0
 40 58  1  0  0  0
 41107  1  0  0  0
 41108  1  0  0  0
 41109  1  0  0  0
 41 48  1  0  0  0
 42 43  1  0  0  0
 42 66  1  0  0  0
 42110  1  0  0  0
 42111  1  0  0  0
 43 44  1  0  0  0
 44112  1  0  0  0
 45 46  2  0  0  0
 45113  1  0  0  0
 46114  1  0  0  0
 47115  1  0  0  0
 47116  1  0  0  0
 48 56  1  0  0  0
 48 65  1  0  0  0
 48117  1  0  0  0
 49 50  1  0  0  0
 49 53  1  0  0  0
 49 64  1  0  0  0
 49118  1  0  0  0
 50 51  1  0  0  0
 50119  1  0  0  0
 50120  1  0  0  0
 51 52  1  0  0  0
 51121  1  0  0  0
 51122  1  0  0  0
 52123  1  0  0  0
 52124  1  0  0  0
 53 54  1  0  0  0
 54 55  2  0  0  0
 54125  1  0  0  0
 55 57  1  0  0  0
 55126  1  0  0  0
 56 69  2  0  0  0
 57 58  2  0  0  0
 57127  1  0  0  0
 58128  1  0  0  0
 59 60  1  0  0  0
 59 61  1  0  0  0
 59 62  1  0  0  0
 60129  1  0  0  0
 60130  1  0  0  0
 60131  1  0  0  0
 61132  1  0  0  0
 61133  1  0  0  0
 61134  1  0  0  0
 62135  1  0  0  0
 62136  1  0  0  0
 62137  1  0  0  0
 63 65  1  0  0  0
 63138  1  0  0  0
 63139  1  0  0  0
 63140  1  0  0  0
 64141  1  0  0  0
 65142  1  0  0  0
 68 79  1  0  0  0
 71 72  2  0  0  0
 71 74  1  0  0  0
 71143  1  0  0  0
 72 75  1  0  0  0
 72144  1  0  0  0
 73 75  2  0  0  0
 73 76  1  0  0  0
 73145  1  0  0  0
 74 76  2  0  0  0
 74 77  1  0  0  0
 75 80  1  0  0  0
 76 83  1  0  0  0
 77 81  1  0  0  0
 77 82  2  0  0  0
 78 79  1  0  0  0
 78 81  1  0  0  0
 78146  1  0  0  0
 78147  1  0  0  0
 79148  1  0  0  0
 79149  1  0  0  0
 80150  1  0  0  0
 81151  1  0  0  0
M  ISO  4   1 100  68 101  79 101  80 100
M  END
> <chiral flag>
0

> <version>
0

> <s_m_source_file>
/data/baiqing/PycharmProjects/Reinvent-master-3.2/result/LINK_invent/BTK/process_docking_weight1_custom_sum_contain_oxygen_bond_distance_aromatic_linkinvent_7_9_3/rearranged_h_0006.sdf

> <i_m_source_file_index>
4

> <r_mmod_Potential_Energy-OPLS-2005>
16.510835647583

> <r_mmod_Stretch_Energy-OPLS-2005>
80.9093017578125

> <r_mmod_Bend_Energy-OPLS-2005>
141.168273925781

> <r_mmod_Torsional_Energy-OPLS-2005>
217.246307373047

> <r_mmod_Improper_Torsional_Energy-OPLS-2005>
4.68743324279785

> <r_mmod_Van_der_Waal_Energy-OPLS-2005>
149.326095581055

> <r_mmod_Electrostatic_Energy-OPLS-2005>
-399.823760986328

> <r_mmod_Solvation_Energy-OPLS-2005>
-226.79606628418

> <b_mmod_Minimization_Converged-OPLS-2005>
0

> <r_mmod_RMS_Derivative-OPLS-2005>
0.423974633216858

$$$$
4
                    3D
 Structure written by MMmdl.
168176  0  0  1  0            999 V2000
  -30.7387  -14.3915   20.5238 C   0  0  0  0  0  0
  -30.4098  -12.2482   19.3804 C   0  0  0  0  0  0
  -29.4728  -12.4741   18.1745 C   0  0  0  0  0  0
  -27.9966  -12.3569   18.6025 C   0  0  0  0  0  0
  -27.6639  -13.1982   19.8673 C   0  0  2  0  0  0
  -28.7126  -12.9636   20.9792 C   0  0  0  0  0  0
  -25.2617  -13.8183   20.5711 C   0  0  0  0  0  0
  -24.1847  -13.0472   20.9207 C   0  0  0  0  0  0
  -24.6373  -11.6938   20.8727 C   0  0  0  0  0  0
  -23.9031  -10.4338   21.0387 C   0  0  0  0  0  0
  -24.3600   -9.4242   21.9146 C   0  0  0  0  0  0
  -23.6285   -8.2263   22.0721 C   0  0  0  0  0  0
  -22.4264   -8.0296   21.3532 C   0  0  0  0  0  0
  -21.9904   -9.0264   20.4624 C   0  0  0  0  0  0
  -22.7213  -10.2158   20.3031 C   0  0  0  0  0  0
  -21.6864   -6.0734   22.5284 C   0  0  0  0  0  0
  -21.4005   -6.5628   23.8219 C   0  0  0  0  0  0
  -21.3663   -5.6777   24.9181 C   0  0  0  0  0  0
  -21.6037   -4.3039   24.7231 C   0  0  0  0  0  0
  -21.8830   -3.8138   23.4358 C   0  0  0  0  0  0
  -21.9198   -4.6956   22.3415 C   0  0  0  0  0  0
  -22.7879  -13.5274   21.1905 C   0  0  0  0  0  0
  -22.1662   -4.2138   21.0994 F   0  0  0  0  0  0
  -21.5643   -3.4534   25.7748 F   0  0  0  0  0  0
  -30.0497  -13.2268   20.4156 N   0  0  0  0  0  0
  -26.3028  -12.9319   20.3345 N   0  0  0  0  0  0
  -25.9284  -11.6476   20.5725 N   0  0  0  0  0  0
  -22.0509  -12.8249   22.0443 N   0  0  0  0  0  0
  -25.4382  -15.1897   20.4173 N   0  0  0  0  0  0
  -31.8681  -14.5754   20.0647 O   0  0  0  0  0  0
  -21.6647   -6.8884   21.4242 O   0  0  0  0  0  0
  -22.3576  -14.5584   20.6770 O   0  0  0  0  0  0
  -24.6185  -31.8690   23.2131 C   0  0  0  0  0  0
  -25.9047  -32.4835   23.8411 C   0  0  1  0  0  0
  -27.2372  -27.4390   20.0802 C   0  0  0  0  0  0
  -25.5865  -33.8634   24.2302 N   0  0  0  0  0  0
  -23.4031  -30.4933   21.5557 C   0  0  2  0  0  0
  -24.8461  -28.9495   20.1253 C   0  0  0  0  0  0
  -22.7379  -29.4721   22.5060 C   0  0  0  0  0  0
  -18.0317  -28.1272   22.8446 C   0  0  0  0  0  0
  -24.1468  -36.7340   23.2651 C   0  0  0  0  0  0
  -25.9339  -30.8262   21.3652 C   0  0  0  0  0  0
  -26.0084  -29.4565   20.7256 C   0  0  0  0  0  0
  -27.2101  -28.7035   20.7140 C   0  0  0  0  0  0
  -26.0599  -26.9461   19.4829 C   0  0  0  0  0  0
  -24.8640  -27.6873   19.5065 C   0  0  0  0  0  0
  -23.6109  -29.8182   20.1732 C   0  0  0  0  0  0
  -25.4086  -36.3128   24.0347 C   0  0  1  0  0  0
  -20.5875  -28.3702   23.1359 C   0  0  2  0  0  0
  -20.6867  -26.9441   22.5434 C   0  0  0  0  0  0
  -19.5911  -26.6390   21.5180 C   0  0  0  0  0  0
  -18.2063  -26.7829   22.1564 C   0  0  0  0  0  0
  -19.1522  -28.8805   23.2896 C   0  0  0  0  0  0
  -18.9348  -30.1394   23.8925 C   0  0  0  0  0  0
  -17.6303  -30.6442   24.0605 C   0  0  0  0  0  0
  -25.9000  -34.9501   23.5119 C   0  0  0  0  0  0
  -16.5262  -29.8891   23.6255 C   0  0  0  0  0  0
  -16.7282  -28.6316   23.0277 C   0  0  0  0  0  0
  -26.4429  -31.6630   25.0763 C   0  0  0  0  0  0
  -25.3701  -31.3751   26.1545 C   0  0  0  0  0  0
  -27.0272  -30.3085   24.6132 C   0  0  0  0  0  0
  -27.5983  -32.4365   25.7532 C   0  0  0  0  0  0
  -27.5558  -37.1856   24.8471 C   0  0  0  0  0  0
  -21.4098  -29.3133   22.3792 N   0  0  0  0  0  0
  -26.4280  -37.3808   23.9408 N   0  0  0  0  0  0
  -24.6702  -31.0764   22.1040 N   0  0  0  0  0  0
  -23.4131  -28.8249   23.3107 O   0  0  0  0  0  0
  -28.3645  -26.6588   19.9458 O   0  0  0  0  0  0
  -26.5565  -34.8958   22.4673 O   0  0  0  0  0  0
  -23.5359  -32.1490   23.7451 O   0  0  0  0  0  0
  -25.3380  -21.0600   19.6952 C   0  0  0  0  0  0
  -25.3507  -21.5884   21.0047 C   0  0  0  0  0  0
  -26.4024  -20.2451   19.2470 C   0  0  0  0  0  0
  -27.4524  -20.4426   21.4404 C   0  0  0  0  0  0
  -26.4303  -21.3076   21.8703 C   0  0  0  0  0  0
  -27.4531  -19.9349   20.1322 C   0  0  0  0  0  0
  -26.5324  -21.9312   23.1901 C   0  0  0  0  0  0
  -28.3732  -24.2809   21.8607 C   0  0  0  0  0  0
  -29.5810  -25.0607   21.3048 C   0  0  0  0  0  0
  -30.3156  -16.8118   20.5900 C   0  0  0  0  0  0
  -28.7615  -23.0542   22.7052 C   0  0  0  0  0  0
  -29.2720  -26.5475   21.0355 C   0  0  0  0  0  0
  -29.1521  -17.7586   20.9135 C   0  0  0  0  0  0
  -25.5243  -21.8203   24.0531 N   0  0  0  0  0  0
  -30.0114  -15.4240   20.9516 N   0  0  0  0  0  0
  -27.6283  -22.6235   23.5558 N   0  3  0  0  0  0
  -28.5644  -18.2984   18.3479 O   0  0  0  0  0  0
  -30.0399  -19.9322   19.5959 O   0  0  0  0  0  0
  -28.8895  -19.0158   19.5966 S   0  0  0  0  0  0
  -31.4491  -12.3264   19.0553 H   0  0  0  0  0  0
  -30.2942  -11.2297   19.7569 H   0  0  0  0  0  0
  -29.6820  -11.7381   17.3964 H   0  0  0  0  0  0
  -29.6564  -13.4516   17.7266 H   0  0  0  0  0  0
  -27.7927  -11.3041   18.7936 H   0  0  0  0  0  0
  -27.3408  -12.6439   17.7760 H   0  0  0  0  0  0
  -27.7137  -14.2465   19.5708 H   0  0  0  0  0  0
  -28.6639  -11.9358   21.3395 H   0  0  0  0  0  0
  -28.4992  -13.5936   21.8440 H   0  0  0  0  0  0
  -25.2760   -9.5750   22.4700 H   0  0  0  0  0  0
  -24.0026   -7.4673   22.7438 H   0  0  0  0  0  0
  -21.0840   -8.8767   19.8928 H   0  0  0  0  0  0
  -22.3647  -10.9684   19.6142 H   0  0  0  0  0  0
  -21.1966   -7.6132   23.9726 H   0  0  0  0  0  0
  -21.1468   -6.0500   25.9087 H   0  0  0  0  0  0
  -22.0598   -2.7602   23.2868 H   0  0  0  0  0  0
  -22.4095  -11.9862   22.4771 H   0  0  0  0  0  0
  -21.1098  -13.1231   22.2610 H   0  0  0  0  0  0
  -24.6860  -15.8500   20.5754 H   0  0  0  0  0  0
  -26.2680  -15.6247   20.0355 H   0  0  0  0  0  0
  -26.7123  -32.5538   23.1196 H   0  0  0  0  0  0
  -25.0094  -33.9770   25.0509 H   0  0  0  0  0  0
  -22.6983  -31.3130   21.4171 H   0  0  0  0  0  0
  -23.3691  -35.9706   23.3350 H   0  0  0  0  0  0
  -24.3578  -36.8930   22.2057 H   0  0  0  0  0  0
  -23.7255  -37.6586   23.6614 H   0  0  0  0  0  0
  -26.0275  -31.5774   20.5806 H   0  0  0  0  0  0
  -26.8350  -30.9035   21.9614 H   0  0  0  0  0  0
  -28.1141  -29.1062   21.1519 H   0  0  0  0  0  0
  -26.0810  -25.9900   18.9779 H   0  0  0  0  0  0
  -23.9756  -27.2874   19.0361 H   0  0  0  0  0  0
  -23.7111  -30.5858   19.4009 H   0  0  0  0  0  0
  -22.7408  -29.2266   19.8837 H   0  0  0  0  0  0
  -25.1246  -36.2024   25.0840 H   0  0  0  0  0  0
  -20.9917  -28.3278   24.1487 H   0  0  0  0  0  0
  -20.5801  -26.2264   23.3597 H   0  0  0  0  0  0
  -21.6780  -26.7539   22.1294 H   0  0  0  0  0  0
  -19.7148  -25.6280   21.1232 H   0  0  0  0  0  0
  -19.6868  -27.3170   20.6694 H   0  0  0  0  0  0
  -17.4349  -26.6519   21.3956 H   0  0  0  0  0  0
  -18.0550  -25.9903   22.8925 H   0  0  0  0  0  0
  -19.7788  -30.7227   24.2368 H   0  0  0  0  0  0
  -17.4785  -31.6087   24.5273 H   0  0  0  0  0  0
  -15.5214  -30.2716   23.7563 H   0  0  0  0  0  0
  -15.8731  -28.0588   22.6940 H   0  0  0  0  0  0
  -24.5801  -30.7158   25.7915 H   0  0  0  0  0  0
  -24.8973  -32.2930   26.5052 H   0  0  0  0  0  0
  -25.8115  -30.8893   27.0273 H   0  0  0  0  0  0
  -26.2831  -29.6907   24.1116 H   0  0  0  0  0  0
  -27.3964  -29.7265   25.4594 H   0  0  0  0  0  0
  -27.8666  -30.4432   23.9316 H   0  0  0  0  0  0
  -27.2528  -33.3616   26.2161 H   0  0  0  0  0  0
  -28.3752  -32.7081   25.0357 H   0  0  0  0  0  0
  -28.0688  -31.8505   26.5448 H   0  0  0  0  0  0
  -28.2635  -38.0102   24.7445 H   0  0  0  0  0  0
  -28.1008  -36.2652   24.6347 H   0  0  0  0  0  0
  -27.2293  -37.1558   25.8889 H   0  0  0  0  0  0
  -20.9150  -29.8944   21.7168 H   0  0  0  0  0  0
  -26.0179  -38.2901   24.1379 H   0  0  0  0  0  0
  -24.5234  -21.3057   19.0247 H   0  0  0  0  0  0
  -24.5576  -22.2536   21.3191 H   0  0  0  0  0  0
  -26.4291  -19.8807   18.2299 H   0  0  0  0  0  0
  -28.2710  -20.2127   22.1053 H   0  0  0  0  0  0
  -27.7345  -23.9717   21.0309 H   0  0  0  0  0  0
  -27.7722  -24.9453   22.4837 H   0  0  0  0  0  0
  -29.9604  -24.5744   20.4014 H   0  0  0  0  0  0
  -30.3923  -25.0286   22.0326 H   0  0  0  0  0  0
  -30.5386  -16.8596   19.5189 H   0  0  0  0  0  0
  -31.2222  -17.1426   21.0974 H   0  0  0  0  0  0
  -29.5744  -23.3339   23.3767 H   0  0  0  0  0  0
  -29.1557  -22.2468   22.0889 H   0  0  0  0  0  0
  -30.1923  -27.0784   20.7796 H   0  0  0  0  0  0
  -28.8844  -26.9918   21.9535 H   0  0  0  0  0  0
  -29.3553  -18.2817   21.8429 H   0  0  0  0  0  0
  -28.2032  -17.2435   21.0264 H   0  0  0  0  0  0
  -24.7375  -21.2343   23.8159 H   0  0  0  0  0  0
  -25.5387  -22.2404   24.9697 H   0  0  0  0  0  0
  -29.0895  -15.1970   21.2902 H   0  0  0  0  0  0
  -27.6951  -22.9512   24.5085 H   0  0  0  0  0  0
  1 25  1  0  0  0
  1 30  2  0  0  0
  1 85  1  0  0  0
  2  3  1  0  0  0
  2 25  1  0  0  0
  2 90  1  0  0  0
  2 91  1  0  0  0
  3  4  1  0  0  0
  3 92  1  0  0  0
  3 93  1  0  0  0
  4  5  1  0  0  0
  4 94  1  0  0  0
  4 95  1  0  0  0
  5  6  1  0  0  0
  5 26  1  0  0  0
  5 96  1  0  0  0
  6 25  1  0  0  0
  6 97  1  0  0  0
  6 98  1  0  0  0
  7  8  2  0  0  0
  7 26  1  0  0  0
  7 29  1  0  0  0
  8  9  1  0  0  0
  8 22  1  0  0  0
  9 10  1  0  0  0
  9 27  2  0  0  0
 10 11  2  0  0  0
 10 15  1  0  0  0
 11 12  1  0  0  0
 11 99  1  0  0  0
 12 13  2  0  0  0
 12100  1  0  0  0
 13 14  1  0  0  0
 13 31  1  0  0  0
 14 15  2  0  0  0
 14101  1  0  0  0
 15102  1  0  0  0
 16 17  2  0  0  0
 16 21  1  0  0  0
 16 31  1  0  0  0
 17 18  1  0  0  0
 17103  1  0  0  0
 18 19  2  0  0  0
 18104  1  0  0  0
 19 20  1  0  0  0
 19 24  1  0  0  0
 20 21  2  0  0  0
 20105  1  0  0  0
 21 23  1  0  0  0
 22 28  1  0  0  0
 22 32  2  0  0  0
 26 27  1  0  0  0
 28106  1  0  0  0
 28107  1  0  0  0
 29108  1  0  0  0
 29109  1  0  0  0
 33 34  1  0  0  0
 33 66  1  0  0  0
 33 70  2  0  0  0
 34 36  1  0  0  0
 34 59  1  0  0  0
 34110  1  0  0  0
 35 44  2  0  0  0
 35 45  1  0  0  0
 35 68  1  0  0  0
 36 56  1  0  0  0
 36111  1  0  0  0
 37 39  1  0  0  0
 37 47  1  0  0  0
 37 66  1  0  0  0
 37112  1  0  0  0
 38 43  2  0  0  0
 38 46  1  0  0  0
 38 47  1  0  0  0
 39 64  1  0  0  0
 39 67  2  0  0  0
 40 52  1  0  0  0
 40 53  2  0  0  0
 40 58  1  0  0  0
 41113  1  0  0  0
 41114  1  0  0  0
 41115  1  0  0  0
 41 48  1  0  0  0
 42 43  1  0  0  0
 42 66  1  0  0  0
 42116  1  0  0  0
 42117  1  0  0  0
 43 44  1  0  0  0
 44118  1  0  0  0
 45 46  2  0  0  0
 45119  1  0  0  0
 46120  1  0  0  0
 47121  1  0  0  0
 47122  1  0  0  0
 48 56  1  0  0  0
 48 65  1  0  0  0
 48123  1  0  0  0
 49 50  1  0  0  0
 49 53  1  0  0  0
 49 64  1  0  0  0
 49124  1  0  0  0
 50 51  1  0  0  0
 50125  1  0  0  0
 50126  1  0  0  0
 51 52  1  0  0  0
 51127  1  0  0  0
 51128  1  0  0  0
 52129  1  0  0  0
 52130  1  0  0  0
 53 54  1  0  0  0
 54 55  2  0  0  0
 54131  1  0  0  0
 55 57  1  0  0  0
 55132  1  0  0  0
 56 69  2  0  0  0
 57 58  2  0  0  0
 57133  1  0  0  0
 58134  1  0  0  0
 59 60  1  0  0  0
 59 61  1  0  0  0
 59 62  1  0  0  0
 60135  1  0  0  0
 60136  1  0  0  0
 60137  1  0  0  0
 61138  1  0  0  0
 61139  1  0  0  0
 61140  1  0  0  0
 62141  1  0  0  0
 62142  1  0  0  0
 62143  1  0  0  0
 63 65  1  0  0  0
 63144  1  0  0  0
 63145  1  0  0  0
 63146  1  0  0  0
 64147  1  0  0  0
 65148  1  0  0  0
 68 82  1  0  0  0
 71 72  2  0  0  0
 71 73  1  0  0  0
 71149  1  0  0  0
 72 75  1  0  0  0
 72150  1  0  0  0
 73 76  2  0  0  0
 73151  1  0  0  0
 74 75  2  0  0  0
 74 76  1  0  0  0
 74152  1  0  0  0
 75 77  1  0  0  0
 76 89  1  0  0  0
 77 84  1  0  0  0
 77 86  2  0  0  0
 78 79  1  0  0  0
 78 81  1  0  0  0
 78153  1  0  0  0
 78154  1  0  0  0
 79 82  1  0  0  0
 79155  1  0  0  0
 79156  1  0  0  0
 80 83  1  0  0  0
 80 85  1  0  0  0
 80157  1  0  0  0
 80158  1  0  0  0
 81 86  1  0  0  0
 81159  1  0  0  0
 81160  1  0  0  0
 82161  1  0  0  0
 82162  1  0  0  0
 83163  1  0  0  0
 83164  1  0  0  0
 83 89  1  0  0  0
 84165  1  0  0  0
 84166  1  0  0  0
 85167  1  0  0  0
 86168  1  0  0  0
 87 89  2  0  0  0
 88 89  2  0  0  0
M  CHG  1  86   1
M  ISO  4   1 100  68 101  82 101  85 100
M  END
> <chiral flag>
0

> <version>
0

> <s_m_source_file>
/data/baiqing/PycharmProjects/Reinvent-master-3.2/result/LINK_invent/BTK/process_docking_weight1_custom_sum_contain_oxygen_bond_distance_aromatic_linkinvent_7_9_3/rearranged_h_0006.sdf

> <i_m_source_file_index>
5

> <r_mmod_Potential_Energy-OPLS-2005>
-382.143341064453

> <r_mmod_Stretch_Energy-OPLS-2005>
33.308666229248

> <r_mmod_Bend_Energy-OPLS-2005>
98.5891571044922

> <r_mmod_Torsional_Energy-OPLS-2005>
242.403869628906

> <r_mmod_Improper_Torsional_Energy-OPLS-2005>
6.98731708526611

> <r_mmod_Van_der_Waal_Energy-OPLS-2005>
139.683441162109

> <r_mmod_Electrostatic_Energy-OPLS-2005>
-437.784820556641

> <r_mmod_Solvation_Energy-OPLS-2005>
-478.751495361328

> <b_mmod_Minimization_Converged-OPLS-2005>
0

> <r_mmod_RMS_Derivative-OPLS-2005>
7.75464773178101

$$$$
5
                    3D
 Structure written by MMmdl.
176184  0  0  1  0            999 V2000
  -30.7771  -14.3317   20.7085 C   0  0  0  0  0  0
  -30.4141  -12.2896   19.3670 C   0  0  0  0  0  0
  -29.4745  -12.5438   18.1750 C   0  0  0  0  0  0
  -27.9979  -12.4113   18.5977 C   0  0  0  0  0  0
  -27.6691  -13.2066   19.8862 C   0  0  2  0  0  0
  -28.7114  -12.9058   20.9847 C   0  0  0  0  0  0
  -25.2582  -13.8166   20.5675 C   0  0  0  0  0  0
  -24.1818  -13.0429   20.9164 C   0  0  0  0  0  0
  -24.6396  -11.6906   20.8729 C   0  0  0  0  0  0
  -23.9063  -10.4294   21.0383 C   0  0  0  0  0  0
  -24.3623   -9.4216   21.9160 C   0  0  0  0  0  0
  -23.6316   -8.2249   22.0718 C   0  0  0  0  0  0
  -22.4293   -8.0295   21.3530 C   0  0  0  0  0  0
  -21.9928   -9.0260   20.4623 C   0  0  0  0  0  0
  -22.7234  -10.2147   20.3034 C   0  0  0  0  0  0
  -21.6866   -6.0740   22.5274 C   0  0  0  0  0  0
  -21.4006   -6.5632   23.8201 C   0  0  0  0  0  0
  -21.3670   -5.6783   24.9170 C   0  0  0  0  0  0
  -21.6064   -4.3050   24.7226 C   0  0  0  0  0  0
  -21.8820   -3.8145   23.4353 C   0  0  0  0  0  0
  -21.9188   -4.6960   22.3399 C   0  0  0  0  0  0
  -22.7830  -13.5231   21.1851 C   0  0  0  0  0  0
  -22.1625   -4.2133   21.0971 F   0  0  0  0  0  0
  -21.5669   -3.4541   25.7748 F   0  0  0  0  0  0
  -30.0570  -13.2085   20.4557 N   0  0  0  0  0  0
  -26.3063  -12.9348   20.3451 N   0  0  0  0  0  0
  -25.9329  -11.6502   20.5807 N   0  0  0  0  0  0
  -22.0489  -12.8223   22.0426 N   0  0  0  0  0  0
  -25.4288  -15.1872   20.4032 N   0  0  0  0  0  0
  -31.7595  -14.6638   20.0396 O   0  0  0  0  0  0
  -21.6658   -6.8891   21.4237 O   0  0  0  0  0  0
  -22.3496  -14.5531   20.6717 O   0  0  0  0  0  0
  -24.6133  -31.8691   23.2122 C   0  0  0  0  0  0
  -25.9024  -32.4836   23.8413 C   0  0  1  0  0  0
  -27.2360  -27.4536   20.0826 C   0  0  0  0  0  0
  -25.5890  -33.8641   24.2336 N   0  0  0  0  0  0
  -23.3997  -30.4919   21.5542 C   0  0  2  0  0  0
  -24.8416  -28.9577   20.1179 C   0  0  0  0  0  0
  -22.7402  -29.4665   22.5033 C   0  0  0  0  0  0
  -18.0271  -28.1364   22.8492 C   0  0  0  0  0  0
  -24.1496  -36.7335   23.2646 C   0  0  0  0  0  0
  -25.9265  -30.8386   21.3611 C   0  0  0  0  0  0
  -26.0031  -29.4757   20.7045 C   0  0  0  0  0  0
  -27.2022  -28.7329   20.6789 C   0  0  0  0  0  0
  -26.0531  -26.9412   19.5015 C   0  0  0  0  0  0
  -24.8609  -27.6885   19.5146 C   0  0  0  0  0  0
  -23.6045  -29.8237   20.1690 C   0  0  0  0  0  0
  -25.4113  -36.3136   24.0348 C   0  0  1  0  0  0
  -20.5859  -28.3656   23.1337 C   0  0  2  0  0  0
  -20.6769  -26.9395   22.5427 C   0  0  0  0  0  0
  -19.5752  -26.6382   21.5214 C   0  0  0  0  0  0
  -18.1927  -26.7912   22.1627 C   0  0  0  0  0  0
  -19.1517  -28.8829   23.2907 C   0  0  0  0  0  0
  -18.9444  -30.1440   23.8911 C   0  0  0  0  0  0
  -17.6444  -30.6579   24.0566 C   0  0  0  0  0  0
  -25.9040  -34.9495   23.5142 C   0  0  0  0  0  0
  -16.5335  -29.9077   23.6322 C   0  0  0  0  0  0
  -16.7255  -28.6492   23.0337 C   0  0  0  0  0  0
  -26.4448  -31.6612   25.0737 C   0  0  0  0  0  0
  -25.3717  -31.3690   26.1488 C   0  0  0  0  0  0
  -27.0296  -30.3075   24.6085 C   0  0  0  0  0  0
  -27.6035  -32.4338   25.7466 C   0  0  0  0  0  0
  -27.5587  -37.1824   24.8461 C   0  0  0  0  0  0
  -21.4135  -29.3032   22.3755 N   0  0  0  0  0  0
  -26.4308  -37.3806   23.9402 N   0  0  0  0  0  0
  -24.6644  -31.0814   22.1001 N   0  0  0  0  0  0
  -23.4170  -28.8197   23.3075 O   0  0  0  0  0  0
  -28.4288  -26.7652   20.0641 O   0  0  0  0  0  0
  -26.5611  -34.8927   22.4709 O   0  0  0  0  0  0
  -23.5342  -32.1441   23.7533 O   0  0  0  0  0  0
  -31.2586  -18.7868   23.4725 C   0  0  0  0  0  0
  -30.1378  -18.0380   23.8764 C   0  0  0  0  0  0
  -31.8592  -17.0115   21.9020 C   0  0  0  0  0  0
  -32.1176  -18.2739   22.4785 C   0  0  0  0  0  0
  -30.7312  -16.2610   22.3094 C   0  0  0  0  0  0
  -29.8799  -16.7797   23.3036 C   0  0  0  0  0  0
  -33.1120  -19.9946   21.1517 C   0  0  0  0  0  0
  -28.4539  -24.5745   18.9314 C   0  0  0  0  0  0
  -34.4955  -18.8567   22.8004 C   0  0  0  0  0  0
  -33.7435  -19.7869   19.7703 C   0  0  0  0  0  0
  -28.3849  -25.3473   20.2601 C   0  0  0  0  0  0
  -32.7271  -20.0317   18.6307 C   0  0  0  0  0  0
  -31.6329  -18.9477   18.5195 C   0  0  0  0  0  0
  -30.3038  -19.4782   17.9537 C   0  0  0  0  0  0
  -29.4405  -20.2026   19.0062 C   0  0  0  0  0  0
  -28.1852  -20.8664   18.4089 C   0  0  0  0  0  0
  -28.4153  -22.3056   17.9107 C   0  0  0  0  0  0
  -30.3717  -14.9883   21.8028 N   0  0  0  0  0  0
  -28.4800  -23.2394   19.0306 N   0  0  0  0  0  0
  -33.2508  -19.0041   22.0511 N   0  0  0  0  0  0
  -32.5005  -21.0380   21.4009 O   0  0  0  0  0  0
  -28.4599  -25.1620   17.8445 O   0  0  0  0  0  0
  -28.8033  -16.0609   23.7038 F   0  0  0  0  0  0
  -31.4543  -12.3921   19.0546 H   0  0  0  0  0  0
  -30.3135  -11.2604   19.7126 H   0  0  0  0  0  0
  -29.6917  -11.8410   17.3692 H   0  0  0  0  0  0
  -29.6552  -13.5423   17.7703 H   0  0  0  0  0  0
  -27.3470  -12.7389   17.7876 H   0  0  0  0  0  0
  -27.7806  -11.3521   18.7466 H   0  0  0  0  0  0
  -27.7386  -14.2668   19.6409 H   0  0  0  0  0  0
  -28.6730  -11.8492   21.2574 H   0  0  0  0  0  0
  -28.4586  -13.4415   21.8986 H   0  0  0  0  0  0
  -25.2753   -9.5703   22.4761 H   0  0  0  0  0  0
  -24.0018   -7.4633   22.7447 H   0  0  0  0  0  0
  -21.0854   -8.8786   19.8944 H   0  0  0  0  0  0
  -22.3670  -10.9699   19.6163 H   0  0  0  0  0  0
  -21.1956   -7.6127   23.9706 H   0  0  0  0  0  0
  -21.1491   -6.0503   25.9073 H   0  0  0  0  0  0
  -22.0589   -2.7615   23.2854 H   0  0  0  0  0  0
  -22.4161  -11.9896   22.4776 H   0  0  0  0  0  0
  -21.1101  -13.1208   22.2662 H   0  0  0  0  0  0
  -24.6689  -15.8479   20.5273 H   0  0  0  0  0  0
  -26.2944  -15.6323   20.1209 H   0  0  0  0  0  0
  -26.7096  -32.5539   23.1186 H   0  0  0  0  0  0
  -25.0016  -33.9807   25.0464 H   0  0  0  0  0  0
  -22.6887  -31.3081   21.4159 H   0  0  0  0  0  0
  -23.3761  -35.9670   23.3317 H   0  0  0  0  0  0
  -24.3588  -36.8940   22.2059 H   0  0  0  0  0  0
  -23.7235  -37.6539   23.6645 H   0  0  0  0  0  0
  -26.0434  -31.6055   20.5948 H   0  0  0  0  0  0
  -26.8140  -30.8880   21.9809 H   0  0  0  0  0  0
  -28.1022  -29.1355   21.1221 H   0  0  0  0  0  0
  -26.0439  -25.9755   19.0212 H   0  0  0  0  0  0
  -23.9676  -27.2852   19.0589 H   0  0  0  0  0  0
  -23.7139  -30.5975   19.4085 H   0  0  0  0  0  0
  -22.7285  -29.2437   19.8745 H   0  0  0  0  0  0
  -25.1287  -36.2026   25.0845 H   0  0  0  0  0  0
  -20.9941  -28.3209   24.1463 H   0  0  0  0  0  0
  -20.5684  -26.2255   23.3602 H   0  0  0  0  0  0
  -21.6636  -26.7452   22.1207 H   0  0  0  0  0  0
  -19.6914  -25.6294   21.1236 H   0  0  0  0  0  0
  -19.6696  -27.3206   20.6747 H   0  0  0  0  0  0
  -17.4198  -26.6670   21.4022 H   0  0  0  0  0  0
  -18.0325  -26.0041   22.9013 H   0  0  0  0  0  0
  -19.7917  -30.7258   24.2281 H   0  0  0  0  0  0
  -17.4995  -31.6255   24.5172 H   0  0  0  0  0  0
  -15.5336  -30.2983   23.7636 H   0  0  0  0  0  0
  -15.8655  -28.0822   22.7032 H   0  0  0  0  0  0
  -24.5886  -30.7048   25.7798 H   0  0  0  0  0  0
  -24.8918  -32.2841   26.4974 H   0  0  0  0  0  0
  -25.8086  -30.8809   27.0212 H   0  0  0  0  0  0
  -26.2825  -29.6799   24.1216 H   0  0  0  0  0  0
  -27.4171  -29.7339   25.4510 H   0  0  0  0  0  0
  -27.8600  -30.4431   23.9158 H   0  0  0  0  0  0
  -27.2657  -33.3621   26.2083 H   0  0  0  0  0  0
  -28.3782  -32.6934   25.0238 H   0  0  0  0  0  0
  -28.0766  -31.8447   26.5329 H   0  0  0  0  0  0
  -28.2616  -38.0111   24.7503 H   0  0  0  0  0  0
  -28.1075  -36.2643   24.6301 H   0  0  0  0  0  0
  -27.2305  -37.1487   25.8865 H   0  0  0  0  0  0
  -20.9305  -29.8740   21.6962 H   0  0  0  0  0  0
  -26.0217  -38.2905   24.1359 H   0  0  0  0  0  0
  -31.4511  -19.7537   23.9169 H   0  0  0  0  0  0
  -29.4688  -18.4255   24.6270 H   0  0  0  0  0  0
  -32.5404  -16.6510   21.1452 H   0  0  0  0  0  0
  -34.4000  -19.3205   23.7830 H   0  0  0  0  0  0
  -35.3457  -19.3171   22.2955 H   0  0  0  0  0  0
  -34.7263  -17.8023   22.9513 H   0  0  0  0  0  0
  -34.1675  -18.7831   19.6952 H   0  0  0  0  0  0
  -34.5783  -20.4814   19.6731 H   0  0  0  0  0  0
  -29.2524  -25.0637   20.8587 H   0  0  0  0  0  0
  -27.5048  -25.0449   20.8320 H   0  0  0  0  0  0
  -33.2564  -20.0943   17.6798 H   0  0  0  0  0  0
  -32.2733  -21.0159   18.7618 H   0  0  0  0  0  0
  -31.4375  -18.4780   19.4835 H   0  0  0  0  0  0
  -32.0060  -18.1416   17.8842 H   0  0  0  0  0  0
  -29.7310  -18.6335   17.5658 H   0  0  0  0  0  0
  -30.5036  -20.1260   17.0996 H   0  0  0  0  0  0
  -30.0284  -20.9391   19.5535 H   0  0  0  0  0  0
  -29.1274  -19.4695   19.7512 H   0  0  0  0  0  0
  -27.3889  -20.8803   19.1555 H   0  0  0  0  0  0
  -27.8016  -20.2519   17.5940 H   0  0  0  0  0  0
  -27.5853  -22.5899   17.2612 H   0  0  0  0  0  0
  -29.3258  -22.3681   17.3129 H   0  0  0  0  0  0
  -29.5951  -14.5594   22.2842 H   0  0  0  0  0  0
  -28.4892  -22.8420   19.9614 H   0  0  0  0  0  0
  1 25  1  0  0  0
  1 30  2  0  0  0
  1 88  1  0  0  0
  2  3  1  0  0  0
  2 25  1  0  0  0
  2 94  1  0  0  0
  2 95  1  0  0  0
  3  4  1  0  0  0
  3 96  1  0  0  0
  3 97  1  0  0  0
  4  5  1  0  0  0
  4 98  1  0  0  0
  4 99  1  0  0  0
  5  6  1  0  0  0
  5 26  1  0  0  0
  5100  1  0  0  0
  6 25  1  0  0  0
  6101  1  0  0  0
  6102  1  0  0  0
  7  8  2  0  0  0
  7 26  1  0  0  0
  7 29  1  0  0  0
  8  9  1  0  0  0
  8 22  1  0  0  0
  9 10  1  0  0  0
  9 27  2  0  0  0
 10 11  2  0  0  0
 10 15  1  0  0  0
 11 12  1  0  0  0
 11103  1  0  0  0
 12 13  2  0  0  0
 12104  1  0  0  0
 13 14  1  0  0  0
 13 31  1  0  0  0
 14 15  2  0  0  0
 14105  1  0  0  0
 15106  1  0  0  0
 16 17  2  0  0  0
 16 21  1  0  0  0
 16 31  1  0  0  0
 17 18  1  0  0  0
 17107  1  0  0  0
 18 19  2  0  0  0
 18108  1  0  0  0
 19 20  1  0  0  0
 19 24  1  0  0  0
 20 21  2  0  0  0
 20109  1  0  0  0
 21 23  1  0  0  0
 22 28  1  0  0  0
 22 32  2  0  0  0
 26 27  1  0  0  0
 28110  1  0  0  0
 28111  1  0  0  0
 29112  1  0  0  0
 29113  1  0  0  0
 33 34  1  0  0  0
 33 66  1  0  0  0
 33 70  2  0  0  0
 34 36  1  0  0  0
 34 59  1  0  0  0
 34114  1  0  0  0
 35 44  2  0  0  0
 35 45  1  0  0  0
 35 68  1  0  0  0
 36 56  1  0  0  0
 36115  1  0  0  0
 37 39  1  0  0  0
 37 47  1  0  0  0
 37 66  1  0  0  0
 37116  1  0  0  0
 38 43  2  0  0  0
 38 46  1  0  0  0
 38 47  1  0  0  0
 39 64  1  0  0  0
 39 67  2  0  0  0
 40 52  1  0  0  0
 40 53  2  0  0  0
 40 58  1  0  0  0
 41117  1  0  0  0
 41118  1  0  0  0
 41119  1  0  0  0
 41 48  1  0  0  0
 42 43  1  0  0  0
 42 66  1  0  0  0
 42120  1  0  0  0
 42121  1  0  0  0
 43 44  1  0  0  0
 44122  1  0  0  0
 45 46  2  0  0  0
 45123  1  0  0  0
 46124  1  0  0  0
 47125  1  0  0  0
 47126  1  0  0  0
 48 56  1  0  0  0
 48 65  1  0  0  0
 48127  1  0  0  0
 49 50  1  0  0  0
 49 53  1  0  0  0
 49 64  1  0  0  0
 49128  1  0  0  0
 50 51  1  0  0  0
 50129  1  0  0  0
 50130  1  0  0  0
 51 52  1  0  0  0
 51131  1  0  0  0
 51132  1  0  0  0
 52133  1  0  0  0
 52134  1  0  0  0
 53 54  1  0  0  0
 54 55  2  0  0  0
 54135  1  0  0  0
 55 57  1  0  0  0
 55136  1  0  0  0
 56 69  2  0  0  0
 57 58  2  0  0  0
 57137  1  0  0  0
 58138  1  0  0  0
 59 60  1  0  0  0
 59 61  1  0  0  0
 59 62  1  0  0  0
 60139  1  0  0  0
 60140  1  0  0  0
 60141  1  0  0  0
 61142  1  0  0  0
 61143  1  0  0  0
 61144  1  0  0  0
 62145  1  0  0  0
 62146  1  0  0  0
 62147  1  0  0  0
 63 65  1  0  0  0
 63148  1  0  0  0
 63149  1  0  0  0
 63150  1  0  0  0
 64151  1  0  0  0
 65152  1  0  0  0
 68 81  1  0  0  0
 71 72  2  0  0  0
 71 74  1  0  0  0
 71153  1  0  0  0
 72 76  1  0  0  0
 72154  1  0  0  0
 73 74  2  0  0  0
 73 75  1  0  0  0
 73155  1  0  0  0
 74 90  1  0  0  0
 75 76  2  0  0  0
 75 88  1  0  0  0
 76 93  1  0  0  0
 77 80  1  0  0  0
 77 90  1  0  0  0
 77 91  2  0  0  0
 78 81  1  0  0  0
 78 89  1  0  0  0
 78 92  2  0  0  0
 79 90  1  0  0  0
 79156  1  0  0  0
 79157  1  0  0  0
 79158  1  0  0  0
 80 82  1  0  0  0
 80159  1  0  0  0
 80160  1  0  0  0
 81161  1  0  0  0
 81162  1  0  0  0
 82 83  1  0  0  0
 82163  1  0  0  0
 82164  1  0  0  0
 83 84  1  0  0  0
 83165  1  0  0  0
 83166  1  0  0  0
 84 85  1  0  0  0
 84167  1  0  0  0
 84168  1  0  0  0
 85 86  1  0  0  0
 85169  1  0  0  0
 85170  1  0  0  0
 86 87  1  0  0  0
 86171  1  0  0  0
 86172  1  0  0  0
 87 89  1  0  0  0
 87173  1  0  0  0
 87174  1  0  0  0
 88175  1  0  0  0
 89176  1  0  0  0
M  ISO  4   1 100  68 101  81 101  88 100
M  END
> <chiral flag>
0

> <version>
0

> <s_m_source_file>
/data/baiqing/PycharmProjects/Reinvent-master-3.2/result/LINK_invent/BTK/process_docking_weight1_custom_sum_contain_oxygen_bond_distance_aromatic_linkinvent_7_9_3/rearranged_h_0006.sdf

> <i_m_source_file_index>
6

> <r_mmod_Potential_Energy-OPLS-2005>
6.99692010879517

> <r_mmod_Stretch_Energy-OPLS-2005>
33.6059875488281

> <r_mmod_Bend_Energy-OPLS-2005>
104.098106384277

> <r_mmod_Torsional_Energy-OPLS-2005>
355.71484375

> <r_mmod_Improper_Torsional_Energy-OPLS-2005>
2.85655927658081

> <r_mmod_Van_der_Waal_Energy-OPLS-2005>
147.011657714844

> <r_mmod_Electrostatic_Energy-OPLS-2005>
-408.089233398438

> <r_mmod_Solvation_Energy-OPLS-2005>
-236.304153442383

> <b_mmod_Minimization_Converged-OPLS-2005>
0

> <r_mmod_RMS_Derivative-OPLS-2005>
3.08301997184753

$$$$
6
                    3D
 Structure written by MMmdl.
148156  0  0  1  0            999 V2000
  -30.5198  -14.9130   20.4426 C   0  0  0  0  0  0
  -30.4535  -12.5625   19.4958 C   0  0  0  0  0  0
  -29.5266  -12.5355   18.2561 C   0  0  0  0  0  0
  -28.0564  -12.3264   18.6694 C   0  0  0  0  0  0
  -27.6397  -13.2402   19.8513 C   0  0  2  0  0  0
  -28.6840  -13.2165   20.9896 C   0  0  0  0  0  0
  -25.2460  -13.8164   20.5627 C   0  0  0  0  0  0
  -24.1781  -13.0409   20.9190 C   0  0  0  0  0  0
  -24.6404  -11.6900   20.8750 C   0  0  0  0  0  0
  -23.9081  -10.4279   21.0409 C   0  0  0  0  0  0
  -24.3626   -9.4195   21.9188 C   0  0  0  0  0  0
  -23.6294   -8.2235   22.0756 C   0  0  0  0  0  0
  -22.4276   -8.0277   21.3545 C   0  0  0  0  0  0
  -21.9917   -9.0252   20.4648 C   0  0  0  0  0  0
  -22.7252  -10.2126   20.3058 C   0  0  0  0  0  0
  -21.6852   -6.0733   22.5279 C   0  0  0  0  0  0
  -21.4014   -6.5637   23.8212 C   0  0  0  0  0  0
  -21.3660   -5.6790   24.9175 C   0  0  0  0  0  0
  -21.6044   -4.3053   24.7225 C   0  0  0  0  0  0
  -21.8819   -3.8145   23.4346 C   0  0  0  0  0  0
  -21.9193   -4.6961   22.3402 C   0  0  0  0  0  0
  -22.7804  -13.5193   21.1860 C   0  0  0  0  0  0
  -22.1662   -4.2147   21.0980 F   0  0  0  0  0  0
  -21.5630   -3.4537   25.7739 F   0  0  0  0  0  0
  -29.9707  -13.6337   20.4103 N   0  0  0  0  0  0
  -26.2931  -12.9409   20.3283 N   0  0  0  0  0  0
  -25.9348  -11.6544   20.5773 N   0  0  0  0  0  0
  -22.0464  -12.8188   22.0432 N   0  0  0  0  0  0
  -25.4045  -15.1866   20.3921 N   0  0  0  0  0  0
  -31.6979  -15.0518   20.0947 O   0  0  0  0  0  0
  -21.6638   -6.8876   21.4241 O   0  0  0  0  0  0
  -22.3476  -14.5498   20.6713 O   0  0  0  0  0  0
  -24.6427  -31.8454   23.1896 C   0  0  0  0  0  0
  -25.9203  -32.4703   23.8280 C   0  0  1  0  0  0
  -27.2216  -27.1497   20.1455 C   0  0  0  0  0  0
  -25.5955  -33.8508   24.2200 N   0  0  0  0  0  0
  -23.4456  -30.4657   21.5351 C   0  0  2  0  0  0
  -24.8955  -28.8959   20.1112 C   0  0  0  0  0  0
  -22.7564  -29.4554   22.4864 C   0  0  0  0  0  0
  -18.0306  -28.1394   22.8478 C   0  0  0  0  0  0
  -24.1492  -36.7257   23.2642 C   0  0  0  0  0  0
  -26.0015  -30.7238   21.3864 C   0  0  0  0  0  0
  -26.0736  -29.3367   20.7269 C   0  0  0  0  0  0
  -27.2379  -28.4808   20.7255 C   0  0  0  0  0  0
  -26.0133  -26.8082   19.4956 C   0  0  0  0  0  0
  -24.8777  -27.6444   19.4805 C   0  0  0  0  0  0
  -23.6715  -29.7963   20.1542 C   0  0  0  0  0  0
  -25.4125  -36.3038   24.0317 C   0  0  1  0  0  0
  -20.5918  -28.3719   23.1237 C   0  0  2  0  0  0
  -20.6790  -26.9423   22.5403 C   0  0  0  0  0  0
  -19.5763  -26.6382   21.5210 C   0  0  0  0  0  0
  -18.1946  -26.7933   22.1624 C   0  0  0  0  0  0
  -19.1562  -28.8875   23.2850 C   0  0  0  0  0  0
  -18.9478  -30.1471   23.8875 C   0  0  0  0  0  0
  -17.6474  -30.6591   24.0558 C   0  0  0  0  0  0
  -25.9073  -34.9412   23.5065 C   0  0  0  0  0  0
  -16.5366  -29.9083   23.6336 C   0  0  0  0  0  0
  -16.7291  -28.6501   23.0357 C   0  0  0  0  0  0
  -26.4526  -31.6567   25.0717 C   0  0  0  0  0  0
  -25.3712  -31.3753   26.1413 C   0  0  0  0  0  0
  -27.0390  -30.2966   24.6289 C   0  0  0  0  0  0
  -27.6060  -32.4328   25.7501 C   0  0  0  0  0  0
  -27.5577  -37.1788   24.8468 C   0  0  0  0  0  0
  -21.4257  -29.3048   22.3611 N   0  0  0  0  0  0
  -26.4291  -37.3749   23.9406 N   0  0  0  0  0  0
  -24.7164  -31.0323   22.0923 N   0  0  0  0  0  0
  -23.4212  -28.8099   23.3008 O   0  0  0  0  0  0
  -28.2816  -26.1730   20.2069 O   0  0  0  0  0  0
  -26.5654  -34.8906   22.4642 O   0  0  0  0  0  0
  -23.5549  -32.1324   23.7124 O   0  0  0  0  0  0
  -30.3954  -18.5070   19.9925 C   0  0  0  0  0  0
  -30.0945  -19.9457   19.9412 C   0  0  0  0  0  0
  -28.1434  -19.5618   21.1971 C   0  0  0  0  0  0
  -29.5690  -17.5229   20.6535 C   0  0  0  0  0  0
  -28.9260  -20.5543   20.5310 C   0  0  0  0  0  0
  -28.4414  -18.1528   21.2719 C   0  0  0  0  0  0
  -27.9817  -24.6493   20.1112 C   0  0  0  0  0  0
  -28.9924  -23.3090   20.2766 C   0  0  0  0  0  0
  -29.6641  -15.9949   20.7419 N   0  0  0  0  0  0
  -28.3892  -21.9180   20.4960 O   0  0  0  0  0  0
  -27.3490  -17.1642   22.1748 Cl  0  0  0  0  0  0
  -31.4861  -12.7312   19.1858 H   0  0  0  0  0  0
  -30.4493  -11.5965   20.0030 H   0  0  0  0  0  0
  -29.8377  -11.7485   17.5678 H   0  0  0  0  0  0
  -29.6213  -13.4749   17.7092 H   0  0  0  0  0  0
  -27.9413  -11.2805   18.9566 H   0  0  0  0  0  0
  -27.3953  -12.4822   17.8161 H   0  0  0  0  0  0
  -27.6174  -14.2534   19.4492 H   0  0  0  0  0  0
  -28.7595  -12.2204   21.4282 H   0  0  0  0  0  0
  -28.3854  -13.8819   21.8012 H   0  0  0  0  0  0
  -25.2769   -9.5670   22.4766 H   0  0  0  0  0  0
  -24.0000   -7.4625   22.7476 H   0  0  0  0  0  0
  -21.0849   -8.8774   19.8953 H   0  0  0  0  0  0
  -22.3713  -10.9667   19.6167 H   0  0  0  0  0  0
  -21.2005   -7.6144   23.9715 H   0  0  0  0  0  0
  -21.1483   -6.0520   25.9078 H   0  0  0  0  0  0
  -22.0598   -2.7607   23.2847 H   0  0  0  0  0  0
  -22.4091  -11.9855   22.4821 H   0  0  0  0  0  0
  -21.1085  -13.1211   22.2652 H   0  0  0  0  0  0
  -24.6401  -15.8364   20.5356 H   0  0  0  0  0  0
  -26.2628  -15.6440   20.1171 H   0  0  0  0  0  0
  -26.7267  -32.5314   23.1008 H   0  0  0  0  0  0
  -25.0087  -33.9624   25.0337 H   0  0  0  0  0  0
  -22.7475  -31.2914   21.3818 H   0  0  0  0  0  0
  -23.3758  -35.9585   23.3299 H   0  0  0  0  0  0
  -24.3576  -36.8893   22.2058 H   0  0  0  0  0  0
  -23.7243  -37.6451   23.6679 H   0  0  0  0  0  0
  -26.1564  -31.4799   20.6156 H   0  0  0  0  0  0
  -26.8719  -30.7730   22.0289 H   0  0  0  0  0  0
  -28.1360  -28.8156   21.2254 H   0  0  0  0  0  0
  -25.9044  -25.8554   19.0027 H   0  0  0  0  0  0
  -23.9784  -27.3015   18.9875 H   0  0  0  0  0  0
  -23.8070  -30.5711   19.3987 H   0  0  0  0  0  0
  -22.7866  -29.2377   19.8439 H   0  0  0  0  0  0
  -25.1313  -36.1869   25.0809 H   0  0  0  0  0  0
  -21.0012  -28.3307   24.1357 H   0  0  0  0  0  0
  -20.5683  -26.2330   23.3621 H   0  0  0  0  0  0
  -21.6656  -26.7428   22.1201 H   0  0  0  0  0  0
  -19.6922  -25.6286   21.1255 H   0  0  0  0  0  0
  -19.6700  -27.3178   20.6728 H   0  0  0  0  0  0
  -17.4213  -26.6675   21.4030 H   0  0  0  0  0  0
  -18.0348  -26.0081   22.9028 H   0  0  0  0  0  0
  -19.7952  -30.7293   24.2236 H   0  0  0  0  0  0
  -17.5027  -31.6269   24.5162 H   0  0  0  0  0  0
  -15.5365  -30.2977   23.7671 H   0  0  0  0  0  0
  -15.8692  -28.0811   22.7086 H   0  0  0  0  0  0
  -24.5897  -30.7093   25.7733 H   0  0  0  0  0  0
  -24.8891  -32.2933   26.4783 H   0  0  0  0  0  0
  -25.7998  -30.8963   27.0225 H   0  0  0  0  0  0
  -26.3006  -29.6689   24.1288 H   0  0  0  0  0  0
  -27.4001  -29.7266   25.4859 H   0  0  0  0  0  0
  -27.8915  -30.4207   23.9606 H   0  0  0  0  0  0
  -27.2659  -33.3649   26.2024 H   0  0  0  0  0  0
  -28.3900  -32.6855   25.0349 H   0  0  0  0  0  0
  -28.0692  -31.8485   26.5462 H   0  0  0  0  0  0
  -28.2594  -38.0084   24.7507 H   0  0  0  0  0  0
  -28.1073  -36.2613   24.6306 H   0  0  0  0  0  0
  -27.2290  -37.1450   25.8870 H   0  0  0  0  0  0
  -20.9464  -29.8764   21.6794 H   0  0  0  0  0  0
  -26.0159  -38.2819   24.1404 H   0  0  0  0  0  0
  -31.2826  -18.1604   19.4821 H   0  0  0  0  0  0
  -30.7738  -20.5829   19.3927 H   0  0  0  0  0  0
  -27.2389  -19.8953   21.6839 H   0  0  0  0  0  0
  -27.1817  -24.4900   20.8348 H   0  0  0  0  0  0
  -27.5178  -24.4966   19.1381 H   0  0  0  0  0  0
  -29.6427  -23.4907   21.1322 H   0  0  0  0  0  0
  -29.6548  -23.2589   19.4123 H   0  0  0  0  0  0
  -28.7998  -15.6220   21.1065 H   0  0  0  0  0  0
  1 25  1  0  0  0
  1 30  2  0  0  0
  1 79  1  0  0  0
  2  3  1  0  0  0
  2 25  1  0  0  0
  2 82  1  0  0  0
  2 83  1  0  0  0
  3  4  1  0  0  0
  3 84  1  0  0  0
  3 85  1  0  0  0
  4  5  1  0  0  0
  4 86  1  0  0  0
  4 87  1  0  0  0
  5  6  1  0  0  0
  5 26  1  0  0  0
  5 88  1  0  0  0
  6 25  1  0  0  0
  6 89  1  0  0  0
  6 90  1  0  0  0
  7  8  2  0  0  0
  7 26  1  0  0  0
  7 29  1  0  0  0
  8  9  1  0  0  0
  8 22  1  0  0  0
  9 10  1  0  0  0
  9 27  2  0  0  0
 10 11  2  0  0  0
 10 15  1  0  0  0
 11 12  1  0  0  0
 11 91  1  0  0  0
 12 13  2  0  0  0
 12 92  1  0  0  0
 13 14  1  0  0  0
 13 31  1  0  0  0
 14 15  2  0  0  0
 14 93  1  0  0  0
 15 94  1  0  0  0
 16 17  2  0  0  0
 16 21  1  0  0  0
 16 31  1  0  0  0
 17 18  1  0  0  0
 17 95  1  0  0  0
 18 19  2  0  0  0
 18 96  1  0  0  0
 19 20  1  0  0  0
 19 24  1  0  0  0
 20 21  2  0  0  0
 20 97  1  0  0  0
 21 23  1  0  0  0
 22 28  1  0  0  0
 22 32  2  0  0  0
 26 27  1  0  0  0
 28 98  1  0  0  0
 28 99  1  0  0  0
 29100  1  0  0  0
 29101  1  0  0  0
 33 34  1  0  0  0
 33 66  1  0  0  0
 33 70  2  0  0  0
 34 36  1  0  0  0
 34 59  1  0  0  0
 34102  1  0  0  0
 35 44  2  0  0  0
 35 45  1  0  0  0
 35 68  1  0  0  0
 36 56  1  0  0  0
 36103  1  0  0  0
 37 39  1  0  0  0
 37 47  1  0  0  0
 37 66  1  0  0  0
 37104  1  0  0  0
 38 43  2  0  0  0
 38 46  1  0  0  0
 38 47  1  0  0  0
 39 64  1  0  0  0
 39 67  2  0  0  0
 40 52  1  0  0  0
 40 53  2  0  0  0
 40 58  1  0  0  0
 41105  1  0  0  0
 41106  1  0  0  0
 41107  1  0  0  0
 41 48  1  0  0  0
 42 43  1  0  0  0
 42 66  1  0  0  0
 42108  1  0  0  0
 42109  1  0  0  0
 43 44  1  0  0  0
 44110  1  0  0  0
 45 46  2  0  0  0
 45111  1  0  0  0
 46112  1  0  0  0
 47113  1  0  0  0
 47114  1  0  0  0
 48 56  1  0  0  0
 48 65  1  0  0  0
 48115  1  0  0  0
 49 50  1  0  0  0
 49 53  1  0  0  0
 49 64  1  0  0  0
 49116  1  0  0  0
 50 51  1  0  0  0
 50117  1  0  0  0
 50118  1  0  0  0
 51 52  1  0  0  0
 51119  1  0  0  0
 51120  1  0  0  0
 52121  1  0  0  0
 52122  1  0  0  0
 53 54  1  0  0  0
 54 55  2  0  0  0
 54123  1  0  0  0
 55 57  1  0  0  0
 55124  1  0  0  0
 56 69  2  0  0  0
 57 58  2  0  0  0
 57125  1  0  0  0
 58126  1  0  0  0
 59 60  1  0  0  0
 59 61  1  0  0  0
 59 62  1  0  0  0
 60127  1  0  0  0
 60128  1  0  0  0
 60129  1  0  0  0
 61130  1  0  0  0
 61131  1  0  0  0
 61132  1  0  0  0
 62133  1  0  0  0
 62134  1  0  0  0
 62135  1  0  0  0
 63 65  1  0  0  0
 63136  1  0  0  0
 63137  1  0  0  0
 63138  1  0  0  0
 64139  1  0  0  0
 65140  1  0  0  0
 68 77  1  0  0  0
 71 72  2  0  0  0
 71 74  1  0  0  0
 71141  1  0  0  0
 72 75  1  0  0  0
 72142  1  0  0  0
 73 75  2  0  0  0
 73 76  1  0  0  0
 73143  1  0  0  0
 74 76  2  0  0  0
 74 79  1  0  0  0
 75 80  1  0  0  0
 76 81  1  0  0  0
 77 78  1  0  0  0
 77144  1  0  0  0
 77145  1  0  0  0
 78 80  1  0  0  0
 78146  1  0  0  0
 78147  1  0  0  0
 79148  1  0  0  0
M  ISO  4   1 100  68 101  77 101  79 100
M  END
> <chiral flag>
0

> <version>
0

> <s_m_source_file>
/data/baiqing/PycharmProjects/Reinvent-master-3.2/result/LINK_invent/BTK/process_docking_weight1_custom_sum_contain_oxygen_bond_distance_aromatic_linkinvent_7_9_3/rearranged_h_0006.sdf

> <i_m_source_file_index>
7

> <r_mmod_Potential_Energy-OPLS-2005>
437.35791015625

> <r_mmod_Stretch_Energy-OPLS-2005>
218.261764526367

> <r_mmod_Bend_Energy-OPLS-2005>
303.47607421875

> <r_mmod_Torsional_Energy-OPLS-2005>
215.965377807617

> <r_mmod_Improper_Torsional_Energy-OPLS-2005>
3.28607058525085

> <r_mmod_Van_der_Waal_Energy-OPLS-2005>
130.855285644531

> <r_mmod_Electrostatic_Energy-OPLS-2005>
-400.914459228516

> <r_mmod_Solvation_Energy-OPLS-2005>
-207.170379638672

> <b_mmod_Minimization_Converged-OPLS-2005>
0

> <r_mmod_RMS_Derivative-OPLS-2005>
0.251440107822418

$$$$
7
                    3D
 Structure written by MMmdl.
178186  0  0  1  0            999 V2000
  -30.7334  -14.3883   20.6175 C   0  0  0  0  0  0
  -30.4105  -12.2650   19.4128 C   0  0  0  0  0  0
  -29.4878  -12.5084   18.2045 C   0  0  0  0  0  0
  -28.0121  -12.3515   18.6279 C   0  0  0  0  0  0
  -27.6575  -13.1937   19.8823 C   0  0  2  0  0  0
  -28.6910  -12.9466   20.9996 C   0  0  0  0  0  0
  -25.2595  -13.8036   20.5474 C   0  0  0  0  0  0
  -24.1780  -13.0141   20.9208 C   0  0  0  0  0  0
  -24.6405  -11.6799   20.8760 C   0  0  0  0  0  0
  -23.9062  -10.4148   21.0474 C   0  0  0  0  0  0
  -24.3609   -9.4090   21.9217 C   0  0  0  0  0  0
  -23.6250   -8.2131   22.0762 C   0  0  0  0  0  0
  -22.4248   -8.0211   21.3547 C   0  0  0  0  0  0
  -21.9911   -9.0202   20.4666 C   0  0  0  0  0  0
  -22.7290  -10.2059   20.3090 C   0  0  0  0  0  0
  -21.6807   -6.0705   22.5287 C   0  0  0  0  0  0
  -21.4027   -6.5652   23.8205 C   0  0  0  0  0  0
  -21.3691   -5.6812   24.9176 C   0  0  0  0  0  0
  -21.5994   -4.3071   24.7219 C   0  0  0  0  0  0
  -21.8838   -3.8147   23.4368 C   0  0  0  0  0  0
  -21.9189   -4.6957   22.3399 C   0  0  0  0  0  0
  -22.7928  -13.5135   21.1809 C   0  0  0  0  0  0
  -22.1640   -4.2126   21.0989 F   0  0  0  0  0  0
  -21.5647   -3.4564   25.7758 F   0  0  0  0  0  0
  -30.0344  -13.2354   20.4509 N   0  0  0  0  0  0
  -26.3016  -12.9106   20.3372 N   0  0  0  0  0  0
  -25.9378  -11.6278   20.5856 N   0  0  0  0  0  0
  -22.0444  -12.8047   22.0493 N   0  0  0  0  0  0
  -25.3792  -15.1508   20.3774 N   0  0  0  0  0  0
  -31.7948  -14.6477   20.0359 O   0  0  0  0  0  0
  -21.6601   -6.8818   21.4228 O   0  0  0  0  0  0
  -22.3547  -14.5335   20.6749 O   0  0  0  0  0  0
  -24.6145  -31.8812   23.2007 C   0  0  0  0  0  0
  -25.8991  -32.4910   23.8308 C   0  0  1  0  0  0
  -27.2700  -27.4908   20.1293 C   0  0  0  0  0  0
  -25.5845  -33.8674   24.2205 N   0  0  0  0  0  0
  -23.3988  -30.4919   21.5417 C   0  0  2  0  0  0
  -24.8581  -28.9527   20.1215 C   0  0  0  0  0  0
  -22.7293  -29.4784   22.4996 C   0  0  0  0  0  0
  -18.0162  -28.1465   22.8625 C   0  0  0  0  0  0
  -24.1424  -36.7435   23.2529 C   0  0  0  0  0  0
  -25.9095  -30.8753   21.3338 C   0  0  0  0  0  0
  -26.0013  -29.4942   20.7171 C   0  0  0  0  0  0
  -27.1953  -28.7623   20.7271 C   0  0  0  0  0  0
  -26.1232  -26.9707   19.5016 C   0  0  0  0  0  0
  -24.9094  -27.6895   19.4998 C   0  0  0  0  0  0
  -23.6088  -29.8076   20.1598 C   0  0  0  0  0  0
  -25.4067  -36.3187   24.0292 C   0  0  1  0  0  0
  -20.5776  -28.3660   23.1363 C   0  0  2  0  0  0
  -20.6618  -26.9426   22.5381 C   0  0  0  0  0  0
  -19.5536  -26.6310   21.5367 C   0  0  0  0  0  0
  -18.1697  -26.7920   22.1818 C   0  0  0  0  0  0
  -19.1499  -28.8914   23.2856 C   0  0  0  0  0  0
  -18.9430  -30.1583   23.8818 C   0  0  0  0  0  0
  -17.6387  -30.6784   24.0714 C   0  0  0  0  0  0
  -25.8993  -34.9542   23.4942 C   0  0  0  0  0  0
  -16.5299  -29.9275   23.6333 C   0  0  0  0  0  0
  -16.7187  -28.6628   23.0459 C   0  0  0  0  0  0
  -26.4526  -31.6480   25.0461 C   0  0  0  0  0  0
  -25.3748  -31.3500   26.1155 C   0  0  0  0  0  0
  -27.0408  -30.2856   24.5779 C   0  0  0  0  0  0
  -27.5987  -32.4132   25.7479 C   0  0  0  0  0  0
  -27.5671  -37.1836   24.8466 C   0  0  0  0  0  0
  -21.3989  -29.3111   22.3569 N   0  0  0  0  0  0
  -26.4283  -37.3819   23.9426 N   0  0  0  0  0  0
  -24.6592  -31.0916   22.0890 N   0  0  0  0  0  0
  -23.4209  -28.8299   23.2947 O   0  0  0  0  0  0
  -28.4352  -26.7505   20.1707 O   0  0  0  0  0  0
  -26.5913  -34.8915   22.4720 O   0  0  0  0  0  0
  -23.5282  -32.1417   23.7370 O   0  0  0  0  0  0
  -22.9286  -23.4810   21.9021 C   0  0  0  0  0  0
  -25.1843  -24.0546   22.6642 C   0  0  0  0  0  0
  -25.7861  -21.3929   23.2896 C   0  0  0  0  0  0
  -24.2070  -23.0695   22.4348 C   0  0  0  0  0  0
  -26.4660  -23.7345   23.1586 C   0  0  0  0  0  0
  -24.5420  -21.7172   22.7051 C   0  0  0  0  0  0
  -26.7595  -22.3949   23.4877 C   0  0  0  0  0  0
  -27.8338  -25.2512   24.4677 C   0  0  0  0  0  0
  -26.7322  -17.5829   22.1552 C   0  0  0  0  0  0
  -28.9083  -26.3094   24.5613 C   0  0  0  0  0  0
  -28.0886  -17.2604   22.8124 C   0  0  0  0  0  0
  -29.3427  -17.5954   21.9671 C   0  0  0  0  0  0
  -23.6860  -18.4382   21.5151 C   0  0  0  0  0  0
  -29.7180  -16.6051   20.8518 C   0  0  0  0  0  0
  -24.2337  -17.7025   22.7723 C   0  0  0  0  0  0
  -27.9784  -25.1932   22.0444 C   0  0  0  0  0  0
  -24.1453  -19.8859   21.3338 C   0  0  0  0  0  0
  -28.8399  -26.3986   21.5163 C   0  0  0  0  0  0
  -21.9088  -23.8088   21.4663 N   0  0  0  0  0  0
  -25.6903  -17.6682   23.0049 N   0  0  0  0  0  0
  -30.1312  -15.3034   21.3858 N   0  0  0  0  0  0
  -27.4621  -24.7771   23.2979 N   0  0  0  0  0  0
  -27.2977  -24.8466   25.4805 O   0  0  0  0  0  0
  -26.6401  -17.7428   20.9354 O   0  0  0  0  0  0
  -23.6685  -20.7128   22.3878 O   0  0  0  0  0  0
  -27.9616  -22.0512   24.0016 F   0  0  0  0  0  0
  -31.4621  -12.3317   19.1218 H   0  0  0  0  0  0
  -30.2731  -11.2477   19.7927 H   0  0  0  0  0  0
  -29.7202  -11.8158   17.3992 H   0  0  0  0  0  0
  -29.6545  -13.5128   17.8074 H   0  0  0  0  0  0
  -27.8454  -11.2934   18.8368 H   0  0  0  0  0  0
  -27.3475  -12.5923   17.7998 H   0  0  0  0  0  0
  -27.7104  -14.2456   19.5958 H   0  0  0  0  0  0
  -28.6628  -11.9068   21.3296 H   0  0  0  0  0  0
  -28.4570  -13.5335   21.8881 H   0  0  0  0  0  0
  -25.2691   -9.5506   22.4844 H   0  0  0  0  0  0
  -23.9954   -7.4454   22.7487 H   0  0  0  0  0  0
  -21.0821   -8.8749   19.8894 H   0  0  0  0  0  0
  -22.3764  -10.9622   19.6240 H   0  0  0  0  0  0
  -21.2069   -7.6151   23.9706 H   0  0  0  0  0  0
  -21.1470   -6.0535   25.9049 H   0  0  0  0  0  0
  -22.0591   -2.7607   23.2870 H   0  0  0  0  0  0
  -22.4156  -11.9882   22.4887 H   0  0  0  0  0  0
  -21.1054  -13.1186   22.2639 H   0  0  0  0  0  0
  -24.5931  -15.7622   20.5733 H   0  0  0  0  0  0
  -26.2256  -15.6725   20.1502 H   0  0  0  0  0  0
  -26.7035  -32.5684   23.1076 H   0  0  0  0  0  0
  -24.9469  -33.9913   25.0065 H   0  0  0  0  0  0
  -22.6887  -31.3075   21.3913 H   0  0  0  0  0  0
  -23.3758  -35.9680   23.3348 H   0  0  0  0  0  0
  -24.3607  -36.9062   22.1890 H   0  0  0  0  0  0
  -23.7355  -37.6676   23.6744 H   0  0  0  0  0  0
  -25.9614  -31.6057   20.5255 H   0  0  0  0  0  0
  -26.8126  -30.9737   21.9091 H   0  0  0  0  0  0
  -28.0612  -29.1838   21.2189 H   0  0  0  0  0  0
  -26.1744  -25.9946   19.0407 H   0  0  0  0  0  0
  -24.0430  -27.2654   19.0149 H   0  0  0  0  0  0
  -23.6763  -30.5795   19.3834 H   0  0  0  0  0  0
  -22.7362  -29.2141   19.8746 H   0  0  0  0  0  0
  -25.1341  -36.2056   25.0881 H   0  0  0  0  0  0
  -20.9865  -28.3323   24.1479 H   0  0  0  0  0  0
  -20.5707  -26.2294   23.3595 H   0  0  0  0  0  0
  -21.6457  -26.7566   22.1010 H   0  0  0  0  0  0
  -19.6538  -25.6101   21.1584 H   0  0  0  0  0  0
  -19.6365  -27.3010   20.6767 H   0  0  0  0  0  0
  -17.3941  -26.6772   21.4352 H   0  0  0  0  0  0
  -18.0047  -26.0189   22.9265 H   0  0  0  0  0  0
  -19.7862  -30.7483   24.2094 H   0  0  0  0  0  0
  -17.5030  -31.6529   24.5016 H   0  0  0  0  0  0
  -15.5308  -30.3210   23.7786 H   0  0  0  0  0  0
  -15.8524  -28.1046   22.7082 H   0  0  0  0  0  0
  -25.7927  -30.8636   26.9910 H   0  0  0  0  0  0
  -24.6028  -30.6714   25.7447 H   0  0  0  0  0  0
  -24.8751  -32.2657   26.4590 H   0  0  0  0  0  0
  -26.2778  -29.6600   24.1096 H   0  0  0  0  0  0
  -27.4241  -29.7154   25.4265 H   0  0  0  0  0  0
  -27.8655  -30.4228   23.8739 H   0  0  0  0  0  0
  -27.2359  -33.3185   26.2497 H   0  0  0  0  0  0
  -28.3669  -32.7247   25.0461 H   0  0  0  0  0  0
  -28.0743  -31.8076   26.5208 H   0  0  0  0  0  0
  -28.2686  -38.0139   24.7488 H   0  0  0  0  0  0
  -28.1079  -36.2606   24.6225 H   0  0  0  0  0  0
  -27.2305  -37.1446   25.8828 H   0  0  0  0  0  0
  -20.9124  -29.8829   21.6868 H   0  0  0  0  0  0
  -26.0247  -38.2965   24.1256 H   0  0  0  0  0  0
  -24.9526  -25.0621   22.3832 H   0  0  0  0  0  0
  -26.0244  -20.3608   23.5019 H   0  0  0  0  0  0
  -28.4522  -27.2748   24.3825 H   0  0  0  0  0  0
  -29.7298  -26.1009   23.8805 H   0  0  0  0  0  0
  -29.3415  -26.2709   25.5572 H   0  0  0  0  0  0
  -28.0968  -16.2193   23.1403 H   0  0  0  0  0  0
  -28.1450  -17.8413   23.7342 H   0  0  0  0  0  0
  -30.1909  -17.6944   22.6404 H   0  0  0  0  0  0
  -29.1991  -18.5866   21.5330 H   0  0  0  0  0  0
  -22.5907  -18.4374   21.5618 H   0  0  0  0  0  0
  -23.9256  -17.8734   20.6136 H   0  0  0  0  0  0
  -30.5510  -17.0348   20.2877 H   0  0  0  0  0  0
  -28.9036  -16.4815   20.1355 H   0  0  0  0  0  0
  -23.8652  -16.6722   22.7502 H   0  0  0  0  0  0
  -23.7864  -18.1670   23.6534 H   0  0  0  0  0  0
  -26.9675  -25.3712   21.6025 H   0  0  0  0  0  0
  -28.4579  -24.2092   21.8824 H   0  0  0  0  0  0
  -23.7701  -20.2877   20.3912 H   0  0  0  0  0  0
  -25.2303  -19.9037   21.2433 H   0  0  0  0  0  0
  -29.8891  -26.1209   21.4286 H   0  0  0  0  0  0
  -28.7658  -27.2508   22.1599 H   0  0  0  0  0  0
  -25.9289  -17.5312   23.9857 H   0  0  0  0  0  0
  -30.6351  -15.4160   22.2525 H   0  0  0  0  0  0
  1 25  1  0  0  0
  1 30  2  0  0  0
  1 91  1  0  0  0
  2  3  1  0  0  0
  2 25  1  0  0  0
  2 97  1  0  0  0
  2 98  1  0  0  0
  3  4  1  0  0  0
  3 99  1  0  0  0
  3100  1  0  0  0
  4  5  1  0  0  0
  4101  1  0  0  0
  4102  1  0  0  0
  5  6  1  0  0  0
  5 26  1  0  0  0
  5103  1  0  0  0
  6 25  1  0  0  0
  6104  1  0  0  0
  6105  1  0  0  0
  7  8  2  0  0  0
  7 26  1  0  0  0
  7 29  1  0  0  0
  8  9  1  0  0  0
  8 22  1  0  0  0
  9 10  1  0  0  0
  9 27  2  0  0  0
 10 11  2  0  0  0
 10 15  1  0  0  0
 11 12  1  0  0  0
 11106  1  0  0  0
 12 13  2  0  0  0
 12107  1  0  0  0
 13 14  1  0  0  0
 13 31  1  0  0  0
 14 15  2  0  0  0
 14108  1  0  0  0
 15109  1  0  0  0
 16 17  2  0  0  0
 16 21  1  0  0  0
 16 31  1  0  0  0
 17 18  1  0  0  0
 17110  1  0  0  0
 18 19  2  0  0  0
 18111  1  0  0  0
 19 20  1  0  0  0
 19 24  1  0  0  0
 20 21  2  0  0  0
 20112  1  0  0  0
 21 23  1  0  0  0
 22 28  1  0  0  0
 22 32  2  0  0  0
 26 27  1  0  0  0
 28113  1  0  0  0
 28114  1  0  0  0
 29115  1  0  0  0
 29116  1  0  0  0
 33 34  1  0  0  0
 33 66  1  0  0  0
 33 70  2  0  0  0
 34 36  1  0  0  0
 34 59  1  0  0  0
 34117  1  0  0  0
 35 44  2  0  0  0
 35 45  1  0  0  0
 35 68  1  0  0  0
 36 56  1  0  0  0
 36118  1  0  0  0
 37 39  1  0  0  0
 37 47  1  0  0  0
 37 66  1  0  0  0
 37119  1  0  0  0
 38 43  2  0  0  0
 38 46  1  0  0  0
 38 47  1  0  0  0
 39 64  1  0  0  0
 39 67  2  0  0  0
 40 52  1  0  0  0
 40 53  2  0  0  0
 40 58  1  0  0  0
 41120  1  0  0  0
 41121  1  0  0  0
 41122  1  0  0  0
 41 48  1  0  0  0
 42 43  1  0  0  0
 42 66  1  0  0  0
 42123  1  0  0  0
 42124  1  0  0  0
 43 44  1  0  0  0
 44125  1  0  0  0
 45 46  2  0  0  0
 45126  1  0  0  0
 46127  1  0  0  0
 47128  1  0  0  0
 47129  1  0  0  0
 48 56  1  0  0  0
 48 65  1  0  0  0
 48130  1  0  0  0
 49 50  1  0  0  0
 49 53  1  0  0  0
 49 64  1  0  0  0
 49131  1  0  0  0
 50 51  1  0  0  0
 50132  1  0  0  0
 50133  1  0  0  0
 51 52  1  0  0  0
 51134  1  0  0  0
 51135  1  0  0  0
 52136  1  0  0  0
 52137  1  0  0  0
 53 54  1  0  0  0
 54 55  2  0  0  0
 54138  1  0  0  0
 55 57  1  0  0  0
 55139  1  0  0  0
 56 69  2  0  0  0
 57 58  2  0  0  0
 57140  1  0  0  0
 58141  1  0  0  0
 59 60  1  0  0  0
 59 61  1  0  0  0
 59 62  1  0  0  0
 60142  1  0  0  0
 60143  1  0  0  0
 60144  1  0  0  0
 61145  1  0  0  0
 61146  1  0  0  0
 61147  1  0  0  0
 62148  1  0  0  0
 62149  1  0  0  0
 62150  1  0  0  0
 63 65  1  0  0  0
 63151  1  0  0  0
 63152  1  0  0  0
 63153  1  0  0  0
 64154  1  0  0  0
 65155  1  0  0  0
 68 88  1  0  0  0
 71 74  1  0  0  0
 71 89  3  0  0  0
 72 74  2  0  0  0
 72 75  1  0  0  0
 72156  1  0  0  0
 73 76  2  0  0  0
 73 77  1  0  0  0
 73157  1  0  0  0
 74 76  1  0  0  0
 75 77  2  0  0  0
 75 92  1  0  0  0
 76 95  1  0  0  0
 77 96  1  0  0  0
 78 80  1  0  0  0
 78 92  1  0  0  0
 78 93  2  0  0  0
 79 81  1  0  0  0
 79 90  1  0  0  0
 79 94  2  0  0  0
 80158  1  0  0  0
 80159  1  0  0  0
 80160  1  0  0  0
 81 82  1  0  0  0
 81161  1  0  0  0
 81162  1  0  0  0
 82 84  1  0  0  0
 82163  1  0  0  0
 82164  1  0  0  0
 83 85  1  0  0  0
 83 87  1  0  0  0
 83165  1  0  0  0
 83166  1  0  0  0
 84 91  1  0  0  0
 84167  1  0  0  0
 84168  1  0  0  0
 85 90  1  0  0  0
 85169  1  0  0  0
 85170  1  0  0  0
 86 88  1  0  0  0
 86 92  1  0  0  0
 86171  1  0  0  0
 86172  1  0  0  0
 87 95  1  0  0  0
 87173  1  0  0  0
 87174  1  0  0  0
 88175  1  0  0  0
 88176  1  0  0  0
 90177  1  0  0  0
 91178  1  0  0  0
M  ISO  4   1 100  68 101  88 101  91 100
M  END
> <chiral flag>
0

> <version>
0

> <s_m_source_file>
/data/baiqing/PycharmProjects/Reinvent-master-3.2/result/LINK_invent/BTK/process_docking_weight1_custom_sum_contain_oxygen_bond_distance_aromatic_linkinvent_7_9_3/rearranged_h_0006.sdf

> <i_m_source_file_index>
8

> <r_mmod_Potential_Energy-OPLS-2005>
106.993408203125

> <r_mmod_Stretch_Energy-OPLS-2005>
53.6384544372559

> <r_mmod_Bend_Energy-OPLS-2005>
221.344177246094

> <r_mmod_Torsional_Energy-OPLS-2005>
382.792846679688

> <r_mmod_Improper_Torsional_Energy-OPLS-2005>
8.44429779052734

> <r_mmod_Van_der_Waal_Energy-OPLS-2005>
154.683929443359

> <r_mmod_Electrostatic_Energy-OPLS-2005>
-486.178741455078

> <r_mmod_Solvation_Energy-OPLS-2005>
-237.431930541992

> <b_mmod_Minimization_Converged-OPLS-2005>
0

> <r_mmod_RMS_Derivative-OPLS-2005>
55.2436103820801

$$$$
8
                    3D
 Structure written by MMmdl.
158166  0  0  1  0            999 V2000
  -30.6462  -14.5182   20.5726 C   0  0  0  0  0  0
  -30.4420  -12.3340   19.4232 C   0  0  0  0  0  0
  -29.5033  -12.5146   18.2094 C   0  0  0  0  0  0
  -28.0237  -12.3657   18.6200 C   0  0  0  0  0  0
  -27.6660  -13.1998   19.8785 C   0  0  2  0  0  0
  -28.7072  -12.9617   20.9954 C   0  0  0  0  0  0
  -25.2620  -13.8147   20.5673 C   0  0  0  0  0  0
  -24.1855  -13.0438   20.9160 C   0  0  0  0  0  0
  -24.6396  -11.6899   20.8725 C   0  0  0  0  0  0
  -23.9054  -10.4290   21.0397 C   0  0  0  0  0  0
  -24.3607   -9.4209   21.9178 C   0  0  0  0  0  0
  -23.6283   -8.2246   22.0756 C   0  0  0  0  0  0
  -22.4264   -8.0284   21.3544 C   0  0  0  0  0  0
  -21.9891   -9.0258   20.4648 C   0  0  0  0  0  0
  -22.7223  -10.2135   20.3054 C   0  0  0  0  0  0
  -21.6854   -6.0731   22.5276 C   0  0  0  0  0  0
  -21.4020   -6.5638   23.8211 C   0  0  0  0  0  0
  -21.3658   -5.6787   24.9170 C   0  0  0  0  0  0
  -21.6042   -4.3049   24.7221 C   0  0  0  0  0  0
  -21.8822   -3.8143   23.4343 C   0  0  0  0  0  0
  -21.9194   -4.6959   22.3399 C   0  0  0  0  0  0
  -22.7878  -13.5247   21.1822 C   0  0  0  0  0  0
  -22.1659   -4.2146   21.0974 F   0  0  0  0  0  0
  -21.5623   -3.4534   25.7734 F   0  0  0  0  0  0
  -30.0374  -13.3031   20.4547 N   0  0  0  0  0  0
  -26.3047  -12.9296   20.3363 N   0  0  0  0  0  0
  -25.9323  -11.6466   20.5755 N   0  0  0  0  0  0
  -22.0512  -12.8259   22.0388 N   0  0  0  0  0  0
  -25.4377  -15.1865   20.4110 N   0  0  0  0  0  0
  -31.7549  -14.7607   20.0843 O   0  0  0  0  0  0
  -21.6636   -6.8878   21.4240 O   0  0  0  0  0  0
  -22.3564  -14.5552   20.6667 O   0  0  0  0  0  0
  -24.6166  -31.8654   23.2074 C   0  0  0  0  0  0
  -25.9051  -32.4809   23.8375 C   0  0  1  0  0  0
  -27.2436  -27.4091   20.0879 C   0  0  0  0  0  0
  -25.5902  -33.8608   24.2309 N   0  0  0  0  0  0
  -23.4059  -30.4873   21.5485 C   0  0  2  0  0  0
  -24.8533  -28.9475   20.1143 C   0  0  0  0  0  0
  -22.7416  -29.4642   22.4980 C   0  0  0  0  0  0
  -18.0272  -28.1377   22.8490 C   0  0  0  0  0  0
  -24.1486  -36.7310   23.2635 C   0  0  0  0  0  0
  -25.9368  -30.8202   21.3655 C   0  0  0  0  0  0
  -26.0132  -29.4513   20.7139 C   0  0  0  0  0  0
  -27.2054  -28.6864   20.7037 C   0  0  0  0  0  0
  -26.0558  -26.9199   19.4954 C   0  0  0  0  0  0
  -24.8699  -27.6808   19.5053 C   0  0  0  0  0  0
  -23.6155  -29.8168   20.1641 C   0  0  0  0  0  0
  -25.4106  -36.3103   24.0335 C   0  0  1  0  0  0
  -20.5863  -28.3665   23.1312 C   0  0  2  0  0  0
  -20.6763  -26.9398   22.5419 C   0  0  0  0  0  0
  -19.5744  -26.6380   21.5213 C   0  0  0  0  0  0
  -18.1921  -26.7923   22.1620 C   0  0  0  0  0  0
  -19.1521  -28.8838   23.2898 C   0  0  0  0  0  0
  -18.9450  -30.1443   23.8909 C   0  0  0  0  0  0
  -17.6453  -30.6581   24.0566 C   0  0  0  0  0  0
  -25.9038  -34.9471   23.5121 C   0  0  0  0  0  0
  -16.5345  -29.9084   23.6327 C   0  0  0  0  0  0
  -16.7262  -28.6501   23.0349 C   0  0  0  0  0  0
  -26.4475  -31.6597   25.0710 C   0  0  0  0  0  0
  -25.3742  -31.3725   26.1467 C   0  0  0  0  0  0
  -27.0299  -30.3030   24.6105 C   0  0  0  0  0  0
  -27.6047  -32.4321   25.7469 C   0  0  0  0  0  0
  -27.5587  -37.1799   24.8457 C   0  0  0  0  0  0
  -21.4142  -29.3029   22.3719 N   0  0  0  0  0  0
  -26.4291  -37.3793   23.9415 N   0  0  0  0  0  0
  -24.6713  -31.0730   22.0987 N   0  0  0  0  0  0
  -23.4176  -28.8190   23.3037 O   0  0  0  0  0  0
  -28.4256  -26.6815   20.1105 O   0  0  0  0  0  0
  -26.5605  -34.8926   22.4686 O   0  0  0  0  0  0
  -23.5354  -32.1423   23.7455 O   0  0  0  0  0  0
  -30.6403  -17.7128   20.3405 C   0  0  0  0  0  0
  -30.3800  -19.1052   20.2419 C   0  0  0  0  0  0
  -28.6310  -17.4633   21.6529 C   0  0  0  0  0  0
  -29.7594  -16.8658   21.0521 C   0  0  0  0  0  0
  -29.2416  -19.7093   20.8491 C   0  0  0  0  0  0
  -28.3560  -18.8481   21.5708 C   0  0  0  0  0  0
  -26.8347  -20.5870   22.3614 C   0  0  0  0  0  0
  -28.4091  -24.1461   19.6694 C   0  0  0  0  0  0
  -29.5784  -23.4913   20.4654 C   0  0  0  0  0  0
  -28.6436  -25.6095   19.1688 C   0  0  0  0  0  0
  -29.8983  -21.9870   20.1770 C   0  0  0  0  0  0
  -29.8947  -15.4426   21.2132 N   0  0  0  0  0  0
  -27.1989  -19.2205   22.2317 O   0  0  0  0  0  0
  -28.9588  -21.0731   20.7574 O   0  0  0  0  0  0
  -31.4829  -12.4632   19.1209 H   0  0  0  0  0  0
  -30.3708  -11.3192   19.8165 H   0  0  0  0  0  0
  -29.7502  -11.7897   17.4324 H   0  0  0  0  0  0
  -29.6616  -13.5000   17.7676 H   0  0  0  0  0  0
  -27.8376  -11.3085   18.8129 H   0  0  0  0  0  0
  -27.3736  -12.6412   17.7889 H   0  0  0  0  0  0
  -27.7143  -14.2497   19.5899 H   0  0  0  0  0  0
  -28.6963  -11.9151   21.3024 H   0  0  0  0  0  0
  -28.4513  -13.5206   21.8964 H   0  0  0  0  0  0
  -25.2761   -9.5684   22.4741 H   0  0  0  0  0  0
  -23.9993   -7.4640   22.7479 H   0  0  0  0  0  0
  -21.0816   -8.8783   19.8958 H   0  0  0  0  0  0
  -22.3687  -10.9674   19.6158 H   0  0  0  0  0  0
  -21.2024   -7.6146   23.9713 H   0  0  0  0  0  0
  -21.1470   -6.0516   25.9071 H   0  0  0  0  0  0
  -22.0604   -2.7604   23.2846 H   0  0  0  0  0  0
  -22.4113  -11.9919   22.4783 H   0  0  0  0  0  0
  -21.1138  -13.1313   22.2594 H   0  0  0  0  0  0
  -24.6753  -15.8460   20.5240 H   0  0  0  0  0  0
  -26.2934  -15.6231   20.0930 H   0  0  0  0  0  0
  -26.7115  -32.5510   23.1128 H   0  0  0  0  0  0
  -25.0064  -33.9764   25.0464 H   0  0  0  0  0  0
  -22.6960  -31.3049   21.4074 H   0  0  0  0  0  0
  -23.3750  -35.9640   23.3288 H   0  0  0  0  0  0
  -24.3589  -36.8937   22.2053 H   0  0  0  0  0  0
  -23.7232  -37.6508   23.6656 H   0  0  0  0  0  0
  -26.0534  -31.5840   20.5952 H   0  0  0  0  0  0
  -26.8232  -30.8744   21.9857 H   0  0  0  0  0  0
  -28.1009  -29.0748   21.1689 H   0  0  0  0  0  0
  -26.0218  -25.9429   19.0361 H   0  0  0  0  0  0
  -23.9754  -27.2824   19.0465 H   0  0  0  0  0  0
  -23.7231  -30.5901   19.4027 H   0  0  0  0  0  0
  -22.7389  -29.2369   19.8696 H   0  0  0  0  0  0
  -25.1278  -36.1967   25.0827 H   0  0  0  0  0  0
  -20.9952  -28.3238   24.1433 H   0  0  0  0  0  0
  -20.5664  -26.2272   23.3607 H   0  0  0  0  0  0
  -21.6639  -26.7441   22.1218 H   0  0  0  0  0  0
  -19.6910  -25.6295   21.1232 H   0  0  0  0  0  0
  -19.6684  -27.3198   20.6751 H   0  0  0  0  0  0
  -17.4192  -26.6672   21.4020 H   0  0  0  0  0  0
  -18.0319  -26.0060   22.9009 H   0  0  0  0  0  0
  -19.7928  -30.7255   24.2283 H   0  0  0  0  0  0
  -17.5010  -31.6265   24.5163 H   0  0  0  0  0  0
  -15.5348  -30.2993   23.7642 H   0  0  0  0  0  0
  -15.8660  -28.0825   22.7059 H   0  0  0  0  0  0
  -24.5903  -30.7078   25.7821 H   0  0  0  0  0  0
  -24.8951  -32.2891   26.4915 H   0  0  0  0  0  0
  -25.8098  -30.8898   27.0223 H   0  0  0  0  0  0
  -26.2843  -29.6792   24.1162 H   0  0  0  0  0  0
  -27.4062  -29.7270   25.4569 H   0  0  0  0  0  0
  -27.8683  -30.4334   23.9259 H   0  0  0  0  0  0
  -27.2663  -33.3613   26.2064 H   0  0  0  0  0  0
  -28.3843  -32.6896   25.0287 H   0  0  0  0  0  0
  -28.0729  -31.8440   26.5371 H   0  0  0  0  0  0
  -28.2588  -38.0114   24.7541 H   0  0  0  0  0  0
  -28.1100  -36.2651   24.6227 H   0  0  0  0  0  0
  -27.2317  -37.1386   25.8862 H   0  0  0  0  0  0
  -20.9307  -29.8747   21.6936 H   0  0  0  0  0  0
  -26.0179  -38.2864   24.1439 H   0  0  0  0  0  0
  -31.5205  -17.3115   19.8581 H   0  0  0  0  0  0
  -31.0803  -19.7005   19.6751 H   0  0  0  0  0  0
  -27.9362  -16.8423   22.2004 H   0  0  0  0  0  0
  -26.5802  -21.0272   21.3967 H   0  0  0  0  0  0
  -27.6196  -21.1701   22.8447 H   0  0  0  0  0  0
  -25.9479  -20.6593   22.9906 H   0  0  0  0  0  0
  -27.4777  -24.0785   20.2322 H   0  0  0  0  0  0
  -28.2482  -23.5383   18.7785 H   0  0  0  0  0  0
  -29.4258  -23.6407   21.5349 H   0  0  0  0  0  0
  -30.4886  -24.0451   20.2335 H   0  0  0  0  0  0
  -28.0702  -25.7825   18.2579 H   0  0  0  0  0  0
  -29.6767  -25.6981   18.8315 H   0  0  0  0  0  0
  -30.8845  -21.7797   20.5951 H   0  0  0  0  0  0
  -29.9692  -21.8165   19.1020 H   0  0  0  0  0  0
  -29.1153  -15.0114   21.6856 H   0  0  0  0  0  0
  1 25  1  0  0  0
  1 30  2  0  0  0
  1 82  1  0  0  0
  2  3  1  0  0  0
  2 25  1  0  0  0
  2 85  1  0  0  0
  2 86  1  0  0  0
  3  4  1  0  0  0
  3 87  1  0  0  0
  3 88  1  0  0  0
  4  5  1  0  0  0
  4 89  1  0  0  0
  4 90  1  0  0  0
  5  6  1  0  0  0
  5 26  1  0  0  0
  5 91  1  0  0  0
  6 25  1  0  0  0
  6 92  1  0  0  0
  6 93  1  0  0  0
  7  8  2  0  0  0
  7 26  1  0  0  0
  7 29  1  0  0  0
  8  9  1  0  0  0
  8 22  1  0  0  0
  9 10  1  0  0  0
  9 27  2  0  0  0
 10 11  2  0  0  0
 10 15  1  0  0  0
 11 12  1  0  0  0
 11 94  1  0  0  0
 12 13  2  0  0  0
 12 95  1  0  0  0
 13 14  1  0  0  0
 13 31  1  0  0  0
 14 15  2  0  0  0
 14 96  1  0  0  0
 15 97  1  0  0  0
 16 17  2  0  0  0
 16 21  1  0  0  0
 16 31  1  0  0  0
 17 18  1  0  0  0
 17 98  1  0  0  0
 18 19  2  0  0  0
 18 99  1  0  0  0
 19 20  1  0  0  0
 19 24  1  0  0  0
 20 21  2  0  0  0
 20100  1  0  0  0
 21 23  1  0  0  0
 22 28  1  0  0  0
 22 32  2  0  0  0
 26 27  1  0  0  0
 28101  1  0  0  0
 28102  1  0  0  0
 29103  1  0  0  0
 29104  1  0  0  0
 33 34  1  0  0  0
 33 66  1  0  0  0
 33 70  2  0  0  0
 34 36  1  0  0  0
 34 59  1  0  0  0
 34105  1  0  0  0
 35 44  2  0  0  0
 35 45  1  0  0  0
 35 68  1  0  0  0
 36 56  1  0  0  0
 36106  1  0  0  0
 37 39  1  0  0  0
 37 47  1  0  0  0
 37 66  1  0  0  0
 37107  1  0  0  0
 38 43  2  0  0  0
 38 46  1  0  0  0
 38 47  1  0  0  0
 39 64  1  0  0  0
 39 67  2  0  0  0
 40 52  1  0  0  0
 40 53  2  0  0  0
 40 58  1  0  0  0
 41108  1  0  0  0
 41109  1  0  0  0
 41110  1  0  0  0
 41 48  1  0  0  0
 42 43  1  0  0  0
 42 66  1  0  0  0
 42111  1  0  0  0
 42112  1  0  0  0
 43 44  1  0  0  0
 44113  1  0  0  0
 45 46  2  0  0  0
 45114  1  0  0  0
 46115  1  0  0  0
 47116  1  0  0  0
 47117  1  0  0  0
 48 56  1  0  0  0
 48 65  1  0  0  0
 48118  1  0  0  0
 49 50  1  0  0  0
 49 53  1  0  0  0
 49 64  1  0  0  0
 49119  1  0  0  0
 50 51  1  0  0  0
 50120  1  0  0  0
 50121  1  0  0  0
 51 52  1  0  0  0
 51122  1  0  0  0
 51123  1  0  0  0
 52124  1  0  0  0
 52125  1  0  0  0
 53 54  1  0  0  0
 54 55  2  0  0  0
 54126  1  0  0  0
 55 57  1  0  0  0
 55127  1  0  0  0
 56 69  2  0  0  0
 57 58  2  0  0  0
 57128  1  0  0  0
 58129  1  0  0  0
 59 60  1  0  0  0
 59 61  1  0  0  0
 59 62  1  0  0  0
 60130  1  0  0  0
 60131  1  0  0  0
 60132  1  0  0  0
 61133  1  0  0  0
 61134  1  0  0  0
 61135  1  0  0  0
 62136  1  0  0  0
 62137  1  0  0  0
 62138  1  0  0  0
 63 65  1  0  0  0
 63139  1  0  0  0
 63140  1  0  0  0
 63141  1  0  0  0
 64142  1  0  0  0
 65143  1  0  0  0
 68 80  1  0  0  0
 71 72  2  0  0  0
 71 74  1  0  0  0
 71144  1  0  0  0
 72 75  1  0  0  0
 72145  1  0  0  0
 73 74  2  0  0  0
 73 76  1  0  0  0
 73146  1  0  0  0
 74 82  1  0  0  0
 75 76  2  0  0  0
 75 84  1  0  0  0
 76 83  1  0  0  0
 77 83  1  0  0  0
 77147  1  0  0  0
 77148  1  0  0  0
 77149  1  0  0  0
 78 79  1  0  0  0
 78 80  1  0  0  0
 78150  1  0  0  0
 78151  1  0  0  0
 79 81  1  0  0  0
 79152  1  0  0  0
 79153  1  0  0  0
 80154  1  0  0  0
 80155  1  0  0  0
 81 84  1  0  0  0
 81156  1  0  0  0
 81157  1  0  0  0
 82158  1  0  0  0
M  ISO  4   1 100  68 101  80 101  82 100
M  END
> <chiral flag>
0

> <version>
0

> <s_m_source_file>
/data/baiqing/PycharmProjects/Reinvent-master-3.2/result/LINK_invent/BTK/process_docking_weight1_custom_sum_contain_oxygen_bond_distance_aromatic_linkinvent_7_9_3/rearranged_h_0006.sdf

> <i_m_source_file_index>
9

> <r_mmod_Potential_Energy-OPLS-2005>
4.60142469406128

> <r_mmod_Stretch_Energy-OPLS-2005>
48.0437355041504

> <r_mmod_Bend_Energy-OPLS-2005>
149.834060668945

> <r_mmod_Torsional_Energy-OPLS-2005>
219.246276855469

> <r_mmod_Improper_Torsional_Energy-OPLS-2005>
3.4080023765564

> <r_mmod_Van_der_Waal_Energy-OPLS-2005>
158.802154541016

> <r_mmod_Electrostatic_Energy-OPLS-2005>
-381.925140380859

> <r_mmod_Solvation_Energy-OPLS-2005>
-210.446517944336

> <b_mmod_Minimization_Converged-OPLS-2005>
0

> <r_mmod_RMS_Derivative-OPLS-2005>
0.905892908573151

$$$$
9
                    3D
 Structure written by MMmdl.
167175  0  0  1  0            999 V2000
  -30.7244  -14.4186   20.4883 C   0  0  0  0  0  0
  -30.4194  -12.2474   19.4050 C   0  0  0  0  0  0
  -29.4963  -12.4810   18.1921 C   0  0  0  0  0  0
  -28.0146  -12.3601   18.6033 C   0  0  0  0  0  0
  -27.6680  -13.1799   19.8779 C   0  0  2  0  0  0
  -28.7235  -12.9684   20.9890 C   0  0  0  0  0  0
  -25.2653  -13.8094   20.5692 C   0  0  0  0  0  0
  -24.1889  -13.0419   20.9183 C   0  0  0  0  0  0
  -24.6401  -11.6873   20.8756 C   0  0  0  0  0  0
  -23.9057  -10.4295   21.0410 C   0  0  0  0  0  0
  -24.3632   -9.4223   21.9188 C   0  0  0  0  0  0
  -23.6313   -8.2262   22.0785 C   0  0  0  0  0  0
  -22.4303   -8.0298   21.3579 C   0  0  0  0  0  0
  -21.9915   -9.0270   20.4679 C   0  0  0  0  0  0
  -22.7235  -10.2138   20.3063 C   0  0  0  0  0  0
  -21.6863   -6.0750   22.5298 C   0  0  0  0  0  0
  -21.4006   -6.5643   23.8231 C   0  0  0  0  0  0
  -21.3664   -5.6794   24.9193 C   0  0  0  0  0  0
  -21.6048   -4.3054   24.7235 C   0  0  0  0  0  0
  -21.8811   -3.8168   23.4350 C   0  0  0  0  0  0
  -21.9199   -4.6980   22.3414 C   0  0  0  0  0  0
  -22.7915  -13.5234   21.1814 C   0  0  0  0  0  0
  -22.1668   -4.2177   21.0981 F   0  0  0  0  0  0
  -21.5632   -3.4517   25.7730 F   0  0  0  0  0  0
  -30.0532  -13.2433   20.4179 N   0  0  0  0  0  0
  -26.3086  -12.9205   20.3418 N   0  0  0  0  0  0
  -25.9325  -11.6404   20.5817 N   0  0  0  0  0  0
  -22.0529  -12.8280   22.0359 N   0  0  0  0  0  0
  -25.4273  -15.1825   20.4094 N   0  0  0  0  0  0
  -31.8927  -14.5601   20.1156 O   0  0  0  0  0  0
  -21.6647   -6.8910   21.4286 O   0  0  0  0  0  0
  -22.3628  -14.5569   20.6660 O   0  0  0  0  0  0
  -24.6112  -31.8702   23.2182 C   0  0  0  0  0  0
  -25.9053  -32.4839   23.8409 C   0  0  1  0  0  0
  -27.2328  -27.4913   20.0546 C   0  0  0  0  0  0
  -25.5928  -33.8638   24.2350 N   0  0  0  0  0  0
  -23.3900  -30.5028   21.5613 C   0  0  2  0  0  0
  -24.8291  -28.9752   20.1170 C   0  0  0  0  0  0
  -22.7357  -29.4711   22.5045 C   0  0  0  0  0  0
  -18.0286  -28.1416   22.8510 C   0  0  0  0  0  0
  -24.1489  -36.7322   23.2619 C   0  0  0  0  0  0
  -25.9137  -30.8501   21.3620 C   0  0  0  0  0  0
  -25.9886  -29.4904   20.7064 C   0  0  0  0  0  0
  -27.1891  -28.7529   20.6776 C   0  0  0  0  0  0
  -26.0459  -26.9731   19.4795 C   0  0  0  0  0  0
  -24.8479  -27.7090   19.5127 C   0  0  0  0  0  0
  -23.5925  -29.8423   20.1730 C   0  0  0  0  0  0
  -25.4094  -36.3118   24.0338 C   0  0  1  0  0  0
  -20.5850  -28.3664   23.1354 C   0  0  2  0  0  0
  -20.6775  -26.9413   22.5393 C   0  0  0  0  0  0
  -19.5754  -26.6443   21.5185 C   0  0  0  0  0  0
  -18.1929  -26.7981   22.1588 C   0  0  0  0  0  0
  -19.1520  -28.8859   23.2958 C   0  0  0  0  0  0
  -18.9432  -30.1473   23.8958 C   0  0  0  0  0  0
  -17.6427  -30.6597   24.0607 C   0  0  0  0  0  0
  -25.9022  -34.9490   23.5120 C   0  0  0  0  0  0
  -16.5322  -29.9102   23.6368 C   0  0  0  0  0  0
  -16.7268  -28.6541   23.0361 C   0  0  0  0  0  0
  -26.4479  -31.6615   25.0726 C   0  0  0  0  0  0
  -25.3732  -31.3710   26.1484 C   0  0  0  0  0  0
  -27.0290  -30.3060   24.6084 C   0  0  0  0  0  0
  -27.6115  -32.4285   25.7435 C   0  0  0  0  0  0
  -27.5590  -37.1814   24.8459 C   0  0  0  0  0  0
  -21.4097  -29.3041   22.3764 N   0  0  0  0  0  0
  -26.4286  -37.3806   23.9417 N   0  0  0  0  0  0
  -24.6566  -31.0844   22.1072 N   0  0  0  0  0  0
  -23.4159  -28.8235   23.3051 O   0  0  0  0  0  0
  -28.4488  -26.8426   20.0245 O   0  0  0  0  0  0
  -26.5575  -34.8924   22.4675 O   0  0  0  0  0  0
  -23.5330  -32.1406   23.7657 O   0  0  0  0  0  0
  -23.2398  -21.3060   18.5512 C   0  0  0  0  0  0
  -23.8446  -20.2109   17.9016 C   0  0  0  0  0  0
  -24.0275  -22.2272   19.2677 C   0  0  0  0  0  0
  -26.0197  -20.9492   18.7124 C   0  0  0  0  0  0
  -25.2406  -20.0223   17.9856 C   0  0  0  0  0  0
  -25.4268  -22.0637   19.3450 C   0  0  0  0  0  0
  -25.9172  -18.9001   17.2534 C   0  0  0  0  0  0
  -27.4971  -23.2434   20.1341 C   0  0  0  0  0  0
  -27.9454  -24.5814   20.7034 C   0  0  0  0  0  0
  -28.7688  -16.7656   18.3294 C   0  0  0  0  0  0
  -29.2844  -17.5838   19.5360 C   0  0  0  0  0  0
  -28.0481  -17.6024   17.2648 C   0  0  0  0  0  0
  -30.3325  -16.8677   20.4098 C   0  0  0  0  0  0
  -28.4960  -25.4898   19.5910 C   0  0  0  0  0  0
  -26.1653  -23.0653   20.0335 N   0  0  0  0  0  0
  -27.0015  -18.4164   17.8671 N   0  0  0  0  0  0
  -29.9545  -15.4861   20.7296 N   0  0  0  0  0  0
  -25.4980  -18.4870   16.1703 O   0  0  0  0  0  0
  -28.3541  -22.4151   19.8281 O   0  0  0  0  0  0
  -31.4675  -12.3132   19.1039 H   0  0  0  0  0  0
  -30.2872  -11.2379   19.7974 H   0  0  0  0  0  0
  -29.7280  -11.7637   17.4016 H   0  0  0  0  0  0
  -29.6859  -13.4683   17.7666 H   0  0  0  0  0  0
  -27.8044  -11.3035   18.7750 H   0  0  0  0  0  0
  -27.3744  -12.6646   17.7741 H   0  0  0  0  0  0
  -27.7033  -14.2237   19.6022 H   0  0  0  0  0  0
  -28.6924  -11.9392   21.3490 H   0  0  0  0  0  0
  -28.5193  -13.5955   21.8585 H   0  0  0  0  0  0
  -25.2803   -9.5679   22.4727 H   0  0  0  0  0  0
  -24.0025   -7.4656   22.7497 H   0  0  0  0  0  0
  -21.0852   -8.8804   19.8990 H   0  0  0  0  0  0
  -22.3744  -10.9683   19.6149 H   0  0  0  0  0  0
  -21.1990   -7.6145   23.9741 H   0  0  0  0  0  0
  -21.1491   -6.0515   25.9087 H   0  0  0  0  0  0
  -22.0591   -2.7635   23.2835 H   0  0  0  0  0  0
  -22.4084  -11.9904   22.4723 H   0  0  0  0  0  0
  -21.1154  -13.1335   22.2559 H   0  0  0  0  0  0
  -24.6416  -15.8121   20.5302 H   0  0  0  0  0  0
  -26.2512  -15.6452   20.0507 H   0  0  0  0  0  0
  -26.7113  -32.5578   23.1182 H   0  0  0  0  0  0
  -25.0154  -33.9780   25.0557 H   0  0  0  0  0  0
  -22.6775  -31.3203   21.4331 H   0  0  0  0  0  0
  -23.3739  -35.9674   23.3266 H   0  0  0  0  0  0
  -24.3576  -36.8931   22.2025 H   0  0  0  0  0  0
  -23.7225  -37.6528   23.6614 H   0  0  0  0  0  0
  -26.0133  -31.6202   20.5979 H   0  0  0  0  0  0
  -26.8063  -30.8980   21.9737 H   0  0  0  0  0  0
  -28.0863  -29.1545   21.1273 H   0  0  0  0  0  0
  -26.0182  -26.0139   18.9847 H   0  0  0  0  0  0
  -23.9542  -27.3047   19.0593 H   0  0  0  0  0  0
  -23.6914  -30.6197   19.4117 H   0  0  0  0  0  0
  -22.7114  -29.2658   19.8857 H   0  0  0  0  0  0
  -25.1266  -36.1982   25.0829 H   0  0  0  0  0  0
  -20.9966  -28.3212   24.1461 H   0  0  0  0  0  0
  -20.5721  -26.2228   23.3540 H   0  0  0  0  0  0
  -21.6647  -26.7531   22.1160 H   0  0  0  0  0  0
  -19.6889  -25.6373   21.1162 H   0  0  0  0  0  0
  -19.6706  -27.3320   20.6760 H   0  0  0  0  0  0
  -17.4215  -26.6829   21.3961 H   0  0  0  0  0  0
  -18.0280  -26.0100   22.8923 H   0  0  0  0  0  0
  -19.7892  -30.7308   24.2326 H   0  0  0  0  0  0
  -17.4977  -31.6300   24.5197 H   0  0  0  0  0  0
  -15.5335  -30.3016   23.7680 H   0  0  0  0  0  0
  -15.8664  -28.0900   22.7000 H   0  0  0  0  0  0
  -24.5991  -30.6945   25.7831 H   0  0  0  0  0  0
  -24.8823  -32.2842   26.4855 H   0  0  0  0  0  0
  -25.8099  -30.8966   27.0284 H   0  0  0  0  0  0
  -26.2810  -29.6823   24.1165 H   0  0  0  0  0  0
  -27.4071  -29.7313   25.4549 H   0  0  0  0  0  0
  -27.8651  -30.4372   23.9205 H   0  0  0  0  0  0
  -27.2837  -33.3604   26.2050 H   0  0  0  0  0  0
  -28.3900  -32.6783   25.0211 H   0  0  0  0  0  0
  -28.0818  -31.8349   26.5297 H   0  0  0  0  0  0
  -28.2632  -38.0101   24.7543 H   0  0  0  0  0  0
  -28.1065  -36.2636   24.6243 H   0  0  0  0  0  0
  -27.2323  -37.1446   25.8872 H   0  0  0  0  0  0
  -20.9205  -29.8714   21.6996 H   0  0  0  0  0  0
  -26.0175  -38.2883   24.1454 H   0  0  0  0  0  0
  -22.1705  -21.4497   18.4942 H   0  0  0  0  0  0
  -23.2336  -19.5239   17.3302 H   0  0  0  0  0  0
  -23.5437  -23.0665   19.7470 H   0  0  0  0  0  0
  -27.0863  -20.7995   18.7403 H   0  0  0  0  0  0
  -28.7154  -24.4279   21.4606 H   0  0  0  0  0  0
  -27.1093  -25.0510   21.2205 H   0  0  0  0  0  0
  -28.0707  -16.0131   18.6768 H   0  0  0  0  0  0
  -29.5906  -16.2283   17.8508 H   0  0  0  0  0  0
  -28.4484  -17.8919   20.1620 H   0  0  0  0  0  0
  -29.7294  -18.5098   19.1699 H   0  0  0  0  0  0
  -27.6473  -16.9569   16.4787 H   0  0  0  0  0  0
  -28.7632  -18.2735   16.7856 H   0  0  0  0  0  0
  -30.4826  -17.4144   21.3402 H   0  0  0  0  0  0
  -31.2900  -16.9096   19.8843 H   0  0  0  0  0  0
  -29.5339  -25.2274   19.3937 H   0  0  0  0  0  0
  -27.9996  -25.3486   18.6319 H   0  0  0  0  0  0
  -25.6071  -23.8100   20.4258 H   0  0  0  0  0  0
  -27.1851  -18.7943   18.7854 H   0  0  0  0  0  0
  -28.9942  -15.3060   20.9835 H   0  0  0  0  0  0
  1 25  1  0  0  0
  1 30  2  0  0  0
  1 87  1  0  0  0
  2  3  1  0  0  0
  2 25  1  0  0  0
  2 90  1  0  0  0
  2 91  1  0  0  0
  3  4  1  0  0  0
  3 92  1  0  0  0
  3 93  1  0  0  0
  4  5  1  0  0  0
  4 94  1  0  0  0
  4 95  1  0  0  0
  5  6  1  0  0  0
  5 26  1  0  0  0
  5 96  1  0  0  0
  6 25  1  0  0  0
  6 97  1  0  0  0
  6 98  1  0  0  0
  7  8  2  0  0  0
  7 26  1  0  0  0
  7 29  1  0  0  0
  8  9  1  0  0  0
  8 22  1  0  0  0
  9 10  1  0  0  0
  9 27  2  0  0  0
 10 11  2  0  0  0
 10 15  1  0  0  0
 11 12  1  0  0  0
 11 99  1  0  0  0
 12 13  2  0  0  0
 12100  1  0  0  0
 13 14  1  0  0  0
 13 31  1  0  0  0
 14 15  2  0  0  0
 14101  1  0  0  0
 15102  1  0  0  0
 16 17  2  0  0  0
 16 21  1  0  0  0
 16 31  1  0  0  0
 17 18  1  0  0  0
 17103  1  0  0  0
 18 19  2  0  0  0
 18104  1  0  0  0
 19 20  1  0  0  0
 19 24  1  0  0  0
 20 21  2  0  0  0
 20105  1  0  0  0
 21 23  1  0  0  0
 22 28  1  0  0  0
 22 32  2  0  0  0
 26 27  1  0  0  0
 28106  1  0  0  0
 28107  1  0  0  0
 29108  1  0  0  0
 29109  1  0  0  0
 33 34  1  0  0  0
 33 66  1  0  0  0
 33 70  2  0  0  0
 34 36  1  0  0  0
 34 59  1  0  0  0
 34110  1  0  0  0
 35 44  2  0  0  0
 35 45  1  0  0  0
 35 68  1  0  0  0
 36 56  1  0  0  0
 36111  1  0  0  0
 37 39  1  0  0  0
 37 47  1  0  0  0
 37 66  1  0  0  0
 37112  1  0  0  0
 38 43  2  0  0  0
 38 46  1  0  0  0
 38 47  1  0  0  0
 39 64  1  0  0  0
 39 67  2  0  0  0
 40 52  1  0  0  0
 40 53  2  0  0  0
 40 58  1  0  0  0
 41113  1  0  0  0
 41114  1  0  0  0
 41115  1  0  0  0
 41 48  1  0  0  0
 42 43  1  0  0  0
 42 66  1  0  0  0
 42116  1  0  0  0
 42117  1  0  0  0
 43 44  1  0  0  0
 44118  1  0  0  0
 45 46  2  0  0  0
 45119  1  0  0  0
 46120  1  0  0  0
 47121  1  0  0  0
 47122  1  0  0  0
 48 56  1  0  0  0
 48 65  1  0  0  0
 48123  1  0  0  0
 49 50  1  0  0  0
 49 53  1  0  0  0
 49 64  1  0  0  0
 49124  1  0  0  0
 50 51  1  0  0  0
 50125  1  0  0  0
 50126  1  0  0  0
 51 52  1  0  0  0
 51127  1  0  0  0
 51128  1  0  0  0
 52129  1  0  0  0
 52130  1  0  0  0
 53 54  1  0  0  0
 54 55  2  0  0  0
 54131  1  0  0  0
 55 57  1  0  0  0
 55132  1  0  0  0
 56 69  2  0  0  0
 57 58  2  0  0  0
 57133  1  0  0  0
 58134  1  0  0  0
 59 60  1  0  0  0
 59 61  1  0  0  0
 59 62  1  0  0  0
 60135  1  0  0  0
 60136  1  0  0  0
 60137  1  0  0  0
 61138  1  0  0  0
 61139  1  0  0  0
 61140  1  0  0  0
 62141  1  0  0  0
 62142  1  0  0  0
 62143  1  0  0  0
 63 65  1  0  0  0
 63144  1  0  0  0
 63145  1  0  0  0
 63146  1  0  0  0
 64147  1  0  0  0
 65148  1  0  0  0
 68 84  1  0  0  0
 71 72  2  0  0  0
 71 73  1  0  0  0
 71149  1  0  0  0
 72 75  1  0  0  0
 72150  1  0  0  0
 73 76  2  0  0  0
 73151  1  0  0  0
 74 75  2  0  0  0
 74 76  1  0  0  0
 74152  1  0  0  0
 75 77  1  0  0  0
 76 85  1  0  0  0
 77 86  1  0  0  0
 77 88  2  0  0  0
 78 79  1  0  0  0
 78 85  1  0  0  0
 78 89  2  0  0  0
 79 84  1  0  0  0
 79153  1  0  0  0
 79154  1  0  0  0
 80 81  1  0  0  0
 80 82  1  0  0  0
 80155  1  0  0  0
 80156  1  0  0  0
 81 83  1  0  0  0
 81157  1  0  0  0
 81158  1  0  0  0
 82 86  1  0  0  0
 82159  1  0  0  0
 82160  1  0  0  0
 83 87  1  0  0  0
 83161  1  0  0  0
 83162  1  0  0  0
 84163  1  0  0  0
 84164  1  0  0  0
 85165  1  0  0  0
 86166  1  0  0  0
 87167  1  0  0  0
M  ISO  4   1 100  68 101  84 101  87 100
M  END
> <chiral flag>
0

> <version>
0

> <s_m_source_file>
/data/baiqing/PycharmProjects/Reinvent-master-3.2/result/LINK_invent/BTK/process_docking_weight1_custom_sum_contain_oxygen_bond_distance_aromatic_linkinvent_7_9_3/rearranged_h_0006.sdf

> <i_m_source_file_index>
10

> <r_mmod_Potential_Energy-OPLS-2005>
-177.299514770508

> <r_mmod_Stretch_Energy-OPLS-2005>
31.6110515594482

> <r_mmod_Bend_Energy-OPLS-2005>
105.635681152344

> <r_mmod_Torsional_Energy-OPLS-2005>
238.316619873047

> <r_mmod_Improper_Torsional_Energy-OPLS-2005>
7.68540573120117

> <r_mmod_Van_der_Waal_Energy-OPLS-2005>
165.24055480957

> <r_mmod_Electrostatic_Energy-OPLS-2005>
-492.917572021484

> <r_mmod_Solvation_Energy-OPLS-2005>
-248.507110595703

> <b_mmod_Minimization_Converged-OPLS-2005>
0

> <r_mmod_RMS_Derivative-OPLS-2005>
4.62991428375244

$$$$
10
                    3D
 Structure written by MMmdl.
190197  0  0  1  0            999 V2000
  -30.7938  -14.3243   20.7513 C   0  0  0  0  0  0
  -30.4178  -12.3008   19.3716 C   0  0  0  0  0  0
  -29.4753  -12.5441   18.1813 C   0  0  0  0  0  0
  -28.0041  -12.3861   18.6080 C   0  0  0  0  0  0
  -27.6700  -13.1960   19.8873 C   0  0  2  0  0  0
  -28.7103  -12.9125   20.9931 C   0  0  0  0  0  0
  -25.2629  -13.8147   20.5696 C   0  0  0  0  0  0
  -24.1853  -13.0438   20.9166 C   0  0  0  0  0  0
  -24.6388  -11.6900   20.8735 C   0  0  0  0  0  0
  -23.9051  -10.4292   21.0410 C   0  0  0  0  0  0
  -24.3603   -9.4209   21.9191 C   0  0  0  0  0  0
  -23.6282   -8.2243   22.0760 C   0  0  0  0  0  0
  -22.4265   -8.0282   21.3550 C   0  0  0  0  0  0
  -21.9900   -9.0257   20.4651 C   0  0  0  0  0  0
  -22.7227  -10.2136   20.3060 C   0  0  0  0  0  0
  -21.6848   -6.0739   22.5284 C   0  0  0  0  0  0
  -21.4010   -6.5642   23.8216 C   0  0  0  0  0  0
  -21.3656   -5.6793   24.9177 C   0  0  0  0  0  0
  -21.6041   -4.3057   24.7223 C   0  0  0  0  0  0
  -21.8816   -3.8149   23.4345 C   0  0  0  0  0  0
  -21.9191   -4.6968   22.3402 C   0  0  0  0  0  0
  -22.7880  -13.5256   21.1833 C   0  0  0  0  0  0
  -22.1660   -4.2157   21.0978 F   0  0  0  0  0  0
  -21.5626   -3.4536   25.7732 F   0  0  0  0  0  0
  -30.0492  -13.2261   20.4524 N   0  0  0  0  0  0
  -26.3069  -12.9293   20.3435 N   0  0  0  0  0  0
  -25.9313  -11.6458   20.5781 N   0  0  0  0  0  0
  -22.0508  -12.8253   22.0386 N   0  0  0  0  0  0
  -25.4369  -15.1857   20.4098 N   0  0  0  0  0  0
  -31.7623  -14.6399   20.0557 O   0  0  0  0  0  0
  -21.6629   -6.8881   21.4246 O   0  0  0  0  0  0
  -22.3575  -14.5574   20.6696 O   0  0  0  0  0  0
  -24.6094  -31.8692   23.2129 C   0  0  0  0  0  0
  -25.9005  -32.4827   23.8417 C   0  0  1  0  0  0
  -27.2445  -27.4769   20.0726 C   0  0  0  0  0  0
  -25.5876  -33.8629   24.2334 N   0  0  0  0  0  0
  -23.3964  -30.4930   21.5508 C   0  0  2  0  0  0
  -24.8447  -28.9592   20.1191 C   0  0  0  0  0  0
  -22.7376  -29.4657   22.4989 C   0  0  0  0  0  0
  -18.0258  -28.1359   22.8493 C   0  0  0  0  0  0
  -24.1484  -36.7331   23.2640 C   0  0  0  0  0  0
  -25.9220  -30.8429   21.3632 C   0  0  0  0  0  0
  -26.0005  -29.4777   20.7164 C   0  0  0  0  0  0
  -27.1995  -28.7362   20.7052 C   0  0  0  0  0  0
  -26.0684  -26.9533   19.4914 C   0  0  0  0  0  0
  -24.8698  -27.6909   19.5127 C   0  0  0  0  0  0
  -23.6050  -29.8219   20.1665 C   0  0  0  0  0  0
  -25.4100  -36.3116   24.0339 C   0  0  1  0  0  0
  -20.5844  -28.3639   23.1318 C   0  0  2  0  0  0
  -20.6739  -26.9379   22.5410 C   0  0  0  0  0  0
  -19.5729  -26.6369   21.5197 C   0  0  0  0  0  0
  -18.1905  -26.7912   22.1604 C   0  0  0  0  0  0
  -19.1506  -28.8813   23.2914 C   0  0  0  0  0  0
  -18.9440  -30.1419   23.8930 C   0  0  0  0  0  0
  -17.6442  -30.6569   24.0555 C   0  0  0  0  0  0
  -25.9021  -34.9478   23.5127 C   0  0  0  0  0  0
  -16.5330  -29.9069   23.6317 C   0  0  0  0  0  0
  -16.7247  -28.6478   23.0353 C   0  0  0  0  0  0
  -26.4468  -31.6603   25.0732 C   0  0  0  0  0  0
  -25.3777  -31.3697   26.1516 C   0  0  0  0  0  0
  -27.0279  -30.3038   24.6089 C   0  0  0  0  0  0
  -27.6040  -32.4339   25.7488 C   0  0  0  0  0  0
  -27.5585  -37.1814   24.8460 C   0  0  0  0  0  0
  -21.4106  -29.3018   22.3726 N   0  0  0  0  0  0
  -26.4288  -37.3801   23.9415 N   0  0  0  0  0  0
  -24.6602  -31.0827   22.1006 N   0  0  0  0  0  0
  -23.4161  -28.8190   23.3013 O   0  0  0  0  0  0
  -28.4363  -26.7928   20.0405 O   0  0  0  0  0  0
  -26.5578  -34.8921   22.4685 O   0  0  0  0  0  0
  -23.5293  -32.1425   23.7537 O   0  0  0  0  0  0
  -30.8295  -16.0721   22.3464 C   0  0  0  0  0  0
  -32.1995  -26.8605   17.5768 C   0  0  0  0  0  0
  -30.2858  -16.5874   23.6660 C   0  0  0  0  0  0
  -32.4506  -27.3408   22.3080 C   0  0  0  0  0  0
  -33.6790  -28.6297   19.6497 C   0  0  0  0  0  0
  -30.5395  -29.5953   17.3684 C   0  0  0  0  0  0
  -31.8880  -17.0006   21.7452 C   0  0  0  0  0  0
  -33.0741  -25.6716   18.0081 C   0  0  0  0  0  0
  -32.2274  -26.8652   20.8668 C   0  0  0  0  0  0
  -33.4547  -24.7016   16.8650 C   0  0  0  0  0  0
  -33.9739  -23.3461   17.3750 C   0  0  0  0  0  0
  -32.8396  -22.4287   17.8632 C   0  0  0  0  0  0
  -33.3383  -21.1741   18.5905 C   0  0  0  0  0  0
  -32.1667  -20.3275   19.1087 C   0  0  0  0  0  0
  -29.2060  -27.4361   17.7933 C   0  0  0  0  0  0
  -28.8557  -26.2909   18.7710 C   0  0  0  0  0  0
  -32.6109  -19.1542   19.9886 C   0  0  0  0  0  0
  -32.2753  -28.0109   19.8288 C   0  0  2  0  0  0
  -30.3489  -28.3672   18.2807 C   0  0  1  0  0  0
  -30.3662  -14.9548   21.9151 N   0  0  0  0  0  0
  -31.6358  -27.6604   18.5294 N   0  0  0  0  0  0
  -31.9374  -26.9814   16.3757 O   0  0  0  0  0  0
  -30.2732  -19.1248   21.2959 O   0  0  0  0  0  0
  -30.6036  -17.4875   19.4013 O   0  0  0  0  0  0
  -31.1578  -18.2021   20.5630 S   0  0  0  0  0  0
  -31.4579  -12.4078   19.0579 H   0  0  0  0  0  0
  -30.3247  -11.2723   19.7238 H   0  0  0  0  0  0
  -29.7052  -11.8513   17.3708 H   0  0  0  0  0  0
  -29.6363  -13.5478   17.7843 H   0  0  0  0  0  0
  -27.8182  -11.3257   18.7829 H   0  0  0  0  0  0
  -27.3418  -12.6808   17.7935 H   0  0  0  0  0  0
  -27.7374  -14.2540   19.6322 H   0  0  0  0  0  0
  -28.6787  -11.8612   21.2824 H   0  0  0  0  0  0
  -28.4447  -13.4628   21.8960 H   0  0  0  0  0  0
  -25.2750   -9.5684   22.4766 H   0  0  0  0  0  0
  -23.9988   -7.4635   22.7480 H   0  0  0  0  0  0
  -21.0829   -8.8778   19.8956 H   0  0  0  0  0  0
  -22.3693  -10.9675   19.6166 H   0  0  0  0  0  0
  -21.2000   -7.6148   23.9726 H   0  0  0  0  0  0
  -21.1480   -6.0519   25.9081 H   0  0  0  0  0  0
  -22.0595   -2.7613   23.2837 H   0  0  0  0  0  0
  -22.4102  -11.9895   22.4756 H   0  0  0  0  0  0
  -21.1137  -13.1309   22.2604 H   0  0  0  0  0  0
  -24.6790  -15.8497   20.5268 H   0  0  0  0  0  0
  -26.3067  -15.6214   20.1277 H   0  0  0  0  0  0
  -26.7071  -32.5561   23.1181 H   0  0  0  0  0  0
  -25.0069  -33.9817   25.0504 H   0  0  0  0  0  0
  -22.6847  -31.3084   21.4083 H   0  0  0  0  0  0
  -23.3739  -35.9671   23.3284 H   0  0  0  0  0  0
  -24.3599  -36.8959   22.2060 H   0  0  0  0  0  0
  -23.7232  -37.6528   23.6666 H   0  0  0  0  0  0
  -26.0327  -31.6071   20.5921 H   0  0  0  0  0  0
  -26.8105  -30.8978   21.9800 H   0  0  0  0  0  0
  -28.0970  -29.1382   21.1550 H   0  0  0  0  0  0
  -26.0669  -25.9789   19.0255 H   0  0  0  0  0  0
  -23.9785  -27.2803   19.0580 H   0  0  0  0  0  0
  -23.7106  -30.5947   19.4044 H   0  0  0  0  0  0
  -22.7306  -29.2371   19.8736 H   0  0  0  0  0  0
  -25.1271  -36.1981   25.0831 H   0  0  0  0  0  0
  -20.9953  -28.3195   24.1433 H   0  0  0  0  0  0
  -20.5598  -26.2260   23.3596 H   0  0  0  0  0  0
  -21.6616  -26.7401   22.1221 H   0  0  0  0  0  0
  -19.6895  -25.6279   21.1224 H   0  0  0  0  0  0
  -19.6673  -27.3182   20.6733 H   0  0  0  0  0  0
  -17.4177  -26.6660   21.4003 H   0  0  0  0  0  0
  -18.0310  -26.0032   22.8980 H   0  0  0  0  0  0
  -19.7918  -30.7216   24.2326 H   0  0  0  0  0  0
  -17.4997  -31.6265   24.5125 H   0  0  0  0  0  0
  -15.5329  -30.2975   23.7633 H   0  0  0  0  0  0
  -15.8643  -28.0795   22.7074 H   0  0  0  0  0  0
  -24.5938  -30.7040   25.7894 H   0  0  0  0  0  0
  -24.8999  -32.2849   26.5025 H   0  0  0  0  0  0
  -25.8188  -30.8855   27.0239 H   0  0  0  0  0  0
  -26.2799  -29.6805   24.1177 H   0  0  0  0  0  0
  -27.4063  -29.7268   25.4535 H   0  0  0  0  0  0
  -27.8636  -30.4321   23.9205 H   0  0  0  0  0  0
  -27.2645  -33.3633   26.2075 H   0  0  0  0  0  0
  -28.3855  -32.6915   25.0330 H   0  0  0  0  0  0
  -28.0709  -31.8474   26.5406 H   0  0  0  0  0  0
  -28.2587  -38.0126   24.7513 H   0  0  0  0  0  0
  -28.1088  -36.2654   24.6257 H   0  0  0  0  0  0
  -27.2322  -37.1436   25.8869 H   0  0  0  0  0  0
  -20.9237  -29.8784   21.7001 H   0  0  0  0  0  0
  -26.0169  -38.2875   24.1426 H   0  0  0  0  0  0
  -30.0204  -17.6418   23.5905 H   0  0  0  0  0  0
  -31.0334  -16.4732   24.4513 H   0  0  0  0  0  0
  -29.3925  -16.0377   23.9659 H   0  0  0  0  0  0
  -32.3661  -26.5062   23.0036 H   0  0  0  0  0  0
  -31.7136  -28.0893   22.6009 H   0  0  0  0  0  0
  -33.4417  -27.7739   22.4376 H   0  0  0  0  0  0
  -34.0222  -29.0956   20.5735 H   0  0  0  0  0  0
  -33.6666  -29.4127   18.8909 H   0  0  0  0  0  0
  -34.4392  -27.9055   19.3678 H   0  0  0  0  0  0
  -29.6116  -30.1613   17.2844 H   0  0  0  0  0  0
  -30.8440  -29.3222   16.3583 H   0  0  0  0  0  0
  -31.2946  -30.2723   17.7704 H   0  0  0  0  0  0
  -32.7039  -16.4685   21.2679 H   0  0  0  0  0  0
  -32.3514  -17.5821   22.5390 H   0  0  0  0  0  0
  -32.4957  -25.1280   18.7508 H   0  0  0  0  0  0
  -33.9829  -26.0109   18.4973 H   0  0  0  0  0  0
  -31.2588  -26.3670   20.8172 H   0  0  0  0  0  0
  -32.9789  -26.1071   20.6538 H   0  0  0  0  0  0
  -34.2243  -25.1743   16.2533 H   0  0  0  0  0  0
  -32.6082  -24.5260   16.1993 H   0  0  0  0  0  0
  -34.7057  -23.5084   18.1680 H   0  0  0  0  0  0
  -34.5087  -22.8415   16.5689 H   0  0  0  0  0  0
  -32.2184  -22.1388   17.0142 H   0  0  0  0  0  0
  -32.1810  -22.9730   18.5393 H   0  0  0  0  0  0
  -33.9687  -21.4728   19.4286 H   0  0  0  0  0  0
  -33.9653  -20.5781   17.9261 H   0  0  0  0  0  0
  -31.5825  -19.9534   18.2666 H   0  0  0  0  0  0
  -31.4910  -20.9601   19.6865 H   0  0  0  0  0  0
  -28.3124  -28.0363   17.6201 H   0  0  0  0  0  0
  -29.4412  -27.0091   16.8186 H   0  0  0  0  0  0
  -29.7311  -25.6629   18.9362 H   0  0  0  0  0  0
  -28.1102  -25.6295   18.3304 H   0  0  0  0  0  0
  -33.1459  -19.5051   20.8699 H   0  0  0  0  0  0
  -33.2657  -18.4714   19.4496 H   0  0  0  0  0  0
  -31.7078  -28.8266   20.2764 H   0  0  0  0  0  0
  -29.9652  -28.7644   19.2202 H   0  0  0  0  0  0
  1 25  1  0  0  0
  1 30  2  0  0  0
  1 90  1  0  0  0
  2  3  1  0  0  0
  2 25  1  0  0  0
  2 96  1  0  0  0
  2 97  1  0  0  0
  3  4  1  0  0  0
  3 98  1  0  0  0
  3 99  1  0  0  0
  4  5  1  0  0  0
  4100  1  0  0  0
  4101  1  0  0  0
  5  6  1  0  0  0
  5 26  1  0  0  0
  5102  1  0  0  0
  6 25  1  0  0  0
  6103  1  0  0  0
  6104  1  0  0  0
  7  8  2  0  0  0
  7 26  1  0  0  0
  7 29  1  0  0  0
  8  9  1  0  0  0
  8 22  1  0  0  0
  9 10  1  0  0  0
  9 27  2  0  0  0
 10 11  2  0  0  0
 10 15  1  0  0  0
 11 12  1  0  0  0
 11105  1  0  0  0
 12 13  2  0  0  0
 12106  1  0  0  0
 13 14  1  0  0  0
 13 31  1  0  0  0
 14 15  2  0  0  0
 14107  1  0  0  0
 15108  1  0  0  0
 16 17  2  0  0  0
 16 21  1  0  0  0
 16 31  1  0  0  0
 17 18  1  0  0  0
 17109  1  0  0  0
 18 19  2  0  0  0
 18110  1  0  0  0
 19 20  1  0  0  0
 19 24  1  0  0  0
 20 21  2  0  0  0
 20111  1  0  0  0
 21 23  1  0  0  0
 22 28  1  0  0  0
 22 32  2  0  0  0
 26 27  1  0  0  0
 28112  1  0  0  0
 28113  1  0  0  0
 29114  1  0  0  0
 29115  1  0  0  0
 33 34  1  0  0  0
 33 66  1  0  0  0
 33 70  2  0  0  0
 34 36  1  0  0  0
 34 59  1  0  0  0
 34116  1  0  0  0
 35 44  2  0  0  0
 35 45  1  0  0  0
 35 68  1  0  0  0
 36 56  1  0  0  0
 36117  1  0  0  0
 37 39  1  0  0  0
 37 47  1  0  0  0
 37 66  1  0  0  0
 37118  1  0  0  0
 38 43  2  0  0  0
 38 46  1  0  0  0
 38 47  1  0  0  0
 39 64  1  0  0  0
 39 67  2  0  0  0
 40 52  1  0  0  0
 40 53  2  0  0  0
 40 58  1  0  0  0
 41119  1  0  0  0
 41120  1  0  0  0
 41121  1  0  0  0
 41 48  1  0  0  0
 42 43  1  0  0  0
 42 66  1  0  0  0
 42122  1  0  0  0
 42123  1  0  0  0
 43 44  1  0  0  0
 44124  1  0  0  0
 45 46  2  0  0  0
 45125  1  0  0  0
 46126  1  0  0  0
 47127  1  0  0  0
 47128  1  0  0  0
 48 56  1  0  0  0
 48 65  1  0  0  0
 48129  1  0  0  0
 49 50  1  0  0  0
 49 53  1  0  0  0
 49 64  1  0  0  0
 49130  1  0  0  0
 50 51  1  0  0  0
 50131  1  0  0  0
 50132  1  0  0  0
 51 52  1  0  0  0
 51133  1  0  0  0
 51134  1  0  0  0
 52135  1  0  0  0
 52136  1  0  0  0
 53 54  1  0  0  0
 54 55  2  0  0  0
 54137  1  0  0  0
 55 57  1  0  0  0
 55138  1  0  0  0
 56 69  2  0  0  0
 57 58  2  0  0  0
 57139  1  0  0  0
 58140  1  0  0  0
 59 60  1  0  0  0
 59 61  1  0  0  0
 59 62  1  0  0  0
 60141  1  0  0  0
 60142  1  0  0  0
 60143  1  0  0  0
 61144  1  0  0  0
 61145  1  0  0  0
 61146  1  0  0  0
 62147  1  0  0  0
 62148  1  0  0  0
 62149  1  0  0  0
 63 65  1  0  0  0
 63150  1  0  0  0
 63151  1  0  0  0
 63152  1  0  0  0
 64153  1  0  0  0
 65154  1  0  0  0
 68 86  1  0  0  0
 71 73  1  0  0  0
 71 77  1  0  0  0
 71 90  2  0  0  0
 72 78  1  0  0  0
 72 91  1  0  0  0
 72 92  2  0  0  0
 73155  1  0  0  0
 73156  1  0  0  0
 73157  1  0  0  0
 74 79  1  0  0  0
 74158  1  0  0  0
 74159  1  0  0  0
 74160  1  0  0  0
 75161  1  0  0  0
 75162  1  0  0  0
 75163  1  0  0  0
 75 88  1  0  0  0
 76164  1  0  0  0
 76165  1  0  0  0
 76166  1  0  0  0
 76 89  1  0  0  0
 77167  1  0  0  0
 77168  1  0  0  0
 77 95  1  0  0  0
 78 80  1  0  0  0
 78169  1  0  0  0
 78170  1  0  0  0
 79 88  1  0  0  0
 79171  1  0  0  0
 79172  1  0  0  0
 80 81  1  0  0  0
 80173  1  0  0  0
 80174  1  0  0  0
 81 82  1  0  0  0
 81175  1  0  0  0
 81176  1  0  0  0
 82 83  1  0  0  0
 82177  1  0  0  0
 82178  1  0  0  0
 83 84  1  0  0  0
 83179  1  0  0  0
 83180  1  0  0  0
 84 87  1  0  0  0
 84181  1  0  0  0
 84182  1  0  0  0
 85 86  1  0  0  0
 85 89  1  0  0  0
 85183  1  0  0  0
 85184  1  0  0  0
 86185  1  0  0  0
 86186  1  0  0  0
 87 95  1  0  0  0
 87187  1  0  0  0
 87188  1  0  0  0
 88 91  1  0  0  0
 88189  1  0  0  0
 89 91  1  0  0  0
 89190  1  0  0  0
 93 95  2  0  0  0
 94 95  2  0  0  0
M  ISO  4   1 100  68 101  86 101  90 100
M  END
> <chiral flag>
0

> <version>
0

> <s_m_source_file>
/data/baiqing/PycharmProjects/Reinvent-master-3.2/result/LINK_invent/BTK/process_docking_weight1_custom_sum_contain_oxygen_bond_distance_aromatic_linkinvent_7_9_3/rearranged_h_0006.sdf

> <i_m_source_file_index>
11

> <r_mmod_Potential_Energy-OPLS-2005>
-94.2222671508789

> <r_mmod_Stretch_Energy-OPLS-2005>
41.5869789123535

> <r_mmod_Bend_Energy-OPLS-2005>
132.05322265625

> <r_mmod_Torsional_Energy-OPLS-2005>
232.636596679688

> <r_mmod_Improper_Torsional_Energy-OPLS-2005>
2.83724403381348

> <r_mmod_Van_der_Waal_Energy-OPLS-2005>
147.394927978516

> <r_mmod_Electrostatic_Energy-OPLS-2005>
-424.622863769531

> <r_mmod_Solvation_Energy-OPLS-2005>
-234.227447509766

> <b_mmod_Minimization_Converged-OPLS-2005>
0

> <r_mmod_RMS_Derivative-OPLS-2005>
1.19227731227875

$$$$
11
                    3D
 Structure written by MMmdl.
154162  0  0  1  0            999 V2000
  -30.4827  -15.3600   20.3849 C   0  0  0  0  0  0
  -30.4187  -12.8911   19.5131 C   0  0  0  0  0  0
  -29.5204  -12.5860   18.2933 C   0  0  0  0  0  0
  -28.0847  -12.2914   18.7497 C   0  0  0  0  0  0
  -27.5997  -13.2927   19.8259 C   0  0  2  0  0  0
  -28.6395  -13.5548   20.9405 C   0  0  0  0  0  0
  -25.2349  -13.8297   20.5894 C   0  0  0  0  0  0
  -24.1682  -13.0462   20.9278 C   0  0  0  0  0  0
  -24.6355  -11.6958   20.8809 C   0  0  0  0  0  0
  -23.9065  -10.4301   21.0477 C   0  0  0  0  0  0
  -24.3621   -9.4210   21.9235 C   0  0  0  0  0  0
  -23.6329   -8.2201   22.0731 C   0  0  0  0  0  0
  -22.4330   -8.0227   21.3499 C   0  0  0  0  0  0
  -21.9943   -9.0241   20.4644 C   0  0  0  0  0  0
  -22.7239  -10.2158   20.3102 C   0  0  0  0  0  0
  -21.6875   -6.0727   22.5280 C   0  0  0  0  0  0
  -21.4010   -6.5635   23.8208 C   0  0  0  0  0  0
  -21.3674   -5.6800   24.9174 C   0  0  0  0  0  0
  -21.6060   -4.3060   24.7234 C   0  0  0  0  0  0
  -21.8821   -3.8143   23.4355 C   0  0  0  0  0  0
  -21.9217   -4.6955   22.3407 C   0  0  0  0  0  0
  -22.7708  -13.5247   21.1907 C   0  0  0  0  0  0
  -22.1719   -4.2133   21.0992 F   0  0  0  0  0  0
  -21.5621   -3.4563   25.7757 F   0  0  0  0  0  0
  -29.8489  -14.0781   20.2787 N   0  0  0  0  0  0
  -26.2776  -12.9598   20.3405 N   0  0  0  0  0  0
  -25.9300  -11.6672   20.5818 N   0  0  0  0  0  0
  -22.0297  -12.8283   22.0446 N   0  0  0  0  0  0
  -25.3964  -15.2048   20.4412 N   0  0  0  0  0  0
  -31.7023  -15.2510   20.1902 O   0  0  0  0  0  0
  -21.6673   -6.8855   21.4232 O   0  0  0  0  0  0
  -22.3457  -14.5568   20.6725 O   0  0  0  0  0  0
  -24.6689  -31.8191   23.1631 C   0  0  0  0  0  0
  -25.9341  -32.4557   23.8133 C   0  0  1  0  0  0
  -27.2224  -26.8713   20.2129 C   0  0  0  0  0  0
  -25.5978  -33.8375   24.2022 N   0  0  0  0  0  0
  -23.4848  -30.4268   21.5163 C   0  0  2  0  0  0
  -24.9403  -28.7982   20.1212 C   0  0  0  0  0  0
  -22.7684  -29.4401   22.4763 C   0  0  0  0  0  0
  -18.0318  -28.1415   22.8472 C   0  0  0  0  0  0
  -24.1502  -36.7190   23.2649 C   0  0  0  0  0  0
  -26.0576  -30.6100   21.4012 C   0  0  0  0  0  0
  -26.1262  -29.1912   20.7532 C   0  0  0  0  0  0
  -27.2625  -28.2549   20.7610 C   0  0  0  0  0  0
  -26.0021  -26.6367   19.5402 C   0  0  0  0  0  0
  -24.9054  -27.5407   19.4957 C   0  0  0  0  0  0
  -23.7284  -29.7331   20.1479 C   0  0  0  0  0  0
  -25.4140  -36.2941   24.0296 C   0  0  1  0  0  0
  -20.5940  -28.3754   23.1179 C   0  0  2  0  0  0
  -20.6800  -26.9427   22.5400 C   0  0  0  0  0  0
  -19.5777  -26.6381   21.5213 C   0  0  0  0  0  0
  -18.1953  -26.7945   22.1622 C   0  0  0  0  0  0
  -19.1584  -28.8904   23.2809 C   0  0  0  0  0  0
  -18.9489  -30.1487   23.8848 C   0  0  0  0  0  0
  -17.6482  -30.6601   24.0552 C   0  0  0  0  0  0
  -25.9115  -34.9332   23.4982 C   0  0  0  0  0  0
  -16.5367  -29.9088   23.6343 C   0  0  0  0  0  0
  -16.7293  -28.6506   23.0366 C   0  0  0  0  0  0
  -26.4575  -31.6504   25.0669 C   0  0  0  0  0  0
  -25.3685  -31.3753   26.1302 C   0  0  0  0  0  0
  -27.0473  -30.2864   24.6418 C   0  0  0  0  0  0
  -27.6061  -32.4329   25.7466 C   0  0  0  0  0  0
  -27.5565  -37.1739   24.8463 C   0  0  0  0  0  0
  -21.4342  -29.3039   22.3516 N   0  0  0  0  0  0
  -26.4271  -37.3686   23.9410 N   0  0  0  0  0  0
  -24.7587  -30.9802   22.0796 N   0  0  0  0  0  0
  -23.4196  -28.7980   23.3046 O   0  0  0  0  0  0
  -28.2503  -25.7686   20.1955 O   0  0  0  0  0  0
  -26.5732  -34.8873   22.4587 O   0  0  0  0  0  0
  -23.5739  -32.1207   23.6662 O   0  0  0  0  0  0
  -28.6338  -17.1923   18.6916 C   0  0  0  0  0  0
  -28.3253  -19.9161   18.4304 C   0  0  0  0  0  0
  -27.9477  -17.6946   17.5877 C   0  0  0  0  0  0
  -27.8246  -19.0718   17.4364 C   0  0  0  0  0  0
  -29.2114  -17.9454   19.7504 C   0  0  0  0  0  0
  -28.9242  -19.5459   19.6698 C   0  0  0  0  0  0
  -27.3555  -16.7361   16.5669 C   0  0  0  0  0  0
  -27.1201  -19.6732   16.2291 C   0  0  0  0  0  0
  -28.1690  -24.1421   20.6211 C   0  0  0  0  0  0
  -28.5649  -22.4719   19.9491 C   0  0  0  0  0  0
  -29.9199  -16.7531   20.5999 N   0  0  0  0  0  0
  -29.0172  -20.8987   20.4332 O   0  0  0  0  0  0
  -31.4326  -13.0785   19.1584 H   0  0  0  0  0  0
  -30.5051  -12.0123   20.1567 H   0  0  0  0  0  0
  -29.9164  -11.7402   17.7306 H   0  0  0  0  0  0
  -29.5206  -13.4353   17.6088 H   0  0  0  0  0  0
  -28.0761  -11.2835   19.1638 H   0  0  0  0  0  0
  -27.4011  -12.2847   17.9001 H   0  0  0  0  0  0
  -27.4842  -14.2356   19.2916 H   0  0  0  0  0  0
  -28.8528  -12.6712   21.5443 H   0  0  0  0  0  0
  -28.2628  -14.3166   21.6285 H   0  0  0  0  0  0
  -25.2713   -9.5727   22.4884 H   0  0  0  0  0  0
  -24.0040   -7.4604   22.7436 H   0  0  0  0  0  0
  -21.0898   -8.8699   19.8924 H   0  0  0  0  0  0
  -22.3612  -10.9692   19.6249 H   0  0  0  0  0  0
  -21.1994   -7.6136   23.9716 H   0  0  0  0  0  0
  -21.1526   -6.0518   25.9090 H   0  0  0  0  0  0
  -22.0620   -2.7601   23.2857 H   0  0  0  0  0  0
  -22.3829  -11.9895   22.4814 H   0  0  0  0  0  0
  -21.1021  -13.1502   22.2796 H   0  0  0  0  0  0
  -24.6117  -15.8427   20.5194 H   0  0  0  0  0  0
  -26.2568  -15.6715   20.1865 H   0  0  0  0  0  0
  -26.7413  -32.5084   23.0850 H   0  0  0  0  0  0
  -25.0036  -33.9457   25.0109 H   0  0  0  0  0  0
  -22.7990  -31.2584   21.3391 H   0  0  0  0  0  0
  -23.3775  -35.9509   23.3276 H   0  0  0  0  0  0
  -24.3582  -36.8877   22.2070 H   0  0  0  0  0  0
  -23.7257  -37.6362   23.6744 H   0  0  0  0  0  0
  -26.2395  -31.3470   20.6176 H   0  0  0  0  0  0
  -26.9154  -30.6735   22.0582 H   0  0  0  0  0  0
  -28.1687  -28.5663   21.2587 H   0  0  0  0  0  0
  -25.8743  -25.6804   19.0516 H   0  0  0  0  0  0
  -24.0043  -27.2311   18.9832 H   0  0  0  0  0  0
  -23.8836  -30.4976   19.3858 H   0  0  0  0  0  0
  -22.8385  -29.1863   19.8318 H   0  0  0  0  0  0
  -25.1345  -36.1721   25.0788 H   0  0  0  0  0  0
  -21.0032  -28.3382   24.1302 H   0  0  0  0  0  0
  -20.5687  -26.2366   23.3643 H   0  0  0  0  0  0
  -21.6664  -26.7408   22.1200 H   0  0  0  0  0  0
  -19.6945  -25.6285   21.1272 H   0  0  0  0  0  0
  -19.6733  -27.3175   20.6730 H   0  0  0  0  0  0
  -17.4222  -26.6665   21.4024 H   0  0  0  0  0  0
  -18.0349  -26.0091   22.9027 H   0  0  0  0  0  0
  -19.7955  -30.7317   24.2203 H   0  0  0  0  0  0
  -17.5028  -31.6284   24.5165 H   0  0  0  0  0  0
  -15.5366  -30.2985   23.7699 H   0  0  0  0  0  0
  -15.8681  -28.0815   22.7126 H   0  0  0  0  0  0
  -24.5903  -30.7073   25.7584 H   0  0  0  0  0  0
  -24.8835  -32.2945   26.4594 H   0  0  0  0  0  0
  -25.7911  -30.8995   27.0156 H   0  0  0  0  0  0
  -26.3139  -29.6517   24.1420 H   0  0  0  0  0  0
  -27.3989  -29.7250   25.5083 H   0  0  0  0  0  0
  -27.9090  -30.4027   23.9842 H   0  0  0  0  0  0
  -27.2629  -33.3685   26.1887 H   0  0  0  0  0  0
  -28.3933  -32.6789   25.0331 H   0  0  0  0  0  0
  -28.0648  -31.8550   26.5493 H   0  0  0  0  0  0
  -28.2543  -38.0065   24.7515 H   0  0  0  0  0  0
  -28.1090  -36.2591   24.6284 H   0  0  0  0  0  0
  -27.2276  -37.1361   25.8858 H   0  0  0  0  0  0
  -20.9602  -29.8681   21.6604 H   0  0  0  0  0  0
  -26.0110  -38.2734   24.1436 H   0  0  0  0  0  0
  -28.7085  -16.1176   18.6859 H   0  0  0  0  0  0
  -28.1892  -20.9419   18.1637 H   0  0  0  0  0  0
  -26.2714  -16.8391   16.5520 H   0  0  0  0  0  0
  -27.5873  -15.6967   16.8001 H   0  0  0  0  0  0
  -27.7302  -16.9468   15.5649 H   0  0  0  0  0  0
  -27.1950  -20.7611   16.2167 H   0  0  0  0  0  0
  -26.0591  -19.4205   16.2388 H   0  0  0  0  0  0
  -27.5532  -19.3067   15.2997 H   0  0  0  0  0  0
  -28.7750  -24.1643   21.5270 H   0  0  0  0  0  0
  -27.1531  -24.0372   21.0021 H   0  0  0  0  0  0
  -29.2475  -22.6838   19.1262 H   0  0  0  0  0  0
  -27.5949  -22.2977   19.4888 H   0  0  0  0  0  0
  -30.5527  -17.1898   21.2568 H   0  0  0  0  0  0
  1 25  1  0  0  0
  1 30  2  0  0  0
  1 81  1  0  0  0
  2  3  1  0  0  0
  2 25  1  0  0  0
  2 83  1  0  0  0
  2 84  1  0  0  0
  3  4  1  0  0  0
  3 85  1  0  0  0
  3 86  1  0  0  0
  4  5  1  0  0  0
  4 87  1  0  0  0
  4 88  1  0  0  0
  5  6  1  0  0  0
  5 26  1  0  0  0
  5 89  1  0  0  0
  6 25  1  0  0  0
  6 90  1  0  0  0
  6 91  1  0  0  0
  7  8  2  0  0  0
  7 26  1  0  0  0
  7 29  1  0  0  0
  8  9  1  0  0  0
  8 22  1  0  0  0
  9 10  1  0  0  0
  9 27  2  0  0  0
 10 11  2  0  0  0
 10 15  1  0  0  0
 11 12  1  0  0  0
 11 92  1  0  0  0
 12 13  2  0  0  0
 12 93  1  0  0  0
 13 14  1  0  0  0
 13 31  1  0  0  0
 14 15  2  0  0  0
 14 94  1  0  0  0
 15 95  1  0  0  0
 16 17  2  0  0  0
 16 21  1  0  0  0
 16 31  1  0  0  0
 17 18  1  0  0  0
 17 96  1  0  0  0
 18 19  2  0  0  0
 18 97  1  0  0  0
 19 20  1  0  0  0
 19 24  1  0  0  0
 20 21  2  0  0  0
 20 98  1  0  0  0
 21 23  1  0  0  0
 22 28  1  0  0  0
 22 32  2  0  0  0
 26 27  1  0  0  0
 28 99  1  0  0  0
 28100  1  0  0  0
 29101  1  0  0  0
 29102  1  0  0  0
 33 34  1  0  0  0
 33 66  1  0  0  0
 33 70  2  0  0  0
 34 36  1  0  0  0
 34 59  1  0  0  0
 34103  1  0  0  0
 35 44  2  0  0  0
 35 45  1  0  0  0
 35 68  1  0  0  0
 36 56  1  0  0  0
 36104  1  0  0  0
 37 39  1  0  0  0
 37 47  1  0  0  0
 37 66  1  0  0  0
 37105  1  0  0  0
 38 43  2  0  0  0
 38 46  1  0  0  0
 38 47  1  0  0  0
 39 64  1  0  0  0
 39 67  2  0  0  0
 40 52  1  0  0  0
 40 53  2  0  0  0
 40 58  1  0  0  0
 41106  1  0  0  0
 41107  1  0  0  0
 41108  1  0  0  0
 41 48  1  0  0  0
 42 43  1  0  0  0
 42 66  1  0  0  0
 42109  1  0  0  0
 42110  1  0  0  0
 43 44  1  0  0  0
 44111  1  0  0  0
 45 46  2  0  0  0
 45112  1  0  0  0
 46113  1  0  0  0
 47114  1  0  0  0
 47115  1  0  0  0
 48 56  1  0  0  0
 48 65  1  0  0  0
 48116  1  0  0  0
 49 50  1  0  0  0
 49 53  1  0  0  0
 49 64  1  0  0  0
 49117  1  0  0  0
 50 51  1  0  0  0
 50118  1  0  0  0
 50119  1  0  0  0
 51 52  1  0  0  0
 51120  1  0  0  0
 51121  1  0  0  0
 52122  1  0  0  0
 52123  1  0  0  0
 53 54  1  0  0  0
 54 55  2  0  0  0
 54124  1  0  0  0
 55 57  1  0  0  0
 55125  1  0  0  0
 56 69  2  0  0  0
 57 58  2  0  0  0
 57126  1  0  0  0
 58127  1  0  0  0
 59 60  1  0  0  0
 59 61  1  0  0  0
 59 62  1  0  0  0
 60128  1  0  0  0
 60129  1  0  0  0
 60130  1  0  0  0
 61131  1  0  0  0
 61132  1  0  0  0
 61133  1  0  0  0
 62134  1  0  0  0
 62135  1  0  0  0
 62136  1  0  0  0
 63 65  1  0  0  0
 63137  1  0  0  0
 63138  1  0  0  0
 63139  1  0  0  0
 64140  1  0  0  0
 65141  1  0  0  0
 68 79  1  0  0  0
 71 73  2  0  0  0
 71 75  1  0  0  0
 71142  1  0  0  0
 72 74  2  0  0  0
 72 76  1  0  0  0
 72143  1  0  0  0
 73 74  1  0  0  0
 73 77  1  0  0  0
 74 78  1  0  0  0
 75 76  2  0  0  0
 75 81  1  0  0  0
 76 82  1  0  0  0
 77144  1  0  0  0
 77145  1  0  0  0
 77146  1  0  0  0
 78147  1  0  0  0
 78148  1  0  0  0
 78149  1  0  0  0
 79 80  1  0  0  0
 79150  1  0  0  0
 79151  1  0  0  0
 80 82  1  0  0  0
 80152  1  0  0  0
 80153  1  0  0  0
 81154  1  0  0  0
M  ISO  4   1 100  68 101  79 101  81 100
M  END
> <chiral flag>
0

> <version>
0

> <s_m_source_file>
/data/baiqing/PycharmProjects/Reinvent-master-3.2/result/LINK_invent/BTK/process_docking_weight1_custom_sum_contain_oxygen_bond_distance_aromatic_linkinvent_7_9_3/rearranged_h_0006.sdf

> <i_m_source_file_index>
12

> <r_mmod_Potential_Energy-OPLS-2005>
1811.03979492188

> <r_mmod_Stretch_Energy-OPLS-2005>
777.014953613281

> <r_mmod_Bend_Energy-OPLS-2005>
667.227661132812

> <r_mmod_Torsional_Energy-OPLS-2005>
277.928833007812

> <r_mmod_Improper_Torsional_Energy-OPLS-2005>
5.28456926345825

> <r_mmod_Van_der_Waal_Energy-OPLS-2005>
145.432312011719

> <r_mmod_Electrostatic_Energy-OPLS-2005>
-398.403198242188

> <r_mmod_Solvation_Energy-OPLS-2005>
-207.077423095703

> <b_mmod_Minimization_Converged-OPLS-2005>
0

> <r_mmod_RMS_Derivative-OPLS-2005>
4.52633190155029

$$$$
12
                    3D
 Structure written by MMmdl.
173181  0  0  1  0            999 V2000
  -30.7519  -14.3666   20.6780 C   0  0  0  0  0  0
  -30.4160  -12.2798   19.4069 C   0  0  0  0  0  0
  -29.4895  -12.5150   18.1978 C   0  0  0  0  0  0
  -28.0057  -12.3857   18.6006 C   0  0  0  0  0  0
  -27.6627  -13.1979   19.8744 C   0  0  2  0  0  0
  -28.6916  -12.9016   20.9807 C   0  0  0  0  0  0
  -25.2556  -13.8157   20.5654 C   0  0  0  0  0  0
  -24.1801  -13.0439   20.9198 C   0  0  0  0  0  0
  -24.6335  -11.6908   20.8738 C   0  0  0  0  0  0
  -23.9002  -10.4292   21.0408 C   0  0  0  0  0  0
  -24.3565   -9.4223   21.9199 C   0  0  0  0  0  0
  -23.6267   -8.2239   22.0744 C   0  0  0  0  0  0
  -22.4249   -8.0264   21.3545 C   0  0  0  0  0  0
  -21.9875   -9.0239   20.4648 C   0  0  0  0  0  0
  -22.7180  -10.2133   20.3064 C   0  0  0  0  0  0
  -21.6843   -6.0728   22.5287 C   0  0  0  0  0  0
  -21.4013   -6.5635   23.8229 C   0  0  0  0  0  0
  -21.3661   -5.6782   24.9189 C   0  0  0  0  0  0
  -21.6036   -4.3039   24.7232 C   0  0  0  0  0  0
  -21.8816   -3.8143   23.4347 C   0  0  0  0  0  0
  -21.9183   -4.6958   22.3408 C   0  0  0  0  0  0
  -22.7835  -13.5236   21.1901 C   0  0  0  0  0  0
  -22.1661   -4.2152   21.0984 F   0  0  0  0  0  0
  -21.5638   -3.4512   25.7736 F   0  0  0  0  0  0
  -30.0380  -13.2236   20.4731 N   0  0  0  0  0  0
  -26.2984  -12.9314   20.3321 N   0  0  0  0  0  0
  -25.9246  -11.6481   20.5713 N   0  0  0  0  0  0
  -22.0438  -12.8228   22.0426 N   0  0  0  0  0  0
  -25.4252  -15.1875   20.4043 N   0  0  0  0  0  0
  -31.7784  -14.6339   20.0521 O   0  0  0  0  0  0
  -21.6622   -6.8864   21.4244 O   0  0  0  0  0  0
  -22.3550  -14.5579   20.6779 O   0  0  0  0  0  0
  -24.6139  -31.8684   23.2109 C   0  0  0  0  0  0
  -25.9042  -32.4817   23.8396 C   0  0  1  0  0  0
  -27.2353  -27.4611   20.0856 C   0  0  0  0  0  0
  -25.5912  -33.8622   24.2331 N   0  0  0  0  0  0
  -23.3979  -30.4955   21.5499 C   0  0  2  0  0  0
  -24.8407  -28.9589   20.1159 C   0  0  0  0  0  0
  -22.7394  -29.4678   22.4987 C   0  0  0  0  0  0
  -18.0277  -28.1376   22.8506 C   0  0  0  0  0  0
  -24.1484  -36.7331   23.2641 C   0  0  0  0  0  0
  -25.9256  -30.8400   21.3595 C   0  0  0  0  0  0
  -25.9991  -29.4768   20.7063 C   0  0  0  0  0  0
  -27.1972  -28.7356   20.6872 C   0  0  0  0  0  0
  -26.0576  -26.9431   19.5005 C   0  0  0  0  0  0
  -24.8628  -27.6892   19.5125 C   0  0  0  0  0  0
  -23.6043  -29.8267   20.1643 C   0  0  0  0  0  0
  -25.4102  -36.3110   24.0340 C   0  0  1  0  0  0
  -20.5858  -28.3660   23.1323 C   0  0  2  0  0  0
  -20.6764  -26.9399   22.5417 C   0  0  0  0  0  0
  -19.5737  -26.6383   21.5217 C   0  0  0  0  0  0
  -18.1912  -26.7928   22.1630 C   0  0  0  0  0  0
  -19.1521  -28.8835   23.2918 C   0  0  0  0  0  0
  -18.9454  -30.1445   23.8918 C   0  0  0  0  0  0
  -17.6454  -30.6578   24.0579 C   0  0  0  0  0  0
  -25.9031  -34.9477   23.5125 C   0  0  0  0  0  0
  -16.5346  -29.9087   23.6329 C   0  0  0  0  0  0
  -16.7263  -28.6507   23.0343 C   0  0  0  0  0  0
  -26.4484  -31.6590   25.0722 C   0  0  0  0  0  0
  -25.3776  -31.3695   26.1493 C   0  0  0  0  0  0
  -27.0314  -30.3037   24.6079 C   0  0  0  0  0  0
  -27.6052  -32.4309   25.7483 C   0  0  0  0  0  0
  -27.5579  -37.1821   24.8465 C   0  0  0  0  0  0
  -21.4129  -29.3042   22.3731 N   0  0  0  0  0  0
  -26.4287  -37.3797   23.9408 N   0  0  0  0  0  0
  -24.6638  -31.0825   22.0974 N   0  0  0  0  0  0
  -23.4187  -28.8219   23.3005 O   0  0  0  0  0  0
  -28.4365  -26.7898   20.0649 O   0  0  0  0  0  0
  -26.5580  -34.8923   22.4682 O   0  0  0  0  0  0
  -23.5336  -32.1420   23.7529 O   0  0  0  0  0  0
  -26.3654  -19.2836   24.5244 C   0  0  0  0  0  0
  -26.8657  -20.4866   23.9873 C   0  0  0  0  0  0
  -29.0338  -20.0153   24.9860 C   0  0  0  0  0  0
  -27.1978  -18.4417   25.2939 C   0  0  0  0  0  0
  -28.2123  -20.8621   24.2177 C   0  0  0  0  0  0
  -28.5375  -18.8192   25.5308 C   0  0  0  0  0  0
  -26.6812  -16.1738   24.9006 C   0  0  0  0  0  0
  -25.5587  -16.1103   27.7232 C   0  0  0  0  0  0
  -28.0102  -15.4692   24.6017 C   0  0  0  0  0  0
  -28.5142  -15.7775   23.1818 C   0  0  0  0  0  0
  -27.9420  -24.9122   21.5305 C   0  0  0  0  0  0
  -28.4471  -23.5155   21.9116 C   0  0  0  0  0  0
  -26.7624  -16.9224   27.2131 C   0  0  0  0  0  0
  -29.8948  -15.1614   22.8891 C   0  0  0  0  0  0
  -28.4321  -25.3676   20.1463 C   0  0  0  0  0  0
  -28.0393  -23.1204   23.3349 C   0  0  0  0  0  0
  -30.2269  -15.3089   21.4740 N   0  0  0  0  0  0
  -26.7028  -17.2010   25.7721 N   0  0  0  0  0  0
  -25.6601  -15.8484   24.2892 O   0  0  0  0  0  0
  -28.8170  -21.9924   23.7175 O   0  0  0  0  0  0
  -29.3652  -18.0219   26.2473 F   0  0  0  0  0  0
  -31.4594  -12.3812   19.1024 H   0  0  0  0  0  0
  -30.3132  -11.2534   19.7658 H   0  0  0  0  0  0
  -29.7226  -11.8061   17.4026 H   0  0  0  0  0  0
  -29.6757  -13.5057   17.7828 H   0  0  0  0  0  0
  -27.7993  -11.3294   18.7731 H   0  0  0  0  0  0
  -27.3646  -12.6940   17.7744 H   0  0  0  0  0  0
  -27.7335  -14.2571   19.6243 H   0  0  0  0  0  0
  -28.6559  -11.8453   21.2508 H   0  0  0  0  0  0
  -28.4002  -13.4165   21.8856 H   0  0  0  0  0  0
  -25.2712   -9.5715   22.4768 H   0  0  0  0  0  0
  -23.9996   -7.4622   22.7450 H   0  0  0  0  0  0
  -21.0800   -8.8745   19.8957 H   0  0  0  0  0  0
  -22.3631  -10.9675   19.6163 H   0  0  0  0  0  0
  -21.2014   -7.6147   23.9737 H   0  0  0  0  0  0
  -21.1497   -6.0513   25.9101 H   0  0  0  0  0  0
  -22.0590   -2.7601   23.2842 H   0  0  0  0  0  0
  -22.3985  -11.9838   22.4793 H   0  0  0  0  0  0
  -21.1081  -13.1313   22.2657 H   0  0  0  0  0  0
  -24.6669  -15.8425   20.5629 H   0  0  0  0  0  0
  -26.2844  -15.6385   20.1152 H   0  0  0  0  0  0
  -26.7123  -32.5520   23.1170 H   0  0  0  0  0  0
  -25.0134  -33.9794   25.0528 H   0  0  0  0  0  0
  -22.6859  -31.3122   21.4129 H   0  0  0  0  0  0
  -23.3726  -35.9687   23.3309 H   0  0  0  0  0  0
  -24.3599  -36.8932   22.2056 H   0  0  0  0  0  0
  -23.7244  -37.6548   23.6647 H   0  0  0  0  0  0
  -26.0381  -31.6058   20.5907 H   0  0  0  0  0  0
  -26.8142  -30.8913   21.9764 H   0  0  0  0  0  0
  -28.0939  -29.1400   21.1386 H   0  0  0  0  0  0
  -26.0434  -25.9771   19.0178 H   0  0  0  0  0  0
  -23.9730  -27.2853   19.0508 H   0  0  0  0  0  0
  -23.7168  -30.6019   19.4055 H   0  0  0  0  0  0
  -22.7267  -29.2502   19.8637 H   0  0  0  0  0  0
  -25.1272  -36.1989   25.0831 H   0  0  0  0  0  0
  -20.9974  -28.3222   24.1436 H   0  0  0  0  0  0
  -20.5668  -26.2277   23.3612 H   0  0  0  0  0  0
  -21.6637  -26.7441   22.1206 H   0  0  0  0  0  0
  -19.6890  -25.6296   21.1229 H   0  0  0  0  0  0
  -19.6663  -27.3221   20.6761 H   0  0  0  0  0  0
  -17.4198  -26.6709   21.4010 H   0  0  0  0  0  0
  -18.0291  -26.0054   22.8998 H   0  0  0  0  0  0
  -19.7925  -30.7259   24.2283 H   0  0  0  0  0  0
  -17.5006  -31.6256   24.5184 H   0  0  0  0  0  0
  -15.5348  -30.2994   23.7620 H   0  0  0  0  0  0
  -15.8670  -28.0830   22.7020 H   0  0  0  0  0  0
  -24.5946  -30.7029   25.7863 H   0  0  0  0  0  0
  -24.8996  -32.2859   26.4957 H   0  0  0  0  0  0
  -25.8176  -30.8873   27.0235 H   0  0  0  0  0  0
  -26.2843  -29.6779   24.1184 H   0  0  0  0  0  0
  -27.4154  -29.7279   25.4513 H   0  0  0  0  0  0
  -27.8647  -30.4363   23.9175 H   0  0  0  0  0  0
  -27.2656  -33.3585   26.2101 H   0  0  0  0  0  0
  -28.3851  -32.6899   25.0309 H   0  0  0  0  0  0
  -28.0748  -31.8422   26.5375 H   0  0  0  0  0  0
  -28.2601  -38.0110   24.7503 H   0  0  0  0  0  0
  -28.1056  -36.2645   24.6283 H   0  0  0  0  0  0
  -27.2318  -37.1473   25.8873 H   0  0  0  0  0  0
  -20.9272  -29.8806   21.7004 H   0  0  0  0  0  0
  -26.0172  -38.2877   24.1391 H   0  0  0  0  0  0
  -25.3406  -19.0038   24.3290 H   0  0  0  0  0  0
  -26.1964  -21.0817   23.3835 H   0  0  0  0  0  0
  -30.0647  -20.2850   25.1605 H   0  0  0  0  0  0
  -25.6141  -15.9760   28.8030 H   0  0  0  0  0  0
  -25.5207  -15.1156   27.2769 H   0  0  0  0  0  0
  -24.6191  -16.6179   27.5018 H   0  0  0  0  0  0
  -27.8679  -14.3951   24.7229 H   0  0  0  0  0  0
  -28.7622  -15.7575   25.3358 H   0  0  0  0  0  0
  -28.5757  -16.8575   23.0439 H   0  0  0  0  0  0
  -27.7722  -15.4348   22.4588 H   0  0  0  0  0  0
  -28.2955  -25.6236   22.2776 H   0  0  0  0  0  0
  -26.8523  -24.9441   21.5713 H   0  0  0  0  0  0
  -29.5359  -23.5037   21.8411 H   0  0  0  0  0  0
  -28.0851  -22.7739   21.1995 H   0  0  0  0  0  0
  -27.6862  -16.3937   27.4502 H   0  0  0  0  0  0
  -26.7969  -17.8672   27.7590 H   0  0  0  0  0  0
  -29.9497  -14.1207   23.2132 H   0  0  0  0  0  0
  -30.6563  -15.6825   23.4713 H   0  0  0  0  0  0
  -27.8741  -24.8918   19.3397 H   0  0  0  0  0  0
  -29.4672  -25.0516   20.0103 H   0  0  0  0  0  0
  -26.9593  -23.0084   23.4034 H   0  0  0  0  0  0
  -28.2941  -23.9201   24.0313 H   0  0  0  0  0  0
  -30.6282  -16.2139   21.2703 H   0  0  0  0  0  0
  1 25  1  0  0  0
  1 30  2  0  0  0
  1 87  1  0  0  0
  2  3  1  0  0  0
  2 25  1  0  0  0
  2 92  1  0  0  0
  2 93  1  0  0  0
  3  4  1  0  0  0
  3 94  1  0  0  0
  3 95  1  0  0  0
  4  5  1  0  0  0
  4 96  1  0  0  0
  4 97  1  0  0  0
  5  6  1  0  0  0
  5 26  1  0  0  0
  5 98  1  0  0  0
  6 25  1  0  0  0
  6 99  1  0  0  0
  6100  1  0  0  0
  7  8  2  0  0  0
  7 26  1  0  0  0
  7 29  1  0  0  0
  8  9  1  0  0  0
  8 22  1  0  0  0
  9 10  1  0  0  0
  9 27  2  0  0  0
 10 11  2  0  0  0
 10 15  1  0  0  0
 11 12  1  0  0  0
 11101  1  0  0  0
 12 13  2  0  0  0
 12102  1  0  0  0
 13 14  1  0  0  0
 13 31  1  0  0  0
 14 15  2  0  0  0
 14103  1  0  0  0
 15104  1  0  0  0
 16 17  2  0  0  0
 16 21  1  0  0  0
 16 31  1  0  0  0
 17 18  1  0  0  0
 17105  1  0  0  0
 18 19  2  0  0  0
 18106  1  0  0  0
 19 20  1  0  0  0
 19 24  1  0  0  0
 20 21  2  0  0  0
 20107  1  0  0  0
 21 23  1  0  0  0
 22 28  1  0  0  0
 22 32  2  0  0  0
 26 27  1  0  0  0
 28108  1  0  0  0
 28109  1  0  0  0
 29110  1  0  0  0
 29111  1  0  0  0
 33 34  1  0  0  0
 33 66  1  0  0  0
 33 70  2  0  0  0
 34 36  1  0  0  0
 34 59  1  0  0  0
 34112  1  0  0  0
 35 44  2  0  0  0
 35 45  1  0  0  0
 35 68  1  0  0  0
 36 56  1  0  0  0
 36113  1  0  0  0
 37 39  1  0  0  0
 37 47  1  0  0  0
 37 66  1  0  0  0
 37114  1  0  0  0
 38 43  2  0  0  0
 38 46  1  0  0  0
 38 47  1  0  0  0
 39 64  1  0  0  0
 39 67  2  0  0  0
 40 52  1  0  0  0
 40 53  2  0  0  0
 40 58  1  0  0  0
 41115  1  0  0  0
 41116  1  0  0  0
 41117  1  0  0  0
 41 48  1  0  0  0
 42 43  1  0  0  0
 42 66  1  0  0  0
 42118  1  0  0  0
 42119  1  0  0  0
 43 44  1  0  0  0
 44120  1  0  0  0
 45 46  2  0  0  0
 45121  1  0  0  0
 46122  1  0  0  0
 47123  1  0  0  0
 47124  1  0  0  0
 48 56  1  0  0  0
 48 65  1  0  0  0
 48125  1  0  0  0
 49 50  1  0  0  0
 49 53  1  0  0  0
 49 64  1  0  0  0
 49126  1  0  0  0
 50 51  1  0  0  0
 50127  1  0  0  0
 50128  1  0  0  0
 51 52  1  0  0  0
 51129  1  0  0  0
 51130  1  0  0  0
 52131  1  0  0  0
 52132  1  0  0  0
 53 54  1  0  0  0
 54 55  2  0  0  0
 54133  1  0  0  0
 55 57  1  0  0  0
 55134  1  0  0  0
 56 69  2  0  0  0
 57 58  2  0  0  0
 57135  1  0  0  0
 58136  1  0  0  0
 59 60  1  0  0  0
 59 61  1  0  0  0
 59 62  1  0  0  0
 60137  1  0  0  0
 60138  1  0  0  0
 60139  1  0  0  0
 61140  1  0  0  0
 61141  1  0  0  0
 61142  1  0  0  0
 62143  1  0  0  0
 62144  1  0  0  0
 62145  1  0  0  0
 63 65  1  0  0  0
 63146  1  0  0  0
 63147  1  0  0  0
 63148  1  0  0  0
 64149  1  0  0  0
 65150  1  0  0  0
 68 85  1  0  0  0
 71 72  2  0  0  0
 71 74  1  0  0  0
 71151  1  0  0  0
 72 75  1  0  0  0
 72152  1  0  0  0
 73 75  2  0  0  0
 73 76  1  0  0  0
 73153  1  0  0  0
 74 76  2  0  0  0
 74 88  1  0  0  0
 75 90  1  0  0  0
 76 91  1  0  0  0
 77 79  1  0  0  0
 77 88  1  0  0  0
 77 89  2  0  0  0
 78 83  1  0  0  0
 78154  1  0  0  0
 78155  1  0  0  0
 78156  1  0  0  0
 79 80  1  0  0  0
 79157  1  0  0  0
 79158  1  0  0  0
 80 84  1  0  0  0
 80159  1  0  0  0
 80160  1  0  0  0
 81 82  1  0  0  0
 81 85  1  0  0  0
 81161  1  0  0  0
 81162  1  0  0  0
 82 86  1  0  0  0
 82163  1  0  0  0
 82164  1  0  0  0
 83 88  1  0  0  0
 83165  1  0  0  0
 83166  1  0  0  0
 84 87  1  0  0  0
 84167  1  0  0  0
 84168  1  0  0  0
 85169  1  0  0  0
 85170  1  0  0  0
 86 90  1  0  0  0
 86171  1  0  0  0
 86172  1  0  0  0
 87173  1  0  0  0
M  ISO  4   1 100  68 101  85 101  87 100
M  END
> <chiral flag>
0

> <version>
0

> <s_m_source_file>
/data/baiqing/PycharmProjects/Reinvent-master-3.2/result/LINK_invent/BTK/process_docking_weight1_custom_sum_contain_oxygen_bond_distance_aromatic_linkinvent_7_9_3/rearranged_h_0006.sdf

> <i_m_source_file_index>
13

> <r_mmod_Potential_Energy-OPLS-2005>
96.0250015258789

> <r_mmod_Stretch_Energy-OPLS-2005>
33.8182334899902

> <r_mmod_Bend_Energy-OPLS-2005>
123.712600708008

> <r_mmod_Torsional_Energy-OPLS-2005>
379.630981445312

> <r_mmod_Improper_Torsional_Energy-OPLS-2005>
8.87938499450684

> <r_mmod_Van_der_Waal_Energy-OPLS-2005>
150.884902954102

> <r_mmod_Electrostatic_Energy-OPLS-2005>
-395.627288818359

> <r_mmod_Solvation_Energy-OPLS-2005>
-213.233489990234

> <b_mmod_Minimization_Converged-OPLS-2005>
0

> <r_mmod_RMS_Derivative-OPLS-2005>
2.78811073303223

$$$$
13
                    3D
 Structure written by MMmdl.
164172  0  0  1  0            999 V2000
  -30.5940  -14.4813   20.7903 C   0  0  0  0  0  0
  -31.1870  -12.7803   18.9250 C   0  0  0  0  0  0
  -30.1495  -12.7284   17.7435 C   0  0  0  0  0  0
  -28.6940  -12.5437   18.1323 C   0  0  0  0  0  0
  -28.3974  -13.2576   19.5390 C   0  0  2  0  0  0
  -29.6320  -12.3953   20.2314 C   0  0  0  0  0  0
  -24.7481  -14.1996   20.7766 C   0  0  0  0  0  0
  -23.7579  -13.2654   20.9238 C   0  0  0  0  0  0
  -24.2915  -11.9787   21.0248 C   0  0  0  0  0  0
  -23.7739  -10.5761   21.1102 C   0  0  0  0  0  0
  -24.3151   -9.5445   21.9275 C   0  0  0  0  0  0
  -23.6547   -8.2939   22.0542 C   0  0  0  0  0  0
  -22.4480   -8.0495   21.3518 C   0  0  0  0  0  0
  -21.9718   -9.0338   20.4757 C   0  0  0  0  0  0
  -22.6325  -10.2655   20.3422 C   0  0  0  0  0  0
  -21.7112   -6.0786   22.5237 C   0  0  0  0  0  0
  -21.4171   -6.5701   23.8130 C   0  0  0  0  0  0
  -21.3706   -5.6854   24.9102 C   0  0  0  0  0  0
  -21.6052   -4.3108   24.7189 C   0  0  0  0  0  0
  -21.8790   -3.8159   23.4311 C   0  0  0  0  0  0
  -21.9274   -4.6989   22.3374 C   0  0  0  0  0  0
  -22.3661  -13.6074   21.1174 C   0  0  0  0  0  0
  -22.1704   -4.2156   21.0950 F   0  0  0  0  0  0
  -21.5646   -3.4573   25.7681 F   0  0  0  0  0  0
  -30.6008  -13.2831   20.1556 N   0  0  0  0  0  0
  -25.9263  -13.5121   20.8652 N   0  0  0  0  0  0
  -25.2987  -12.4399   21.6535 N   0  0  0  0  0  0
  -21.7047  -12.8747   22.0037 N   0  0  0  0  0  0
  -24.7017  -15.5640   20.5727 N   0  0  0  0  0  0
  -31.5679  -15.1832   20.5188 O   0  0  0  0  0  0
  -21.7147   -6.8871   21.4133 O   0  0  0  0  0  0
  -21.9182  -14.6094   20.5846 O   0  0  0  0  0  0
  -24.6756  -31.8036   23.1696 C   0  0  0  0  0  0
  -25.9422  -32.4450   23.8127 C   0  0  1  0  0  0
  -27.0339  -26.7375   20.1539 C   0  0  0  0  0  0
  -25.6049  -33.8280   24.2003 N   0  0  0  0  0  0
  -23.4842  -30.4373   21.5177 C   0  0  2  0  0  0
  -24.9005  -28.8144   20.0864 C   0  0  0  0  0  0
  -22.7691  -29.4384   22.4663 C   0  0  0  0  0  0
  -18.0304  -28.1420   22.8415 C   0  0  0  0  0  0
  -24.1515  -36.7130   23.2649 C   0  0  0  0  0  0
  -26.0647  -30.5445   21.4255 C   0  0  0  0  0  0
  -26.0916  -29.1276   20.7498 C   0  0  0  0  0  0
  -27.1655  -28.1068   20.7604 C   0  0  0  0  0  0
  -25.8565  -26.6444   19.3987 C   0  0  0  0  0  0
  -24.8203  -27.6065   19.3819 C   0  0  0  0  0  0
  -23.7202  -29.7846   20.1304 C   0  0  0  0  0  0
  -25.4161  -36.2867   24.0280 C   0  0  1  0  0  0
  -20.5941  -28.3763   23.1127 C   0  0  2  0  0  0
  -20.6777  -26.9428   22.5375 C   0  0  0  0  0  0
  -19.5762  -26.6375   21.5168 C   0  0  0  0  0  0
  -18.1949  -26.7943   22.1591 C   0  0  0  0  0  0
  -19.1575  -28.8898   23.2767 C   0  0  0  0  0  0
  -18.9504  -30.1476   23.8830 C   0  0  0  0  0  0
  -17.6504  -30.6602   24.0545 C   0  0  0  0  0  0
  -25.9150  -34.9261   23.4979 C   0  0  0  0  0  0
  -16.5389  -29.9103   23.6325 C   0  0  0  0  0  0
  -16.7291  -28.6522   23.0345 C   0  0  0  0  0  0
  -26.4643  -31.6454   25.0731 C   0  0  0  0  0  0
  -25.3774  -31.3725   26.1409 C   0  0  0  0  0  0
  -27.0511  -30.2760   24.6632 C   0  0  0  0  0  0
  -27.6105  -32.4294   25.7521 C   0  0  0  0  0  0
  -27.5575  -37.1724   24.8476 C   0  0  0  0  0  0
  -21.4345  -29.3054   22.3468 N   0  0  0  0  0  0
  -26.4276  -37.3631   23.9428 N   0  0  0  0  0  0
  -24.7653  -30.9593   22.0887 N   0  0  0  0  0  0
  -23.4211  -28.7902   23.2891 O   0  0  0  0  0  0
  -27.8310  -25.4504   20.2446 O   0  0  0  0  0  0
  -26.5764  -34.8822   22.4582 O   0  0  0  0  0  0
  -23.5827  -32.1105   23.6740 O   0  0  0  0  0  0
  -27.0818  -11.5918   20.3062 C   0  0  0  0  0  0
  -27.8071  -12.6301   21.7119 C   0  0  0  0  0  0
  -26.4985  -14.3204   18.7766 C   0  0  0  0  0  0
  -26.3182  -12.4917   18.8784 C   0  0  0  0  0  0
  -28.0221  -14.4394   21.4574 C   0  0  0  0  0  0
  -27.2953  -15.3343   20.0694 C   0  0  0  0  0  0
  -24.3413   -9.7106   17.2165 C   0  0  0  0  0  0
  -23.8198   -8.3674   17.7185 C   0  0  0  0  0  0
  -25.5921  -11.7804   17.7347 C   0  0  0  0  0  0
  -27.8070  -22.0347   20.3245 C   0  0  0  0  0  0
  -27.2369  -20.2675   19.9367 C   0  0  0  0  0  0
  -27.3341  -23.8292   19.9269 C   0  0  0  0  0  0
  -27.6473  -18.4637   20.3787 C   0  0  0  0  0  0
  -29.4708  -14.8486   21.5843 N   0  0  0  0  0  0
  -25.0994  -10.4458   18.0477 N   0  0  0  0  0  0
  -24.0413  -10.0825   16.0799 O   0  0  0  0  0  0
  -27.2369  -16.9060   19.8014 O   0  0  0  0  0  0
  -32.0259  -13.4167   18.6317 H   0  0  0  0  0  0
  -31.6544  -11.8052   19.0816 H   0  0  0  0  0  0
  -30.4416  -11.9632   17.0194 H   0  0  0  0  0  0
  -30.2259  -13.6723   17.2007 H   0  0  0  0  0  0
  -28.4763  -11.4753   18.1104 H   0  0  0  0  0  0
  -28.1471  -12.9888   17.2990 H   0  0  0  0  0  0
  -28.8276  -14.1609   19.0721 H   0  0  0  0  0  0
  -29.7270  -11.3616   19.8696 H   0  0  0  0  0  0
  -29.8950  -12.1640   21.2708 H   0  0  0  0  0  0
  -25.2134   -9.7370   22.4990 H   0  0  0  0  0  0
  -24.0712   -7.5379   22.7050 H   0  0  0  0  0  0
  -21.0714   -8.8477   19.9072 H   0  0  0  0  0  0
  -22.2142  -11.0053   19.6774 H   0  0  0  0  0  0
  -21.2173   -7.6219   23.9589 H   0  0  0  0  0  0
  -21.1535   -6.0630   25.8989 H   0  0  0  0  0  0
  -22.0477   -2.7618   23.2791 H   0  0  0  0  0  0
  -22.1456  -12.1017   22.4807 H   0  0  0  0  0  0
  -20.7436  -13.1087   22.2176 H   0  0  0  0  0  0
  -23.8231  -16.0563   20.4706 H   0  0  0  0  0  0
  -25.5191  -16.1463   20.4221 H   0  0  0  0  0  0
  -26.7475  -32.4853   23.0782 H   0  0  0  0  0  0
  -25.0090  -33.9310   25.0094 H   0  0  0  0  0  0
  -22.8046  -31.2789   21.3653 H   0  0  0  0  0  0
  -23.3785  -35.9446   23.3230 H   0  0  0  0  0  0
  -24.3598  -36.8869   22.2079 H   0  0  0  0  0  0
  -23.7257  -37.6286   23.6771 H   0  0  0  0  0  0
  -26.2924  -31.2800   20.6525 H   0  0  0  0  0  0
  -26.9096  -30.5721   22.0998 H   0  0  0  0  0  0
  -28.0588  -28.3180   21.3261 H   0  0  0  0  0  0
  -25.6782  -25.7338   18.8446 H   0  0  0  0  0  0
  -23.9248  -27.3876   18.8127 H   0  0  0  0  0  0
  -23.9182  -30.5707   19.4001 H   0  0  0  0  0  0
  -22.8135  -29.2869   19.7830 H   0  0  0  0  0  0
  -25.1360  -36.1613   25.0758 H   0  0  0  0  0  0
  -21.0023  -28.3396   24.1257 H   0  0  0  0  0  0
  -20.5582  -26.2396   23.3640 H   0  0  0  0  0  0
  -21.6659  -26.7349   22.1247 H   0  0  0  0  0  0
  -19.6938  -25.6268   21.1244 H   0  0  0  0  0  0
  -19.6734  -27.3142   20.6667 H   0  0  0  0  0  0
  -17.4214  -26.6605   21.4032 H   0  0  0  0  0  0
  -18.0409  -26.0118   22.9023 H   0  0  0  0  0  0
  -19.7993  -30.7269   24.2229 H   0  0  0  0  0  0
  -17.5080  -31.6282   24.5171 H   0  0  0  0  0  0
  -15.5404  -30.3012   23.7692 H   0  0  0  0  0  0
  -15.8683  -28.0838   22.7117 H   0  0  0  0  0  0
  -24.6073  -30.6909   25.7803 H   0  0  0  0  0  0
  -24.8855  -32.2898   26.4629 H   0  0  0  0  0  0
  -25.8080  -30.9118   27.0314 H   0  0  0  0  0  0
  -26.3185  -29.6401   24.1671 H   0  0  0  0  0  0
  -27.3919  -29.7189   25.5367 H   0  0  0  0  0  0
  -27.9202  -30.3793   24.0141 H   0  0  0  0  0  0
  -27.2687  -33.3687   26.1859 H   0  0  0  0  0  0
  -28.4050  -32.6686   25.0446 H   0  0  0  0  0  0
  -28.0634  -31.8586   26.5636 H   0  0  0  0  0  0
  -28.2547  -38.0062   24.7525 H   0  0  0  0  0  0
  -28.1115  -36.2580   24.6290 H   0  0  0  0  0  0
  -27.2298  -37.1349   25.8882 H   0  0  0  0  0  0
  -20.9593  -29.8822   21.6668 H   0  0  0  0  0  0
  -26.0084  -38.2665   24.1468 H   0  0  0  0  0  0
  -27.0263  -10.5133   20.3813 H   0  0  0  0  0  0
  -28.2444  -12.1349   22.5702 H   0  0  0  0  0  0
  -26.0621  -14.8251   17.9241 H   0  0  0  0  0  0
  -24.1876   -8.1277   18.7178 H   0  0  0  0  0  0
  -24.1206   -7.5652   17.0479 H   0  0  0  0  0  0
  -22.7299   -8.3771   17.7549 H   0  0  0  0  0  0
  -26.2584  -11.7095   16.8734 H   0  0  0  0  0  0
  -24.7579  -12.4043   17.4152 H   0  0  0  0  0  0
  -28.8645  -22.0024   20.0466 H   0  0  0  0  0  0
  -27.8351  -22.0434   21.4151 H   0  0  0  0  0  0
  -27.2193  -20.2533   18.8463 H   0  0  0  0  0  0
  -26.1762  -20.3162   20.1901 H   0  0  0  0  0  0
  -26.2680  -23.8630   20.1607 H   0  0  0  0  0  0
  -27.3333  -23.8351   18.8337 H   0  0  0  0  0  0
  -27.4074  -18.3952   21.4410 H   0  0  0  0  0  0
  -28.7363  -18.4291   20.3587 H   0  0  0  0  0  0
  -29.6056  -15.7478   22.0180 H   0  0  0  0  0  0
  -25.3099  -10.0741   18.9624 H   0  0  0  0  0  0
  1 25  1  0  0  0
  1 30  2  0  0  0
  1 84  1  0  0  0
  2  3  1  0  0  0
  2 25  1  0  0  0
  2 88  1  0  0  0
  2 89  1  0  0  0
  3  4  1  0  0  0
  3 90  1  0  0  0
  3 91  1  0  0  0
  4  5  1  0  0  0
  4 92  1  0  0  0
  4 93  1  0  0  0
  5  6  1  0  0  0
  5 26  1  0  0  0
  5 94  1  0  0  0
  6 25  1  0  0  0
  6 95  1  0  0  0
  6 96  1  0  0  0
  7  8  2  0  0  0
  7 26  1  0  0  0
  7 29  1  0  0  0
  8  9  1  0  0  0
  8 22  1  0  0  0
  9 10  1  0  0  0
  9 27  2  0  0  0
 10 11  2  0  0  0
 10 15  1  0  0  0
 11 12  1  0  0  0
 11 97  1  0  0  0
 12 13  2  0  0  0
 12 98  1  0  0  0
 13 14  1  0  0  0
 13 31  1  0  0  0
 14 15  2  0  0  0
 14 99  1  0  0  0
 15100  1  0  0  0
 16 17  2  0  0  0
 16 21  1  0  0  0
 16 31  1  0  0  0
 17 18  1  0  0  0
 17101  1  0  0  0
 18 19  2  0  0  0
 18102  1  0  0  0
 19 20  1  0  0  0
 19 24  1  0  0  0
 20 21  2  0  0  0
 20103  1  0  0  0
 21 23  1  0  0  0
 22 28  1  0  0  0
 22 32  2  0  0  0
 26 27  1  0  0  0
 28104  1  0  0  0
 28105  1  0  0  0
 29106  1  0  0  0
 29107  1  0  0  0
 33 34  1  0  0  0
 33 66  1  0  0  0
 33 70  2  0  0  0
 34 36  1  0  0  0
 34 59  1  0  0  0
 34108  1  0  0  0
 35 44  2  0  0  0
 35 45  1  0  0  0
 35 68  1  0  0  0
 36 56  1  0  0  0
 36109  1  0  0  0
 37 39  1  0  0  0
 37 47  1  0  0  0
 37 66  1  0  0  0
 37110  1  0  0  0
 38 43  2  0  0  0
 38 46  1  0  0  0
 38 47  1  0  0  0
 39 64  1  0  0  0
 39 67  2  0  0  0
 40 52  1  0  0  0
 40 53  2  0  0  0
 40 58  1  0  0  0
 41111  1  0  0  0
 41112  1  0  0  0
 41113  1  0  0  0
 41 48  1  0  0  0
 42 43  1  0  0  0
 42 66  1  0  0  0
 42114  1  0  0  0
 42115  1  0  0  0
 43 44  1  0  0  0
 44116  1  0  0  0
 45 46  2  0  0  0
 45117  1  0  0  0
 46118  1  0  0  0
 47119  1  0  0  0
 47120  1  0  0  0
 48 56  1  0  0  0
 48 65  1  0  0  0
 48121  1  0  0  0
 49 50  1  0  0  0
 49 53  1  0  0  0
 49 64  1  0  0  0
 49122  1  0  0  0
 50 51  1  0  0  0
 50123  1  0  0  0
 50124  1  0  0  0
 51 52  1  0  0  0
 51125  1  0  0  0
 51126  1  0  0  0
 52127  1  0  0  0
 52128  1  0  0  0
 53 54  1  0  0  0
 54 55  2  0  0  0
 54129  1  0  0  0
 55 57  1  0  0  0
 55130  1  0  0  0
 56 69  2  0  0  0
 57 58  2  0  0  0
 57131  1  0  0  0
 58132  1  0  0  0
 59 60  1  0  0  0
 59 61  1  0  0  0
 59 62  1  0  0  0
 60133  1  0  0  0
 60134  1  0  0  0
 60135  1  0  0  0
 61136  1  0  0  0
 61137  1  0  0  0
 61138  1  0  0  0
 62139  1  0  0  0
 62140  1  0  0  0
 62141  1  0  0  0
 63 65  1  0  0  0
 63142  1  0  0  0
 63143  1  0  0  0
 63144  1  0  0  0
 64145  1  0  0  0
 65146  1  0  0  0
 68 82  1  0  0  0
 71 72  2  0  0  0
 71 74  1  0  0  0
 71147  1  0  0  0
 72 75  1  0  0  0
 72148  1  0  0  0
 73 74  2  0  0  0
 73 76  1  0  0  0
 73149  1  0  0  0
 74 79  1  0  0  0
 75 76  2  0  0  0
 75 84  1  0  0  0
 76 87  1  0  0  0
 77 78  1  0  0  0
 77 85  1  0  0  0
 77 86  2  0  0  0
 78150  1  0  0  0
 78151  1  0  0  0
 78152  1  0  0  0
 79 85  1  0  0  0
 79153  1  0  0  0
 79154  1  0  0  0
 80 81  1  0  0  0
 80 82  1  0  0  0
 80155  1  0  0  0
 80156  1  0  0  0
 81 83  1  0  0  0
 81157  1  0  0  0
 81158  1  0  0  0
 82159  1  0  0  0
 82160  1  0  0  0
 83 87  1  0  0  0
 83161  1  0  0  0
 83162  1  0  0  0
 84163  1  0  0  0
 85164  1  0  0  0
M  ISO  4   1 100  68 101  82 101  84 100
M  END
> <chiral flag>
0

> <version>
0

> <s_m_source_file>
/data/baiqing/PycharmProjects/Reinvent-master-3.2/result/LINK_invent/BTK/process_docking_weight1_custom_sum_contain_oxygen_bond_distance_aromatic_linkinvent_7_9_3/rearranged_h_0006.sdf

> <i_m_source_file_index>
14

> <r_mmod_Potential_Energy-OPLS-2005>
10853.8134765625

> <r_mmod_Stretch_Energy-OPLS-2005>
5893.04833984375

> <r_mmod_Bend_Energy-OPLS-2005>
925.5244140625

> <r_mmod_Torsional_Energy-OPLS-2005>
484.666351318359

> <r_mmod_Improper_Torsional_Energy-OPLS-2005>
31.9295349121094

> <r_mmod_Van_der_Waal_Energy-OPLS-2005>
2761.08544921875

> <r_mmod_Electrostatic_Energy-OPLS-2005>
-508.331909179688

> <r_mmod_Solvation_Energy-OPLS-2005>
-221.973098754883

> <b_mmod_Minimization_Converged-OPLS-2005>
0

> <r_mmod_RMS_Derivative-OPLS-2005>
8.82831478118896

$$$$
14
                    3D
 Structure written by MMmdl.
160168  0  0  1  0            999 V2000
  -30.6835  -14.4651   20.4622 C   0  0  0  0  0  0
  -30.4203  -12.2708   19.4271 C   0  0  0  0  0  0
  -29.4946  -12.4664   18.2068 C   0  0  0  0  0  0
  -28.0143  -12.3380   18.6196 C   0  0  0  0  0  0
  -27.6585  -13.1989   19.8614 C   0  0  2  0  0  0
  -28.7026  -13.0076   20.9872 C   0  0  0  0  0  0
  -25.2591  -13.8150   20.5660 C   0  0  0  0  0  0
  -24.1829  -13.0442   20.9180 C   0  0  0  0  0  0
  -24.6363  -11.6905   20.8732 C   0  0  0  0  0  0
  -23.9024  -10.4294   21.0407 C   0  0  0  0  0  0
  -24.3590   -9.4211   21.9179 C   0  0  0  0  0  0
  -23.6279   -8.2240   22.0739 C   0  0  0  0  0  0
  -22.4262   -8.0263   21.3531 C   0  0  0  0  0  0
  -21.9882   -9.0238   20.4651 C   0  0  0  0  0  0
  -22.7194  -10.2124   20.3063 C   0  0  0  0  0  0
  -21.6851   -6.0726   22.5273 C   0  0  0  0  0  0
  -21.4016   -6.5632   23.8206 C   0  0  0  0  0  0
  -21.3658   -5.6782   24.9167 C   0  0  0  0  0  0
  -21.6045   -4.3043   24.7221 C   0  0  0  0  0  0
  -21.8821   -3.8134   23.4345 C   0  0  0  0  0  0
  -21.9189   -4.6950   22.3398 C   0  0  0  0  0  0
  -22.7850  -13.5254   21.1844 C   0  0  0  0  0  0
  -22.1662   -4.2141   21.0974 F   0  0  0  0  0  0
  -21.5631   -3.4527   25.7734 F   0  0  0  0  0  0
  -30.0371  -13.2742   20.4258 N   0  0  0  0  0  0
  -26.3002  -12.9310   20.3299 N   0  0  0  0  0  0
  -25.9287  -11.6482   20.5747 N   0  0  0  0  0  0
  -22.0491  -12.8262   22.0415 N   0  0  0  0  0  0
  -25.4350  -15.1863   20.4062 N   0  0  0  0  0  0
  -31.8783  -14.6012   20.1898 O   0  0  0  0  0  0
  -21.6637   -6.8855   21.4228 O   0  0  0  0  0  0
  -22.3534  -14.5561   20.6683 O   0  0  0  0  0  0
  -24.6087  -31.8712   23.2133 C   0  0  0  0  0  0
  -25.9009  -32.4834   23.8408 C   0  0  1  0  0  0
  -27.2412  -27.4662   20.0912 C   0  0  0  0  0  0
  -25.5872  -33.8637   24.2343 N   0  0  0  0  0  0
  -23.3950  -30.4948   21.5512 C   0  0  2  0  0  0
  -24.8416  -28.9583   20.1229 C   0  0  0  0  0  0
  -22.7374  -29.4681   22.4996 C   0  0  0  0  0  0
  -18.0264  -28.1377   22.8495 C   0  0  0  0  0  0
  -24.1480  -36.7308   23.2640 C   0  0  0  0  0  0
  -25.9200  -30.8448   21.3627 C   0  0  0  0  0  0
  -25.9975  -29.4807   20.7127 C   0  0  0  0  0  0
  -27.1969  -28.7415   20.6926 C   0  0  0  0  0  0
  -26.0649  -26.9477   19.4998 C   0  0  0  0  0  0
  -24.8676  -27.6894   19.5193 C   0  0  0  0  0  0
  -23.6042  -29.8240   20.1671 C   0  0  0  0  0  0
  -25.4101  -36.3118   24.0345 C   0  0  1  0  0  0
  -20.5855  -28.3658   23.1325 C   0  0  2  0  0  0
  -20.6751  -26.9399   22.5417 C   0  0  0  0  0  0
  -19.5728  -26.6392   21.5207 C   0  0  0  0  0  0
  -18.1911  -26.7923   22.1628 C   0  0  0  0  0  0
  -19.1518  -28.8825   23.2910 C   0  0  0  0  0  0
  -18.9458  -30.1429   23.8930 C   0  0  0  0  0  0
  -17.6470  -30.6593   24.0565 C   0  0  0  0  0  0
  -25.9031  -34.9480   23.5138 C   0  0  0  0  0  0
  -16.5355  -29.9109   23.6320 C   0  0  0  0  0  0
  -16.7256  -28.6513   23.0358 C   0  0  0  0  0  0
  -26.4464  -31.6614   25.0726 C   0  0  0  0  0  0
  -25.3749  -31.3738   26.1494 C   0  0  0  0  0  0
  -27.0284  -30.3051   24.6096 C   0  0  0  0  0  0
  -27.6058  -32.4335   25.7458 C   0  0  0  0  0  0
  -27.5583  -37.1802   24.8468 C   0  0  0  0  0  0
  -21.4113  -29.3031   22.3727 N   0  0  0  0  0  0
  -26.4286  -37.3806   23.9422 N   0  0  0  0  0  0
  -24.6588  -31.0854   22.1013 N   0  0  0  0  0  0
  -23.4163  -28.8221   23.3022 O   0  0  0  0  0  0
  -28.4586  -26.8265   20.0625 O   0  0  0  0  0  0
  -26.5606  -34.8929   22.4717 O   0  0  0  0  0  0
  -23.5293  -32.1442   23.7551 O   0  0  0  0  0  0
  -29.7024  -18.9927   18.0882 C   0  0  0  0  0  0
  -30.3605  -17.8427   17.6187 C   0  0  0  0  0  0
  -29.2061  -17.8413   20.1801 C   0  0  0  0  0  0
  -29.1090  -18.9975   19.3679 C   0  0  0  0  0  0
  -29.8714  -16.6792   19.7240 C   0  0  0  0  0  0
  -30.4278  -16.6836   18.4133 C   0  0  0  0  0  0
  -29.2765  -21.4446   20.0390 C   0  0  0  0  0  0
  -28.3437  -22.5786   18.0093 C   0  0  0  0  0  0
  -28.3463  -20.2283   19.8626 C   0  0  0  0  0  0
  -29.6639  -25.0184   19.1054 C   0  0  0  0  0  0
  -30.2249  -23.5887   19.2703 C   0  0  0  0  0  0
  -28.5383  -25.4048   20.0768 C   0  0  0  0  0  0
  -29.8730  -15.5292   20.5756 N   0  0  0  0  0  0
  -29.2338  -22.4975   19.1763 N   0  0  0  0  0  0
  -30.0708  -21.4048   20.9850 O   0  0  0  0  0  0
  -30.9910  -15.5803   17.8676 F   0  0  0  0  0  0
  -31.4686  -12.3521   19.1326 H   0  0  0  0  0  0
  -30.3026  -11.2690   19.8431 H   0  0  0  0  0  0
  -29.7330  -11.7321   17.4359 H   0  0  0  0  0  0
  -29.6645  -13.4452   17.7573 H   0  0  0  0  0  0
  -27.8256  -11.2852   18.8343 H   0  0  0  0  0  0
  -27.3640  -12.5941   17.7825 H   0  0  0  0  0  0
  -27.6953  -14.2379   19.5331 H   0  0  0  0  0  0
  -28.6670  -11.9890   21.3768 H   0  0  0  0  0  0
  -28.4876  -13.6566   21.8381 H   0  0  0  0  0  0
  -25.2746   -9.5700   22.4724 H   0  0  0  0  0  0
  -24.0011   -7.4635   22.7446 H   0  0  0  0  0  0
  -21.0813   -8.8745   19.8961 H   0  0  0  0  0  0
  -22.3650  -10.9651   19.6160 H   0  0  0  0  0  0
  -21.2019   -7.6137   23.9707 H   0  0  0  0  0  0
  -21.1479   -6.0515   25.9075 H   0  0  0  0  0  0
  -22.0607   -2.7600   23.2842 H   0  0  0  0  0  0
  -22.4115  -11.9959   22.4847 H   0  0  0  0  0  0
  -21.1097  -13.1284   22.2604 H   0  0  0  0  0  0
  -24.6705  -15.8436   20.5179 H   0  0  0  0  0  0
  -26.2841  -15.6208   20.0678 H   0  0  0  0  0  0
  -26.7070  -32.5552   23.1171 H   0  0  0  0  0  0
  -24.9987  -33.9805   25.0454 H   0  0  0  0  0  0
  -22.6807  -31.3090   21.4114 H   0  0  0  0  0  0
  -23.3749  -35.9630   23.3295 H   0  0  0  0  0  0
  -24.3562  -36.8930   22.2055 H   0  0  0  0  0  0
  -23.7221  -37.6505   23.6655 H   0  0  0  0  0  0
  -26.0352  -31.6136   20.5973 H   0  0  0  0  0  0
  -26.8067  -30.8941   21.9824 H   0  0  0  0  0  0
  -28.0931  -29.1555   21.1342 H   0  0  0  0  0  0
  -26.0571  -25.9962   18.9905 H   0  0  0  0  0  0
  -23.9774  -27.2846   19.0590 H   0  0  0  0  0  0
  -23.7151  -30.5961   19.4048 H   0  0  0  0  0  0
  -22.7287  -29.2450   19.8698 H   0  0  0  0  0  0
  -25.1276  -36.1983   25.0836 H   0  0  0  0  0  0
  -20.9953  -28.3226   24.1443 H   0  0  0  0  0  0
  -20.5650  -26.2268   23.3600 H   0  0  0  0  0  0
  -21.6625  -26.7437   22.1219 H   0  0  0  0  0  0
  -19.6892  -25.6313   21.1214 H   0  0  0  0  0  0
  -19.6667  -27.3222   20.6752 H   0  0  0  0  0  0
  -17.4177  -26.6657   21.4041 H   0  0  0  0  0  0
  -18.0324  -26.0069   22.9032 H   0  0  0  0  0  0
  -19.7939  -30.7215   24.2333 H   0  0  0  0  0  0
  -17.5040  -31.6280   24.5158 H   0  0  0  0  0  0
  -15.5366  -30.3041   23.7614 H   0  0  0  0  0  0
  -15.8646  -28.0842   22.7090 H   0  0  0  0  0  0
  -24.5894  -30.7112   25.7851 H   0  0  0  0  0  0
  -24.8971  -32.2906   26.4957 H   0  0  0  0  0  0
  -25.8113  -30.8898   27.0238 H   0  0  0  0  0  0
  -26.2812  -29.6809   24.1189 H   0  0  0  0  0  0
  -27.4090  -29.7307   25.4552 H   0  0  0  0  0  0
  -27.8633  -30.4355   23.9208 H   0  0  0  0  0  0
  -27.2696  -33.3640   26.2039 H   0  0  0  0  0  0
  -28.3847  -32.6893   25.0266 H   0  0  0  0  0  0
  -28.0741  -31.8459   26.5361 H   0  0  0  0  0  0
  -28.2621  -38.0087   24.7525 H   0  0  0  0  0  0
  -28.1063  -36.2625   24.6276 H   0  0  0  0  0  0
  -27.2297  -37.1435   25.8870 H   0  0  0  0  0  0
  -20.9258  -29.8738   21.6948 H   0  0  0  0  0  0
  -26.0178  -38.2876   24.1453 H   0  0  0  0  0  0
  -29.6561  -19.8627   17.4485 H   0  0  0  0  0  0
  -30.7988  -17.8368   16.6316 H   0  0  0  0  0  0
  -28.7553  -17.8459   21.1630 H   0  0  0  0  0  0
  -27.3987  -23.0475   18.2844 H   0  0  0  0  0  0
  -28.1252  -21.6150   17.5535 H   0  0  0  0  0  0
  -28.7893  -23.1753   17.2132 H   0  0  0  0  0  0
  -27.9119  -20.0112   20.8386 H   0  0  0  0  0  0
  -27.4909  -20.4242   19.2189 H   0  0  0  0  0  0
  -29.3329  -25.1918   18.0816 H   0  0  0  0  0  0
  -30.4976  -25.7075   19.2486 H   0  0  0  0  0  0
  -30.7566  -23.5717   20.2233 H   0  0  0  0  0  0
  -30.9895  -23.4108   18.5136 H   0  0  0  0  0  0
  -28.7959  -25.1025   21.0920 H   0  0  0  0  0  0
  -27.6175  -24.8839   19.8245 H   0  0  0  0  0  0
  -29.0064  -15.3571   21.0588 H   0  0  0  0  0  0
  1 25  1  0  0  0
  1 30  2  0  0  0
  1 83  1  0  0  0
  2  3  1  0  0  0
  2 25  1  0  0  0
  2 87  1  0  0  0
  2 88  1  0  0  0
  3  4  1  0  0  0
  3 89  1  0  0  0
  3 90  1  0  0  0
  4  5  1  0  0  0
  4 91  1  0  0  0
  4 92  1  0  0  0
  5  6  1  0  0  0
  5 26  1  0  0  0
  5 93  1  0  0  0
  6 25  1  0  0  0
  6 94  1  0  0  0
  6 95  1  0  0  0
  7  8  2  0  0  0
  7 26  1  0  0  0
  7 29  1  0  0  0
  8  9  1  0  0  0
  8 22  1  0  0  0
  9 10  1  0  0  0
  9 27  2  0  0  0
 10 11  2  0  0  0
 10 15  1  0  0  0
 11 12  1  0  0  0
 11 96  1  0  0  0
 12 13  2  0  0  0
 12 97  1  0  0  0
 13 14  1  0  0  0
 13 31  1  0  0  0
 14 15  2  0  0  0
 14 98  1  0  0  0
 15 99  1  0  0  0
 16 17  2  0  0  0
 16 21  1  0  0  0
 16 31  1  0  0  0
 17 18  1  0  0  0
 17100  1  0  0  0
 18 19  2  0  0  0
 18101  1  0  0  0
 19 20  1  0  0  0
 19 24  1  0  0  0
 20 21  2  0  0  0
 20102  1  0  0  0
 21 23  1  0  0  0
 22 28  1  0  0  0
 22 32  2  0  0  0
 26 27  1  0  0  0
 28103  1  0  0  0
 28104  1  0  0  0
 29105  1  0  0  0
 29106  1  0  0  0
 33 34  1  0  0  0
 33 66  1  0  0  0
 33 70  2  0  0  0
 34 36  1  0  0  0
 34 59  1  0  0  0
 34107  1  0  0  0
 35 44  2  0  0  0
 35 45  1  0  0  0
 35 68  1  0  0  0
 36 56  1  0  0  0
 36108  1  0  0  0
 37 39  1  0  0  0
 37 47  1  0  0  0
 37 66  1  0  0  0
 37109  1  0  0  0
 38 43  2  0  0  0
 38 46  1  0  0  0
 38 47  1  0  0  0
 39 64  1  0  0  0
 39 67  2  0  0  0
 40 52  1  0  0  0
 40 53  2  0  0  0
 40 58  1  0  0  0
 41110  1  0  0  0
 41111  1  0  0  0
 41112  1  0  0  0
 41 48  1  0  0  0
 42 43  1  0  0  0
 42 66  1  0  0  0
 42113  1  0  0  0
 42114  1  0  0  0
 43 44  1  0  0  0
 44115  1  0  0  0
 45 46  2  0  0  0
 45116  1  0  0  0
 46117  1  0  0  0
 47118  1  0  0  0
 47119  1  0  0  0
 48 56  1  0  0  0
 48 65  1  0  0  0
 48120  1  0  0  0
 49 50  1  0  0  0
 49 53  1  0  0  0
 49 64  1  0  0  0
 49121  1  0  0  0
 50 51  1  0  0  0
 50122  1  0  0  0
 50123  1  0  0  0
 51 52  1  0  0  0
 51124  1  0  0  0
 51125  1  0  0  0
 52126  1  0  0  0
 52127  1  0  0  0
 53 54  1  0  0  0
 54 55  2  0  0  0
 54128  1  0  0  0
 55 57  1  0  0  0
 55129  1  0  0  0
 56 69  2  0  0  0
 57 58  2  0  0  0
 57130  1  0  0  0
 58131  1  0  0  0
 59 60  1  0  0  0
 59 61  1  0  0  0
 59 62  1  0  0  0
 60132  1  0  0  0
 60133  1  0  0  0
 60134  1  0  0  0
 61135  1  0  0  0
 61136  1  0  0  0
 61137  1  0  0  0
 62138  1  0  0  0
 62139  1  0  0  0
 62140  1  0  0  0
 63 65  1  0  0  0
 63141  1  0  0  0
 63142  1  0  0  0
 63143  1  0  0  0
 64144  1  0  0  0
 65145  1  0  0  0
 68 82  1  0  0  0
 71 72  2  0  0  0
 71 74  1  0  0  0
 71146  1  0  0  0
 72 76  1  0  0  0
 72147  1  0  0  0
 73 74  2  0  0  0
 73 75  1  0  0  0
 73148  1  0  0  0
 74 79  1  0  0  0
 75 76  2  0  0  0
 75 83  1  0  0  0
 76 86  1  0  0  0
 77 79  1  0  0  0
 77 84  1  0  0  0
 77 85  2  0  0  0
 78 84  1  0  0  0
 78149  1  0  0  0
 78150  1  0  0  0
 78151  1  0  0  0
 79152  1  0  0  0
 79153  1  0  0  0
 80 81  1  0  0  0
 80 82  1  0  0  0
 80154  1  0  0  0
 80155  1  0  0  0
 81 84  1  0  0  0
 81156  1  0  0  0
 81157  1  0  0  0
 82158  1  0  0  0
 82159  1  0  0  0
 83160  1  0  0  0
M  ISO  4   1 100  68 101  82 101  83 100
M  END
> <chiral flag>
0

> <version>
0

> <s_m_source_file>
/data/baiqing/PycharmProjects/Reinvent-master-3.2/result/LINK_invent/BTK/process_docking_weight1_custom_sum_contain_oxygen_bond_distance_aromatic_linkinvent_7_9_3/rearranged_h_0006.sdf

> <i_m_source_file_index>
15

> <r_mmod_Potential_Energy-OPLS-2005>
25.8346519470215

> <r_mmod_Stretch_Energy-OPLS-2005>
36.8828048706055

> <r_mmod_Bend_Energy-OPLS-2005>
108.603187561035

> <r_mmod_Torsional_Energy-OPLS-2005>
280.942199707031

> <r_mmod_Improper_Torsional_Energy-OPLS-2005>
7.70903205871582

> <r_mmod_Van_der_Waal_Energy-OPLS-2005>
166.814575195312

> <r_mmod_Electrostatic_Energy-OPLS-2005>
-358.546966552734

> <r_mmod_Solvation_Energy-OPLS-2005>
-235.185211181641

> <b_mmod_Minimization_Converged-OPLS-2005>
0

> <r_mmod_RMS_Derivative-OPLS-2005>
2.56766891479492

$$$$
15
                    3D
 Structure written by MMmdl.
153161  0  0  1  0            999 V2000
  -30.6919  -14.4470   20.5574 C   0  0  0  0  0  0
  -30.4223  -12.2837   19.4258 C   0  0  0  0  0  0
  -29.4976  -12.5012   18.2092 C   0  0  0  0  0  0
  -28.0163  -12.3685   18.6168 C   0  0  0  0  0  0
  -27.6641  -13.2025   19.8779 C   0  0  2  0  0  0
  -28.7020  -12.9674   20.9995 C   0  0  0  0  0  0
  -25.2599  -13.8153   20.5674 C   0  0  0  0  0  0
  -24.1842  -13.0436   20.9166 C   0  0  0  0  0  0
  -24.6390  -11.6899   20.8730 C   0  0  0  0  0  0
  -23.9055  -10.4290   21.0403 C   0  0  0  0  0  0
  -24.3611   -9.4206   21.9182 C   0  0  0  0  0  0
  -23.6288   -8.2242   22.0756 C   0  0  0  0  0  0
  -22.4271   -8.0280   21.3546 C   0  0  0  0  0  0
  -21.9902   -9.0250   20.4647 C   0  0  0  0  0  0
  -22.7229  -10.2129   20.3052 C   0  0  0  0  0  0
  -21.6852   -6.0734   22.5279 C   0  0  0  0  0  0
  -21.4012   -6.5638   23.8211 C   0  0  0  0  0  0
  -21.3659   -5.6791   24.9173 C   0  0  0  0  0  0
  -21.6044   -4.3054   24.7223 C   0  0  0  0  0  0
  -21.8820   -3.8144   23.4344 C   0  0  0  0  0  0
  -21.9193   -4.6962   22.3401 C   0  0  0  0  0  0
  -22.7868  -13.5242   21.1830 C   0  0  0  0  0  0
  -22.1662   -4.2150   21.0978 F   0  0  0  0  0  0
  -21.5629   -3.4536   25.7735 F   0  0  0  0  0  0
  -30.0388  -13.2609   20.4551 N   0  0  0  0  0  0
  -26.3031  -12.9315   20.3362 N   0  0  0  0  0  0
  -25.9315  -11.6479   20.5759 N   0  0  0  0  0  0
  -22.0506  -12.8240   22.0390 N   0  0  0  0  0  0
  -25.4339  -15.1871   20.4096 N   0  0  0  0  0  0
  -31.8264  -14.6330   20.1089 O   0  0  0  0  0  0
  -21.6638   -6.8875   21.4241 O   0  0  0  0  0  0
  -22.3558  -14.5550   20.6681 O   0  0  0  0  0  0
  -24.6125  -31.8689   23.2104 C   0  0  0  0  0  0
  -25.9028  -32.4823   23.8394 C   0  0  1  0  0  0
  -27.2395  -27.4478   20.0850 C   0  0  0  0  0  0
  -25.5891  -33.8625   24.2326 N   0  0  0  0  0  0
  -23.3986  -30.4921   21.5510 C   0  0  2  0  0  0
  -24.8431  -28.9547   20.1170 C   0  0  0  0  0  0
  -22.7390  -29.4668   22.5005 C   0  0  0  0  0  0
  -18.0262  -28.1377   22.8492 C   0  0  0  0  0  0
  -24.1483  -36.7320   23.2637 C   0  0  0  0  0  0
  -25.9249  -30.8359   21.3613 C   0  0  0  0  0  0
  -26.0001  -29.4693   20.7125 C   0  0  0  0  0  0
  -27.1952  -28.7192   20.6993 C   0  0  0  0  0  0
  -26.0573  -26.9347   19.5013 C   0  0  0  0  0  0
  -24.8648  -27.6845   19.5142 C   0  0  0  0  0  0
  -23.6050  -29.8209   20.1662 C   0  0  0  0  0  0
  -25.4104  -36.3116   24.0338 C   0  0  1  0  0  0
  -20.5850  -28.3660   23.1331 C   0  0  2  0  0  0
  -20.6753  -26.9400   22.5426 C   0  0  0  0  0  0
  -19.5737  -26.6389   21.5216 C   0  0  0  0  0  0
  -18.1913  -26.7926   22.1618 C   0  0  0  0  0  0
  -19.1511  -28.8832   23.2909 C   0  0  0  0  0  0
  -18.9443  -30.1439   23.8918 C   0  0  0  0  0  0
  -17.6447  -30.6584   24.0569 C   0  0  0  0  0  0
  -25.9036  -34.9481   23.5131 C   0  0  0  0  0  0
  -16.5337  -29.9090   23.6325 C   0  0  0  0  0  0
  -16.7252  -28.6509   23.0342 C   0  0  0  0  0  0
  -26.4462  -31.6597   25.0717 C   0  0  0  0  0  0
  -25.3738  -31.3700   26.1473 C   0  0  0  0  0  0
  -27.0284  -30.3038   24.6087 C   0  0  0  0  0  0
  -27.6049  -32.4305   25.7471 C   0  0  0  0  0  0
  -27.5584  -37.1806   24.8458 C   0  0  0  0  0  0
  -21.4121  -29.3030   22.3741 N   0  0  0  0  0  0
  -26.4287  -37.3804   23.9416 N   0  0  0  0  0  0
  -24.6636  -31.0801   22.0996 N   0  0  0  0  0  0
  -23.4171  -28.8219   23.3047 O   0  0  0  0  0  0
  -28.4460  -26.7789   20.0920 O   0  0  0  0  0  0
  -26.5607  -34.8930   22.4697 O   0  0  0  0  0  0
  -23.5326  -32.1439   23.7512 O   0  0  0  0  0  0
  -30.6055  -17.2560   19.4497 C   0  0  0  0  0  0
  -30.4877  -18.6009   19.0686 C   0  0  0  0  0  0
  -29.2416  -17.7857   21.3687 C   0  0  0  0  0  0
  -29.9659  -16.8216   20.6341 C   0  0  0  0  0  0
  -29.7410  -19.4790   19.8646 C   0  0  0  0  0  0
  -28.3982  -24.3064   20.1450 C   0  0  0  0  0  0
  -28.9685  -23.0649   19.4286 C   0  0  0  0  0  0
  -28.6342  -25.5908   19.3221 C   0  0  0  0  0  0
  -28.9056  -21.7414   20.2177 C   0  0  0  0  0  0
  -29.1288  -19.0857   21.0038 N   0  0  0  0  0  0
  -29.9619  -15.4567   21.0661 N   0  0  0  0  0  0
  -29.6246  -20.7860   19.4405 O   0  0  0  0  0  0
  -31.4688  -12.3755   19.1292 H   0  0  0  0  0  0
  -30.3122  -11.2699   19.8142 H   0  0  0  0  0  0
  -29.7346  -11.7824   17.4236 H   0  0  0  0  0  0
  -29.6744  -13.4897   17.7821 H   0  0  0  0  0  0
  -27.8189  -11.3127   18.8052 H   0  0  0  0  0  0
  -27.3702  -12.6527   17.7854 H   0  0  0  0  0  0
  -27.7135  -14.2524   19.5881 H   0  0  0  0  0  0
  -28.6675  -11.9299   21.3349 H   0  0  0  0  0  0
  -28.4672  -13.5640   21.8819 H   0  0  0  0  0  0
  -25.2761   -9.5687   22.4748 H   0  0  0  0  0  0
  -24.0002   -7.4636   22.7477 H   0  0  0  0  0  0
  -21.0833   -8.8763   19.8956 H   0  0  0  0  0  0
  -22.3689  -10.9663   19.6154 H   0  0  0  0  0  0
  -21.2002   -7.6147   23.9714 H   0  0  0  0  0  0
  -21.1481   -6.0521   25.9077 H   0  0  0  0  0  0
  -22.0600   -2.7606   23.2841 H   0  0  0  0  0  0
  -22.4110  -11.9896   22.4776 H   0  0  0  0  0  0
  -21.1126  -13.1274   22.2592 H   0  0  0  0  0  0
  -24.6678  -15.8436   20.5125 H   0  0  0  0  0  0
  -26.2865  -15.6224   20.0808 H   0  0  0  0  0  0
  -26.7098  -32.5538   23.1161 H   0  0  0  0  0  0
  -25.0015  -33.9787   25.0453 H   0  0  0  0  0  0
  -22.6870  -31.3088   21.4122 H   0  0  0  0  0  0
  -23.3746  -35.9650   23.3298 H   0  0  0  0  0  0
  -24.3583  -36.8943   22.2054 H   0  0  0  0  0  0
  -23.7233  -37.6523   23.6653 H   0  0  0  0  0  0
  -26.0340  -31.5998   20.5900 H   0  0  0  0  0  0
  -26.8147  -30.8917   21.9767 H   0  0  0  0  0  0
  -28.0914  -29.1174   21.1546 H   0  0  0  0  0  0
  -26.0325  -25.9595   19.0385 H   0  0  0  0  0  0
  -23.9714  -27.2781   19.0603 H   0  0  0  0  0  0
  -23.7116  -30.5938   19.4041 H   0  0  0  0  0  0
  -22.7291  -29.2394   19.8733 H   0  0  0  0  0  0
  -25.1276  -36.1980   25.0829 H   0  0  0  0  0  0
  -20.9938  -28.3221   24.1453 H   0  0  0  0  0  0
  -20.5650  -26.2268   23.3609 H   0  0  0  0  0  0
  -21.6626  -26.7445   22.1224 H   0  0  0  0  0  0
  -19.6901  -25.6306   21.1229 H   0  0  0  0  0  0
  -19.6682  -27.3212   20.6758 H   0  0  0  0  0  0
  -17.4188  -26.6680   21.4013 H   0  0  0  0  0  0
  -18.0306  -26.0059   22.9003 H   0  0  0  0  0  0
  -19.7922  -30.7242   24.2298 H   0  0  0  0  0  0
  -17.5008  -31.6266   24.5172 H   0  0  0  0  0  0
  -15.5340  -30.3002   23.7643 H   0  0  0  0  0  0
  -15.8650  -28.0842   22.7038 H   0  0  0  0  0  0
  -24.5899  -30.7064   25.7810 H   0  0  0  0  0  0
  -24.8945  -32.2854   26.4954 H   0  0  0  0  0  0
  -25.8096  -30.8839   27.0212 H   0  0  0  0  0  0
  -26.2820  -29.6803   24.1155 H   0  0  0  0  0  0
  -27.4068  -29.7273   25.4540 H   0  0  0  0  0  0
  -27.8650  -30.4352   23.9220 H   0  0  0  0  0  0
  -27.2675  -33.3586   26.2097 H   0  0  0  0  0  0
  -28.3832  -32.6896   25.0281 H   0  0  0  0  0  0
  -28.0748  -31.8401   26.5347 H   0  0  0  0  0  0
  -28.2590  -38.0117   24.7534 H   0  0  0  0  0  0
  -28.1091  -36.2655   24.6234 H   0  0  0  0  0  0
  -27.2313  -37.1398   25.8863 H   0  0  0  0  0  0
  -20.9276  -29.8746   21.6963 H   0  0  0  0  0  0
  -26.0177  -38.2879   24.1437 H   0  0  0  0  0  0
  -31.1569  -16.5876   18.8066 H   0  0  0  0  0  0
  -30.9567  -18.9530   18.1608 H   0  0  0  0  0  0
  -28.7208  -17.5054   22.2727 H   0  0  0  0  0  0
  -28.8858  -24.4102   21.1148 H   0  0  0  0  0  0
  -27.3340  -24.1769   20.3452 H   0  0  0  0  0  0
  -30.0140  -23.2602   19.1852 H   0  0  0  0  0  0
  -28.4592  -22.9349   18.4730 H   0  0  0  0  0  0
  -28.0679  -25.5892   18.3907 H   0  0  0  0  0  0
  -29.6790  -25.6129   19.0102 H   0  0  0  0  0  0
  -27.8703  -21.4288   20.3633 H   0  0  0  0  0  0
  -29.3711  -21.8542   21.1981 H   0  0  0  0  0  0
  -29.1608  -15.1704   21.6102 H   0  0  0  0  0  0
  1 25  1  0  0  0
  1 30  2  0  0  0
  1 81  1  0  0  0
  2  3  1  0  0  0
  2 25  1  0  0  0
  2 83  1  0  0  0
  2 84  1  0  0  0
  3  4  1  0  0  0
  3 85  1  0  0  0
  3 86  1  0  0  0
  4  5  1  0  0  0
  4 87  1  0  0  0
  4 88  1  0  0  0
  5  6  1  0  0  0
  5 26  1  0  0  0
  5 89  1  0  0  0
  6 25  1  0  0  0
  6 90  1  0  0  0
  6 91  1  0  0  0
  7  8  2  0  0  0
  7 26  1  0  0  0
  7 29  1  0  0  0
  8  9  1  0  0  0
  8 22  1  0  0  0
  9 10  1  0  0  0
  9 27  2  0  0  0
 10 11  2  0  0  0
 10 15  1  0  0  0
 11 12  1  0  0  0
 11 92  1  0  0  0
 12 13  2  0  0  0
 12 93  1  0  0  0
 13 14  1  0  0  0
 13 31  1  0  0  0
 14 15  2  0  0  0
 14 94  1  0  0  0
 15 95  1  0  0  0
 16 17  2  0  0  0
 16 21  1  0  0  0
 16 31  1  0  0  0
 17 18  1  0  0  0
 17 96  1  0  0  0
 18 19  2  0  0  0
 18 97  1  0  0  0
 19 20  1  0  0  0
 19 24  1  0  0  0
 20 21  2  0  0  0
 20 98  1  0  0  0
 21 23  1  0  0  0
 22 28  1  0  0  0
 22 32  2  0  0  0
 26 27  1  0  0  0
 28 99  1  0  0  0
 28100  1  0  0  0
 29101  1  0  0  0
 29102  1  0  0  0
 33 34  1  0  0  0
 33 66  1  0  0  0
 33 70  2  0  0  0
 34 36  1  0  0  0
 34 59  1  0  0  0
 34103  1  0  0  0
 35 44  2  0  0  0
 35 45  1  0  0  0
 35 68  1  0  0  0
 36 56  1  0  0  0
 36104  1  0  0  0
 37 39  1  0  0  0
 37 47  1  0  0  0
 37 66  1  0  0  0
 37105  1  0  0  0
 38 43  2  0  0  0
 38 46  1  0  0  0
 38 47  1  0  0  0
 39 64  1  0  0  0
 39 67  2  0  0  0
 40 52  1  0  0  0
 40 53  2  0  0  0
 40 58  1  0  0  0
 41106  1  0  0  0
 41107  1  0  0  0
 41108  1  0  0  0
 41 48  1  0  0  0
 42 43  1  0  0  0
 42 66  1  0  0  0
 42109  1  0  0  0
 42110  1  0  0  0
 43 44  1  0  0  0
 44111  1  0  0  0
 45 46  2  0  0  0
 45112  1  0  0  0
 46113  1  0  0  0
 47114  1  0  0  0
 47115  1  0  0  0
 48 56  1  0  0  0
 48 65  1  0  0  0
 48116  1  0  0  0
 49 50  1  0  0  0
 49 53  1  0  0  0
 49 64  1  0  0  0
 49117  1  0  0  0
 50 51  1  0  0  0
 50118  1  0  0  0
 50119  1  0  0  0
 51 52  1  0  0  0
 51120  1  0  0  0
 51121  1  0  0  0
 52122  1  0  0  0
 52123  1  0  0  0
 53 54  1  0  0  0
 54 55  2  0  0  0
 54124  1  0  0  0
 55 57  1  0  0  0
 55125  1  0  0  0
 56 69  2  0  0  0
 57 58  2  0  0  0
 57126  1  0  0  0
 58127  1  0  0  0
 59 60  1  0  0  0
 59 61  1  0  0  0
 59 62  1  0  0  0
 60128  1  0  0  0
 60129  1  0  0  0
 60130  1  0  0  0
 61131  1  0  0  0
 61132  1  0  0  0
 61133  1  0  0  0
 62134  1  0  0  0
 62135  1  0  0  0
 62136  1  0  0  0
 63 65  1  0  0  0
 63137  1  0  0  0
 63138  1  0  0  0
 63139  1  0  0  0
 64140  1  0  0  0
 65141  1  0  0  0
 68 78  1  0  0  0
 71 72  2  0  0  0
 71 74  1  0  0  0
 71142  1  0  0  0
 72 75  1  0  0  0
 72143  1  0  0  0
 73 74  2  0  0  0
 73 80  1  0  0  0
 73144  1  0  0  0
 74 81  1  0  0  0
 75 80  2  0  0  0
 75 82  1  0  0  0
 76 77  1  0  0  0
 76 78  1  0  0  0
 76145  1  0  0  0
 76146  1  0  0  0
 77 79  1  0  0  0
 77147  1  0  0  0
 77148  1  0  0  0
 78149  1  0  0  0
 78150  1  0  0  0
 79 82  1  0  0  0
 79151  1  0  0  0
 79152  1  0  0  0
 81153  1  0  0  0
M  ISO  4   1 100  68 101  78 101  81 100
M  END
> <chiral flag>
0

> <version>
0

> <s_m_source_file>
/data/baiqing/PycharmProjects/Reinvent-master-3.2/result/LINK_invent/BTK/process_docking_weight1_custom_sum_contain_oxygen_bond_distance_aromatic_linkinvent_7_9_3/rearranged_h_0006.sdf

> <i_m_source_file_index>
16

> <r_mmod_Potential_Energy-OPLS-2005>
-271.354858398438

> <r_mmod_Stretch_Energy-OPLS-2005>
33.9143714904785

> <r_mmod_Bend_Energy-OPLS-2005>
111.696365356445

> <r_mmod_Torsional_Energy-OPLS-2005>
198.551193237305

> <r_mmod_Improper_Torsional_Energy-OPLS-2005>
4.25456619262695

> <r_mmod_Van_der_Waal_Energy-OPLS-2005>
164.588516235352

> <r_mmod_Electrostatic_Energy-OPLS-2005>
-585.164245605469

> <r_mmod_Solvation_Energy-OPLS-2005>
-210.733505249023

> <b_mmod_Minimization_Converged-OPLS-2005>
0

> <r_mmod_RMS_Derivative-OPLS-2005>
0.517950296401978

$$$$
16
                    3D
 Structure written by MMmdl.
154162  0  0  1  0            999 V2000
  -30.7108  -14.6268   20.4661 C   0  0  0  0  0  0
  -30.4192  -12.3707   19.4872 C   0  0  0  0  0  0
  -29.5234  -12.5164   18.2410 C   0  0  0  0  0  0
  -28.0376  -12.3904   18.6298 C   0  0  0  0  0  0
  -27.6531  -13.2519   19.8619 C   0  0  2  0  0  0
  -28.7005  -13.1550   20.9979 C   0  0  0  0  0  0
  -25.2496  -13.8246   20.5676 C   0  0  0  0  0  0
  -24.1804  -13.0482   20.9207 C   0  0  0  0  0  0
  -24.6450  -11.6957   20.8755 C   0  0  0  0  0  0
  -23.9153  -10.4331   21.0423 C   0  0  0  0  0  0
  -24.3706   -9.4225   21.9188 C   0  0  0  0  0  0
  -23.6355   -8.2271   22.0761 C   0  0  0  0  0  0
  -22.4322   -8.0347   21.3568 C   0  0  0  0  0  0
  -21.9973   -9.0304   20.4677 C   0  0  0  0  0  0
  -22.7335  -10.2183   20.3052 C   0  0  0  0  0  0
  -21.6858   -6.0791   22.5275 C   0  0  0  0  0  0
  -21.4036   -6.5665   23.8220 C   0  0  0  0  0  0
  -21.3658   -5.6802   24.9155 C   0  0  0  0  0  0
  -21.6040   -4.3060   24.7199 C   0  0  0  0  0  0
  -21.8812   -3.8175   23.4303 C   0  0  0  0  0  0
  -21.9198   -4.7020   22.3371 C   0  0  0  0  0  0
  -22.7825  -13.5260   21.1856 C   0  0  0  0  0  0
  -22.1665   -4.2229   21.0940 F   0  0  0  0  0  0
  -21.5620   -3.4527   25.7690 F   0  0  0  0  0  0
  -30.0313  -13.4359   20.4296 N   0  0  0  0  0  0
  -26.2993  -12.9540   20.3339 N   0  0  0  0  0  0
  -25.9390  -11.6661   20.5770 N   0  0  0  0  0  0
  -22.0480  -12.8205   22.0431 N   0  0  0  0  0  0
  -25.4154  -15.2005   20.4022 N   0  0  0  0  0  0
  -31.8736  -14.7150   20.0715 O   0  0  0  0  0  0
  -21.6655   -6.8958   21.4251 O   0  0  0  0  0  0
  -22.3449  -14.5531   20.6733 O   0  0  0  0  0  0
  -24.6196  -31.8640   23.2021 C   0  0  0  0  0  0
  -25.9071  -32.4813   23.8347 C   0  0  1  0  0  0
  -27.2386  -27.4003   20.1077 C   0  0  0  0  0  0
  -25.5927  -33.8608   24.2299 N   0  0  0  0  0  0
  -23.4065  -30.4865   21.5427 C   0  0  2  0  0  0
  -24.8561  -28.9438   20.1140 C   0  0  0  0  0  0
  -22.7404  -29.4636   22.4923 C   0  0  0  0  0  0
  -18.0277  -28.1362   22.8461 C   0  0  0  0  0  0
  -24.1501  -36.7360   23.2618 C   0  0  0  0  0  0
  -25.9342  -30.8271   21.3454 C   0  0  0  0  0  0
  -26.0172  -29.4534   20.7055 C   0  0  0  0  0  0
  -27.2124  -28.6911   20.6949 C   0  0  0  0  0  0
  -26.0535  -26.9064   19.5192 C   0  0  0  0  0  0
  -24.8715  -27.6705   19.5174 C   0  0  0  0  0  0
  -23.6182  -29.8132   20.1587 C   0  0  0  0  0  0
  -25.4097  -36.3108   24.0334 C   0  0  1  0  0  0
  -20.5863  -28.3656   23.1281 C   0  0  2  0  0  0
  -20.6759  -26.9385   22.5388 C   0  0  0  0  0  0
  -19.5744  -26.6370   21.5172 C   0  0  0  0  0  0
  -18.1925  -26.7905   22.1596 C   0  0  0  0  0  0
  -19.1523  -28.8816   23.2891 C   0  0  0  0  0  0
  -18.9467  -30.1411   23.8933 C   0  0  0  0  0  0
  -17.6464  -30.6554   24.0560 C   0  0  0  0  0  0
  -25.9024  -34.9481   23.5108 C   0  0  0  0  0  0
  -16.5353  -29.9057   23.6307 C   0  0  0  0  0  0
  -16.7261  -28.6477   23.0315 C   0  0  0  0  0  0
  -26.4471  -31.6589   25.0691 C   0  0  0  0  0  0
  -25.3762  -31.3717   26.1473 C   0  0  0  0  0  0
  -27.0264  -30.3038   24.6016 C   0  0  0  0  0  0
  -27.6028  -32.4292   25.7504 C   0  0  0  0  0  0
  -27.5589  -37.1826   24.8427 C   0  0  0  0  0  0
  -21.4124  -29.3057   22.3696 N   0  0  0  0  0  0
  -26.4271  -37.3810   23.9410 N   0  0  0  0  0  0
  -24.6729  -31.0717   22.0919 N   0  0  0  0  0  0
  -23.4162  -28.8153   23.2953 O   0  0  0  0  0  0
  -28.4218  -26.6753   20.1424 O   0  0  0  0  0  0
  -26.5575  -34.8943   22.4663 O   0  0  0  0  0  0
  -23.5388  -32.1385   23.7425 O   0  0  0  0  0  0
  -31.5993  -19.1266   20.0204 C   0  0  0  0  0  0
  -31.4733  -17.7336   20.2361 C   0  0  0  0  0  0
  -30.4851  -19.9795   20.1277 C   0  0  0  0  0  0
  -29.1027  -18.0439   20.6408 C   0  0  0  0  0  0
  -30.2132  -17.1554   20.5486 C   0  0  0  0  0  0
  -29.2176  -19.4529   20.4527 C   0  0  0  0  0  0
  -28.1039  -24.1997   20.6508 C   0  0  0  0  0  0
  -28.0625  -22.7514   20.0525 C   0  0  0  0  0  0
  -28.4862  -25.3201   19.6377 C   0  0  0  0  0  0
  -28.2288  -21.5984   21.0890 C   0  0  0  0  0  0
  -29.9829  -15.7353   20.7930 N   0  0  0  0  0  0
  -28.0923  -20.2637   20.5520 O   0  0  0  0  0  0
  -31.4728  -12.4190   19.2138 H   0  0  0  0  0  0
  -30.2789  -11.3944   19.9547 H   0  0  0  0  0  0
  -29.7904  -11.7652   17.4988 H   0  0  0  0  0  0
  -29.7031  -13.4835   17.7639 H   0  0  0  0  0  0
  -27.8398  -11.3397   18.8463 H   0  0  0  0  0  0
  -27.4064  -12.6547   17.7808 H   0  0  0  0  0  0
  -27.6568  -14.2826   19.5104 H   0  0  0  0  0  0
  -28.6858  -12.1606   21.4404 H   0  0  0  0  0  0
  -28.4554  -13.8473   21.8063 H   0  0  0  0  0  0
  -25.2893   -9.5654   22.4706 H   0  0  0  0  0  0
  -24.0105   -7.4623   22.7406 H   0  0  0  0  0  0
  -21.0911   -8.8836   19.8935 H   0  0  0  0  0  0
  -22.3856  -10.9714   19.6087 H   0  0  0  0  0  0
  -21.2051   -7.6177   23.9746 H   0  0  0  0  0  0
  -21.1477   -6.0515   25.9063 H   0  0  0  0  0  0
  -22.0607   -2.7655   23.2744 H   0  0  0  0  0  0
  -22.4137  -11.9905   22.4848 H   0  0  0  0  0  0
  -21.1050  -13.1135   22.2587 H   0  0  0  0  0  0
  -24.6281  -15.8415   20.4170 H   0  0  0  0  0  0
  -26.2419  -15.6114   19.9897 H   0  0  0  0  0  0
  -26.7149  -32.5524   23.1123 H   0  0  0  0  0  0
  -25.0169  -33.9761   25.0508 H   0  0  0  0  0  0
  -22.6994  -31.3054   21.3968 H   0  0  0  0  0  0
  -23.3746  -35.9703   23.3197 H   0  0  0  0  0  0
  -24.3624  -36.9063   22.2048 H   0  0  0  0  0  0
  -23.7256  -37.6557   23.6668 H   0  0  0  0  0  0
  -26.0212  -31.5765   20.5588 H   0  0  0  0  0  0
  -26.8330  -30.9120   21.9428 H   0  0  0  0  0  0
  -28.1098  -29.0890   21.1483 H   0  0  0  0  0  0
  -26.0083  -25.9245   19.0690 H   0  0  0  0  0  0
  -23.9794  -27.2608   19.0642 H   0  0  0  0  0  0
  -23.7289  -30.5858   19.3970 H   0  0  0  0  0  0
  -22.7426  -29.2353   19.8586 H   0  0  0  0  0  0
  -25.1253  -36.1971   25.0824 H   0  0  0  0  0  0
  -20.9995  -28.3240   24.1390 H   0  0  0  0  0  0
  -20.5618  -26.2276   23.3578 H   0  0  0  0  0  0
  -21.6647  -26.7390   22.1206 H   0  0  0  0  0  0
  -19.6898  -25.6286   21.1194 H   0  0  0  0  0  0
  -19.6673  -27.3190   20.6706 H   0  0  0  0  0  0
  -17.4188  -26.6632   21.4011 H   0  0  0  0  0  0
  -18.0345  -26.0037   22.8981 H   0  0  0  0  0  0
  -19.7957  -30.7200   24.2341 H   0  0  0  0  0  0
  -17.5028  -31.6246   24.5133 H   0  0  0  0  0  0
  -15.5352  -30.2955   23.7622 H   0  0  0  0  0  0
  -15.8670  -28.0802   22.6994 H   0  0  0  0  0  0
  -24.5916  -30.7062   25.7868 H   0  0  0  0  0  0
  -24.9000  -32.2896   26.4932 H   0  0  0  0  0  0
  -25.8179  -30.8912   27.0217 H   0  0  0  0  0  0
  -26.2765  -29.6850   24.1087 H   0  0  0  0  0  0
  -27.4076  -29.7228   25.4420 H   0  0  0  0  0  0
  -27.8578  -30.4377   23.9094 H   0  0  0  0  0  0
  -27.2614  -33.3568   26.2114 H   0  0  0  0  0  0
  -28.3867  -32.6885   25.0377 H   0  0  0  0  0  0
  -28.0647  -31.8393   26.5440 H   0  0  0  0  0  0
  -28.2524  -38.0205   24.7571 H   0  0  0  0  0  0
  -28.1175  -36.2752   24.6087 H   0  0  0  0  0  0
  -27.2351  -37.1290   25.8839 H   0  0  0  0  0  0
  -20.9231  -29.8897   21.7058 H   0  0  0  0  0  0
  -26.0160  -38.2889   24.1431 H   0  0  0  0  0  0
  -32.5559  -19.5634   19.7691 H   0  0  0  0  0  0
  -32.3629  -17.1298   20.1575 H   0  0  0  0  0  0
  -30.6114  -21.0373   19.9408 H   0  0  0  0  0  0
  -28.1325  -17.6319   20.8764 H   0  0  0  0  0  0
  -28.8328  -24.2229   21.4612 H   0  0  0  0  0  0
  -27.1433  -24.4283   21.1122 H   0  0  0  0  0  0
  -28.8428  -22.6539   19.2980 H   0  0  0  0  0  0
  -27.1116  -22.6214   19.5272 H   0  0  0  0  0  0
  -27.9654  -25.2114   18.6896 H   0  0  0  0  0  0
  -29.5315  -25.1508   19.3834 H   0  0  0  0  0  0
  -27.4483  -21.7030   21.8432 H   0  0  0  0  0  0
  -29.1667  -21.6970   21.6376 H   0  0  0  0  0  0
  -29.0543  -15.5175   21.1144 H   0  0  0  0  0  0
  1 25  1  0  0  0
  1 30  2  0  0  0
  1 81  1  0  0  0
  2  3  1  0  0  0
  2 25  1  0  0  0
  2 83  1  0  0  0
  2 84  1  0  0  0
  3  4  1  0  0  0
  3 85  1  0  0  0
  3 86  1  0  0  0
  4  5  1  0  0  0
  4 87  1  0  0  0
  4 88  1  0  0  0
  5  6  1  0  0  0
  5 26  1  0  0  0
  5 89  1  0  0  0
  6 25  1  0  0  0
  6 90  1  0  0  0
  6 91  1  0  0  0
  7  8  2  0  0  0
  7 26  1  0  0  0
  7 29  1  0  0  0
  8  9  1  0  0  0
  8 22  1  0  0  0
  9 10  1  0  0  0
  9 27  2  0  0  0
 10 11  2  0  0  0
 10 15  1  0  0  0
 11 12  1  0  0  0
 11 92  1  0  0  0
 12 13  2  0  0  0
 12 93  1  0  0  0
 13 14  1  0  0  0
 13 31  1  0  0  0
 14 15  2  0  0  0
 14 94  1  0  0  0
 15 95  1  0  0  0
 16 17  2  0  0  0
 16 21  1  0  0  0
 16 31  1  0  0  0
 17 18  1  0  0  0
 17 96  1  0  0  0
 18 19  2  0  0  0
 18 97  1  0  0  0
 19 20  1  0  0  0
 19 24  1  0  0  0
 20 21  2  0  0  0
 20 98  1  0  0  0
 21 23  1  0  0  0
 22 28  1  0  0  0
 22 32  2  0  0  0
 26 27  1  0  0  0
 28 99  1  0  0  0
 28100  1  0  0  0
 29101  1  0  0  0
 29102  1  0  0  0
 33 34  1  0  0  0
 33 66  1  0  0  0
 33 70  2  0  0  0
 34 36  1  0  0  0
 34 59  1  0  0  0
 34103  1  0  0  0
 35 44  2  0  0  0
 35 45  1  0  0  0
 35 68  1  0  0  0
 36 56  1  0  0  0
 36104  1  0  0  0
 37 39  1  0  0  0
 37 47  1  0  0  0
 37 66  1  0  0  0
 37105  1  0  0  0
 38 43  2  0  0  0
 38 46  1  0  0  0
 38 47  1  0  0  0
 39 64  1  0  0  0
 39 67  2  0  0  0
 40 52  1  0  0  0
 40 53  2  0  0  0
 40 58  1  0  0  0
 41106  1  0  0  0
 41107  1  0  0  0
 41108  1  0  0  0
 41 48  1  0  0  0
 42 43  1  0  0  0
 42 66  1  0  0  0
 42109  1  0  0  0
 42110  1  0  0  0
 43 44  1  0  0  0
 44111  1  0  0  0
 45 46  2  0  0  0
 45112  1  0  0  0
 46113  1  0  0  0
 47114  1  0  0  0
 47115  1  0  0  0
 48 56  1  0  0  0
 48 65  1  0  0  0
 48116  1  0  0  0
 49 50  1  0  0  0
 49 53  1  0  0  0
 49 64  1  0  0  0
 49117  1  0  0  0
 50 51  1  0  0  0
 50118  1  0  0  0
 50119  1  0  0  0
 51 52  1  0  0  0
 51120  1  0  0  0
 51121  1  0  0  0
 52122  1  0  0  0
 52123  1  0  0  0
 53 54  1  0  0  0
 54 55  2  0  0  0
 54124  1  0  0  0
 55 57  1  0  0  0
 55125  1  0  0  0
 56 69  2  0  0  0
 57 58  2  0  0  0
 57126  1  0  0  0
 58127  1  0  0  0
 59 60  1  0  0  0
 59 61  1  0  0  0
 59 62  1  0  0  0
 60128  1  0  0  0
 60129  1  0  0  0
 60130  1  0  0  0
 61131  1  0  0  0
 61132  1  0  0  0
 61133  1  0  0  0
 62134  1  0  0  0
 62135  1  0  0  0
 62136  1  0  0  0
 63 65  1  0  0  0
 63137  1  0  0  0
 63138  1  0  0  0
 63139  1  0  0  0
 64140  1  0  0  0
 65141  1  0  0  0
 68 79  1  0  0  0
 71 72  2  0  0  0
 71 73  1  0  0  0
 71142  1  0  0  0
 72 75  1  0  0  0
 72143  1  0  0  0
 73 76  2  0  0  0
 73144  1  0  0  0
 74 75  2  0  0  0
 74 76  1  0  0  0
 74145  1  0  0  0
 75 81  1  0  0  0
 76 82  1  0  0  0
 77 78  1  0  0  0
 77 79  1  0  0  0
 77146  1  0  0  0
 77147  1  0  0  0
 78 80  1  0  0  0
 78148  1  0  0  0
 78149  1  0  0  0
 79150  1  0  0  0
 79151  1  0  0  0
 80 82  1  0  0  0
 80152  1  0  0  0
 80153  1  0  0  0
 81154  1  0  0  0
M  ISO  4   1 100  68 101  79 101  81 100
M  END
> <chiral flag>
0

> <version>
0

> <s_m_source_file>
/data/baiqing/PycharmProjects/Reinvent-master-3.2/result/LINK_invent/BTK/process_docking_weight1_custom_sum_contain_oxygen_bond_distance_aromatic_linkinvent_7_9_3/rearranged_h_0006.sdf

> <i_m_source_file_index>
17

> <r_mmod_Potential_Energy-OPLS-2005>
12.3938570022583

> <r_mmod_Stretch_Energy-OPLS-2005>
53.158374786377

> <r_mmod_Bend_Energy-OPLS-2005>
125.004516601562

> <r_mmod_Torsional_Energy-OPLS-2005>
215.281326293945

> <r_mmod_Improper_Torsional_Energy-OPLS-2005>
4.95515584945679

> <r_mmod_Van_der_Waal_Energy-OPLS-2005>
147.654434204102

> <r_mmod_Electrostatic_Energy-OPLS-2005>
-362.478637695312

> <r_mmod_Solvation_Energy-OPLS-2005>
-207.331604003906

> <b_mmod_Minimization_Converged-OPLS-2005>
0

> <r_mmod_RMS_Derivative-OPLS-2005>
6.90671491622925

$$$$
17
                    3D
 Structure written by MMmdl.
157165  0  0  1  0            999 V2000
  -30.6223  -14.6376   20.4852 C   0  0  0  0  0  0
  -30.4418  -12.3896   19.4452 C   0  0  0  0  0  0
  -29.5072  -12.5053   18.2203 C   0  0  0  0  0  0
  -28.0303  -12.3424   18.6350 C   0  0  0  0  0  0
  -27.6517  -13.2119   19.8637 C   0  0  2  0  0  0
  -28.7018  -13.0714   20.9893 C   0  0  0  0  0  0
  -25.2541  -13.8108   20.5747 C   0  0  0  0  0  0
  -24.1802  -13.0381   20.9199 C   0  0  0  0  0  0
  -24.6383  -11.6863   20.8736 C   0  0  0  0  0  0
  -23.9053  -10.4262   21.0401 C   0  0  0  0  0  0
  -24.3608   -9.4183   21.9180 C   0  0  0  0  0  0
  -23.6279   -8.2224   22.0754 C   0  0  0  0  0  0
  -22.4256   -8.0273   21.3549 C   0  0  0  0  0  0
  -21.9892   -9.0245   20.4650 C   0  0  0  0  0  0
  -22.7226  -10.2117   20.3052 C   0  0  0  0  0  0
  -21.6849   -6.0725   22.5277 C   0  0  0  0  0  0
  -21.4015   -6.5627   23.8210 C   0  0  0  0  0  0
  -21.3656   -5.6786   24.9175 C   0  0  0  0  0  0
  -21.6040   -4.3049   24.7225 C   0  0  0  0  0  0
  -21.8820   -3.8140   23.4347 C   0  0  0  0  0  0
  -21.9190   -4.6956   22.3402 C   0  0  0  0  0  0
  -22.7827  -13.5198   21.1856 C   0  0  0  0  0  0
  -22.1659   -4.2142   21.0977 F   0  0  0  0  0  0
  -21.5627   -3.4532   25.7739 F   0  0  0  0  0  0
  -30.0170  -13.4110   20.4197 N   0  0  0  0  0  0
  -26.2979  -12.9309   20.3346 N   0  0  0  0  0  0
  -25.9313  -11.6462   20.5751 N   0  0  0  0  0  0
  -22.0461  -12.8217   22.0422 N   0  0  0  0  0  0
  -25.4193  -15.1828   20.4280 N   0  0  0  0  0  0
  -31.7995  -14.8014   20.1505 O   0  0  0  0  0  0
  -21.6628   -6.8868   21.4239 O   0  0  0  0  0  0
  -22.3526  -14.5509   20.6703 O   0  0  0  0  0  0
  -24.6246  -31.8612   23.2036 C   0  0  0  0  0  0
  -25.9099  -32.4784   23.8361 C   0  0  1  0  0  0
  -27.2306  -27.3325   20.1131 C   0  0  0  0  0  0
  -25.5924  -33.8586   24.2285 N   0  0  0  0  0  0
  -23.4179  -30.4838   21.5468 C   0  0  2  0  0  0
  -24.8654  -28.9428   20.1106 C   0  0  0  0  0  0
  -22.7476  -29.4623   22.4957 C   0  0  0  0  0  0
  -18.0284  -28.1390   22.8478 C   0  0  0  0  0  0
  -24.1487  -36.7289   23.2636 C   0  0  0  0  0  0
  -25.9582  -30.7945   21.3748 C   0  0  0  0  0  0
  -26.0331  -29.4239   20.7156 C   0  0  0  0  0  0
  -27.2170  -28.6302   20.7085 C   0  0  0  0  0  0
  -26.0380  -26.9037   19.4818 C   0  0  0  0  0  0
  -24.8695  -27.6873   19.4853 C   0  0  0  0  0  0
  -23.6318  -29.8197   20.1614 C   0  0  0  0  0  0
  -25.4113  -36.3080   24.0325 C   0  0  1  0  0  0
  -20.5884  -28.3687   23.1291 C   0  0  2  0  0  0
  -20.6776  -26.9413   22.5417 C   0  0  0  0  0  0
  -19.5757  -26.6389   21.5211 C   0  0  0  0  0  0
  -18.1930  -26.7935   22.1611 C   0  0  0  0  0  0
  -19.1536  -28.8856   23.2876 C   0  0  0  0  0  0
  -18.9462  -30.1458   23.8895 C   0  0  0  0  0  0
  -17.6462  -30.6588   24.0563 C   0  0  0  0  0  0
  -25.9054  -34.9451   23.5105 C   0  0  0  0  0  0
  -16.5353  -29.9086   23.6332 C   0  0  0  0  0  0
  -16.7271  -28.6507   23.0347 C   0  0  0  0  0  0
  -26.4488  -31.6593   25.0729 C   0  0  0  0  0  0
  -25.3731  -31.3742   26.1468 C   0  0  0  0  0  0
  -27.0324  -30.3013   24.6184 C   0  0  0  0  0  0
  -27.6056  -32.4328   25.7483 C   0  0  0  0  0  0
  -27.5581  -37.1794   24.8458 C   0  0  0  0  0  0
  -21.4193  -29.3034   22.3689 N   0  0  0  0  0  0
  -26.4289  -37.3778   23.9408 N   0  0  0  0  0  0
  -24.6852  -31.0634   22.0983 N   0  0  0  0  0  0
  -23.4203  -28.8171   23.3040 O   0  0  0  0  0  0
  -28.3572  -26.4955   20.1698 O   0  0  0  0  0  0
  -26.5625  -34.8916   22.4673 O   0  0  0  0  0  0
  -23.5412  -32.1414   23.7369 O   0  0  0  0  0  0
  -28.9889  -19.2911   19.7612 C   0  0  0  0  0  0
  -30.8201  -17.8929   21.3515 C   0  0  0  0  0  0
  -29.0172  -17.8651   19.7506 C   0  0  0  0  0  0
  -30.8007  -19.3225   21.3501 C   0  0  0  0  0  0
  -29.8600  -20.0646   20.5726 C   0  0  0  0  0  0
  -29.9175  -17.1272   20.5732 C   0  0  0  0  0  0
  -28.9797  -22.4771   20.1606 C   0  0  0  0  0  0
  -28.0555  -17.1479   18.8219 C   0  0  0  0  0  0
  -31.8032  -20.0558   22.2258 C   0  0  0  0  0  0
  -29.2772  -24.0101   20.4064 C   0  0  0  0  0  0
  -28.1571  -25.0449   19.9594 C   0  0  0  0  0  0
  -29.8561  -21.5319   20.6297 N   0  0  0  0  0  0
  -29.7755  -15.6831   20.7260 N   0  0  0  0  0  0
  -27.9542  -22.1708   19.5488 O   0  0  0  0  0  0
  -31.4828  -12.5185   19.1412 H   0  0  0  0  0  0
  -30.3788  -11.3950   19.8885 H   0  0  0  0  0  0
  -29.7702  -11.7556   17.4730 H   0  0  0  0  0  0
  -29.6489  -13.4758   17.7418 H   0  0  0  0  0  0
  -27.8685  -11.2887   18.8669 H   0  0  0  0  0  0
  -27.3753  -12.5725   17.7936 H   0  0  0  0  0  0
  -27.6626  -14.2443   19.5186 H   0  0  0  0  0  0
  -28.7139  -12.0521   21.3770 H   0  0  0  0  0  0
  -28.4531  -13.7095   21.8394 H   0  0  0  0  0  0
  -25.2753   -9.5656   22.4755 H   0  0  0  0  0  0
  -23.9986   -7.4610   22.7469 H   0  0  0  0  0  0
  -21.0822   -8.8764   19.8959 H   0  0  0  0  0  0
  -22.3685  -10.9658   19.6162 H   0  0  0  0  0  0
  -21.2011   -7.6137   23.9712 H   0  0  0  0  0  0
  -21.1474   -6.0516   25.9077 H   0  0  0  0  0  0
  -22.0603   -2.7603   23.2850 H   0  0  0  0  0  0
  -22.4061  -11.9881   22.4829 H   0  0  0  0  0  0
  -21.1085  -13.1267   22.2617 H   0  0  0  0  0  0
  -24.6529  -15.8335   20.5609 H   0  0  0  0  0  0
  -26.2751  -15.6342   20.1402 H   0  0  0  0  0  0
  -26.7168  -32.5453   23.1110 H   0  0  0  0  0  0
  -25.0073  -33.9739   25.0430 H   0  0  0  0  0  0
  -22.7094  -31.3025   21.4050 H   0  0  0  0  0  0
  -23.3752  -35.9619   23.3297 H   0  0  0  0  0  0
  -24.3580  -36.8919   22.2053 H   0  0  0  0  0  0
  -23.7244  -37.6486   23.6670 H   0  0  0  0  0  0
  -26.0923  -31.5602   20.6094 H   0  0  0  0  0  0
  -26.8373  -30.8401   22.0058 H   0  0  0  0  0  0
  -28.1113  -28.9958   21.1932 H   0  0  0  0  0  0
  -25.9781  -25.9467   18.9855 H   0  0  0  0  0  0
  -23.9755  -27.3138   19.0048 H   0  0  0  0  0  0
  -23.7486  -30.5963   19.4048 H   0  0  0  0  0  0
  -22.7527  -29.2472   19.8598 H   0  0  0  0  0  0
  -25.1295  -36.1929   25.0817 H   0  0  0  0  0  0
  -20.9962  -28.3260   24.1417 H   0  0  0  0  0  0
  -20.5678  -26.2295   23.3613 H   0  0  0  0  0  0
  -21.6647  -26.7449   22.1212 H   0  0  0  0  0  0
  -19.6919  -25.6301   21.1236 H   0  0  0  0  0  0
  -19.6698  -27.3203   20.6743 H   0  0  0  0  0  0
  -17.4207  -26.6688   21.4003 H   0  0  0  0  0  0
  -18.0315  -26.0081   22.9007 H   0  0  0  0  0  0
  -19.7941  -30.7270   24.2265 H   0  0  0  0  0  0
  -17.5020  -31.6267   24.5170 H   0  0  0  0  0  0
  -15.5353  -30.2983   23.7669 H   0  0  0  0  0  0
  -15.8670  -28.0824   22.7068 H   0  0  0  0  0  0
  -24.5877  -30.7121   25.7804 H   0  0  0  0  0  0
  -24.8957  -32.2920   26.4913 H   0  0  0  0  0  0
  -25.8060  -30.8899   27.0232 H   0  0  0  0  0  0
  -26.2892  -29.6766   24.1215 H   0  0  0  0  0  0
  -27.4029  -29.7268   25.4685 H   0  0  0  0  0  0
  -27.8761  -30.4296   23.9399 H   0  0  0  0  0  0
  -27.2670  -33.3623   26.2073 H   0  0  0  0  0  0
  -28.3842  -32.6907   25.0290 H   0  0  0  0  0  0
  -28.0752  -31.8455   26.5385 H   0  0  0  0  0  0
  -28.2594  -38.0093   24.7511 H   0  0  0  0  0  0
  -28.1080  -36.2629   24.6270 H   0  0  0  0  0  0
  -27.2307  -37.1433   25.8862 H   0  0  0  0  0  0
  -20.9385  -29.8738   21.6877 H   0  0  0  0  0  0
  -26.0167  -38.2846   24.1428 H   0  0  0  0  0  0
  -28.2708  -19.7862   19.1251 H   0  0  0  0  0  0
  -31.5165  -17.3737   21.9952 H   0  0  0  0  0  0
  -27.8075  -17.7719   17.9627 H   0  0  0  0  0  0
  -27.1295  -16.9187   19.3424 H   0  0  0  0  0  0
  -28.4867  -16.2253   18.4324 H   0  0  0  0  0  0
  -32.4277  -19.3614   22.7888 H   0  0  0  0  0  0
  -31.2936  -20.6985   22.9442 H   0  0  0  0  0  0
  -32.4630  -20.6716   21.6144 H   0  0  0  0  0  0
  -30.2077  -24.2535   19.8937 H   0  0  0  0  0  0
  -29.4728  -24.1446   21.4699 H   0  0  0  0  0  0
  -27.2443  -24.7465   20.4781 H   0  0  0  0  0  0
  -27.9727  -24.8933   18.8947 H   0  0  0  0  0  0
  -30.6337  -21.9262   21.1405 H   0  0  0  0  0  0
  -28.8277  -15.3722   20.8704 H   0  0  0  0  0  0
  1 25  1  0  0  0
  1 30  2  0  0  0
  1 83  1  0  0  0
  2  3  1  0  0  0
  2 25  1  0  0  0
  2 85  1  0  0  0
  2 86  1  0  0  0
  3  4  1  0  0  0
  3 87  1  0  0  0
  3 88  1  0  0  0
  4  5  1  0  0  0
  4 89  1  0  0  0
  4 90  1  0  0  0
  5  6  1  0  0  0
  5 26  1  0  0  0
  5 91  1  0  0  0
  6 25  1  0  0  0
  6 92  1  0  0  0
  6 93  1  0  0  0
  7  8  2  0  0  0
  7 26  1  0  0  0
  7 29  1  0  0  0
  8  9  1  0  0  0
  8 22  1  0  0  0
  9 10  1  0  0  0
  9 27  2  0  0  0
 10 11  2  0  0  0
 10 15  1  0  0  0
 11 12  1  0  0  0
 11 94  1  0  0  0
 12 13  2  0  0  0
 12 95  1  0  0  0
 13 14  1  0  0  0
 13 31  1  0  0  0
 14 15  2  0  0  0
 14 96  1  0  0  0
 15 97  1  0  0  0
 16 17  2  0  0  0
 16 21  1  0  0  0
 16 31  1  0  0  0
 17 18  1  0  0  0
 17 98  1  0  0  0
 18 19  2  0  0  0
 18 99  1  0  0  0
 19 20  1  0  0  0
 19 24  1  0  0  0
 20 21  2  0  0  0
 20100  1  0  0  0
 21 23  1  0  0  0
 22 28  1  0  0  0
 22 32  2  0  0  0
 26 27  1  0  0  0
 28101  1  0  0  0
 28102  1  0  0  0
 29103  1  0  0  0
 29104  1  0  0  0
 33 34  1  0  0  0
 33 66  1  0  0  0
 33 70  2  0  0  0
 34 36  1  0  0  0
 34 59  1  0  0  0
 34105  1  0  0  0
 35 44  2  0  0  0
 35 45  1  0  0  0
 35 68  1  0  0  0
 36 56  1  0  0  0
 36106  1  0  0  0
 37 39  1  0  0  0
 37 47  1  0  0  0
 37 66  1  0  0  0
 37107  1  0  0  0
 38 43  2  0  0  0
 38 46  1  0  0  0
 38 47  1  0  0  0
 39 64  1  0  0  0
 39 67  2  0  0  0
 40 52  1  0  0  0
 40 53  2  0  0  0
 40 58  1  0  0  0
 41108  1  0  0  0
 41109  1  0  0  0
 41110  1  0  0  0
 41 48  1  0  0  0
 42 43  1  0  0  0
 42 66  1  0  0  0
 42111  1  0  0  0
 42112  1  0  0  0
 43 44  1  0  0  0
 44113  1  0  0  0
 45 46  2  0  0  0
 45114  1  0  0  0
 46115  1  0  0  0
 47116  1  0  0  0
 47117  1  0  0  0
 48 56  1  0  0  0
 48 65  1  0  0  0
 48118  1  0  0  0
 49 50  1  0  0  0
 49 53  1  0  0  0
 49 64  1  0  0  0
 49119  1  0  0  0
 50 51  1  0  0  0
 50120  1  0  0  0
 50121  1  0  0  0
 51 52  1  0  0  0
 51122  1  0  0  0
 51123  1  0  0  0
 52124  1  0  0  0
 52125  1  0  0  0
 53 54  1  0  0  0
 54 55  2  0  0  0
 54126  1  0  0  0
 55 57  1  0  0  0
 55127  1  0  0  0
 56 69  2  0  0  0
 57 58  2  0  0  0
 57128  1  0  0  0
 58129  1  0  0  0
 59 60  1  0  0  0
 59 61  1  0  0  0
 59 62  1  0  0  0
 60130  1  0  0  0
 60131  1  0  0  0
 60132  1  0  0  0
 61133  1  0  0  0
 61134  1  0  0  0
 61135  1  0  0  0
 62136  1  0  0  0
 62137  1  0  0  0
 62138  1  0  0  0
 63 65  1  0  0  0
 63139  1  0  0  0
 63140  1  0  0  0
 63141  1  0  0  0
 64142  1  0  0  0
 65143  1  0  0  0
 68 81  1  0  0  0
 71 73  2  0  0  0
 71 75  1  0  0  0
 71144  1  0  0  0
 72 74  1  0  0  0
 72 76  2  0  0  0
 72145  1  0  0  0
 73 76  1  0  0  0
 73 78  1  0  0  0
 74 75  2  0  0  0
 74 79  1  0  0  0
 75 82  1  0  0  0
 76 83  1  0  0  0
 77 80  1  0  0  0
 77 82  1  0  0  0
 77 84  2  0  0  0
 78146  1  0  0  0
 78147  1  0  0  0
 78148  1  0  0  0
 79149  1  0  0  0
 79150  1  0  0  0
 79151  1  0  0  0
 80 81  1  0  0  0
 80152  1  0  0  0
 80153  1  0  0  0
 81154  1  0  0  0
 81155  1  0  0  0
 82156  1  0  0  0
 83157  1  0  0  0
M  ISO  4   1 100  68 101  81 101  83 100
M  END
> <chiral flag>
0

> <version>
0

> <s_m_source_file>
/data/baiqing/PycharmProjects/Reinvent-master-3.2/result/LINK_invent/BTK/process_docking_weight1_custom_sum_contain_oxygen_bond_distance_aromatic_linkinvent_7_9_3/rearranged_h_0006.sdf

> <i_m_source_file_index>
18

> <r_mmod_Potential_Energy-OPLS-2005>
-25.8688297271729

> <r_mmod_Stretch_Energy-OPLS-2005>
74.8535385131836

> <r_mmod_Bend_Energy-OPLS-2005>
132.40754699707

> <r_mmod_Torsional_Energy-OPLS-2005>
238.370361328125

> <r_mmod_Improper_Torsional_Energy-OPLS-2005>
6.10059690475464

> <r_mmod_Van_der_Waal_Energy-OPLS-2005>
146.541946411133

> <r_mmod_Electrostatic_Energy-OPLS-2005>
-442.225311279297

> <r_mmod_Solvation_Energy-OPLS-2005>
-228.777938842773

> <b_mmod_Minimization_Converged-OPLS-2005>
0

> <r_mmod_RMS_Derivative-OPLS-2005>
0.989040195941925

$$$$
18
                    3D
 Structure written by MMmdl.
188196  0  0  1  0            999 V2000
  -30.7504  -14.3300   20.7064 C   0  0  0  0  0  0
  -30.4147  -12.2791   19.3744 C   0  0  0  0  0  0
  -29.4763  -12.5303   18.1801 C   0  0  0  0  0  0
  -27.9991  -12.3868   18.5974 C   0  0  0  0  0  0
  -27.6631  -13.1931   19.8793 C   0  0  2  0  0  0
  -28.6970  -12.8924   20.9817 C   0  0  0  0  0  0
  -25.2569  -13.8135   20.5595 C   0  0  0  0  0  0
  -24.1831  -13.0437   20.9177 C   0  0  0  0  0  0
  -24.6370  -11.6901   20.8759 C   0  0  0  0  0  0
  -23.9030  -10.4300   21.0425 C   0  0  0  0  0  0
  -24.3594   -9.4211   21.9196 C   0  0  0  0  0  0
  -23.6283   -8.2245   22.0755 C   0  0  0  0  0  0
  -22.4262   -8.0284   21.3547 C   0  0  0  0  0  0
  -21.9896   -9.0250   20.4647 C   0  0  0  0  0  0
  -22.7218  -10.2138   20.3064 C   0  0  0  0  0  0
  -21.6850   -6.0737   22.5289 C   0  0  0  0  0  0
  -21.4007   -6.5639   23.8221 C   0  0  0  0  0  0
  -21.3656   -5.6792   24.9183 C   0  0  0  0  0  0
  -21.6044   -4.3055   24.7233 C   0  0  0  0  0  0
  -21.8819   -3.8147   23.4351 C   0  0  0  0  0  0
  -21.9191   -4.6965   22.3408 C   0  0  0  0  0  0
  -22.7863  -13.5251   21.1859 C   0  0  0  0  0  0
  -22.1663   -4.2154   21.0986 F   0  0  0  0  0  0
  -21.5628   -3.4535   25.7740 F   0  0  0  0  0  0
  -30.0386  -13.2033   20.4512 N   0  0  0  0  0  0
  -26.3016  -12.9284   20.3369 N   0  0  0  0  0  0
  -25.9281  -11.6459   20.5765 N   0  0  0  0  0  0
  -22.0501  -12.8247   22.0415 N   0  0  0  0  0  0
  -25.4255  -15.1822   20.3800 N   0  0  0  0  0  0
  -31.7637  -14.6425   20.0719 O   0  0  0  0  0  0
  -21.6637   -6.8876   21.4245 O   0  0  0  0  0  0
  -22.3557  -14.5569   20.6722 O   0  0  0  0  0  0
  -24.6159  -31.8641   23.2016 C   0  0  0  0  0  0
  -25.9067  -32.4784   23.8312 C   0  0  1  0  0  0
  -27.2467  -27.4461   20.0737 C   0  0  0  0  0  0
  -25.5924  -33.8589   24.2278 N   0  0  0  0  0  0
  -23.4050  -30.4908   21.5387 C   0  0  2  0  0  0
  -24.8481  -28.9506   20.1103 C   0  0  0  0  0  0
  -22.7421  -29.4678   22.4903 C   0  0  0  0  0  0
  -18.0310  -28.1380   22.8488 C   0  0  0  0  0  0
  -24.1497  -36.7266   23.2644 C   0  0  0  0  0  0
  -25.9334  -30.8267   21.3564 C   0  0  0  0  0  0
  -26.0061  -29.4641   20.7045 C   0  0  0  0  0  0
  -27.2031  -28.7147   20.6895 C   0  0  0  0  0  0
  -26.0650  -26.9357   19.4861 C   0  0  0  0  0  0
  -24.8704  -27.6823   19.5052 C   0  0  0  0  0  0
  -23.6115  -29.8166   20.1553 C   0  0  0  0  0  0
  -25.4122  -36.3086   24.0349 C   0  0  1  0  0  0
  -20.5883  -28.3677   23.1271 C   0  0  2  0  0  0
  -20.6798  -26.9405   22.5396 C   0  0  0  0  0  0
  -19.5787  -26.6382   21.5191 C   0  0  0  0  0  0
  -18.1952  -26.7935   22.1587 C   0  0  0  0  0  0
  -19.1550  -28.8836   23.2877 C   0  0  0  0  0  0
  -18.9493  -30.1439   23.8896 C   0  0  0  0  0  0
  -17.6500  -30.6573   24.0576 C   0  0  0  0  0  0
  -25.9044  -34.9452   23.5106 C   0  0  0  0  0  0
  -16.5390  -29.9094   23.6335 C   0  0  0  0  0  0
  -16.7294  -28.6510   23.0339 C   0  0  0  0  0  0
  -26.4504  -31.6571   25.0650 C   0  0  0  0  0  0
  -25.3801  -31.3687   26.1416 C   0  0  0  0  0  0
  -27.0343  -30.3012   24.6024 C   0  0  0  0  0  0
  -27.6051  -32.4317   25.7435 C   0  0  0  0  0  0
  -27.5586  -37.1789   24.8486 C   0  0  0  0  0  0
  -21.4147  -29.3049   22.3642 N   0  0  0  0  0  0
  -26.4314  -37.3776   23.9427 N   0  0  0  0  0  0
  -24.6699  -31.0775   22.0888 N   0  0  0  0  0  0
  -23.4184  -28.8219   23.2954 O   0  0  0  0  0  0
  -28.4494  -26.7699   20.0767 O   0  0  0  0  0  0
  -26.5617  -34.8932   22.4655 O   0  0  0  0  0  0
  -23.5348  -32.1390   23.7419 O   0  0  0  0  0  0
  -31.7000  -18.2776   24.0342 C   0  0  0  0  0  0
  -30.3612  -17.8566   24.1241 C   0  0  0  0  0  0
  -32.1330  -16.5687   22.3530 C   0  0  0  0  0  0
  -32.5978  -17.6350   23.1563 C   0  0  0  0  0  0
  -29.8957  -16.7925   23.3267 C   0  0  0  0  0  0
  -30.7831  -16.1525   22.4311 C   0  0  0  0  0  0
  -34.9852  -17.8076   22.3785 C   0  0  0  0  0  0
  -33.5028  -21.1010   21.4116 C   0  0  0  0  0  0
  -29.9942  -25.0043   19.5282 C   0  0  0  0  0  0
  -27.3423  -14.5443   24.6061 C   0  0  0  0  0  0
  -27.1346  -18.3542   22.9582 C   0  0  0  0  0  0
  -36.2438  -18.6394   22.6312 C   0  0  0  0  0  0
  -32.7699  -21.9444   22.4614 C   0  0  0  0  0  0
  -28.5643  -25.5367   19.3630 C   0  0  0  0  0  0
  -36.7480  -19.4098   21.3888 C   0  0  0  0  0  0
  -31.4233  -22.5348   21.9777 C   0  0  0  0  0  0
  -28.1273  -15.8575   24.7274 C   0  0  0  0  0  0
  -27.6140  -16.9686   22.5011 C   0  0  0  0  0  0
  -35.6872  -20.2228   20.6178 C   0  0  0  0  0  0
  -31.5511  -23.6711   20.9418 C   0  0  0  0  0  0
  -33.9374  -18.1068   23.1647 N   0  0  0  0  0  0
  -30.2517  -15.0564   21.7105 N   0  0  0  0  0  0
  -34.8389  -21.0280   21.5005 N   0  0  0  0  0  0
  -30.2346  -24.1825   20.5596 N   0  0  0  0  0  0
  -28.5645  -16.3461   23.4215 N   0  0  0  0  0  0
  -34.9984  -16.9386   21.5045 O   0  0  0  0  0  0
  -32.8658  -20.4986   20.5476 O   0  0  0  0  0  0
  -30.8795  -25.3554   18.7436 O   0  0  0  0  0  0
  -31.4568  -12.3928   19.0698 H   0  0  0  0  0  0
  -30.3229  -11.2494   19.7236 H   0  0  0  0  0  0
  -29.7052  -11.8370   17.3703 H   0  0  0  0  0  0
  -29.6489  -13.5326   17.7841 H   0  0  0  0  0  0
  -27.7976  -11.3276   18.7618 H   0  0  0  0  0  0
  -27.3460  -12.6945   17.7802 H   0  0  0  0  0  0
  -27.7350  -14.2521   19.6312 H   0  0  0  0  0  0
  -28.6562  -11.8356   21.2508 H   0  0  0  0  0  0
  -28.4370  -13.4219   21.8967 H   0  0  0  0  0  0
  -25.2738   -9.5702   22.4765 H   0  0  0  0  0  0
  -24.0003   -7.4629   22.7463 H   0  0  0  0  0  0
  -21.0836   -8.8762   19.8940 H   0  0  0  0  0  0
  -22.3677  -10.9673   19.6170 H   0  0  0  0  0  0
  -21.1994   -7.6148   23.9729 H   0  0  0  0  0  0
  -21.1478   -6.0521   25.9087 H   0  0  0  0  0  0
  -22.0597   -2.7612   23.2852 H   0  0  0  0  0  0
  -22.4093  -11.9883   22.4776 H   0  0  0  0  0  0
  -21.1128  -13.1292   22.2633 H   0  0  0  0  0  0
  -24.6509  -15.8328   20.4532 H   0  0  0  0  0  0
  -26.2656  -15.6047   20.0069 H   0  0  0  0  0  0
  -26.7122  -32.5468   23.1063 H   0  0  0  0  0  0
  -25.0152  -33.9712   25.0472 H   0  0  0  0  0  0
  -22.7002  -31.3113   21.3917 H   0  0  0  0  0  0
  -23.3773  -35.9580   23.3327 H   0  0  0  0  0  0
  -24.3594  -36.8825   22.2047 H   0  0  0  0  0  0
  -23.7231  -37.6477   23.6637 H   0  0  0  0  0  0
  -26.0667  -31.5931   20.5899 H   0  0  0  0  0  0
  -26.8123  -30.8592   21.9885 H   0  0  0  0  0  0
  -28.1021  -29.1076   21.1404 H   0  0  0  0  0  0
  -26.0419  -25.9667   19.0114 H   0  0  0  0  0  0
  -23.9788  -27.2767   19.0478 H   0  0  0  0  0  0
  -23.7179  -30.5842   19.3863 H   0  0  0  0  0  0
  -22.7380  -29.2276   19.8660 H   0  0  0  0  0  0
  -25.1300  -36.1937   25.0850 H   0  0  0  0  0  0
  -20.9996  -28.3245   24.1376 H   0  0  0  0  0  0
  -20.5667  -26.2271   23.3572 H   0  0  0  0  0  0
  -21.6672  -26.7415   22.1193 H   0  0  0  0  0  0
  -19.6953  -25.6300   21.1192 H   0  0  0  0  0  0
  -19.6750  -27.3211   20.6740 H   0  0  0  0  0  0
  -17.4231  -26.6679   21.3979 H   0  0  0  0  0  0
  -18.0360  -26.0080   22.8979 H   0  0  0  0  0  0
  -19.7980  -30.7247   24.2217 H   0  0  0  0  0  0
  -17.5087  -31.6259   24.5195 H   0  0  0  0  0  0
  -15.5387  -30.3014   23.7680 H   0  0  0  0  0  0
  -15.8690  -28.0855   22.7024 H   0  0  0  0  0  0
  -24.5979  -30.7022   25.7787 H   0  0  0  0  0  0
  -24.9005  -32.2834   26.4888 H   0  0  0  0  0  0
  -25.8166  -30.8876   27.0156 H   0  0  0  0  0  0
  -26.2843  -29.6739   24.1192 H   0  0  0  0  0  0
  -27.4245  -29.7309   25.4452 H   0  0  0  0  0  0
  -27.8635  -30.4333   23.9077 H   0  0  0  0  0  0
  -27.2622  -33.3587   26.2036 H   0  0  0  0  0  0
  -28.3849  -32.6891   25.0271 H   0  0  0  0  0  0
  -28.0741  -31.8439   26.5335 H   0  0  0  0  0  0
  -28.2615  -38.0084   24.7508 H   0  0  0  0  0  0
  -28.1056  -36.2589   24.6324 H   0  0  0  0  0  0
  -27.2286  -37.1432   25.8892 H   0  0  0  0  0  0
  -20.9281  -29.8765   21.6888 H   0  0  0  0  0  0
  -26.0191  -38.2846   24.1441 H   0  0  0  0  0  0
  -32.0330  -19.0992   24.6528 H   0  0  0  0  0  0
  -29.6954  -18.3591   24.8109 H   0  0  0  0  0  0
  -32.8109  -16.0521   21.6962 H   0  0  0  0  0  0
  -27.0259  -14.1996   25.5909 H   0  0  0  0  0  0
  -27.9497  -13.7521   24.1688 H   0  0  0  0  0  0
  -26.4456  -14.6546   23.9950 H   0  0  0  0  0  0
  -26.3839  -18.7395   22.2668 H   0  0  0  0  0  0
  -27.9480  -19.0795   22.9861 H   0  0  0  0  0  0
  -26.6748  -18.3206   23.9463 H   0  0  0  0  0  0
  -37.0238  -17.9691   22.9915 H   0  0  0  0  0  0
  -36.0606  -19.3467   23.4411 H   0  0  0  0  0  0
  -33.4197  -22.7375   22.8323 H   0  0  0  0  0  0
  -32.5762  -21.2923   23.3152 H   0  0  0  0  0  0
  -27.8556  -24.7899   19.7280 H   0  0  0  0  0  0
  -28.3692  -25.6994   18.3016 H   0  0  0  0  0  0
  -37.2157  -18.7115   20.6930 H   0  0  0  0  0  0
  -37.5470  -20.0799   21.7071 H   0  0  0  0  0  0
  -30.8851  -22.9102   22.8488 H   0  0  0  0  0  0
  -30.7997  -21.7351   21.5720 H   0  0  0  0  0  0
  -28.9867  -15.7013   25.3826 H   0  0  0  0  0  0
  -27.5048  -16.6086   25.2148 H   0  0  0  0  0  0
  -28.0546  -17.0422   21.5050 H   0  0  0  0  0  0
  -26.7503  -16.3127   22.3981 H   0  0  0  0  0  0
  -35.0900  -19.5261   20.0259 H   0  0  0  0  0  0
  -36.1745  -20.8757   19.8921 H   0  0  0  0  0  0
  -32.0929  -23.3303   20.0553 H   0  0  0  0  0  0
  -32.1339  -24.4928   21.3647 H   0  0  0  0  0  0
  -34.1246  -18.8277   23.8460 H   0  0  0  0  0  0
  -29.3501  -14.7660   22.0623 H   0  0  0  0  0  0
  -35.2969  -21.5484   22.2394 H   0  0  0  0  0  0
  -29.4449  -23.9324   21.1408 H   0  0  0  0  0  0
  1 25  1  0  0  0
  1 30  2  0  0  0
  1 92  1  0  0  0
  2  3  1  0  0  0
  2 25  1  0  0  0
  2 99  1  0  0  0
  2100  1  0  0  0
  3  4  1  0  0  0
  3101  1  0  0  0
  3102  1  0  0  0
  4  5  1  0  0  0
  4103  1  0  0  0
  4104  1  0  0  0
  5  6  1  0  0  0
  5 26  1  0  0  0
  5105  1  0  0  0
  6 25  1  0  0  0
  6106  1  0  0  0
  6107  1  0  0  0
  7  8  2  0  0  0
  7 26  1  0  0  0
  7 29  1  0  0  0
  8  9  1  0  0  0
  8 22  1  0  0  0
  9 10  1  0  0  0
  9 27  2  0  0  0
 10 11  2  0  0  0
 10 15  1  0  0  0
 11 12  1  0  0  0
 11108  1  0  0  0
 12 13  2  0  0  0
 12109  1  0  0  0
 13 14  1  0  0  0
 13 31  1  0  0  0
 14 15  2  0  0  0
 14110  1  0  0  0
 15111  1  0  0  0
 16 17  2  0  0  0
 16 21  1  0  0  0
 16 31  1  0  0  0
 17 18  1  0  0  0
 17112  1  0  0  0
 18 19  2  0  0  0
 18113  1  0  0  0
 19 20  1  0  0  0
 19 24  1  0  0  0
 20 21  2  0  0  0
 20114  1  0  0  0
 21 23  1  0  0  0
 22 28  1  0  0  0
 22 32  2  0  0  0
 26 27  1  0  0  0
 28115  1  0  0  0
 28116  1  0  0  0
 29117  1  0  0  0
 29118  1  0  0  0
 33 34  1  0  0  0
 33 66  1  0  0  0
 33 70  2  0  0  0
 34 36  1  0  0  0
 34 59  1  0  0  0
 34119  1  0  0  0
 35 44  2  0  0  0
 35 45  1  0  0  0
 35 68  1  0  0  0
 36 56  1  0  0  0
 36120  1  0  0  0
 37 39  1  0  0  0
 37 47  1  0  0  0
 37 66  1  0  0  0
 37121  1  0  0  0
 38 43  2  0  0  0
 38 46  1  0  0  0
 38 47  1  0  0  0
 39 64  1  0  0  0
 39 67  2  0  0  0
 40 52  1  0  0  0
 40 53  2  0  0  0
 40 58  1  0  0  0
 41122  1  0  0  0
 41123  1  0  0  0
 41124  1  0  0  0
 41 48  1  0  0  0
 42 43  1  0  0  0
 42 66  1  0  0  0
 42125  1  0  0  0
 42126  1  0  0  0
 43 44  1  0  0  0
 44127  1  0  0  0
 45 46  2  0  0  0
 45128  1  0  0  0
 46129  1  0  0  0
 47130  1  0  0  0
 47131  1  0  0  0
 48 56  1  0  0  0
 48 65  1  0  0  0
 48132  1  0  0  0
 49 50  1  0  0  0
 49 53  1  0  0  0
 49 64  1  0  0  0
 49133  1  0  0  0
 50 51  1  0  0  0
 50134  1  0  0  0
 50135  1  0  0  0
 51 52  1  0  0  0
 51136  1  0  0  0
 51137  1  0  0  0
 52138  1  0  0  0
 52139  1  0  0  0
 53 54  1  0  0  0
 54 55  2  0  0  0
 54140  1  0  0  0
 55 57  1  0  0  0
 55141  1  0  0  0
 56 69  2  0  0  0
 57 58  2  0  0  0
 57142  1  0  0  0
 58143  1  0  0  0
 59 60  1  0  0  0
 59 61  1  0  0  0
 59 62  1  0  0  0
 60144  1  0  0  0
 60145  1  0  0  0
 60146  1  0  0  0
 61147  1  0  0  0
 61148  1  0  0  0
 61149  1  0  0  0
 62150  1  0  0  0
 62151  1  0  0  0
 62152  1  0  0  0
 63 65  1  0  0  0
 63153  1  0  0  0
 63154  1  0  0  0
 63155  1  0  0  0
 64156  1  0  0  0
 65157  1  0  0  0
 68 84  1  0  0  0
 71 72  2  0  0  0
 71 74  1  0  0  0
 71158  1  0  0  0
 72 75  1  0  0  0
 72159  1  0  0  0
 73 74  2  0  0  0
 73 76  1  0  0  0
 73160  1  0  0  0
 74 91  1  0  0  0
 75 76  2  0  0  0
 75 95  1  0  0  0
 76 92  1  0  0  0
 77 82  1  0  0  0
 77 91  1  0  0  0
 77 96  2  0  0  0
 78 83  1  0  0  0
 78 93  1  0  0  0
 78 97  2  0  0  0
 79 84  1  0  0  0
 79 94  1  0  0  0
 79 98  2  0  0  0
 80 87  1  0  0  0
 80161  1  0  0  0
 80162  1  0  0  0
 80163  1  0  0  0
 81 88  1  0  0  0
 81164  1  0  0  0
 81165  1  0  0  0
 81166  1  0  0  0
 82 85  1  0  0  0
 82167  1  0  0  0
 82168  1  0  0  0
 83 86  1  0  0  0
 83169  1  0  0  0
 83170  1  0  0  0
 84171  1  0  0  0
 84172  1  0  0  0
 85 89  1  0  0  0
 85173  1  0  0  0
 85174  1  0  0  0
 86 90  1  0  0  0
 86175  1  0  0  0
 86176  1  0  0  0
 87 95  1  0  0  0
 87177  1  0  0  0
 87178  1  0  0  0
 88 95  1  0  0  0
 88179  1  0  0  0
 88180  1  0  0  0
 89 93  1  0  0  0
 89181  1  0  0  0
 89182  1  0  0  0
 90 94  1  0  0  0
 90183  1  0  0  0
 90184  1  0  0  0
 91185  1  0  0  0
 92186  1  0  0  0
 93187  1  0  0  0
 94188  1  0  0  0
M  ISO  4   1 100  68 101  84 101  92 100
M  END
> <chiral flag>
0

> <version>
0

> <s_m_source_file>
/data/baiqing/PycharmProjects/Reinvent-master-3.2/result/LINK_invent/BTK/process_docking_weight1_custom_sum_contain_oxygen_bond_distance_aromatic_linkinvent_7_9_3/rearranged_h_0006.sdf

> <i_m_source_file_index>
19

> <r_mmod_Potential_Energy-OPLS-2005>
-350.149322509766

> <r_mmod_Stretch_Energy-OPLS-2005>
35.7297325134277

> <r_mmod_Bend_Energy-OPLS-2005>
127.481506347656

> <r_mmod_Torsional_Energy-OPLS-2005>
229.201416015625

> <r_mmod_Improper_Torsional_Energy-OPLS-2005>
4.18209075927734

> <r_mmod_Van_der_Waal_Energy-OPLS-2005>
154.201599121094

> <r_mmod_Electrostatic_Energy-OPLS-2005>
-601.821960449219

> <r_mmod_Solvation_Energy-OPLS-2005>
-308.270690917969

> <b_mmod_Minimization_Converged-OPLS-2005>
0

> <r_mmod_RMS_Derivative-OPLS-2005>
3.71546030044556

$$$$
19
                    3D
 Structure written by MMmdl.
154162  0  0  1  0            999 V2000
  -30.7108  -14.6268   20.4661 C   0  0  0  0  0  0
  -30.4192  -12.3707   19.4872 C   0  0  0  0  0  0
  -29.5234  -12.5164   18.2410 C   0  0  0  0  0  0
  -28.0376  -12.3904   18.6298 C   0  0  0  0  0  0
  -27.6531  -13.2519   19.8619 C   0  0  2  0  0  0
  -28.7005  -13.1550   20.9979 C   0  0  0  0  0  0
  -25.2496  -13.8246   20.5676 C   0  0  0  0  0  0
  -24.1804  -13.0482   20.9207 C   0  0  0  0  0  0
  -24.6450  -11.6957   20.8755 C   0  0  0  0  0  0
  -23.9153  -10.4331   21.0423 C   0  0  0  0  0  0
  -24.3706   -9.4225   21.9188 C   0  0  0  0  0  0
  -23.6355   -8.2271   22.0761 C   0  0  0  0  0  0
  -22.4322   -8.0347   21.3568 C   0  0  0  0  0  0
  -21.9973   -9.0304   20.4677 C   0  0  0  0  0  0
  -22.7335  -10.2183   20.3052 C   0  0  0  0  0  0
  -21.6858   -6.0791   22.5275 C   0  0  0  0  0  0
  -21.4036   -6.5665   23.8220 C   0  0  0  0  0  0
  -21.3658   -5.6802   24.9155 C   0  0  0  0  0  0
  -21.6040   -4.3060   24.7199 C   0  0  0  0  0  0
  -21.8812   -3.8175   23.4303 C   0  0  0  0  0  0
  -21.9198   -4.7020   22.3371 C   0  0  0  0  0  0
  -22.7825  -13.5260   21.1856 C   0  0  0  0  0  0
  -22.1665   -4.2229   21.0940 F   0  0  0  0  0  0
  -21.5620   -3.4527   25.7690 F   0  0  0  0  0  0
  -30.0313  -13.4359   20.4296 N   0  0  0  0  0  0
  -26.2993  -12.9540   20.3339 N   0  0  0  0  0  0
  -25.9390  -11.6661   20.5770 N   0  0  0  0  0  0
  -22.0480  -12.8205   22.0431 N   0  0  0  0  0  0
  -25.4154  -15.2005   20.4022 N   0  0  0  0  0  0
  -31.8736  -14.7150   20.0715 O   0  0  0  0  0  0
  -21.6655   -6.8958   21.4251 O   0  0  0  0  0  0
  -22.3449  -14.5531   20.6733 O   0  0  0  0  0  0
  -24.6196  -31.8640   23.2021 C   0  0  0  0  0  0
  -25.9071  -32.4813   23.8347 C   0  0  1  0  0  0
  -27.2386  -27.4003   20.1077 C   0  0  0  0  0  0
  -25.5927  -33.8608   24.2299 N   0  0  0  0  0  0
  -23.4065  -30.4865   21.5427 C   0  0  2  0  0  0
  -24.8561  -28.9438   20.1140 C   0  0  0  0  0  0
  -22.7404  -29.4636   22.4923 C   0  0  0  0  0  0
  -18.0277  -28.1362   22.8461 C   0  0  0  0  0  0
  -24.1501  -36.7360   23.2618 C   0  0  0  0  0  0
  -25.9342  -30.8271   21.3454 C   0  0  0  0  0  0
  -26.0172  -29.4534   20.7055 C   0  0  0  0  0  0
  -27.2124  -28.6911   20.6949 C   0  0  0  0  0  0
  -26.0535  -26.9064   19.5192 C   0  0  0  0  0  0
  -24.8715  -27.6705   19.5174 C   0  0  0  0  0  0
  -23.6182  -29.8132   20.1587 C   0  0  0  0  0  0
  -25.4097  -36.3108   24.0334 C   0  0  1  0  0  0
  -20.5863  -28.3656   23.1281 C   0  0  2  0  0  0
  -20.6759  -26.9385   22.5388 C   0  0  0  0  0  0
  -19.5744  -26.6370   21.5172 C   0  0  0  0  0  0
  -18.1925  -26.7905   22.1596 C   0  0  0  0  0  0
  -19.1523  -28.8816   23.2891 C   0  0  0  0  0  0
  -18.9467  -30.1411   23.8933 C   0  0  0  0  0  0
  -17.6464  -30.6554   24.0560 C   0  0  0  0  0  0
  -25.9024  -34.9481   23.5108 C   0  0  0  0  0  0
  -16.5353  -29.9057   23.6307 C   0  0  0  0  0  0
  -16.7261  -28.6477   23.0315 C   0  0  0  0  0  0
  -26.4471  -31.6589   25.0691 C   0  0  0  0  0  0
  -25.3762  -31.3717   26.1473 C   0  0  0  0  0  0
  -27.0264  -30.3038   24.6016 C   0  0  0  0  0  0
  -27.6028  -32.4292   25.7504 C   0  0  0  0  0  0
  -27.5589  -37.1826   24.8427 C   0  0  0  0  0  0
  -21.4124  -29.3057   22.3696 N   0  0  0  0  0  0
  -26.4271  -37.3810   23.9410 N   0  0  0  0  0  0
  -24.6729  -31.0717   22.0919 N   0  0  0  0  0  0
  -23.4162  -28.8153   23.2953 O   0  0  0  0  0  0
  -28.4218  -26.6753   20.1424 O   0  0  0  0  0  0
  -26.5575  -34.8943   22.4663 O   0  0  0  0  0  0
  -23.5388  -32.1385   23.7425 O   0  0  0  0  0  0
  -31.5993  -19.1266   20.0204 C   0  0  0  0  0  0
  -31.4733  -17.7336   20.2361 C   0  0  0  0  0  0
  -30.4851  -19.9795   20.1277 C   0  0  0  0  0  0
  -29.1027  -18.0439   20.6408 C   0  0  0  0  0  0
  -30.2132  -17.1554   20.5486 C   0  0  0  0  0  0
  -29.2176  -19.4529   20.4527 C   0  0  0  0  0  0
  -28.1039  -24.1997   20.6508 C   0  0  0  0  0  0
  -28.0625  -22.7514   20.0525 C   0  0  0  0  0  0
  -28.4862  -25.3201   19.6377 C   0  0  0  0  0  0
  -28.2288  -21.5984   21.0890 C   0  0  0  0  0  0
  -29.9829  -15.7353   20.7930 N   0  0  0  0  0  0
  -28.0923  -20.2637   20.5520 O   0  0  0  0  0  0
  -31.4728  -12.4190   19.2138 H   0  0  0  0  0  0
  -30.2789  -11.3944   19.9547 H   0  0  0  0  0  0
  -29.7904  -11.7652   17.4988 H   0  0  0  0  0  0
  -29.7031  -13.4835   17.7639 H   0  0  0  0  0  0
  -27.8398  -11.3397   18.8463 H   0  0  0  0  0  0
  -27.4064  -12.6547   17.7808 H   0  0  0  0  0  0
  -27.6568  -14.2826   19.5104 H   0  0  0  0  0  0
  -28.6858  -12.1606   21.4404 H   0  0  0  0  0  0
  -28.4554  -13.8473   21.8063 H   0  0  0  0  0  0
  -25.2893   -9.5654   22.4706 H   0  0  0  0  0  0
  -24.0105   -7.4623   22.7406 H   0  0  0  0  0  0
  -21.0911   -8.8836   19.8935 H   0  0  0  0  0  0
  -22.3856  -10.9714   19.6087 H   0  0  0  0  0  0
  -21.2051   -7.6177   23.9746 H   0  0  0  0  0  0
  -21.1477   -6.0515   25.9063 H   0  0  0  0  0  0
  -22.0607   -2.7655   23.2744 H   0  0  0  0  0  0
  -22.4137  -11.9905   22.4848 H   0  0  0  0  0  0
  -21.1050  -13.1135   22.2587 H   0  0  0  0  0  0
  -24.6281  -15.8415   20.4170 H   0  0  0  0  0  0
  -26.2419  -15.6114   19.9897 H   0  0  0  0  0  0
  -26.7149  -32.5524   23.1123 H   0  0  0  0  0  0
  -25.0169  -33.9761   25.0508 H   0  0  0  0  0  0
  -22.6994  -31.3054   21.3968 H   0  0  0  0  0  0
  -23.3746  -35.9703   23.3197 H   0  0  0  0  0  0
  -24.3624  -36.9063   22.2048 H   0  0  0  0  0  0
  -23.7256  -37.6557   23.6668 H   0  0  0  0  0  0
  -26.0212  -31.5765   20.5588 H   0  0  0  0  0  0
  -26.8330  -30.9120   21.9428 H   0  0  0  0  0  0
  -28.1098  -29.0890   21.1483 H   0  0  0  0  0  0
  -26.0083  -25.9245   19.0690 H   0  0  0  0  0  0
  -23.9794  -27.2608   19.0642 H   0  0  0  0  0  0
  -23.7289  -30.5858   19.3970 H   0  0  0  0  0  0
  -22.7426  -29.2353   19.8586 H   0  0  0  0  0  0
  -25.1253  -36.1971   25.0824 H   0  0  0  0  0  0
  -20.9995  -28.3240   24.1390 H   0  0  0  0  0  0
  -20.5618  -26.2276   23.3578 H   0  0  0  0  0  0
  -21.6647  -26.7390   22.1206 H   0  0  0  0  0  0
  -19.6898  -25.6286   21.1194 H   0  0  0  0  0  0
  -19.6673  -27.3190   20.6706 H   0  0  0  0  0  0
  -17.4188  -26.6632   21.4011 H   0  0  0  0  0  0
  -18.0345  -26.0037   22.8981 H   0  0  0  0  0  0
  -19.7957  -30.7200   24.2341 H   0  0  0  0  0  0
  -17.5028  -31.6246   24.5133 H   0  0  0  0  0  0
  -15.5352  -30.2955   23.7622 H   0  0  0  0  0  0
  -15.8670  -28.0802   22.6994 H   0  0  0  0  0  0
  -24.5916  -30.7062   25.7868 H   0  0  0  0  0  0
  -24.9000  -32.2896   26.4932 H   0  0  0  0  0  0
  -25.8179  -30.8912   27.0217 H   0  0  0  0  0  0
  -26.2765  -29.6850   24.1087 H   0  0  0  0  0  0
  -27.4076  -29.7228   25.4420 H   0  0  0  0  0  0
  -27.8578  -30.4377   23.9094 H   0  0  0  0  0  0
  -27.2614  -33.3568   26.2114 H   0  0  0  0  0  0
  -28.3867  -32.6885   25.0377 H   0  0  0  0  0  0
  -28.0647  -31.8393   26.5440 H   0  0  0  0  0  0
  -28.2524  -38.0205   24.7571 H   0  0  0  0  0  0
  -28.1175  -36.2752   24.6087 H   0  0  0  0  0  0
  -27.2351  -37.1290   25.8839 H   0  0  0  0  0  0
  -20.9231  -29.8897   21.7058 H   0  0  0  0  0  0
  -26.0160  -38.2889   24.1431 H   0  0  0  0  0  0
  -32.5559  -19.5634   19.7691 H   0  0  0  0  0  0
  -32.3629  -17.1298   20.1575 H   0  0  0  0  0  0
  -30.6114  -21.0373   19.9408 H   0  0  0  0  0  0
  -28.1325  -17.6319   20.8764 H   0  0  0  0  0  0
  -28.8328  -24.2229   21.4612 H   0  0  0  0  0  0
  -27.1433  -24.4283   21.1122 H   0  0  0  0  0  0
  -28.8428  -22.6539   19.2980 H   0  0  0  0  0  0
  -27.1116  -22.6214   19.5272 H   0  0  0  0  0  0
  -27.9654  -25.2114   18.6896 H   0  0  0  0  0  0
  -29.5315  -25.1508   19.3834 H   0  0  0  0  0  0
  -27.4483  -21.7030   21.8432 H   0  0  0  0  0  0
  -29.1667  -21.6970   21.6376 H   0  0  0  0  0  0
  -29.0543  -15.5175   21.1144 H   0  0  0  0  0  0
  1 25  1  0  0  0
  1 30  2  0  0  0
  1 81  1  0  0  0
  2  3  1  0  0  0
  2 25  1  0  0  0
  2 83  1  0  0  0
  2 84  1  0  0  0
  3  4  1  0  0  0
  3 85  1  0  0  0
  3 86  1  0  0  0
  4  5  1  0  0  0
  4 87  1  0  0  0
  4 88  1  0  0  0
  5  6  1  0  0  0
  5 26  1  0  0  0
  5 89  1  0  0  0
  6 25  1  0  0  0
  6 90  1  0  0  0
  6 91  1  0  0  0
  7  8  2  0  0  0
  7 26  1  0  0  0
  7 29  1  0  0  0
  8  9  1  0  0  0
  8 22  1  0  0  0
  9 10  1  0  0  0
  9 27  2  0  0  0
 10 11  2  0  0  0
 10 15  1  0  0  0
 11 12  1  0  0  0
 11 92  1  0  0  0
 12 13  2  0  0  0
 12 93  1  0  0  0
 13 14  1  0  0  0
 13 31  1  0  0  0
 14 15  2  0  0  0
 14 94  1  0  0  0
 15 95  1  0  0  0
 16 17  2  0  0  0
 16 21  1  0  0  0
 16 31  1  0  0  0
 17 18  1  0  0  0
 17 96  1  0  0  0
 18 19  2  0  0  0
 18 97  1  0  0  0
 19 20  1  0  0  0
 19 24  1  0  0  0
 20 21  2  0  0  0
 20 98  1  0  0  0
 21 23  1  0  0  0
 22 28  1  0  0  0
 22 32  2  0  0  0
 26 27  1  0  0  0
 28 99  1  0  0  0
 28100  1  0  0  0
 29101  1  0  0  0
 29102  1  0  0  0
 33 34  1  0  0  0
 33 66  1  0  0  0
 33 70  2  0  0  0
 34 36  1  0  0  0
 34 59  1  0  0  0
 34103  1  0  0  0
 35 44  2  0  0  0
 35 45  1  0  0  0
 35 68  1  0  0  0
 36 56  1  0  0  0
 36104  1  0  0  0
 37 39  1  0  0  0
 37 47  1  0  0  0
 37 66  1  0  0  0
 37105  1  0  0  0
 38 43  2  0  0  0
 38 46  1  0  0  0
 38 47  1  0  0  0
 39 64  1  0  0  0
 39 67  2  0  0  0
 40 52  1  0  0  0
 40 53  2  0  0  0
 40 58  1  0  0  0
 41106  1  0  0  0
 41107  1  0  0  0
 41108  1  0  0  0
 41 48  1  0  0  0
 42 43  1  0  0  0
 42 66  1  0  0  0
 42109  1  0  0  0
 42110  1  0  0  0
 43 44  1  0  0  0
 44111  1  0  0  0
 45 46  2  0  0  0
 45112  1  0  0  0
 46113  1  0  0  0
 47114  1  0  0  0
 47115  1  0  0  0
 48 56  1  0  0  0
 48 65  1  0  0  0
 48116  1  0  0  0
 49 50  1  0  0  0
 49 53  1  0  0  0
 49 64  1  0  0  0
 49117  1  0  0  0
 50 51  1  0  0  0
 50118  1  0  0  0
 50119  1  0  0  0
 51 52  1  0  0  0
 51120  1  0  0  0
 51121  1  0  0  0
 52122  1  0  0  0
 52123  1  0  0  0
 53 54  1  0  0  0
 54 55  2  0  0  0
 54124  1  0  0  0
 55 57  1  0  0  0
 55125  1  0  0  0
 56 69  2  0  0  0
 57 58  2  0  0  0
 57126  1  0  0  0
 58127  1  0  0  0
 59 60  1  0  0  0
 59 61  1  0  0  0
 59 62  1  0  0  0
 60128  1  0  0  0
 60129  1  0  0  0
 60130  1  0  0  0
 61131  1  0  0  0
 61132  1  0  0  0
 61133  1  0  0  0
 62134  1  0  0  0
 62135  1  0  0  0
 62136  1  0  0  0
 63 65  1  0  0  0
 63137  1  0  0  0
 63138  1  0  0  0
 63139  1  0  0  0
 64140  1  0  0  0
 65141  1  0  0  0
 68 79  1  0  0  0
 71 72  2  0  0  0
 71 73  1  0  0  0
 71142  1  0  0  0
 72 75  1  0  0  0
 72143  1  0  0  0
 73 76  2  0  0  0
 73144  1  0  0  0
 74 75  2  0  0  0
 74 76  1  0  0  0
 74145  1  0  0  0
 75 81  1  0  0  0
 76 82  1  0  0  0
 77 78  1  0  0  0
 77 79  1  0  0  0
 77146  1  0  0  0
 77147  1  0  0  0
 78 80  1  0  0  0
 78148  1  0  0  0
 78149  1  0  0  0
 79150  1  0  0  0
 79151  1  0  0  0
 80 82  1  0  0  0
 80152  1  0  0  0
 80153  1  0  0  0
 81154  1  0  0  0
M  ISO  4   1 100  68 101  79 101  81 100
M  END
> <chiral flag>
0

> <version>
0

> <s_m_source_file>
/data/baiqing/PycharmProjects/Reinvent-master-3.2/result/LINK_invent/BTK/process_docking_weight1_custom_sum_contain_oxygen_bond_distance_aromatic_linkinvent_7_9_3/rearranged_h_0006.sdf

> <i_m_source_file_index>
20

> <r_mmod_Potential_Energy-OPLS-2005>
12.3938570022583

> <r_mmod_Stretch_Energy-OPLS-2005>
53.158374786377

> <r_mmod_Bend_Energy-OPLS-2005>
125.004516601562

> <r_mmod_Torsional_Energy-OPLS-2005>
215.281326293945

> <r_mmod_Improper_Torsional_Energy-OPLS-2005>
4.95515584945679

> <r_mmod_Van_der_Waal_Energy-OPLS-2005>
147.654434204102

> <r_mmod_Electrostatic_Energy-OPLS-2005>
-362.478637695312

> <r_mmod_Solvation_Energy-OPLS-2005>
-207.331604003906

> <b_mmod_Minimization_Converged-OPLS-2005>
0

> <r_mmod_RMS_Derivative-OPLS-2005>
6.90671491622925

$$$$
20
                    3D
 Structure written by MMmdl.
154162  0  0  1  0            999 V2000
  -30.6791  -14.4856   20.5563 C   0  0  0  0  0  0
  -30.4310  -12.3065   19.4270 C   0  0  0  0  0  0
  -29.4992  -12.4930   18.2105 C   0  0  0  0  0  0
  -28.0182  -12.3629   18.6210 C   0  0  0  0  0  0
  -27.6642  -13.1998   19.8794 C   0  0  2  0  0  0
  -28.7065  -12.9753   20.9985 C   0  0  0  0  0  0
  -25.2607  -13.8143   20.5685 C   0  0  0  0  0  0
  -24.1845  -13.0433   20.9174 C   0  0  0  0  0  0
  -24.6387  -11.6894   20.8735 C   0  0  0  0  0  0
  -23.9048  -10.4288   21.0404 C   0  0  0  0  0  0
  -24.3604   -9.4205   21.9182 C   0  0  0  0  0  0
  -23.6284   -8.2239   22.0752 C   0  0  0  0  0  0
  -22.4267   -8.0277   21.3543 C   0  0  0  0  0  0
  -21.9898   -9.0251   20.4648 C   0  0  0  0  0  0
  -22.7221  -10.2131   20.3056 C   0  0  0  0  0  0
  -21.6851   -6.0732   22.5278 C   0  0  0  0  0  0
  -21.4013   -6.5636   23.8211 C   0  0  0  0  0  0
  -21.3658   -5.6790   24.9173 C   0  0  0  0  0  0
  -21.6044   -4.3054   24.7225 C   0  0  0  0  0  0
  -21.8820   -3.8144   23.4347 C   0  0  0  0  0  0
  -21.9192   -4.6960   22.3403 C   0  0  0  0  0  0
  -22.7869  -13.5243   21.1840 C   0  0  0  0  0  0
  -22.1662   -4.2146   21.0980 F   0  0  0  0  0  0
  -21.5628   -3.4538   25.7738 F   0  0  0  0  0  0
  -30.0393  -13.2878   20.4508 N   0  0  0  0  0  0
  -26.3037  -12.9294   20.3386 N   0  0  0  0  0  0
  -25.9313  -11.6463   20.5779 N   0  0  0  0  0  0
  -22.0506  -12.8241   22.0398 N   0  0  0  0  0  0
  -25.4354  -15.1858   20.4095 N   0  0  0  0  0  0
  -31.7989  -14.6965   20.0804 O   0  0  0  0  0  0
  -21.6634   -6.8872   21.4239 O   0  0  0  0  0  0
  -22.3559  -14.5552   20.6690 O   0  0  0  0  0  0
  -24.6144  -31.8675   23.2097 C   0  0  0  0  0  0
  -25.9036  -32.4822   23.8394 C   0  0  1  0  0  0
  -27.2385  -27.4397   20.0988 C   0  0  0  0  0  0
  -25.5893  -33.8620   24.2327 N   0  0  0  0  0  0
  -23.4039  -30.4898   21.5491 C   0  0  2  0  0  0
  -24.8546  -28.9575   20.1112 C   0  0  0  0  0  0
  -22.7414  -29.4652   22.4981 C   0  0  0  0  0  0
  -18.0271  -28.1374   22.8491 C   0  0  0  0  0  0
  -24.1486  -36.7316   23.2637 C   0  0  0  0  0  0
  -25.9321  -30.8353   21.3628 C   0  0  0  0  0  0
  -26.0135  -29.4705   20.7093 C   0  0  0  0  0  0
  -27.2116  -28.7184   20.7016 C   0  0  0  0  0  0
  -26.0687  -26.9416   19.4904 C   0  0  0  0  0  0
  -24.8770  -27.6921   19.4973 C   0  0  0  0  0  0
  -23.6138  -29.8212   20.1634 C   0  0  0  0  0  0
  -25.4105  -36.3114   24.0340 C   0  0  1  0  0  0
  -20.5863  -28.3662   23.1315 C   0  0  2  0  0  0
  -20.6762  -26.9399   22.5418 C   0  0  0  0  0  0
  -19.5745  -26.6383   21.5209 C   0  0  0  0  0  0
  -18.1922  -26.7920   22.1622 C   0  0  0  0  0  0
  -19.1521  -28.8833   23.2900 C   0  0  0  0  0  0
  -18.9452  -30.1440   23.8910 C   0  0  0  0  0  0
  -17.6455  -30.6583   24.0561 C   0  0  0  0  0  0
  -25.9032  -34.9477   23.5132 C   0  0  0  0  0  0
  -16.5345  -29.9086   23.6324 C   0  0  0  0  0  0
  -16.7261  -28.6500   23.0348 C   0  0  0  0  0  0
  -26.4470  -31.6597   25.0718 C   0  0  0  0  0  0
  -25.3743  -31.3705   26.1474 C   0  0  0  0  0  0
  -27.0294  -30.3040   24.6087 C   0  0  0  0  0  0
  -27.6052  -32.4311   25.7476 C   0  0  0  0  0  0
  -27.5585  -37.1805   24.8461 C   0  0  0  0  0  0
  -21.4140  -29.3031   22.3722 N   0  0  0  0  0  0
  -26.4291  -37.3798   23.9416 N   0  0  0  0  0  0
  -24.6681  -31.0778   22.0994 N   0  0  0  0  0  0
  -23.4184  -28.8195   23.3026 O   0  0  0  0  0  0
  -28.3647  -26.6475   20.1292 O   0  0  0  0  0  0
  -26.5595  -34.8929   22.4694 O   0  0  0  0  0  0
  -23.5336  -32.1421   23.7492 O   0  0  0  0  0  0
  -30.2551  -17.8200   21.7747 C   0  0  0  0  0  0
  -30.1421  -19.2056   21.5034 C   0  0  0  0  0  0
  -29.4490  -18.6915   19.2412 C   0  0  0  0  0  0
  -29.9684  -16.8537   20.7820 C   0  0  0  0  0  0
  -29.7151  -19.6599   20.2302 C   0  0  0  0  0  0
  -29.5622  -17.3093   19.4997 C   0  0  0  0  0  0
  -29.3906  -24.5883   21.1905 C   0  0  0  0  0  0
  -29.0940  -23.3537   20.2998 C   0  0  0  0  0  0
  -28.3108  -25.7006   21.2068 C   0  0  0  0  0  0
  -29.7267  -22.0343   20.8206 C   0  0  0  0  0  0
  -29.9612  -15.4668   21.1356 N   0  0  0  0  0  0
  -29.5098  -20.9844   19.8734 O   0  0  0  0  0  0
  -29.1272  -16.2198   18.2299 Cl  0  0  0  0  0  0
  -31.4742  -12.4146   19.1244 H   0  0  0  0  0  0
  -30.3413  -11.2951   19.8259 H   0  0  0  0  0  0
  -29.7365  -11.7582   17.4400 H   0  0  0  0  0  0
  -29.6736  -13.4691   17.7578 H   0  0  0  0  0  0
  -27.8219  -11.3077   18.8144 H   0  0  0  0  0  0
  -27.3712  -12.6437   17.7892 H   0  0  0  0  0  0
  -27.7061  -14.2476   19.5881 H   0  0  0  0  0  0
  -28.6847  -11.9363   21.3309 H   0  0  0  0  0  0
  -28.4637  -13.5646   21.8837 H   0  0  0  0  0  0
  -25.2750   -9.5684   22.4752 H   0  0  0  0  0  0
  -23.9997   -7.4630   22.7468 H   0  0  0  0  0  0
  -21.0829   -8.8768   19.8955 H   0  0  0  0  0  0
  -22.3680  -10.9669   19.6164 H   0  0  0  0  0  0
  -21.2005   -7.6145   23.9713 H   0  0  0  0  0  0
  -21.1479   -6.0520   25.9076 H   0  0  0  0  0  0
  -22.0601   -2.7607   23.2846 H   0  0  0  0  0  0
  -22.4113  -11.9898   22.4786 H   0  0  0  0  0  0
  -21.1129  -13.1281   22.2609 H   0  0  0  0  0  0
  -24.6709  -15.8438   20.5144 H   0  0  0  0  0  0
  -26.2890  -15.6191   20.0810 H   0  0  0  0  0  0
  -26.7110  -32.5542   23.1163 H   0  0  0  0  0  0
  -25.0051  -33.9784   25.0477 H   0  0  0  0  0  0
  -22.6924  -31.3063   21.4090 H   0  0  0  0  0  0
  -23.3748  -35.9650   23.3301 H   0  0  0  0  0  0
  -24.3582  -36.8928   22.2051 H   0  0  0  0  0  0
  -23.7237  -37.6523   23.6646 H   0  0  0  0  0  0
  -26.0431  -31.6024   20.5951 H   0  0  0  0  0  0
  -26.8200  -30.8898   21.9808 H   0  0  0  0  0  0
  -28.1045  -29.1051   21.1727 H   0  0  0  0  0  0
  -26.0785  -25.9645   19.0279 H   0  0  0  0  0  0
  -23.9866  -27.2904   19.0334 H   0  0  0  0  0  0
  -23.7186  -30.5961   19.4030 H   0  0  0  0  0  0
  -22.7394  -29.2380   19.8690 H   0  0  0  0  0  0
  -25.1279  -36.1979   25.0832 H   0  0  0  0  0  0
  -20.9958  -28.3228   24.1435 H   0  0  0  0  0  0
  -20.5662  -26.2270   23.3603 H   0  0  0  0  0  0
  -21.6634  -26.7439   22.1213 H   0  0  0  0  0  0
  -19.6909  -25.6297   21.1232 H   0  0  0  0  0  0
  -19.6689  -27.3199   20.6744 H   0  0  0  0  0  0
  -17.4196  -26.6667   21.4020 H   0  0  0  0  0  0
  -18.0326  -26.0057   22.9012 H   0  0  0  0  0  0
  -19.7930  -30.7244   24.2291 H   0  0  0  0  0  0
  -17.5015  -31.6267   24.5158 H   0  0  0  0  0  0
  -15.5346  -30.2994   23.7641 H   0  0  0  0  0  0
  -15.8659  -28.0822   22.7060 H   0  0  0  0  0  0
  -24.5902  -30.7066   25.7813 H   0  0  0  0  0  0
  -24.8951  -32.2863   26.4945 H   0  0  0  0  0  0
  -25.8102  -30.8853   27.0217 H   0  0  0  0  0  0
  -26.2831  -29.6806   24.1148 H   0  0  0  0  0  0
  -27.4075  -29.7270   25.4537 H   0  0  0  0  0  0
  -27.8664  -30.4358   23.9225 H   0  0  0  0  0  0
  -27.2677  -33.3597   26.2090 H   0  0  0  0  0  0
  -28.3841  -32.6892   25.0288 H   0  0  0  0  0  0
  -28.0745  -31.8412   26.5360 H   0  0  0  0  0  0
  -28.2595  -38.0111   24.7529 H   0  0  0  0  0  0
  -28.1087  -36.2644   24.6253 H   0  0  0  0  0  0
  -27.2308  -37.1422   25.8865 H   0  0  0  0  0  0
  -20.9299  -29.8751   21.6943 H   0  0  0  0  0  0
  -26.0181  -38.2876   24.1428 H   0  0  0  0  0  0
  -30.5480  -17.5021   22.7654 H   0  0  0  0  0  0
  -30.3675  -19.9014   22.2982 H   0  0  0  0  0  0
  -29.1192  -19.0142   18.2647 H   0  0  0  0  0  0
  -30.3681  -25.0081   20.9513 H   0  0  0  0  0  0
  -29.4747  -24.2319   22.2181 H   0  0  0  0  0  0
  -29.4345  -23.5569   19.2840 H   0  0  0  0  0  0
  -28.0163  -23.2038   20.2296 H   0  0  0  0  0  0
  -28.4300  -26.2701   22.1304 H   0  0  0  0  0  0
  -27.3249  -25.2362   21.2747 H   0  0  0  0  0  0
  -29.2731  -21.7866   21.7811 H   0  0  0  0  0  0
  -30.7986  -22.1596   20.9801 H   0  0  0  0  0  0
  -29.1315  -15.1503   21.6134 H   0  0  0  0  0  0
  1 25  1  0  0  0
  1 30  2  0  0  0
  1 81  1  0  0  0
  2  3  1  0  0  0
  2 25  1  0  0  0
  2 84  1  0  0  0
  2 85  1  0  0  0
  3  4  1  0  0  0
  3 86  1  0  0  0
  3 87  1  0  0  0
  4  5  1  0  0  0
  4 88  1  0  0  0
  4 89  1  0  0  0
  5  6  1  0  0  0
  5 26  1  0  0  0
  5 90  1  0  0  0
  6 25  1  0  0  0
  6 91  1  0  0  0
  6 92  1  0  0  0
  7  8  2  0  0  0
  7 26  1  0  0  0
  7 29  1  0  0  0
  8  9  1  0  0  0
  8 22  1  0  0  0
  9 10  1  0  0  0
  9 27  2  0  0  0
 10 11  2  0  0  0
 10 15  1  0  0  0
 11 12  1  0  0  0
 11 93  1  0  0  0
 12 13  2  0  0  0
 12 94  1  0  0  0
 13 14  1  0  0  0
 13 31  1  0  0  0
 14 15  2  0  0  0
 14 95  1  0  0  0
 15 96  1  0  0  0
 16 17  2  0  0  0
 16 21  1  0  0  0
 16 31  1  0  0  0
 17 18  1  0  0  0
 17 97  1  0  0  0
 18 19  2  0  0  0
 18 98  1  0  0  0
 19 20  1  0  0  0
 19 24  1  0  0  0
 20 21  2  0  0  0
 20 99  1  0  0  0
 21 23  1  0  0  0
 22 28  1  0  0  0
 22 32  2  0  0  0
 26 27  1  0  0  0
 28100  1  0  0  0
 28101  1  0  0  0
 29102  1  0  0  0
 29103  1  0  0  0
 33 34  1  0  0  0
 33 66  1  0  0  0
 33 70  2  0  0  0
 34 36  1  0  0  0
 34 59  1  0  0  0
 34104  1  0  0  0
 35 44  2  0  0  0
 35 45  1  0  0  0
 35 68  1  0  0  0
 36 56  1  0  0  0
 36105  1  0  0  0
 37 39  1  0  0  0
 37 47  1  0  0  0
 37 66  1  0  0  0
 37106  1  0  0  0
 38 43  2  0  0  0
 38 46  1  0  0  0
 38 47  1  0  0  0
 39 64  1  0  0  0
 39 67  2  0  0  0
 40 52  1  0  0  0
 40 53  2  0  0  0
 40 58  1  0  0  0
 41107  1  0  0  0
 41108  1  0  0  0
 41109  1  0  0  0
 41 48  1  0  0  0
 42 43  1  0  0  0
 42 66  1  0  0  0
 42110  1  0  0  0
 42111  1  0  0  0
 43 44  1  0  0  0
 44112  1  0  0  0
 45 46  2  0  0  0
 45113  1  0  0  0
 46114  1  0  0  0
 47115  1  0  0  0
 47116  1  0  0  0
 48 56  1  0  0  0
 48 65  1  0  0  0
 48117  1  0  0  0
 49 50  1  0  0  0
 49 53  1  0  0  0
 49 64  1  0  0  0
 49118  1  0  0  0
 50 51  1  0  0  0
 50119  1  0  0  0
 50120  1  0  0  0
 51 52  1  0  0  0
 51121  1  0  0  0
 51122  1  0  0  0
 52123  1  0  0  0
 52124  1  0  0  0
 53 54  1  0  0  0
 54 55  2  0  0  0
 54125  1  0  0  0
 55 57  1  0  0  0
 55126  1  0  0  0
 56 69  2  0  0  0
 57 58  2  0  0  0
 57127  1  0  0  0
 58128  1  0  0  0
 59 60  1  0  0  0
 59 61  1  0  0  0
 59 62  1  0  0  0
 60129  1  0  0  0
 60130  1  0  0  0
 60131  1  0  0  0
 61132  1  0  0  0
 61133  1  0  0  0
 61134  1  0  0  0
 62135  1  0  0  0
 62136  1  0  0  0
 62137  1  0  0  0
 63 65  1  0  0  0
 63138  1  0  0  0
 63139  1  0  0  0
 63140  1  0  0  0
 64141  1  0  0  0
 65142  1  0  0  0
 68 79  1  0  0  0
 71 72  2  0  0  0
 71 74  1  0  0  0
 71143  1  0  0  0
 72 75  1  0  0  0
 72144  1  0  0  0
 73 75  2  0  0  0
 73 76  1  0  0  0
 73145  1  0  0  0
 74 76  2  0  0  0
 74 81  1  0  0  0
 75 82  1  0  0  0
 76 83  1  0  0  0
 77 78  1  0  0  0
 77 79  1  0  0  0
 77146  1  0  0  0
 77147  1  0  0  0
 78 80  1  0  0  0
 78148  1  0  0  0
 78149  1  0  0  0
 79150  1  0  0  0
 79151  1  0  0  0
 80 82  1  0  0  0
 80152  1  0  0  0
 80153  1  0  0  0
 81154  1  0  0  0
M  ISO  4   1 100  68 101  79 101  81 100
M  END
> <chiral flag>
0

> <version>
0

> <s_m_source_file>
/data/baiqing/PycharmProjects/Reinvent-master-3.2/result/LINK_invent/BTK/process_docking_weight1_custom_sum_contain_oxygen_bond_distance_aromatic_linkinvent_7_9_3/rearranged_h_0006.sdf

> <i_m_source_file_index>
21

> <r_mmod_Potential_Energy-OPLS-2005>
-49.3858757019043

> <r_mmod_Stretch_Energy-OPLS-2005>
38.1119155883789

> <r_mmod_Bend_Energy-OPLS-2005>
103.082420349121

> <r_mmod_Torsional_Energy-OPLS-2005>
270.449920654297

> <r_mmod_Improper_Torsional_Energy-OPLS-2005>
4.55658578872681

> <r_mmod_Van_der_Waal_Energy-OPLS-2005>
144.82958984375

> <r_mmod_Electrostatic_Energy-OPLS-2005>
-415.180419921875

> <r_mmod_Solvation_Energy-OPLS-2005>
-209.46630859375

> <b_mmod_Minimization_Converged-OPLS-2005>
0

> <r_mmod_RMS_Derivative-OPLS-2005>
0.395355254411697

$$$$
21
                    3D
 Structure written by MMmdl.
173180  0  0  1  0            999 V2000
  -30.7389  -14.3946   20.6340 C   0  0  0  0  0  0
  -30.4226  -12.2869   19.4016 C   0  0  0  0  0  0
  -29.4961  -12.5313   18.1950 C   0  0  0  0  0  0
  -28.0140  -12.3866   18.6023 C   0  0  0  0  0  0
  -27.6665  -13.2015   19.8772 C   0  0  2  0  0  0
  -28.7087  -12.9380   20.9890 C   0  0  0  0  0  0
  -25.2601  -13.8169   20.5630 C   0  0  0  0  0  0
  -24.1852  -13.0440   20.9168 C   0  0  0  0  0  0
  -24.6397  -11.6912   20.8727 C   0  0  0  0  0  0
  -23.9058  -10.4303   21.0380 C   0  0  0  0  0  0
  -24.3609   -9.4223   21.9160 C   0  0  0  0  0  0
  -23.6307   -8.2248   22.0748 C   0  0  0  0  0  0
  -22.4291   -8.0269   21.3544 C   0  0  0  0  0  0
  -21.9917   -9.0238   20.4635 C   0  0  0  0  0  0
  -22.7230  -10.2124   20.3043 C   0  0  0  0  0  0
  -21.6838   -6.0737   22.5287 C   0  0  0  0  0  0
  -21.3999   -6.5646   23.8218 C   0  0  0  0  0  0
  -21.3671   -5.6803   24.9181 C   0  0  0  0  0  0
  -21.6049   -4.3068   24.7217 C   0  0  0  0  0  0
  -21.8824   -3.8151   23.4337 C   0  0  0  0  0  0
  -21.9190   -4.6969   22.3395 C   0  0  0  0  0  0
  -22.7861  -13.5232   21.1818 C   0  0  0  0  0  0
  -22.1647   -4.2162   21.0964 F   0  0  0  0  0  0
  -21.5648   -3.4548   25.7728 F   0  0  0  0  0  0
  -30.0454  -13.2438   20.4488 N   0  0  0  0  0  0
  -26.3035  -12.9314   20.3352 N   0  0  0  0  0  0
  -25.9322  -11.6483   20.5761 N   0  0  0  0  0  0
  -22.0464  -12.8271   22.0374 N   0  0  0  0  0  0
  -25.4355  -15.1870   20.3978 N   0  0  0  0  0  0
  -31.8425  -14.6093   20.1236 O   0  0  0  0  0  0
  -21.6624   -6.8883   21.4259 O   0  0  0  0  0  0
  -22.3567  -14.5526   20.6628 O   0  0  0  0  0  0
  -24.6124  -31.8689   23.2114 C   0  0  0  0  0  0
  -25.9034  -32.4832   23.8390 C   0  0  1  0  0  0
  -27.2539  -27.4875   20.0564 C   0  0  0  0  0  0
  -25.5909  -33.8632   24.2338 N   0  0  0  0  0  0
  -23.3994  -30.4921   21.5495 C   0  0  2  0  0  0
  -24.8475  -28.9576   20.1164 C   0  0  0  0  0  0
  -22.7393  -29.4670   22.4992 C   0  0  0  0  0  0
  -18.0276  -28.1372   22.8506 C   0  0  0  0  0  0
  -24.1481  -36.7347   23.2632 C   0  0  0  0  0  0
  -25.9225  -30.8466   21.3563 C   0  0  0  0  0  0
  -26.0039  -29.4827   20.7079 C   0  0  0  0  0  0
  -27.2112  -28.7520   20.6858 C   0  0  0  0  0  0
  -26.0762  -26.9522   19.5010 C   0  0  0  0  0  0
  -24.8733  -27.6850   19.5190 C   0  0  0  0  0  0
  -23.6067  -29.8217   20.1653 C   0  0  0  0  0  0
  -25.4097  -36.3131   24.0337 C   0  0  1  0  0  0
  -20.5866  -28.3675   23.1304 C   0  0  2  0  0  0
  -20.6779  -26.9418   22.5416 C   0  0  0  0  0  0
  -19.5753  -26.6391   21.5215 C   0  0  0  0  0  0
  -18.1922  -26.7931   22.1621 C   0  0  0  0  0  0
  -19.1527  -28.8835   23.2905 C   0  0  0  0  0  0
  -18.9463  -30.1448   23.8909 C   0  0  0  0  0  0
  -17.6464  -30.6579   24.0568 C   0  0  0  0  0  0
  -25.9026  -34.9490   23.5129 C   0  0  0  0  0  0
  -16.5348  -29.9090   23.6307 C   0  0  0  0  0  0
  -16.7272  -28.6500   23.0339 C   0  0  0  0  0  0
  -26.4481  -31.6592   25.0696 C   0  0  0  0  0  0
  -25.3768  -31.3693   26.1461 C   0  0  0  0  0  0
  -27.0278  -30.3019   24.6046 C   0  0  0  0  0  0
  -27.6055  -32.4303   25.7494 C   0  0  0  0  0  0
  -27.5588  -37.1824   24.8459 C   0  0  0  0  0  0
  -21.4126  -29.3046   22.3707 N   0  0  0  0  0  0
  -26.4288  -37.3811   23.9415 N   0  0  0  0  0  0
  -24.6630  -31.0817   22.0989 N   0  0  0  0  0  0
  -23.4170  -28.8203   23.3034 O   0  0  0  0  0  0
  -28.4026  -26.7384   19.9882 O   0  0  0  0  0  0
  -26.5573  -34.8932   22.4685 O   0  0  0  0  0  0
  -23.5318  -32.1442   23.7514 O   0  0  0  0  0  0
  -30.7803  -17.5303   20.3023 C   0  0  0  0  0  0
  -30.8585  -20.0325   18.3630 C   0  0  0  0  0  0
  -29.6989  -26.7400   17.9267 C   0  0  0  0  0  0
  -30.5486  -16.7091   21.5842 C   0  0  0  0  0  0
  -31.9245  -19.5623   19.3669 C   0  0  0  0  0  0
  -29.5184  -27.3446   19.3302 C   0  0  0  0  0  0
  -28.4787  -23.6232   14.5530 C   0  0  0  0  0  0
  -29.2164  -22.2724   14.5295 C   0  0  0  0  0  0
  -29.4300  -24.8277   14.6380 C   0  0  0  0  0  0
  -30.0821  -22.0222   15.7803 C   0  0  0  0  0  0
  -28.7179  -26.1680   14.8827 C   0  0  0  0  0  0
  -30.4190  -20.5365   15.9622 C   0  0  0  0  0  0
  -29.6692  -27.2452   15.4522 C   0  0  0  0  0  0
  -31.4353  -18.6922   20.4441 N   0  0  0  0  0  0
  -31.2799  -20.2857   17.1170 N   0  0  0  0  0  0
  -29.4594  -27.5403   16.8742 N   0  0  0  0  0  0
  -30.1017  -15.3304   21.3514 N   0  0  0  0  0  0
  -30.3876  -17.1163   19.2087 O   0  0  0  0  0  0
  -29.6808  -20.1577   18.7106 O   0  0  0  0  0  0
  -30.0733  -25.5722   17.8084 O   0  0  0  0  0  0
  -31.4690  -12.3802   19.1067 H   0  0  0  0  0  0
  -30.3091  -11.2648   19.7702 H   0  0  0  0  0  0
  -29.7424  -11.8381   17.3877 H   0  0  0  0  0  0
  -29.6681  -13.5350   17.8023 H   0  0  0  0  0  0
  -27.8166  -11.3270   18.7716 H   0  0  0  0  0  0
  -27.3656  -12.6889   17.7784 H   0  0  0  0  0  0
  -27.7239  -14.2570   19.6074 H   0  0  0  0  0  0
  -28.6822  -11.8899   21.2899 H   0  0  0  0  0  0
  -28.4714  -13.4973   21.8950 H   0  0  0  0  0  0
  -25.2747   -9.5734   22.4727 H   0  0  0  0  0  0
  -24.0030   -7.4666   22.7482 H   0  0  0  0  0  0
  -21.0845   -8.8737   19.8957 H   0  0  0  0  0  0
  -22.3660  -10.9650   19.6149 H   0  0  0  0  0  0
  -21.1972   -7.6146   23.9738 H   0  0  0  0  0  0
  -21.1491   -6.0507   25.9091 H   0  0  0  0  0  0
  -22.0593   -2.7616   23.2814 H   0  0  0  0  0  0
  -22.4006  -11.9917   22.4828 H   0  0  0  0  0  0
  -21.1066  -13.1321   22.2476 H   0  0  0  0  0  0
  -24.6829  -15.8560   20.5093 H   0  0  0  0  0  0
  -26.2912  -15.6127   20.0625 H   0  0  0  0  0  0
  -26.7113  -32.5559   23.1169 H   0  0  0  0  0  0
  -25.0084  -33.9800   25.0497 H   0  0  0  0  0  0
  -22.6886  -31.3092   21.4103 H   0  0  0  0  0  0
  -23.3721  -35.9705   23.3298 H   0  0  0  0  0  0
  -24.3568  -36.8943   22.2043 H   0  0  0  0  0  0
  -23.7246  -37.6564   23.6627 H   0  0  0  0  0  0
  -26.0169  -31.6117   20.5842 H   0  0  0  0  0  0
  -26.8168  -30.9103   21.9645 H   0  0  0  0  0  0
  -28.1022  -29.1578   21.1438 H   0  0  0  0  0  0
  -26.1008  -25.9766   19.0349 H   0  0  0  0  0  0
  -23.9842  -27.2653   19.0690 H   0  0  0  0  0  0
  -23.7190  -30.5977   19.4067 H   0  0  0  0  0  0
  -22.7315  -29.2425   19.8671 H   0  0  0  0  0  0
  -25.1264  -36.2012   25.0831 H   0  0  0  0  0  0
  -20.9978  -28.3270   24.1420 H   0  0  0  0  0  0
  -20.5680  -26.2307   23.3622 H   0  0  0  0  0  0
  -21.6638  -26.7471   22.1200 H   0  0  0  0  0  0
  -19.6915  -25.6309   21.1232 H   0  0  0  0  0  0
  -19.6669  -27.3215   20.6758 H   0  0  0  0  0  0
  -17.4215  -26.6710   21.4003 H   0  0  0  0  0  0
  -18.0295  -26.0047   22.8991 H   0  0  0  0  0  0
  -19.7938  -30.7260   24.2271 H   0  0  0  0  0  0
  -17.5015  -31.6253   24.5204 H   0  0  0  0  0  0
  -15.5344  -30.2996   23.7608 H   0  0  0  0  0  0
  -15.8680  -28.0818   22.7027 H   0  0  0  0  0  0
  -24.5960  -30.7006   25.7825 H   0  0  0  0  0  0
  -24.8947  -32.2848   26.4904 H   0  0  0  0  0  0
  -25.8162  -30.8894   27.0216 H   0  0  0  0  0  0
  -26.2790  -29.6806   24.1111 H   0  0  0  0  0  0
  -27.4042  -29.7228   25.4487 H   0  0  0  0  0  0
  -27.8639  -30.4299   23.9161 H   0  0  0  0  0  0
  -27.2655  -33.3581   26.2118 H   0  0  0  0  0  0
  -28.3887  -32.6894   25.0356 H   0  0  0  0  0  0
  -28.0708  -31.8391   26.5397 H   0  0  0  0  0  0
  -28.2600  -38.0124   24.7510 H   0  0  0  0  0  0
  -28.1089  -36.2658   24.6281 H   0  0  0  0  0  0
  -27.2312  -37.1483   25.8860 H   0  0  0  0  0  0
  -20.9290  -29.8798   21.6957 H   0  0  0  0  0  0
  -26.0183  -38.2891   24.1414 H   0  0  0  0  0  0
  -29.7997  -17.2193   22.1924 H   0  0  0  0  0  0
  -31.4634  -16.6854   22.1780 H   0  0  0  0  0  0
  -32.3834  -20.4453   19.8126 H   0  0  0  0  0  0
  -32.7154  -19.0309   18.8350 H   0  0  0  0  0  0
  -29.4522  -28.4313   19.2732 H   0  0  0  0  0  0
  -30.4163  -27.1198   19.9077 H   0  0  0  0  0  0
  -27.8002  -23.6315   15.4080 H   0  0  0  0  0  0
  -27.8498  -23.7096   13.6637 H   0  0  0  0  0  0
  -29.8337  -22.1908   13.6341 H   0  0  0  0  0  0
  -28.4702  -21.4787   14.4483 H   0  0  0  0  0  0
  -30.0381  -24.8896   13.7354 H   0  0  0  0  0  0
  -30.1297  -24.6620   15.4532 H   0  0  0  0  0  0
  -29.5527  -22.3864   16.6614 H   0  0  0  0  0  0
  -31.0036  -22.6038   15.7153 H   0  0  0  0  0  0
  -27.8625  -26.0370   15.5459 H   0  0  0  0  0  0
  -28.3027  -26.5135   13.9354 H   0  0  0  0  0  0
  -30.9228  -20.1603   15.0692 H   0  0  0  0  0  0
  -29.4959  -19.9638   16.0592 H   0  0  0  0  0  0
  -29.5062  -28.1786   14.9098 H   0  0  0  0  0  0
  -30.7148  -26.9823   15.2766 H   0  0  0  0  0  0
  -31.6645  -18.9869   21.3834 H   0  0  0  0  0  0
  -32.2726  -20.2032   16.9381 H   0  0  0  0  0  0
  -29.1791  -28.4883   17.0905 H   0  0  0  0  0  0
  -29.1970  -15.0771   21.7192 H   0  0  0  0  0  0
  1 25  1  0  0  0
  1 30  2  0  0  0
  1 87  1  0  0  0
  2  3  1  0  0  0
  2 25  1  0  0  0
  2 91  1  0  0  0
  2 92  1  0  0  0
  3  4  1  0  0  0
  3 93  1  0  0  0
  3 94  1  0  0  0
  4  5  1  0  0  0
  4 95  1  0  0  0
  4 96  1  0  0  0
  5  6  1  0  0  0
  5 26  1  0  0  0
  5 97  1  0  0  0
  6 25  1  0  0  0
  6 98  1  0  0  0
  6 99  1  0  0  0
  7  8  2  0  0  0
  7 26  1  0  0  0
  7 29  1  0  0  0
  8  9  1  0  0  0
  8 22  1  0  0  0
  9 10  1  0  0  0
  9 27  2  0  0  0
 10 11  2  0  0  0
 10 15  1  0  0  0
 11 12  1  0  0  0
 11100  1  0  0  0
 12 13  2  0  0  0
 12101  1  0  0  0
 13 14  1  0  0  0
 13 31  1  0  0  0
 14 15  2  0  0  0
 14102  1  0  0  0
 15103  1  0  0  0
 16 17  2  0  0  0
 16 21  1  0  0  0
 16 31  1  0  0  0
 17 18  1  0  0  0
 17104  1  0  0  0
 18 19  2  0  0  0
 18105  1  0  0  0
 19 20  1  0  0  0
 19 24  1  0  0  0
 20 21  2  0  0  0
 20106  1  0  0  0
 21 23  1  0  0  0
 22 28  1  0  0  0
 22 32  2  0  0  0
 26 27  1  0  0  0
 28107  1  0  0  0
 28108  1  0  0  0
 29109  1  0  0  0
 29110  1  0  0  0
 33 34  1  0  0  0
 33 66  1  0  0  0
 33 70  2  0  0  0
 34 36  1  0  0  0
 34 59  1  0  0  0
 34111  1  0  0  0
 35 44  2  0  0  0
 35 45  1  0  0  0
 35 68  1  0  0  0
 36 56  1  0  0  0
 36112  1  0  0  0
 37 39  1  0  0  0
 37 47  1  0  0  0
 37 66  1  0  0  0
 37113  1  0  0  0
 38 43  2  0  0  0
 38 46  1  0  0  0
 38 47  1  0  0  0
 39 64  1  0  0  0
 39 67  2  0  0  0
 40 52  1  0  0  0
 40 53  2  0  0  0
 40 58  1  0  0  0
 41114  1  0  0  0
 41115  1  0  0  0
 41116  1  0  0  0
 41 48  1  0  0  0
 42 43  1  0  0  0
 42 66  1  0  0  0
 42117  1  0  0  0
 42118  1  0  0  0
 43 44  1  0  0  0
 44119  1  0  0  0
 45 46  2  0  0  0
 45120  1  0  0  0
 46121  1  0  0  0
 47122  1  0  0  0
 47123  1  0  0  0
 48 56  1  0  0  0
 48 65  1  0  0  0
 48124  1  0  0  0
 49 50  1  0  0  0
 49 53  1  0  0  0
 49 64  1  0  0  0
 49125  1  0  0  0
 50 51  1  0  0  0
 50126  1  0  0  0
 50127  1  0  0  0
 51 52  1  0  0  0
 51128  1  0  0  0
 51129  1  0  0  0
 52130  1  0  0  0
 52131  1  0  0  0
 53 54  1  0  0  0
 54 55  2  0  0  0
 54132  1  0  0  0
 55 57  1  0  0  0
 55133  1  0  0  0
 56 69  2  0  0  0
 57 58  2  0  0  0
 57134  1  0  0  0
 58135  1  0  0  0
 59 60  1  0  0  0
 59 61  1  0  0  0
 59 62  1  0  0  0
 60136  1  0  0  0
 60137  1  0  0  0
 60138  1  0  0  0
 61139  1  0  0  0
 61140  1  0  0  0
 61141  1  0  0  0
 62142  1  0  0  0
 62143  1  0  0  0
 62144  1  0  0  0
 63 65  1  0  0  0
 63145  1  0  0  0
 63146  1  0  0  0
 63147  1  0  0  0
 64148  1  0  0  0
 65149  1  0  0  0
 68 76  1  0  0  0
 71 74  1  0  0  0
 71 84  1  0  0  0
 71 88  2  0  0  0
 72 75  1  0  0  0
 72 85  1  0  0  0
 72 89  2  0  0  0
 73 76  1  0  0  0
 73 86  1  0  0  0
 73 90  2  0  0  0
 74 87  1  0  0  0
 74150  1  0  0  0
 74151  1  0  0  0
 75 84  1  0  0  0
 75152  1  0  0  0
 75153  1  0  0  0
 76154  1  0  0  0
 76155  1  0  0  0
 77 78  1  0  0  0
 77 79  1  0  0  0
 77156  1  0  0  0
 77157  1  0  0  0
 78 80  1  0  0  0
 78158  1  0  0  0
 78159  1  0  0  0
 79 81  1  0  0  0
 79160  1  0  0  0
 79161  1  0  0  0
 80 82  1  0  0  0
 80162  1  0  0  0
 80163  1  0  0  0
 81 83  1  0  0  0
 81164  1  0  0  0
 81165  1  0  0  0
 82 85  1  0  0  0
 82166  1  0  0  0
 82167  1  0  0  0
 83 86  1  0  0  0
 83168  1  0  0  0
 83169  1  0  0  0
 84170  1  0  0  0
 85171  1  0  0  0
 86172  1  0  0  0
 87173  1  0  0  0
M  ISO  4   1 100  68 101  76 101  87 100
M  END
> <chiral flag>
0

> <version>
0

> <s_m_source_file>
/data/baiqing/PycharmProjects/Reinvent-master-3.2/result/LINK_invent/BTK/process_docking_weight1_custom_sum_contain_oxygen_bond_distance_aromatic_linkinvent_7_9_3/rearranged_h_0006.sdf

> <i_m_source_file_index>
22

> <r_mmod_Potential_Energy-OPLS-2005>
-434.031188964844

> <r_mmod_Stretch_Energy-OPLS-2005>
33.2229499816895

> <r_mmod_Bend_Energy-OPLS-2005>
100.01335144043

> <r_mmod_Torsional_Energy-OPLS-2005>
210.270660400391

> <r_mmod_Improper_Torsional_Energy-OPLS-2005>
2.60327529907227

> <r_mmod_Van_der_Waal_Energy-OPLS-2005>
142.369659423828

> <r_mmod_Electrostatic_Energy-OPLS-2005>
-608.548889160156

> <r_mmod_Solvation_Energy-OPLS-2005>
-321.863922119141

> <b_mmod_Minimization_Converged-OPLS-2005>
0

> <r_mmod_RMS_Derivative-OPLS-2005>
4.10939979553223

$$$$
22
                    3D
 Structure written by MMmdl.
157165  0  0  1  0            999 V2000
  -30.5356  -14.6769   20.4617 C   0  0  0  0  0  0
  -30.4360  -12.3999   19.4240 C   0  0  0  0  0  0
  -29.5048  -12.4890   18.1937 C   0  0  0  0  0  0
  -28.0279  -12.3081   18.6119 C   0  0  0  0  0  0
  -27.6407  -13.1881   19.8317 C   0  0  2  0  0  0
  -28.6864  -13.0310   20.9527 C   0  0  0  0  0  0
  -25.2610  -13.8058   20.5661 C   0  0  0  0  0  0
  -24.1840  -13.0369   20.9161 C   0  0  0  0  0  0
  -24.6363  -11.6821   20.8724 C   0  0  0  0  0  0
  -23.9038  -10.4245   21.0416 C   0  0  0  0  0  0
  -24.3598   -9.4182   21.9198 C   0  0  0  0  0  0
  -23.6276   -8.2215   22.0776 C   0  0  0  0  0  0
  -22.4255   -8.0261   21.3557 C   0  0  0  0  0  0
  -21.9876   -9.0240   20.4651 C   0  0  0  0  0  0
  -22.7215  -10.2115   20.3063 C   0  0  0  0  0  0
  -21.6839   -6.0736   22.5278 C   0  0  0  0  0  0
  -21.4009   -6.5639   23.8218 C   0  0  0  0  0  0
  -21.3651   -5.6788   24.9172 C   0  0  0  0  0  0
  -21.6038   -4.3054   24.7222 C   0  0  0  0  0  0
  -21.8816   -3.8144   23.4342 C   0  0  0  0  0  0
  -21.9193   -4.6962   22.3401 C   0  0  0  0  0  0
  -22.7895  -13.5230   21.1821 C   0  0  0  0  0  0
  -22.1659   -4.2148   21.0986 F   0  0  0  0  0  0
  -21.5625   -3.4535   25.7739 F   0  0  0  0  0  0
  -29.9828  -13.4230   20.3851 N   0  0  0  0  0  0
  -26.2927  -12.9147   20.3120 N   0  0  0  0  0  0
  -25.9254  -11.6354   20.5631 N   0  0  0  0  0  0
  -22.0518  -12.8242   22.0372 N   0  0  0  0  0  0
  -25.4378  -15.1782   20.4197 N   0  0  0  0  0  0
  -31.7341  -14.8641   20.2344 O   0  0  0  0  0  0
  -21.6618   -6.8868   21.4244 O   0  0  0  0  0  0
  -22.3616  -14.5558   20.6671 O   0  0  0  0  0  0
  -24.6305  -31.8574   23.2006 C   0  0  0  0  0  0
  -25.9113  -32.4758   23.8344 C   0  0  1  0  0  0
  -27.1762  -27.2431   20.1414 C   0  0  0  0  0  0
  -25.5907  -33.8559   24.2296 N   0  0  0  0  0  0
  -23.4227  -30.4910   21.5432 C   0  0  2  0  0  0
  -24.8626  -28.9434   20.1024 C   0  0  0  0  0  0
  -22.7474  -29.4641   22.4855 C   0  0  0  0  0  0
  -18.0283  -28.1393   22.8497 C   0  0  0  0  0  0
  -24.1475  -36.7256   23.2662 C   0  0  0  0  0  0
  -25.9718  -30.7653   21.3845 C   0  0  0  0  0  0
  -26.0369  -29.3908   20.7231 C   0  0  0  0  0  0
  -27.2034  -28.5544   20.7331 C   0  0  0  0  0  0
  -25.9926  -26.8825   19.4627 C   0  0  0  0  0  0
  -24.8465  -27.6984   19.4645 C   0  0  0  0  0  0
  -23.6382  -29.8374   20.1540 C   0  0  0  0  0  0
  -25.4099  -36.3082   24.0359 C   0  0  1  0  0  0
  -20.5902  -28.3688   23.1242 C   0  0  2  0  0  0
  -20.6778  -26.9403   22.5413 C   0  0  0  0  0  0
  -19.5751  -26.6371   21.5226 C   0  0  0  0  0  0
  -18.1934  -26.7946   22.1624 C   0  0  0  0  0  0
  -19.1552  -28.8848   23.2889 C   0  0  0  0  0  0
  -18.9481  -30.1473   23.8875 C   0  0  0  0  0  0
  -17.6500  -30.6598   24.0567 C   0  0  0  0  0  0
  -25.9028  -34.9439   23.5136 C   0  0  0  0  0  0
  -16.5387  -29.9105   23.6340 C   0  0  0  0  0  0
  -16.7288  -28.6533   23.0338 C   0  0  0  0  0  0
  -26.4469  -31.6591   25.0745 C   0  0  0  0  0  0
  -25.3675  -31.3733   26.1475 C   0  0  0  0  0  0
  -27.0330  -30.3013   24.6225 C   0  0  0  0  0  0
  -27.6038  -32.4332   25.7505 C   0  0  0  0  0  0
  -27.5559  -37.1785   24.8482 C   0  0  0  0  0  0
  -21.4188  -29.3051   22.3595 N   0  0  0  0  0  0
  -26.4268  -37.3784   23.9440 N   0  0  0  0  0  0
  -24.6935  -31.0530   22.0989 N   0  0  0  0  0  0
  -23.4192  -28.8175   23.2930 O   0  0  0  0  0  0
  -28.2291  -26.3022   20.2021 O   0  0  0  0  0  0
  -26.5624  -34.8935   22.4719 O   0  0  0  0  0  0
  -23.5447  -32.1362   23.7293 O   0  0  0  0  0  0
  -29.1606  -18.3732   23.0709 C   0  0  0  0  0  0
  -29.1100  -19.5696   22.3372 C   0  0  0  0  0  0
  -29.4759  -18.3032   20.3046 C   0  0  0  0  0  0
  -29.3109  -17.1240   22.4395 C   0  0  0  0  0  0
  -29.2135  -19.6052   20.9239 C   0  0  0  0  0  0
  -29.5597  -17.0480   21.0435 C   0  0  0  0  0  0
  -28.5132  -22.1203   20.7242 C   0  0  0  0  0  0
  -29.0391  -15.8838   23.2781 C   0  0  0  0  0  0
  -29.6528  -21.0219   18.8662 C   0  0  0  0  0  0
  -28.7713  -23.5913   20.1083 C   0  0  0  0  0  0
  -27.8816  -24.8697   20.5662 C   0  0  0  0  0  0
  -29.6092  -15.7056   20.4382 N   0  0  0  0  0  0
  -29.1122  -20.9411   20.2312 N   0  0  0  0  0  0
  -27.7192  -22.0795   21.6727 O   0  0  0  0  0  0
  -31.4804  -12.5279   19.1395 H   0  0  0  0  0  0
  -30.3727  -11.4041   19.8668 H   0  0  0  0  0  0
  -29.7788  -11.7315   17.4567 H   0  0  0  0  0  0
  -29.6317  -13.4539   17.7031 H   0  0  0  0  0  0
  -27.8944  -11.2546   18.8671 H   0  0  0  0  0  0
  -27.3624  -12.5002   17.7674 H   0  0  0  0  0  0
  -27.6489  -14.2145   19.4738 H   0  0  0  0  0  0
  -28.7185  -11.9897   21.2810 H   0  0  0  0  0  0
  -28.4250  -13.6109   21.8334 H   0  0  0  0  0  0
  -25.2731   -9.5651   22.4784 H   0  0  0  0  0  0
  -23.9964   -7.4607   22.7490 H   0  0  0  0  0  0
  -21.0804   -8.8747   19.8972 H   0  0  0  0  0  0
  -22.3656  -10.9657   19.6182 H   0  0  0  0  0  0
  -21.2007   -7.6143   23.9714 H   0  0  0  0  0  0
  -21.1473   -6.0524   25.9077 H   0  0  0  0  0  0
  -22.0609   -2.7602   23.2841 H   0  0  0  0  0  0
  -22.4078  -11.9890   22.4741 H   0  0  0  0  0  0
  -21.1165  -13.1334   22.2571 H   0  0  0  0  0  0
  -24.6765  -15.8313   20.5747 H   0  0  0  0  0  0
  -26.2886  -15.6326   20.1153 H   0  0  0  0  0  0
  -26.7180  -32.5384   23.1059 H   0  0  0  0  0  0
  -25.0019  -33.9727   25.0418 H   0  0  0  0  0  0
  -22.7171  -31.3165   21.4084 H   0  0  0  0  0  0
  -23.3747  -35.9569   23.3325 H   0  0  0  0  0  0
  -24.3558  -36.8850   22.2071 H   0  0  0  0  0  0
  -23.7198  -37.6452   23.6652 H   0  0  0  0  0  0
  -26.1175  -31.5231   20.6120 H   0  0  0  0  0  0
  -26.8450  -30.8067   22.0198 H   0  0  0  0  0  0
  -28.0949  -28.8868   21.2406 H   0  0  0  0  0  0
  -25.9180  -25.9443   18.9276 H   0  0  0  0  0  0
  -23.9494  -27.3494   18.9692 H   0  0  0  0  0  0
  -23.7734  -30.6239   19.4125 H   0  0  0  0  0  0
  -22.7450  -29.2929   19.8391 H   0  0  0  0  0  0
  -25.1274  -36.1921   25.0849 H   0  0  0  0  0  0
  -21.0032  -28.3296   24.1345 H   0  0  0  0  0  0
  -20.5624  -26.2318   23.3622 H   0  0  0  0  0  0
  -21.6638  -26.7391   22.1237 H   0  0  0  0  0  0
  -19.6902  -25.6284   21.1244 H   0  0  0  0  0  0
  -19.6691  -27.3160   20.6745 H   0  0  0  0  0  0
  -17.4199  -26.6673   21.4045 H   0  0  0  0  0  0
  -18.0340  -26.0102   22.9019 H   0  0  0  0  0  0
  -19.7972  -30.7307   24.2156 H   0  0  0  0  0  0
  -17.5067  -31.6260   24.5199 H   0  0  0  0  0  0
  -15.5394  -30.3007   23.7685 H   0  0  0  0  0  0
  -15.8684  -28.0877   22.7006 H   0  0  0  0  0  0
  -24.5876  -30.7045   25.7816 H   0  0  0  0  0  0
  -24.8838  -32.2914   26.4845 H   0  0  0  0  0  0
  -25.8014  -30.8978   27.0279 H   0  0  0  0  0  0
  -26.2950  -29.6743   24.1209 H   0  0  0  0  0  0
  -27.4001  -29.7302   25.4750 H   0  0  0  0  0  0
  -27.8829  -30.4331   23.9515 H   0  0  0  0  0  0
  -27.2654  -33.3688   26.1982 H   0  0  0  0  0  0
  -28.3875  -32.6754   25.0307 H   0  0  0  0  0  0
  -28.0621  -31.8463   26.5478 H   0  0  0  0  0  0
  -28.2594  -38.0066   24.7527 H   0  0  0  0  0  0
  -28.1051  -36.2596   24.6312 H   0  0  0  0  0  0
  -27.2304  -37.1461   25.8900 H   0  0  0  0  0  0
  -20.9282  -29.8820   21.6907 H   0  0  0  0  0  0
  -26.0143  -38.2859   24.1436 H   0  0  0  0  0  0
  -29.0195  -18.4215   24.1462 H   0  0  0  0  0  0
  -28.9607  -20.4773   22.9020 H   0  0  0  0  0  0
  -29.5799  -18.2226   19.2308 H   0  0  0  0  0  0
  -29.1141  -16.0872   24.3450 H   0  0  0  0  0  0
  -29.7139  -15.0622   23.0580 H   0  0  0  0  0  0
  -28.0144  -15.5574   23.0888 H   0  0  0  0  0  0
  -30.1807  -20.1307   18.5375 H   0  0  0  0  0  0
  -30.3745  -21.8322   18.7782 H   0  0  0  0  0  0
  -28.8572  -21.2025   18.1419 H   0  0  0  0  0  0
  -29.8159  -23.8180   20.3143 H   0  0  0  0  0  0
  -28.6722  -23.5054   19.0281 H   0  0  0  0  0  0
  -27.8158  -24.8656   21.6553 H   0  0  0  0  0  0
  -26.8719  -24.6290   20.2390 H   0  0  0  0  0  0
  -28.6940  -15.3056   20.3021 H   0  0  0  0  0  0
  1 25  1  0  0  0
  1 30  2  0  0  0
  1 82  1  0  0  0
  2  3  1  0  0  0
  2 25  1  0  0  0
  2 85  1  0  0  0
  2 86  1  0  0  0
  3  4  1  0  0  0
  3 87  1  0  0  0
  3 88  1  0  0  0
  4  5  1  0  0  0
  4 89  1  0  0  0
  4 90  1  0  0  0
  5  6  1  0  0  0
  5 26  1  0  0  0
  5 91  1  0  0  0
  6 25  1  0  0  0
  6 92  1  0  0  0
  6 93  1  0  0  0
  7  8  2  0  0  0
  7 26  1  0  0  0
  7 29  1  0  0  0
  8  9  1  0  0  0
  8 22  1  0  0  0
  9 10  1  0  0  0
  9 27  2  0  0  0
 10 11  2  0  0  0
 10 15  1  0  0  0
 11 12  1  0  0  0
 11 94  1  0  0  0
 12 13  2  0  0  0
 12 95  1  0  0  0
 13 14  1  0  0  0
 13 31  1  0  0  0
 14 15  2  0  0  0
 14 96  1  0  0  0
 15 97  1  0  0  0
 16 17  2  0  0  0
 16 21  1  0  0  0
 16 31  1  0  0  0
 17 18  1  0  0  0
 17 98  1  0  0  0
 18 19  2  0  0  0
 18 99  1  0  0  0
 19 20  1  0  0  0
 19 24  1  0  0  0
 20 21  2  0  0  0
 20100  1  0  0  0
 21 23  1  0  0  0
 22 28  1  0  0  0
 22 32  2  0  0  0
 26 27  1  0  0  0
 28101  1  0  0  0
 28102  1  0  0  0
 29103  1  0  0  0
 29104  1  0  0  0
 33 34  1  0  0  0
 33 66  1  0  0  0
 33 70  2  0  0  0
 34 36  1  0  0  0
 34 59  1  0  0  0
 34105  1  0  0  0
 35 44  2  0  0  0
 35 45  1  0  0  0
 35 68  1  0  0  0
 36 56  1  0  0  0
 36106  1  0  0  0
 37 39  1  0  0  0
 37 47  1  0  0  0
 37 66  1  0  0  0
 37107  1  0  0  0
 38 43  2  0  0  0
 38 46  1  0  0  0
 38 47  1  0  0  0
 39 64  1  0  0  0
 39 67  2  0  0  0
 40 52  1  0  0  0
 40 53  2  0  0  0
 40 58  1  0  0  0
 41108  1  0  0  0
 41109  1  0  0  0
 41110  1  0  0  0
 41 48  1  0  0  0
 42 43  1  0  0  0
 42 66  1  0  0  0
 42111  1  0  0  0
 42112  1  0  0  0
 43 44  1  0  0  0
 44113  1  0  0  0
 45 46  2  0  0  0
 45114  1  0  0  0
 46115  1  0  0  0
 47116  1  0  0  0
 47117  1  0  0  0
 48 56  1  0  0  0
 48 65  1  0  0  0
 48118  1  0  0  0
 49 50  1  0  0  0
 49 53  1  0  0  0
 49 64  1  0  0  0
 49119  1  0  0  0
 50 51  1  0  0  0
 50120  1  0  0  0
 50121  1  0  0  0
 51 52  1  0  0  0
 51122  1  0  0  0
 51123  1  0  0  0
 52124  1  0  0  0
 52125  1  0  0  0
 53 54  1  0  0  0
 54 55  2  0  0  0
 54126  1  0  0  0
 55 57  1  0  0  0
 55127  1  0  0  0
 56 69  2  0  0  0
 57 58  2  0  0  0
 57128  1  0  0  0
 58129  1  0  0  0
 59 60  1  0  0  0
 59 61  1  0  0  0
 59 62  1  0  0  0
 60130  1  0  0  0
 60131  1  0  0  0
 60132  1  0  0  0
 61133  1  0  0  0
 61134  1  0  0  0
 61135  1  0  0  0
 62136  1  0  0  0
 62137  1  0  0  0
 62138  1  0  0  0
 63 65  1  0  0  0
 63139  1  0  0  0
 63140  1  0  0  0
 63141  1  0  0  0
 64142  1  0  0  0
 65143  1  0  0  0
 68 81  1  0  0  0
 71 72  2  0  0  0
 71 74  1  0  0  0
 71144  1  0  0  0
 72 75  1  0  0  0
 72145  1  0  0  0
 73 75  2  0  0  0
 73 76  1  0  0  0
 73146  1  0  0  0
 74 76  2  0  0  0
 74 78  1  0  0  0
 75 83  1  0  0  0
 76 82  1  0  0  0
 77 80  1  0  0  0
 77 83  1  0  0  0
 77 84  2  0  0  0
 78147  1  0  0  0
 78148  1  0  0  0
 78149  1  0  0  0
 79 83  1  0  0  0
 79150  1  0  0  0
 79151  1  0  0  0
 79152  1  0  0  0
 80 81  1  0  0  0
 80153  1  0  0  0
 80154  1  0  0  0
 81155  1  0  0  0
 81156  1  0  0  0
 82157  1  0  0  0
M  ISO  4   1 100  68 101  81 101  82 100
M  END
> <chiral flag>
0

> <version>
0

> <s_m_source_file>
/data/baiqing/PycharmProjects/Reinvent-master-3.2/result/LINK_invent/BTK/process_docking_weight1_custom_sum_contain_oxygen_bond_distance_aromatic_linkinvent_7_9_3/rearranged_h_0006.sdf

> <i_m_source_file_index>
23

> <r_mmod_Potential_Energy-OPLS-2005>
268.334899902344

> <r_mmod_Stretch_Energy-OPLS-2005>
137.079620361328

> <r_mmod_Bend_Energy-OPLS-2005>
169.178268432617

> <r_mmod_Torsional_Energy-OPLS-2005>
305.133911132812

> <r_mmod_Improper_Torsional_Energy-OPLS-2005>
13.7182054519653

> <r_mmod_Van_der_Waal_Energy-OPLS-2005>
157.824066162109

> <r_mmod_Electrostatic_Energy-OPLS-2005>
-380.522918701172

> <r_mmod_Solvation_Energy-OPLS-2005>
-221.251281738281

> <b_mmod_Minimization_Converged-OPLS-2005>
0

> <r_mmod_RMS_Derivative-OPLS-2005>
7.3240532875061

$$$$
23
                    3D
 Structure written by MMmdl.
207215  0  0  1  0            999 V2000
  -30.6478  -14.3868   20.6291 C   0  0  0  0  0  0
  -30.4414  -12.2762   19.3635 C   0  0  0  0  0  0
  -29.4934  -12.5259   18.1716 C   0  0  0  0  0  0
  -28.0035  -12.4171   18.5763 C   0  0  0  0  0  0
  -27.6700  -13.1860   19.8820 C   0  0  2  0  0  0
  -28.7074  -12.8304   20.9654 C   0  0  0  0  0  0
  -25.2652  -13.8118   20.5646 C   0  0  0  0  0  0
  -24.1890  -13.0452   20.9137 C   0  0  0  0  0  0
  -24.6397  -11.6894   20.8695 C   0  0  0  0  0  0
  -23.9054  -10.4293   21.0394 C   0  0  0  0  0  0
  -24.3611   -9.4205   21.9175 C   0  0  0  0  0  0
  -23.6291   -8.2255   22.0765 C   0  0  0  0  0  0
  -22.4288   -8.0269   21.3534 C   0  0  0  0  0  0
  -21.9884   -9.0261   20.4662 C   0  0  0  0  0  0
  -22.7219  -10.2133   20.3060 C   0  0  0  0  0  0
  -21.6856   -6.0731   22.5283 C   0  0  0  0  0  0
  -21.4018   -6.5639   23.8208 C   0  0  0  0  0  0
  -21.3654   -5.6793   24.9166 C   0  0  0  0  0  0
  -21.6052   -4.3054   24.7217 C   0  0  0  0  0  0
  -21.8824   -3.8144   23.4337 C   0  0  0  0  0  0
  -21.9196   -4.6962   22.3391 C   0  0  0  0  0  0
  -22.7896  -13.5267   21.1812 C   0  0  0  0  0  0
  -22.1664   -4.2152   21.0961 F   0  0  0  0  0  0
  -21.5628   -3.4524   25.7723 F   0  0  0  0  0  0
  -30.0418  -13.1887   20.4373 N   0  0  0  0  0  0
  -26.3057  -12.9261   20.3356 N   0  0  0  0  0  0
  -25.9309  -11.6424   20.5694 N   0  0  0  0  0  0
  -22.0502  -12.8296   22.0347 N   0  0  0  0  0  0
  -25.4451  -15.1850   20.4122 N   0  0  0  0  0  0
  -31.7465  -14.7014   20.1526 O   0  0  0  0  0  0
  -21.6649   -6.8879   21.4253 O   0  0  0  0  0  0
  -22.3589  -14.5579   20.6639 O   0  0  0  0  0  0
  -24.6084  -31.8712   23.2189 C   0  0  0  0  0  0
  -25.9023  -32.4841   23.8446 C   0  0  1  0  0  0
  -27.2300  -27.4769   20.0707 C   0  0  0  0  0  0
  -25.5908  -33.8641   24.2372 N   0  0  0  0  0  0
  -23.3943  -30.5010   21.5536 C   0  0  2  0  0  0
  -24.8397  -28.9822   20.1076 C   0  0  0  0  0  0
  -22.7393  -29.4671   22.4949 C   0  0  0  0  0  0
  -18.0294  -28.1362   22.8484 C   0  0  0  0  0  0
  -24.1475  -36.7291   23.2649 C   0  0  0  0  0  0
  -25.9248  -30.8433   21.3771 C   0  0  0  0  0  0
  -25.9979  -29.4883   20.7113 C   0  0  0  0  0  0
  -27.1890  -28.7351   20.7041 C   0  0  0  0  0  0
  -26.0642  -27.0059   19.4220 C   0  0  0  0  0  0
  -24.8636  -27.7358   19.4651 C   0  0  0  0  0  0
  -23.6015  -29.8421   20.1650 C   0  0  0  0  0  0
  -25.4115  -36.3120   24.0337 C   0  0  1  0  0  0
  -20.5890  -28.3640   23.1316 C   0  0  2  0  0  0
  -20.6822  -26.9358   22.5460 C   0  0  0  0  0  0
  -19.5818  -26.6313   21.5272 C   0  0  0  0  0  0
  -18.1974  -26.7895   22.1636 C   0  0  0  0  0  0
  -19.1530  -28.8834   23.2892 C   0  0  0  0  0  0
  -18.9435  -30.1459   23.8881 C   0  0  0  0  0  0
  -17.6427  -30.6561   24.0565 C   0  0  0  0  0  0
  -25.9033  -34.9488   23.5151 C   0  0  0  0  0  0
  -16.5331  -29.9037   23.6346 C   0  0  0  0  0  0
  -16.7273  -28.6478   23.0339 C   0  0  0  0  0  0
  -26.4478  -31.6613   25.0763 C   0  0  0  0  0  0
  -25.3741  -31.3725   26.1508 C   0  0  0  0  0  0
  -27.0342  -30.3056   24.6185 C   0  0  0  0  0  0
  -27.6069  -32.4335   25.7487 C   0  0  0  0  0  0
  -27.5580  -37.1810   24.8475 C   0  0  0  0  0  0
  -21.4135  -29.2988   22.3673 N   0  0  0  0  0  0
  -26.4317  -37.3795   23.9398 N   0  0  0  0  0  0
  -24.6590  -31.0844   22.1074 N   0  0  0  0  0  0
  -23.4206  -28.8218   23.2955 O   0  0  0  0  0  0
  -28.3959  -26.7429   20.1656 O   0  0  0  0  0  0
  -26.5570  -34.8930   22.4690 O   0  0  0  0  0  0
  -23.5288  -32.1466   23.7596 O   0  0  0  0  0  0
  -30.7837  -16.9763   22.6923 C   0  0  0  0  0  0
  -28.9946  -18.7881   21.4917 C   0  0  0  0  0  0
  -30.0011  -16.5847   21.5914 C   0  0  0  0  0  0
  -29.6461  -19.1307   22.6964 C   0  0  0  0  0  0
  -30.6125  -18.2615   23.2699 C   0  0  0  0  0  0
  -29.1446  -17.5013   20.9523 C   0  0  0  0  0  0
  -29.8073  -21.5126   23.1088 C   0  0  0  0  0  0
  -27.6276  -24.4130   20.6945 C   0  0  0  0  0  0
  -30.9813  -21.5556   22.1281 C   0  0  0  0  0  0
  -25.3891  -18.9958   17.3934 C   0  0  0  0  0  0
  -27.1547  -20.6673   18.1073 C   0  0  0  0  0  0
  -32.2839  -17.7861   24.9399 C   0  0  0  0  0  0
  -28.4225  -25.3636   19.7629 C   0  0  0  0  0  0
  -23.5520  -23.7878   20.9937 C   0  0  0  0  0  0
  -26.0676  -18.9927   23.2417 C   0  0  0  0  0  0
  -24.2745  -23.7173   19.6357 C   0  0  0  0  0  0
  -24.6152  -19.1351   22.7352 C   0  0  0  0  0  0
  -24.2781  -24.6168   22.0785 C   0  0  0  0  0  0
  -26.7087  -20.3083   23.7476 C   0  0  0  0  0  0
  -23.5889  -22.8588   18.5556 C   0  0  0  0  0  0
  -24.3829  -20.1466   21.5893 C   0  0  0  0  0  0
  -25.7526  -24.2384   22.3757 C   0  0  0  0  0  0
  -28.1324  -20.1769   24.3488 C   0  0  0  0  0  0
  -23.5254  -21.3407   18.8504 C   0  0  0  0  0  0
  -24.8563  -19.6799   20.1933 C   0  0  0  0  0  0
  -25.6487  -20.4221   17.9240 C   0  0  0  0  0  0
  -29.8590  -15.2209   21.3076 N   0  0  0  0  0  0
  -26.6985  -24.9404   21.5080 N   0  0  0  0  0  0
  -29.2292  -20.3138   23.3671 N   0  0  0  0  0  0
  -24.8676  -20.7613   19.1575 N   0  3  1  0  0  0
  -29.4385  -22.5701   23.6322 O   0  0  0  0  0  0
  -27.8216  -23.1973   20.6310 O   0  0  0  0  0  0
  -31.3138  -18.6786   24.3840 O   0  0  0  0  0  0
  -28.3896  -17.1183   19.8901 F   0  0  0  0  0  0
  -31.4836  -12.4227   19.0698 H   0  0  0  0  0  0
  -30.3649  -11.2376   19.6923 H   0  0  0  0  0  0
  -29.7129  -11.8232   17.3651 H   0  0  0  0  0  0
  -29.6826  -13.5218   17.7701 H   0  0  0  0  0  0
  -27.7693  -11.3600   18.6972 H   0  0  0  0  0  0
  -27.3743  -12.7823   17.7629 H   0  0  0  0  0  0
  -27.7481  -14.2520   19.6637 H   0  0  0  0  0  0
  -28.6765  -11.7571   21.1631 H   0  0  0  0  0  0
  -28.4689  -13.2893   21.9262 H   0  0  0  0  0  0
  -25.2745   -9.5687   22.4725 H   0  0  0  0  0  0
  -24.0010   -7.4637   22.7449 H   0  0  0  0  0  0
  -21.0821   -8.8787   19.8937 H   0  0  0  0  0  0
  -22.3685  -10.9693   19.6165 H   0  0  0  0  0  0
  -21.2021   -7.6134   23.9715 H   0  0  0  0  0  0
  -21.1474   -6.0504   25.9071 H   0  0  0  0  0  0
  -22.0610   -2.7608   23.2826 H   0  0  0  0  0  0
  -22.4124  -11.9988   22.4812 H   0  0  0  0  0  0
  -21.1119  -13.1329   22.2541 H   0  0  0  0  0  0
  -24.6810  -15.8373   20.5293 H   0  0  0  0  0  0
  -26.3092  -15.6209   20.1190 H   0  0  0  0  0  0
  -26.7105  -32.5569   23.1217 H   0  0  0  0  0  0
  -25.0105  -33.9794   25.0555 H   0  0  0  0  0  0
  -22.6822  -31.3180   21.4227 H   0  0  0  0  0  0
  -23.3756  -35.9607   23.3356 H   0  0  0  0  0  0
  -24.3562  -36.8839   22.2055 H   0  0  0  0  0  0
  -23.7190  -37.6498   23.6623 H   0  0  0  0  0  0
  -26.0650  -31.6230   20.6252 H   0  0  0  0  0  0
  -26.8021  -30.8700   22.0114 H   0  0  0  0  0  0
  -28.0729  -29.1047   21.2056 H   0  0  0  0  0  0
  -26.0554  -26.0668   18.8949 H   0  0  0  0  0  0
  -23.9714  -27.3426   18.9974 H   0  0  0  0  0  0
  -23.7061  -30.6209   19.4080 H   0  0  0  0  0  0
  -22.7271  -29.2585   19.8707 H   0  0  0  0  0  0
  -25.1297  -36.2021   25.0831 H   0  0  0  0  0  0
  -21.0057  -28.3224   24.1403 H   0  0  0  0  0  0
  -20.5783  -26.2225   23.3654 H   0  0  0  0  0  0
  -21.6678  -26.7405   22.1223 H   0  0  0  0  0  0
  -19.6968  -25.6215   21.1334 H   0  0  0  0  0  0
  -19.6798  -27.3095   20.6801 H   0  0  0  0  0  0
  -17.4256  -26.6635   21.4027 H   0  0  0  0  0  0
  -18.0352  -26.0085   22.9081 H   0  0  0  0  0  0
  -19.7896  -30.7338   24.2174 H   0  0  0  0  0  0
  -17.4931  -31.6231   24.5168 H   0  0  0  0  0  0
  -15.5321  -30.2915   23.7681 H   0  0  0  0  0  0
  -15.8676  -28.0822   22.7027 H   0  0  0  0  0  0
  -24.5860  -30.7158   25.7812 H   0  0  0  0  0  0
  -24.9028  -32.2895   26.5051 H   0  0  0  0  0  0
  -25.8057  -30.8786   27.0212 H   0  0  0  0  0  0
  -26.2926  -29.6775   24.1242 H   0  0  0  0  0  0
  -27.4099  -29.7353   25.4686 H   0  0  0  0  0  0
  -27.8757  -30.4388   23.9386 H   0  0  0  0  0  0
  -27.2717  -33.3631   26.2103 H   0  0  0  0  0  0
  -28.3838  -32.6878   25.0263 H   0  0  0  0  0  0
  -28.0794  -31.8442   26.5357 H   0  0  0  0  0  0
  -28.2636  -38.0075   24.7509 H   0  0  0  0  0  0
  -28.1025  -36.2599   24.6342 H   0  0  0  0  0  0
  -27.2279  -37.1519   25.8875 H   0  0  0  0  0  0
  -20.9299  -29.8619   21.6837 H   0  0  0  0  0  0
  -26.0212  -38.2869   24.1419 H   0  0  0  0  0  0
  -31.4301  -16.2383   23.1394 H   0  0  0  0  0  0
  -28.2813  -19.4695   21.0472 H   0  0  0  0  0  0
  -30.6534  -21.2429   21.1341 H   0  0  0  0  0  0
  -31.7697  -20.8807   22.4705 H   0  0  0  0  0  0
  -31.3973  -22.5621   22.0592 H   0  0  0  0  0  0
  -25.8629  -18.8634   16.4193 H   0  0  0  0  0  0
  -24.3251  -18.7961   17.2677 H   0  0  0  0  0  0
  -25.8040  -18.2269   18.0466 H   0  0  0  0  0  0
  -27.6749  -20.4961   17.1629 H   0  0  0  0  0  0
  -27.5992  -20.0054   18.8482 H   0  0  0  0  0  0
  -27.3646  -21.6939   18.4030 H   0  0  0  0  0  0
  -31.8202  -16.8606   25.2801 H   0  0  0  0  0  0
  -32.7628  -18.2394   25.8068 H   0  0  0  0  0  0
  -33.0779  -17.5396   24.2317 H   0  0  0  0  0  0
  -28.1127  -25.2584   18.7240 H   0  0  0  0  0  0
  -29.4624  -25.0369   19.7968 H   0  0  0  0  0  0
  -23.3599  -22.7908   21.3876 H   0  0  0  0  0  0
  -22.5649  -24.2296   20.8362 H   0  0  0  0  0  0
  -26.6621  -18.5404   22.4568 H   0  0  0  0  0  0
  -26.0714  -18.2642   24.0573 H   0  0  0  0  0  0
  -25.2928  -23.3643   19.7617 H   0  0  0  0  0  0
  -24.3506  -24.7303   19.2486 H   0  0  0  0  0  0
  -23.9797  -19.4148   23.5755 H   0  0  0  0  0  0
  -24.2549  -18.1543   22.4220 H   0  0  0  0  0  0
  -23.7053  -24.4898   22.9992 H   0  0  0  0  0  0
  -24.1977  -25.6804   21.8498 H   0  0  0  0  0  0
  -26.0572  -20.7146   24.5221 H   0  0  0  0  0  0
  -26.7271  -21.0568   22.9611 H   0  0  0  0  0  0
  -24.1003  -23.0277   17.6068 H   0  0  0  0  0  0
  -22.5762  -23.2333   18.4001 H   0  0  0  0  0  0
  -24.8272  -21.1056   21.8445 H   0  0  0  0  0  0
  -23.3079  -20.3248   21.5574 H   0  0  0  0  0  0
  -25.8863  -23.1590   22.3432 H   0  0  0  0  0  0
  -25.9981  -24.5461   23.3921 H   0  0  0  0  0  0
  -28.2345  -19.2241   24.8691 H   0  0  0  0  0  0
  -28.2507  -20.9339   25.1265 H   0  0  0  0  0  0
  -23.0704  -20.8115   18.0106 H   0  0  0  0  0  0
  -22.8295  -21.1975   19.6737 H   0  0  0  0  0  0
  -24.2314  -18.8478   19.8656 H   0  0  0  0  0  0
  -25.8680  -19.2872   20.2916 H   0  0  0  0  0  0
  -25.3439  -21.1126   17.1371 H   0  0  0  0  0  0
  -28.9542  -14.8328   21.5216 H   0  0  0  0  0  0
  -26.6145  -25.9497   21.4817 H   0  0  0  0  0  0
  -25.3655  -21.5333   19.5774 H   0  0  0  0  0  0
  1 25  1  0  0  0
  1 30  2  0  0  0
  1 97  1  0  0  0
  2  3  1  0  0  0
  2 25  1  0  0  0
  2105  1  0  0  0
  2106  1  0  0  0
  3  4  1  0  0  0
  3107  1  0  0  0
  3108  1  0  0  0
  4  5  1  0  0  0
  4109  1  0  0  0
  4110  1  0  0  0
  5  6  1  0  0  0
  5 26  1  0  0  0
  5111  1  0  0  0
  6 25  1  0  0  0
  6112  1  0  0  0
  6113  1  0  0  0
  7  8  2  0  0  0
  7 26  1  0  0  0
  7 29  1  0  0  0
  8  9  1  0  0  0
  8 22  1  0  0  0
  9 10  1  0  0  0
  9 27  2  0  0  0
 10 11  2  0  0  0
 10 15  1  0  0  0
 11 12  1  0  0  0
 11114  1  0  0  0
 12 13  2  0  0  0
 12115  1  0  0  0
 13 14  1  0  0  0
 13 31  1  0  0  0
 14 15  2  0  0  0
 14116  1  0  0  0
 15117  1  0  0  0
 16 17  2  0  0  0
 16 21  1  0  0  0
 16 31  1  0  0  0
 17 18  1  0  0  0
 17118  1  0  0  0
 18 19  2  0  0  0
 18119  1  0  0  0
 19 20  1  0  0  0
 19 24  1  0  0  0
 20 21  2  0  0  0
 20120  1  0  0  0
 21 23  1  0  0  0
 22 28  1  0  0  0
 22 32  2  0  0  0
 26 27  1  0  0  0
 28121  1  0  0  0
 28122  1  0  0  0
 29123  1  0  0  0
 29124  1  0  0  0
 33 34  1  0  0  0
 33 66  1  0  0  0
 33 70  2  0  0  0
 34 36  1  0  0  0
 34 59  1  0  0  0
 34125  1  0  0  0
 35 44  2  0  0  0
 35 45  1  0  0  0
 35 68  1  0  0  0
 36 56  1  0  0  0
 36126  1  0  0  0
 37 39  1  0  0  0
 37 47  1  0  0  0
 37 66  1  0  0  0
 37127  1  0  0  0
 38 43  2  0  0  0
 38 46  1  0  0  0
 38 47  1  0  0  0
 39 64  1  0  0  0
 39 67  2  0  0  0
 40 52  1  0  0  0
 40 53  2  0  0  0
 40 58  1  0  0  0
 41128  1  0  0  0
 41129  1  0  0  0
 41130  1  0  0  0
 41 48  1  0  0  0
 42 43  1  0  0  0
 42 66  1  0  0  0
 42131  1  0  0  0
 42132  1  0  0  0
 43 44  1  0  0  0
 44133  1  0  0  0
 45 46  2  0  0  0
 45134  1  0  0  0
 46135  1  0  0  0
 47136  1  0  0  0
 47137  1  0  0  0
 48 56  1  0  0  0
 48 65  1  0  0  0
 48138  1  0  0  0
 49 50  1  0  0  0
 49 53  1  0  0  0
 49 64  1  0  0  0
 49139  1  0  0  0
 50 51  1  0  0  0
 50140  1  0  0  0
 50141  1  0  0  0
 51 52  1  0  0  0
 51142  1  0  0  0
 51143  1  0  0  0
 52144  1  0  0  0
 52145  1  0  0  0
 53 54  1  0  0  0
 54 55  2  0  0  0
 54146  1  0  0  0
 55 57  1  0  0  0
 55147  1  0  0  0
 56 69  2  0  0  0
 57 58  2  0  0  0
 57148  1  0  0  0
 58149  1  0  0  0
 59 60  1  0  0  0
 59 61  1  0  0  0
 59 62  1  0  0  0
 60150  1  0  0  0
 60151  1  0  0  0
 60152  1  0  0  0
 61153  1  0  0  0
 61154  1  0  0  0
 61155  1  0  0  0
 62156  1  0  0  0
 62157  1  0  0  0
 62158  1  0  0  0
 63 65  1  0  0  0
 63159  1  0  0  0
 63160  1  0  0  0
 63161  1  0  0  0
 64162  1  0  0  0
 65163  1  0  0  0
 68 83  1  0  0  0
 71 73  2  0  0  0
 71 75  1  0  0  0
 71164  1  0  0  0
 72 74  1  0  0  0
 72 76  2  0  0  0
 72165  1  0  0  0
 73 76  1  0  0  0
 73 97  1  0  0  0
 74 75  2  0  0  0
 74 99  1  0  0  0
 75103  1  0  0  0
 76104  1  0  0  0
 77 79  1  0  0  0
 77 99  1  0  0  0
 77101  2  0  0  0
 78 83  1  0  0  0
 78 98  1  0  0  0
 78102  2  0  0  0
 79166  1  0  0  0
 79167  1  0  0  0
 79168  1  0  0  0
 80169  1  0  0  0
 80170  1  0  0  0
 80171  1  0  0  0
 80 96  1  0  0  0
 81 96  1  0  0  0
 81172  1  0  0  0
 81173  1  0  0  0
 81174  1  0  0  0
 82103  1  0  0  0
 82175  1  0  0  0
 82176  1  0  0  0
 82177  1  0  0  0
 83178  1  0  0  0
 83179  1  0  0  0
 84 86  1  0  0  0
 84 88  1  0  0  0
 84180  1  0  0  0
 84181  1  0  0  0
 85 87  1  0  0  0
 85 89  1  0  0  0
 85182  1  0  0  0
 85183  1  0  0  0
 86 90  1  0  0  0
 86184  1  0  0  0
 86185  1  0  0  0
 87 91  1  0  0  0
 87186  1  0  0  0
 87187  1  0  0  0
 88 92  1  0  0  0
 88188  1  0  0  0
 88189  1  0  0  0
 89 93  1  0  0  0
 89190  1  0  0  0
 89191  1  0  0  0
 90 94  1  0  0  0
 90192  1  0  0  0
 90193  1  0  0  0
 91 95  1  0  0  0
 91194  1  0  0  0
 91195  1  0  0  0
 92 98  1  0  0  0
 92196  1  0  0  0
 92197  1  0  0  0
 93 99  1  0  0  0
 93198  1  0  0  0
 93199  1  0  0  0
 94200  1  0  0  0
 94201  1  0  0  0
 94100  1  0  0  0
 95100  1  0  0  0
 95202  1  0  0  0
 95203  1  0  0  0
 96100  1  0  0  0
 96204  1  0  0  0
 97205  1  0  0  0
 98206  1  0  0  0
100207  1  0  0  0
M  CHG  1 100   1
M  ISO  4   1 100  68 101  83 101  97 100
M  END
> <chiral flag>
0

> <version>
0

> <s_m_source_file>
/data/baiqing/PycharmProjects/Reinvent-master-3.2/result/LINK_invent/BTK/process_docking_weight1_custom_sum_contain_oxygen_bond_distance_aromatic_linkinvent_7_9_3/rearranged_h_0006.sdf

> <i_m_source_file_index>
24

> <r_mmod_Potential_Energy-OPLS-2005>
-54.5217361450195

> <r_mmod_Stretch_Energy-OPLS-2005>
44.7033653259277

> <r_mmod_Bend_Energy-OPLS-2005>
142.513961791992

> <r_mmod_Torsional_Energy-OPLS-2005>
364.613250732422

> <r_mmod_Improper_Torsional_Energy-OPLS-2005>
5.91854858398438

> <r_mmod_Van_der_Waal_Energy-OPLS-2005>
130.446441650391

> <r_mmod_Electrostatic_Energy-OPLS-2005>
-346.577484130859

> <r_mmod_Solvation_Energy-OPLS-2005>
-411.480133056641

> <b_mmod_Minimization_Converged-OPLS-2005>
0

> <r_mmod_RMS_Derivative-OPLS-2005>
5.90196800231934

$$$$
24
                    3D
 Structure written by MMmdl.
157165  0  0  1  0            999 V2000
  -30.6614  -14.4939   20.6040 C   0  0  0  0  0  0
  -30.4407  -12.3287   19.4193 C   0  0  0  0  0  0
  -29.5017  -12.5192   18.2075 C   0  0  0  0  0  0
  -28.0210  -12.3735   18.6149 C   0  0  0  0  0  0
  -27.6667  -13.2000   19.8786 C   0  0  2  0  0  0
  -28.7060  -12.9490   20.9946 C   0  0  0  0  0  0
  -25.2616  -13.8131   20.5627 C   0  0  0  0  0  0
  -24.1864  -13.0436   20.9170 C   0  0  0  0  0  0
  -24.6406  -11.6897   20.8744 C   0  0  0  0  0  0
  -23.9063  -10.4290   21.0419 C   0  0  0  0  0  0
  -24.3616   -9.4202   21.9192 C   0  0  0  0  0  0
  -23.6288   -8.2244   22.0756 C   0  0  0  0  0  0
  -22.4271   -8.0285   21.3544 C   0  0  0  0  0  0
  -21.9905   -9.0265   20.4649 C   0  0  0  0  0  0
  -22.7237  -10.2147   20.3060 C   0  0  0  0  0  0
  -21.6856   -6.0738   22.5279 C   0  0  0  0  0  0
  -21.4018   -6.5643   23.8215 C   0  0  0  0  0  0
  -21.3650   -5.6793   24.9172 C   0  0  0  0  0  0
  -21.6040   -4.3057   24.7220 C   0  0  0  0  0  0
  -21.8823   -3.8148   23.4345 C   0  0  0  0  0  0
  -21.9191   -4.6963   22.3399 C   0  0  0  0  0  0
  -22.7888  -13.5252   21.1826 C   0  0  0  0  0  0
  -22.1661   -4.2148   21.0977 F   0  0  0  0  0  0
  -21.5616   -3.4542   25.7736 F   0  0  0  0  0  0
  -30.0407  -13.2882   20.4614 N   0  0  0  0  0  0
  -26.3048  -12.9288   20.3345 N   0  0  0  0  0  0
  -25.9333  -11.6460   20.5777 N   0  0  0  0  0  0
  -22.0520  -12.8258   22.0389 N   0  0  0  0  0  0
  -25.4370  -15.1822   20.3931 N   0  0  0  0  0  0
  -31.7530  -14.7538   20.0850 O   0  0  0  0  0  0
  -21.6632   -6.8884   21.4243 O   0  0  0  0  0  0
  -22.3572  -14.5550   20.6661 O   0  0  0  0  0  0
  -24.6160  -31.8673   23.2092 C   0  0  0  0  0  0
  -25.9047  -32.4819   23.8400 C   0  0  1  0  0  0
  -27.2419  -27.4312   20.0994 C   0  0  0  0  0  0
  -25.5901  -33.8617   24.2330 N   0  0  0  0  0  0
  -23.4062  -30.4889   21.5486 C   0  0  2  0  0  0
  -24.8565  -28.9490   20.1197 C   0  0  0  0  0  0
  -22.7418  -29.4654   22.4977 C   0  0  0  0  0  0
  -18.0280  -28.1387   22.8492 C   0  0  0  0  0  0
  -24.1484  -36.7316   23.2637 C   0  0  0  0  0  0
  -25.9357  -30.8290   21.3659 C   0  0  0  0  0  0
  -26.0160  -29.4600   20.7193 C   0  0  0  0  0  0
  -27.2140  -28.7061   20.7116 C   0  0  0  0  0  0
  -26.0704  -26.9335   19.4965 C   0  0  0  0  0  0
  -24.8774  -27.6823   19.5088 C   0  0  0  0  0  0
  -23.6186  -29.8178   20.1650 C   0  0  0  0  0  0
  -25.4105  -36.3107   24.0335 C   0  0  1  0  0  0
  -20.5869  -28.3675   23.1314 C   0  0  2  0  0  0
  -20.6769  -26.9410   22.5416 C   0  0  0  0  0  0
  -19.5745  -26.6390   21.5216 C   0  0  0  0  0  0
  -18.1925  -26.7933   22.1626 C   0  0  0  0  0  0
  -19.1531  -28.8846   23.2901 C   0  0  0  0  0  0
  -18.9456  -30.1450   23.8916 C   0  0  0  0  0  0
  -17.6458  -30.6586   24.0574 C   0  0  0  0  0  0
  -25.9034  -34.9472   23.5129 C   0  0  0  0  0  0
  -16.5347  -29.9094   23.6325 C   0  0  0  0  0  0
  -16.7271  -28.6513   23.0344 C   0  0  0  0  0  0
  -26.4475  -31.6600   25.0729 C   0  0  0  0  0  0
  -25.3750  -31.3715   26.1487 C   0  0  0  0  0  0
  -27.0298  -30.3037   24.6109 C   0  0  0  0  0  0
  -27.6056  -32.4322   25.7483 C   0  0  0  0  0  0
  -27.5580  -37.1809   24.8461 C   0  0  0  0  0  0
  -21.4149  -29.3035   22.3712 N   0  0  0  0  0  0
  -26.4290  -37.3793   23.9408 N   0  0  0  0  0  0
  -24.6706  -31.0764   22.0999 N   0  0  0  0  0  0
  -23.4182  -28.8205   23.3035 O   0  0  0  0  0  0
  -28.3841  -26.6629   20.0493 O   0  0  0  0  0  0
  -26.5593  -34.8925   22.4689 O   0  0  0  0  0  0
  -23.5347  -32.1423   23.7479 O   0  0  0  0  0  0
  -30.6877  -17.7167   20.6704 C   0  0  0  0  0  0
  -30.3443  -19.0810   20.4799 C   0  0  0  0  0  0
  -28.3980  -17.2454   21.3125 C   0  0  0  0  0  0
  -28.0397  -18.5996   21.1067 C   0  0  0  0  0  0
  -29.7096  -16.7786   21.0817 C   0  0  0  0  0  0
  -29.0151  -19.5385   20.6831 C   0  0  0  0  0  0
  -29.4428  -24.5498   20.8843 C   0  0  0  0  0  0
  -28.6610  -23.2531   20.5437 C   0  0  0  0  0  0
  -28.5685  -25.8037   21.1806 C   0  0  0  0  0  0
  -29.5007  -21.9422   20.5302 C   0  0  0  0  0  0
  -26.5962  -19.0461   21.3422 C   0  0  0  0  0  0
  -29.9584  -15.3885   21.3307 N   0  0  0  0  0  0
  -28.5915  -20.8413   20.4584 O   0  0  0  0  0  0
  -25.8588  -18.0849   21.9002 F   0  0  0  0  0  0
  -26.5551  -20.1026   22.1559 F   0  0  0  0  0  0
  -26.0277  -19.3764   20.1816 F   0  0  0  0  0  0
  -31.4806  -12.4598   19.1155 H   0  0  0  0  0  0
  -30.3708  -11.3106   19.8059 H   0  0  0  0  0  0
  -29.7429  -11.7970   17.4263 H   0  0  0  0  0  0
  -29.6637  -13.5058   17.7717 H   0  0  0  0  0  0
  -27.8274  -11.3163   18.7982 H   0  0  0  0  0  0
  -27.3745  -12.6593   17.7840 H   0  0  0  0  0  0
  -27.7188  -14.2522   19.5991 H   0  0  0  0  0  0
  -28.6927  -11.8990   21.2912 H   0  0  0  0  0  0
  -28.4465  -13.4974   21.9004 H   0  0  0  0  0  0
  -25.2776   -9.5664   22.4761 H   0  0  0  0  0  0
  -23.9985   -7.4634   22.7479 H   0  0  0  0  0  0
  -21.0829   -8.8803   19.8969 H   0  0  0  0  0  0
  -22.3709  -10.9692   19.6166 H   0  0  0  0  0  0
  -21.2031   -7.6155   23.9719 H   0  0  0  0  0  0
  -21.1455   -6.0523   25.9073 H   0  0  0  0  0  0
  -22.0609   -2.7606   23.2852 H   0  0  0  0  0  0
  -22.4135  -11.9925   22.4793 H   0  0  0  0  0  0
  -21.1150  -13.1312   22.2592 H   0  0  0  0  0  0
  -24.6765  -15.8439   20.5018 H   0  0  0  0  0  0
  -26.2652  -15.5967   19.9883 H   0  0  0  0  0  0
  -26.7128  -32.5543   23.1180 H   0  0  0  0  0  0
  -25.0051  -33.9780   25.0474 H   0  0  0  0  0  0
  -22.6953  -31.3051   21.4055 H   0  0  0  0  0  0
  -23.3731  -35.9666   23.3319 H   0  0  0  0  0  0
  -24.3571  -36.8910   22.2048 H   0  0  0  0  0  0
  -23.7251  -37.6533   23.6639 H   0  0  0  0  0  0
  -26.0483  -31.5917   20.5938 H   0  0  0  0  0  0
  -26.8234  -30.8869   21.9842 H   0  0  0  0  0  0
  -28.1113  -29.0956   21.1725 H   0  0  0  0  0  0
  -26.0841  -25.9639   19.0194 H   0  0  0  0  0  0
  -23.9868  -27.2816   19.0448 H   0  0  0  0  0  0
  -23.7305  -30.5916   19.4046 H   0  0  0  0  0  0
  -22.7433  -29.2382   19.8665 H   0  0  0  0  0  0
  -25.1276  -36.1976   25.0825 H   0  0  0  0  0  0
  -20.9963  -28.3254   24.1436 H   0  0  0  0  0  0
  -20.5678  -26.2290   23.3606 H   0  0  0  0  0  0
  -21.6642  -26.7447   22.1213 H   0  0  0  0  0  0
  -19.6907  -25.6306   21.1232 H   0  0  0  0  0  0
  -19.6685  -27.3214   20.6759 H   0  0  0  0  0  0
  -17.4194  -26.6693   21.4027 H   0  0  0  0  0  0
  -18.0314  -26.0072   22.9017 H   0  0  0  0  0  0
  -19.7932  -30.7263   24.2297 H   0  0  0  0  0  0
  -17.5011  -31.6264   24.5181 H   0  0  0  0  0  0
  -15.5347  -30.3004   23.7631 H   0  0  0  0  0  0
  -15.8676  -28.0836   22.7041 H   0  0  0  0  0  0
  -24.5913  -30.7069   25.7833 H   0  0  0  0  0  0
  -24.8961  -32.2876   26.4954 H   0  0  0  0  0  0
  -25.8111  -30.8871   27.0232 H   0  0  0  0  0  0
  -26.2837  -29.6802   24.1167 H   0  0  0  0  0  0
  -27.4062  -29.7271   25.4567 H   0  0  0  0  0  0
  -27.8679  -30.4342   23.9260 H   0  0  0  0  0  0
  -27.2671  -33.3604   26.2101 H   0  0  0  0  0  0
  -28.3842  -32.6914   25.0296 H   0  0  0  0  0  0
  -28.0755  -31.8429   26.5366 H   0  0  0  0  0  0
  -28.2606  -38.0099   24.7494 H   0  0  0  0  0  0
  -28.1059  -36.2629   24.6287 H   0  0  0  0  0  0
  -27.2297  -37.1462   25.8864 H   0  0  0  0  0  0
  -20.9318  -29.8750   21.6923 H   0  0  0  0  0  0
  -26.0175  -38.2869   24.1409 H   0  0  0  0  0  0
  -31.7082  -17.4017   20.5006 H   0  0  0  0  0  0
  -31.1126  -19.7660   20.1527 H   0  0  0  0  0  0
  -27.6409  -16.5506   21.6445 H   0  0  0  0  0  0
  -30.1737  -24.7751   20.1070 H   0  0  0  0  0  0
  -30.0252  -24.3460   21.7844 H   0  0  0  0  0  0
  -28.1556  -23.3730   19.5844 H   0  0  0  0  0  0
  -27.8678  -23.1319   21.2820 H   0  0  0  0  0  0
  -29.0641  -26.4027   21.9460 H   0  0  0  0  0  0
  -27.6135  -25.4985   21.6133 H   0  0  0  0  0  0
  -30.0985  -21.8664   21.4400 H   0  0  0  0  0  0
  -30.1827  -21.9331   19.6789 H   0  0  0  0  0  0
  -29.2074  -14.9273   21.8216 H   0  0  0  0  0  0
  1 25  1  0  0  0
  1 30  2  0  0  0
  1 82  1  0  0  0
  2  3  1  0  0  0
  2 25  1  0  0  0
  2 87  1  0  0  0
  2 88  1  0  0  0
  3  4  1  0  0  0
  3 89  1  0  0  0
  3 90  1  0  0  0
  4  5  1  0  0  0
  4 91  1  0  0  0
  4 92  1  0  0  0
  5  6  1  0  0  0
  5 26  1  0  0  0
  5 93  1  0  0  0
  6 25  1  0  0  0
  6 94  1  0  0  0
  6 95  1  0  0  0
  7  8  2  0  0  0
  7 26  1  0  0  0
  7 29  1  0  0  0
  8  9  1  0  0  0
  8 22  1  0  0  0
  9 10  1  0  0  0
  9 27  2  0  0  0
 10 11  2  0  0  0
 10 15  1  0  0  0
 11 12  1  0  0  0
 11 96  1  0  0  0
 12 13  2  0  0  0
 12 97  1  0  0  0
 13 14  1  0  0  0
 13 31  1  0  0  0
 14 15  2  0  0  0
 14 98  1  0  0  0
 15 99  1  0  0  0
 16 17  2  0  0  0
 16 21  1  0  0  0
 16 31  1  0  0  0
 17 18  1  0  0  0
 17100  1  0  0  0
 18 19  2  0  0  0
 18101  1  0  0  0
 19 20  1  0  0  0
 19 24  1  0  0  0
 20 21  2  0  0  0
 20102  1  0  0  0
 21 23  1  0  0  0
 22 28  1  0  0  0
 22 32  2  0  0  0
 26 27  1  0  0  0
 28103  1  0  0  0
 28104  1  0  0  0
 29105  1  0  0  0
 29106  1  0  0  0
 33 34  1  0  0  0
 33 66  1  0  0  0
 33 70  2  0  0  0
 34 36  1  0  0  0
 34 59  1  0  0  0
 34107  1  0  0  0
 35 44  2  0  0  0
 35 45  1  0  0  0
 35 68  1  0  0  0
 36 56  1  0  0  0
 36108  1  0  0  0
 37 39  1  0  0  0
 37 47  1  0  0  0
 37 66  1  0  0  0
 37109  1  0  0  0
 38 43  2  0  0  0
 38 46  1  0  0  0
 38 47  1  0  0  0
 39 64  1  0  0  0
 39 67  2  0  0  0
 40 52  1  0  0  0
 40 53  2  0  0  0
 40 58  1  0  0  0
 41110  1  0  0  0
 41111  1  0  0  0
 41112  1  0  0  0
 41 48  1  0  0  0
 42 43  1  0  0  0
 42 66  1  0  0  0
 42113  1  0  0  0
 42114  1  0  0  0
 43 44  1  0  0  0
 44115  1  0  0  0
 45 46  2  0  0  0
 45116  1  0  0  0
 46117  1  0  0  0
 47118  1  0  0  0
 47119  1  0  0  0
 48 56  1  0  0  0
 48 65  1  0  0  0
 48120  1  0  0  0
 49 50  1  0  0  0
 49 53  1  0  0  0
 49 64  1  0  0  0
 49121  1  0  0  0
 50 51  1  0  0  0
 50122  1  0  0  0
 50123  1  0  0  0
 51 52  1  0  0  0
 51124  1  0  0  0
 51125  1  0  0  0
 52126  1  0  0  0
 52127  1  0  0  0
 53 54  1  0  0  0
 54 55  2  0  0  0
 54128  1  0  0  0
 55 57  1  0  0  0
 55129  1  0  0  0
 56 69  2  0  0  0
 57 58  2  0  0  0
 57130  1  0  0  0
 58131  1  0  0  0
 59 60  1  0  0  0
 59 61  1  0  0  0
 59 62  1  0  0  0
 60132  1  0  0  0
 60133  1  0  0  0
 60134  1  0  0  0
 61135  1  0  0  0
 61136  1  0  0  0
 61137  1  0  0  0
 62138  1  0  0  0
 62139  1  0  0  0
 62140  1  0  0  0
 63 65  1  0  0  0
 63141  1  0  0  0
 63142  1  0  0  0
 63143  1  0  0  0
 64144  1  0  0  0
 65145  1  0  0  0
 68 79  1  0  0  0
 71 72  2  0  0  0
 71 75  1  0  0  0
 71146  1  0  0  0
 72 76  1  0  0  0
 72147  1  0  0  0
 73 74  1  0  0  0
 73 75  2  0  0  0
 73148  1  0  0  0
 74 76  2  0  0  0
 74 81  1  0  0  0
 75 82  1  0  0  0
 76 83  1  0  0  0
 77 78  1  0  0  0
 77 79  1  0  0  0
 77149  1  0  0  0
 77150  1  0  0  0
 78 80  1  0  0  0
 78151  1  0  0  0
 78152  1  0  0  0
 79153  1  0  0  0
 79154  1  0  0  0
 80 83  1  0  0  0
 80155  1  0  0  0
 80156  1  0  0  0
 81 84  1  0  0  0
 81 85  1  0  0  0
 81 86  1  0  0  0
 82157  1  0  0  0
M  ISO  4   1 100  68 101  79 101  82 100
M  END
> <chiral flag>
0

> <version>
0

> <s_m_source_file>
/data/baiqing/PycharmProjects/Reinvent-master-3.2/result/LINK_invent/BTK/process_docking_weight1_custom_sum_contain_oxygen_bond_distance_aromatic_linkinvent_7_9_3/rearranged_h_0006.sdf

> <i_m_source_file_index>
25

> <r_mmod_Potential_Energy-OPLS-2005>
33.2184906005859

> <r_mmod_Stretch_Energy-OPLS-2005>
40.8405990600586

> <r_mmod_Bend_Energy-OPLS-2005>
111.060981750488

> <r_mmod_Torsional_Energy-OPLS-2005>
258.579742431641

> <r_mmod_Improper_Torsional_Energy-OPLS-2005>
4.73709535598755

> <r_mmod_Van_der_Waal_Energy-OPLS-2005>
141.568099975586

> <r_mmod_Electrostatic_Energy-OPLS-2005>
-336.761260986328

> <r_mmod_Solvation_Energy-OPLS-2005>
-200.420959472656

> <b_mmod_Minimization_Converged-OPLS-2005>
0

> <r_mmod_RMS_Derivative-OPLS-2005>
1.5071793794632

$$$$
25
                    3D
 Structure written by MMmdl.
173181  0  0  1  0            999 V2000
  -30.3534  -14.7371   20.0283 C   0  0  0  0  0  0
  -30.3544  -12.3855   19.4143 C   0  0  0  0  0  0
  -29.4059  -12.3540   18.2130 C   0  0  0  0  0  0
  -27.9600  -12.1872   18.6839 C   0  0  0  0  0  0
  -27.5289  -13.0886   19.8703 C   0  0  2  0  0  0
  -28.6219  -13.1616   20.9604 C   0  0  0  0  0  0
  -25.1652  -13.7919   20.7755 C   0  0  0  0  0  0
  -24.0311  -13.0479   20.9814 C   0  0  0  0  0  0
  -24.4710  -11.6949   20.9324 C   0  0  0  0  0  0
  -23.7535  -10.4664   21.0529 C   0  0  0  0  0  0
  -24.2342   -9.5043   21.9603 C   0  0  0  0  0  0
  -23.5672   -8.2773   22.1298 C   0  0  0  0  0  0
  -22.4282   -8.0419   21.3343 C   0  0  0  0  0  0
  -21.9648   -8.9929   20.3996 C   0  0  0  0  0  0
  -22.6082  -10.2130   20.2857 C   0  0  0  0  0  0
  -21.7138   -6.0875   22.5050 C   0  0  0  0  0  0
  -21.4108   -6.5631   23.8137 C   0  0  0  0  0  0
  -21.3690   -5.6885   24.8985 C   0  0  0  0  0  0
  -21.6163   -4.3117   24.7120 C   0  0  0  0  0  0
  -21.9036   -3.8226   23.4145 C   0  0  0  0  0  0
  -21.9376   -4.6911   22.3297 C   0  0  0  0  0  0
  -22.6579  -13.4590   21.3929 C   0  0  0  0  0  0
  -22.1793   -4.2252   21.0877 F   0  0  0  0  0  0
  -21.5511   -3.4582   25.7508 F   0  0  0  0  0  0
  -29.8882  -13.4749   20.2704 N   0  0  0  0  0  0
  -26.1631  -12.8647   20.4077 N   0  0  0  0  0  0
  -25.7627  -11.6095   20.6548 N   0  0  0  0  0  0
  -21.9811  -12.5740   22.1670 N   0  0  0  0  0  0
  -25.4786  -15.1572   20.8621 N   0  0  0  0  0  0
  -31.5756  -14.9205   20.0515 O   0  0  0  0  0  0
  -21.7053   -6.8588   21.3747 O   0  0  0  0  0  0
  -22.2178  -14.5812   21.0709 O   0  0  0  0  0  0
  -24.6489  -31.8602   23.2303 C   0  0  0  0  0  0
  -25.9272  -32.4789   23.8424 C   0  0  1  0  0  0
  -26.9043  -27.1638   20.1174 C   0  0  0  0  0  0
  -25.6116  -33.8593   24.2359 N   0  0  0  0  0  0
  -23.4265  -30.5214   21.5873 C   0  0  2  0  0  0
  -24.7979  -29.0055   20.0941 C   0  0  0  0  0  0
  -22.7469  -29.4726   22.4979 C   0  0  0  0  0  0
  -18.0296  -28.1407   22.8486 C   0  0  0  0  0  0
  -24.1507  -36.7235   23.2647 C   0  0  0  0  0  0
  -25.9891  -30.7335   21.4335 C   0  0  0  0  0  0
  -25.9828  -29.3603   20.7470 C   0  0  0  0  0  0
  -27.0748  -28.4216   20.7862 C   0  0  0  0  0  0
  -25.8484  -27.0594   19.2303 C   0  0  0  0  0  0
  -24.7190  -27.8389   19.3509 C   0  0  0  0  0  0
  -23.6202  -29.9402   20.1739 C   0  0  0  0  0  0
  -25.4122  -36.3089   24.0325 C   0  0  1  0  0  0
  -20.5894  -28.3735   23.1221 C   0  0  2  0  0  0
  -20.6789  -26.9467   22.5387 C   0  0  0  0  0  0
  -19.5709  -26.6389   21.5219 C   0  0  0  0  0  0
  -18.1913  -26.7966   22.1680 C   0  0  0  0  0  0
  -19.1574  -28.8815   23.2894 C   0  0  0  0  0  0
  -18.9528  -30.1419   23.8878 C   0  0  0  0  0  0
  -17.6537  -30.6588   24.0519 C   0  0  0  0  0  0
  -25.9104  -34.9458   23.5128 C   0  0  0  0  0  0
  -16.5378  -29.9067   23.6366 C   0  0  0  0  0  0
  -16.7304  -28.6490   23.0366 C   0  0  0  0  0  0
  -26.4516  -31.6606   25.0798 C   0  0  0  0  0  0
  -25.3691  -31.3797   26.1508 C   0  0  0  0  0  0
  -27.0374  -30.2967   24.6499 C   0  0  0  0  0  0
  -27.6150  -32.4323   25.7536 C   0  0  0  0  0  0
  -27.5556  -37.1816   24.8484 C   0  0  0  0  0  0
  -21.4217  -29.3100   22.3677 N   0  0  0  0  0  0
  -26.4336  -37.3771   23.9381 N   0  0  0  0  0  0
  -24.7119  -31.0629   22.1306 N   0  0  0  0  0  0
  -23.4057  -28.8233   23.3108 O   0  0  0  0  0  0
  -27.5059  -25.9364   20.2797 O   0  0  0  0  0  0
  -26.5667  -34.8949   22.4692 O   0  0  0  0  0  0
  -23.5662  -32.1632   23.7402 O   0  0  0  0  0  0
  -21.3095  -16.0192   15.7353 C   0  0  0  0  0  0
  -22.6478  -15.5941   16.0525 C   0  0  0  0  0  0
  -20.5816  -16.8650   16.5628 C   0  0  0  0  0  0
  -22.5835  -17.0255   17.9594 C   0  0  0  0  0  0
  -23.2969  -16.1146   17.1734 C   0  0  0  0  0  0
  -21.2208  -17.3957   17.6958 C   0  0  0  0  0  0
  -27.0812  -16.0088   18.0883 C   0  0  0  0  0  0
  -20.9829  -19.1058   19.4098 C   0  0  0  0  0  0
  -25.3371  -23.9945   19.9039 C   0  0  0  0  0  0
  -27.6447  -15.5025   16.7653 C   0  0  0  0  0  0
  -24.7549  -15.5699   17.4855 C   0  0  0  0  0  0
  -28.2038  -16.2203   19.2306 C   0  0  0  0  0  0
  -21.1240  -20.6646   19.2774 C   0  0  0  0  0  0
  -26.5504  -24.7619   20.7456 C   0  0  0  0  0  0
  -22.2277  -21.3946   20.2291 C   0  0  0  0  0  0
  -23.5640  -22.0747   19.5982 C   0  0  0  0  0  0
  -25.8221  -16.3361   18.1986 N   0  0  0  0  0  0
  -20.4852  -18.3863   18.4107 N   0  0  0  0  0  0
  -24.4495  -23.0351   20.4217 N   0  0  0  0  0  0
  -29.5761  -15.5200   19.1655 N   0  0  0  0  0  0
  -21.2584  -18.5291   20.4344 O   0  0  0  0  0  0
  -25.1806  -24.2174   18.7216 O   0  0  0  0  0  0
  -31.3997  -12.5330   19.1157 H   0  0  0  0  0  0
  -30.2986  -11.4665   19.9812 H   0  0  0  0  0  0
  -29.6659  -11.5329   17.5665 H   0  0  0  0  0  0
  -29.5638  -13.2492   17.6253 H   0  0  0  0  0  0
  -27.7961  -11.1444   18.9262 H   0  0  0  0  0  0
  -27.3253  -12.3973   17.8422 H   0  0  0  0  0  0
  -27.4600  -14.0151   19.3928 H   0  0  0  0  0  0
  -28.7089  -12.2077   21.5243 H   0  0  0  0  0  0
  -28.3590  -13.9497   21.6864 H   0  0  0  0  0  0
  -25.0851   -9.7716   22.5571 H   0  0  0  0  0  0
  -23.9560   -7.5642   22.8514 H   0  0  0  0  0  0
  -21.1840   -8.8368   19.6745 H   0  0  0  0  0  0
  -22.1182  -10.9498   19.6200 H   0  0  0  0  0  0
  -21.2106   -7.6249   23.9722 H   0  0  0  0  0  0
  -21.1201   -6.0341   25.9010 H   0  0  0  0  0  0
  -22.0700   -2.7592   23.2660 H   0  0  0  0  0  0
  -22.2928  -11.6043   22.3587 H   0  0  0  0  0  0
  -21.2218  -12.9058   22.8074 H   0  0  0  0  0  0
  -24.8846  -15.8958   21.2455 H   0  0  0  0  0  0
  -26.4663  -15.3254   21.1400 H   0  0  0  0  0  0
  -26.7239  -32.5308   23.1078 H   0  0  0  0  0  0
  -25.0238  -33.9767   25.0467 H   0  0  0  0  0  0
  -22.7281  -31.3588   21.4881 H   0  0  0  0  0  0
  -23.3871  -35.9507   23.3425 H   0  0  0  0  0  0
  -24.3538  -36.8746   22.2046 H   0  0  0  0  0  0
  -23.7203  -37.6435   23.6577 H   0  0  0  0  0  0
  -26.2065  -31.5052   20.6850 H   0  0  0  0  0  0
  -26.8540  -30.7015   22.0883 H   0  0  0  0  0  0
  -27.9237  -28.6315   21.4377 H   0  0  0  0  0  0
  -25.8218  -26.2875   18.5009 H   0  0  0  0  0  0
  -23.8272  -27.6023   18.7854 H   0  0  0  0  0  0
  -23.8260  -30.7659   19.4918 H   0  0  0  0  0  0
  -22.7130  -29.4532   19.8224 H   0  0  0  0  0  0
  -25.1310  -36.1960   25.0826 H   0  0  0  0  0  0
  -21.0024  -28.3413   24.1280 H   0  0  0  0  0  0
  -20.5710  -26.2400   23.3637 H   0  0  0  0  0  0
  -21.6665  -26.7487   22.1122 H   0  0  0  0  0  0
  -19.6970  -25.6277   21.1267 H   0  0  0  0  0  0
  -19.6683  -27.3167   20.6681 H   0  0  0  0  0  0
  -17.4222  -26.6711   21.4085 H   0  0  0  0  0  0
  -18.0373  -26.0029   22.8993 H   0  0  0  0  0  0
  -19.7937  -30.7264   24.2302 H   0  0  0  0  0  0
  -17.5018  -31.6267   24.5152 H   0  0  0  0  0  0
  -15.5371  -30.2944   23.7593 H   0  0  0  0  0  0
  -15.8742  -28.0731   22.7103 H   0  0  0  0  0  0
  -24.5989  -30.7014   25.7794 H   0  0  0  0  0  0
  -24.8742  -32.2967   26.4738 H   0  0  0  0  0  0
  -25.7934  -30.9104   27.0424 H   0  0  0  0  0  0
  -26.2972  -29.6717   24.1554 H   0  0  0  0  0  0
  -27.3917  -29.7233   25.5079 H   0  0  0  0  0  0
  -27.8919  -30.4133   23.9859 H   0  0  0  0  0  0
  -27.2871  -33.3770   26.1991 H   0  0  0  0  0  0
  -28.4021  -32.6726   25.0304 H   0  0  0  0  0  0
  -28.0833  -31.8525   26.5583 H   0  0  0  0  0  0
  -28.2677  -38.0040   24.7419 H   0  0  0  0  0  0
  -28.1001  -36.2541   24.6486 H   0  0  0  0  0  0
  -27.2250  -37.1608   25.8915 H   0  0  0  0  0  0
  -20.9479  -29.8790   21.6857 H   0  0  0  0  0  0
  -26.0275  -38.2914   24.1315 H   0  0  0  0  0  0
  -20.9905  -15.8802   14.6992 H   0  0  0  0  0  0
  -23.2248  -15.0255   15.3407 H   0  0  0  0  0  0
  -19.6299  -17.2778   16.1896 H   0  0  0  0  0  0
  -23.1975  -17.4539   18.6885 H   0  0  0  0  0  0
  -27.0118  -14.8675   16.1762 H   0  0  0  0  0  0
  -28.5563  -14.9600   16.8755 H   0  0  0  0  0  0
  -27.8901  -16.3316   16.1221 H   0  0  0  0  0  0
  -25.0462  -15.3242   16.4926 H   0  0  0  0  0  0
  -24.5854  -14.6300   18.0245 H   0  0  0  0  0  0
  -27.7473  -16.0133   20.2000 H   0  0  0  0  0  0
  -28.3565  -17.3060   19.2854 H   0  0  0  0  0  0
  -20.1272  -21.0420   19.5269 H   0  0  0  0  0  0
  -21.2826  -20.9442   18.2482 H   0  0  0  0  0  0
  -27.2080  -23.9457   20.9980 H   0  0  0  0  0  0
  -26.1115  -25.0022   21.7031 H   0  0  0  0  0  0
  -22.5737  -20.6807   20.9690 H   0  0  0  0  0  0
  -21.6694  -22.1481   20.7841 H   0  0  0  0  0  0
  -23.3131  -22.5433   18.6616 H   0  0  0  0  0  0
  -24.2266  -21.2655   19.2827 H   0  0  0  0  0  0
  -19.5567  -18.6504   18.0739 H   0  0  0  0  0  0
  -24.5579  -22.8275   21.4047 H   0  0  0  0  0  0
  -30.1999  -16.0775   18.5769 H   0  0  0  0  0  0
  1 25  1  0  0  0
  1 30  2  0  0  0
  1 90  1  0  0  0
  2  3  1  0  0  0
  2 25  1  0  0  0
  2 93  1  0  0  0
  2 94  1  0  0  0
  3  4  1  0  0  0
  3 95  1  0  0  0
  3 96  1  0  0  0
  4  5  1  0  0  0
  4 97  1  0  0  0
  4 98  1  0  0  0
  5  6  1  0  0  0
  5 26  1  0  0  0
  5 99  1  0  0  0
  6 25  1  0  0  0
  6100  1  0  0  0
  6101  1  0  0  0
  7  8  2  0  0  0
  7 26  1  0  0  0
  7 29  1  0  0  0
  8  9  1  0  0  0
  8 22  1  0  0  0
  9 10  1  0  0  0
  9 27  2  0  0  0
 10 11  2  0  0  0
 10 15  1  0  0  0
 11 12  1  0  0  0
 11102  1  0  0  0
 12 13  2  0  0  0
 12103  1  0  0  0
 13 14  1  0  0  0
 13 31  1  0  0  0
 14 15  2  0  0  0
 14104  1  0  0  0
 15105  1  0  0  0
 16 17  2  0  0  0
 16 21  1  0  0  0
 16 31  1  0  0  0
 17 18  1  0  0  0
 17106  1  0  0  0
 18 19  2  0  0  0
 18107  1  0  0  0
 19 20  1  0  0  0
 19 24  1  0  0  0
 20 21  2  0  0  0
 20108  1  0  0  0
 21 23  1  0  0  0
 22 28  1  0  0  0
 22 32  2  0  0  0
 26 27  1  0  0  0
 28109  1  0  0  0
 28110  1  0  0  0
 29111  1  0  0  0
 29112  1  0  0  0
 33 34  1  0  0  0
 33 66  1  0  0  0
 33 70  2  0  0  0
 34 36  1  0  0  0
 34 59  1  0  0  0
 34113  1  0  0  0
 35 44  2  0  0  0
 35 45  1  0  0  0
 35 68  1  0  0  0
 36 56  1  0  0  0
 36114  1  0  0  0
 37 39  1  0  0  0
 37 47  1  0  0  0
 37 66  1  0  0  0
 37115  1  0  0  0
 38 43  2  0  0  0
 38 46  1  0  0  0
 38 47  1  0  0  0
 39 64  1  0  0  0
 39 67  2  0  0  0
 40 52  1  0  0  0
 40 53  2  0  0  0
 40 58  1  0  0  0
 41116  1  0  0  0
 41117  1  0  0  0
 41118  1  0  0  0
 41 48  1  0  0  0
 42 43  1  0  0  0
 42 66  1  0  0  0
 42119  1  0  0  0
 42120  1  0  0  0
 43 44  1  0  0  0
 44121  1  0  0  0
 45 46  2  0  0  0
 45122  1  0  0  0
 46123  1  0  0  0
 47124  1  0  0  0
 47125  1  0  0  0
 48 56  1  0  0  0
 48 65  1  0  0  0
 48126  1  0  0  0
 49 50  1  0  0  0
 49 53  1  0  0  0
 49 64  1  0  0  0
 49127  1  0  0  0
 50 51  1  0  0  0
 50128  1  0  0  0
 50129  1  0  0  0
 51 52  1  0  0  0
 51130  1  0  0  0
 51131  1  0  0  0
 52132  1  0  0  0
 52133  1  0  0  0
 53 54  1  0  0  0
 54 55  2  0  0  0
 54134  1  0  0  0
 55 57  1  0  0  0
 55135  1  0  0  0
 56 69  2  0  0  0
 57 58  2  0  0  0
 57136  1  0  0  0
 58137  1  0  0  0
 59 60  1  0  0  0
 59 61  1  0  0  0
 59 62  1  0  0  0
 60138  1  0  0  0
 60139  1  0  0  0
 60140  1  0  0  0
 61141  1  0  0  0
 61142  1  0  0  0
 61143  1  0  0  0
 62144  1  0  0  0
 62145  1  0  0  0
 62146  1  0  0  0
 63 65  1  0  0  0
 63147  1  0  0  0
 63148  1  0  0  0
 63149  1  0  0  0
 64150  1  0  0  0
 65151  1  0  0  0
 68 84  1  0  0  0
 71 72  2  0  0  0
 71 73  1  0  0  0
 71152  1  0  0  0
 72 75  1  0  0  0
 72153  1  0  0  0
 73 76  2  0  0  0
 73154  1  0  0  0
 74 75  2  0  0  0
 74 76  1  0  0  0
 74155  1  0  0  0
 75 81  1  0  0  0
 76 88  1  0  0  0
 77 80  1  0  0  0
 77 82  1  0  0  0
 77 87  2  0  0  0
 78 83  1  0  0  0
 78 88  1  0  0  0
 78 91  2  0  0  0
 79 84  1  0  0  0
 79 89  1  0  0  0
 79 92  2  0  0  0
 80156  1  0  0  0
 80157  1  0  0  0
 80158  1  0  0  0
 81 87  1  0  0  0
 81159  1  0  0  0
 81160  1  0  0  0
 82 90  1  0  0  0
 82161  1  0  0  0
 82162  1  0  0  0
 83 85  1  0  0  0
 83163  1  0  0  0
 83164  1  0  0  0
 84165  1  0  0  0
 84166  1  0  0  0
 85 86  1  0  0  0
 85167  1  0  0  0
 85168  1  0  0  0
 86 89  1  0  0  0
 86169  1  0  0  0
 86170  1  0  0  0
 88171  1  0  0  0
 89172  1  0  0  0
 90173  1  0  0  0
M  ISO  4   1 100  68 101  84 101  90 100
M  END
> <chiral flag>
0

> <version>
0

> <s_m_source_file>
/data/baiqing/PycharmProjects/Reinvent-master-3.2/result/LINK_invent/BTK/process_docking_weight1_custom_sum_contain_oxygen_bond_distance_aromatic_linkinvent_7_9_3/rearranged_h_0006.sdf

> <i_m_source_file_index>
26

> <r_mmod_Potential_Energy-OPLS-2005>
893.818664550781

> <r_mmod_Stretch_Energy-OPLS-2005>
239.165939331055

> <r_mmod_Bend_Energy-OPLS-2005>
331.817138671875

> <r_mmod_Torsional_Energy-OPLS-2005>
483.491302490234

> <r_mmod_Improper_Torsional_Energy-OPLS-2005>
39.3694915771484

> <r_mmod_Van_der_Waal_Energy-OPLS-2005>
198.277618408203

> <r_mmod_Electrostatic_Energy-OPLS-2005>
-530.333679199219

> <r_mmod_Solvation_Energy-OPLS-2005>
-291.382141113281

> <b_mmod_Minimization_Converged-OPLS-2005>
0

> <r_mmod_RMS_Derivative-OPLS-2005>
64.5456466674805

$$$$
26
                    3D
 Structure written by MMmdl.
151159  0  0  1  0            999 V2000
  -30.6215  -14.6467   20.4927 C   0  0  0  0  0  0
  -30.4407  -12.3957   19.4503 C   0  0  0  0  0  0
  -29.5080  -12.5074   18.2234 C   0  0  0  0  0  0
  -28.0310  -12.3448   18.6369 C   0  0  0  0  0  0
  -27.6531  -13.2179   19.8634 C   0  0  2  0  0  0
  -28.7004  -13.0767   20.9916 C   0  0  0  0  0  0
  -25.2552  -13.8167   20.5692 C   0  0  0  0  0  0
  -24.1817  -13.0425   20.9166 C   0  0  0  0  0  0
  -24.6396  -11.6902   20.8726 C   0  0  0  0  0  0
  -23.9065  -10.4286   21.0398 C   0  0  0  0  0  0
  -24.3615   -9.4205   21.9181 C   0  0  0  0  0  0
  -23.6291   -8.2241   22.0754 C   0  0  0  0  0  0
  -22.4273   -8.0278   21.3545 C   0  0  0  0  0  0
  -21.9906   -9.0250   20.4646 C   0  0  0  0  0  0
  -22.7236  -10.2128   20.3050 C   0  0  0  0  0  0
  -21.6852   -6.0733   22.5280 C   0  0  0  0  0  0
  -21.4013   -6.5637   23.8213 C   0  0  0  0  0  0
  -21.3660   -5.6791   24.9175 C   0  0  0  0  0  0
  -21.6045   -4.3053   24.7225 C   0  0  0  0  0  0
  -21.8819   -3.8144   23.4346 C   0  0  0  0  0  0
  -21.9192   -4.6961   22.3403 C   0  0  0  0  0  0
  -22.7841  -13.5220   21.1842 C   0  0  0  0  0  0
  -22.1662   -4.2147   21.0981 F   0  0  0  0  0  0
  -21.5630   -3.4537   25.7739 F   0  0  0  0  0  0
  -30.0151  -13.4189   20.4251 N   0  0  0  0  0  0
  -26.2995  -12.9359   20.3338 N   0  0  0  0  0  0
  -25.9330  -11.6508   20.5761 N   0  0  0  0  0  0
  -22.0489  -12.8217   22.0407 N   0  0  0  0  0  0
  -25.4214  -15.1896   20.4180 N   0  0  0  0  0  0
  -31.7915  -14.8056   20.1326 O   0  0  0  0  0  0
  -21.6637   -6.8876   21.4242 O   0  0  0  0  0  0
  -22.3520  -14.5528   20.6698 O   0  0  0  0  0  0
  -24.6266  -31.8601   23.2031 C   0  0  0  0  0  0
  -25.9113  -32.4780   23.8358 C   0  0  1  0  0  0
  -27.2236  -27.3176   20.1118 C   0  0  0  0  0  0
  -25.5926  -33.8581   24.2283 N   0  0  0  0  0  0
  -23.4199  -30.4850   21.5463 C   0  0  2  0  0  0
  -24.8656  -28.9422   20.1113 C   0  0  0  0  0  0
  -22.7476  -29.4628   22.4939 C   0  0  0  0  0  0
  -18.0286  -28.1384   22.8487 C   0  0  0  0  0  0
  -24.1489  -36.7296   23.2639 C   0  0  0  0  0  0
  -25.9621  -30.7907   21.3744 C   0  0  0  0  0  0
  -26.0362  -29.4188   20.7147 C   0  0  0  0  0  0
  -27.2183  -28.6189   20.7045 C   0  0  0  0  0  0
  -26.0260  -26.8968   19.4857 C   0  0  0  0  0  0
  -24.8626  -27.6866   19.4884 C   0  0  0  0  0  0
  -23.6342  -29.8222   20.1610 C   0  0  0  0  0  0
  -25.4113  -36.3085   24.0330 C   0  0  1  0  0  0
  -20.5886  -28.3689   23.1283 C   0  0  2  0  0  0
  -20.6775  -26.9414   22.5408 C   0  0  0  0  0  0
  -19.5750  -26.6385   21.5212 C   0  0  0  0  0  0
  -18.1931  -26.7926   22.1626 C   0  0  0  0  0  0
  -19.1538  -28.8853   23.2880 C   0  0  0  0  0  0
  -18.9460  -30.1455   23.8897 C   0  0  0  0  0  0
  -17.6461  -30.6587   24.0563 C   0  0  0  0  0  0
  -25.9051  -34.9454   23.5107 C   0  0  0  0  0  0
  -16.5352  -29.9086   23.6329 C   0  0  0  0  0  0
  -16.7273  -28.6503   23.0352 C   0  0  0  0  0  0
  -26.4494  -31.6587   25.0728 C   0  0  0  0  0  0
  -25.3727  -31.3725   26.1454 C   0  0  0  0  0  0
  -27.0334  -30.3010   24.6182 C   0  0  0  0  0  0
  -27.6054  -32.4320   25.7498 C   0  0  0  0  0  0
  -27.5580  -37.1804   24.8465 C   0  0  0  0  0  0
  -21.4189  -29.3045   22.3680 N   0  0  0  0  0  0
  -26.4293  -37.3779   23.9407 N   0  0  0  0  0  0
  -24.6885  -31.0614   22.0981 N   0  0  0  0  0  0
  -23.4201  -28.8163   23.3014 O   0  0  0  0  0  0
  -28.3403  -26.4633   20.1602 O   0  0  0  0  0  0
  -26.5620  -34.8919   22.4674 O   0  0  0  0  0  0
  -23.5429  -32.1399   23.7358 O   0  0  0  0  0  0
  -31.1180  -17.8849   20.6034 C   0  0  0  0  0  0
  -31.1123  -19.3107   20.5262 C   0  0  0  0  0  0
  -28.7106  -19.3389   20.5192 C   0  0  0  0  0  0
  -29.9083  -17.1463   20.6525 C   0  0  0  0  0  0
  -29.9190  -20.0843   20.4854 C   0  0  0  0  0  0
  -28.7114  -17.9126   20.6067 C   0  0  0  0  0  0
  -29.2528  -23.9564   20.3436 C   0  0  0  0  0  0
  -28.1015  -25.0048   20.0220 C   0  0  0  0  0  0
  -28.8904  -22.3990   20.2827 C   0  0  0  0  0  0
  -29.7931  -15.6941   20.7921 N   0  0  0  0  0  0
  -30.0305  -21.4919   20.4337 O   0  0  0  0  0  0
  -27.5271  -17.2553   20.6481 F   0  0  0  0  0  0
  -31.4812  -12.5238   19.1468 H   0  0  0  0  0  0
  -30.3783  -11.4007   19.8940 H   0  0  0  0  0  0
  -29.7724  -11.7555   17.4787 H   0  0  0  0  0  0
  -29.6485  -13.4764   17.7417 H   0  0  0  0  0  0
  -27.8691  -11.2920   18.8707 H   0  0  0  0  0  0
  -27.3755  -12.5722   17.7955 H   0  0  0  0  0  0
  -27.6666  -14.2522   19.5190 H   0  0  0  0  0  0
  -28.7131  -12.0565   21.3781 H   0  0  0  0  0  0
  -28.4480  -13.7124   21.8419 H   0  0  0  0  0  0
  -25.2760   -9.5683   22.4755 H   0  0  0  0  0  0
  -23.9999   -7.4633   22.7474 H   0  0  0  0  0  0
  -21.0836   -8.8767   19.8954 H   0  0  0  0  0  0
  -22.3693  -10.9665   19.6157 H   0  0  0  0  0  0
  -21.2003   -7.6146   23.9716 H   0  0  0  0  0  0
  -21.1485   -6.0521   25.9079 H   0  0  0  0  0  0
  -22.0598   -2.7606   23.2846 H   0  0  0  0  0  0
  -22.4103  -11.9877   22.4793 H   0  0  0  0  0  0
  -21.1112  -13.1253   22.2622 H   0  0  0  0  0  0
  -24.6550  -15.8367   20.5619 H   0  0  0  0  0  0
  -26.2902  -15.6637   20.1983 H   0  0  0  0  0  0
  -26.7180  -32.5450   23.1107 H   0  0  0  0  0  0
  -25.0065  -33.9725   25.0423 H   0  0  0  0  0  0
  -22.7139  -31.3059   21.4047 H   0  0  0  0  0  0
  -23.3749  -35.9632   23.3306 H   0  0  0  0  0  0
  -24.3580  -36.8912   22.2052 H   0  0  0  0  0  0
  -23.7246  -37.6502   23.6657 H   0  0  0  0  0  0
  -26.0942  -31.5552   20.6075 H   0  0  0  0  0  0
  -26.8423  -30.8379   22.0041 H   0  0  0  0  0  0
  -28.1158  -28.9808   21.1864 H   0  0  0  0  0  0
  -25.9527  -25.9397   18.9927 H   0  0  0  0  0  0
  -23.9657  -27.3159   19.0113 H   0  0  0  0  0  0
  -23.7534  -30.5997   19.4055 H   0  0  0  0  0  0
  -22.7537  -29.2525   19.8581 H   0  0  0  0  0  0
  -25.1293  -36.1940   25.0823 H   0  0  0  0  0  0
  -20.9979  -28.3261   24.1404 H   0  0  0  0  0  0
  -20.5679  -26.2299   23.3607 H   0  0  0  0  0  0
  -21.6643  -26.7445   22.1199 H   0  0  0  0  0  0
  -19.6913  -25.6296   21.1242 H   0  0  0  0  0  0
  -19.6686  -27.3195   20.6741 H   0  0  0  0  0  0
  -17.4200  -26.6671   21.4030 H   0  0  0  0  0  0
  -18.0335  -26.0069   22.9023 H   0  0  0  0  0  0
  -19.7937  -30.7270   24.2269 H   0  0  0  0  0  0
  -17.5016  -31.6267   24.5164 H   0  0  0  0  0  0
  -15.5352  -30.2988   23.7651 H   0  0  0  0  0  0
  -15.8672  -28.0822   22.7068 H   0  0  0  0  0  0
  -24.5898  -30.7080   25.7780 H   0  0  0  0  0  0
  -24.8923  -32.2892   26.4885 H   0  0  0  0  0  0
  -25.8050  -30.8895   27.0226 H   0  0  0  0  0  0
  -26.2907  -29.6762   24.1207 H   0  0  0  0  0  0
  -27.4029  -29.7264   25.4687 H   0  0  0  0  0  0
  -27.8779  -30.4291   23.9407 H   0  0  0  0  0  0
  -27.2666  -33.3618   26.2077 H   0  0  0  0  0  0
  -28.3864  -32.6881   25.0327 H   0  0  0  0  0  0
  -28.0722  -31.8443   26.5414 H   0  0  0  0  0  0
  -28.2599  -38.0100   24.7509 H   0  0  0  0  0  0
  -28.1073  -36.2631   24.6294 H   0  0  0  0  0  0
  -27.2298  -37.1456   25.8868 H   0  0  0  0  0  0
  -20.9367  -29.8773   21.6895 H   0  0  0  0  0  0
  -26.0176  -38.2855   24.1401 H   0  0  0  0  0  0
  -32.0671  -17.3700   20.6429 H   0  0  0  0  0  0
  -32.0626  -19.8258   20.5039 H   0  0  0  0  0  0
  -27.7601  -19.8494   20.4918 H   0  0  0  0  0  0
  -29.6470  -24.1729   21.3364 H   0  0  0  0  0  0
  -30.0761  -24.1424   19.6539 H   0  0  0  0  0  0
  -27.2506  -24.7435   20.6531 H   0  0  0  0  0  0
  -27.7948  -24.8125   18.9934 H   0  0  0  0  0  0
  -28.4094  -22.1808   19.3285 H   0  0  0  0  0  0
  -28.1566  -22.1770   21.0583 H   0  0  0  0  0  0
  -28.8555  -15.3945   21.0126 H   0  0  0  0  0  0
  1 25  1  0  0  0
  1 30  2  0  0  0
  1 80  1  0  0  0
  2  3  1  0  0  0
  2 25  1  0  0  0
  2 83  1  0  0  0
  2 84  1  0  0  0
  3  4  1  0  0  0
  3 85  1  0  0  0
  3 86  1  0  0  0
  4  5  1  0  0  0
  4 87  1  0  0  0
  4 88  1  0  0  0
  5  6  1  0  0  0
  5 26  1  0  0  0
  5 89  1  0  0  0
  6 25  1  0  0  0
  6 90  1  0  0  0
  6 91  1  0  0  0
  7  8  2  0  0  0
  7 26  1  0  0  0
  7 29  1  0  0  0
  8  9  1  0  0  0
  8 22  1  0  0  0
  9 10  1  0  0  0
  9 27  2  0  0  0
 10 11  2  0  0  0
 10 15  1  0  0  0
 11 12  1  0  0  0
 11 92  1  0  0  0
 12 13  2  0  0  0
 12 93  1  0  0  0
 13 14  1  0  0  0
 13 31  1  0  0  0
 14 15  2  0  0  0
 14 94  1  0  0  0
 15 95  1  0  0  0
 16 17  2  0  0  0
 16 21  1  0  0  0
 16 31  1  0  0  0
 17 18  1  0  0  0
 17 96  1  0  0  0
 18 19  2  0  0  0
 18 97  1  0  0  0
 19 20  1  0  0  0
 19 24  1  0  0  0
 20 21  2  0  0  0
 20 98  1  0  0  0
 21 23  1  0  0  0
 22 28  1  0  0  0
 22 32  2  0  0  0
 26 27  1  0  0  0
 28 99  1  0  0  0
 28100  1  0  0  0
 29101  1  0  0  0
 29102  1  0  0  0
 33 34  1  0  0  0
 33 66  1  0  0  0
 33 70  2  0  0  0
 34 36  1  0  0  0
 34 59  1  0  0  0
 34103  1  0  0  0
 35 44  2  0  0  0
 35 45  1  0  0  0
 35 68  1  0  0  0
 36 56  1  0  0  0
 36104  1  0  0  0
 37 39  1  0  0  0
 37 47  1  0  0  0
 37 66  1  0  0  0
 37105  1  0  0  0
 38 43  2  0  0  0
 38 46  1  0  0  0
 38 47  1  0  0  0
 39 64  1  0  0  0
 39 67  2  0  0  0
 40 52  1  0  0  0
 40 53  2  0  0  0
 40 58  1  0  0  0
 41106  1  0  0  0
 41107  1  0  0  0
 41108  1  0  0  0
 41 48  1  0  0  0
 42 43  1  0  0  0
 42 66  1  0  0  0
 42109  1  0  0  0
 42110  1  0  0  0
 43 44  1  0  0  0
 44111  1  0  0  0
 45 46  2  0  0  0
 45112  1  0  0  0
 46113  1  0  0  0
 47114  1  0  0  0
 47115  1  0  0  0
 48 56  1  0  0  0
 48 65  1  0  0  0
 48116  1  0  0  0
 49 50  1  0  0  0
 49 53  1  0  0  0
 49 64  1  0  0  0
 49117  1  0  0  0
 50 51  1  0  0  0
 50118  1  0  0  0
 50119  1  0  0  0
 51 52  1  0  0  0
 51120  1  0  0  0
 51121  1  0  0  0
 52122  1  0  0  0
 52123  1  0  0  0
 53 54  1  0  0  0
 54 55  2  0  0  0
 54124  1  0  0  0
 55 57  1  0  0  0
 55125  1  0  0  0
 56 69  2  0  0  0
 57 58  2  0  0  0
 57126  1  0  0  0
 58127  1  0  0  0
 59 60  1  0  0  0
 59 61  1  0  0  0
 59 62  1  0  0  0
 60128  1  0  0  0
 60129  1  0  0  0
 60130  1  0  0  0
 61131  1  0  0  0
 61132  1  0  0  0
 61133  1  0  0  0
 62134  1  0  0  0
 62135  1  0  0  0
 62136  1  0  0  0
 63 65  1  0  0  0
 63137  1  0  0  0
 63138  1  0  0  0
 63139  1  0  0  0
 64140  1  0  0  0
 65141  1  0  0  0
 68 78  1  0  0  0
 71 72  2  0  0  0
 71 74  1  0  0  0
 71142  1  0  0  0
 72 75  1  0  0  0
 72143  1  0  0  0
 73 75  2  0  0  0
 73 76  1  0  0  0
 73144  1  0  0  0
 74 76  2  0  0  0
 74 80  1  0  0  0
 75 81  1  0  0  0
 76 82  1  0  0  0
 77 78  1  0  0  0
 77 79  1  0  0  0
 77145  1  0  0  0
 77146  1  0  0  0
 78147  1  0  0  0
 78148  1  0  0  0
 79 81  1  0  0  0
 79149  1  0  0  0
 79150  1  0  0  0
 80151  1  0  0  0
M  ISO  4   1 100  68 101  78 101  80 100
M  END
> <chiral flag>
0

> <version>
0

> <s_m_source_file>
/data/baiqing/PycharmProjects/Reinvent-master-3.2/result/LINK_invent/BTK/process_docking_weight1_custom_sum_contain_oxygen_bond_distance_aromatic_linkinvent_7_9_3/rearranged_h_0006.sdf

> <i_m_source_file_index>
27

> <r_mmod_Potential_Energy-OPLS-2005>
8.48562717437744

> <r_mmod_Stretch_Energy-OPLS-2005>
78.0414810180664

> <r_mmod_Bend_Energy-OPLS-2005>
145.352081298828

> <r_mmod_Torsional_Energy-OPLS-2005>
209.226409912109

> <r_mmod_Improper_Torsional_Energy-OPLS-2005>
4.5839262008667

> <r_mmod_Van_der_Waal_Energy-OPLS-2005>
144.377670288086

> <r_mmod_Electrostatic_Energy-OPLS-2005>
-422.268218994141

> <r_mmod_Solvation_Energy-OPLS-2005>
-201.274765014648

> <b_mmod_Minimization_Converged-OPLS-2005>
0

> <r_mmod_RMS_Derivative-OPLS-2005>
0.238112762570381

$$$$
27
                    3D
 Structure written by MMmdl.
148156  0  0  1  0            999 V2000
  -30.4277  -15.3407   20.3178 C   0  0  0  0  0  0
  -30.4075  -12.8512   19.5529 C   0  0  0  0  0  0
  -29.5345  -12.6302   18.2926 C   0  0  0  0  0  0
  -28.0841  -12.3415   18.7090 C   0  0  0  0  0  0
  -27.5935  -13.3050   19.8188 C   0  0  2  0  0  0
  -28.6189  -13.5130   20.9563 C   0  0  0  0  0  0
  -25.2343  -13.8261   20.6027 C   0  0  0  0  0  0
  -24.1758  -13.0371   20.9406 C   0  0  0  0  0  0
  -24.6414  -11.6901   20.8718 C   0  0  0  0  0  0
  -23.9138  -10.4223   21.0289 C   0  0  0  0  0  0
  -24.3665   -9.4184   21.9120 C   0  0  0  0  0  0
  -23.6311   -8.2242   22.0738 C   0  0  0  0  0  0
  -22.4305   -8.0251   21.3511 C   0  0  0  0  0  0
  -21.9946   -9.0187   20.4587 C   0  0  0  0  0  0
  -22.7292  -10.2060   20.2945 C   0  0  0  0  0  0
  -21.6847   -6.0748   22.5284 C   0  0  0  0  0  0
  -21.4032   -6.5672   23.8188 C   0  0  0  0  0  0
  -21.3705   -5.6858   24.9185 C   0  0  0  0  0  0
  -21.6043   -4.3110   24.7266 C   0  0  0  0  0  0
  -21.8801   -3.8172   23.4389 C   0  0  0  0  0  0
  -21.9186   -4.6967   22.3416 C   0  0  0  0  0  0
  -22.7763  -13.5045   21.2088 C   0  0  0  0  0  0
  -22.1680   -4.2144   21.1010 F   0  0  0  0  0  0
  -21.5641   -3.4616   25.7803 F   0  0  0  0  0  0
  -29.8472  -14.0285   20.3230 N   0  0  0  0  0  0
  -26.2735  -12.9626   20.3143 N   0  0  0  0  0  0
  -25.9349  -11.6695   20.5607 N   0  0  0  0  0  0
  -22.0481  -12.7905   22.0566 N   0  0  0  0  0  0
  -25.3943  -15.2074   20.5054 N   0  0  0  0  0  0
  -31.6516  -15.2646   20.1211 O   0  0  0  0  0  0
  -21.6628   -6.8893   21.4234 O   0  0  0  0  0  0
  -22.3400  -14.5368   20.7019 O   0  0  0  0  0  0
  -24.6658  -31.8148   23.1651 C   0  0  0  0  0  0
  -25.9293  -32.4564   23.8117 C   0  0  1  0  0  0
  -27.2105  -26.8705   20.1917 C   0  0  0  0  0  0
  -25.5919  -33.8392   24.2025 N   0  0  0  0  0  0
  -23.4835  -30.4270   21.5168 C   0  0  2  0  0  0
  -24.9330  -28.7950   20.1202 C   0  0  0  0  0  0
  -22.7681  -29.4402   22.4780 C   0  0  0  0  0  0
  -18.0315  -28.1393   22.8461 C   0  0  0  0  0  0
  -24.1512  -36.7262   23.2665 C   0  0  0  0  0  0
  -26.0548  -30.6059   21.3951 C   0  0  0  0  0  0
  -26.1219  -29.1869   20.7488 C   0  0  0  0  0  0
  -27.2563  -28.2462   20.7589 C   0  0  0  0  0  0
  -25.9899  -26.6434   19.5135 C   0  0  0  0  0  0
  -24.8950  -27.5457   19.4826 C   0  0  0  0  0  0
  -23.7238  -29.7296   20.1490 C   0  0  0  0  0  0
  -25.4150  -36.2978   24.0297 C   0  0  1  0  0  0
  -20.5940  -28.3722   23.1187 C   0  0  2  0  0  0
  -20.6783  -26.9403   22.5407 C   0  0  0  0  0  0
  -19.5762  -26.6351   21.5214 C   0  0  0  0  0  0
  -18.1948  -26.7927   22.1621 C   0  0  0  0  0  0
  -19.1575  -28.8882   23.2818 C   0  0  0  0  0  0
  -18.9492  -30.1478   23.8840 C   0  0  0  0  0  0
  -17.6488  -30.6587   24.0543 C   0  0  0  0  0  0
  -25.9064  -34.9347   23.4995 C   0  0  0  0  0  0
  -16.5376  -29.9071   23.6340 C   0  0  0  0  0  0
  -16.7301  -28.6496   23.0356 C   0  0  0  0  0  0
  -26.4522  -31.6540   25.0686 C   0  0  0  0  0  0
  -25.3641  -31.3808   26.1351 C   0  0  0  0  0  0
  -27.0428  -30.2910   24.6427 C   0  0  0  0  0  0
  -27.5963  -32.4393   25.7522 C   0  0  0  0  0  0
  -27.5555  -37.1846   24.8486 C   0  0  0  0  0  0
  -21.4351  -29.3045   22.3558 N   0  0  0  0  0  0
  -26.4313  -37.3687   23.9348 N   0  0  0  0  0  0
  -24.7571  -30.9793   22.0781 N   0  0  0  0  0  0
  -23.4204  -28.7950   23.3020 O   0  0  0  0  0  0
  -28.2126  -25.7477   20.2378 O   0  0  0  0  0  0
  -26.5702  -34.8875   22.4616 O   0  0  0  0  0  0
  -23.5717  -32.1134   23.6728 O   0  0  0  0  0  0
  -30.9594  -17.7985   18.6583 C   0  0  0  0  0  0
  -31.9933  -19.9315   18.4179 C   0  0  0  0  0  0
  -30.1321  -18.1725   19.7569 C   0  0  0  0  0  0
  -29.9410  -19.7849   19.8766 C   0  0  0  0  0  0
  -31.8532  -18.6257   17.9894 C   0  0  0  0  0  0
  -31.0852  -20.4725   19.3339 C   0  0  0  0  0  0
  -27.9704  -24.0855   20.3138 C   0  0  0  0  0  0
  -28.9989  -22.5758   20.1269 C   0  0  0  0  0  0
  -29.7362  -16.6928   20.3431 N   0  0  0  0  0  0
  -28.9452  -20.8898   20.3371 O   0  0  0  0  0  0
  -32.6399  -18.1349   16.9992 F   0  0  0  0  0  0
  -31.3868  -21.7401   19.6876 F   0  0  0  0  0  0
  -31.4460  -13.0107   19.2613 H   0  0  0  0  0  0
  -30.4249  -11.9503   20.1671 H   0  0  0  0  0  0
  -29.9296  -11.8177   17.6863 H   0  0  0  0  0  0
  -29.5614  -13.5290   17.6705 H   0  0  0  0  0  0
  -28.0429  -11.3105   19.0670 H   0  0  0  0  0  0
  -27.4301  -12.3934   17.8392 H   0  0  0  0  0  0
  -27.4796  -14.2685   19.3187 H   0  0  0  0  0  0
  -28.7949  -12.5938   21.5162 H   0  0  0  0  0  0
  -28.2395  -14.2390   21.6744 H   0  0  0  0  0  0
  -25.2766   -9.5705   22.4737 H   0  0  0  0  0  0
  -24.0029   -7.4706   22.7546 H   0  0  0  0  0  0
  -21.0822   -8.8714   19.8953 H   0  0  0  0  0  0
  -22.3725  -10.9609   19.6094 H   0  0  0  0  0  0
  -21.2034   -7.6194   23.9704 H   0  0  0  0  0  0
  -21.1544   -6.0613   25.9081 H   0  0  0  0  0  0
  -22.0512   -2.7609   23.2905 H   0  0  0  0  0  0
  -22.4079  -11.9530   22.4935 H   0  0  0  0  0  0
  -21.1096  -13.0889   22.2809 H   0  0  0  0  0  0
  -24.7497  -15.8214   20.9925 H   0  0  0  0  0  0
  -26.2346  -15.6769   20.2009 H   0  0  0  0  0  0
  -26.7385  -32.5081   23.0843 H   0  0  0  0  0  0
  -24.9970  -33.9444   25.0106 H   0  0  0  0  0  0
  -22.7988  -31.2608   21.3371 H   0  0  0  0  0  0
  -23.3700  -35.9680   23.3382 H   0  0  0  0  0  0
  -24.3540  -36.8850   22.2063 H   0  0  0  0  0  0
  -23.7375  -37.6518   23.6676 H   0  0  0  0  0  0
  -26.2273  -31.3312   20.5974 H   0  0  0  0  0  0
  -26.9186  -30.6764   22.0442 H   0  0  0  0  0  0
  -28.1548  -28.5438   21.2808 H   0  0  0  0  0  0
  -25.8430  -25.6918   19.0194 H   0  0  0  0  0  0
  -23.9876  -27.2385   18.9790 H   0  0  0  0  0  0
  -23.8862  -30.4836   19.3792 H   0  0  0  0  0  0
  -22.8290  -29.1893   19.8341 H   0  0  0  0  0  0
  -25.1392  -36.1797   25.0798 H   0  0  0  0  0  0
  -21.0035  -28.3329   24.1302 H   0  0  0  0  0  0
  -20.5644  -26.2352   23.3662 H   0  0  0  0  0  0
  -21.6655  -26.7383   22.1240 H   0  0  0  0  0  0
  -19.6924  -25.6247   21.1284 H   0  0  0  0  0  0
  -19.6694  -27.3124   20.6720 H   0  0  0  0  0  0
  -17.4228  -26.6646   21.4029 H   0  0  0  0  0  0
  -18.0350  -26.0092   22.9035 H   0  0  0  0  0  0
  -19.7962  -30.7310   24.2179 H   0  0  0  0  0  0
  -17.5027  -31.6255   24.5161 H   0  0  0  0  0  0
  -15.5363  -30.2944   23.7700 H   0  0  0  0  0  0
  -15.8698  -28.0790   22.7092 H   0  0  0  0  0  0
  -24.5764  -30.7233   25.7661 H   0  0  0  0  0  0
  -24.8913  -32.3043   26.4721 H   0  0  0  0  0  0
  -25.7871  -30.8979   27.0171 H   0  0  0  0  0  0
  -26.3094  -29.6593   24.1415 H   0  0  0  0  0  0
  -27.3924  -29.7296   25.5099 H   0  0  0  0  0  0
  -27.9042  -30.4118   23.9862 H   0  0  0  0  0  0
  -27.2414  -33.3654   26.2078 H   0  0  0  0  0  0
  -28.3791  -32.7054   25.0402 H   0  0  0  0  0  0
  -28.0619  -31.8564   26.5483 H   0  0  0  0  0  0
  -28.2710  -37.9991   24.7276 H   0  0  0  0  0  0
  -28.0901  -36.2512   24.6660 H   0  0  0  0  0  0
  -27.2211  -37.1925   25.8870 H   0  0  0  0  0  0
  -20.9581  -29.8778   21.6728 H   0  0  0  0  0  0
  -26.0170  -38.2796   24.1124 H   0  0  0  0  0  0
  -30.9949  -16.7850   18.2885 H   0  0  0  0  0  0
  -32.7791  -20.5431   17.9976 H   0  0  0  0  0  0
  -27.5878  -23.9786   21.3276 H   0  0  0  0  0  0
  -27.0920  -23.9045   19.6973 H   0  0  0  0  0  0
  -29.8194  -22.8460   20.7908 H   0  0  0  0  0  0
  -29.3678  -22.6855   19.1055 H   0  0  0  0  0  0
  -28.7869  -16.6384   20.6811 H   0  0  0  0  0  0
  1 25  1  0  0  0
  1 30  2  0  0  0
  1 79  1  0  0  0
  2  3  1  0  0  0
  2 25  1  0  0  0
  2 83  1  0  0  0
  2 84  1  0  0  0
  3  4  1  0  0  0
  3 85  1  0  0  0
  3 86  1  0  0  0
  4  5  1  0  0  0
  4 87  1  0  0  0
  4 88  1  0  0  0
  5  6  1  0  0  0
  5 26  1  0  0  0
  5 89  1  0  0  0
  6 25  1  0  0  0
  6 90  1  0  0  0
  6 91  1  0  0  0
  7  8  2  0  0  0
  7 26  1  0  0  0
  7 29  1  0  0  0
  8  9  1  0  0  0
  8 22  1  0  0  0
  9 10  1  0  0  0
  9 27  2  0  0  0
 10 11  2  0  0  0
 10 15  1  0  0  0
 11 12  1  0  0  0
 11 92  1  0  0  0
 12 13  2  0  0  0
 12 93  1  0  0  0
 13 14  1  0  0  0
 13 31  1  0  0  0
 14 15  2  0  0  0
 14 94  1  0  0  0
 15 95  1  0  0  0
 16 17  2  0  0  0
 16 21  1  0  0  0
 16 31  1  0  0  0
 17 18  1  0  0  0
 17 96  1  0  0  0
 18 19  2  0  0  0
 18 97  1  0  0  0
 19 20  1  0  0  0
 19 24  1  0  0  0
 20 21  2  0  0  0
 20 98  1  0  0  0
 21 23  1  0  0  0
 22 28  1  0  0  0
 22 32  2  0  0  0
 26 27  1  0  0  0
 28 99  1  0  0  0
 28100  1  0  0  0
 29101  1  0  0  0
 29102  1  0  0  0
 33 34  1  0  0  0
 33 66  1  0  0  0
 33 70  2  0  0  0
 34 36  1  0  0  0
 34 59  1  0  0  0
 34103  1  0  0  0
 35 44  2  0  0  0
 35 45  1  0  0  0
 35 68  1  0  0  0
 36 56  1  0  0  0
 36104  1  0  0  0
 37 39  1  0  0  0
 37 47  1  0  0  0
 37 66  1  0  0  0
 37105  1  0  0  0
 38 43  2  0  0  0
 38 46  1  0  0  0
 38 47  1  0  0  0
 39 64  1  0  0  0
 39 67  2  0  0  0
 40 52  1  0  0  0
 40 53  2  0  0  0
 40 58  1  0  0  0
 41106  1  0  0  0
 41107  1  0  0  0
 41108  1  0  0  0
 41 48  1  0  0  0
 42 43  1  0  0  0
 42 66  1  0  0  0
 42109  1  0  0  0
 42110  1  0  0  0
 43 44  1  0  0  0
 44111  1  0  0  0
 45 46  2  0  0  0
 45112  1  0  0  0
 46113  1  0  0  0
 47114  1  0  0  0
 47115  1  0  0  0
 48 56  1  0  0  0
 48 65  1  0  0  0
 48116  1  0  0  0
 49 50  1  0  0  0
 49 53  1  0  0  0
 49 64  1  0  0  0
 49117  1  0  0  0
 50 51  1  0  0  0
 50118  1  0  0  0
 50119  1  0  0  0
 51 52  1  0  0  0
 51120  1  0  0  0
 51121  1  0  0  0
 52122  1  0  0  0
 52123  1  0  0  0
 53 54  1  0  0  0
 54 55  2  0  0  0
 54124  1  0  0  0
 55 57  1  0  0  0
 55125  1  0  0  0
 56 69  2  0  0  0
 57 58  2  0  0  0
 57126  1  0  0  0
 58127  1  0  0  0
 59 60  1  0  0  0
 59 61  1  0  0  0
 59 62  1  0  0  0
 60128  1  0  0  0
 60129  1  0  0  0
 60130  1  0  0  0
 61131  1  0  0  0
 61132  1  0  0  0
 61133  1  0  0  0
 62134  1  0  0  0
 62135  1  0  0  0
 62136  1  0  0  0
 63 65  1  0  0  0
 63137  1  0  0  0
 63138  1  0  0  0
 63139  1  0  0  0
 64140  1  0  0  0
 65141  1  0  0  0
 68 77  1  0  0  0
 71 73  2  0  0  0
 71 75  1  0  0  0
 71142  1  0  0  0
 72 75  2  0  0  0
 72 76  1  0  0  0
 72143  1  0  0  0
 73 74  1  0  0  0
 73 79  1  0  0  0
 74 76  2  0  0  0
 74 80  1  0  0  0
 75 81  1  0  0  0
 76 82  1  0  0  0
 77 78  1  0  0  0
 77144  1  0  0  0
 77145  1  0  0  0
 78 80  1  0  0  0
 78146  1  0  0  0
 78147  1  0  0  0
 79148  1  0  0  0
M  ISO  4   1 100  68 101  77 101  79 100
M  END
> <chiral flag>
0

> <version>
0

> <s_m_source_file>
/data/baiqing/PycharmProjects/Reinvent-master-3.2/result/LINK_invent/BTK/process_docking_weight1_custom_sum_contain_oxygen_bond_distance_aromatic_linkinvent_7_9_3/rearranged_h_0006.sdf

> <i_m_source_file_index>
28

> <r_mmod_Potential_Energy-OPLS-2005>
1780.06640625

> <r_mmod_Stretch_Energy-OPLS-2005>
776.955749511719

> <r_mmod_Bend_Energy-OPLS-2005>
586.865844726562

> <r_mmod_Torsional_Energy-OPLS-2005>
291.373016357422

> <r_mmod_Improper_Torsional_Energy-OPLS-2005>
4.77532482147217

> <r_mmod_Van_der_Waal_Energy-OPLS-2005>
158.292236328125

> <r_mmod_Electrostatic_Energy-OPLS-2005>
-359.276824951172

> <r_mmod_Solvation_Energy-OPLS-2005>
-217.04557800293

> <b_mmod_Minimization_Converged-OPLS-2005>
0

> <r_mmod_RMS_Derivative-OPLS-2005>
6.50402069091797

$$$$
28
                    3D
 Structure written by MMmdl.
151159  0  0  1  0            999 V2000
  -30.5078  -14.9126   20.4291 C   0  0  0  0  0  0
  -30.4550  -12.5587   19.4895 C   0  0  0  0  0  0
  -29.5261  -12.5209   18.2514 C   0  0  0  0  0  0
  -28.0560  -12.3143   18.6676 C   0  0  0  0  0  0
  -27.6385  -13.2339   19.8443 C   0  0  2  0  0  0
  -28.6832  -13.2117   20.9817 C   0  0  0  0  0  0
  -25.2504  -13.8178   20.5680 C   0  0  0  0  0  0
  -24.1805  -13.0432   20.9232 C   0  0  0  0  0  0
  -24.6397  -11.6909   20.8754 C   0  0  0  0  0  0
  -23.9069  -10.4289   21.0410 C   0  0  0  0  0  0
  -24.3618   -9.4202   21.9185 C   0  0  0  0  0  0
  -23.6291   -8.2238   22.0752 C   0  0  0  0  0  0
  -22.4272   -8.0280   21.3545 C   0  0  0  0  0  0
  -21.9911   -9.0256   20.4649 C   0  0  0  0  0  0
  -22.7242  -10.2134   20.3059 C   0  0  0  0  0  0
  -21.6853   -6.0731   22.5275 C   0  0  0  0  0  0
  -21.4014   -6.5634   23.8207 C   0  0  0  0  0  0
  -21.3658   -5.6789   24.9171 C   0  0  0  0  0  0
  -21.6044   -4.3052   24.7224 C   0  0  0  0  0  0
  -21.8819   -3.8144   23.4345 C   0  0  0  0  0  0
  -21.9194   -4.6960   22.3400 C   0  0  0  0  0  0
  -22.7824  -13.5217   21.1882 C   0  0  0  0  0  0
  -22.1664   -4.2145   21.0978 F   0  0  0  0  0  0
  -21.5629   -3.4537   25.7739 F   0  0  0  0  0  0
  -29.9671  -13.6310   20.3983 N   0  0  0  0  0  0
  -26.2922  -12.9384   20.3237 N   0  0  0  0  0  0
  -25.9326  -11.6531   20.5734 N   0  0  0  0  0  0
  -22.0469  -12.8210   22.0440 N   0  0  0  0  0  0
  -25.4173  -15.1893   20.4013 N   0  0  0  0  0  0
  -31.6973  -15.0557   20.1216 O   0  0  0  0  0  0
  -21.6637   -6.8877   21.4239 O   0  0  0  0  0  0
  -22.3513  -14.5519   20.6718 O   0  0  0  0  0  0
  -24.6426  -31.8461   23.1891 C   0  0  0  0  0  0
  -25.9206  -32.4703   23.8274 C   0  0  1  0  0  0
  -27.2217  -27.1522   20.1441 C   0  0  0  0  0  0
  -25.5958  -33.8509   24.2198 N   0  0  0  0  0  0
  -23.4448  -30.4656   21.5351 C   0  0  2  0  0  0
  -24.8940  -28.8959   20.1101 C   0  0  0  0  0  0
  -22.7564  -29.4556   22.4872 C   0  0  0  0  0  0
  -18.0311  -28.1402   22.8470 C   0  0  0  0  0  0
  -24.1489  -36.7247   23.2641 C   0  0  0  0  0  0
  -26.0000  -30.7242   21.3855 C   0  0  0  0  0  0
  -26.0722  -29.3376   20.7257 C   0  0  0  0  0  0
  -27.2368  -28.4832   20.7235 C   0  0  0  0  0  0
  -26.0132  -26.8081   19.4961 C   0  0  0  0  0  0
  -24.8773  -27.6437   19.4800 C   0  0  0  0  0  0
  -23.6697  -29.7957   20.1540 C   0  0  0  0  0  0
  -25.4124  -36.3035   24.0316 C   0  0  1  0  0  0
  -20.5919  -28.3722   23.1237 C   0  0  2  0  0  0
  -20.6785  -26.9427   22.5405 C   0  0  0  0  0  0
  -19.5763  -26.6391   21.5205 C   0  0  0  0  0  0
  -18.1947  -26.7943   22.1623 C   0  0  0  0  0  0
  -19.1566  -28.8884   23.2842 C   0  0  0  0  0  0
  -18.9486  -30.1481   23.8864 C   0  0  0  0  0  0
  -17.6481  -30.6593   24.0566 C   0  0  0  0  0  0
  -25.9073  -34.9412   23.5066 C   0  0  0  0  0  0
  -16.5373  -29.9085   23.6341 C   0  0  0  0  0  0
  -16.7296  -28.6511   23.0349 C   0  0  0  0  0  0
  -26.4525  -31.6569   25.0715 C   0  0  0  0  0  0
  -25.3714  -31.3768   26.1421 C   0  0  0  0  0  0
  -27.0387  -30.2968   24.6287 C   0  0  0  0  0  0
  -27.6070  -32.4324   25.7487 C   0  0  0  0  0  0
  -27.5577  -37.1779   24.8468 C   0  0  0  0  0  0
  -21.4259  -29.3050   22.3615 N   0  0  0  0  0  0
  -26.4284  -37.3752   23.9413 N   0  0  0  0  0  0
  -24.7156  -31.0328   22.0916 N   0  0  0  0  0  0
  -23.4212  -28.8108   23.3024 O   0  0  0  0  0  0
  -28.2811  -26.1761   20.2093 O   0  0  0  0  0  0
  -26.5656  -34.8908   22.4641 O   0  0  0  0  0  0
  -23.5549  -32.1334   23.7117 O   0  0  0  0  0  0
  -30.4981  -18.5519   20.3612 C   0  0  0  0  0  0
  -30.1892  -19.9880   20.2936 C   0  0  0  0  0  0
  -28.2011  -18.0862   20.5838 C   0  0  0  0  0  0
  -27.8880  -19.4943   20.5011 C   0  0  0  0  0  0
  -29.5071  -17.5122   20.5126 C   0  0  0  0  0  0
  -28.8570  -20.5410   20.3564 C   0  0  0  0  0  0
  -26.4237  -19.8906   20.5787 C   0  0  0  0  0  0
  -27.9856  -24.6570   20.0673 C   0  0  0  0  0  0
  -28.9726  -23.3093   20.2984 C   0  0  0  0  0  0
  -29.6169  -15.9892   20.6425 N   0  0  0  0  0  0
  -28.3469  -21.9125   20.2640 O   0  0  0  0  0  0
  -31.4864  -12.7322   19.1783 H   0  0  0  0  0  0
  -30.4552  -11.5952   20.0011 H   0  0  0  0  0  0
  -29.8364  -11.7263   17.5718 H   0  0  0  0  0  0
  -29.6212  -13.4531   17.6926 H   0  0  0  0  0  0
  -27.9426  -11.2703   18.9628 H   0  0  0  0  0  0
  -27.3936  -12.4616   17.8140 H   0  0  0  0  0  0
  -27.6165  -14.2440   19.4354 H   0  0  0  0  0  0
  -28.7612  -12.2149   21.4182 H   0  0  0  0  0  0
  -28.3866  -13.8760   21.7951 H   0  0  0  0  0  0
  -25.2766   -9.5673   22.4757 H   0  0  0  0  0  0
  -24.0002   -7.4623   22.7465 H   0  0  0  0  0  0
  -21.0845   -8.8772   19.8950 H   0  0  0  0  0  0
  -22.3698  -10.9671   19.6166 H   0  0  0  0  0  0
  -21.2006   -7.6141   23.9709 H   0  0  0  0  0  0
  -21.1480   -6.0519   25.9073 H   0  0  0  0  0  0
  -22.0601   -2.7608   23.2846 H   0  0  0  0  0  0
  -22.4090  -11.9880   22.4841 H   0  0  0  0  0  0
  -21.1080  -13.1223   22.2634 H   0  0  0  0  0  0
  -24.6324  -15.8270   20.4786 H   0  0  0  0  0  0
  -26.2202  -15.6046   19.9488 H   0  0  0  0  0  0
  -26.7271  -32.5312   23.1001 H   0  0  0  0  0  0
  -25.0091  -33.9622   25.0337 H   0  0  0  0  0  0
  -22.7459  -31.2905   21.3823 H   0  0  0  0  0  0
  -23.3759  -35.9569   23.3295 H   0  0  0  0  0  0
  -24.3573  -36.8888   22.2058 H   0  0  0  0  0  0
  -23.7234  -37.6437   23.6678 H   0  0  0  0  0  0
  -26.1562  -31.4800   20.6147 H   0  0  0  0  0  0
  -26.8703  -30.7725   22.0285 H   0  0  0  0  0  0
  -28.1348  -28.8186   21.2235 H   0  0  0  0  0  0
  -25.9055  -25.8516   19.0090 H   0  0  0  0  0  0
  -23.9787  -27.2988   18.9876 H   0  0  0  0  0  0
  -23.8038  -30.5700   19.3977 H   0  0  0  0  0  0
  -22.7838  -29.2374   19.8451 H   0  0  0  0  0  0
  -25.1311  -36.1858   25.0807 H   0  0  0  0  0  0
  -21.0017  -28.3310   24.1357 H   0  0  0  0  0  0
  -20.5676  -26.2334   23.3623 H   0  0  0  0  0  0
  -21.6653  -26.7430   22.1211 H   0  0  0  0  0  0
  -19.6916  -25.6295   21.1252 H   0  0  0  0  0  0
  -19.6697  -27.3186   20.6721 H   0  0  0  0  0  0
  -17.4216  -26.6684   21.4031 H   0  0  0  0  0  0
  -18.0349  -26.0094   22.9030 H   0  0  0  0  0  0
  -19.7959  -30.7305   24.2218 H   0  0  0  0  0  0
  -17.5036  -31.6269   24.5176 H   0  0  0  0  0  0
  -15.5373  -30.2976   23.7684 H   0  0  0  0  0  0
  -15.8697  -28.0825   22.7073 H   0  0  0  0  0  0
  -24.5878  -30.7127   25.7751 H   0  0  0  0  0  0
  -24.8915  -32.2959   26.4802 H   0  0  0  0  0  0
  -25.8008  -30.8972   27.0227 H   0  0  0  0  0  0
  -26.3005  -29.6690   24.1287 H   0  0  0  0  0  0
  -27.3999  -29.7272   25.4858 H   0  0  0  0  0  0
  -27.8910  -30.4212   23.9605 H   0  0  0  0  0  0
  -27.2688  -33.3652   26.2011 H   0  0  0  0  0  0
  -28.3905  -32.6841   25.0327 H   0  0  0  0  0  0
  -28.0701  -31.8475   26.5446 H   0  0  0  0  0  0
  -28.2596  -38.0074   24.7517 H   0  0  0  0  0  0
  -28.1072  -36.2607   24.6291 H   0  0  0  0  0  0
  -27.2295  -37.1428   25.8870 H   0  0  0  0  0  0
  -20.9471  -29.8758   21.6788 H   0  0  0  0  0  0
  -26.0150  -38.2817   24.1421 H   0  0  0  0  0  0
  -31.5364  -18.2579   20.3035 H   0  0  0  0  0  0
  -31.0155  -20.6750   20.1771 H   0  0  0  0  0  0
  -27.3711  -17.4062   20.7091 H   0  0  0  0  0  0
  -25.7651  -19.0220   20.5604 H   0  0  0  0  0  0
  -26.1540  -20.5279   19.7361 H   0  0  0  0  0  0
  -26.2286  -20.4418   21.4986 H   0  0  0  0  0  0
  -27.1285  -24.4868   20.7197 H   0  0  0  0  0  0
  -27.6022  -24.5305   19.0556 H   0  0  0  0  0  0
  -29.4624  -23.4098   21.2670 H   0  0  0  0  0  0
  -29.7733  -23.3330   19.5591 H   0  0  0  0  0  0
  -28.7227  -15.5870   20.8772 H   0  0  0  0  0  0
  1 25  1  0  0  0
  1 30  2  0  0  0
  1 80  1  0  0  0
  2  3  1  0  0  0
  2 25  1  0  0  0
  2 82  1  0  0  0
  2 83  1  0  0  0
  3  4  1  0  0  0
  3 84  1  0  0  0
  3 85  1  0  0  0
  4  5  1  0  0  0
  4 86  1  0  0  0
  4 87  1  0  0  0
  5  6  1  0  0  0
  5 26  1  0  0  0
  5 88  1  0  0  0
  6 25  1  0  0  0
  6 89  1  0  0  0
  6 90  1  0  0  0
  7  8  2  0  0  0
  7 26  1  0  0  0
  7 29  1  0  0  0
  8  9  1  0  0  0
  8 22  1  0  0  0
  9 10  1  0  0  0
  9 27  2  0  0  0
 10 11  2  0  0  0
 10 15  1  0  0  0
 11 12  1  0  0  0
 11 91  1  0  0  0
 12 13  2  0  0  0
 12 92  1  0  0  0
 13 14  1  0  0  0
 13 31  1  0  0  0
 14 15  2  0  0  0
 14 93  1  0  0  0
 15 94  1  0  0  0
 16 17  2  0  0  0
 16 21  1  0  0  0
 16 31  1  0  0  0
 17 18  1  0  0  0
 17 95  1  0  0  0
 18 19  2  0  0  0
 18 96  1  0  0  0
 19 20  1  0  0  0
 19 24  1  0  0  0
 20 21  2  0  0  0
 20 97  1  0  0  0
 21 23  1  0  0  0
 22 28  1  0  0  0
 22 32  2  0  0  0
 26 27  1  0  0  0
 28 98  1  0  0  0
 28 99  1  0  0  0
 29100  1  0  0  0
 29101  1  0  0  0
 33 34  1  0  0  0
 33 66  1  0  0  0
 33 70  2  0  0  0
 34 36  1  0  0  0
 34 59  1  0  0  0
 34102  1  0  0  0
 35 44  2  0  0  0
 35 45  1  0  0  0
 35 68  1  0  0  0
 36 56  1  0  0  0
 36103  1  0  0  0
 37 39  1  0  0  0
 37 47  1  0  0  0
 37 66  1  0  0  0
 37104  1  0  0  0
 38 43  2  0  0  0
 38 46  1  0  0  0
 38 47  1  0  0  0
 39 64  1  0  0  0
 39 67  2  0  0  0
 40 52  1  0  0  0
 40 53  2  0  0  0
 40 58  1  0  0  0
 41105  1  0  0  0
 41106  1  0  0  0
 41107  1  0  0  0
 41 48  1  0  0  0
 42 43  1  0  0  0
 42 66  1  0  0  0
 42108  1  0  0  0
 42109  1  0  0  0
 43 44  1  0  0  0
 44110  1  0  0  0
 45 46  2  0  0  0
 45111  1  0  0  0
 46112  1  0  0  0
 47113  1  0  0  0
 47114  1  0  0  0
 48 56  1  0  0  0
 48 65  1  0  0  0
 48115  1  0  0  0
 49 50  1  0  0  0
 49 53  1  0  0  0
 49 64  1  0  0  0
 49116  1  0  0  0
 50 51  1  0  0  0
 50117  1  0  0  0
 50118  1  0  0  0
 51 52  1  0  0  0
 51119  1  0  0  0
 51120  1  0  0  0
 52121  1  0  0  0
 52122  1  0  0  0
 53 54  1  0  0  0
 54 55  2  0  0  0
 54123  1  0  0  0
 55 57  1  0  0  0
 55124  1  0  0  0
 56 69  2  0  0  0
 57 58  2  0  0  0
 57125  1  0  0  0
 58126  1  0  0  0
 59 60  1  0  0  0
 59 61  1  0  0  0
 59 62  1  0  0  0
 60127  1  0  0  0
 60128  1  0  0  0
 60129  1  0  0  0
 61130  1  0  0  0
 61131  1  0  0  0
 61132  1  0  0  0
 62133  1  0  0  0
 62134  1  0  0  0
 62135  1  0  0  0
 63 65  1  0  0  0
 63136  1  0  0  0
 63137  1  0  0  0
 63138  1  0  0  0
 64139  1  0  0  0
 65140  1  0  0  0
 68 78  1  0  0  0
 71 72  2  0  0  0
 71 75  1  0  0  0
 71141  1  0  0  0
 72 76  1  0  0  0
 72142  1  0  0  0
 73 74  1  0  0  0
 73 75  2  0  0  0
 73143  1  0  0  0
 74 76  2  0  0  0
 74 77  1  0  0  0
 75 80  1  0  0  0
 76 81  1  0  0  0
 77144  1  0  0  0
 77145  1  0  0  0
 77146  1  0  0  0
 78 79  1  0  0  0
 78147  1  0  0  0
 78148  1  0  0  0
 79 81  1  0  0  0
 79149  1  0  0  0
 79150  1  0  0  0
 80151  1  0  0  0
M  ISO  4   1 100  68 101  78 101  80 100
M  END
> <chiral flag>
0

> <version>
0

> <s_m_source_file>
/data/baiqing/PycharmProjects/Reinvent-master-3.2/result/LINK_invent/BTK/process_docking_weight1_custom_sum_contain_oxygen_bond_distance_aromatic_linkinvent_7_9_3/rearranged_h_0006.sdf

> <i_m_source_file_index>
29

> <r_mmod_Potential_Energy-OPLS-2005>
449.871917724609

> <r_mmod_Stretch_Energy-OPLS-2005>
217.125106811523

> <r_mmod_Bend_Energy-OPLS-2005>
303.068023681641

> <r_mmod_Torsional_Energy-OPLS-2005>
211.717910766602

> <r_mmod_Improper_Torsional_Energy-OPLS-2005>
4.76985454559326

> <r_mmod_Van_der_Waal_Energy-OPLS-2005>
131.463577270508

> <r_mmod_Electrostatic_Energy-OPLS-2005>
-380.574035644531

> <r_mmod_Solvation_Energy-OPLS-2005>
-211.898544311523

> <b_mmod_Minimization_Converged-OPLS-2005>
0

> <r_mmod_RMS_Derivative-OPLS-2005>
1.00794219970703

$$$$
29
                    3D
 Structure written by MMmdl.
162170  0  0  1  0            999 V2000
  -30.6352  -14.6916   20.4673 C   0  0  0  0  0  0
  -30.4301  -12.4207   19.4759 C   0  0  0  0  0  0
  -29.5090  -12.5000   18.2390 C   0  0  0  0  0  0
  -28.0338  -12.3287   18.6485 C   0  0  0  0  0  0
  -27.6441  -13.2274   19.8527 C   0  0  2  0  0  0
  -28.6867  -13.1440   20.9911 C   0  0  0  0  0  0
  -25.2504  -13.8202   20.5667 C   0  0  0  0  0  0
  -24.1785  -13.0447   20.9177 C   0  0  0  0  0  0
  -24.6371  -11.6932   20.8732 C   0  0  0  0  0  0
  -23.9050  -10.4309   21.0391 C   0  0  0  0  0  0
  -24.3608   -9.4223   21.9161 C   0  0  0  0  0  0
  -23.6288   -8.2248   22.0735 C   0  0  0  0  0  0
  -22.4273   -8.0272   21.3533 C   0  0  0  0  0  0
  -21.9906   -9.0240   20.4639 C   0  0  0  0  0  0
  -22.7220  -10.2131   20.3045 C   0  0  0  0  0  0
  -21.6858   -6.0726   22.5268 C   0  0  0  0  0  0
  -21.4015   -6.5627   23.8205 C   0  0  0  0  0  0
  -21.3664   -5.6779   24.9159 C   0  0  0  0  0  0
  -21.6048   -4.3042   24.7215 C   0  0  0  0  0  0
  -21.8822   -3.8132   23.4338 C   0  0  0  0  0  0
  -21.9195   -4.6947   22.3395 C   0  0  0  0  0  0
  -22.7811  -13.5230   21.1843 C   0  0  0  0  0  0
  -22.1658   -4.2132   21.0971 F   0  0  0  0  0  0
  -21.5638   -3.4532   25.7731 F   0  0  0  0  0  0
  -30.0005  -13.4738   20.4221 N   0  0  0  0  0  0
  -26.2933  -12.9401   20.3273 N   0  0  0  0  0  0
  -25.9301  -11.6549   20.5745 N   0  0  0  0  0  0
  -22.0465  -12.8236   22.0429 N   0  0  0  0  0  0
  -25.4217  -15.1918   20.4062 N   0  0  0  0  0  0
  -31.8048  -14.8013   20.0936 O   0  0  0  0  0  0
  -21.6635   -6.8869   21.4237 O   0  0  0  0  0  0
  -22.3483  -14.5509   20.6662 O   0  0  0  0  0  0
  -24.6280  -31.8587   23.1992 C   0  0  0  0  0  0
  -25.9139  -32.4754   23.8309 C   0  0  1  0  0  0
  -27.2233  -27.2942   20.1194 C   0  0  0  0  0  0
  -25.5964  -33.8554   24.2239 N   0  0  0  0  0  0
  -23.4215  -30.4833   21.5406 C   0  0  2  0  0  0
  -24.8683  -28.9354   20.1066 C   0  0  0  0  0  0
  -22.7476  -29.4630   22.4894 C   0  0  0  0  0  0
  -18.0297  -28.1400   22.8489 C   0  0  0  0  0  0
  -24.1501  -36.7285   23.2633 C   0  0  0  0  0  0
  -25.9640  -30.7784   21.3774 C   0  0  0  0  0  0
  -26.0362  -29.4044   20.7190 C   0  0  0  0  0  0
  -27.2124  -28.5936   20.7216 C   0  0  0  0  0  0
  -26.0334  -26.8922   19.4672 C   0  0  0  0  0  0
  -24.8699  -27.6848   19.4713 C   0  0  0  0  0  0
  -23.6377  -29.8184   20.1551 C   0  0  0  0  0  0
  -25.4126  -36.3050   24.0303 C   0  0  1  0  0  0
  -20.5897  -28.3713   23.1275 C   0  0  2  0  0  0
  -20.6797  -26.9437   22.5412 C   0  0  0  0  0  0
  -19.5767  -26.6395   21.5225 C   0  0  0  0  0  0
  -18.1939  -26.7943   22.1627 C   0  0  0  0  0  0
  -19.1551  -28.8875   23.2875 C   0  0  0  0  0  0
  -18.9472  -30.1475   23.8894 C   0  0  0  0  0  0
  -17.6472  -30.6596   24.0578 C   0  0  0  0  0  0
  -25.9067  -34.9430   23.5062 C   0  0  0  0  0  0
  -16.5363  -29.9101   23.6332 C   0  0  0  0  0  0
  -16.7287  -28.6519   23.0350 C   0  0  0  0  0  0
  -26.4517  -31.6577   25.0693 C   0  0  0  0  0  0
  -25.3736  -31.3781   26.1417 C   0  0  0  0  0  0
  -27.0372  -30.2985   24.6199 C   0  0  0  0  0  0
  -27.6037  -32.4343   25.7492 C   0  0  0  0  0  0
  -27.5573  -37.1794   24.8453 C   0  0  0  0  0  0
  -21.4190  -29.3057   22.3646 N   0  0  0  0  0  0
  -26.4291  -37.3753   23.9394 N   0  0  0  0  0  0
  -24.6893  -31.0576   22.0953 N   0  0  0  0  0  0
  -23.4192  -28.8179   23.2986 O   0  0  0  0  0  0
  -28.3318  -26.4234   20.1933 O   0  0  0  0  0  0
  -26.5613  -34.8910   22.4620 O   0  0  0  0  0  0
  -23.5441  -32.1424   23.7307 O   0  0  0  0  0  0
  -32.7475  -23.1111   20.8706 C   0  0  0  0  0  0
  -31.2246  -22.8401   22.7246 C   0  0  0  0  0  0
  -33.2596  -24.2480   21.5169 C   0  0  0  0  0  0
  -31.7875  -23.9980   23.2872 C   0  0  0  0  0  0
  -31.6972  -22.3945   21.4753 C   0  0  0  0  0  0
  -29.1748  -19.8498   20.2305 C   0  0  0  0  0  0
  -31.1380  -21.1490   20.8101 C   0  0  0  0  0  0
  -29.5766  -18.5093   21.0128 C   0  0  0  0  0  0
  -29.1368  -23.8503   20.4667 C   0  0  0  0  0  0
  -30.1577  -17.2389   20.2146 C   0  0  0  0  0  0
  -29.0691  -22.3698   19.8257 C   0  0  0  0  0  0
  -28.1399  -24.9718   19.8992 C   0  0  0  0  0  0
  -32.7865  -24.6926   22.7001 N   0  0  0  0  0  0
  -29.8731  -15.8177   20.6962 N   0  0  0  0  0  0
  -29.6959  -21.1191   20.4754 N   0  0  0  0  0  0
  -28.2715  -19.7152   19.4006 O   0  0  0  0  0  0
  -31.4720  -12.5368   19.1719 H   0  0  0  0  0  0
  -30.3651  -11.4390   19.9480 H   0  0  0  0  0  0
  -29.7892  -11.7373   17.5095 H   0  0  0  0  0  0
  -29.6403  -13.4630   17.7449 H   0  0  0  0  0  0
  -27.8896  -11.2805   18.9096 H   0  0  0  0  0  0
  -27.3782  -12.5255   17.7989 H   0  0  0  0  0  0
  -27.6460  -14.2507   19.4757 H   0  0  0  0  0  0
  -28.7030  -12.1453   21.4291 H   0  0  0  0  0  0
  -28.4240  -13.8279   21.8000 H   0  0  0  0  0  0
  -25.2759   -9.5694   22.4722 H   0  0  0  0  0  0
  -24.0001   -7.4647   22.7454 H   0  0  0  0  0  0
  -21.0838   -8.8746   19.8960 H   0  0  0  0  0  0
  -22.3660  -10.9648   19.6146 H   0  0  0  0  0  0
  -21.2002   -7.6136   23.9705 H   0  0  0  0  0  0
  -21.1487   -6.0505   25.9066 H   0  0  0  0  0  0
  -22.0605   -2.7597   23.2835 H   0  0  0  0  0  0
  -22.4098  -11.9920   22.4851 H   0  0  0  0  0  0
  -21.1070  -13.1237   22.2618 H   0  0  0  0  0  0
  -24.6539  -15.8480   20.5000 H   0  0  0  0  0  0
  -26.2721  -15.6281   20.0730 H   0  0  0  0  0  0
  -26.7195  -32.5406   23.1031 H   0  0  0  0  0  0
  -25.0142  -33.9694   25.0409 H   0  0  0  0  0  0
  -22.7146  -31.3030   21.3971 H   0  0  0  0  0  0
  -23.3742  -35.9643   23.3299 H   0  0  0  0  0  0
  -24.3597  -36.8918   22.2050 H   0  0  0  0  0  0
  -23.7292  -37.6497   23.6678 H   0  0  0  0  0  0
  -26.1029  -31.5414   20.6104 H   0  0  0  0  0  0
  -26.8414  -30.8232   22.0107 H   0  0  0  0  0  0
  -28.1017  -28.9435   21.2263 H   0  0  0  0  0  0
  -25.9719  -25.9427   18.9571 H   0  0  0  0  0  0
  -23.9747  -27.3239   18.9813 H   0  0  0  0  0  0
  -23.7611  -30.5970   19.4018 H   0  0  0  0  0  0
  -22.7562  -29.2512   19.8485 H   0  0  0  0  0  0
  -25.1317  -36.1872   25.0794 H   0  0  0  0  0  0
  -20.9999  -28.3313   24.1400 H   0  0  0  0  0  0
  -20.5746  -26.2318   23.3616 H   0  0  0  0  0  0
  -21.6653  -26.7490   22.1180 H   0  0  0  0  0  0
  -19.6934  -25.6309   21.1252 H   0  0  0  0  0  0
  -19.6707  -27.3205   20.6759 H   0  0  0  0  0  0
  -17.4220  -26.6707   21.4018 H   0  0  0  0  0  0
  -18.0331  -26.0084   22.9022 H   0  0  0  0  0  0
  -19.7951  -30.7293   24.2242 H   0  0  0  0  0  0
  -17.5035  -31.6272   24.5191 H   0  0  0  0  0  0
  -15.5367  -30.3009   23.7662 H   0  0  0  0  0  0
  -15.8684  -28.0847   22.7057 H   0  0  0  0  0  0
  -24.5879  -30.7154   25.7772 H   0  0  0  0  0  0
  -24.8968  -32.2988   26.4785 H   0  0  0  0  0  0
  -25.8038  -30.8998   27.0218 H   0  0  0  0  0  0
  -26.2967  -29.6716   24.1207 H   0  0  0  0  0  0
  -27.4031  -29.7264   25.4732 H   0  0  0  0  0  0
  -27.8854  -30.4238   23.9463 H   0  0  0  0  0  0
  -27.2588  -33.3628   26.2056 H   0  0  0  0  0  0
  -28.3867  -32.6929   25.0354 H   0  0  0  0  0  0
  -28.0681  -31.8483   26.5433 H   0  0  0  0  0  0
  -28.2563  -38.0108   24.7480 H   0  0  0  0  0  0
  -28.1080  -36.2622   24.6297 H   0  0  0  0  0  0
  -27.2276  -37.1467   25.8852 H   0  0  0  0  0  0
  -20.9370  -29.8757   21.6831 H   0  0  0  0  0  0
  -26.0144  -38.2813   24.1416 H   0  0  0  0  0  0
  -33.1657  -22.7954   19.9237 H   0  0  0  0  0  0
  -30.4341  -22.3170   23.2443 H   0  0  0  0  0  0
  -34.0722  -24.8085   21.0768 H   0  0  0  0  0  0
  -31.4283  -24.3771   24.2321 H   0  0  0  0  0  0
  -31.4192  -20.3486   21.4903 H   0  0  0  0  0  0
  -31.6976  -20.9487   19.8958 H   0  0  0  0  0  0
  -30.1912  -18.7126   21.8879 H   0  0  0  0  0  0
  -28.6304  -18.1884   21.4487 H   0  0  0  0  0  0
  -30.1473  -24.2313   20.3331 H   0  0  0  0  0  0
  -28.9721  -23.7822   21.5414 H   0  0  0  0  0  0
  -29.7943  -17.2852   19.1875 H   0  0  0  0  0  0
  -31.2374  -17.3680   20.1317 H   0  0  0  0  0  0
  -29.4667  -22.4347   18.8100 H   0  0  0  0  0  0
  -28.0044  -22.1700   19.6930 H   0  0  0  0  0  0
  -27.1584  -24.6718   20.2677 H   0  0  0  0  0  0
  -28.1004  -24.8709   18.8143 H   0  0  0  0  0  0
  -28.9312  -15.6381   21.0119 H   0  0  0  0  0  0
  1 25  1  0  0  0
  1 30  2  0  0  0
  1 84  1  0  0  0
  2  3  1  0  0  0
  2 25  1  0  0  0
  2 87  1  0  0  0
  2 88  1  0  0  0
  3  4  1  0  0  0
  3 89  1  0  0  0
  3 90  1  0  0  0
  4  5  1  0  0  0
  4 91  1  0  0  0
  4 92  1  0  0  0
  5  6  1  0  0  0
  5 26  1  0  0  0
  5 93  1  0  0  0
  6 25  1  0  0  0
  6 94  1  0  0  0
  6 95  1  0  0  0
  7  8  2  0  0  0
  7 26  1  0  0  0
  7 29  1  0  0  0
  8  9  1  0  0  0
  8 22  1  0  0  0
  9 10  1  0  0  0
  9 27  2  0  0  0
 10 11  2  0  0  0
 10 15  1  0  0  0
 11 12  1  0  0  0
 11 96  1  0  0  0
 12 13  2  0  0  0
 12 97  1  0  0  0
 13 14  1  0  0  0
 13 31  1  0  0  0
 14 15  2  0  0  0
 14 98  1  0  0  0
 15 99  1  0  0  0
 16 17  2  0  0  0
 16 21  1  0  0  0
 16 31  1  0  0  0
 17 18  1  0  0  0
 17100  1  0  0  0
 18 19  2  0  0  0
 18101  1  0  0  0
 19 20  1  0  0  0
 19 24  1  0  0  0
 20 21  2  0  0  0
 20102  1  0  0  0
 21 23  1  0  0  0
 22 28  1  0  0  0
 22 32  2  0  0  0
 26 27  1  0  0  0
 28103  1  0  0  0
 28104  1  0  0  0
 29105  1  0  0  0
 29106  1  0  0  0
 33 34  1  0  0  0
 33 66  1  0  0  0
 33 70  2  0  0  0
 34 36  1  0  0  0
 34 59  1  0  0  0
 34107  1  0  0  0
 35 44  2  0  0  0
 35 45  1  0  0  0
 35 68  1  0  0  0
 36 56  1  0  0  0
 36108  1  0  0  0
 37 39  1  0  0  0
 37 47  1  0  0  0
 37 66  1  0  0  0
 37109  1  0  0  0
 38 43  2  0  0  0
 38 46  1  0  0  0
 38 47  1  0  0  0
 39 64  1  0  0  0
 39 67  2  0  0  0
 40 52  1  0  0  0
 40 53  2  0  0  0
 40 58  1  0  0  0
 41110  1  0  0  0
 41111  1  0  0  0
 41112  1  0  0  0
 41 48  1  0  0  0
 42 43  1  0  0  0
 42 66  1  0  0  0
 42113  1  0  0  0
 42114  1  0  0  0
 43 44  1  0  0  0
 44115  1  0  0  0
 45 46  2  0  0  0
 45116  1  0  0  0
 46117  1  0  0  0
 47118  1  0  0  0
 47119  1  0  0  0
 48 56  1  0  0  0
 48 65  1  0  0  0
 48120  1  0  0  0
 49 50  1  0  0  0
 49 53  1  0  0  0
 49 64  1  0  0  0
 49121  1  0  0  0
 50 51  1  0  0  0
 50122  1  0  0  0
 50123  1  0  0  0
 51 52  1  0  0  0
 51124  1  0  0  0
 51125  1  0  0  0
 52126  1  0  0  0
 52127  1  0  0  0
 53 54  1  0  0  0
 54 55  2  0  0  0
 54128  1  0  0  0
 55 57  1  0  0  0
 55129  1  0  0  0
 56 69  2  0  0  0
 57 58  2  0  0  0
 57130  1  0  0  0
 58131  1  0  0  0
 59 60  1  0  0  0
 59 61  1  0  0  0
 59 62  1  0  0  0
 60132  1  0  0  0
 60133  1  0  0  0
 60134  1  0  0  0
 61135  1  0  0  0
 61136  1  0  0  0
 61137  1  0  0  0
 62138  1  0  0  0
 62139  1  0  0  0
 62140  1  0  0  0
 63 65  1  0  0  0
 63141  1  0  0  0
 63142  1  0  0  0
 63143  1  0  0  0
 64144  1  0  0  0
 65145  1  0  0  0
 68 82  1  0  0  0
 71 73  2  0  0  0
 71 75  1  0  0  0
 71146  1  0  0  0
 72 74  1  0  0  0
 72 75  2  0  0  0
 72147  1  0  0  0
 73 83  1  0  0  0
 73148  1  0  0  0
 74 83  2  0  0  0
 74149  1  0  0  0
 75 77  1  0  0  0
 76 78  1  0  0  0
 76 85  1  0  0  0
 76 86  2  0  0  0
 77 85  1  0  0  0
 77150  1  0  0  0
 77151  1  0  0  0
 78 80  1  0  0  0
 78152  1  0  0  0
 78153  1  0  0  0
 79 81  1  0  0  0
 79 82  1  0  0  0
 79154  1  0  0  0
 79155  1  0  0  0
 80 84  1  0  0  0
 80156  1  0  0  0
 80157  1  0  0  0
 81 85  1  0  0  0
 81158  1  0  0  0
 81159  1  0  0  0
 82160  1  0  0  0
 82161  1  0  0  0
 84162  1  0  0  0
M  ISO  4   1 100  68 101  82 101  84 100
M  END
> <chiral flag>
0

> <version>
0

> <s_m_source_file>
/data/baiqing/PycharmProjects/Reinvent-master-3.2/result/LINK_invent/BTK/process_docking_weight1_custom_sum_contain_oxygen_bond_distance_aromatic_linkinvent_7_9_3/rearranged_h_0006.sdf

> <i_m_source_file_index>
30

> <r_mmod_Potential_Energy-OPLS-2005>
-4.71779251098633

> <r_mmod_Stretch_Energy-OPLS-2005>
114.06566619873

> <r_mmod_Bend_Energy-OPLS-2005>
173.684539794922

> <r_mmod_Torsional_Energy-OPLS-2005>
251.941345214844

> <r_mmod_Improper_Torsional_Energy-OPLS-2005>
8.6810417175293

> <r_mmod_Van_der_Waal_Energy-OPLS-2005>
156.436080932617

> <r_mmod_Electrostatic_Energy-OPLS-2005>
-517.964782714844

> <r_mmod_Solvation_Energy-OPLS-2005>
-257.886749267578

> <b_mmod_Minimization_Converged-OPLS-2005>
0

> <r_mmod_RMS_Derivative-OPLS-2005>
2.50504899024963

$$$$
30
                    3D
 Structure written by MMmdl.
170178  0  0  1  0            999 V2000
  -30.7490  -14.3483   20.7185 C   0  0  0  0  0  0
  -30.4258  -12.2957   19.3783 C   0  0  0  0  0  0
  -29.4823  -12.5345   18.1849 C   0  0  0  0  0  0
  -28.0049  -12.3944   18.6003 C   0  0  0  0  0  0
  -27.6683  -13.1966   19.8848 C   0  0  2  0  0  0
  -28.7044  -12.8981   20.9883 C   0  0  0  0  0  0
  -25.2621  -13.8145   20.5670 C   0  0  0  0  0  0
  -24.1860  -13.0449   20.9157 C   0  0  0  0  0  0
  -24.6391  -11.6904   20.8724 C   0  0  0  0  0  0
  -23.9051  -10.4296   21.0408 C   0  0  0  0  0  0
  -24.3613   -9.4214   21.9186 C   0  0  0  0  0  0
  -23.6286   -8.2249   22.0767 C   0  0  0  0  0  0
  -22.4273   -8.0284   21.3547 C   0  0  0  0  0  0
  -21.9905   -9.0261   20.4652 C   0  0  0  0  0  0
  -22.7230  -10.2134   20.3059 C   0  0  0  0  0  0
  -21.6844   -6.0737   22.5273 C   0  0  0  0  0  0
  -21.4015   -6.5646   23.8208 C   0  0  0  0  0  0
  -21.3656   -5.6797   24.9171 C   0  0  0  0  0  0
  -21.6043   -4.3064   24.7223 C   0  0  0  0  0  0
  -21.8819   -3.8154   23.4348 C   0  0  0  0  0  0
  -21.9197   -4.6965   22.3401 C   0  0  0  0  0  0
  -22.7881  -13.5252   21.1832 C   0  0  0  0  0  0
  -22.1658   -4.2158   21.0971 F   0  0  0  0  0  0
  -21.5634   -3.4541   25.7734 F   0  0  0  0  0  0
  -30.0457  -13.2165   20.4600 N   0  0  0  0  0  0
  -26.3057  -12.9293   20.3392 N   0  0  0  0  0  0
  -25.9305  -11.6457   20.5753 N   0  0  0  0  0  0
  -22.0512  -12.8246   22.0378 N   0  0  0  0  0  0
  -25.4390  -15.1859   20.4080 N   0  0  0  0  0  0
  -31.7661  -14.6755   20.0980 O   0  0  0  0  0  0
  -21.6639   -6.8885   21.4242 O   0  0  0  0  0  0
  -22.3568  -14.5569   20.6693 O   0  0  0  0  0  0
  -24.6142  -31.8674   23.2119 C   0  0  0  0  0  0
  -25.9045  -32.4838   23.8423 C   0  0  1  0  0  0
  -27.2512  -27.4784   20.0702 C   0  0  0  0  0  0
  -25.5874  -33.8636   24.2342 N   0  0  0  0  0  0
  -23.4048  -30.4927   21.5475 C   0  0  2  0  0  0
  -24.8525  -28.9631   20.1133 C   0  0  0  0  0  0
  -22.7439  -29.4654   22.4950 C   0  0  0  0  0  0
  -18.0295  -28.1383   22.8528 C   0  0  0  0  0  0
  -24.1469  -36.7354   23.2645 C   0  0  0  0  0  0
  -25.9317  -30.8404   21.3667 C   0  0  0  0  0  0
  -26.0118  -29.4819   20.7056 C   0  0  0  0  0  0
  -27.2157  -28.7465   20.6858 C   0  0  0  0  0  0
  -26.0746  -26.9482   19.5034 C   0  0  0  0  0  0
  -24.8780  -27.6904   19.5120 C   0  0  0  0  0  0
  -23.6132  -29.8282   20.1619 C   0  0  0  0  0  0
  -25.4072  -36.3131   24.0359 C   0  0  1  0  0  0
  -20.5883  -28.3670   23.1326 C   0  0  2  0  0  0
  -20.6780  -26.9397   22.5447 C   0  0  0  0  0  0
  -19.5728  -26.6384   21.5265 C   0  0  0  0  0  0
  -18.1912  -26.7919   22.1672 C   0  0  0  0  0  0
  -19.1546  -28.8843   23.2909 C   0  0  0  0  0  0
  -18.9441  -30.1472   23.8889 C   0  0  0  0  0  0
  -17.6440  -30.6574   24.0594 C   0  0  0  0  0  0
  -25.9016  -34.9495   23.5146 C   0  0  0  0  0  0
  -16.5337  -29.9065   23.6342 C   0  0  0  0  0  0
  -16.7274  -28.6512   23.0335 C   0  0  0  0  0  0
  -26.4455  -31.6618   25.0783 C   0  0  0  0  0  0
  -25.3745  -31.3690   26.1556 C   0  0  0  0  0  0
  -27.0315  -30.3060   24.6214 C   0  0  0  0  0  0
  -27.6037  -32.4337   25.7542 C   0  0  0  0  0  0
  -27.5565  -37.1830   24.8459 C   0  0  0  0  0  0
  -21.4160  -29.3022   22.3709 N   0  0  0  0  0  0
  -26.4253  -37.3824   23.9439 N   0  0  0  0  0  0
  -24.6681  -31.0812   22.0988 N   0  0  0  0  0  0
  -23.4221  -28.8210   23.2990 O   0  0  0  0  0  0
  -28.3985  -26.7256   20.0272 O   0  0  0  0  0  0
  -26.5596  -34.8971   22.4721 O   0  0  0  0  0  0
  -23.5352  -32.1403   23.7519 O   0  0  0  0  0  0
  -27.1794  -21.6694   18.8377 C   0  0  0  0  0  0
  -28.7021  -20.4813   17.3546 C   0  0  0  0  0  0
  -27.1135  -22.7324   17.9187 C   0  0  0  0  0  0
  -28.6415  -21.5518   16.4414 C   0  0  0  0  0  0
  -27.9962  -20.5456   18.5796 C   0  0  0  0  0  0
  -27.8800  -22.7009   16.7306 C   0  0  0  0  0  0
  -29.3033  -19.0661   20.0031 C   0  0  0  0  0  0
  -26.8552  -19.0237   20.1733 C   0  0  0  0  0  0
  -29.3458  -17.9230   21.0353 C   0  0  0  0  0  0
  -30.7800  -17.5012   21.4182 C   0  0  0  0  0  0
  -28.9458  -25.4295   17.3207 C   0  0  0  0  0  0
  -29.0439  -26.9282   17.6685 C   0  0  0  0  0  0
  -30.8431  -16.2721   22.3414 C   0  0  0  0  0  0
  -27.7978  -25.0762   16.3503 C   0  0  0  0  0  0
  -29.4144  -27.1963   19.1423 C   0  0  0  0  0  0
  -30.2687  -15.0697   21.7424 N   0  0  0  0  0  0
  -28.0961  -19.5023   19.5532 N   0  0  0  0  0  0
  -30.3738  -19.5546   19.6217 O   0  0  0  0  0  0
  -27.9425  -23.7487   15.8402 O   0  0  0  0  0  0
  -31.4637  -12.4268   19.0669 H   0  0  0  0  0  0
  -30.3523  -11.2639   19.7237 H   0  0  0  0  0  0
  -29.7093  -11.8331   17.3809 H   0  0  0  0  0  0
  -29.6529  -13.5329   17.7790 H   0  0  0  0  0  0
  -27.7980  -11.3351   18.7561 H   0  0  0  0  0  0
  -27.3564  -12.7129   17.7828 H   0  0  0  0  0  0
  -27.7386  -14.2570   19.6394 H   0  0  0  0  0  0
  -28.6710  -11.8397   21.2525 H   0  0  0  0  0  0
  -28.4451  -13.4237   21.9071 H   0  0  0  0  0  0
  -25.2760   -9.5686   22.4758 H   0  0  0  0  0  0
  -23.9995   -7.4643   22.7484 H   0  0  0  0  0  0
  -21.0842   -8.8775   19.8946 H   0  0  0  0  0  0
  -22.3699  -10.9682   19.6169 H   0  0  0  0  0  0
  -21.2003   -7.6150   23.9716 H   0  0  0  0  0  0
  -21.1472   -6.0526   25.9071 H   0  0  0  0  0  0
  -22.0605   -2.7619   23.2837 H   0  0  0  0  0  0
  -22.4110  -11.9892   22.4757 H   0  0  0  0  0  0
  -21.1129  -13.1285   22.2583 H   0  0  0  0  0  0
  -24.6810  -15.8498   20.5219 H   0  0  0  0  0  0
  -26.3001  -15.6138   20.0951 H   0  0  0  0  0  0
  -26.7150  -32.5560   23.1224 H   0  0  0  0  0  0
  -24.9970  -33.9788   25.0451 H   0  0  0  0  0  0
  -22.6944  -31.3088   21.4068 H   0  0  0  0  0  0
  -23.3738  -35.9684   23.3314 H   0  0  0  0  0  0
  -24.3579  -36.8986   22.2066 H   0  0  0  0  0  0
  -23.7244  -37.6573   23.6652 H   0  0  0  0  0  0
  -26.0608  -31.6129   20.6062 H   0  0  0  0  0  0
  -26.8099  -30.8738   21.9996 H   0  0  0  0  0  0
  -28.1102  -29.1498   21.1420 H   0  0  0  0  0  0
  -26.0936  -25.9709   19.0463 H   0  0  0  0  0  0
  -23.9869  -27.2851   19.0541 H   0  0  0  0  0  0
  -23.7215  -30.6042   19.4027 H   0  0  0  0  0  0
  -22.7363  -29.2525   19.8630 H   0  0  0  0  0  0
  -25.1241  -36.1952   25.0850 H   0  0  0  0  0  0
  -21.0012  -28.3231   24.1435 H   0  0  0  0  0  0
  -20.5726  -26.2284   23.3660 H   0  0  0  0  0  0
  -21.6618  -26.7425   22.1184 H   0  0  0  0  0  0
  -19.6898  -25.6315   21.1241 H   0  0  0  0  0  0
  -19.6646  -27.3235   20.6823 H   0  0  0  0  0  0
  -17.4200  -26.6760   21.4068 H   0  0  0  0  0  0
  -18.0239  -26.0034   22.9017 H   0  0  0  0  0  0
  -19.7899  -30.7341   24.2230 H   0  0  0  0  0  0
  -17.4945  -31.6256   24.5182 H   0  0  0  0  0  0
  -15.5326  -30.2947   23.7663 H   0  0  0  0  0  0
  -15.8693  -28.0849   22.6984 H   0  0  0  0  0  0
  -24.5873  -30.7098   25.7881 H   0  0  0  0  0  0
  -24.9002  -32.2839   26.5108 H   0  0  0  0  0  0
  -25.8111  -30.8766   27.0261 H   0  0  0  0  0  0
  -26.2880  -29.6828   24.1244 H   0  0  0  0  0  0
  -27.4032  -29.7296   25.4697 H   0  0  0  0  0  0
  -27.8743  -30.4401   23.9437 H   0  0  0  0  0  0
  -27.2626  -33.3598   26.2174 H   0  0  0  0  0  0
  -28.3788  -32.6972   25.0334 H   0  0  0  0  0  0
  -28.0786  -31.8463   26.5415 H   0  0  0  0  0  0
  -28.2543  -38.0157   24.7492 H   0  0  0  0  0  0
  -28.1082  -36.2699   24.6208 H   0  0  0  0  0  0
  -27.2319  -37.1375   25.8868 H   0  0  0  0  0  0
  -20.9315  -29.8775   21.6965 H   0  0  0  0  0  0
  -26.0154  -38.2908   24.1441 H   0  0  0  0  0  0
  -26.6256  -21.7483   19.7626 H   0  0  0  0  0  0
  -29.3222  -19.6260   17.1188 H   0  0  0  0  0  0
  -26.4873  -23.5767   18.1607 H   0  0  0  0  0  0
  -29.2199  -21.5078   15.5293 H   0  0  0  0  0  0
  -25.9645  -19.4572   19.7178 H   0  0  0  0  0  0
  -26.8290  -19.2645   21.2374 H   0  0  0  0  0  0
  -26.7597  -17.9446   20.0592 H   0  0  0  0  0  0
  -28.8109  -17.0697   20.6201 H   0  0  0  0  0  0
  -28.8126  -18.2281   21.9364 H   0  0  0  0  0  0
  -31.2715  -18.3381   21.9178 H   0  0  0  0  0  0
  -31.3642  -17.3100   20.5168 H   0  0  0  0  0  0
  -28.8312  -24.8489   18.2353 H   0  0  0  0  0  0
  -29.8925  -25.1096   16.8895 H   0  0  0  0  0  0
  -28.1125  -27.4385   17.4278 H   0  0  0  0  0  0
  -29.7934  -27.3853   17.0209 H   0  0  0  0  0  0
  -30.2976  -16.4838   23.2623 H   0  0  0  0  0  0
  -31.8742  -16.0755   22.6387 H   0  0  0  0  0  0
  -27.8204  -25.7469   15.4911 H   0  0  0  0  0  0
  -26.8231  -25.2305   16.8131 H   0  0  0  0  0  0
  -29.6116  -28.2592   19.2903 H   0  0  0  0  0  0
  -30.3395  -26.6771   19.3969 H   0  0  0  0  0  0
  -29.4499  -14.6881   22.1935 H   0  0  0  0  0  0
  1 25  1  0  0  0
  1 30  2  0  0  0
  1 86  1  0  0  0
  2  3  1  0  0  0
  2 25  1  0  0  0
  2 90  1  0  0  0
  2 91  1  0  0  0
  3  4  1  0  0  0
  3 92  1  0  0  0
  3 93  1  0  0  0
  4  5  1  0  0  0
  4 94  1  0  0  0
  4 95  1  0  0  0
  5  6  1  0  0  0
  5 26  1  0  0  0
  5 96  1  0  0  0
  6 25  1  0  0  0
  6 97  1  0  0  0
  6 98  1  0  0  0
  7  8  2  0  0  0
  7 26  1  0  0  0
  7 29  1  0  0  0
  8  9  1  0  0  0
  8 22  1  0  0  0
  9 10  1  0  0  0
  9 27  2  0  0  0
 10 11  2  0  0  0
 10 15  1  0  0  0
 11 12  1  0  0  0
 11 99  1  0  0  0
 12 13  2  0  0  0
 12100  1  0  0  0
 13 14  1  0  0  0
 13 31  1  0  0  0
 14 15  2  0  0  0
 14101  1  0  0  0
 15102  1  0  0  0
 16 17  2  0  0  0
 16 21  1  0  0  0
 16 31  1  0  0  0
 17 18  1  0  0  0
 17103  1  0  0  0
 18 19  2  0  0  0
 18104  1  0  0  0
 19 20  1  0  0  0
 19 24  1  0  0  0
 20 21  2  0  0  0
 20105  1  0  0  0
 21 23  1  0  0  0
 22 28  1  0  0  0
 22 32  2  0  0  0
 26 27  1  0  0  0
 28106  1  0  0  0
 28107  1  0  0  0
 29108  1  0  0  0
 29109  1  0  0  0
 33 34  1  0  0  0
 33 66  1  0  0  0
 33 70  2  0  0  0
 34 36  1  0  0  0
 34 59  1  0  0  0
 34110  1  0  0  0
 35 44  2  0  0  0
 35 45  1  0  0  0
 35 68  1  0  0  0
 36 56  1  0  0  0
 36111  1  0  0  0
 37 39  1  0  0  0
 37 47  1  0  0  0
 37 66  1  0  0  0
 37112  1  0  0  0
 38 43  2  0  0  0
 38 46  1  0  0  0
 38 47  1  0  0  0
 39 64  1  0  0  0
 39 67  2  0  0  0
 40 52  1  0  0  0
 40 53  2  0  0  0
 40 58  1  0  0  0
 41113  1  0  0  0
 41114  1  0  0  0
 41115  1  0  0  0
 41 48  1  0  0  0
 42 43  1  0  0  0
 42 66  1  0  0  0
 42116  1  0  0  0
 42117  1  0  0  0
 43 44  1  0  0  0
 44118  1  0  0  0
 45 46  2  0  0  0
 45119  1  0  0  0
 46120  1  0  0  0
 47121  1  0  0  0
 47122  1  0  0  0
 48 56  1  0  0  0
 48 65  1  0  0  0
 48123  1  0  0  0
 49 50  1  0  0  0
 49 53  1  0  0  0
 49 64  1  0  0  0
 49124  1  0  0  0
 50 51  1  0  0  0
 50125  1  0  0  0
 50126  1  0  0  0
 51 52  1  0  0  0
 51127  1  0  0  0
 51128  1  0  0  0
 52129  1  0  0  0
 52130  1  0  0  0
 53 54  1  0  0  0
 54 55  2  0  0  0
 54131  1  0  0  0
 55 57  1  0  0  0
 55132  1  0  0  0
 56 69  2  0  0  0
 57 58  2  0  0  0
 57133  1  0  0  0
 58134  1  0  0  0
 59 60  1  0  0  0
 59 61  1  0  0  0
 59 62  1  0  0  0
 60135  1  0  0  0
 60136  1  0  0  0
 60137  1  0  0  0
 61138  1  0  0  0
 61139  1  0  0  0
 61140  1  0  0  0
 62141  1  0  0  0
 62142  1  0  0  0
 62143  1  0  0  0
 63 65  1  0  0  0
 63144  1  0  0  0
 63145  1  0  0  0
 63146  1  0  0  0
 64147  1  0  0  0
 65148  1  0  0  0
 68 85  1  0  0  0
 71 73  2  0  0  0
 71 75  1  0  0  0
 71149  1  0  0  0
 72 74  1  0  0  0
 72 75  2  0  0  0
 72150  1  0  0  0
 73 76  1  0  0  0
 73151  1  0  0  0
 74 76  2  0  0  0
 74152  1  0  0  0
 75 87  1  0  0  0
 76 89  1  0  0  0
 77 79  1  0  0  0
 77 87  1  0  0  0
 77 88  2  0  0  0
 78 87  1  0  0  0
 78153  1  0  0  0
 78154  1  0  0  0
 78155  1  0  0  0
 79 80  1  0  0  0
 79156  1  0  0  0
 79157  1  0  0  0
 80 83  1  0  0  0
 80158  1  0  0  0
 80159  1  0  0  0
 81 82  1  0  0  0
 81 84  1  0  0  0
 81160  1  0  0  0
 81161  1  0  0  0
 82 85  1  0  0  0
 82162  1  0  0  0
 82163  1  0  0  0
 83 86  1  0  0  0
 83164  1  0  0  0
 83165  1  0  0  0
 84 89  1  0  0  0
 84166  1  0  0  0
 84167  1  0  0  0
 85168  1  0  0  0
 85169  1  0  0  0
 86170  1  0  0  0
M  ISO  4   1 100  68 101  85 101  86 100
M  END
> <chiral flag>
0

> <version>
0

> <s_m_source_file>
/data/baiqing/PycharmProjects/Reinvent-master-3.2/result/LINK_invent/BTK/process_docking_weight1_custom_sum_contain_oxygen_bond_distance_aromatic_linkinvent_7_9_3/rearranged_h_0006.sdf

> <i_m_source_file_index>
31

> <r_mmod_Potential_Energy-OPLS-2005>
-31.1323528289795

> <r_mmod_Stretch_Energy-OPLS-2005>
36.1807136535645

> <r_mmod_Bend_Energy-OPLS-2005>
97.2340927124023

> <r_mmod_Torsional_Energy-OPLS-2005>
277.712127685547

> <r_mmod_Improper_Torsional_Energy-OPLS-2005>
1.98470449447632

> <r_mmod_Van_der_Waal_Energy-OPLS-2005>
165.886444091797

> <r_mmod_Electrostatic_Energy-OPLS-2005>
-382.952728271484

> <r_mmod_Solvation_Energy-OPLS-2005>
-234.657836914062

> <b_mmod_Minimization_Converged-OPLS-2005>
0

> <r_mmod_RMS_Derivative-OPLS-2005>
3.44991731643677

$$$$
31
                    3D
 Structure written by MMmdl.
181188  0  0  1  0            999 V2000
  -30.6654  -14.4587   20.5129 C   0  0  0  0  0  0
  -30.4207  -12.2906   19.3922 C   0  0  0  0  0  0
  -29.4815  -12.4886   18.1854 C   0  0  0  0  0  0
  -28.0009  -12.3616   18.6078 C   0  0  0  0  0  0
  -27.6532  -13.2051   19.8654 C   0  0  2  0  0  0
  -28.6973  -12.9744   20.9788 C   0  0  0  0  0  0
  -25.2507  -13.8223   20.5649 C   0  0  0  0  0  0
  -24.1782  -13.0423   20.9178 C   0  0  0  0  0  0
  -24.6360  -11.6909   20.8717 C   0  0  0  0  0  0
  -23.9038  -10.4279   21.0355 C   0  0  0  0  0  0
  -24.3594   -9.4234   21.9147 C   0  0  0  0  0  0
  -23.6288   -8.2261   22.0756 C   0  0  0  0  0  0
  -22.4286   -8.0259   21.3529 C   0  0  0  0  0  0
  -21.9880   -9.0230   20.4654 C   0  0  0  0  0  0
  -22.7190  -10.2118   20.3033 C   0  0  0  0  0  0
  -21.6855   -6.0715   22.5272 C   0  0  0  0  0  0
  -21.4017   -6.5618   23.8212 C   0  0  0  0  0  0
  -21.3662   -5.6776   24.9165 C   0  0  0  0  0  0
  -21.6037   -4.3043   24.7227 C   0  0  0  0  0  0
  -21.8832   -3.8128   23.4354 C   0  0  0  0  0  0
  -21.9203   -4.6933   22.3405 C   0  0  0  0  0  0
  -22.7815  -13.5234   21.1886 C   0  0  0  0  0  0
  -22.1658   -4.2112   21.0985 F   0  0  0  0  0  0
  -21.5639   -3.4535   25.7751 F   0  0  0  0  0  0
  -30.0284  -13.2655   20.4178 N   0  0  0  0  0  0
  -26.2967  -12.9370   20.3344 N   0  0  0  0  0  0
  -25.9279  -11.6533   20.5751 N   0  0  0  0  0  0
  -22.0483  -12.8172   22.0447 N   0  0  0  0  0  0
  -25.4119  -15.1931   20.4030 N   0  0  0  0  0  0
  -31.8051  -14.6668   20.0879 O   0  0  0  0  0  0
  -21.6637   -6.8837   21.4237 O   0  0  0  0  0  0
  -22.3454  -14.5501   20.6731 O   0  0  0  0  0  0
  -24.6214  -31.8766   23.1959 C   0  0  0  0  0  0
  -25.9002  -32.4913   23.8319 C   0  0  1  0  0  0
  -27.2467  -27.5122   20.0475 C   0  0  0  0  0  0
  -25.5798  -33.8659   24.2258 N   0  0  0  0  0  0
  -23.5655  -30.2486   21.6626 C   0  0  2  0  0  0
  -24.8749  -29.0100   19.9871 C   0  0  0  0  0  0
  -22.6827  -29.4614   22.6552 C   0  0  0  0  0  0
  -17.9993  -28.1448   22.8370 C   0  0  0  0  0  0
  -24.1453  -36.7410   23.2633 C   0  0  0  0  0  0
  -25.9474  -30.9215   21.2850 C   0  0  0  0  0  0
  -26.0380  -29.5647   20.5658 C   0  0  0  0  0  0
  -27.2247  -28.8172   20.5771 C   0  0  0  0  0  0
  -26.0762  -26.9640   19.4755 C   0  0  0  0  0  0
  -24.8850  -27.7095   19.4565 C   0  0  0  0  0  0
  -23.5945  -29.7911   20.1832 C   0  0  0  0  0  0
  -25.4013  -36.3122   24.0353 C   0  0  1  0  0  0
  -20.5418  -28.3761   23.1228 C   0  0  2  0  0  0
  -20.6521  -26.9480   22.5415 C   0  0  0  0  0  0
  -19.5595  -26.6394   21.5160 C   0  0  0  0  0  0
  -18.1731  -26.7960   22.1531 C   0  0  0  0  0  0
  -19.1183  -28.8934   23.2751 C   0  0  0  0  0  0
  -18.9239  -30.1510   23.8852 C   0  0  0  0  0  0
  -17.6300  -30.6674   24.0583 C   0  0  0  0  0  0
  -25.8976  -34.9510   23.5101 C   0  0  0  0  0  0
  -16.5169  -29.9181   23.6325 C   0  0  0  0  0  0
  -16.7017  -28.6619   23.0271 C   0  0  0  0  0  0
  -26.4382  -31.6610   25.0621 C   0  0  0  0  0  0
  -25.3719  -31.3738   26.1438 C   0  0  0  0  0  0
  -27.0171  -30.3076   24.5854 C   0  0  0  0  0  0
  -27.5962  -32.4268   25.7458 C   0  0  0  0  0  0
  -27.5521  -37.1855   24.8428 C   0  0  0  0  0  0
  -21.3848  -29.3110   22.3813 N   0  0  0  0  0  0
  -26.4172  -37.3804   23.9466 N   0  0  0  0  0  0
  -24.6788  -31.1448   22.0476 N   0  0  0  0  0  0
  -23.1947  -28.8633   23.6184 O   0  0  0  0  0  0
  -28.4433  -26.8510   20.0585 O   0  0  0  0  0  0
  -26.5609  -34.9033   22.4724 O   0  0  0  0  0  0
  -23.5393  -32.1086   23.7502 O   0  0  0  0  0  0
  -29.9012  -22.5690   17.7617 C   0  0  0  0  0  0
  -30.4511  -26.1265   22.4260 C   0  0  0  0  0  0
  -30.1449  -28.4975   23.0403 C   0  0  0  0  0  0
  -29.9833  -21.5483   18.9190 C   0  0  0  0  0  0
  -29.0429  -25.7032   22.8792 C   0  0  0  0  0  0
  -29.9377  -20.0470   18.5471 C   0  0  0  0  0  0
  -28.1260  -25.1185   21.7677 C   0  0  0  0  0  0
  -30.2255  -19.1607   19.7975 C   0  0  0  0  0  0
  -31.4972  -27.0965   18.3860 C   0  0  0  0  0  0
  -29.9118  -17.6516   19.6501 C   0  0  0  0  0  0
  -31.7281  -25.8051   17.5743 C   0  0  0  0  0  0
  -31.8458  -26.9293   19.9104 C   0  0  0  0  0  0
  -30.4628  -24.9775   17.2067 C   0  0  0  0  0  0
  -30.2191  -16.8914   20.9672 C   0  0  0  0  0  0
  -31.4861  -27.9521   21.0417 C   0  0  0  0  0  0
  -28.4514  -25.4541   20.3017 C   0  0  0  0  0  0
  -30.3197  -23.8062   18.0660 N   0  0  0  0  0  0
  -29.8825  -15.4690   20.9266 N   0  0  0  0  0  0
  -30.6877  -27.4406   22.1805 N   0  0  0  0  0  0
  -29.4976  -22.2547   16.6410 O   0  0  0  0  0  0
  -31.2706  -25.2385   22.1767 O   0  0  0  0  0  0
  -31.4601  -12.4132   19.0756 H   0  0  0  0  0  0
  -30.3423  -11.2733   19.7802 H   0  0  0  0  0  0
  -29.7080  -11.7645   17.4026 H   0  0  0  0  0  0
  -29.6584  -13.4722   17.7446 H   0  0  0  0  0  0
  -27.8025  -11.3111   18.8108 H   0  0  0  0  0  0
  -27.3468  -12.6349   17.7747 H   0  0  0  0  0  0
  -27.6908  -14.2513   19.5651 H   0  0  0  0  0  0
  -28.6653  -11.9441   21.3306 H   0  0  0  0  0  0
  -28.4790  -13.5781   21.8589 H   0  0  0  0  0  0
  -25.2750   -9.5709   22.4687 H   0  0  0  0  0  0
  -24.0001   -7.4659   22.7486 H   0  0  0  0  0  0
  -21.0806   -8.8725   19.8969 H   0  0  0  0  0  0
  -22.3635  -10.9621   19.6121 H   0  0  0  0  0  0
  -21.1997   -7.6123   23.9690 H   0  0  0  0  0  0
  -21.1466   -6.0511   25.9067 H   0  0  0  0  0  0
  -22.0609   -2.7586   23.2876 H   0  0  0  0  0  0
  -22.4145  -11.9844   22.4803 H   0  0  0  0  0  0
  -21.1107  -13.1168   22.2696 H   0  0  0  0  0  0
  -24.6295  -15.8328   20.5000 H   0  0  0  0  0  0
  -26.2487  -15.6476   20.0574 H   0  0  0  0  0  0
  -26.7209  -32.5685   23.1253 H   0  0  0  0  0  0
  -24.9814  -33.9747   25.0324 H   0  0  0  0  0  0
  -24.2369  -29.4805   22.0119 H   0  0  0  0  0  0
  -23.3617  -35.9846   23.3265 H   0  0  0  0  0  0
  -24.3630  -36.9047   22.2059 H   0  0  0  0  0  0
  -23.7348  -37.6677   23.6673 H   0  0  0  0  0  0
  -26.0562  -31.7162   20.5443 H   0  0  0  0  0  0
  -26.8423  -30.9676   21.9011 H   0  0  0  0  0  0
  -28.1205  -29.2525   20.9836 H   0  0  0  0  0  0
  -26.0641  -25.9832   19.0247 H   0  0  0  0  0  0
  -23.9734  -27.2732   19.0661 H   0  0  0  0  0  0
  -23.5506  -30.6449   19.5039 H   0  0  0  0  0  0
  -22.7509  -29.1482   19.9409 H   0  0  0  0  0  0
  -25.1210  -36.1879   25.0843 H   0  0  0  0  0  0
  -20.8932  -28.3169   24.1540 H   0  0  0  0  0  0
  -20.5433  -26.2365   23.3607 H   0  0  0  0  0  0
  -21.6439  -26.7613   22.1243 H   0  0  0  0  0  0
  -19.6827  -25.6266   21.1282 H   0  0  0  0  0  0
  -19.6582  -27.3141   20.6643 H   0  0  0  0  0  0
  -17.3986  -26.6592   21.3957 H   0  0  0  0  0  0
  -18.0215  -26.0165   22.9003 H   0  0  0  0  0  0
  -19.7767  -30.7272   24.2241 H   0  0  0  0  0  0
  -17.4889  -31.6344   24.5200 H   0  0  0  0  0  0
  -15.5201  -30.3134   23.7738 H   0  0  0  0  0  0
  -15.8366  -28.1060   22.6949 H   0  0  0  0  0  0
  -24.5917  -30.7007   25.7905 H   0  0  0  0  0  0
  -24.8888  -32.2877   26.4873 H   0  0  0  0  0  0
  -25.8184  -30.9015   27.0195 H   0  0  0  0  0  0
  -26.2797  -29.6988   24.0607 H   0  0  0  0  0  0
  -27.3799  -29.7072   25.4216 H   0  0  0  0  0  0
  -27.8615  -30.4642   23.9162 H   0  0  0  0  0  0
  -27.2564  -33.3485   26.2208 H   0  0  0  0  0  0
  -28.3707  -32.6956   25.0283 H   0  0  0  0  0  0
  -28.0700  -31.8272   26.5231 H   0  0  0  0  0  0
  -28.2484  -38.0180   24.7391 H   0  0  0  0  0  0
  -28.1050  -36.2704   24.6234 H   0  0  0  0  0  0
  -27.2345  -37.1564   25.8865 H   0  0  0  0  0  0
  -20.9726  -29.8054   21.6001 H   0  0  0  0  0  0
  -25.9973  -38.2863   24.1476 H   0  0  0  0  0  0
  -30.1895  -28.2107   24.0901 H   0  0  0  0  0  0
  -29.1067  -28.7046   22.7994 H   0  0  0  0  0  0
  -30.6986  -29.4329   22.9435 H   0  0  0  0  0  0
  -30.9185  -21.7282   19.4503 H   0  0  0  0  0  0
  -29.1973  -21.7559   19.6483 H   0  0  0  0  0  0
  -28.5320  -26.5246   23.3716 H   0  0  0  0  0  0
  -29.1628  -24.9408   23.6501 H   0  0  0  0  0  0
  -30.6806  -19.8455   17.7719 H   0  0  0  0  0  0
  -28.9649  -19.8121   18.1122 H   0  0  0  0  0  0
  -28.1324  -24.0346   21.8610 H   0  0  0  0  0  0
  -27.1032  -25.4261   21.9690 H   0  0  0  0  0  0
  -29.6633  -19.5385   20.6562 H   0  0  0  0  0  0
  -31.2776  -19.2670   20.0683 H   0  0  0  0  0  0
  -30.4947  -27.4963   18.1775 H   0  0  0  0  0  0
  -32.1100  -27.8631   17.9045 H   0  0  0  0  0  0
  -28.8610  -17.5165   19.3815 H   0  0  0  0  0  0
  -30.5024  -17.2293   18.8330 H   0  0  0  0  0  0
  -32.5034  -25.1970   18.0511 H   0  0  0  0  0  0
  -32.1516  -26.1182   16.6255 H   0  0  0  0  0  0
  -30.7729  -26.8266   19.9110 H   0  0  0  0  0  0
  -32.6338  -27.6502   19.6966 H   0  0  0  0  0  0
  -30.5025  -24.6528   16.1627 H   0  0  0  0  0  0
  -29.5767  -25.6110   17.2846 H   0  0  0  0  0  0
  -29.6454  -17.3377   21.7825 H   0  0  0  0  0  0
  -31.2676  -17.0085   21.2494 H   0  0  0  0  0  0
  -30.9138  -28.7648   20.5802 H   0  0  0  0  0  0
  -32.3702  -28.4388   21.4632 H   0  0  0  0  0  0
  -27.8237  -24.9036   19.5997 H   0  0  0  0  0  0
  -29.4561  -25.1039   20.0926 H   0  0  0  0  0  0
  -30.5986  -23.9513   19.0244 H   0  0  0  0  0  0
  -28.9439  -15.2159   21.2089 H   0  0  0  0  0  0
  1 25  1  0  0  0
  1 30  2  0  0  0
  1 88  1  0  0  0
  2  3  1  0  0  0
  2 25  1  0  0  0
  2 92  1  0  0  0
  2 93  1  0  0  0
  3  4  1  0  0  0
  3 94  1  0  0  0
  3 95  1  0  0  0
  4  5  1  0  0  0
  4 96  1  0  0  0
  4 97  1  0  0  0
  5  6  1  0  0  0
  5 26  1  0  0  0
  5 98  1  0  0  0
  6 25  1  0  0  0
  6 99  1  0  0  0
  6100  1  0  0  0
  7  8  2  0  0  0
  7 26  1  0  0  0
  7 29  1  0  0  0
  8  9  1  0  0  0
  8 22  1  0  0  0
  9 10  1  0  0  0
  9 27  2  0  0  0
 10 11  2  0  0  0
 10 15  1  0  0  0
 11 12  1  0  0  0
 11101  1  0  0  0
 12 13  2  0  0  0
 12102  1  0  0  0
 13 14  1  0  0  0
 13 31  1  0  0  0
 14 15  2  0  0  0
 14103  1  0  0  0
 15104  1  0  0  0
 16 17  2  0  0  0
 16 21  1  0  0  0
 16 31  1  0  0  0
 17 18  1  0  0  0
 17105  1  0  0  0
 18 19  2  0  0  0
 18106  1  0  0  0
 19 20  1  0  0  0
 19 24  1  0  0  0
 20 21  2  0  0  0
 20107  1  0  0  0
 21 23  1  0  0  0
 22 28  1  0  0  0
 22 32  2  0  0  0
 26 27  1  0  0  0
 28108  1  0  0  0
 28109  1  0  0  0
 29110  1  0  0  0
 29111  1  0  0  0
 33 34  1  0  0  0
 33 66  1  0  0  0
 33 70  2  0  0  0
 34 36  1  0  0  0
 34 59  1  0  0  0
 34112  1  0  0  0
 35 44  2  0  0  0
 35 45  1  0  0  0
 35 68  1  0  0  0
 36 56  1  0  0  0
 36113  1  0  0  0
 37 39  1  0  0  0
 37 47  1  0  0  0
 37 66  1  0  0  0
 37114  1  0  0  0
 38 43  2  0  0  0
 38 46  1  0  0  0
 38 47  1  0  0  0
 39 64  1  0  0  0
 39 67  2  0  0  0
 40 52  1  0  0  0
 40 53  2  0  0  0
 40 58  1  0  0  0
 41115  1  0  0  0
 41116  1  0  0  0
 41117  1  0  0  0
 41 48  1  0  0  0
 42 43  1  0  0  0
 42 66  1  0  0  0
 42118  1  0  0  0
 42119  1  0  0  0
 43 44  1  0  0  0
 44120  1  0  0  0
 45 46  2  0  0  0
 45121  1  0  0  0
 46122  1  0  0  0
 47123  1  0  0  0
 47124  1  0  0  0
 48 56  1  0  0  0
 48 65  1  0  0  0
 48125  1  0  0  0
 49 50  1  0  0  0
 49 53  1  0  0  0
 49 64  1  0  0  0
 49126  1  0  0  0
 50 51  1  0  0  0
 50127  1  0  0  0
 50128  1  0  0  0
 51 52  1  0  0  0
 51129  1  0  0  0
 51130  1  0  0  0
 52131  1  0  0  0
 52132  1  0  0  0
 53 54  1  0  0  0
 54 55  2  0  0  0
 54133  1  0  0  0
 55 57  1  0  0  0
 55134  1  0  0  0
 56 69  2  0  0  0
 57 58  2  0  0  0
 57135  1  0  0  0
 58136  1  0  0  0
 59 60  1  0  0  0
 59 61  1  0  0  0
 59 62  1  0  0  0
 60137  1  0  0  0
 60138  1  0  0  0
 60139  1  0  0  0
 61140  1  0  0  0
 61141  1  0  0  0
 61142  1  0  0  0
 62143  1  0  0  0
 62144  1  0  0  0
 62145  1  0  0  0
 63 65  1  0  0  0
 63146  1  0  0  0
 63147  1  0  0  0
 63148  1  0  0  0
 64149  1  0  0  0
 65150  1  0  0  0
 68 86  1  0  0  0
 71 74  1  0  0  0
 71 87  1  0  0  0
 71 90  2  0  0  0
 72 75  1  0  0  0
 72 89  1  0  0  0
 72 91  2  0  0  0
 73 89  1  0  0  0
 73151  1  0  0  0
 73152  1  0  0  0
 73153  1  0  0  0
 74 76  1  0  0  0
 74154  1  0  0  0
 74155  1  0  0  0
 75 77  1  0  0  0
 75156  1  0  0  0
 75157  1  0  0  0
 76 78  1  0  0  0
 76158  1  0  0  0
 76159  1  0  0  0
 77 86  1  0  0  0
 77160  1  0  0  0
 77161  1  0  0  0
 78 80  1  0  0  0
 78162  1  0  0  0
 78163  1  0  0  0
 79 81  1  0  0  0
 79 82  1  0  0  0
 79164  1  0  0  0
 79165  1  0  0  0
 80 84  1  0  0  0
 80166  1  0  0  0
 80167  1  0  0  0
 81 83  1  0  0  0
 81168  1  0  0  0
 81169  1  0  0  0
 82 85  1  0  0  0
 82170  1  0  0  0
 82171  1  0  0  0
 83 87  1  0  0  0
 83172  1  0  0  0
 83173  1  0  0  0
 84 88  1  0  0  0
 84174  1  0  0  0
 84175  1  0  0  0
 85 89  1  0  0  0
 85176  1  0  0  0
 85177  1  0  0  0
 86178  1  0  0  0
 86179  1  0  0  0
 87180  1  0  0  0
 88181  1  0  0  0
M  ISO  4   1 100  68 101  86 101  88 100
M  END
> <chiral flag>
0

> <version>
0

> <s_m_source_file>
/data/baiqing/PycharmProjects/Reinvent-master-3.2/result/LINK_invent/BTK/process_docking_weight1_custom_sum_contain_oxygen_bond_distance_aromatic_linkinvent_7_9_3/rearranged_h_0006.sdf

> <i_m_source_file_index>
32

> <r_mmod_Potential_Energy-OPLS-2005>
365.520538330078

> <r_mmod_Stretch_Energy-OPLS-2005>
41.0319862365723

> <r_mmod_Bend_Energy-OPLS-2005>
466.954376220703

> <r_mmod_Torsional_Energy-OPLS-2005>
287.12744140625

> <r_mmod_Improper_Torsional_Energy-OPLS-2005>
9.55054378509521

> <r_mmod_Van_der_Waal_Energy-OPLS-2005>
204.915405273438

> <r_mmod_Electrostatic_Energy-OPLS-2005>
-449.264770507812

> <r_mmod_Solvation_Energy-OPLS-2005>
-246.792068481445

> <b_mmod_Minimization_Converged-OPLS-2005>
0

> <r_mmod_RMS_Derivative-OPLS-2005>
9.81142139434814

$$$$
32
                    3D
 Structure written by MMmdl.
173181  0  0  1  0            999 V2000
  -30.7204  -14.5366   20.3743 C   0  0  0  0  0  0
  -30.4306  -12.3160   19.3400 C   0  0  0  0  0  0
  -29.4416  -12.3056   18.1595 C   0  0  0  0  0  0
  -27.9707  -12.2712   18.6213 C   0  0  0  0  0  0
  -27.6419  -13.1793   19.8323 C   0  0  2  0  0  0
  -28.7340  -13.0896   20.9170 C   0  0  0  0  0  0
  -25.2596  -13.8136   20.5806 C   0  0  0  0  0  0
  -24.1852  -13.0403   20.9433 C   0  0  0  0  0  0
  -24.6415  -11.6883   20.8957 C   0  0  0  0  0  0
  -23.9086  -10.4224   21.0444 C   0  0  0  0  0  0
  -24.3583   -9.4070   21.9187 C   0  0  0  0  0  0
  -23.6255   -8.2112   22.0730 C   0  0  0  0  0  0
  -22.4266   -8.0221   21.3515 C   0  0  0  0  0  0
  -21.9933   -9.0220   20.4635 C   0  0  0  0  0  0
  -22.7279  -10.2075   20.3072 C   0  0  0  0  0  0
  -21.6815   -6.0676   22.5261 C   0  0  0  0  0  0
  -21.4012   -6.5604   23.8223 C   0  0  0  0  0  0
  -21.3709   -5.6757   24.9196 C   0  0  0  0  0  0
  -21.6076   -4.3023   24.7267 C   0  0  0  0  0  0
  -21.8807   -3.8128   23.4399 C   0  0  0  0  0  0
  -21.9122   -4.6905   22.3415 C   0  0  0  0  0  0
  -22.7838  -13.5172   21.2042 C   0  0  0  0  0  0
  -22.1546   -4.2064   21.1016 F   0  0  0  0  0  0
  -21.5698   -3.4497   25.7785 F   0  0  0  0  0  0
  -30.0209  -13.3744   20.2758 N   0  0  0  0  0  0
  -26.3013  -12.9240   20.3451 N   0  0  0  0  0  0
  -25.9359  -11.6446   20.6009 N   0  0  0  0  0  0
  -22.0391  -12.8167   22.0585 N   0  0  0  0  0  0
  -25.4249  -15.1832   20.3983 N   0  0  0  0  0  0
  -31.9280  -14.6125   20.1602 O   0  0  0  0  0  0
  -21.6576   -6.8835   21.4234 O   0  0  0  0  0  0
  -22.3555  -14.5389   20.6681 O   0  0  0  0  0  0
  -24.6090  -31.8734   23.2140 C   0  0  0  0  0  0
  -25.8998  -32.4866   23.8447 C   0  0  1  0  0  0
  -27.2432  -27.4856   20.0975 C   0  0  0  0  0  0
  -25.5863  -33.8668   24.2376 N   0  0  0  0  0  0
  -23.3961  -30.4940   21.5541 C   0  0  2  0  0  0
  -24.8432  -28.9586   20.1278 C   0  0  0  0  0  0
  -22.7391  -29.4693   22.5072 C   0  0  0  0  0  0
  -18.0258  -28.1393   22.8498 C   0  0  0  0  0  0
  -24.1486  -36.7338   23.2642 C   0  0  0  0  0  0
  -25.9180  -30.8527   21.3566 C   0  0  0  0  0  0
  -25.9990  -29.4861   20.7178 C   0  0  0  0  0  0
  -27.2034  -28.7576   20.7057 C   0  0  0  0  0  0
  -26.0712  -26.9452   19.5339 C   0  0  0  0  0  0
  -24.8695  -27.6809   19.5397 C   0  0  0  0  0  0
  -23.6026  -29.8174   20.1715 C   0  0  0  0  0  0
  -25.4101  -36.3161   24.0362 C   0  0  1  0  0  0
  -20.5854  -28.3651   23.1348 C   0  0  2  0  0  0
  -20.6767  -26.9401   22.5429 C   0  0  0  0  0  0
  -19.5759  -26.6394   21.5221 C   0  0  0  0  0  0
  -18.1931  -26.7916   22.1623 C   0  0  0  0  0  0
  -19.1505  -28.8835   23.2923 C   0  0  0  0  0  0
  -18.9434  -30.1440   23.8919 C   0  0  0  0  0  0
  -17.6453  -30.6589   24.0555 C   0  0  0  0  0  0
  -25.9008  -34.9509   23.5161 C   0  0  0  0  0  0
  -16.5350  -29.9094   23.6341 C   0  0  0  0  0  0
  -16.7249  -28.6526   23.0342 C   0  0  0  0  0  0
  -26.4454  -31.6614   25.0734 C   0  0  0  0  0  0
  -25.3710  -31.3648   26.1462 C   0  0  0  0  0  0
  -27.0273  -30.3088   24.6019 C   0  0  0  0  0  0
  -27.6092  -32.4287   25.7442 C   0  0  0  0  0  0
  -27.5594  -37.1822   24.8468 C   0  0  0  0  0  0
  -21.4129  -29.3019   22.3755 N   0  0  0  0  0  0
  -26.4316  -37.3841   23.9400 N   0  0  0  0  0  0
  -24.6589  -31.0863   22.1011 N   0  0  0  0  0  0
  -23.4177  -28.8233   23.3107 O   0  0  0  0  0  0
  -28.3969  -26.7520   20.0224 O   0  0  0  0  0  0
  -26.5613  -34.8949   22.4750 O   0  0  0  0  0  0
  -23.5293  -32.1466   23.7572 O   0  0  0  0  0  0
  -28.2119  -16.0549   17.0964 C   0  0  0  0  0  0
  -27.1441  -16.9051   17.4392 C   0  0  0  0  0  0
  -29.1833  -15.7230   18.0587 C   0  0  0  0  0  0
  -27.1147  -17.4845   18.7165 C   0  0  0  0  0  0
  -29.1009  -16.1837   19.3981 C   0  0  0  0  0  0
  -28.1034  -17.1667   19.6752 C   0  0  0  0  0  0
  -30.9494  -23.2552   17.4161 C   0  0  0  0  0  0
  -29.8286  -22.2615   17.7623 C   0  0  0  0  0  0
  -30.4663  -24.6180   16.8894 C   0  0  0  0  0  0
  -30.3413  -20.8150   17.7719 C   0  0  0  0  0  0
  -29.5854  -25.4470   17.8491 C   0  0  0  0  0  0
  -29.5183  -19.8932   18.6749 C   0  0  0  0  0  0
  -30.3843  -26.4920   18.6562 C   0  0  0  0  0  0
  -29.8940  -20.1094   20.1598 C   0  0  0  0  0  0
  -29.5129  -27.4521   19.4784 C   0  0  0  0  0  0
  -30.0150  -15.6963   20.3988 N   0  0  0  0  0  0
  -29.6326  -18.9672   21.0503 N   0  0  0  0  0  0
  -27.0991  -19.2639   21.0403 O   0  0  0  0  0  0
  -28.1394  -17.3432   22.3532 O   0  0  0  0  0  0
  -28.1023  -18.1979   21.1526 S   0  0  0  0  0  0
  -31.4363  -12.4817   18.9493 H   0  0  0  0  0  0
  -30.4647  -11.3470   19.8386 H   0  0  0  0  0  0
  -29.6271  -11.4358   17.5250 H   0  0  0  0  0  0
  -29.6031  -13.1412   17.4926 H   0  0  0  0  0  0
  -27.7488  -11.2319   18.8631 H   0  0  0  0  0  0
  -27.3155  -12.5342   17.7887 H   0  0  0  0  0  0
  -27.6140  -14.1890   19.4525 H   0  0  0  0  0  0
  -28.7664  -12.0897   21.3404 H   0  0  0  0  0  0
  -28.5528  -13.7970   21.7311 H   0  0  0  0  0  0
  -25.2713   -9.5526   22.4812 H   0  0  0  0  0  0
  -23.9937   -7.4505   22.7434 H   0  0  0  0  0  0
  -21.0846   -8.8741   19.8940 H   0  0  0  0  0  0
  -22.3715  -10.9618   19.6180 H   0  0  0  0  0  0
  -21.1979   -7.6130   23.9810 H   0  0  0  0  0  0
  -21.1563   -6.0415   25.9146 H   0  0  0  0  0  0
  -22.0538   -2.7603   23.2881 H   0  0  0  0  0  0
  -22.3915  -11.9841   22.5027 H   0  0  0  0  0  0
  -21.1005  -13.1181   22.2867 H   0  0  0  0  0  0
  -24.6127  -15.7929   20.3970 H   0  0  0  0  0  0
  -26.1809  -15.5448   19.8316 H   0  0  0  0  0  0
  -26.7074  -32.5605   23.1230 H   0  0  0  0  0  0
  -24.9967  -33.9822   25.0485 H   0  0  0  0  0  0
  -22.6815  -31.3094   21.4152 H   0  0  0  0  0  0
  -23.3759  -35.9666   23.3350 H   0  0  0  0  0  0
  -24.3574  -36.8888   22.2048 H   0  0  0  0  0  0
  -23.7211  -37.6550   23.6607 H   0  0  0  0  0  0
  -26.0079  -31.6132   20.5800 H   0  0  0  0  0  0
  -26.8141  -30.9243   21.9601 H   0  0  0  0  0  0
  -28.0917  -29.1661   21.1624 H   0  0  0  0  0  0
  -26.0968  -25.9657   19.0794 H   0  0  0  0  0  0
  -23.9792  -27.2552   19.0960 H   0  0  0  0  0  0
  -23.7062  -30.5867   19.4065 H   0  0  0  0  0  0
  -22.7296  -29.2307   19.8827 H   0  0  0  0  0  0
  -25.1271  -36.2086   25.0865 H   0  0  0  0  0  0
  -20.9929  -28.3208   24.1472 H   0  0  0  0  0  0
  -20.5693  -26.2257   23.3600 H   0  0  0  0  0  0
  -21.6633  -26.7471   22.1205 H   0  0  0  0  0  0
  -19.6909  -25.6309   21.1231 H   0  0  0  0  0  0
  -19.6694  -27.3213   20.6757 H   0  0  0  0  0  0
  -17.4205  -26.6685   21.4020 H   0  0  0  0  0  0
  -18.0315  -26.0053   22.9014 H   0  0  0  0  0  0
  -19.7914  -30.7247   24.2305 H   0  0  0  0  0  0
  -17.5001  -31.6258   24.5171 H   0  0  0  0  0  0
  -15.5338  -30.3003   23.7626 H   0  0  0  0  0  0
  -15.8657  -28.0830   22.7045 H   0  0  0  0  0  0
  -24.5901  -30.7008   25.7728 H   0  0  0  0  0  0
  -24.8859  -32.2756   26.4987 H   0  0  0  0  0  0
  -25.8044  -30.8729   27.0173 H   0  0  0  0  0  0
  -26.2773  -29.6839   24.1156 H   0  0  0  0  0  0
  -27.4172  -29.7341   25.4424 H   0  0  0  0  0  0
  -27.8557  -30.4465   23.9063 H   0  0  0  0  0  0
  -27.2808  -33.3586   26.2099 H   0  0  0  0  0  0
  -28.3840  -32.6835   25.0192 H   0  0  0  0  0  0
  -28.0838  -31.8334   26.5245 H   0  0  0  0  0  0
  -28.2655  -38.0094   24.7541 H   0  0  0  0  0  0
  -28.1059  -36.2627   24.6289 H   0  0  0  0  0  0
  -27.2306  -37.1476   25.8875 H   0  0  0  0  0  0
  -20.9307  -29.8702   21.6934 H   0  0  0  0  0  0
  -26.0229  -38.2936   24.1392 H   0  0  0  0  0  0
  -28.2687  -15.6522   16.0978 H   0  0  0  0  0  0
  -26.3674  -17.1501   16.7342 H   0  0  0  0  0  0
  -30.0012  -15.0931   17.7599 H   0  0  0  0  0  0
  -26.3392  -18.1989   18.9451 H   0  0  0  0  0  0
  -31.5976  -22.8085   16.6589 H   0  0  0  0  0  0
  -31.5764  -23.3814   18.2978 H   0  0  0  0  0  0
  -29.0081  -22.3335   17.0452 H   0  0  0  0  0  0
  -29.4013  -22.5220   18.7322 H   0  0  0  0  0  0
  -29.9168  -24.4490   15.9626 H   0  0  0  0  0  0
  -31.3387  -25.2037   16.5946 H   0  0  0  0  0  0
  -31.3883  -20.7889   18.0863 H   0  0  0  0  0  0
  -30.3311  -20.4277   16.7517 H   0  0  0  0  0  0
  -29.0291  -24.7952   18.5223 H   0  0  0  0  0  0
  -28.8226  -25.9595   17.2613 H   0  0  0  0  0  0
  -29.7073  -18.8728   18.3464 H   0  0  0  0  0  0
  -28.4523  -20.0847   18.5170 H   0  0  0  0  0  0
  -30.9972  -27.1004   17.9863 H   0  0  0  0  0  0
  -31.0787  -25.9808   19.3217 H   0  0  0  0  0  0
  -29.3728  -20.9800   20.5504 H   0  0  0  0  0  0
  -30.9578  -20.3325   20.2421 H   0  0  0  0  0  0
  -29.1886  -28.2735   18.8393 H   0  0  0  0  0  0
  -30.0970  -27.8924   20.2887 H   0  0  0  0  0  0
  -30.5548  -16.4204   20.8457 H   0  0  0  0  0  0
  -30.4169  -18.3283   21.1557 H   0  0  0  0  0  0
  1 25  1  0  0  0
  1 30  2  0  0  0
  1 86  1  0  0  0
  2  3  1  0  0  0
  2 25  1  0  0  0
  2 91  1  0  0  0
  2 92  1  0  0  0
  3  4  1  0  0  0
  3 93  1  0  0  0
  3 94  1  0  0  0
  4  5  1  0  0  0
  4 95  1  0  0  0
  4 96  1  0  0  0
  5  6  1  0  0  0
  5 26  1  0  0  0
  5 97  1  0  0  0
  6 25  1  0  0  0
  6 98  1  0  0  0
  6 99  1  0  0  0
  7  8  2  0  0  0
  7 26  1  0  0  0
  7 29  1  0  0  0
  8  9  1  0  0  0
  8 22  1  0  0  0
  9 10  1  0  0  0
  9 27  2  0  0  0
 10 11  2  0  0  0
 10 15  1  0  0  0
 11 12  1  0  0  0
 11100  1  0  0  0
 12 13  2  0  0  0
 12101  1  0  0  0
 13 14  1  0  0  0
 13 31  1  0  0  0
 14 15  2  0  0  0
 14102  1  0  0  0
 15103  1  0  0  0
 16 17  2  0  0  0
 16 21  1  0  0  0
 16 31  1  0  0  0
 17 18  1  0  0  0
 17104  1  0  0  0
 18 19  2  0  0  0
 18105  1  0  0  0
 19 20  1  0  0  0
 19 24  1  0  0  0
 20 21  2  0  0  0
 20106  1  0  0  0
 21 23  1  0  0  0
 22 28  1  0  0  0
 22 32  2  0  0  0
 26 27  1  0  0  0
 28107  1  0  0  0
 28108  1  0  0  0
 29109  1  0  0  0
 29110  1  0  0  0
 33 34  1  0  0  0
 33 66  1  0  0  0
 33 70  2  0  0  0
 34 36  1  0  0  0
 34 59  1  0  0  0
 34111  1  0  0  0
 35 44  2  0  0  0
 35 45  1  0  0  0
 35 68  1  0  0  0
 36 56  1  0  0  0
 36112  1  0  0  0
 37 39  1  0  0  0
 37 47  1  0  0  0
 37 66  1  0  0  0
 37113  1  0  0  0
 38 43  2  0  0  0
 38 46  1  0  0  0
 38 47  1  0  0  0
 39 64  1  0  0  0
 39 67  2  0  0  0
 40 52  1  0  0  0
 40 53  2  0  0  0
 40 58  1  0  0  0
 41114  1  0  0  0
 41115  1  0  0  0
 41116  1  0  0  0
 41 48  1  0  0  0
 42 43  1  0  0  0
 42 66  1  0  0  0
 42117  1  0  0  0
 42118  1  0  0  0
 43 44  1  0  0  0
 44119  1  0  0  0
 45 46  2  0  0  0
 45120  1  0  0  0
 46121  1  0  0  0
 47122  1  0  0  0
 47123  1  0  0  0
 48 56  1  0  0  0
 48 65  1  0  0  0
 48124  1  0  0  0
 49 50  1  0  0  0
 49 53  1  0  0  0
 49 64  1  0  0  0
 49125  1  0  0  0
 50 51  1  0  0  0
 50126  1  0  0  0
 50127  1  0  0  0
 51 52  1  0  0  0
 51128  1  0  0  0
 51129  1  0  0  0
 52130  1  0  0  0
 52131  1  0  0  0
 53 54  1  0  0  0
 54 55  2  0  0  0
 54132  1  0  0  0
 55 57  1  0  0  0
 55133  1  0  0  0
 56 69  2  0  0  0
 57 58  2  0  0  0
 57134  1  0  0  0
 58135  1  0  0  0
 59 60  1  0  0  0
 59 61  1  0  0  0
 59 62  1  0  0  0
 60136  1  0  0  0
 60137  1  0  0  0
 60138  1  0  0  0
 61139  1  0  0  0
 61140  1  0  0  0
 61141  1  0  0  0
 62142  1  0  0  0
 62143  1  0  0  0
 62144  1  0  0  0
 63 65  1  0  0  0
 63145  1  0  0  0
 63146  1  0  0  0
 63147  1  0  0  0
 64148  1  0  0  0
 65149  1  0  0  0
 68 85  1  0  0  0
 71 72  2  0  0  0
 71 73  1  0  0  0
 71150  1  0  0  0
 72 74  1  0  0  0
 72151  1  0  0  0
 73 75  2  0  0  0
 73152  1  0  0  0
 74 76  2  0  0  0
 74153  1  0  0  0
 75 76  1  0  0  0
 75 86  1  0  0  0
 76 90  1  0  0  0
 77 78  1  0  0  0
 77 79  1  0  0  0
 77154  1  0  0  0
 77155  1  0  0  0
 78 80  1  0  0  0
 78156  1  0  0  0
 78157  1  0  0  0
 79 81  1  0  0  0
 79158  1  0  0  0
 79159  1  0  0  0
 80 82  1  0  0  0
 80160  1  0  0  0
 80161  1  0  0  0
 81 83  1  0  0  0
 81162  1  0  0  0
 81163  1  0  0  0
 82 84  1  0  0  0
 82164  1  0  0  0
 82165  1  0  0  0
 83 85  1  0  0  0
 83166  1  0  0  0
 83167  1  0  0  0
 84 87  1  0  0  0
 84168  1  0  0  0
 84169  1  0  0  0
 85170  1  0  0  0
 85171  1  0  0  0
 86172  1  0  0  0
 87173  1  0  0  0
 87 90  1  0  0  0
 88 90  2  0  0  0
 89 90  2  0  0  0
M  ISO  4   1 100  68 101  85 101  86 100
M  END
> <chiral flag>
0

> <version>
0

> <s_m_source_file>
/data/baiqing/PycharmProjects/Reinvent-master-3.2/result/LINK_invent/BTK/process_docking_weight1_custom_sum_contain_oxygen_bond_distance_aromatic_linkinvent_7_9_3/rearranged_h_0006.sdf

> <i_m_source_file_index>
33

> <r_mmod_Potential_Energy-OPLS-2005>
96.5978546142578

> <r_mmod_Stretch_Energy-OPLS-2005>
36.4440116882324

> <r_mmod_Bend_Energy-OPLS-2005>
113.42317199707

> <r_mmod_Torsional_Energy-OPLS-2005>
317.680358886719

> <r_mmod_Improper_Torsional_Energy-OPLS-2005>
15.4832744598389

> <r_mmod_Van_der_Waal_Energy-OPLS-2005>
137.863479614258

> <r_mmod_Electrostatic_Energy-OPLS-2005>
-329.594146728516

> <r_mmod_Solvation_Energy-OPLS-2005>
-233.040603637695

> <b_mmod_Minimization_Converged-OPLS-2005>
0

> <r_mmod_RMS_Derivative-OPLS-2005>
9.56213760375977

$$$$
33
                    3D
 Structure written by MMmdl.
151159  0  0  1  0            999 V2000
  -30.5209  -15.0260   20.4026 C   0  0  0  0  0  0
  -30.4388  -12.6404   19.5032 C   0  0  0  0  0  0
  -29.5229  -12.5367   18.2614 C   0  0  0  0  0  0
  -28.0596  -12.3090   18.6832 C   0  0  0  0  0  0
  -27.6237  -13.2547   19.8323 C   0  0  2  0  0  0
  -28.6657  -13.3239   20.9684 C   0  0  0  0  0  0
  -25.2438  -13.8224   20.5719 C   0  0  0  0  0  0
  -24.1767  -13.0438   20.9242 C   0  0  0  0  0  0
  -24.6395  -11.6927   20.8764 C   0  0  0  0  0  0
  -23.9082  -10.4294   21.0413 C   0  0  0  0  0  0
  -24.3629   -9.4207   21.9188 C   0  0  0  0  0  0
  -23.6300   -8.2243   22.0756 C   0  0  0  0  0  0
  -22.4282   -8.0284   21.3545 C   0  0  0  0  0  0
  -21.9922   -9.0259   20.4647 C   0  0  0  0  0  0
  -22.7255  -10.2135   20.3059 C   0  0  0  0  0  0
  -21.6855   -6.0738   22.5279 C   0  0  0  0  0  0
  -21.4014   -6.5641   23.8213 C   0  0  0  0  0  0
  -21.3660   -5.6794   24.9175 C   0  0  0  0  0  0
  -21.6043   -4.3057   24.7225 C   0  0  0  0  0  0
  -21.8818   -3.8149   23.4346 C   0  0  0  0  0  0
  -21.9192   -4.6965   22.3402 C   0  0  0  0  0  0
  -22.7786  -13.5204   21.1892 C   0  0  0  0  0  0
  -22.1662   -4.2152   21.0980 F   0  0  0  0  0  0
  -21.5628   -3.4540   25.7738 F   0  0  0  0  0  0
  -29.9294  -13.7566   20.3582 N   0  0  0  0  0  0
  -26.2862  -12.9466   20.3233 N   0  0  0  0  0  0
  -25.9328  -11.6590   20.5741 N   0  0  0  0  0  0
  -22.0439  -12.8190   22.0446 N   0  0  0  0  0  0
  -25.4079  -15.1956   20.4128 N   0  0  0  0  0  0
  -31.7341  -15.0541   20.1654 O   0  0  0  0  0  0
  -21.6643   -6.8884   21.4242 O   0  0  0  0  0  0
  -22.3469  -14.5507   20.6735 O   0  0  0  0  0  0
  -24.6490  -31.8385   23.1832 C   0  0  0  0  0  0
  -25.9237  -32.4666   23.8244 C   0  0  1  0  0  0
  -27.2162  -27.0783   20.1608 C   0  0  0  0  0  0
  -25.5961  -33.8474   24.2157 N   0  0  0  0  0  0
  -23.4558  -30.4560   21.5300 C   0  0  2  0  0  0
  -24.9060  -28.8721   20.1111 C   0  0  0  0  0  0
  -22.7597  -29.4520   22.4838 C   0  0  0  0  0  0
  -18.0311  -28.1401   22.8475 C   0  0  0  0  0  0
  -24.1492  -36.7241   23.2645 C   0  0  0  0  0  0
  -26.0160  -30.6942   21.3905 C   0  0  0  0  0  0
  -26.0862  -29.2998   20.7323 C   0  0  0  0  0  0
  -27.2414  -28.4209   20.7361 C   0  0  0  0  0  0
  -26.0078  -26.7656   19.5002 C   0  0  0  0  0  0
  -24.8831  -27.6206   19.4779 C   0  0  0  0  0  0
  -23.6859  -29.7821   20.1511 C   0  0  0  0  0  0
  -25.4128  -36.3014   24.0311 C   0  0  1  0  0  0
  -20.5927  -28.3733   23.1222 C   0  0  2  0  0  0
  -20.6793  -26.9430   22.5404 C   0  0  0  0  0  0
  -19.5765  -26.6382   21.5215 C   0  0  0  0  0  0
  -18.1947  -26.7938   22.1626 C   0  0  0  0  0  0
  -19.1569  -28.8886   23.2840 C   0  0  0  0  0  0
  -18.9482  -30.1481   23.8868 C   0  0  0  0  0  0
  -17.6477  -30.6595   24.0559 C   0  0  0  0  0  0
  -25.9082  -34.9391   23.5047 C   0  0  0  0  0  0
  -16.5368  -29.9085   23.6339 C   0  0  0  0  0  0
  -16.7295  -28.6506   23.0358 C   0  0  0  0  0  0
  -26.4537  -31.6556   25.0712 C   0  0  0  0  0  0
  -25.3703  -31.3761   26.1394 C   0  0  0  0  0  0
  -27.0415  -30.2944   24.6340 C   0  0  0  0  0  0
  -27.6052  -32.4336   25.7505 C   0  0  0  0  0  0
  -27.5574  -37.1778   24.8466 C   0  0  0  0  0  0
  -21.4283  -29.3047   22.3585 N   0  0  0  0  0  0
  -26.4285  -37.3733   23.9408 N   0  0  0  0  0  0
  -24.7272  -31.0188   22.0892 N   0  0  0  0  0  0
  -23.4212  -28.8076   23.3018 O   0  0  0  0  0  0
  -28.2537  -26.0582   20.2310 O   0  0  0  0  0  0
  -26.5676  -34.8900   22.4631 O   0  0  0  0  0  0
  -23.5594  -32.1287   23.7016 O   0  0  0  0  0  0
  -31.3891  -18.1824   20.5585 C   0  0  0  0  0  0
  -30.8573  -20.6137   20.4842 C   0  0  0  0  0  0
  -29.1054  -18.9473   20.3732 C   0  0  0  0  0  0
  -31.7880  -19.5459   20.5785 C   0  0  0  0  0  0
  -30.0407  -17.7703   20.4610 C   0  0  0  0  0  0
  -29.4666  -20.4096   20.3746 C   0  0  0  0  0  0
  -27.9638  -24.5032   20.1109 C   0  0  0  0  0  0
  -28.9798  -23.1284   20.3311 C   0  0  0  0  0  0
  -33.2703  -19.8823   20.6854 C   0  0  0  0  0  0
  -29.7381  -16.2370   20.4856 N   0  0  0  0  0  0
  -28.5852  -21.6001   20.2728 O   0  0  0  0  0  0
  -33.9568  -18.9036   21.2768 F   0  0  0  0  0  0
  -33.7672  -20.0704   19.4635 F   0  0  0  0  0  0
  -33.4543  -20.9968   21.3948 F   0  0  0  0  0  0
  -31.4694  -12.8067   19.1859 H   0  0  0  0  0  0
  -30.4484  -11.7015   20.0592 H   0  0  0  0  0  0
  -29.8562  -11.7282   17.6095 H   0  0  0  0  0  0
  -29.5967  -13.4540   17.6751 H   0  0  0  0  0  0
  -27.9707  -11.2719   19.0088 H   0  0  0  0  0  0
  -27.3940  -12.4172   17.8259 H   0  0  0  0  0  0
  -27.5730  -14.2472   19.3836 H   0  0  0  0  0  0
  -28.7741  -12.3597   21.4674 H   0  0  0  0  0  0
  -28.3524  -14.0367   21.7329 H   0  0  0  0  0  0
  -25.2771   -9.5682   22.4768 H   0  0  0  0  0  0
  -24.0006   -7.4634   22.7477 H   0  0  0  0  0  0
  -21.0854   -8.8781   19.8952 H   0  0  0  0  0  0
  -22.3715  -10.9676   19.6171 H   0  0  0  0  0  0
  -21.2008   -7.6150   23.9717 H   0  0  0  0  0  0
  -21.1482   -6.0525   25.9078 H   0  0  0  0  0  0
  -22.0597   -2.7611   23.2846 H   0  0  0  0  0  0
  -22.4066  -11.9855   22.4833 H   0  0  0  0  0  0
  -21.1052  -13.1204   22.2651 H   0  0  0  0  0  0
  -24.6329  -15.8416   20.5185 H   0  0  0  0  0  0
  -26.2405  -15.6367   20.0454 H   0  0  0  0  0  0
  -26.7305  -32.5252   23.0969 H   0  0  0  0  0  0
  -25.0075  -33.9579   25.0283 H   0  0  0  0  0  0
  -22.7613  -31.2836   21.3712 H   0  0  0  0  0  0
  -23.3761  -35.9564   23.3289 H   0  0  0  0  0  0
  -24.3575  -36.8895   22.2062 H   0  0  0  0  0  0
  -23.7240  -37.6426   23.6699 H   0  0  0  0  0  0
  -26.1793  -31.4456   20.6169 H   0  0  0  0  0  0
  -26.8831  -30.7453   22.0372 H   0  0  0  0  0  0
  -28.1393  -28.7442   21.2438 H   0  0  0  0  0  0
  -25.8959  -25.8094   19.0124 H   0  0  0  0  0  0
  -23.9833  -27.2878   18.9790 H   0  0  0  0  0  0
  -23.8283  -30.5552   19.3952 H   0  0  0  0  0  0
  -22.7991  -29.2282   19.8381 H   0  0  0  0  0  0
  -25.1318  -36.1832   25.0803 H   0  0  0  0  0  0
  -21.0020  -28.3330   24.1343 H   0  0  0  0  0  0
  -20.5687  -26.2349   23.3631 H   0  0  0  0  0  0
  -21.6658  -26.7428   22.1201 H   0  0  0  0  0  0
  -19.6925  -25.6285   21.1264 H   0  0  0  0  0  0
  -19.6701  -27.3177   20.6733 H   0  0  0  0  0  0
  -17.4216  -26.6684   21.4030 H   0  0  0  0  0  0
  -18.0343  -26.0089   22.9030 H   0  0  0  0  0  0
  -19.7957  -30.7307   24.2223 H   0  0  0  0  0  0
  -17.5028  -31.6272   24.5167 H   0  0  0  0  0  0
  -15.5367  -30.2977   23.7679 H   0  0  0  0  0  0
  -15.8696  -28.0814   22.7088 H   0  0  0  0  0  0
  -24.5897  -30.7095   25.7710 H   0  0  0  0  0  0
  -24.8877  -32.2948   26.4738 H   0  0  0  0  0  0
  -25.7970  -30.8988   27.0225 H   0  0  0  0  0  0
  -26.3052  -29.6649   24.1331 H   0  0  0  0  0  0
  -27.3989  -29.7264   25.4940 H   0  0  0  0  0  0
  -27.8975  -30.4163   23.9699 H   0  0  0  0  0  0
  -27.2636  -33.3664   26.2004 H   0  0  0  0  0  0
  -28.3906  -32.6853   25.0365 H   0  0  0  0  0  0
  -28.0675  -31.8516   26.5488 H   0  0  0  0  0  0
  -28.2580  -38.0084   24.7512 H   0  0  0  0  0  0
  -28.1081  -36.2612   24.6296 H   0  0  0  0  0  0
  -27.2291  -37.1425   25.8869 H   0  0  0  0  0  0
  -20.9507  -29.8749   21.6745 H   0  0  0  0  0  0
  -26.0146  -38.2798   24.1411 H   0  0  0  0  0  0
  -32.1672  -17.4393   20.6311 H   0  0  0  0  0  0
  -31.2464  -21.6202   20.4947 H   0  0  0  0  0  0
  -28.0514  -18.7203   20.2977 H   0  0  0  0  0  0
  -27.1151  -24.3368   20.7749 H   0  0  0  0  0  0
  -27.5594  -24.3738   19.1076 H   0  0  0  0  0  0
  -29.4508  -23.2569   21.3057 H   0  0  0  0  0  0
  -29.7920  -23.2449   19.6135 H   0  0  0  0  0  0
  -28.7547  -16.0270   20.5658 H   0  0  0  0  0  0
  1 25  1  0  0  0
  1 30  2  0  0  0
  1 80  1  0  0  0
  2  3  1  0  0  0
  2 25  1  0  0  0
  2 85  1  0  0  0
  2 86  1  0  0  0
  3  4  1  0  0  0
  3 87  1  0  0  0
  3 88  1  0  0  0
  4  5  1  0  0  0
  4 89  1  0  0  0
  4 90  1  0  0  0
  5  6  1  0  0  0
  5 26  1  0  0  0
  5 91  1  0  0  0
  6 25  1  0  0  0
  6 92  1  0  0  0
  6 93  1  0  0  0
  7  8  2  0  0  0
  7 26  1  0  0  0
  7 29  1  0  0  0
  8  9  1  0  0  0
  8 22  1  0  0  0
  9 10  1  0  0  0
  9 27  2  0  0  0
 10 11  2  0  0  0
 10 15  1  0  0  0
 11 12  1  0  0  0
 11 94  1  0  0  0
 12 13  2  0  0  0
 12 95  1  0  0  0
 13 14  1  0  0  0
 13 31  1  0  0  0
 14 15  2  0  0  0
 14 96  1  0  0  0
 15 97  1  0  0  0
 16 17  2  0  0  0
 16 21  1  0  0  0
 16 31  1  0  0  0
 17 18  1  0  0  0
 17 98  1  0  0  0
 18 19  2  0  0  0
 18 99  1  0  0  0
 19 20  1  0  0  0
 19 24  1  0  0  0
 20 21  2  0  0  0
 20100  1  0  0  0
 21 23  1  0  0  0
 22 28  1  0  0  0
 22 32  2  0  0  0
 26 27  1  0  0  0
 28101  1  0  0  0
 28102  1  0  0  0
 29103  1  0  0  0
 29104  1  0  0  0
 33 34  1  0  0  0
 33 66  1  0  0  0
 33 70  2  0  0  0
 34 36  1  0  0  0
 34 59  1  0  0  0
 34105  1  0  0  0
 35 44  2  0  0  0
 35 45  1  0  0  0
 35 68  1  0  0  0
 36 56  1  0  0  0
 36106  1  0  0  0
 37 39  1  0  0  0
 37 47  1  0  0  0
 37 66  1  0  0  0
 37107  1  0  0  0
 38 43  2  0  0  0
 38 46  1  0  0  0
 38 47  1  0  0  0
 39 64  1  0  0  0
 39 67  2  0  0  0
 40 52  1  0  0  0
 40 53  2  0  0  0
 40 58  1  0  0  0
 41108  1  0  0  0
 41109  1  0  0  0
 41110  1  0  0  0
 41 48  1  0  0  0
 42 43  1  0  0  0
 42 66  1  0  0  0
 42111  1  0  0  0
 42112  1  0  0  0
 43 44  1  0  0  0
 44113  1  0  0  0
 45 46  2  0  0  0
 45114  1  0  0  0
 46115  1  0  0  0
 47116  1  0  0  0
 47117  1  0  0  0
 48 56  1  0  0  0
 48 65  1  0  0  0
 48118  1  0  0  0
 49 50  1  0  0  0
 49 53  1  0  0  0
 49 64  1  0  0  0
 49119  1  0  0  0
 50 51  1  0  0  0
 50120  1  0  0  0
 50121  1  0  0  0
 51 52  1  0  0  0
 51122  1  0  0  0
 51123  1  0  0  0
 52124  1  0  0  0
 52125  1  0  0  0
 53 54  1  0  0  0
 54 55  2  0  0  0
 54126  1  0  0  0
 55 57  1  0  0  0
 55127  1  0  0  0
 56 69  2  0  0  0
 57 58  2  0  0  0
 57128  1  0  0  0
 58129  1  0  0  0
 59 60  1  0  0  0
 59 61  1  0  0  0
 59 62  1  0  0  0
 60130  1  0  0  0
 60131  1  0  0  0
 60132  1  0  0  0
 61133  1  0  0  0
 61134  1  0  0  0
 61135  1  0  0  0
 62136  1  0  0  0
 62137  1  0  0  0
 62138  1  0  0  0
 63 65  1  0  0  0
 63139  1  0  0  0
 63140  1  0  0  0
 63141  1  0  0  0
 64142  1  0  0  0
 65143  1  0  0  0
 68 77  1  0  0  0
 71 74  2  0  0  0
 71 75  1  0  0  0
 71144  1  0  0  0
 72 74  1  0  0  0
 72 76  2  0  0  0
 72145  1  0  0  0
 73 75  2  0  0  0
 73 76  1  0  0  0
 73146  1  0  0  0
 74 79  1  0  0  0
 75 80  1  0  0  0
 76 81  1  0  0  0
 77 78  1  0  0  0
 77147  1  0  0  0
 77148  1  0  0  0
 78 81  1  0  0  0
 78149  1  0  0  0
 78150  1  0  0  0
 79 82  1  0  0  0
 79 83  1  0  0  0
 79 84  1  0  0  0
 80151  1  0  0  0
M  ISO  4   1 100  68 101  77 101  80 100
M  END
> <chiral flag>
0

> <version>
0

> <s_m_source_file>
/data/baiqing/PycharmProjects/Reinvent-master-3.2/result/LINK_invent/BTK/process_docking_weight1_custom_sum_contain_oxygen_bond_distance_aromatic_linkinvent_7_9_3/rearranged_h_0006.sdf

> <i_m_source_file_index>
34

> <r_mmod_Potential_Energy-OPLS-2005>
648.157043457031

> <r_mmod_Stretch_Energy-OPLS-2005>
331.558990478516

> <r_mmod_Bend_Energy-OPLS-2005>
282.4345703125

> <r_mmod_Torsional_Energy-OPLS-2005>
210.221786499023

> <r_mmod_Improper_Torsional_Energy-OPLS-2005>
4.89591407775879

> <r_mmod_Van_der_Waal_Energy-OPLS-2005>
135.702835083008

> <r_mmod_Electrostatic_Energy-OPLS-2005>
-353.998443603516

> <r_mmod_Solvation_Energy-OPLS-2005>
-211.974334716797

> <b_mmod_Minimization_Converged-OPLS-2005>
0

> <r_mmod_RMS_Derivative-OPLS-2005>
0.242191195487976

$$$$
34
                    3D
 Structure written by MMmdl.
162170  0  0  1  0            999 V2000
  -30.6209  -14.6186   20.5036 C   0  0  0  0  0  0
  -30.4387  -12.3781   19.4469 C   0  0  0  0  0  0
  -29.5069  -12.5049   18.2209 C   0  0  0  0  0  0
  -28.0292  -12.3440   18.6322 C   0  0  0  0  0  0
  -27.6549  -13.2110   19.8643 C   0  0  2  0  0  0
  -28.6987  -13.0510   20.9931 C   0  0  0  0  0  0
  -25.2584  -13.8163   20.5696 C   0  0  0  0  0  0
  -24.1838  -13.0434   20.9193 C   0  0  0  0  0  0
  -24.6396  -11.6904   20.8744 C   0  0  0  0  0  0
  -23.9060  -10.4291   21.0406 C   0  0  0  0  0  0
  -24.3611   -9.4208   21.9185 C   0  0  0  0  0  0
  -23.6291   -8.2240   22.0751 C   0  0  0  0  0  0
  -22.4273   -8.0279   21.3541 C   0  0  0  0  0  0
  -21.9906   -9.0252   20.4644 C   0  0  0  0  0  0
  -22.7232  -10.2136   20.3056 C   0  0  0  0  0  0
  -21.6852   -6.0738   22.5283 C   0  0  0  0  0  0
  -21.4013   -6.5641   23.8219 C   0  0  0  0  0  0
  -21.3661   -5.6790   24.9179 C   0  0  0  0  0  0
  -21.6042   -4.3054   24.7226 C   0  0  0  0  0  0
  -21.8820   -3.8148   23.4349 C   0  0  0  0  0  0
  -21.9194   -4.6965   22.3407 C   0  0  0  0  0  0
  -22.7866  -13.5243   21.1853 C   0  0  0  0  0  0
  -22.1661   -4.2153   21.0985 F   0  0  0  0  0  0
  -21.5627   -3.4541   25.7739 F   0  0  0  0  0  0
  -30.0164  -13.3919   20.4327 N   0  0  0  0  0  0
  -26.2999  -12.9327   20.3313 N   0  0  0  0  0  0
  -25.9322  -11.6491   20.5748 N   0  0  0  0  0  0
  -22.0496  -12.8237   22.0407 N   0  0  0  0  0  0
  -25.4311  -15.1882   20.4132 N   0  0  0  0  0  0
  -31.7820  -14.7846   20.1177 O   0  0  0  0  0  0
  -21.6634   -6.8879   21.4243 O   0  0  0  0  0  0
  -22.3561  -14.5547   20.6694 O   0  0  0  0  0  0
  -24.6251  -31.8612   23.2039 C   0  0  0  0  0  0
  -25.9104  -32.4785   23.8363 C   0  0  1  0  0  0
  -27.2195  -27.3323   20.1094 C   0  0  0  0  0  0
  -25.5927  -33.8586   24.2289 N   0  0  0  0  0  0
  -23.4170  -30.4874   21.5466 C   0  0  2  0  0  0
  -24.8614  -28.9476   20.1087 C   0  0  0  0  0  0
  -22.7467  -29.4634   22.4937 C   0  0  0  0  0  0
  -18.0286  -28.1384   22.8494 C   0  0  0  0  0  0
  -24.1486  -36.7299   23.2638 C   0  0  0  0  0  0
  -25.9581  -30.7963   21.3729 C   0  0  0  0  0  0
  -26.0308  -29.4263   20.7129 C   0  0  0  0  0  0
  -27.2134  -28.6305   20.7038 C   0  0  0  0  0  0
  -26.0256  -26.9070   19.4790 C   0  0  0  0  0  0
  -24.8601  -27.6926   19.4843 C   0  0  0  0  0  0
  -23.6296  -29.8258   20.1608 C   0  0  0  0  0  0
  -25.4110  -36.3089   24.0331 C   0  0  1  0  0  0
  -20.5887  -28.3683   23.1285 C   0  0  2  0  0  0
  -20.6773  -26.9409   22.5406 C   0  0  0  0  0  0
  -19.5750  -26.6384   21.5211 C   0  0  0  0  0  0
  -18.1930  -26.7924   22.1629 C   0  0  0  0  0  0
  -19.1541  -28.8851   23.2884 C   0  0  0  0  0  0
  -18.9462  -30.1453   23.8902 C   0  0  0  0  0  0
  -17.6464  -30.6587   24.0564 C   0  0  0  0  0  0
  -25.9049  -34.9456   23.5108 C   0  0  0  0  0  0
  -16.5355  -29.9088   23.6329 C   0  0  0  0  0  0
  -16.7273  -28.6504   23.0354 C   0  0  0  0  0  0
  -26.4493  -31.6589   25.0725 C   0  0  0  0  0  0
  -25.3737  -31.3732   26.1462 C   0  0  0  0  0  0
  -27.0327  -30.3014   24.6165 C   0  0  0  0  0  0
  -27.6048  -32.4327   25.7497 C   0  0  0  0  0  0
  -27.5580  -37.1806   24.8467 C   0  0  0  0  0  0
  -21.4184  -29.3044   22.3684 N   0  0  0  0  0  0
  -26.4291  -37.3782   23.9411 N   0  0  0  0  0  0
  -24.6857  -31.0647   22.0980 N   0  0  0  0  0  0
  -23.4200  -28.8166   23.3003 O   0  0  0  0  0  0
  -28.3386  -26.4882   20.1645 O   0  0  0  0  0  0
  -26.5617  -34.8923   22.4674 O   0  0  0  0  0  0
  -23.5420  -32.1401   23.7379 O   0  0  0  0  0  0
  -31.0158  -17.8130   20.2425 C   0  0  0  0  0  0
  -31.0237  -19.2344   20.1646 C   0  0  0  0  0  0
  -28.7817  -17.9095   21.1061 C   0  0  0  0  0  0
  -29.8935  -17.1059   20.7348 C   0  0  0  0  0  0
  -29.9296  -20.0569   20.5767 C   0  0  0  0  0  0
  -28.7852  -19.3409   21.0402 C   0  0  0  0  0  0
  -28.0533  -20.8521   23.6663 C   0  0  0  0  0  0
  -31.4134  -22.0141   20.6770 C   0  0  0  0  0  0
  -29.2449  -24.0220   20.4079 C   0  0  0  0  0  0
  -28.9712  -22.4646   20.1690 C   0  0  0  0  0  0
  -27.2627  -19.8815   22.7820 C   0  0  0  0  0  0
  -28.1153  -25.0395   19.9758 C   0  0  0  0  0  0
  -29.8008  -15.6522   20.8694 N   0  0  0  0  0  0
  -30.0429  -21.5022   20.5943 N   0  0  0  0  0  0
  -27.6630  -20.0363   21.4245 O   0  0  0  0  0  0
  -31.4798  -12.5033   19.1448 H   0  0  0  0  0  0
  -30.3723  -11.3787   19.8803 H   0  0  0  0  0  0
  -29.7687  -11.7584   17.4698 H   0  0  0  0  0  0
  -29.6516  -13.4783   17.7486 H   0  0  0  0  0  0
  -27.8649  -11.2897   18.8591 H   0  0  0  0  0  0
  -27.3749  -12.5780   17.7914 H   0  0  0  0  0  0
  -27.6769  -14.2482   19.5296 H   0  0  0  0  0  0
  -28.7060  -12.0249   21.3641 H   0  0  0  0  0  0
  -28.4465  -13.6738   21.8526 H   0  0  0  0  0  0
  -25.2759   -9.5686   22.4756 H   0  0  0  0  0  0
  -24.0005   -7.4633   22.7473 H   0  0  0  0  0  0
  -21.0833   -8.8770   19.8954 H   0  0  0  0  0  0
  -22.3688  -10.9672   19.6163 H   0  0  0  0  0  0
  -21.2001   -7.6148   23.9723 H   0  0  0  0  0  0
  -21.1481   -6.0520   25.9082 H   0  0  0  0  0  0
  -22.0597   -2.7612   23.2848 H   0  0  0  0  0  0
  -22.4099  -11.9899   22.4801 H   0  0  0  0  0  0
  -21.1116  -13.1272   22.2601 H   0  0  0  0  0  0
  -24.6620  -15.8404   20.5230 H   0  0  0  0  0  0
  -26.2720  -15.6258   20.0601 H   0  0  0  0  0  0
  -26.7168  -32.5454   23.1112 H   0  0  0  0  0  0
  -25.0078  -33.9735   25.0436 H   0  0  0  0  0  0
  -22.7098  -31.3073   21.4061 H   0  0  0  0  0  0
  -23.3749  -35.9635   23.3309 H   0  0  0  0  0  0
  -24.3580  -36.8908   22.2053 H   0  0  0  0  0  0
  -23.7244  -37.6504   23.6653 H   0  0  0  0  0  0
  -26.0893  -31.5620   20.6064 H   0  0  0  0  0  0
  -26.8390  -30.8421   22.0014 H   0  0  0  0  0  0
  -28.1105  -28.9929   21.1857 H   0  0  0  0  0  0
  -25.9593  -25.9504   18.9819 H   0  0  0  0  0  0
  -23.9638  -27.3208   19.0066 H   0  0  0  0  0  0
  -23.7487  -30.6036   19.4056 H   0  0  0  0  0  0
  -22.7494  -29.2561   19.8572 H   0  0  0  0  0  0
  -25.1289  -36.1946   25.0826 H   0  0  0  0  0  0
  -20.9980  -28.3257   24.1405 H   0  0  0  0  0  0
  -20.5678  -26.2295   23.3605 H   0  0  0  0  0  0
  -21.6639  -26.7442   22.1200 H   0  0  0  0  0  0
  -19.6911  -25.6296   21.1236 H   0  0  0  0  0  0
  -19.6683  -27.3201   20.6747 H   0  0  0  0  0  0
  -17.4196  -26.6674   21.4032 H   0  0  0  0  0  0
  -18.0332  -26.0064   22.9024 H   0  0  0  0  0  0
  -19.7941  -30.7263   24.2273 H   0  0  0  0  0  0
  -17.5023  -31.6267   24.5164 H   0  0  0  0  0  0
  -15.5357  -30.2995   23.7645 H   0  0  0  0  0  0
  -15.8670  -28.0820   22.7071 H   0  0  0  0  0  0
  -24.5892  -30.7101   25.7800 H   0  0  0  0  0  0
  -24.8955  -32.2902   26.4914 H   0  0  0  0  0  0
  -25.8067  -30.8891   27.0223 H   0  0  0  0  0  0
  -26.2891  -29.6778   24.1185 H   0  0  0  0  0  0
  -27.4024  -29.7256   25.4659 H   0  0  0  0  0  0
  -27.8764  -30.4305   23.9382 H   0  0  0  0  0  0
  -27.2645  -33.3616   26.2094 H   0  0  0  0  0  0
  -28.3851  -32.6914   25.0325 H   0  0  0  0  0  0
  -28.0730  -31.8447   26.5406 H   0  0  0  0  0  0
  -28.2599  -38.0097   24.7504 H   0  0  0  0  0  0
  -28.1068  -36.2629   24.6300 H   0  0  0  0  0  0
  -27.2297  -37.1462   25.8868 H   0  0  0  0  0  0
  -20.9355  -29.8782   21.6912 H   0  0  0  0  0  0
  -26.0175  -38.2859   24.1406 H   0  0  0  0  0  0
  -31.8981  -17.2814   19.9181 H   0  0  0  0  0  0
  -31.9268  -19.6827   19.7771 H   0  0  0  0  0  0
  -27.8878  -17.4168   21.4580 H   0  0  0  0  0  0
  -27.7330  -20.7819   24.7057 H   0  0  0  0  0  0
  -27.9057  -21.8825   23.3422 H   0  0  0  0  0  0
  -29.1226  -20.6414   23.6321 H   0  0  0  0  0  0
  -32.0640  -21.3519   21.2504 H   0  0  0  0  0  0
  -31.4572  -22.9730   21.1913 H   0  0  0  0  0  0
  -31.8383  -22.1422   19.6803 H   0  0  0  0  0  0
  -30.1510  -24.3087   19.8751 H   0  0  0  0  0  0
  -29.4487  -24.1821   21.4668 H   0  0  0  0  0  0
  -28.7759  -22.3001   19.1081 H   0  0  0  0  0  0
  -28.0429  -22.2182   20.6803 H   0  0  0  0  0  0
  -26.1994  -20.1127   22.8495 H   0  0  0  0  0  0
  -27.3743  -18.8592   23.1436 H   0  0  0  0  0  0
  -27.2146  -24.7496   20.5207 H   0  0  0  0  0  0
  -27.9101  -24.8686   18.9184 H   0  0  0  0  0  0
  -28.9073  -15.3203   21.1985 H   0  0  0  0  0  0
  1 25  1  0  0  0
  1 30  2  0  0  0
  1 83  1  0  0  0
  2  3  1  0  0  0
  2 25  1  0  0  0
  2 86  1  0  0  0
  2 87  1  0  0  0
  3  4  1  0  0  0
  3 88  1  0  0  0
  3 89  1  0  0  0
  4  5  1  0  0  0
  4 90  1  0  0  0
  4 91  1  0  0  0
  5  6  1  0  0  0
  5 26  1  0  0  0
  5 92  1  0  0  0
  6 25  1  0  0  0
  6 93  1  0  0  0
  6 94  1  0  0  0
  7  8  2  0  0  0
  7 26  1  0  0  0
  7 29  1  0  0  0
  8  9  1  0  0  0
  8 22  1  0  0  0
  9 10  1  0  0  0
  9 27  2  0  0  0
 10 11  2  0  0  0
 10 15  1  0  0  0
 11 12  1  0  0  0
 11 95  1  0  0  0
 12 13  2  0  0  0
 12 96  1  0  0  0
 13 14  1  0  0  0
 13 31  1  0  0  0
 14 15  2  0  0  0
 14 97  1  0  0  0
 15 98  1  0  0  0
 16 17  2  0  0  0
 16 21  1  0  0  0
 16 31  1  0  0  0
 17 18  1  0  0  0
 17 99  1  0  0  0
 18 19  2  0  0  0
 18100  1  0  0  0
 19 20  1  0  0  0
 19 24  1  0  0  0
 20 21  2  0  0  0
 20101  1  0  0  0
 21 23  1  0  0  0
 22 28  1  0  0  0
 22 32  2  0  0  0
 26 27  1  0  0  0
 28102  1  0  0  0
 28103  1  0  0  0
 29104  1  0  0  0
 29105  1  0  0  0
 33 34  1  0  0  0
 33 66  1  0  0  0
 33 70  2  0  0  0
 34 36  1  0  0  0
 34 59  1  0  0  0
 34106  1  0  0  0
 35 44  2  0  0  0
 35 45  1  0  0  0
 35 68  1  0  0  0
 36 56  1  0  0  0
 36107  1  0  0  0
 37 39  1  0  0  0
 37 47  1  0  0  0
 37 66  1  0  0  0
 37108  1  0  0  0
 38 43  2  0  0  0
 38 46  1  0  0  0
 38 47  1  0  0  0
 39 64  1  0  0  0
 39 67  2  0  0  0
 40 52  1  0  0  0
 40 53  2  0  0  0
 40 58  1  0  0  0
 41109  1  0  0  0
 41110  1  0  0  0
 41111  1  0  0  0
 41 48  1  0  0  0
 42 43  1  0  0  0
 42 66  1  0  0  0
 42112  1  0  0  0
 42113  1  0  0  0
 43 44  1  0  0  0
 44114  1  0  0  0
 45 46  2  0  0  0
 45115  1  0  0  0
 46116  1  0  0  0
 47117  1  0  0  0
 47118  1  0  0  0
 48 56  1  0  0  0
 48 65  1  0  0  0
 48119  1  0  0  0
 49 50  1  0  0  0
 49 53  1  0  0  0
 49 64  1  0  0  0
 49120  1  0  0  0
 50 51  1  0  0  0
 50121  1  0  0  0
 50122  1  0  0  0
 51 52  1  0  0  0
 51123  1  0  0  0
 51124  1  0  0  0
 52125  1  0  0  0
 52126  1  0  0  0
 53 54  1  0  0  0
 54 55  2  0  0  0
 54127  1  0  0  0
 55 57  1  0  0  0
 55128  1  0  0  0
 56 69  2  0  0  0
 57 58  2  0  0  0
 57129  1  0  0  0
 58130  1  0  0  0
 59 60  1  0  0  0
 59 61  1  0  0  0
 59 62  1  0  0  0
 60131  1  0  0  0
 60132  1  0  0  0
 60133  1  0  0  0
 61134  1  0  0  0
 61135  1  0  0  0
 61136  1  0  0  0
 62137  1  0  0  0
 62138  1  0  0  0
 62139  1  0  0  0
 63 65  1  0  0  0
 63140  1  0  0  0
 63141  1  0  0  0
 63142  1  0  0  0
 64143  1  0  0  0
 65144  1  0  0  0
 68 82  1  0  0  0
 71 72  2  0  0  0
 71 74  1  0  0  0
 71145  1  0  0  0
 72 75  1  0  0  0
 72146  1  0  0  0
 73 74  2  0  0  0
 73 76  1  0  0  0
 73147  1  0  0  0
 74 83  1  0  0  0
 75 76  2  0  0  0
 75 84  1  0  0  0
 76 85  1  0  0  0
 77 81  1  0  0  0
 77148  1  0  0  0
 77149  1  0  0  0
 77150  1  0  0  0
 78 84  1  0  0  0
 78151  1  0  0  0
 78152  1  0  0  0
 78153  1  0  0  0
 79 80  1  0  0  0
 79 82  1  0  0  0
 79154  1  0  0  0
 79155  1  0  0  0
 80 84  1  0  0  0
 80156  1  0  0  0
 80157  1  0  0  0
 81 85  1  0  0  0
 81158  1  0  0  0
 81159  1  0  0  0
 82160  1  0  0  0
 82161  1  0  0  0
 83162  1  0  0  0
M  ISO  4   1 100  68 101  82 101  83 100
M  END
> <chiral flag>
0

> <version>
0

> <s_m_source_file>
/data/baiqing/PycharmProjects/Reinvent-master-3.2/result/LINK_invent/BTK/process_docking_weight1_custom_sum_contain_oxygen_bond_distance_aromatic_linkinvent_7_9_3/rearranged_h_0006.sdf

> <i_m_source_file_index>
35

> <r_mmod_Potential_Energy-OPLS-2005>
77.8056106567383

> <r_mmod_Stretch_Energy-OPLS-2005>
78.5779647827148

> <r_mmod_Bend_Energy-OPLS-2005>
146.396057128906

> <r_mmod_Torsional_Energy-OPLS-2005>
234.311386108398

> <r_mmod_Improper_Torsional_Energy-OPLS-2005>
4.91476202011108

> <r_mmod_Van_der_Waal_Energy-OPLS-2005>
158.973556518555

> <r_mmod_Electrostatic_Energy-OPLS-2005>
-366.064758300781

> <r_mmod_Solvation_Energy-OPLS-2005>
-222.357696533203

> <b_mmod_Minimization_Converged-OPLS-2005>
0

> <r_mmod_RMS_Derivative-OPLS-2005>
1.04982244968414

$$$$
35
                    3D
 Structure written by MMmdl.
173181  0  0  1  0            999 V2000
  -30.7329  -14.4322   20.6151 C   0  0  0  0  0  0
  -30.3973  -12.3204   19.3765 C   0  0  0  0  0  0
  -29.4548  -12.5184   18.1747 C   0  0  0  0  0  0
  -27.9781  -12.3877   18.5943 C   0  0  0  0  0  0
  -27.6339  -13.2177   19.8576 C   0  0  2  0  0  0
  -28.6857  -13.0008   20.9707 C   0  0  0  0  0  0
  -25.2342  -13.8077   20.5600 C   0  0  0  0  0  0
  -24.1720  -13.0352   20.9180 C   0  0  0  0  0  0
  -24.6374  -11.6852   20.8781 C   0  0  0  0  0  0
  -23.9055  -10.4254   21.0428 C   0  0  0  0  0  0
  -24.3608   -9.4188   21.9230 C   0  0  0  0  0  0
  -23.6274   -8.2223   22.0759 C   0  0  0  0  0  0
  -22.4254   -8.0262   21.3546 C   0  0  0  0  0  0
  -21.9911   -9.0263   20.4653 C   0  0  0  0  0  0
  -22.7222  -10.2131   20.3069 C   0  0  0  0  0  0
  -21.6842   -6.0739   22.5316 C   0  0  0  0  0  0
  -21.3999   -6.5635   23.8253 C   0  0  0  0  0  0
  -21.3647   -5.6771   24.9206 C   0  0  0  0  0  0
  -21.6064   -4.3048   24.7262 C   0  0  0  0  0  0
  -21.8834   -3.8145   23.4362 C   0  0  0  0  0  0
  -21.9167   -4.6974   22.3407 C   0  0  0  0  0  0
  -22.7743  -13.5144   21.1789 C   0  0  0  0  0  0
  -22.1615   -4.2182   21.0986 F   0  0  0  0  0  0
  -21.5647   -3.4497   25.7746 F   0  0  0  0  0  0
  -30.0132  -13.2966   20.4070 N   0  0  0  0  0  0
  -26.2866  -12.9368   20.3332 N   0  0  0  0  0  0
  -25.9292  -11.6493   20.5780 N   0  0  0  0  0  0
  -22.0281  -12.8282   22.0342 N   0  0  0  0  0  0
  -25.3638  -15.1792   20.3889 N   0  0  0  0  0  0
  -31.8558  -14.6117   20.1387 O   0  0  0  0  0  0
  -21.6630   -6.8851   21.4246 O   0  0  0  0  0  0
  -22.3427  -14.5388   20.6482 O   0  0  0  0  0  0
  -24.6062  -31.8752   23.2228 C   0  0  0  0  0  0
  -25.8987  -32.4901   23.8457 C   0  0  1  0  0  0
  -27.2222  -27.4866   20.0636 C   0  0  0  0  0  0
  -25.5891  -33.8698   24.2393 N   0  0  0  0  0  0
  -23.3866  -30.5052   21.5671 C   0  0  2  0  0  0
  -24.8294  -28.9951   20.1054 C   0  0  0  0  0  0
  -22.7321  -29.4687   22.5080 C   0  0  0  0  0  0
  -18.0239  -28.1341   22.8519 C   0  0  0  0  0  0
  -24.1479  -36.7311   23.2645 C   0  0  0  0  0  0
  -25.9127  -30.8601   21.3607 C   0  0  0  0  0  0
  -25.9886  -29.4979   20.7058 C   0  0  0  0  0  0
  -27.1823  -28.7466   20.6980 C   0  0  0  0  0  0
  -26.0423  -26.9977   19.4517 C   0  0  0  0  0  0
  -24.8550  -27.7452   19.4669 C   0  0  0  0  0  0
  -23.5794  -29.8442   20.1752 C   0  0  0  0  0  0
  -25.4109  -36.3155   24.0349 C   0  0  1  0  0  0
  -20.5830  -28.3622   23.1383 C   0  0  2  0  0  0
  -20.6754  -26.9376   22.5444 C   0  0  0  0  0  0
  -19.5741  -26.6366   21.5224 C   0  0  0  0  0  0
  -18.1896  -26.7920   22.1597 C   0  0  0  0  0  0
  -19.1475  -28.8803   23.2959 C   0  0  0  0  0  0
  -18.9421  -30.1439   23.8929 C   0  0  0  0  0  0
  -17.6416  -30.6596   24.0537 C   0  0  0  0  0  0
  -25.9020  -34.9524   23.5159 C   0  0  0  0  0  0
  -16.5300  -29.9082   23.6318 C   0  0  0  0  0  0
  -16.7219  -28.6472   23.0372 C   0  0  0  0  0  0
  -26.4449  -31.6647   25.0742 C   0  0  0  0  0  0
  -25.3733  -31.3708   26.1488 C   0  0  0  0  0  0
  -27.0267  -30.3111   24.6032 C   0  0  0  0  0  0
  -27.6058  -32.4325   25.7477 C   0  0  0  0  0  0
  -27.5598  -37.1814   24.8480 C   0  0  0  0  0  0
  -21.4052  -29.3021   22.3821 N   0  0  0  0  0  0
  -26.4316  -37.3844   23.9426 N   0  0  0  0  0  0
  -24.6552  -31.0912   22.1108 N   0  0  0  0  0  0
  -23.4147  -28.8156   23.3023 O   0  0  0  0  0  0
  -28.4189  -26.8027   20.0679 O   0  0  0  0  0  0
  -26.5581  -34.8971   22.4700 O   0  0  0  0  0  0
  -23.5286  -32.1455   23.7727 O   0  0  0  0  0  0
  -29.0312  -16.6037   19.3945 C   0  0  0  0  0  0
  -28.1071  -16.7626   21.6378 C   0  0  0  0  0  0
  -28.0193  -17.4669   18.9225 C   0  0  0  0  0  0
  -27.1148  -17.6460   21.1651 C   0  0  0  0  0  0
  -29.0790  -16.2388   20.7608 C   0  0  0  0  0  0
  -27.0531  -18.0005   19.8042 C   0  0  0  0  0  0
  -27.0439  -22.6372   16.3749 C   0  0  0  0  0  0
  -26.1716  -21.1196   14.6160 C   0  0  0  0  0  0
  -27.9288  -23.3611   15.3318 C   0  0  0  0  0  0
  -28.1990  -24.8417   15.6860 C   0  0  0  0  0  0
  -29.2479  -25.0381   16.8013 C   0  0  0  0  0  0
  -28.9219  -26.1975   17.7611 C   0  0  0  0  0  0
  -25.8241  -19.2957   16.9946 C   0  0  0  0  0  0
  -25.4949  -20.8032   16.9808 C   0  0  0  0  0  0
  -28.5997  -25.7052   19.1848 C   0  0  0  0  0  0
  -25.3086  -18.5799   18.2545 C   0  0  0  0  0  0
  -30.1242  -15.4291   21.2829 N   0  0  0  0  0  0
  -26.3097  -21.5544   16.0089 N   0  0  0  0  0  0
  -27.0399  -23.0576   17.5337 O   0  0  0  0  0  0
  -26.0749  -18.8906   19.4184 O   0  0  0  0  0  0
  -31.4335  -12.4273   19.0534 H   0  0  0  0  0  0
  -30.3036  -11.3066   19.7685 H   0  0  0  0  0  0
  -29.6807  -11.7992   17.3878 H   0  0  0  0  0  0
  -29.6210  -13.5032   17.7364 H   0  0  0  0  0  0
  -27.7553  -11.3302   18.7601 H   0  0  0  0  0  0
  -27.3291  -12.6980   17.7743 H   0  0  0  0  0  0
  -27.6494  -14.2614   19.5533 H   0  0  0  0  0  0
  -28.6626  -11.9673   21.3226 H   0  0  0  0  0  0
  -28.4497  -13.6136   21.8424 H   0  0  0  0  0  0
  -25.2718   -9.5695   22.4873 H   0  0  0  0  0  0
  -23.9973   -7.4615   22.7470 H   0  0  0  0  0  0
  -21.0843   -8.8797   19.8978 H   0  0  0  0  0  0
  -22.3664  -10.9705   19.6205 H   0  0  0  0  0  0
  -21.1972   -7.6151   23.9811 H   0  0  0  0  0  0
  -21.1429   -6.0444   25.9120 H   0  0  0  0  0  0
  -22.0619   -2.7603   23.2820 H   0  0  0  0  0  0
  -22.3788  -12.0102   22.5121 H   0  0  0  0  0  0
  -21.0908  -13.1486   22.2293 H   0  0  0  0  0  0
  -24.5497  -15.7691   20.5150 H   0  0  0  0  0  0
  -26.2123  -15.6935   20.1966 H   0  0  0  0  0  0
  -26.7045  -32.5625   23.1238 H   0  0  0  0  0  0
  -25.0166  -33.9879   25.0620 H   0  0  0  0  0  0
  -22.6715  -31.3226   21.4444 H   0  0  0  0  0  0
  -23.3779  -35.9606   23.3316 H   0  0  0  0  0  0
  -24.3619  -36.8909   22.2072 H   0  0  0  0  0  0
  -23.7150  -37.6496   23.6618 H   0  0  0  0  0  0
  -25.9991  -31.6289   20.5907 H   0  0  0  0  0  0
  -26.8104  -30.9366   21.9600 H   0  0  0  0  0  0
  -28.0731  -29.1441   21.1634 H   0  0  0  0  0  0
  -25.9986  -26.0561   18.9295 H   0  0  0  0  0  0
  -23.9724  -27.3668   18.9703 H   0  0  0  0  0  0
  -23.6516  -30.6255   19.4168 H   0  0  0  0  0  0
  -22.7086  -29.2469   19.8944 H   0  0  0  0  0  0
  -25.1261  -36.2082   25.0852 H   0  0  0  0  0  0
  -20.9911  -28.3185   24.1513 H   0  0  0  0  0  0
  -20.5731  -26.2182   23.3605 H   0  0  0  0  0  0
  -21.6623  -26.7521   22.1182 H   0  0  0  0  0  0
  -19.6906  -25.6277   21.1258 H   0  0  0  0  0  0
  -19.6717  -27.3187   20.6777 H   0  0  0  0  0  0
  -17.4201  -26.6751   21.3962 H   0  0  0  0  0  0
  -18.0268  -26.0038   22.8973 H   0  0  0  0  0  0
  -19.7894  -30.7277   24.2287 H   0  0  0  0  0  0
  -17.4948  -31.6292   24.5102 H   0  0  0  0  0  0
  -15.5287  -30.2963   23.7654 H   0  0  0  0  0  0
  -15.8621  -28.0788   22.7079 H   0  0  0  0  0  0
  -24.5899  -30.7089   25.7802 H   0  0  0  0  0  0
  -24.8927  -32.2853   26.4955 H   0  0  0  0  0  0
  -25.8087  -30.8845   27.0217 H   0  0  0  0  0  0
  -26.2796  -29.6885   24.1112 H   0  0  0  0  0  0
  -27.4116  -29.7335   25.4433 H   0  0  0  0  0  0
  -27.8578  -30.4464   23.9111 H   0  0  0  0  0  0
  -27.2709  -33.3610   26.2091 H   0  0  0  0  0  0
  -28.3831  -32.6893   25.0280 H   0  0  0  0  0  0
  -28.0738  -31.8412   26.5345 H   0  0  0  0  0  0
  -28.2617  -38.0117   24.7575 H   0  0  0  0  0  0
  -28.1080  -36.2656   24.6229 H   0  0  0  0  0  0
  -27.2336  -37.1402   25.8892 H   0  0  0  0  0  0
  -20.9155  -29.8711   21.7042 H   0  0  0  0  0  0
  -26.0207  -38.2925   24.1465 H   0  0  0  0  0  0
  -29.7791  -16.2513   18.6988 H   0  0  0  0  0  0
  -28.1162  -16.4984   22.6859 H   0  0  0  0  0  0
  -28.0343  -17.7230   17.8801 H   0  0  0  0  0  0
  -26.3764  -18.0381   21.8490 H   0  0  0  0  0  0
  -25.7191  -21.8983   14.0004 H   0  0  0  0  0  0
  -25.5361  -20.2394   14.5196 H   0  0  0  0  0  0
  -27.1514  -20.8621   14.2113 H   0  0  0  0  0  0
  -27.4640  -23.3428   14.3457 H   0  0  0  0  0  0
  -28.8640  -22.8104   15.2313 H   0  0  0  0  0  0
  -27.2515  -25.3033   15.9646 H   0  0  0  0  0  0
  -28.5349  -25.3872   14.8024 H   0  0  0  0  0  0
  -30.2178  -25.2133   16.3399 H   0  0  0  0  0  0
  -29.3829  -24.1235   17.3744 H   0  0  0  0  0  0
  -28.0962  -26.7917   17.3659 H   0  0  0  0  0  0
  -29.7691  -26.8839   17.8098 H   0  0  0  0  0  0
  -26.8921  -19.1498   16.8533 H   0  0  0  0  0  0
  -25.3389  -18.8158   16.1447 H   0  0  0  0  0  0
  -25.6409  -21.1805   17.9940 H   0  0  0  0  0  0
  -24.4385  -20.9691   16.7653 H   0  0  0  0  0  0
  -29.4376  -25.1271   19.5786 H   0  0  0  0  0  0
  -27.7585  -25.0142   19.2069 H   0  0  0  0  0  0
  -25.2399  -17.5003   18.0995 H   0  0  0  0  0  0
  -24.2863  -18.9099   18.4459 H   0  0  0  0  0  0
  -30.7859  -15.9715   21.8222 H   0  0  0  0  0  0
  1 25  1  0  0  0
  1 30  2  0  0  0
  1 87  1  0  0  0
  2  3  1  0  0  0
  2 25  1  0  0  0
  2 91  1  0  0  0
  2 92  1  0  0  0
  3  4  1  0  0  0
  3 93  1  0  0  0
  3 94  1  0  0  0
  4  5  1  0  0  0
  4 95  1  0  0  0
  4 96  1  0  0  0
  5  6  1  0  0  0
  5 26  1  0  0  0
  5 97  1  0  0  0
  6 25  1  0  0  0
  6 98  1  0  0  0
  6 99  1  0  0  0
  7  8  2  0  0  0
  7 26  1  0  0  0
  7 29  1  0  0  0
  8  9  1  0  0  0
  8 22  1  0  0  0
  9 10  1  0  0  0
  9 27  2  0  0  0
 10 11  2  0  0  0
 10 15  1  0  0  0
 11 12  1  0  0  0
 11100  1  0  0  0
 12 13  2  0  0  0
 12101  1  0  0  0
 13 14  1  0  0  0
 13 31  1  0  0  0
 14 15  2  0  0  0
 14102  1  0  0  0
 15103  1  0  0  0
 16 17  2  0  0  0
 16 21  1  0  0  0
 16 31  1  0  0  0
 17 18  1  0  0  0
 17104  1  0  0  0
 18 19  2  0  0  0
 18105  1  0  0  0
 19 20  1  0  0  0
 19 24  1  0  0  0
 20 21  2  0  0  0
 20106  1  0  0  0
 21 23  1  0  0  0
 22 28  1  0  0  0
 22 32  2  0  0  0
 26 27  1  0  0  0
 28107  1  0  0  0
 28108  1  0  0  0
 29109  1  0  0  0
 29110  1  0  0  0
 33 34  1  0  0  0
 33 66  1  0  0  0
 33 70  2  0  0  0
 34 36  1  0  0  0
 34 59  1  0  0  0
 34111  1  0  0  0
 35 44  2  0  0  0
 35 45  1  0  0  0
 35 68  1  0  0  0
 36 56  1  0  0  0
 36112  1  0  0  0
 37 39  1  0  0  0
 37 47  1  0  0  0
 37 66  1  0  0  0
 37113  1  0  0  0
 38 43  2  0  0  0
 38 46  1  0  0  0
 38 47  1  0  0  0
 39 64  1  0  0  0
 39 67  2  0  0  0
 40 52  1  0  0  0
 40 53  2  0  0  0
 40 58  1  0  0  0
 41114  1  0  0  0
 41115  1  0  0  0
 41116  1  0  0  0
 41 48  1  0  0  0
 42 43  1  0  0  0
 42 66  1  0  0  0
 42117  1  0  0  0
 42118  1  0  0  0
 43 44  1  0  0  0
 44119  1  0  0  0
 45 46  2  0  0  0
 45120  1  0  0  0
 46121  1  0  0  0
 47122  1  0  0  0
 47123  1  0  0  0
 48 56  1  0  0  0
 48 65  1  0  0  0
 48124  1  0  0  0
 49 50  1  0  0  0
 49 53  1  0  0  0
 49 64  1  0  0  0
 49125  1  0  0  0
 50 51  1  0  0  0
 50126  1  0  0  0
 50127  1  0  0  0
 51 52  1  0  0  0
 51128  1  0  0  0
 51129  1  0  0  0
 52130  1  0  0  0
 52131  1  0  0  0
 53 54  1  0  0  0
 54 55  2  0  0  0
 54132  1  0  0  0
 55 57  1  0  0  0
 55133  1  0  0  0
 56 69  2  0  0  0
 57 58  2  0  0  0
 57134  1  0  0  0
 58135  1  0  0  0
 59 60  1  0  0  0
 59 61  1  0  0  0
 59 62  1  0  0  0
 60136  1  0  0  0
 60137  1  0  0  0
 60138  1  0  0  0
 61139  1  0  0  0
 61140  1  0  0  0
 61141  1  0  0  0
 62142  1  0  0  0
 62143  1  0  0  0
 62144  1  0  0  0
 63 65  1  0  0  0
 63145  1  0  0  0
 63146  1  0  0  0
 63147  1  0  0  0
 64148  1  0  0  0
 65149  1  0  0  0
 68 85  1  0  0  0
 71 73  2  0  0  0
 71 75  1  0  0  0
 71150  1  0  0  0
 72 74  1  0  0  0
 72 75  2  0  0  0
 72151  1  0  0  0
 73 76  1  0  0  0
 73152  1  0  0  0
 74 76  2  0  0  0
 74153  1  0  0  0
 75 87  1  0  0  0
 76 90  1  0  0  0
 77 79  1  0  0  0
 77 88  1  0  0  0
 77 89  2  0  0  0
 78 88  1  0  0  0
 78154  1  0  0  0
 78155  1  0  0  0
 78156  1  0  0  0
 79 80  1  0  0  0
 79157  1  0  0  0
 79158  1  0  0  0
 80 81  1  0  0  0
 80159  1  0  0  0
 80160  1  0  0  0
 81 82  1  0  0  0
 81161  1  0  0  0
 81162  1  0  0  0
 82 85  1  0  0  0
 82163  1  0  0  0
 82164  1  0  0  0
 83 84  1  0  0  0
 83 86  1  0  0  0
 83165  1  0  0  0
 83166  1  0  0  0
 84 88  1  0  0  0
 84167  1  0  0  0
 84168  1  0  0  0
 85169  1  0  0  0
 85170  1  0  0  0
 86 90  1  0  0  0
 86171  1  0  0  0
 86172  1  0  0  0
 87173  1  0  0  0
M  ISO  4   1 100  68 101  85 101  87 100
M  END
> <chiral flag>
0

> <version>
0

> <s_m_source_file>
/data/baiqing/PycharmProjects/Reinvent-master-3.2/result/LINK_invent/BTK/process_docking_weight1_custom_sum_contain_oxygen_bond_distance_aromatic_linkinvent_7_9_3/rearranged_h_0006.sdf

> <i_m_source_file_index>
36

> <r_mmod_Potential_Energy-OPLS-2005>
31.9893932342529

> <r_mmod_Stretch_Energy-OPLS-2005>
36.667308807373

> <r_mmod_Bend_Energy-OPLS-2005>
114.480628967285

> <r_mmod_Torsional_Energy-OPLS-2005>
308.343811035156

> <r_mmod_Improper_Torsional_Energy-OPLS-2005>
6.15338182449341

> <r_mmod_Van_der_Waal_Energy-OPLS-2005>
169.296524047852

> <r_mmod_Electrostatic_Energy-OPLS-2005>
-399.257904052734

> <r_mmod_Solvation_Energy-OPLS-2005>
-217.45817565918

> <b_mmod_Minimization_Converged-OPLS-2005>
0

> <r_mmod_RMS_Derivative-OPLS-2005>
7.87432813644409

$$$$
36
                    3D
 Structure written by MMmdl.
154162  0  0  1  0            999 V2000
  -30.6227  -14.6300   20.5089 C   0  0  0  0  0  0
  -30.4388  -12.3869   19.4518 C   0  0  0  0  0  0
  -29.5079  -12.5093   18.2247 C   0  0  0  0  0  0
  -28.0303  -12.3470   18.6351 C   0  0  0  0  0  0
  -27.6550  -13.2138   19.8663 C   0  0  2  0  0  0
  -28.6992  -13.0589   20.9956 C   0  0  0  0  0  0
  -25.2568  -13.8163   20.5682 C   0  0  0  0  0  0
  -24.1831  -13.0435   20.9185 C   0  0  0  0  0  0
  -24.6393  -11.6904   20.8738 C   0  0  0  0  0  0
  -23.9060  -10.4291   21.0404 C   0  0  0  0  0  0
  -24.3613   -9.4207   21.9182 C   0  0  0  0  0  0
  -23.6291   -8.2243   22.0753 C   0  0  0  0  0  0
  -22.4273   -8.0280   21.3543 C   0  0  0  0  0  0
  -21.9907   -9.0251   20.4644 C   0  0  0  0  0  0
  -22.7233  -10.2132   20.3053 C   0  0  0  0  0  0
  -21.6852   -6.0734   22.5276 C   0  0  0  0  0  0
  -21.4015   -6.5637   23.8210 C   0  0  0  0  0  0
  -21.3661   -5.6791   24.9174 C   0  0  0  0  0  0
  -21.6044   -4.3053   24.7223 C   0  0  0  0  0  0
  -21.8819   -3.8146   23.4344 C   0  0  0  0  0  0
  -21.9192   -4.6963   22.3400 C   0  0  0  0  0  0
  -22.7855  -13.5231   21.1849 C   0  0  0  0  0  0
  -22.1660   -4.2149   21.0979 F   0  0  0  0  0  0
  -21.5630   -3.4539   25.7737 F   0  0  0  0  0  0
  -30.0164  -13.4030   20.4356 N   0  0  0  0  0  0
  -26.2996  -12.9339   20.3327 N   0  0  0  0  0  0
  -25.9321  -11.6497   20.5756 N   0  0  0  0  0  0
  -22.0499  -12.8226   22.0409 N   0  0  0  0  0  0
  -25.4283  -15.1886   20.4092 N   0  0  0  0  0  0
  -31.7816  -14.7952   20.1158 O   0  0  0  0  0  0
  -21.6637   -6.8878   21.4240 O   0  0  0  0  0  0
  -22.3542  -14.5538   20.6697 O   0  0  0  0  0  0
  -24.6261  -31.8609   23.2040 C   0  0  0  0  0  0
  -25.9114  -32.4784   23.8364 C   0  0  1  0  0  0
  -27.2249  -27.3284   20.1108 C   0  0  0  0  0  0
  -25.5936  -33.8585   24.2289 N   0  0  0  0  0  0
  -23.4187  -30.4853   21.5466 C   0  0  2  0  0  0
  -24.8644  -28.9432   20.1105 C   0  0  0  0  0  0
  -22.7475  -29.4629   22.4942 C   0  0  0  0  0  0
  -18.0290  -28.1379   22.8485 C   0  0  0  0  0  0
  -24.1490  -36.7289   23.2641 C   0  0  0  0  0  0
  -25.9601  -30.7935   21.3752 C   0  0  0  0  0  0
  -26.0337  -29.4231   20.7138 C   0  0  0  0  0  0
  -27.2168  -28.6275   20.7037 C   0  0  0  0  0  0
  -26.0310  -26.9009   19.4832 C   0  0  0  0  0  0
  -24.8643  -27.6866   19.4876 C   0  0  0  0  0  0
  -23.6326  -29.8228   20.1609 C   0  0  0  0  0  0
  -25.4116  -36.3085   24.0331 C   0  0  1  0  0  0
  -20.5889  -28.3684   23.1281 C   0  0  2  0  0  0
  -20.6778  -26.9407   22.5407 C   0  0  0  0  0  0
  -19.5753  -26.6380   21.5210 C   0  0  0  0  0  0
  -18.1933  -26.7922   22.1622 C   0  0  0  0  0  0
  -19.1542  -28.8848   23.2877 C   0  0  0  0  0  0
  -18.9466  -30.1452   23.8891 C   0  0  0  0  0  0
  -17.6467  -30.6582   24.0559 C   0  0  0  0  0  0
  -25.9054  -34.9455   23.5107 C   0  0  0  0  0  0
  -16.5357  -29.9079   23.6329 C   0  0  0  0  0  0
  -16.7278  -28.6498   23.0347 C   0  0  0  0  0  0
  -26.4503  -31.6597   25.0734 C   0  0  0  0  0  0
  -25.3738  -31.3727   26.1462 C   0  0  0  0  0  0
  -27.0358  -30.3027   24.6191 C   0  0  0  0  0  0
  -27.6061  -32.4337   25.7502 C   0  0  0  0  0  0
  -27.5579  -37.1801   24.8467 C   0  0  0  0  0  0
  -21.4190  -29.3040   22.3677 N   0  0  0  0  0  0
  -26.4296  -37.3778   23.9409 N   0  0  0  0  0  0
  -24.6868  -31.0629   22.0986 N   0  0  0  0  0  0
  -23.4200  -28.8167   23.3020 O   0  0  0  0  0  0
  -28.3461  -26.4856   20.1638 O   0  0  0  0  0  0
  -26.5614  -34.8920   22.4669 O   0  0  0  0  0  0
  -23.5427  -32.1410   23.7371 O   0  0  0  0  0  0
  -28.7773  -17.9134   21.1288 C   0  0  0  0  0  0
  -31.0258  -17.8414   20.2871 C   0  0  0  0  0  0
  -28.7777  -19.3390   21.0559 C   0  0  0  0  0  0
  -31.0256  -19.2662   20.2174 C   0  0  0  0  0  0
  -29.8994  -17.1205   20.7601 C   0  0  0  0  0  0
  -29.9137  -20.0697   20.6149 C   0  0  0  0  0  0
  -29.0138  -22.4643   20.3565 C   0  0  0  0  0  0
  -31.3342  -22.0841   21.0064 C   0  0  0  0  0  0
  -29.2800  -24.0299   20.4502 C   0  0  0  0  0  0
  -28.1301  -25.0286   20.0078 C   0  0  0  0  0  0
  -29.8107  -15.6653   20.8905 N   0  0  0  0  0  0
  -30.0114  -21.5461   20.6533 N   0  0  0  0  0  0
  -27.8881  -22.0991   20.0037 O   0  0  0  0  0  0
  -31.4804  -12.5123   19.1502 H   0  0  0  0  0  0
  -30.3726  -11.3892   19.8883 H   0  0  0  0  0  0
  -29.7714  -11.7628   17.4744 H   0  0  0  0  0  0
  -29.6504  -13.4820   17.7511 H   0  0  0  0  0  0
  -27.8651  -11.2929   18.8619 H   0  0  0  0  0  0
  -27.3763  -12.5824   17.7947 H   0  0  0  0  0  0
  -27.6759  -14.2506   19.5301 H   0  0  0  0  0  0
  -28.7088  -12.0341   21.3697 H   0  0  0  0  0  0
  -28.4441  -13.6828   21.8535 H   0  0  0  0  0  0
  -25.2760   -9.5684   22.4754 H   0  0  0  0  0  0
  -24.0000   -7.4636   22.7474 H   0  0  0  0  0  0
  -21.0839   -8.8765   19.8952 H   0  0  0  0  0  0
  -22.3686  -10.9669   19.6163 H   0  0  0  0  0  0
  -21.2007   -7.6146   23.9713 H   0  0  0  0  0  0
  -21.1484   -6.0522   25.9076 H   0  0  0  0  0  0
  -22.0597   -2.7608   23.2842 H   0  0  0  0  0  0
  -22.4119  -11.9885   22.4790 H   0  0  0  0  0  0
  -21.1123  -13.1255   22.2629 H   0  0  0  0  0  0
  -24.6564  -15.8393   20.5065 H   0  0  0  0  0  0
  -26.2709  -15.6254   20.0577 H   0  0  0  0  0  0
  -26.7180  -32.5456   23.1111 H   0  0  0  0  0  0
  -25.0107  -33.9738   25.0450 H   0  0  0  0  0  0
  -22.7120  -31.3055   21.4053 H   0  0  0  0  0  0
  -23.3758  -35.9615   23.3306 H   0  0  0  0  0  0
  -24.3579  -36.8907   22.2054 H   0  0  0  0  0  0
  -23.7241  -37.6489   23.6664 H   0  0  0  0  0  0
  -26.0954  -31.5600   20.6110 H   0  0  0  0  0  0
  -26.8389  -30.8373   22.0069 H   0  0  0  0  0  0
  -28.1137  -28.9920   21.1844 H   0  0  0  0  0  0
  -25.9688  -25.9428   18.9896 H   0  0  0  0  0  0
  -23.9683  -27.3128   19.0113 H   0  0  0  0  0  0
  -23.7518  -30.6011   19.4063 H   0  0  0  0  0  0
  -22.7525  -29.2529   19.8570 H   0  0  0  0  0  0
  -25.1296  -36.1940   25.0824 H   0  0  0  0  0  0
  -20.9982  -28.3257   24.1402 H   0  0  0  0  0  0
  -20.5683  -26.2291   23.3605 H   0  0  0  0  0  0
  -21.6646  -26.7437   22.1199 H   0  0  0  0  0  0
  -19.6913  -25.6290   21.1239 H   0  0  0  0  0  0
  -19.6689  -27.3188   20.6734 H   0  0  0  0  0  0
  -17.4203  -26.6670   21.4024 H   0  0  0  0  0  0
  -18.0331  -26.0062   22.9016 H   0  0  0  0  0  0
  -19.7944  -30.7267   24.2257 H   0  0  0  0  0  0
  -17.5023  -31.6263   24.5159 H   0  0  0  0  0  0
  -15.5358  -30.2977   23.7661 H   0  0  0  0  0  0
  -15.8678  -28.0819   22.7058 H   0  0  0  0  0  0
  -24.5911  -30.7078   25.7793 H   0  0  0  0  0  0
  -24.8929  -32.2888   26.4898 H   0  0  0  0  0  0
  -25.8063  -30.8901   27.0234 H   0  0  0  0  0  0
  -26.2935  -29.6765   24.1228 H   0  0  0  0  0  0
  -27.4080  -29.7297   25.4694 H   0  0  0  0  0  0
  -27.8791  -30.4327   23.9404 H   0  0  0  0  0  0
  -27.2676  -33.3645   26.2065 H   0  0  0  0  0  0
  -28.3875  -32.6887   25.0331 H   0  0  0  0  0  0
  -28.0726  -31.8475   26.5431 H   0  0  0  0  0  0
  -28.2601  -38.0095   24.7519 H   0  0  0  0  0  0
  -28.1074  -36.2627   24.6296 H   0  0  0  0  0  0
  -27.2294  -37.1452   25.8870 H   0  0  0  0  0  0
  -20.9368  -29.8765   21.6889 H   0  0  0  0  0  0
  -26.0177  -38.2856   24.1408 H   0  0  0  0  0  0
  -27.8837  -17.4275   21.4955 H   0  0  0  0  0  0
  -31.9189  -17.3163   19.9810 H   0  0  0  0  0  0
  -27.8949  -19.8687   21.3848 H   0  0  0  0  0  0
  -31.9262  -19.7432   19.8577 H   0  0  0  0  0  0
  -31.9697  -21.3399   21.4859 H   0  0  0  0  0  0
  -31.2754  -22.8969   21.7296 H   0  0  0  0  0  0
  -31.8528  -22.4448   20.1175 H   0  0  0  0  0  0
  -30.1681  -24.2590   19.8618 H   0  0  0  0  0  0
  -29.5244  -24.2568   21.4872 H   0  0  0  0  0  0
  -27.2366  -24.7518   20.5703 H   0  0  0  0  0  0
  -27.9094  -24.8320   18.9577 H   0  0  0  0  0  0
  -28.9185  -15.3358   21.2256 H   0  0  0  0  0  0
  1 25  1  0  0  0
  1 30  2  0  0  0
  1 81  1  0  0  0
  2  3  1  0  0  0
  2 25  1  0  0  0
  2 84  1  0  0  0
  2 85  1  0  0  0
  3  4  1  0  0  0
  3 86  1  0  0  0
  3 87  1  0  0  0
  4  5  1  0  0  0
  4 88  1  0  0  0
  4 89  1  0  0  0
  5  6  1  0  0  0
  5 26  1  0  0  0
  5 90  1  0  0  0
  6 25  1  0  0  0
  6 91  1  0  0  0
  6 92  1  0  0  0
  7  8  2  0  0  0
  7 26  1  0  0  0
  7 29  1  0  0  0
  8  9  1  0  0  0
  8 22  1  0  0  0
  9 10  1  0  0  0
  9 27  2  0  0  0
 10 11  2  0  0  0
 10 15  1  0  0  0
 11 12  1  0  0  0
 11 93  1  0  0  0
 12 13  2  0  0  0
 12 94  1  0  0  0
 13 14  1  0  0  0
 13 31  1  0  0  0
 14 15  2  0  0  0
 14 95  1  0  0  0
 15 96  1  0  0  0
 16 17  2  0  0  0
 16 21  1  0  0  0
 16 31  1  0  0  0
 17 18  1  0  0  0
 17 97  1  0  0  0
 18 19  2  0  0  0
 18 98  1  0  0  0
 19 20  1  0  0  0
 19 24  1  0  0  0
 20 21  2  0  0  0
 20 99  1  0  0  0
 21 23  1  0  0  0
 22 28  1  0  0  0
 22 32  2  0  0  0
 26 27  1  0  0  0
 28100  1  0  0  0
 28101  1  0  0  0
 29102  1  0  0  0
 29103  1  0  0  0
 33 34  1  0  0  0
 33 66  1  0  0  0
 33 70  2  0  0  0
 34 36  1  0  0  0
 34 59  1  0  0  0
 34104  1  0  0  0
 35 44  2  0  0  0
 35 45  1  0  0  0
 35 68  1  0  0  0
 36 56  1  0  0  0
 36105  1  0  0  0
 37 39  1  0  0  0
 37 47  1  0  0  0
 37 66  1  0  0  0
 37106  1  0  0  0
 38 43  2  0  0  0
 38 46  1  0  0  0
 38 47  1  0  0  0
 39 64  1  0  0  0
 39 67  2  0  0  0
 40 52  1  0  0  0
 40 53  2  0  0  0
 40 58  1  0  0  0
 41107  1  0  0  0
 41108  1  0  0  0
 41109  1  0  0  0
 41 48  1  0  0  0
 42 43  1  0  0  0
 42 66  1  0  0  0
 42110  1  0  0  0
 42111  1  0  0  0
 43 44  1  0  0  0
 44112  1  0  0  0
 45 46  2  0  0  0
 45113  1  0  0  0
 46114  1  0  0  0
 47115  1  0  0  0
 47116  1  0  0  0
 48 56  1  0  0  0
 48 65  1  0  0  0
 48117  1  0  0  0
 49 50  1  0  0  0
 49 53  1  0  0  0
 49 64  1  0  0  0
 49118  1  0  0  0
 50 51  1  0  0  0
 50119  1  0  0  0
 50120  1  0  0  0
 51 52  1  0  0  0
 51121  1  0  0  0
 51122  1  0  0  0
 52123  1  0  0  0
 52124  1  0  0  0
 53 54  1  0  0  0
 54 55  2  0  0  0
 54125  1  0  0  0
 55 57  1  0  0  0
 55126  1  0  0  0
 56 69  2  0  0  0
 57 58  2  0  0  0
 57127  1  0  0  0
 58128  1  0  0  0
 59 60  1  0  0  0
 59 61  1  0  0  0
 59 62  1  0  0  0
 60129  1  0  0  0
 60130  1  0  0  0
 60131  1  0  0  0
 61132  1  0  0  0
 61133  1  0  0  0
 61134  1  0  0  0
 62135  1  0  0  0
 62136  1  0  0  0
 62137  1  0  0  0
 63 65  1  0  0  0
 63138  1  0  0  0
 63139  1  0  0  0
 63140  1  0  0  0
 64141  1  0  0  0
 65142  1  0  0  0
 68 80  1  0  0  0
 71 73  2  0  0  0
 71 75  1  0  0  0
 71143  1  0  0  0
 72 74  1  0  0  0
 72 75  2  0  0  0
 72144  1  0  0  0
 73 76  1  0  0  0
 73145  1  0  0  0
 74 76  2  0  0  0
 74146  1  0  0  0
 75 81  1  0  0  0
 76 82  1  0  0  0
 77 79  1  0  0  0
 77 82  1  0  0  0
 77 83  2  0  0  0
 78 82  1  0  0  0
 78147  1  0  0  0
 78148  1  0  0  0
 78149  1  0  0  0
 79 80  1  0  0  0
 79150  1  0  0  0
 79151  1  0  0  0
 80152  1  0  0  0
 80153  1  0  0  0
 81154  1  0  0  0
M  ISO  4   1 100  68 101  80 101  81 100
M  END
> <chiral flag>
0

> <version>
0

> <s_m_source_file>
/data/baiqing/PycharmProjects/Reinvent-master-3.2/result/LINK_invent/BTK/process_docking_weight1_custom_sum_contain_oxygen_bond_distance_aromatic_linkinvent_7_9_3/rearranged_h_0006.sdf

> <i_m_source_file_index>
37

> <r_mmod_Potential_Energy-OPLS-2005>
83.7000350952148

> <r_mmod_Stretch_Energy-OPLS-2005>
83.6945190429688

> <r_mmod_Bend_Energy-OPLS-2005>
135.925064086914

> <r_mmod_Torsional_Energy-OPLS-2005>
247.718826293945

> <r_mmod_Improper_Torsional_Energy-OPLS-2005>
4.16484975814819

> <r_mmod_Van_der_Waal_Energy-OPLS-2005>
160.718627929688

> <r_mmod_Electrostatic_Energy-OPLS-2005>
-374.598968505859

> <r_mmod_Solvation_Energy-OPLS-2005>
-218.854431152344

> <b_mmod_Minimization_Converged-OPLS-2005>
0

> <r_mmod_RMS_Derivative-OPLS-2005>
0.496785312891006

$$$$
37
                    3D
 Structure written by MMmdl.
169176  0  0  1  0            999 V2000
  -30.7756  -14.3489   20.6955 C   0  0  0  0  0  0
  -30.4123  -12.2841   19.3877 C   0  0  0  0  0  0
  -29.4796  -12.5256   18.1882 C   0  0  0  0  0  0
  -28.0058  -12.3799   18.6099 C   0  0  0  0  0  0
  -27.6679  -13.2020   19.8817 C   0  0  2  0  0  0
  -28.7091  -12.9511   20.9962 C   0  0  0  0  0  0
  -25.2618  -13.8157   20.5686 C   0  0  0  0  0  0
  -24.1854  -13.0440   20.9165 C   0  0  0  0  0  0
  -24.6399  -11.6903   20.8727 C   0  0  0  0  0  0
  -23.9059  -10.4292   21.0398 C   0  0  0  0  0  0
  -24.3611   -9.4212   21.9181 C   0  0  0  0  0  0
  -23.6287   -8.2247   22.0755 C   0  0  0  0  0  0
  -22.4271   -8.0282   21.3544 C   0  0  0  0  0  0
  -21.9906   -9.0253   20.4645 C   0  0  0  0  0  0
  -22.7231  -10.2134   20.3050 C   0  0  0  0  0  0
  -21.6853   -6.0735   22.5279 C   0  0  0  0  0  0
  -21.4012   -6.5640   23.8212 C   0  0  0  0  0  0
  -21.3658   -5.6792   24.9174 C   0  0  0  0  0  0
  -21.6044   -4.3054   24.7226 C   0  0  0  0  0  0
  -21.8820   -3.8146   23.4347 C   0  0  0  0  0  0
  -21.9193   -4.6963   22.3402 C   0  0  0  0  0  0
  -22.7877  -13.5244   21.1828 C   0  0  0  0  0  0
  -22.1662   -4.2147   21.0980 F   0  0  0  0  0  0
  -21.5630   -3.4539   25.7739 F   0  0  0  0  0  0
  -30.0471  -13.2306   20.4505 N   0  0  0  0  0  0
  -26.3062  -12.9321   20.3407 N   0  0  0  0  0  0
  -25.9329  -11.6479   20.5771 N   0  0  0  0  0  0
  -22.0513  -12.8237   22.0384 N   0  0  0  0  0  0
  -25.4358  -15.1873   20.4098 N   0  0  0  0  0  0
  -31.7926  -14.6229   20.0486 O   0  0  0  0  0  0
  -21.6638   -6.8877   21.4239 O   0  0  0  0  0  0
  -22.3565  -14.5554   20.6683 O   0  0  0  0  0  0
  -24.6096  -31.8706   23.2124 C   0  0  0  0  0  0
  -25.9009  -32.4837   23.8406 C   0  0  1  0  0  0
  -27.2388  -27.4839   20.0847 C   0  0  0  0  0  0
  -25.5879  -33.8635   24.2337 N   0  0  0  0  0  0
  -23.3961  -30.4929   21.5515 C   0  0  2  0  0  0
  -24.8453  -28.9631   20.1140 C   0  0  0  0  0  0
  -22.7385  -29.4664   22.5005 C   0  0  0  0  0  0
  -18.0266  -28.1375   22.8492 C   0  0  0  0  0  0
  -24.1482  -36.7321   23.2638 C   0  0  0  0  0  0
  -25.9195  -30.8497   21.3595 C   0  0  0  0  0  0
  -26.0006  -29.4871   20.7088 C   0  0  0  0  0  0
  -27.2030  -28.7519   20.6970 C   0  0  0  0  0  0
  -26.0749  -26.9589   19.4901 C   0  0  0  0  0  0
  -24.8740  -27.6949   19.5042 C   0  0  0  0  0  0
  -23.6031  -29.8228   20.1659 C   0  0  0  0  0  0
  -25.4103  -36.3124   24.0341 C   0  0  1  0  0  0
  -20.5852  -28.3655   23.1329 C   0  0  2  0  0  0
  -20.6756  -26.9397   22.5418 C   0  0  0  0  0  0
  -19.5741  -26.6387   21.5208 C   0  0  0  0  0  0
  -18.1918  -26.7925   22.1617 C   0  0  0  0  0  0
  -19.1513  -28.8831   23.2912 C   0  0  0  0  0  0
  -18.9447  -30.1439   23.8922 C   0  0  0  0  0  0
  -17.6452  -30.6587   24.0565 C   0  0  0  0  0  0
  -25.9027  -34.9487   23.5137 C   0  0  0  0  0  0
  -16.5342  -29.9092   23.6322 C   0  0  0  0  0  0
  -16.7257  -28.6505   23.0347 C   0  0  0  0  0  0
  -26.4459  -31.6602   25.0716 C   0  0  0  0  0  0
  -25.3743  -31.3689   26.1473 C   0  0  0  0  0  0
  -27.0291  -30.3053   24.6056 C   0  0  0  0  0  0
  -27.6031  -32.4324   25.7486 C   0  0  0  0  0  0
  -27.5583  -37.1819   24.8465 C   0  0  0  0  0  0
  -21.4119  -29.3026   22.3742 N   0  0  0  0  0  0
  -26.4293  -37.3805   23.9409 N   0  0  0  0  0  0
  -24.6596  -31.0840   22.1005 N   0  0  0  0  0  0
  -23.4176  -28.8209   23.3034 O   0  0  0  0  0  0
  -28.3904  -26.7452   20.0807 O   0  0  0  0  0  0
  -26.5594  -34.8935   22.4700 O   0  0  0  0  0  0
  -23.5301  -32.1436   23.7548 O   0  0  0  0  0  0
  -31.2260  -25.4676   24.0012 C   0  0  0  0  0  0
  -30.3448  -15.3044   21.8227 C   0  0  0  0  0  0
  -29.8431  -25.5118   23.3495 C   0  0  0  0  0  0
  -31.3827  -16.4116   22.1052 C   0  0  0  0  0  0
  -29.7887  -26.2478   21.9965 C   0  0  0  0  0  0
  -30.9406  -17.4206   23.1746 C   0  0  0  0  0  0
  -32.0201  -18.4864   23.4187 C   0  0  0  0  0  0
  -31.5540  -19.6168   24.3455 C   0  0  0  0  0  0
  -32.6179  -20.7151   24.4995 C   0  0  0  0  0  0
  -32.0853  -21.9455   25.2463 C   0  0  0  0  0  0
  -33.0873  -23.1166   25.2556 C   0  0  0  0  0  0
  -32.5170  -24.4173   25.8552 C   0  0  0  0  0  0
  -28.5072  -25.9086   21.2267 C   0  0  0  0  0  0
  -31.2928  -24.8236   25.1711 N   0  0  0  0  0  0
  -32.2133  -25.9598   23.4512 O   0  0  0  0  0  0
  -31.4555  -12.3764   19.0809 H   0  0  0  0  0  0
  -30.3037  -11.2620   19.7538 H   0  0  0  0  0  0
  -29.7098  -11.8246   17.3848 H   0  0  0  0  0  0
  -29.6510  -13.5244   17.7836 H   0  0  0  0  0  0
  -27.8137  -11.3214   18.7900 H   0  0  0  0  0  0
  -27.3495  -12.6715   17.7892 H   0  0  0  0  0  0
  -27.7259  -14.2556   19.6075 H   0  0  0  0  0  0
  -28.6671  -11.9128   21.3284 H   0  0  0  0  0  0
  -28.4643  -13.5474   21.8739 H   0  0  0  0  0  0
  -25.2757   -9.5691   22.4754 H   0  0  0  0  0  0
  -23.9998   -7.4642   22.7477 H   0  0  0  0  0  0
  -21.0840   -8.8768   19.8950 H   0  0  0  0  0  0
  -22.3690  -10.9670   19.6157 H   0  0  0  0  0  0
  -21.2002   -7.6147   23.9714 H   0  0  0  0  0  0
  -21.1480   -6.0524   25.9078 H   0  0  0  0  0  0
  -22.0600   -2.7608   23.2848 H   0  0  0  0  0  0
  -22.4121  -11.9891   22.4764 H   0  0  0  0  0  0
  -21.1133  -13.1267   22.2585 H   0  0  0  0  0  0
  -24.6747  -15.8483   20.5216 H   0  0  0  0  0  0
  -26.3002  -15.6247   20.1145 H   0  0  0  0  0  0
  -26.7085  -32.5568   23.1182 H   0  0  0  0  0  0
  -25.0038  -33.9804   25.0487 H   0  0  0  0  0  0
  -22.6829  -31.3080   21.4131 H   0  0  0  0  0  0
  -23.3746  -35.9654   23.3314 H   0  0  0  0  0  0
  -24.3574  -36.8918   22.2048 H   0  0  0  0  0  0
  -23.7236  -37.6530   23.6642 H   0  0  0  0  0  0
  -26.0251  -31.6175   20.5917 H   0  0  0  0  0  0
  -26.8092  -30.9046   21.9748 H   0  0  0  0  0  0
  -28.0971  -29.1498   21.1565 H   0  0  0  0  0  0
  -26.1002  -25.9843   19.0235 H   0  0  0  0  0  0
  -23.9853  -27.2844   19.0447 H   0  0  0  0  0  0
  -23.7044  -30.5966   19.4040 H   0  0  0  0  0  0
  -22.7295  -29.2373   19.8739 H   0  0  0  0  0  0
  -25.1278  -36.1995   25.0833 H   0  0  0  0  0  0
  -20.9947  -28.3219   24.1448 H   0  0  0  0  0  0
  -20.5656  -26.2262   23.3598 H   0  0  0  0  0  0
  -21.6629  -26.7445   22.1215 H   0  0  0  0  0  0
  -19.6905  -25.6302   21.1228 H   0  0  0  0  0  0
  -19.6686  -27.3202   20.6741 H   0  0  0  0  0  0
  -17.4188  -26.6675   21.4019 H   0  0  0  0  0  0
  -18.0323  -26.0062   22.9008 H   0  0  0  0  0  0
  -19.7925  -30.7243   24.2309 H   0  0  0  0  0  0
  -17.5011  -31.6270   24.5162 H   0  0  0  0  0  0
  -15.5345  -30.3005   23.7634 H   0  0  0  0  0  0
  -15.8655  -28.0835   22.7053 H   0  0  0  0  0  0
  -24.5899  -30.7058   25.7808 H   0  0  0  0  0  0
  -24.8957  -32.2842   26.4967 H   0  0  0  0  0  0
  -25.8109  -30.8822   27.0203 H   0  0  0  0  0  0
  -26.2829  -29.6830   24.1101 H   0  0  0  0  0  0
  -27.4073  -29.7263   25.4491 H   0  0  0  0  0  0
  -27.8655  -30.4385   23.9188 H   0  0  0  0  0  0
  -27.2629  -33.3591   26.2122 H   0  0  0  0  0  0
  -28.3817  -32.6946   25.0308 H   0  0  0  0  0  0
  -28.0736  -31.8423   26.5362 H   0  0  0  0  0  0
  -28.2609  -38.0110   24.7515 H   0  0  0  0  0  0
  -28.1072  -36.2645   24.6288 H   0  0  0  0  0  0
  -27.2303  -37.1464   25.8869 H   0  0  0  0  0  0
  -20.9275  -29.8751   21.6971 H   0  0  0  0  0  0
  -26.0189  -38.2886   24.1412 H   0  0  0  0  0  0
  -29.3897  -15.7531   21.5482 H   0  0  0  0  0  0
  -30.1849  -14.7284   22.7345 H   0  0  0  0  0  0
  -29.1332  -25.9635   24.0437 H   0  0  0  0  0  0
  -29.5244  -24.4780   23.2083 H   0  0  0  0  0  0
  -31.5941  -16.9543   21.1820 H   0  0  0  0  0  0
  -32.3240  -15.9518   22.4115 H   0  0  0  0  0  0
  -30.6480  -25.9916   21.3753 H   0  0  0  0  0  0
  -29.8416  -27.3226   22.1739 H   0  0  0  0  0  0
  -30.7142  -16.9037   24.1084 H   0  0  0  0  0  0
  -30.0153  -17.9014   22.8534 H   0  0  0  0  0  0
  -32.3180  -18.9164   22.4610 H   0  0  0  0  0  0
  -32.9136  -18.0159   23.8325 H   0  0  0  0  0  0
  -31.2908  -19.2142   25.3247 H   0  0  0  0  0  0
  -30.6417  -20.0536   23.9365 H   0  0  0  0  0  0
  -32.9558  -21.0240   23.5090 H   0  0  0  0  0  0
  -33.4946  -20.3167   25.0124 H   0  0  0  0  0  0
  -31.8215  -21.6766   26.2700 H   0  0  0  0  0  0
  -31.1588  -22.2583   24.7642 H   0  0  0  0  0  0
  -33.4212  -23.3163   24.2362 H   0  0  0  0  0  0
  -33.9815  -22.8278   25.8097 H   0  0  0  0  0  0
  -33.2616  -25.2143   25.8097 H   0  0  0  0  0  0
  -32.2901  -24.2695   26.9118 H   0  0  0  0  0  0
  -27.6462  -25.9971   21.8947 H   0  0  0  0  0  0
  -28.5307  -24.8696   20.8968 H   0  0  0  0  0  0
  -30.4229  -24.4866   25.5635 H   0  0  0  0  0  0
  1 25  1  0  0  0
  1 30  2  0  0  0
  1 72  1  0  0  0
  2  3  1  0  0  0
  2 25  1  0  0  0
  2 86  1  0  0  0
  2 87  1  0  0  0
  3  4  1  0  0  0
  3 88  1  0  0  0
  3 89  1  0  0  0
  4  5  1  0  0  0
  4 90  1  0  0  0
  4 91  1  0  0  0
  5  6  1  0  0  0
  5 26  1  0  0  0
  5 92  1  0  0  0
  6 25  1  0  0  0
  6 93  1  0  0  0
  6 94  1  0  0  0
  7  8  2  0  0  0
  7 26  1  0  0  0
  7 29  1  0  0  0
  8  9  1  0  0  0
  8 22  1  0  0  0
  9 10  1  0  0  0
  9 27  2  0  0  0
 10 11  2  0  0  0
 10 15  1  0  0  0
 11 12  1  0  0  0
 11 95  1  0  0  0
 12 13  2  0  0  0
 12 96  1  0  0  0
 13 14  1  0  0  0
 13 31  1  0  0  0
 14 15  2  0  0  0
 14 97  1  0  0  0
 15 98  1  0  0  0
 16 17  2  0  0  0
 16 21  1  0  0  0
 16 31  1  0  0  0
 17 18  1  0  0  0
 17 99  1  0  0  0
 18 19  2  0  0  0
 18100  1  0  0  0
 19 20  1  0  0  0
 19 24  1  0  0  0
 20 21  2  0  0  0
 20101  1  0  0  0
 21 23  1  0  0  0
 22 28  1  0  0  0
 22 32  2  0  0  0
 26 27  1  0  0  0
 28102  1  0  0  0
 28103  1  0  0  0
 29104  1  0  0  0
 29105  1  0  0  0
 33 34  1  0  0  0
 33 66  1  0  0  0
 33 70  2  0  0  0
 34 36  1  0  0  0
 34 59  1  0  0  0
 34106  1  0  0  0
 35 44  2  0  0  0
 35 45  1  0  0  0
 35 68  1  0  0  0
 36 56  1  0  0  0
 36107  1  0  0  0
 37 39  1  0  0  0
 37 47  1  0  0  0
 37 66  1  0  0  0
 37108  1  0  0  0
 38 43  2  0  0  0
 38 46  1  0  0  0
 38 47  1  0  0  0
 39 64  1  0  0  0
 39 67  2  0  0  0
 40 52  1  0  0  0
 40 53  2  0  0  0
 40 58  1  0  0  0
 41109  1  0  0  0
 41110  1  0  0  0
 41111  1  0  0  0
 41 48  1  0  0  0
 42 43  1  0  0  0
 42 66  1  0  0  0
 42112  1  0  0  0
 42113  1  0  0  0
 43 44  1  0  0  0
 44114  1  0  0  0
 45 46  2  0  0  0
 45115  1  0  0  0
 46116  1  0  0  0
 47117  1  0  0  0
 47118  1  0  0  0
 48 56  1  0  0  0
 48 65  1  0  0  0
 48119  1  0  0  0
 49 50  1  0  0  0
 49 53  1  0  0  0
 49 64  1  0  0  0
 49120  1  0  0  0
 50 51  1  0  0  0
 50121  1  0  0  0
 50122  1  0  0  0
 51 52  1  0  0  0
 51123  1  0  0  0
 51124  1  0  0  0
 52125  1  0  0  0
 52126  1  0  0  0
 53 54  1  0  0  0
 54 55  2  0  0  0
 54127  1  0  0  0
 55 57  1  0  0  0
 55128  1  0  0  0
 56 69  2  0  0  0
 57 58  2  0  0  0
 57129  1  0  0  0
 58130  1  0  0  0
 59 60  1  0  0  0
 59 61  1  0  0  0
 59 62  1  0  0  0
 60131  1  0  0  0
 60132  1  0  0  0
 60133  1  0  0  0
 61134  1  0  0  0
 61135  1  0  0  0
 61136  1  0  0  0
 62137  1  0  0  0
 62138  1  0  0  0
 62139  1  0  0  0
 63 65  1  0  0  0
 63140  1  0  0  0
 63141  1  0  0  0
 63142  1  0  0  0
 64143  1  0  0  0
 65144  1  0  0  0
 68 83  1  0  0  0
 71 73  1  0  0  0
 71 84  1  0  0  0
 71 85  2  0  0  0
 72 74  1  0  0  0
 72145  1  0  0  0
 72146  1  0  0  0
 73 75  1  0  0  0
 73147  1  0  0  0
 73148  1  0  0  0
 74 76  1  0  0  0
 74149  1  0  0  0
 74150  1  0  0  0
 75 83  1  0  0  0
 75151  1  0  0  0
 75152  1  0  0  0
 76 77  1  0  0  0
 76153  1  0  0  0
 76154  1  0  0  0
 77 78  1  0  0  0
 77155  1  0  0  0
 77156  1  0  0  0
 78 79  1  0  0  0
 78157  1  0  0  0
 78158  1  0  0  0
 79 80  1  0  0  0
 79159  1  0  0  0
 79160  1  0  0  0
 80 81  1  0  0  0
 80161  1  0  0  0
 80162  1  0  0  0
 81 82  1  0  0  0
 81163  1  0  0  0
 81164  1  0  0  0
 82 84  1  0  0  0
 82165  1  0  0  0
 82166  1  0  0  0
 83167  1  0  0  0
 83168  1  0  0  0
 84169  1  0  0  0
M  ISO  4   1 100  68 101  72 100  83 101
M  END
> <chiral flag>
0

> <version>
0

> <s_m_source_file>
/data/baiqing/PycharmProjects/Reinvent-master-3.2/result/LINK_invent/BTK/process_docking_weight1_custom_sum_contain_oxygen_bond_distance_aromatic_linkinvent_7_9_3/rearranged_h_0006.sdf

> <i_m_source_file_index>
38

> <r_mmod_Potential_Energy-OPLS-2005>
-145.631011962891

> <r_mmod_Stretch_Energy-OPLS-2005>
29.6908988952637

> <r_mmod_Bend_Energy-OPLS-2005>
83.7177124023438

> <r_mmod_Torsional_Energy-OPLS-2005>
198.476440429688

> <r_mmod_Improper_Torsional_Energy-OPLS-2005>
1.83783137798309

> <r_mmod_Van_der_Waal_Energy-OPLS-2005>
134.048080444336

> <r_mmod_Electrostatic_Energy-OPLS-2005>
-383.974945068359

> <r_mmod_Solvation_Energy-OPLS-2005>
-216.061767578125

> <b_mmod_Minimization_Converged-OPLS-2005>
0

> <r_mmod_RMS_Derivative-OPLS-2005>
0.423168808221817

$$$$
38
                    3D
 Structure written by MMmdl.
158166  0  0  1  0            999 V2000
  -30.6017  -14.7686   20.4491 C   0  0  0  0  0  0
  -30.4327  -12.4712   19.4654 C   0  0  0  0  0  0
  -29.5086  -12.5018   18.2291 C   0  0  0  0  0  0
  -28.0368  -12.3196   18.6476 C   0  0  0  0  0  0
  -27.6370  -13.2298   19.8396 C   0  0  2  0  0  0
  -28.6828  -13.1869   20.9737 C   0  0  0  0  0  0
  -25.2509  -13.8186   20.5675 C   0  0  0  0  0  0
  -24.1814  -13.0428   20.9218 C   0  0  0  0  0  0
  -24.6419  -11.6910   20.8765 C   0  0  0  0  0  0
  -23.9100  -10.4289   21.0418 C   0  0  0  0  0  0
  -24.3652   -9.4196   21.9187 C   0  0  0  0  0  0
  -23.6321   -8.2236   22.0750 C   0  0  0  0  0  0
  -22.4295   -8.0287   21.3545 C   0  0  0  0  0  0
  -21.9941   -9.0260   20.4644 C   0  0  0  0  0  0
  -22.7273  -10.2135   20.3054 C   0  0  0  0  0  0
  -21.6857   -6.0755   22.5287 C   0  0  0  0  0  0
  -21.4014   -6.5653   23.8222 C   0  0  0  0  0  0
  -21.3658   -5.6797   24.9180 C   0  0  0  0  0  0
  -21.6046   -4.3063   24.7224 C   0  0  0  0  0  0
  -21.8821   -3.8162   23.4343 C   0  0  0  0  0  0
  -21.9194   -4.6987   22.3408 C   0  0  0  0  0  0
  -22.7837  -13.5213   21.1871 C   0  0  0  0  0  0
  -22.1661   -4.2173   21.0981 F   0  0  0  0  0  0
  -21.5625   -3.4541   25.7734 F   0  0  0  0  0  0
  -29.9777  -13.5422   20.3820 N   0  0  0  0  0  0
  -26.2922  -12.9389   20.3235 N   0  0  0  0  0  0
  -25.9342  -11.6542   20.5755 N   0  0  0  0  0  0
  -22.0487  -12.8206   22.0428 N   0  0  0  0  0  0
  -25.4171  -15.1919   20.4069 N   0  0  0  0  0  0
  -31.8028  -14.8456   20.1721 O   0  0  0  0  0  0
  -21.6647   -6.8898   21.4249 O   0  0  0  0  0  0
  -22.3520  -14.5516   20.6708 O   0  0  0  0  0  0
  -24.6300  -31.8540   23.1969 C   0  0  0  0  0  0
  -25.9125  -32.4745   23.8320 C   0  0  1  0  0  0
  -27.2186  -27.2594   20.1400 C   0  0  0  0  0  0
  -25.5922  -33.8550   24.2240 N   0  0  0  0  0  0
  -23.4269  -30.4741   21.5411 C   0  0  2  0  0  0
  -24.8732  -28.9113   20.1172 C   0  0  0  0  0  0
  -22.7497  -29.4594   22.4934 C   0  0  0  0  0  0
  -18.0289  -28.1383   22.8486 C   0  0  0  0  0  0
  -24.1490  -36.7282   23.2638 C   0  0  0  0  0  0
  -25.9709  -30.7690   21.3721 C   0  0  0  0  0  0
  -26.0451  -29.3880   20.7193 C   0  0  0  0  0  0
  -27.2246  -28.5777   20.7091 C   0  0  0  0  0  0
  -26.0238  -26.8360   19.5265 C   0  0  0  0  0  0
  -24.8673  -27.6442   19.5095 C   0  0  0  0  0  0
  -23.6446  -29.8011   20.1595 C   0  0  0  0  0  0
  -25.4115  -36.3068   24.0326 C   0  0  1  0  0  0
  -20.5891  -28.3690   23.1277 C   0  0  2  0  0  0
  -20.6776  -26.9410   22.5413 C   0  0  0  0  0  0
  -19.5754  -26.6379   21.5214 C   0  0  0  0  0  0
  -18.1932  -26.7927   22.1626 C   0  0  0  0  0  0
  -19.1540  -28.8856   23.2875 C   0  0  0  0  0  0
  -18.9462  -30.1454   23.8895 C   0  0  0  0  0  0
  -17.6461  -30.6586   24.0559 C   0  0  0  0  0  0
  -25.9054  -34.9437   23.5090 C   0  0  0  0  0  0
  -16.5352  -29.9081   23.6328 C   0  0  0  0  0  0
  -16.7274  -28.6497   23.0354 C   0  0  0  0  0  0
  -26.4495  -31.6570   25.0709 C   0  0  0  0  0  0
  -25.3719  -31.3721   26.1431 C   0  0  0  0  0  0
  -27.0325  -30.2985   24.6181 C   0  0  0  0  0  0
  -27.6049  -32.4310   25.7486 C   0  0  0  0  0  0
  -27.5584  -37.1792   24.8462 C   0  0  0  0  0  0
  -21.4205  -29.3037   22.3673 N   0  0  0  0  0  0
  -26.4288  -37.3769   23.9416 N   0  0  0  0  0  0
  -24.6954  -31.0506   22.0933 N   0  0  0  0  0  0
  -23.4200  -28.8146   23.3041 O   0  0  0  0  0  0
  -28.3352  -26.3998   20.1143 O   0  0  0  0  0  0
  -26.5640  -34.8920   22.4666 O   0  0  0  0  0  0
  -23.5452  -32.1357   23.7264 O   0  0  0  0  0  0
  -29.3003  -18.4938   20.4006 C   0  0  0  0  0  0
  -30.8947  -20.0942   21.2861 C   0  0  0  0  0  0
  -31.4106  -17.6961   21.2963 C   0  0  0  0  0  0
  -29.6502  -19.8948   20.6447 C   0  0  0  0  0  0
  -30.1647  -17.3587   20.7223 C   0  0  0  0  0  0
  -31.7841  -19.0278   21.5708 C   0  0  0  0  0  0
  -28.6953  -21.1214   20.3797 C   0  0  0  0  0  0
  -30.5152  -22.7163   19.7289 C   0  0  0  0  0  0
  -33.5818  -20.5171   22.1529 C   0  0  0  0  0  0
  -28.2358  -23.6547   19.7629 C   0  0  0  0  0  0
  -28.2683  -25.0016   20.6675 C   0  0  0  0  0  0
  -29.8114  -15.9139   20.5681 N   0  0  0  0  0  0
  -29.1221  -22.4330   20.0963 N   0  0  0  0  0  0
  -27.4856  -20.8810   20.4180 O   0  0  0  0  0  0
  -33.0272  -19.2061   22.1403 O   0  0  0  0  0  0
  -31.4709  -12.6032   19.1558 H   0  0  0  0  0  0
  -30.3851  -11.4984   19.9591 H   0  0  0  0  0  0
  -29.7953  -11.7196   17.5247 H   0  0  0  0  0  0
  -29.6278  -13.4492   17.7003 H   0  0  0  0  0  0
  -27.9050  -11.2728   18.9249 H   0  0  0  0  0  0
  -27.3761  -12.4911   17.7967 H   0  0  0  0  0  0
  -27.6224  -14.2459   19.4462 H   0  0  0  0  0  0
  -28.7273  -12.1974   21.4303 H   0  0  0  0  0  0
  -28.4152  -13.8835   21.7701 H   0  0  0  0  0  0
  -25.2803   -9.5680   22.4757 H   0  0  0  0  0  0
  -24.0040   -7.4630   22.7467 H   0  0  0  0  0  0
  -21.0863   -8.8788   19.8951 H   0  0  0  0  0  0
  -22.3736  -10.9686   19.6169 H   0  0  0  0  0  0
  -21.2002   -7.6158   23.9738 H   0  0  0  0  0  0
  -21.1474   -6.0521   25.9086 H   0  0  0  0  0  0
  -22.0602   -2.7628   23.2835 H   0  0  0  0  0  0
  -22.4119  -11.9886   22.4841 H   0  0  0  0  0  0
  -21.1098  -13.1219   22.2604 H   0  0  0  0  0  0
  -24.6435  -15.8389   20.5132 H   0  0  0  0  0  0
  -26.2517  -15.6363   20.0481 H   0  0  0  0  0  0
  -26.7195  -32.5400   23.1065 H   0  0  0  0  0  0
  -25.0045  -33.9682   25.0373 H   0  0  0  0  0  0
  -22.7233  -31.2962   21.3930 H   0  0  0  0  0  0
  -23.3760  -35.9606   23.3275 H   0  0  0  0  0  0
  -24.3583  -36.8931   22.2059 H   0  0  0  0  0  0
  -23.7234  -37.6472   23.6678 H   0  0  0  0  0  0
  -26.1029  -31.5270   20.5988 H   0  0  0  0  0  0
  -26.8497  -30.8237   22.0028 H   0  0  0  0  0  0
  -28.1311  -28.9445   21.1708 H   0  0  0  0  0  0
  -25.9830  -25.8618   19.0604 H   0  0  0  0  0  0
  -23.9681  -27.2736   19.0361 H   0  0  0  0  0  0
  -23.7696  -30.5734   19.3993 H   0  0  0  0  0  0
  -22.7622  -29.2337   19.8581 H   0  0  0  0  0  0
  -25.1296  -36.1909   25.0818 H   0  0  0  0  0  0
  -20.9978  -28.3261   24.1399 H   0  0  0  0  0  0
  -20.5668  -26.2304   23.3616 H   0  0  0  0  0  0
  -21.6644  -26.7432   22.1208 H   0  0  0  0  0  0
  -19.6911  -25.6285   21.1250 H   0  0  0  0  0  0
  -19.6687  -27.3188   20.6741 H   0  0  0  0  0  0
  -17.4203  -26.6674   21.4026 H   0  0  0  0  0  0
  -18.0327  -26.0066   22.9018 H   0  0  0  0  0  0
  -19.7934  -30.7273   24.2268 H   0  0  0  0  0  0
  -17.5009  -31.6268   24.5155 H   0  0  0  0  0  0
  -15.5346  -30.2984   23.7647 H   0  0  0  0  0  0
  -15.8675  -28.0809   22.7076 H   0  0  0  0  0  0
  -24.5896  -30.7068   25.7756 H   0  0  0  0  0  0
  -24.8908  -32.2888   26.4847 H   0  0  0  0  0  0
  -25.8030  -30.8902   27.0214 H   0  0  0  0  0  0
  -26.2892  -29.6750   24.1196 H   0  0  0  0  0  0
  -27.3997  -29.7231   25.4689 H   0  0  0  0  0  0
  -27.8779  -30.4251   23.9414 H   0  0  0  0  0  0
  -27.2650  -33.3608   26.2059 H   0  0  0  0  0  0
  -28.3860  -32.6872   25.0317 H   0  0  0  0  0  0
  -28.0718  -31.8442   26.5406 H   0  0  0  0  0  0
  -28.2582  -38.0109   24.7531 H   0  0  0  0  0  0
  -28.1102  -36.2641   24.6252 H   0  0  0  0  0  0
  -27.2311  -37.1399   25.8867 H   0  0  0  0  0  0
  -20.9399  -29.8751   21.6869 H   0  0  0  0  0  0
  -26.0164  -38.2838   24.1433 H   0  0  0  0  0  0
  -28.3316  -18.2936   19.9655 H   0  0  0  0  0  0
  -31.1651  -21.0919   21.5853 H   0  0  0  0  0  0
  -32.1084  -16.9192   21.5722 H   0  0  0  0  0  0
  -31.0174  -21.8527   19.2912 H   0  0  0  0  0  0
  -31.0788  -23.0556   20.5986 H   0  0  0  0  0  0
  -30.5919  -23.5049   18.9807 H   0  0  0  0  0  0
  -34.6308  -20.4611   22.4448 H   0  0  0  0  0  0
  -33.0753  -21.1609   22.8731 H   0  0  0  0  0  0
  -33.5445  -20.9802   21.1649 H   0  0  0  0  0  0
  -28.4460  -23.9449   18.7328 H   0  0  0  0  0  0
  -27.1972  -23.3240   19.7156 H   0  0  0  0  0  0
  -29.1467  -24.9216   21.3074 H   0  0  0  0  0  0
  -27.4307  -24.9567   21.3652 H   0  0  0  0  0  0
  -28.8229  -15.7163   20.5780 H   0  0  0  0  0  0
  1 25  1  0  0  0
  1 30  2  0  0  0
  1 82  1  0  0  0
  2  3  1  0  0  0
  2 25  1  0  0  0
  2 86  1  0  0  0
  2 87  1  0  0  0
  3  4  1  0  0  0
  3 88  1  0  0  0
  3 89  1  0  0  0
  4  5  1  0  0  0
  4 90  1  0  0  0
  4 91  1  0  0  0
  5  6  1  0  0  0
  5 26  1  0  0  0
  5 92  1  0  0  0
  6 25  1  0  0  0
  6 93  1  0  0  0
  6 94  1  0  0  0
  7  8  2  0  0  0
  7 26  1  0  0  0
  7 29  1  0  0  0
  8  9  1  0  0  0
  8 22  1  0  0  0
  9 10  1  0  0  0
  9 27  2  0  0  0
 10 11  2  0  0  0
 10 15  1  0  0  0
 11 12  1  0  0  0
 11 95  1  0  0  0
 12 13  2  0  0  0
 12 96  1  0  0  0
 13 14  1  0  0  0
 13 31  1  0  0  0
 14 15  2  0  0  0
 14 97  1  0  0  0
 15 98  1  0  0  0
 16 17  2  0  0  0
 16 21  1  0  0  0
 16 31  1  0  0  0
 17 18  1  0  0  0
 17 99  1  0  0  0
 18 19  2  0  0  0
 18100  1  0  0  0
 19 20  1  0  0  0
 19 24  1  0  0  0
 20 21  2  0  0  0
 20101  1  0  0  0
 21 23  1  0  0  0
 22 28  1  0  0  0
 22 32  2  0  0  0
 26 27  1  0  0  0
 28102  1  0  0  0
 28103  1  0  0  0
 29104  1  0  0  0
 29105  1  0  0  0
 33 34  1  0  0  0
 33 66  1  0  0  0
 33 70  2  0  0  0
 34 36  1  0  0  0
 34 59  1  0  0  0
 34106  1  0  0  0
 35 44  2  0  0  0
 35 45  1  0  0  0
 35 68  1  0  0  0
 36 56  1  0  0  0
 36107  1  0  0  0
 37 39  1  0  0  0
 37 47  1  0  0  0
 37 66  1  0  0  0
 37108  1  0  0  0
 38 43  2  0  0  0
 38 46  1  0  0  0
 38 47  1  0  0  0
 39 64  1  0  0  0
 39 67  2  0  0  0
 40 52  1  0  0  0
 40 53  2  0  0  0
 40 58  1  0  0  0
 41109  1  0  0  0
 41110  1  0  0  0
 41111  1  0  0  0
 41 48  1  0  0  0
 42 43  1  0  0  0
 42 66  1  0  0  0
 42112  1  0  0  0
 42113  1  0  0  0
 43 44  1  0  0  0
 44114  1  0  0  0
 45 46  2  0  0  0
 45115  1  0  0  0
 46116  1  0  0  0
 47117  1  0  0  0
 47118  1  0  0  0
 48 56  1  0  0  0
 48 65  1  0  0  0
 48119  1  0  0  0
 49 50  1  0  0  0
 49 53  1  0  0  0
 49 64  1  0  0  0
 49120  1  0  0  0
 50 51  1  0  0  0
 50121  1  0  0  0
 50122  1  0  0  0
 51 52  1  0  0  0
 51123  1  0  0  0
 51124  1  0  0  0
 52125  1  0  0  0
 52126  1  0  0  0
 53 54  1  0  0  0
 54 55  2  0  0  0
 54127  1  0  0  0
 55 57  1  0  0  0
 55128  1  0  0  0
 56 69  2  0  0  0
 57 58  2  0  0  0
 57129  1  0  0  0
 58130  1  0  0  0
 59 60  1  0  0  0
 59 61  1  0  0  0
 59 62  1  0  0  0
 60131  1  0  0  0
 60132  1  0  0  0
 60133  1  0  0  0
 61134  1  0  0  0
 61135  1  0  0  0
 61136  1  0  0  0
 62137  1  0  0  0
 62138  1  0  0  0
 62139  1  0  0  0
 63 65  1  0  0  0
 63140  1  0  0  0
 63141  1  0  0  0
 63142  1  0  0  0
 64143  1  0  0  0
 65144  1  0  0  0
 68 81  1  0  0  0
 71 74  2  0  0  0
 71 75  1  0  0  0
 71145  1  0  0  0
 72 74  1  0  0  0
 72 76  2  0  0  0
 72146  1  0  0  0
 73 75  2  0  0  0
 73 76  1  0  0  0
 73147  1  0  0  0
 74 77  1  0  0  0
 75 82  1  0  0  0
 76 85  1  0  0  0
 77 83  1  0  0  0
 77 84  2  0  0  0
 78 83  1  0  0  0
 78148  1  0  0  0
 78149  1  0  0  0
 78150  1  0  0  0
 79 85  1  0  0  0
 79151  1  0  0  0
 79152  1  0  0  0
 79153  1  0  0  0
 80 81  1  0  0  0
 80 83  1  0  0  0
 80154  1  0  0  0
 80155  1  0  0  0
 81156  1  0  0  0
 81157  1  0  0  0
 82158  1  0  0  0
M  ISO  4   1 100  68 101  81 101  82 100
M  END
> <chiral flag>
0

> <version>
0

> <s_m_source_file>
/data/baiqing/PycharmProjects/Reinvent-master-3.2/result/LINK_invent/BTK/process_docking_weight1_custom_sum_contain_oxygen_bond_distance_aromatic_linkinvent_7_9_3/rearranged_h_0006.sdf

> <i_m_source_file_index>
39

> <r_mmod_Potential_Energy-OPLS-2005>
225.169738769531

> <r_mmod_Stretch_Energy-OPLS-2005>
139.318222045898

> <r_mmod_Bend_Energy-OPLS-2005>
183.812713623047

> <r_mmod_Torsional_Energy-OPLS-2005>
280.026550292969

> <r_mmod_Improper_Torsional_Energy-OPLS-2005>
7.41978406906128

> <r_mmod_Van_der_Waal_Energy-OPLS-2005>
150.304061889648

> <r_mmod_Electrostatic_Energy-OPLS-2005>
-386.480010986328

> <r_mmod_Solvation_Energy-OPLS-2005>
-237.8896484375

> <b_mmod_Minimization_Converged-OPLS-2005>
0

> <r_mmod_RMS_Derivative-OPLS-2005>
1.49493598937988

$$$$
39
                    3D
 Structure written by MMmdl.
154162  0  0  1  0            999 V2000
  -30.7108  -14.6268   20.4661 C   0  0  0  0  0  0
  -30.4192  -12.3707   19.4872 C   0  0  0  0  0  0
  -29.5234  -12.5164   18.2410 C   0  0  0  0  0  0
  -28.0376  -12.3904   18.6298 C   0  0  0  0  0  0
  -27.6531  -13.2519   19.8619 C   0  0  2  0  0  0
  -28.7005  -13.1550   20.9979 C   0  0  0  0  0  0
  -25.2496  -13.8246   20.5676 C   0  0  0  0  0  0
  -24.1804  -13.0482   20.9207 C   0  0  0  0  0  0
  -24.6450  -11.6957   20.8755 C   0  0  0  0  0  0
  -23.9153  -10.4331   21.0423 C   0  0  0  0  0  0
  -24.3706   -9.4225   21.9188 C   0  0  0  0  0  0
  -23.6355   -8.2271   22.0761 C   0  0  0  0  0  0
  -22.4322   -8.0347   21.3568 C   0  0  0  0  0  0
  -21.9973   -9.0304   20.4677 C   0  0  0  0  0  0
  -22.7335  -10.2183   20.3052 C   0  0  0  0  0  0
  -21.6858   -6.0791   22.5275 C   0  0  0  0  0  0
  -21.4036   -6.5665   23.8220 C   0  0  0  0  0  0
  -21.3658   -5.6802   24.9155 C   0  0  0  0  0  0
  -21.6040   -4.3060   24.7199 C   0  0  0  0  0  0
  -21.8812   -3.8175   23.4303 C   0  0  0  0  0  0
  -21.9198   -4.7020   22.3371 C   0  0  0  0  0  0
  -22.7825  -13.5260   21.1856 C   0  0  0  0  0  0
  -22.1665   -4.2229   21.0940 F   0  0  0  0  0  0
  -21.5620   -3.4527   25.7690 F   0  0  0  0  0  0
  -30.0313  -13.4359   20.4296 N   0  0  0  0  0  0
  -26.2993  -12.9540   20.3339 N   0  0  0  0  0  0
  -25.9390  -11.6661   20.5770 N   0  0  0  0  0  0
  -22.0480  -12.8205   22.0431 N   0  0  0  0  0  0
  -25.4154  -15.2005   20.4022 N   0  0  0  0  0  0
  -31.8736  -14.7150   20.0715 O   0  0  0  0  0  0
  -21.6655   -6.8958   21.4251 O   0  0  0  0  0  0
  -22.3449  -14.5531   20.6733 O   0  0  0  0  0  0
  -24.6196  -31.8640   23.2021 C   0  0  0  0  0  0
  -25.9071  -32.4813   23.8347 C   0  0  1  0  0  0
  -27.2386  -27.4003   20.1077 C   0  0  0  0  0  0
  -25.5927  -33.8608   24.2299 N   0  0  0  0  0  0
  -23.4065  -30.4865   21.5427 C   0  0  2  0  0  0
  -24.8561  -28.9438   20.1140 C   0  0  0  0  0  0
  -22.7404  -29.4636   22.4923 C   0  0  0  0  0  0
  -18.0277  -28.1362   22.8461 C   0  0  0  0  0  0
  -24.1501  -36.7360   23.2618 C   0  0  0  0  0  0
  -25.9342  -30.8271   21.3454 C   0  0  0  0  0  0
  -26.0172  -29.4534   20.7055 C   0  0  0  0  0  0
  -27.2124  -28.6911   20.6949 C   0  0  0  0  0  0
  -26.0535  -26.9064   19.5192 C   0  0  0  0  0  0
  -24.8715  -27.6705   19.5174 C   0  0  0  0  0  0
  -23.6182  -29.8132   20.1587 C   0  0  0  0  0  0
  -25.4097  -36.3108   24.0334 C   0  0  1  0  0  0
  -20.5863  -28.3656   23.1281 C   0  0  2  0  0  0
  -20.6759  -26.9385   22.5388 C   0  0  0  0  0  0
  -19.5744  -26.6370   21.5172 C   0  0  0  0  0  0
  -18.1925  -26.7905   22.1596 C   0  0  0  0  0  0
  -19.1523  -28.8816   23.2891 C   0  0  0  0  0  0
  -18.9467  -30.1411   23.8933 C   0  0  0  0  0  0
  -17.6464  -30.6554   24.0560 C   0  0  0  0  0  0
  -25.9024  -34.9481   23.5108 C   0  0  0  0  0  0
  -16.5353  -29.9057   23.6307 C   0  0  0  0  0  0
  -16.7261  -28.6477   23.0315 C   0  0  0  0  0  0
  -26.4471  -31.6589   25.0691 C   0  0  0  0  0  0
  -25.3762  -31.3717   26.1473 C   0  0  0  0  0  0
  -27.0264  -30.3038   24.6016 C   0  0  0  0  0  0
  -27.6028  -32.4292   25.7504 C   0  0  0  0  0  0
  -27.5589  -37.1826   24.8427 C   0  0  0  0  0  0
  -21.4124  -29.3057   22.3696 N   0  0  0  0  0  0
  -26.4271  -37.3810   23.9410 N   0  0  0  0  0  0
  -24.6729  -31.0717   22.0919 N   0  0  0  0  0  0
  -23.4162  -28.8153   23.2953 O   0  0  0  0  0  0
  -28.4218  -26.6753   20.1424 O   0  0  0  0  0  0
  -26.5575  -34.8943   22.4663 O   0  0  0  0  0  0
  -23.5388  -32.1385   23.7425 O   0  0  0  0  0  0
  -31.5993  -19.1266   20.0204 C   0  0  0  0  0  0
  -31.4733  -17.7336   20.2361 C   0  0  0  0  0  0
  -30.4851  -19.9795   20.1277 C   0  0  0  0  0  0
  -29.1027  -18.0439   20.6408 C   0  0  0  0  0  0
  -30.2132  -17.1554   20.5486 C   0  0  0  0  0  0
  -29.2176  -19.4529   20.4527 C   0  0  0  0  0  0
  -28.1039  -24.1997   20.6508 C   0  0  0  0  0  0
  -28.0625  -22.7514   20.0525 C   0  0  0  0  0  0
  -28.4862  -25.3201   19.6377 C   0  0  0  0  0  0
  -28.2288  -21.5984   21.0890 C   0  0  0  0  0  0
  -29.9829  -15.7353   20.7930 N   0  0  0  0  0  0
  -28.0923  -20.2637   20.5520 O   0  0  0  0  0  0
  -31.4728  -12.4190   19.2138 H   0  0  0  0  0  0
  -30.2789  -11.3944   19.9547 H   0  0  0  0  0  0
  -29.7904  -11.7652   17.4988 H   0  0  0  0  0  0
  -29.7031  -13.4835   17.7639 H   0  0  0  0  0  0
  -27.8398  -11.3397   18.8463 H   0  0  0  0  0  0
  -27.4064  -12.6547   17.7808 H   0  0  0  0  0  0
  -27.6568  -14.2826   19.5104 H   0  0  0  0  0  0
  -28.6858  -12.1606   21.4404 H   0  0  0  0  0  0
  -28.4554  -13.8473   21.8063 H   0  0  0  0  0  0
  -25.2893   -9.5654   22.4706 H   0  0  0  0  0  0
  -24.0105   -7.4623   22.7406 H   0  0  0  0  0  0
  -21.0911   -8.8836   19.8935 H   0  0  0  0  0  0
  -22.3856  -10.9714   19.6087 H   0  0  0  0  0  0
  -21.2051   -7.6177   23.9746 H   0  0  0  0  0  0
  -21.1477   -6.0515   25.9063 H   0  0  0  0  0  0
  -22.0607   -2.7655   23.2744 H   0  0  0  0  0  0
  -22.4137  -11.9905   22.4848 H   0  0  0  0  0  0
  -21.1050  -13.1135   22.2587 H   0  0  0  0  0  0
  -24.6281  -15.8415   20.4170 H   0  0  0  0  0  0
  -26.2419  -15.6114   19.9897 H   0  0  0  0  0  0
  -26.7149  -32.5524   23.1123 H   0  0  0  0  0  0
  -25.0169  -33.9761   25.0508 H   0  0  0  0  0  0
  -22.6994  -31.3054   21.3968 H   0  0  0  0  0  0
  -23.3746  -35.9703   23.3197 H   0  0  0  0  0  0
  -24.3624  -36.9063   22.2048 H   0  0  0  0  0  0
  -23.7256  -37.6557   23.6668 H   0  0  0  0  0  0
  -26.0212  -31.5765   20.5588 H   0  0  0  0  0  0
  -26.8330  -30.9120   21.9428 H   0  0  0  0  0  0
  -28.1098  -29.0890   21.1483 H   0  0  0  0  0  0
  -26.0083  -25.9245   19.0690 H   0  0  0  0  0  0
  -23.9794  -27.2608   19.0642 H   0  0  0  0  0  0
  -23.7289  -30.5858   19.3970 H   0  0  0  0  0  0
  -22.7426  -29.2353   19.8586 H   0  0  0  0  0  0
  -25.1253  -36.1971   25.0824 H   0  0  0  0  0  0
  -20.9995  -28.3240   24.1390 H   0  0  0  0  0  0
  -20.5618  -26.2276   23.3578 H   0  0  0  0  0  0
  -21.6647  -26.7390   22.1206 H   0  0  0  0  0  0
  -19.6898  -25.6286   21.1194 H   0  0  0  0  0  0
  -19.6673  -27.3190   20.6706 H   0  0  0  0  0  0
  -17.4188  -26.6632   21.4011 H   0  0  0  0  0  0
  -18.0345  -26.0037   22.8981 H   0  0  0  0  0  0
  -19.7957  -30.7200   24.2341 H   0  0  0  0  0  0
  -17.5028  -31.6246   24.5133 H   0  0  0  0  0  0
  -15.5352  -30.2955   23.7622 H   0  0  0  0  0  0
  -15.8670  -28.0802   22.6994 H   0  0  0  0  0  0
  -24.5916  -30.7062   25.7868 H   0  0  0  0  0  0
  -24.9000  -32.2896   26.4932 H   0  0  0  0  0  0
  -25.8179  -30.8912   27.0217 H   0  0  0  0  0  0
  -26.2765  -29.6850   24.1087 H   0  0  0  0  0  0
  -27.4076  -29.7228   25.4420 H   0  0  0  0  0  0
  -27.8578  -30.4377   23.9094 H   0  0  0  0  0  0
  -27.2614  -33.3568   26.2114 H   0  0  0  0  0  0
  -28.3867  -32.6885   25.0377 H   0  0  0  0  0  0
  -28.0647  -31.8393   26.5440 H   0  0  0  0  0  0
  -28.2524  -38.0205   24.7571 H   0  0  0  0  0  0
  -28.1175  -36.2752   24.6087 H   0  0  0  0  0  0
  -27.2351  -37.1290   25.8839 H   0  0  0  0  0  0
  -20.9231  -29.8897   21.7058 H   0  0  0  0  0  0
  -26.0160  -38.2889   24.1431 H   0  0  0  0  0  0
  -32.5559  -19.5634   19.7691 H   0  0  0  0  0  0
  -32.3629  -17.1298   20.1575 H   0  0  0  0  0  0
  -30.6114  -21.0373   19.9408 H   0  0  0  0  0  0
  -28.1325  -17.6319   20.8764 H   0  0  0  0  0  0
  -28.8328  -24.2229   21.4612 H   0  0  0  0  0  0
  -27.1433  -24.4283   21.1122 H   0  0  0  0  0  0
  -28.8428  -22.6539   19.2980 H   0  0  0  0  0  0
  -27.1116  -22.6214   19.5272 H   0  0  0  0  0  0
  -27.9654  -25.2114   18.6896 H   0  0  0  0  0  0
  -29.5315  -25.1508   19.3834 H   0  0  0  0  0  0
  -27.4483  -21.7030   21.8432 H   0  0  0  0  0  0
  -29.1667  -21.6970   21.6376 H   0  0  0  0  0  0
  -29.0543  -15.5175   21.1144 H   0  0  0  0  0  0
  1 25  1  0  0  0
  1 30  2  0  0  0
  1 81  1  0  0  0
  2  3  1  0  0  0
  2 25  1  0  0  0
  2 83  1  0  0  0
  2 84  1  0  0  0
  3  4  1  0  0  0
  3 85  1  0  0  0
  3 86  1  0  0  0
  4  5  1  0  0  0
  4 87  1  0  0  0
  4 88  1  0  0  0
  5  6  1  0  0  0
  5 26  1  0  0  0
  5 89  1  0  0  0
  6 25  1  0  0  0
  6 90  1  0  0  0
  6 91  1  0  0  0
  7  8  2  0  0  0
  7 26  1  0  0  0
  7 29  1  0  0  0
  8  9  1  0  0  0
  8 22  1  0  0  0
  9 10  1  0  0  0
  9 27  2  0  0  0
 10 11  2  0  0  0
 10 15  1  0  0  0
 11 12  1  0  0  0
 11 92  1  0  0  0
 12 13  2  0  0  0
 12 93  1  0  0  0
 13 14  1  0  0  0
 13 31  1  0  0  0
 14 15  2  0  0  0
 14 94  1  0  0  0
 15 95  1  0  0  0
 16 17  2  0  0  0
 16 21  1  0  0  0
 16 31  1  0  0  0
 17 18  1  0  0  0
 17 96  1  0  0  0
 18 19  2  0  0  0
 18 97  1  0  0  0
 19 20  1  0  0  0
 19 24  1  0  0  0
 20 21  2  0  0  0
 20 98  1  0  0  0
 21 23  1  0  0  0
 22 28  1  0  0  0
 22 32  2  0  0  0
 26 27  1  0  0  0
 28 99  1  0  0  0
 28100  1  0  0  0
 29101  1  0  0  0
 29102  1  0  0  0
 33 34  1  0  0  0
 33 66  1  0  0  0
 33 70  2  0  0  0
 34 36  1  0  0  0
 34 59  1  0  0  0
 34103  1  0  0  0
 35 44  2  0  0  0
 35 45  1  0  0  0
 35 68  1  0  0  0
 36 56  1  0  0  0
 36104  1  0  0  0
 37 39  1  0  0  0
 37 47  1  0  0  0
 37 66  1  0  0  0
 37105  1  0  0  0
 38 43  2  0  0  0
 38 46  1  0  0  0
 38 47  1  0  0  0
 39 64  1  0  0  0
 39 67  2  0  0  0
 40 52  1  0  0  0
 40 53  2  0  0  0
 40 58  1  0  0  0
 41106  1  0  0  0
 41107  1  0  0  0
 41108  1  0  0  0
 41 48  1  0  0  0
 42 43  1  0  0  0
 42 66  1  0  0  0
 42109  1  0  0  0
 42110  1  0  0  0
 43 44  1  0  0  0
 44111  1  0  0  0
 45 46  2  0  0  0
 45112  1  0  0  0
 46113  1  0  0  0
 47114  1  0  0  0
 47115  1  0  0  0
 48 56  1  0  0  0
 48 65  1  0  0  0
 48116  1  0  0  0
 49 50  1  0  0  0
 49 53  1  0  0  0
 49 64  1  0  0  0
 49117  1  0  0  0
 50 51  1  0  0  0
 50118  1  0  0  0
 50119  1  0  0  0
 51 52  1  0  0  0
 51120  1  0  0  0
 51121  1  0  0  0
 52122  1  0  0  0
 52123  1  0  0  0
 53 54  1  0  0  0
 54 55  2  0  0  0
 54124  1  0  0  0
 55 57  1  0  0  0
 55125  1  0  0  0
 56 69  2  0  0  0
 57 58  2  0  0  0
 57126  1  0  0  0
 58127  1  0  0  0
 59 60  1  0  0  0
 59 61  1  0  0  0
 59 62  1  0  0  0
 60128  1  0  0  0
 60129  1  0  0  0
 60130  1  0  0  0
 61131  1  0  0  0
 61132  1  0  0  0
 61133  1  0  0  0
 62134  1  0  0  0
 62135  1  0  0  0
 62136  1  0  0  0
 63 65  1  0  0  0
 63137  1  0  0  0
 63138  1  0  0  0
 63139  1  0  0  0
 64140  1  0  0  0
 65141  1  0  0  0
 68 79  1  0  0  0
 71 72  2  0  0  0
 71 73  1  0  0  0
 71142  1  0  0  0
 72 75  1  0  0  0
 72143  1  0  0  0
 73 76  2  0  0  0
 73144  1  0  0  0
 74 75  2  0  0  0
 74 76  1  0  0  0
 74145  1  0  0  0
 75 81  1  0  0  0
 76 82  1  0  0  0
 77 78  1  0  0  0
 77 79  1  0  0  0
 77146  1  0  0  0
 77147  1  0  0  0
 78 80  1  0  0  0
 78148  1  0  0  0
 78149  1  0  0  0
 79150  1  0  0  0
 79151  1  0  0  0
 80 82  1  0  0  0
 80152  1  0  0  0
 80153  1  0  0  0
 81154  1  0  0  0
M  ISO  4   1 100  68 101  79 101  81 100
M  END
> <chiral flag>
0

> <version>
0

> <s_m_source_file>
/data/baiqing/PycharmProjects/Reinvent-master-3.2/result/LINK_invent/BTK/process_docking_weight1_custom_sum_contain_oxygen_bond_distance_aromatic_linkinvent_7_9_3/rearranged_h_0006.sdf

> <i_m_source_file_index>
40

> <r_mmod_Potential_Energy-OPLS-2005>
12.3938570022583

> <r_mmod_Stretch_Energy-OPLS-2005>
53.158374786377

> <r_mmod_Bend_Energy-OPLS-2005>
125.004516601562

> <r_mmod_Torsional_Energy-OPLS-2005>
215.281326293945

> <r_mmod_Improper_Torsional_Energy-OPLS-2005>
4.95515584945679

> <r_mmod_Van_der_Waal_Energy-OPLS-2005>
147.654434204102

> <r_mmod_Electrostatic_Energy-OPLS-2005>
-362.478637695312

> <r_mmod_Solvation_Energy-OPLS-2005>
-207.331604003906

> <b_mmod_Minimization_Converged-OPLS-2005>
0

> <r_mmod_RMS_Derivative-OPLS-2005>
6.90671491622925

$$$$
40
                    3D
 Structure written by MMmdl.
198206  0  0  1  0            999 V2000
  -30.7196  -14.3503   20.6932 C   0  0  0  0  0  0
  -30.4335  -12.2799   19.3789 C   0  0  0  0  0  0
  -29.4907  -12.5446   18.1873 C   0  0  0  0  0  0
  -28.0117  -12.3964   18.6003 C   0  0  0  0  0  0
  -27.6755  -13.1911   19.8895 C   0  0  2  0  0  0
  -28.7106  -12.8680   20.9893 C   0  0  0  0  0  0
  -25.2684  -13.8133   20.5793 C   0  0  0  0  0  0
  -24.1886  -13.0429   20.9197 C   0  0  0  0  0  0
  -24.6394  -11.6885   20.8690 C   0  0  0  0  0  0
  -23.9044  -10.4291   21.0383 C   0  0  0  0  0  0
  -24.3595   -9.4217   21.9175 C   0  0  0  0  0  0
  -23.6285   -8.2241   22.0743 C   0  0  0  0  0  0
  -22.4264   -8.0283   21.3545 C   0  0  0  0  0  0
  -21.9890   -9.0251   20.4641 C   0  0  0  0  0  0
  -22.7209  -10.2136   20.3052 C   0  0  0  0  0  0
  -21.6856   -6.0738   22.5289 C   0  0  0  0  0  0
  -21.4018   -6.5637   23.8222 C   0  0  0  0  0  0
  -21.3647   -5.6791   24.9188 C   0  0  0  0  0  0
  -21.6039   -4.3053   24.7236 C   0  0  0  0  0  0
  -21.8823   -3.8145   23.4356 C   0  0  0  0  0  0
  -21.9193   -4.6966   22.3411 C   0  0  0  0  0  0
  -22.7907  -13.5244   21.1863 C   0  0  0  0  0  0
  -22.1665   -4.2147   21.0991 F   0  0  0  0  0  0
  -21.5627   -3.4539   25.7751 F   0  0  0  0  0  0
  -30.0619  -13.1839   20.4744 N   0  0  0  0  0  0
  -26.3089  -12.9265   20.3401 N   0  0  0  0  0  0
  -25.9306  -11.6435   20.5685 N   0  0  0  0  0  0
  -22.0505  -12.8252   22.0394 N   0  0  0  0  0  0
  -25.4551  -15.1898   20.4561 N   0  0  0  0  0  0
  -31.6953  -14.7365   20.0404 O   0  0  0  0  0  0
  -21.6642   -6.8876   21.4242 O   0  0  0  0  0  0
  -22.3672  -14.5605   20.6774 O   0  0  0  0  0  0
  -24.6098  -31.8706   23.2127 C   0  0  0  0  0  0
  -25.9008  -32.4837   23.8410 C   0  0  1  0  0  0
  -27.2424  -27.4831   20.0814 C   0  0  0  0  0  0
  -25.5880  -33.8634   24.2344 N   0  0  0  0  0  0
  -23.3967  -30.4918   21.5521 C   0  0  2  0  0  0
  -24.8449  -28.9571   20.1201 C   0  0  0  0  0  0
  -22.7387  -29.4659   22.5017 C   0  0  0  0  0  0
  -18.0269  -28.1366   22.8494 C   0  0  0  0  0  0
  -24.1485  -36.7326   23.2638 C   0  0  0  0  0  0
  -25.9197  -30.8465   21.3609 C   0  0  0  0  0  0
  -25.9997  -29.4807   20.7168 C   0  0  0  0  0  0
  -27.2014  -28.7444   20.7063 C   0  0  0  0  0  0
  -26.0750  -26.9521   19.4971 C   0  0  0  0  0  0
  -24.8736  -27.6868   19.5144 C   0  0  0  0  0  0
  -23.6044  -29.8195   20.1676 C   0  0  0  0  0  0
  -25.4103  -36.3122   24.0341 C   0  0  1  0  0  0
  -20.5855  -28.3642   23.1336 C   0  0  2  0  0  0
  -20.6764  -26.9381   22.5428 C   0  0  0  0  0  0
  -19.5747  -26.6369   21.5221 C   0  0  0  0  0  0
  -18.1923  -26.7912   22.1625 C   0  0  0  0  0  0
  -19.1517  -28.8822   23.2912 C   0  0  0  0  0  0
  -18.9447  -30.1432   23.8917 C   0  0  0  0  0  0
  -17.6451  -30.6578   24.0564 C   0  0  0  0  0  0
  -25.9025  -34.9485   23.5140 C   0  0  0  0  0  0
  -16.5342  -29.9083   23.6320 C   0  0  0  0  0  0
  -16.7260  -28.6498   23.0343 C   0  0  0  0  0  0
  -26.4456  -31.6603   25.0722 C   0  0  0  0  0  0
  -25.3741  -31.3692   26.1483 C   0  0  0  0  0  0
  -27.0280  -30.3057   24.6059 C   0  0  0  0  0  0
  -27.6041  -32.4315   25.7476 C   0  0  0  0  0  0
  -27.5581  -37.1816   24.8465 C   0  0  0  0  0  0
  -21.4121  -29.3015   22.3748 N   0  0  0  0  0  0
  -26.4296  -37.3802   23.9406 N   0  0  0  0  0  0
  -24.6599  -31.0834   22.1011 N   0  0  0  0  0  0
  -23.4174  -28.8215   23.3055 O   0  0  0  0  0  0
  -28.4144  -26.7791   20.0301 O   0  0  0  0  0  0
  -26.5586  -34.8930   22.4701 O   0  0  0  0  0  0
  -23.5301  -32.1439   23.7546 O   0  0  0  0  0  0
  -30.1254  -21.1715   18.6033 C   0  0  0  0  0  0
  -29.1802  -20.2205   19.0105 C   0  0  0  0  0  0
  -30.0382  -22.4443   19.1877 C   0  0  0  0  0  0
  -28.2470  -21.7380   20.4137 C   0  0  0  0  0  0
  -24.5476  -18.4469   22.3426 C   0  0  0  0  0  0
  -29.1763  -18.8195   18.4380 C   0  0  0  0  0  0
  -31.8221  -23.3003   17.7147 C   0  0  0  0  0  0
  -24.3826  -22.6335   22.0298 C   0  0  0  0  0  0
  -23.3273  -22.2819   23.0911 C   0  0  0  0  0  0
  -27.9198  -18.0676   22.3195 C   0  0  0  0  0  0
  -25.6262  -23.3066   22.6358 C   0  0  0  0  0  0
  -22.2013  -21.3636   22.5752 C   0  0  0  0  0  0
  -28.5837  -16.6844   22.4575 C   0  0  0  0  0  0
  -26.8999  -18.3952   23.4417 C   0  0  0  0  0  0
  -29.5410  -25.5066   18.3153 C   0  0  0  0  0  0
  -26.8185  -23.3446   21.6686 C   0  0  0  0  0  0
  -22.6694  -20.0279   21.9596 C   0  0  0  0  0  0
  -29.8886  -16.4875   21.6608 C   0  0  0  0  0  0
  -30.5870  -24.8650   19.2445 C   0  0  0  0  0  0
  -29.1025  -26.8967   18.7875 C   0  0  0  0  0  0
  -25.4678  -17.7832   23.3778 C   0  0  2  0  0  0
  -28.2355  -20.5154   19.9210 N   0  0  0  0  0  0
  -29.0904  -22.7070   20.1038 N   0  0  0  0  0  0
  -27.2734  -21.9995   21.3391 N   0  0  0  0  0  0
  -23.6656  -19.3519   22.7892 N   0  0  0  0  0  0
  -30.1865  -15.0632   21.6881 N   0  0  0  0  0  0
  -30.9205  -23.4942   18.8463 N   0  0  0  0  0  0
  -25.4560  -16.3274   23.1716 N   0  3  0  0  0  0
  -24.6137  -18.1164   21.1581 O   0  0  0  0  0  0
  -31.4738  -12.4085   19.0756 H   0  0  0  0  0  0
  -30.3453  -11.2443   19.7119 H   0  0  0  0  0  0
  -29.7232  -11.8652   17.3661 H   0  0  0  0  0  0
  -29.6605  -13.5523   17.8036 H   0  0  0  0  0  0
  -27.8093  -11.3359   18.7532 H   0  0  0  0  0  0
  -27.3616  -12.7145   17.7845 H   0  0  0  0  0  0
  -27.7498  -14.2538   19.6555 H   0  0  0  0  0  0
  -28.6694  -11.8070   21.2380 H   0  0  0  0  0  0
  -28.4467  -13.3744   21.9178 H   0  0  0  0  0  0
  -25.2739   -9.5694   22.4748 H   0  0  0  0  0  0
  -24.0006   -7.4625   22.7442 H   0  0  0  0  0  0
  -21.0827   -8.8749   19.8948 H   0  0  0  0  0  0
  -22.3654  -10.9666   19.6155 H   0  0  0  0  0  0
  -21.2020   -7.6146   23.9725 H   0  0  0  0  0  0
  -21.1460   -6.0529   25.9090 H   0  0  0  0  0  0
  -22.0613   -2.7609   23.2871 H   0  0  0  0  0  0
  -22.4023  -11.9852   22.4743 H   0  0  0  0  0  0
  -21.1107  -13.1289   22.2536 H   0  0  0  0  0  0
  -24.6181  -15.7348   20.2635 H   0  0  0  0  0  0
  -26.2144  -15.4835   19.8520 H   0  0  0  0  0  0
  -26.7082  -32.5569   23.1186 H   0  0  0  0  0  0
  -25.0044  -33.9805   25.0496 H   0  0  0  0  0  0
  -22.6839  -31.3071   21.4125 H   0  0  0  0  0  0
  -23.3739  -35.9669   23.3321 H   0  0  0  0  0  0
  -24.3580  -36.8916   22.2049 H   0  0  0  0  0  0
  -23.7247  -37.6544   23.6633 H   0  0  0  0  0  0
  -26.0226  -31.6095   20.5880 H   0  0  0  0  0  0
  -26.8114  -30.9064   21.9728 H   0  0  0  0  0  0
  -28.0976  -29.1458   21.1586 H   0  0  0  0  0  0
  -26.1020  -25.9804   19.0241 H   0  0  0  0  0  0
  -23.9842  -27.2757   19.0565 H   0  0  0  0  0  0
  -23.7089  -30.5920   19.4046 H   0  0  0  0  0  0
  -22.7304  -29.2346   19.8753 H   0  0  0  0  0  0
  -25.1279  -36.1999   25.0836 H   0  0  0  0  0  0
  -20.9948  -28.3202   24.1456 H   0  0  0  0  0  0
  -20.5670  -26.2245   23.3607 H   0  0  0  0  0  0
  -21.6636  -26.7430   22.1219 H   0  0  0  0  0  0
  -19.6910  -25.6284   21.1241 H   0  0  0  0  0  0
  -19.6695  -27.3189   20.6760 H   0  0  0  0  0  0
  -17.4198  -26.6665   21.4021 H   0  0  0  0  0  0
  -18.0319  -26.0050   22.9016 H   0  0  0  0  0  0
  -19.7926  -30.7238   24.2296 H   0  0  0  0  0  0
  -17.5010  -31.6260   24.5161 H   0  0  0  0  0  0
  -15.5344  -30.2993   23.7631 H   0  0  0  0  0  0
  -15.8659  -28.0828   22.7042 H   0  0  0  0  0  0
  -24.5910  -30.7044   25.7823 H   0  0  0  0  0  0
  -24.8941  -32.2843   26.4962 H   0  0  0  0  0  0
  -25.8114  -30.8841   27.0219 H   0  0  0  0  0  0
  -26.2808  -29.6827   24.1129 H   0  0  0  0  0  0
  -27.4088  -29.7277   25.4489 H   0  0  0  0  0  0
  -27.8625  -30.4392   23.9171 H   0  0  0  0  0  0
  -27.2665  -33.3596   26.2101 H   0  0  0  0  0  0
  -28.3827  -32.6904   25.0288 H   0  0  0  0  0  0
  -28.0738  -31.8413   26.5355 H   0  0  0  0  0  0
  -28.2610  -38.0102   24.7504 H   0  0  0  0  0  0
  -28.1065  -36.2635   24.6299 H   0  0  0  0  0  0
  -27.2300  -37.1481   25.8869 H   0  0  0  0  0  0
  -20.9277  -29.8733   21.6972 H   0  0  0  0  0  0
  -26.0191  -38.2886   24.1398 H   0  0  0  0  0  0
  -30.8707  -20.9085   17.8668 H   0  0  0  0  0  0
  -28.9830  -18.8509   17.3656 H   0  0  0  0  0  0
  -28.4101  -18.1974   18.9017 H   0  0  0  0  0  0
  -30.1430  -18.3421   18.5970 H   0  0  0  0  0  0
  -32.5159  -22.4813   17.9097 H   0  0  0  0  0  0
  -32.4150  -24.1948   17.5225 H   0  0  0  0  0  0
  -31.2586  -23.0707   16.8092 H   0  0  0  0  0  0
  -23.9473  -23.2730   21.2608 H   0  0  0  0  0  0
  -24.6878  -21.7219   21.5206 H   0  0  0  0  0  0
  -22.8904  -23.2024   23.4808 H   0  0  0  0  0  0
  -23.8100  -21.8029   23.9434 H   0  0  0  0  0  0
  -27.4620  -18.1726   21.3353 H   0  0  0  0  0  0
  -28.7053  -18.8237   22.3618 H   0  0  0  0  0  0
  -25.9287  -22.7873   23.5467 H   0  0  0  0  0  0
  -25.3714  -24.3224   22.9418 H   0  0  0  0  0  0
  -21.6037  -21.9011   21.8372 H   0  0  0  0  0  0
  -21.5231  -21.1515   23.4031 H   0  0  0  0  0  0
  -27.8684  -15.9259   22.1414 H   0  0  0  0  0  0
  -28.7986  -16.4861   23.5085 H   0  0  0  0  0  0
  -26.7889  -19.4810   23.4722 H   0  0  0  0  0  0
  -27.3468  -18.1451   24.4047 H   0  0  0  0  0  0
  -28.6586  -24.8702   18.2390 H   0  0  0  0  0  0
  -29.9499  -25.5857   17.3073 H   0  0  0  0  0  0
  -27.6441  -23.8948   22.1228 H   0  0  0  0  0  0
  -26.5509  -23.8758   20.7535 H   0  0  0  0  0  0
  -23.0720  -20.2098   20.9613 H   0  0  0  0  0  0
  -21.8126  -19.3660   21.8208 H   0  0  0  0  0  0
  -30.7105  -17.0602   22.0924 H   0  0  0  0  0  0
  -29.7605  -16.8244   20.6304 H   0  0  0  0  0  0
  -30.2409  -24.8896   20.2793 H   0  0  0  0  0  0
  -31.4962  -25.4676   19.2349 H   0  0  0  0  0  0
  -28.4829  -27.3567   18.0140 H   0  0  0  0  0  0
  -29.9690  -27.5458   18.9190 H   0  0  0  0  0  0
  -25.0181  -17.9485   24.3585 H   0  0  0  0  0  0
  -26.6186  -21.2425   21.4733 H   0  0  0  0  0  0
  -23.6656  -19.5671   23.7771 H   0  0  0  0  0  0
  -29.5699  -14.5196   22.2723 H   0  0  0  0  0  0
  -25.6523  -16.1114   22.1993 H   0  0  0  0  0  0
  -24.5276  -15.9910   23.3576 H   0  0  0  0  0  0
  -26.1006  -15.8613   23.7825 H   0  0  0  0  0  0
  1 25  1  0  0  0
  1 30  2  0  0  0
  1 96  1  0  0  0
  2  3  1  0  0  0
  2 25  1  0  0  0
  2100  1  0  0  0
  2101  1  0  0  0
  3  4  1  0  0  0
  3102  1  0  0  0
  3103  1  0  0  0
  4  5  1  0  0  0
  4104  1  0  0  0
  4105  1  0  0  0
  5  6  1  0  0  0
  5 26  1  0  0  0
  5106  1  0  0  0
  6 25  1  0  0  0
  6107  1  0  0  0
  6108  1  0  0  0
  7  8  2  0  0  0
  7 26  1  0  0  0
  7 29  1  0  0  0
  8  9  1  0  0  0
  8 22  1  0  0  0
  9 10  1  0  0  0
  9 27  2  0  0  0
 10 11  2  0  0  0
 10 15  1  0  0  0
 11 12  1  0  0  0
 11109  1  0  0  0
 12 13  2  0  0  0
 12110  1  0  0  0
 13 14  1  0  0  0
 13 31  1  0  0  0
 14 15  2  0  0  0
 14111  1  0  0  0
 15112  1  0  0  0
 16 17  2  0  0  0
 16 21  1  0  0  0
 16 31  1  0  0  0
 17 18  1  0  0  0
 17113  1  0  0  0
 18 19  2  0  0  0
 18114  1  0  0  0
 19 20  1  0  0  0
 19 24  1  0  0  0
 20 21  2  0  0  0
 20115  1  0  0  0
 21 23  1  0  0  0
 22 28  1  0  0  0
 22 32  2  0  0  0
 26 27  1  0  0  0
 28116  1  0  0  0
 28117  1  0  0  0
 29118  1  0  0  0
 29119  1  0  0  0
 33 34  1  0  0  0
 33 66  1  0  0  0
 33 70  2  0  0  0
 34 36  1  0  0  0
 34 59  1  0  0  0
 34120  1  0  0  0
 35 44  2  0  0  0
 35 45  1  0  0  0
 35 68  1  0  0  0
 36 56  1  0  0  0
 36121  1  0  0  0
 37 39  1  0  0  0
 37 47  1  0  0  0
 37 66  1  0  0  0
 37122  1  0  0  0
 38 43  2  0  0  0
 38 46  1  0  0  0
 38 47  1  0  0  0
 39 64  1  0  0  0
 39 67  2  0  0  0
 40 52  1  0  0  0
 40 53  2  0  0  0
 40 58  1  0  0  0
 41123  1  0  0  0
 41124  1  0  0  0
 41125  1  0  0  0
 41 48  1  0  0  0
 42 43  1  0  0  0
 42 66  1  0  0  0
 42126  1  0  0  0
 42127  1  0  0  0
 43 44  1  0  0  0
 44128  1  0  0  0
 45 46  2  0  0  0
 45129  1  0  0  0
 46130  1  0  0  0
 47131  1  0  0  0
 47132  1  0  0  0
 48 56  1  0  0  0
 48 65  1  0  0  0
 48133  1  0  0  0
 49 50  1  0  0  0
 49 53  1  0  0  0
 49 64  1  0  0  0
 49134  1  0  0  0
 50 51  1  0  0  0
 50135  1  0  0  0
 50136  1  0  0  0
 51 52  1  0  0  0
 51137  1  0  0  0
 51138  1  0  0  0
 52139  1  0  0  0
 52140  1  0  0  0
 53 54  1  0  0  0
 54 55  2  0  0  0
 54141  1  0  0  0
 55 57  1  0  0  0
 55142  1  0  0  0
 56 69  2  0  0  0
 57 58  2  0  0  0
 57143  1  0  0  0
 58144  1  0  0  0
 59 60  1  0  0  0
 59 61  1  0  0  0
 59 62  1  0  0  0
 60145  1  0  0  0
 60146  1  0  0  0
 60147  1  0  0  0
 61148  1  0  0  0
 61149  1  0  0  0
 61150  1  0  0  0
 62151  1  0  0  0
 62152  1  0  0  0
 62153  1  0  0  0
 63 65  1  0  0  0
 63154  1  0  0  0
 63155  1  0  0  0
 63156  1  0  0  0
 64157  1  0  0  0
 65158  1  0  0  0
 68 90  1  0  0  0
 71 72  2  0  0  0
 71 73  1  0  0  0
 71159  1  0  0  0
 72 76  1  0  0  0
 72 92  1  0  0  0
 73 93  2  0  0  0
 73 97  1  0  0  0
 74 92  2  0  0  0
 74 93  1  0  0  0
 74 94  1  0  0  0
 75 91  1  0  0  0
 75 95  1  0  0  0
 75 99  2  0  0  0
 76160  1  0  0  0
 76161  1  0  0  0
 76162  1  0  0  0
 77 97  1  0  0  0
 77163  1  0  0  0
 77164  1  0  0  0
 77165  1  0  0  0
 78 79  1  0  0  0
 78 81  1  0  0  0
 78166  1  0  0  0
 78167  1  0  0  0
 79 82  1  0  0  0
 79168  1  0  0  0
 79169  1  0  0  0
 80 83  1  0  0  0
 80 84  1  0  0  0
 80170  1  0  0  0
 80171  1  0  0  0
 81 86  1  0  0  0
 81172  1  0  0  0
 81173  1  0  0  0
 82 87  1  0  0  0
 82174  1  0  0  0
 82175  1  0  0  0
 83 88  1  0  0  0
 83176  1  0  0  0
 83177  1  0  0  0
 84 91  1  0  0  0
 84178  1  0  0  0
 84179  1  0  0  0
 85 89  1  0  0  0
 85 90  1  0  0  0
 85180  1  0  0  0
 85181  1  0  0  0
 86 94  1  0  0  0
 86182  1  0  0  0
 86183  1  0  0  0
 87 95  1  0  0  0
 87184  1  0  0  0
 87185  1  0  0  0
 88 96  1  0  0  0
 88186  1  0  0  0
 88187  1  0  0  0
 89 97  1  0  0  0
 89188  1  0  0  0
 89189  1  0  0  0
 90190  1  0  0  0
 90191  1  0  0  0
 91 98  1  0  0  0
 91192  1  0  0  0
 94193  1  0  0  0
 95194  1  0  0  0
 96195  1  0  0  0
 98196  1  0  0  0
 98197  1  0  0  0
 98198  1  0  0  0
M  CHG  1  98   1
M  ISO  4   1 100  68 101  90 101  96 100
M  END
> <chiral flag>
0

> <version>
0

> <s_m_source_file>
/data/baiqing/PycharmProjects/Reinvent-master-3.2/result/LINK_invent/BTK/process_docking_weight1_custom_sum_contain_oxygen_bond_distance_aromatic_linkinvent_7_9_3/rearranged_h_0006.sdf

> <i_m_source_file_index>
41

> <r_mmod_Potential_Energy-OPLS-2005>
-1043.91369628906

> <r_mmod_Stretch_Energy-OPLS-2005>
34.4145774841309

> <r_mmod_Bend_Energy-OPLS-2005>
116.126052856445

> <r_mmod_Torsional_Energy-OPLS-2005>
262.154083251953

> <r_mmod_Improper_Torsional_Energy-OPLS-2005>
11.8422508239746

> <r_mmod_Van_der_Waal_Energy-OPLS-2005>
144.707672119141

> <r_mmod_Electrostatic_Energy-OPLS-2005>
-1097.732421875

> <r_mmod_Solvation_Energy-OPLS-2005>
-524.258117675781

> <b_mmod_Minimization_Converged-OPLS-2005>
0

> <r_mmod_RMS_Derivative-OPLS-2005>
1.35799860954285

$$$$
41
                    3D
 Structure written by MMmdl.
156164  0  0  1  0            999 V2000
  -30.5151  -14.9343   20.4398 C   0  0  0  0  0  0
  -30.4532  -12.5776   19.4979 C   0  0  0  0  0  0
  -29.5277  -12.5381   18.2575 C   0  0  0  0  0  0
  -28.0589  -12.3223   18.6721 C   0  0  0  0  0  0
  -27.6379  -13.2418   19.8482 C   0  0  2  0  0  0
  -28.6812  -13.2335   20.9869 C   0  0  0  0  0  0
  -25.2465  -13.8163   20.5652 C   0  0  0  0  0  0
  -24.1777  -13.0407   20.9187 C   0  0  0  0  0  0
  -24.6400  -11.6895   20.8741 C   0  0  0  0  0  0
  -23.9074  -10.4277   21.0400 C   0  0  0  0  0  0
  -24.3621   -9.4195   21.9183 C   0  0  0  0  0  0
  -23.6289   -8.2234   22.0757 C   0  0  0  0  0  0
  -22.4271   -8.0276   21.3547 C   0  0  0  0  0  0
  -21.9909   -9.0249   20.4648 C   0  0  0  0  0  0
  -22.7244  -10.2123   20.3052 C   0  0  0  0  0  0
  -21.6851   -6.0729   22.5280 C   0  0  0  0  0  0
  -21.4013   -6.5634   23.8212 C   0  0  0  0  0  0
  -21.3661   -5.6788   24.9174 C   0  0  0  0  0  0
  -21.6047   -4.3051   24.7225 C   0  0  0  0  0  0
  -21.8816   -3.8143   23.4344 C   0  0  0  0  0  0
  -21.9192   -4.6957   22.3402 C   0  0  0  0  0  0
  -22.7803  -13.5198   21.1856 C   0  0  0  0  0  0
  -22.1661   -4.2142   21.0979 F   0  0  0  0  0  0
  -21.5631   -3.4535   25.7740 F   0  0  0  0  0  0
  -29.9642  -13.6544   20.4039 N   0  0  0  0  0  0
  -26.2928  -12.9407   20.3280 N   0  0  0  0  0  0
  -25.9343  -11.6541   20.5755 N   0  0  0  0  0  0
  -22.0452  -12.8197   22.0420 N   0  0  0  0  0  0
  -25.4061  -15.1872   20.4017 N   0  0  0  0  0  0
  -31.7017  -15.0620   20.1173 O   0  0  0  0  0  0
  -21.6637   -6.8872   21.4245 O   0  0  0  0  0  0
  -22.3488  -14.5516   20.6720 O   0  0  0  0  0  0
  -24.6429  -31.8445   23.1881 C   0  0  0  0  0  0
  -25.9199  -32.4699   23.8275 C   0  0  1  0  0  0
  -27.2256  -27.1471   20.1637 C   0  0  0  0  0  0
  -25.5946  -33.8504   24.2194 N   0  0  0  0  0  0
  -23.4474  -30.4623   21.5332 C   0  0  2  0  0  0
  -24.8997  -28.8857   20.1158 C   0  0  0  0  0  0
  -22.7566  -29.4550   22.4865 C   0  0  0  0  0  0
  -18.0302  -28.1393   22.8477 C   0  0  0  0  0  0
  -24.1491  -36.7260   23.2643 C   0  0  0  0  0  0
  -26.0018  -30.7233   21.3844 C   0  0  0  0  0  0
  -26.0761  -29.3329   20.7315 C   0  0  0  0  0  0
  -27.2435  -28.4814   20.7339 C   0  0  0  0  0  0
  -26.0252  -26.7960   19.5112 C   0  0  0  0  0  0
  -24.8860  -27.6299   19.4891 C   0  0  0  0  0  0
  -23.6754  -29.7873   20.1544 C   0  0  0  0  0  0
  -25.4121  -36.3036   24.0320 C   0  0  1  0  0  0
  -20.5917  -28.3721   23.1234 C   0  0  2  0  0  0
  -20.6787  -26.9425   22.5405 C   0  0  0  0  0  0
  -19.5761  -26.6382   21.5211 C   0  0  0  0  0  0
  -18.1942  -26.7933   22.1622 C   0  0  0  0  0  0
  -19.1560  -28.8874   23.2849 C   0  0  0  0  0  0
  -18.9477  -30.1469   23.8875 C   0  0  0  0  0  0
  -17.6474  -30.6590   24.0558 C   0  0  0  0  0  0
  -25.9069  -34.9410   23.5067 C   0  0  0  0  0  0
  -16.5365  -29.9084   23.6335 C   0  0  0  0  0  0
  -16.7288  -28.6504   23.0355 C   0  0  0  0  0  0
  -26.4522  -31.6562   25.0713 C   0  0  0  0  0  0
  -25.3710  -31.3745   26.1409 C   0  0  0  0  0  0
  -27.0388  -30.2963   24.6282 C   0  0  0  0  0  0
  -27.6058  -32.4322   25.7497 C   0  0  0  0  0  0
  -27.5575  -37.1787   24.8464 C   0  0  0  0  0  0
  -21.4259  -29.3049   22.3609 N   0  0  0  0  0  0
  -26.4286  -37.3749   23.9407 N   0  0  0  0  0  0
  -24.7171  -31.0309   22.0910 N   0  0  0  0  0  0
  -23.4207  -28.8101   23.3019 O   0  0  0  0  0  0
  -28.2840  -26.1718   20.1804 O   0  0  0  0  0  0
  -26.5658  -34.8910   22.4646 O   0  0  0  0  0  0
  -23.5549  -32.1307   23.7108 O   0  0  0  0  0  0
  -30.5805  -18.5304   20.1974 C   0  0  0  0  0  0
  -28.1838  -19.6519   20.9677 C   0  0  0  0  0  0
  -30.3974  -19.9914   20.1852 C   0  0  0  0  0  0
  -29.5971  -17.5637   20.6043 C   0  0  0  0  0  0
  -29.1405  -20.6390   20.5587 C   0  0  0  0  0  0
  -28.3836  -18.2102   21.0040 C   0  0  0  0  0  0
  -31.6428  -20.7826   19.8718 C   0  0  0  0  0  0
  -28.7515  -23.3640   20.0843 C   0  0  0  0  0  0
  -26.2995  -17.8805   22.1664 C   0  0  0  0  0  0
  -28.0216  -24.7261   20.6881 C   0  0  0  0  0  0
  -31.5260  -21.8767   19.1383 N   0  0  0  0  0  0
  -28.7591  -22.1229   20.7778 N   0  0  0  0  0  0
  -29.6533  -16.0307   20.6856 N   0  0  0  0  0  0
  -32.7524  -20.3834   20.2254 O   0  0  0  0  0  0
  -29.2644  -23.4410   18.9658 O   0  0  0  0  0  0
  -27.4063  -17.3435   21.4512 O   0  0  0  0  0  0
  -31.4852  -12.7491   19.1871 H   0  0  0  0  0  0
  -30.4530  -11.6154   20.0120 H   0  0  0  0  0  0
  -29.8445  -11.7490   17.5740 H   0  0  0  0  0  0
  -29.6172  -13.4749   17.7051 H   0  0  0  0  0  0
  -27.9510  -11.2780   18.9672 H   0  0  0  0  0  0
  -27.3967  -12.4683   17.8178 H   0  0  0  0  0  0
  -27.6102  -14.2513   19.4376 H   0  0  0  0  0  0
  -28.7624  -12.2428   21.4364 H   0  0  0  0  0  0
  -28.3792  -13.9079   21.7897 H   0  0  0  0  0  0
  -25.2763   -9.5673   22.4761 H   0  0  0  0  0  0
  -23.9997   -7.4624   22.7475 H   0  0  0  0  0  0
  -21.0843   -8.8765   19.8953 H   0  0  0  0  0  0
  -22.3701  -10.9660   19.6159 H   0  0  0  0  0  0
  -21.2006   -7.6140   23.9713 H   0  0  0  0  0  0
  -21.1489   -6.0518   25.9078 H   0  0  0  0  0  0
  -22.0596   -2.7604   23.2846 H   0  0  0  0  0  0
  -22.4063  -11.9856   22.4805 H   0  0  0  0  0  0
  -21.1073  -13.1231   22.2628 H   0  0  0  0  0  0
  -24.6322  -15.8299   20.5230 H   0  0  0  0  0  0
  -26.2697  -15.6525   20.1527 H   0  0  0  0  0  0
  -26.7266  -32.5317   23.1009 H   0  0  0  0  0  0
  -25.0070  -33.9613   25.0326 H   0  0  0  0  0  0
  -22.7500  -31.2877   21.3759 H   0  0  0  0  0  0
  -23.3757  -35.9589   23.3297 H   0  0  0  0  0  0
  -24.3580  -36.8900   22.2060 H   0  0  0  0  0  0
  -23.7243  -37.6455   23.6682 H   0  0  0  0  0  0
  -26.1520  -31.4760   20.6091 H   0  0  0  0  0  0
  -26.8737  -30.7783   22.0245 H   0  0  0  0  0  0
  -28.1440  -28.8237   21.2240 H   0  0  0  0  0  0
  -25.9550  -25.8346   19.0224 H   0  0  0  0  0  0
  -23.9897  -27.2829   18.9935 H   0  0  0  0  0  0
  -23.8133  -30.5587   19.3959 H   0  0  0  0  0  0
  -22.7913  -29.2276   19.8444 H   0  0  0  0  0  0
  -25.1310  -36.1870   25.0813 H   0  0  0  0  0  0
  -21.0008  -28.3312   24.1355 H   0  0  0  0  0  0
  -20.5675  -26.2338   23.3625 H   0  0  0  0  0  0
  -21.6655  -26.7428   22.1206 H   0  0  0  0  0  0
  -19.6923  -25.6286   21.1254 H   0  0  0  0  0  0
  -19.6695  -27.3181   20.6730 H   0  0  0  0  0  0
  -17.4213  -26.6676   21.4025 H   0  0  0  0  0  0
  -18.0342  -26.0079   22.9022 H   0  0  0  0  0  0
  -19.7953  -30.7290   24.2239 H   0  0  0  0  0  0
  -17.5027  -31.6268   24.5165 H   0  0  0  0  0  0
  -15.5364  -30.2979   23.7667 H   0  0  0  0  0  0
  -15.8690  -28.0813   22.7081 H   0  0  0  0  0  0
  -24.5897  -30.7085   25.7726 H   0  0  0  0  0  0
  -24.8887  -32.2924   26.4782 H   0  0  0  0  0  0
  -25.7997  -30.8951   27.0220 H   0  0  0  0  0  0
  -26.3001  -29.6685   24.1286 H   0  0  0  0  0  0
  -27.4005  -29.7264   25.4850 H   0  0  0  0  0  0
  -27.8907  -30.4205   23.9594 H   0  0  0  0  0  0
  -27.2658  -33.3642   26.2024 H   0  0  0  0  0  0
  -28.3896  -32.6849   25.0343 H   0  0  0  0  0  0
  -28.0695  -31.8476   26.5453 H   0  0  0  0  0  0
  -28.2589  -38.0087   24.7512 H   0  0  0  0  0  0
  -28.1075  -36.2618   24.6292 H   0  0  0  0  0  0
  -27.2294  -37.1440   25.8867 H   0  0  0  0  0  0
  -20.9472  -29.8764   21.6788 H   0  0  0  0  0  0
  -26.0157  -38.2821   24.1404 H   0  0  0  0  0  0
  -31.5461  -18.1403   19.9059 H   0  0  0  0  0  0
  -27.2355  -20.0479   21.2964 H   0  0  0  0  0  0
  -25.7136  -17.0650   22.5900 H   0  0  0  0  0  0
  -25.6399  -18.4505   21.5113 H   0  0  0  0  0  0
  -26.6225  -18.5123   22.9954 H   0  0  0  0  0  0
  -28.2602  -24.7448   21.7515 H   0  0  0  0  0  0
  -26.9510  -24.5287   20.6521 H   0  0  0  0  0  0
  -30.6071  -22.2467   18.9001 H   0  0  0  0  0  0
  -32.3471  -22.4073   18.8898 H   0  0  0  0  0  0
  -28.2351  -22.2419   21.6348 H   0  0  0  0  0  0
  -28.7530  -15.6751   20.9707 H   0  0  0  0  0  0
  1 25  1  0  0  0
  1 30  2  0  0  0
  1 83  1  0  0  0
  2  3  1  0  0  0
  2 25  1  0  0  0
  2 87  1  0  0  0
  2 88  1  0  0  0
  3  4  1  0  0  0
  3 89  1  0  0  0
  3 90  1  0  0  0
  4  5  1  0  0  0
  4 91  1  0  0  0
  4 92  1  0  0  0
  5  6  1  0  0  0
  5 26  1  0  0  0
  5 93  1  0  0  0
  6 25  1  0  0  0
  6 94  1  0  0  0
  6 95  1  0  0  0
  7  8  2  0  0  0
  7 26  1  0  0  0
  7 29  1  0  0  0
  8  9  1  0  0  0
  8 22  1  0  0  0
  9 10  1  0  0  0
  9 27  2  0  0  0
 10 11  2  0  0  0
 10 15  1  0  0  0
 11 12  1  0  0  0
 11 96  1  0  0  0
 12 13  2  0  0  0
 12 97  1  0  0  0
 13 14  1  0  0  0
 13 31  1  0  0  0
 14 15  2  0  0  0
 14 98  1  0  0  0
 15 99  1  0  0  0
 16 17  2  0  0  0
 16 21  1  0  0  0
 16 31  1  0  0  0
 17 18  1  0  0  0
 17100  1  0  0  0
 18 19  2  0  0  0
 18101  1  0  0  0
 19 20  1  0  0  0
 19 24  1  0  0  0
 20 21  2  0  0  0
 20102  1  0  0  0
 21 23  1  0  0  0
 22 28  1  0  0  0
 22 32  2  0  0  0
 26 27  1  0  0  0
 28103  1  0  0  0
 28104  1  0  0  0
 29105  1  0  0  0
 29106  1  0  0  0
 33 34  1  0  0  0
 33 66  1  0  0  0
 33 70  2  0  0  0
 34 36  1  0  0  0
 34 59  1  0  0  0
 34107  1  0  0  0
 35 44  2  0  0  0
 35 45  1  0  0  0
 35 68  1  0  0  0
 36 56  1  0  0  0
 36108  1  0  0  0
 37 39  1  0  0  0
 37 47  1  0  0  0
 37 66  1  0  0  0
 37109  1  0  0  0
 38 43  2  0  0  0
 38 46  1  0  0  0
 38 47  1  0  0  0
 39 64  1  0  0  0
 39 67  2  0  0  0
 40 52  1  0  0  0
 40 53  2  0  0  0
 40 58  1  0  0  0
 41110  1  0  0  0
 41111  1  0  0  0
 41112  1  0  0  0
 41 48  1  0  0  0
 42 43  1  0  0  0
 42 66  1  0  0  0
 42113  1  0  0  0
 42114  1  0  0  0
 43 44  1  0  0  0
 44115  1  0  0  0
 45 46  2  0  0  0
 45116  1  0  0  0
 46117  1  0  0  0
 47118  1  0  0  0
 47119  1  0  0  0
 48 56  1  0  0  0
 48 65  1  0  0  0
 48120  1  0  0  0
 49 50  1  0  0  0
 49 53  1  0  0  0
 49 64  1  0  0  0
 49121  1  0  0  0
 50 51  1  0  0  0
 50122  1  0  0  0
 50123  1  0  0  0
 51 52  1  0  0  0
 51124  1  0  0  0
 51125  1  0  0  0
 52126  1  0  0  0
 52127  1  0  0  0
 53 54  1  0  0  0
 54 55  2  0  0  0
 54128  1  0  0  0
 55 57  1  0  0  0
 55129  1  0  0  0
 56 69  2  0  0  0
 57 58  2  0  0  0
 57130  1  0  0  0
 58131  1  0  0  0
 59 60  1  0  0  0
 59 61  1  0  0  0
 59 62  1  0  0  0
 60132  1  0  0  0
 60133  1  0  0  0
 60134  1  0  0  0
 61135  1  0  0  0
 61136  1  0  0  0
 61137  1  0  0  0
 62138  1  0  0  0
 62139  1  0  0  0
 62140  1  0  0  0
 63 65  1  0  0  0
 63141  1  0  0  0
 63142  1  0  0  0
 63143  1  0  0  0
 64144  1  0  0  0
 65145  1  0  0  0
 68 80  1  0  0  0
 71 73  2  0  0  0
 71 74  1  0  0  0
 71146  1  0  0  0
 72 75  2  0  0  0
 72 76  1  0  0  0
 72147  1  0  0  0
 73 75  1  0  0  0
 73 77  1  0  0  0
 74 76  2  0  0  0
 74 83  1  0  0  0
 75 82  1  0  0  0
 76 86  1  0  0  0
 77 81  1  0  0  0
 77 84  2  0  0  0
 78 80  1  0  0  0
 78 82  1  0  0  0
 78 85  2  0  0  0
 79 86  1  0  0  0
 79148  1  0  0  0
 79149  1  0  0  0
 79150  1  0  0  0
 80151  1  0  0  0
 80152  1  0  0  0
 81153  1  0  0  0
 81154  1  0  0  0
 82155  1  0  0  0
 83156  1  0  0  0
M  ISO  4   1 100  68 101  80 101  83 100
M  END
> <chiral flag>
0

> <version>
0

> <s_m_source_file>
/data/baiqing/PycharmProjects/Reinvent-master-3.2/result/LINK_invent/BTK/process_docking_weight1_custom_sum_contain_oxygen_bond_distance_aromatic_linkinvent_7_9_3/rearranged_h_0006.sdf

> <i_m_source_file_index>
42

> <r_mmod_Potential_Energy-OPLS-2005>
316.401672363281

> <r_mmod_Stretch_Energy-OPLS-2005>
232.024124145508

> <r_mmod_Bend_Energy-OPLS-2005>
292.880981445312

> <r_mmod_Torsional_Energy-OPLS-2005>
266.242553710938

> <r_mmod_Improper_Torsional_Energy-OPLS-2005>
5.76669597625732

> <r_mmod_Van_der_Waal_Energy-OPLS-2005>
139.513900756836

> <r_mmod_Electrostatic_Energy-OPLS-2005>
-538.624450683594

> <r_mmod_Solvation_Energy-OPLS-2005>
-262.984008789062

> <b_mmod_Minimization_Converged-OPLS-2005>
0

> <r_mmod_RMS_Derivative-OPLS-2005>
0.75702691078186

$$$$
42
                    3D
 Structure written by MMmdl.
191199  0  0  1  0            999 V2000
  -31.0241  -14.0360   20.8310 C   0  0  0  0  0  0
  -30.3982  -12.2613   19.3055 C   0  0  0  0  0  0
  -29.4456  -12.5788   18.1522 C   0  0  0  0  0  0
  -27.9909  -12.4022   18.6015 C   0  0  0  0  0  0
  -27.6770  -13.2165   19.8813 C   0  0  2  0  0  0
  -28.7328  -12.9666   20.9844 C   0  0  0  0  0  0
  -25.2656  -13.8204   20.5710 C   0  0  0  0  0  0
  -24.1872  -13.0478   20.9142 C   0  0  0  0  0  0
  -24.6439  -11.6931   20.8736 C   0  0  0  0  0  0
  -23.9075  -10.4320   21.0396 C   0  0  0  0  0  0
  -24.3608   -9.4248   21.9204 C   0  0  0  0  0  0
  -23.6283   -8.2268   22.0757 C   0  0  0  0  0  0
  -22.4280   -8.0310   21.3512 C   0  0  0  0  0  0
  -21.9906   -9.0277   20.4575 C   0  0  0  0  0  0
  -22.7241  -10.2164   20.3014 C   0  0  0  0  0  0
  -21.6851   -6.0752   22.5272 C   0  0  0  0  0  0
  -21.3993   -6.5660   23.8211 C   0  0  0  0  0  0
  -21.3677   -5.6818   24.9187 C   0  0  0  0  0  0
  -21.6085   -4.3088   24.7225 C   0  0  0  0  0  0
  -21.8828   -3.8157   23.4352 C   0  0  0  0  0  0
  -21.9173   -4.6965   22.3393 C   0  0  0  0  0  0
  -22.7860  -13.5265   21.1740 C   0  0  0  0  0  0
  -22.1624   -4.2148   21.0968 F   0  0  0  0  0  0
  -21.5679   -3.4565   25.7741 F   0  0  0  0  0  0
  -30.0992  -13.1288   20.4475 N   0  0  0  0  0  0
  -26.3163  -12.9401   20.3497 N   0  0  0  0  0  0
  -25.9402  -11.6551   20.5833 N   0  0  0  0  0  0
  -22.0452  -12.8294   22.0296 N   0  0  0  0  0  0
  -25.4309  -15.1930   20.4147 N   0  0  0  0  0  0
  -31.5687  -14.8223   20.0462 O   0  0  0  0  0  0
  -21.6639   -6.8905   21.4246 O   0  0  0  0  0  0
  -22.3552  -14.5558   20.6567 O   0  0  0  0  0  0
  -24.6113  -31.8721   23.2154 C   0  0  0  0  0  0
  -25.9026  -32.4847   23.8429 C   0  0  1  0  0  0
  -27.2327  -27.4785   20.0497 C   0  0  0  0  0  0
  -25.5903  -33.8640   24.2369 N   0  0  0  0  0  0
  -23.3955  -30.4998   21.5554 C   0  0  2  0  0  0
  -24.8373  -28.9728   20.1163 C   0  0  0  0  0  0
  -22.7391  -29.4684   22.5005 C   0  0  0  0  0  0
  -18.0265  -28.1383   22.8500 C   0  0  0  0  0  0
  -24.1486  -36.7322   23.2636 C   0  0  0  0  0  0
  -25.9233  -30.8414   21.3697 C   0  0  0  0  0  0
  -25.9949  -29.4782   20.7189 C   0  0  0  0  0  0
  -27.1889  -28.7271   20.7049 C   0  0  0  0  0  0
  -26.0547  -26.9851   19.4432 C   0  0  0  0  0  0
  -24.8573  -27.7185   19.4875 C   0  0  0  0  0  0
  -23.6013  -29.8384   20.1681 C   0  0  0  0  0  0
  -25.4099  -36.3126   24.0348 C   0  0  1  0  0  0
  -20.5863  -28.3656   23.1331 C   0  0  2  0  0  0
  -20.6760  -26.9395   22.5419 C   0  0  0  0  0  0
  -19.5731  -26.6390   21.5215 C   0  0  0  0  0  0
  -18.1911  -26.7931   22.1630 C   0  0  0  0  0  0
  -19.1520  -28.8825   23.2920 C   0  0  0  0  0  0
  -18.9448  -30.1438   23.8923 C   0  0  0  0  0  0
  -17.6455  -30.6583   24.0566 C   0  0  0  0  0  0
  -25.9025  -34.9487   23.5150 C   0  0  0  0  0  0
  -16.5343  -29.9092   23.6329 C   0  0  0  0  0  0
  -16.7257  -28.6511   23.0339 C   0  0  0  0  0  0
  -26.4460  -31.6602   25.0734 C   0  0  0  0  0  0
  -25.3737  -31.3703   26.1494 C   0  0  0  0  0  0
  -27.0284  -30.3049   24.6087 C   0  0  0  0  0  0
  -27.6048  -32.4303   25.7490 C   0  0  0  0  0  0
  -27.5587  -37.1812   24.8464 C   0  0  0  0  0  0
  -21.4123  -29.3038   22.3744 N   0  0  0  0  0  0
  -26.4293  -37.3803   23.9419 N   0  0  0  0  0  0
  -24.6609  -31.0856   22.1054 N   0  0  0  0  0  0
  -23.4179  -28.8215   23.3024 O   0  0  0  0  0  0
  -28.4278  -26.7976   20.0308 O   0  0  0  0  0  0
  -26.5574  -34.8930   22.4707 O   0  0  0  0  0  0
  -23.5308  -32.1469   23.7566 O   0  0  0  0  0  0
  -29.7314  -12.8897   25.0212 C   0  0  0  0  0  0
  -30.0979  -13.9898   25.8229 C   0  0  0  0  0  0
  -30.2816  -12.7446   23.7323 C   0  0  0  0  0  0
  -31.5199  -14.8243   24.0242 C   0  0  0  0  0  0
  -31.0178  -14.9441   25.3342 C   0  0  0  0  0  0
  -31.1446  -13.7320   23.2108 C   0  0  0  0  0  0
  -31.5120  -16.0477   26.2119 C   0  0  0  0  0  0
  -27.4406  -22.1192   21.0993 C   0  0  0  0  0  0
  -33.7957  -12.6532   23.0498 C   0  0  0  0  0  0
  -33.7311  -12.7713   20.5702 C   0  0  0  0  0  0
  -27.7579  -21.4158   18.7357 C   0  0  0  0  0  0
  -27.9226  -20.7441   21.5945 C   0  0  0  0  0  0
  -28.2844  -20.7272   23.0970 C   0  0  0  0  0  0
  -29.4567  -19.7938   23.4358 C   0  0  0  0  0  0
  -29.8227  -19.8451   24.9282 C   0  0  0  0  0  0
  -31.2605  -19.3698   25.1812 C   0  0  0  0  0  0
  -31.6195  -19.1807   26.6700 C   0  0  0  0  0  0
  -28.7871  -24.5015   19.2861 C   0  0  0  0  0  0
  -30.7995  -18.1093   27.4214 C   0  0  0  0  0  0
  -27.4152  -23.8036   19.3112 C   0  0  0  0  0  0
  -28.7391  -25.9864   18.8988 C   0  0  0  0  0  0
  -33.2114  -13.4555   21.8586 C   0  0  0  0  0  0
  -30.5720  -16.8934   26.6421 N   0  0  0  0  0  0
  -31.7236  -13.5891   21.9165 N   0  0  0  0  0  0
  -27.5453  -22.4210   19.7825 N   0  0  0  0  0  0
  -32.7130  -16.1621   26.4598 O   0  0  0  0  0  0
  -27.0209  -22.9362   21.9263 O   0  0  0  0  0  0
  -31.4243  -12.3847   18.9599 H   0  0  0  0  0  0
  -30.3022  -11.2200   19.6103 H   0  0  0  0  0  0
  -29.6534  -11.9311   17.2981 H   0  0  0  0  0  0
  -29.6087  -13.6024   17.8142 H   0  0  0  0  0  0
  -27.8165  -11.3415   18.7805 H   0  0  0  0  0  0
  -27.3175  -12.6996   17.7952 H   0  0  0  0  0  0
  -27.7331  -14.2748   19.6216 H   0  0  0  0  0  0
  -28.6333  -11.9498   21.3700 H   0  0  0  0  0  0
  -28.5485  -13.6422   21.8208 H   0  0  0  0  0  0
  -25.2734   -9.5784   22.4798 H   0  0  0  0  0  0
  -24.0008   -7.4677   22.7481 H   0  0  0  0  0  0
  -21.0850   -8.8821   19.8826 H   0  0  0  0  0  0
  -22.3703  -10.9708   19.6094 H   0  0  0  0  0  0
  -21.1942   -7.6158   23.9713 H   0  0  0  0  0  0
  -21.1501   -6.0530   25.9105 H   0  0  0  0  0  0
  -22.0571   -2.7603   23.2848 H   0  0  0  0  0  0
  -22.3989  -11.9989   22.4818 H   0  0  0  0  0  0
  -21.1080  -13.1365   22.2390 H   0  0  0  0  0  0
  -24.6621  -15.8483   20.5157 H   0  0  0  0  0  0
  -26.2987  -15.6327   20.1326 H   0  0  0  0  0  0
  -26.7097  -32.5570   23.1195 H   0  0  0  0  0  0
  -25.0082  -33.9808   25.0531 H   0  0  0  0  0  0
  -22.6822  -31.3161   21.4213 H   0  0  0  0  0  0
  -23.3750  -35.9658   23.3303 H   0  0  0  0  0  0
  -24.3591  -36.8921   22.2055 H   0  0  0  0  0  0
  -23.7236  -37.6529   23.6632 H   0  0  0  0  0  0
  -26.0367  -31.6068   20.6004 H   0  0  0  0  0  0
  -26.8129  -30.8928   21.9851 H   0  0  0  0  0  0
  -28.0855  -29.1153   21.1679 H   0  0  0  0  0  0
  -26.0361  -26.0485   18.9121 H   0  0  0  0  0  0
  -23.9680  -27.3254   19.0143 H   0  0  0  0  0  0
  -23.7122  -30.6163   19.4118 H   0  0  0  0  0  0
  -22.7250  -29.2613   19.8689 H   0  0  0  0  0  0
  -25.1271  -36.2003   25.0841 H   0  0  0  0  0  0
  -20.9956  -28.3220   24.1450 H   0  0  0  0  0  0
  -20.5676  -26.2256   23.3603 H   0  0  0  0  0  0
  -21.6632  -26.7455   22.1203 H   0  0  0  0  0  0
  -19.6896  -25.6306   21.1224 H   0  0  0  0  0  0
  -19.6675  -27.3223   20.6763 H   0  0  0  0  0  0
  -17.4190  -26.6693   21.4022 H   0  0  0  0  0  0
  -18.0303  -26.0062   22.9014 H   0  0  0  0  0  0
  -19.7920  -30.7245   24.2309 H   0  0  0  0  0  0
  -17.5005  -31.6261   24.5171 H   0  0  0  0  0  0
  -15.5345  -30.2997   23.7623 H   0  0  0  0  0  0
  -15.8663  -28.0836   22.7031 H   0  0  0  0  0  0
  -24.5913  -30.7036   25.7846 H   0  0  0  0  0  0
  -24.8920  -32.2857   26.4944 H   0  0  0  0  0  0
  -25.8106  -30.8882   27.0252 H   0  0  0  0  0  0
  -26.2822  -29.6819   24.1141 H   0  0  0  0  0  0
  -27.4071  -29.7268   25.4527 H   0  0  0  0  0  0
  -27.8650  -30.4380   23.9223 H   0  0  0  0  0  0
  -27.2684  -33.3597   26.2102 H   0  0  0  0  0  0
  -28.3839  -32.6871   25.0299 H   0  0  0  0  0  0
  -28.0733  -31.8402   26.5378 H   0  0  0  0  0  0
  -28.2598  -38.0114   24.7524 H   0  0  0  0  0  0
  -28.1085  -36.2649   24.6263 H   0  0  0  0  0  0
  -27.2313  -37.1439   25.8866 H   0  0  0  0  0  0
  -20.9263  -29.8768   21.6990 H   0  0  0  0  0  0
  -26.0190  -38.2888   24.1407 H   0  0  0  0  0  0
  -29.0460  -12.1419   25.4007 H   0  0  0  0  0  0
  -29.7040  -14.0791   26.8266 H   0  0  0  0  0  0
  -30.0403  -11.8658   23.1527 H   0  0  0  0  0  0
  -32.2223  -15.5596   23.6550 H   0  0  0  0  0  0
  -34.8741  -12.5333   22.9462 H   0  0  0  0  0  0
  -33.3645  -11.6537   23.1006 H   0  0  0  0  0  0
  -33.6412  -13.1284   24.0181 H   0  0  0  0  0  0
  -34.8074  -12.6054   20.6178 H   0  0  0  0  0  0
  -33.5772  -13.3730   19.6730 H   0  0  0  0  0  0
  -33.2649  -11.7976   20.4134 H   0  0  0  0  0  0
  -28.6726  -20.8473   18.8991 H   0  0  0  0  0  0
  -27.8537  -21.8679   17.7467 H   0  0  0  0  0  0
  -26.9180  -20.7206   18.6979 H   0  0  0  0  0  0
  -28.8151  -20.4711   21.0313 H   0  0  0  0  0  0
  -27.1663  -19.9923   21.3692 H   0  0  0  0  0  0
  -27.4019  -20.4555   23.6799 H   0  0  0  0  0  0
  -28.5713  -21.7274   23.4282 H   0  0  0  0  0  0
  -30.3211  -20.1010   22.8423 H   0  0  0  0  0  0
  -29.2342  -18.7639   23.1437 H   0  0  0  0  0  0
  -29.1075  -19.2388   25.4859 H   0  0  0  0  0  0
  -29.7232  -20.8625   25.3109 H   0  0  0  0  0  0
  -31.9490  -20.0993   24.7544 H   0  0  0  0  0  0
  -31.4484  -18.4472   24.6336 H   0  0  0  0  0  0
  -31.5299  -20.1293   27.2046 H   0  0  0  0  0  0
  -32.6754  -18.9115   26.7271 H   0  0  0  0  0  0
  -29.4213  -23.9808   18.5674 H   0  0  0  0  0  0
  -29.2857  -24.4017   20.2506 H   0  0  0  0  0  0
  -29.8266  -18.5193   27.6916 H   0  0  0  0  0  0
  -31.2898  -17.8509   28.3610 H   0  0  0  0  0  0
  -26.9609  -23.8348   18.3202 H   0  0  0  0  0  0
  -26.7328  -24.3473   19.9619 H   0  0  0  0  0  0
  -28.1005  -26.1602   18.0330 H   0  0  0  0  0  0
  -29.7358  -26.2908   18.5778 H   0  0  0  0  0  0
  -33.6292  -14.4638   21.8892 H   0  0  0  0  0  0
  -29.6275  -16.7144   26.3279 H   0  0  0  0  0  0
  1 25  1  0  0  0
  1 30  2  0  0  0
  1 94  1  0  0  0
  2  3  1  0  0  0
  2 25  1  0  0  0
  2 98  1  0  0  0
  2 99  1  0  0  0
  3  4  1  0  0  0
  3100  1  0  0  0
  3101  1  0  0  0
  4  5  1  0  0  0
  4102  1  0  0  0
  4103  1  0  0  0
  5  6  1  0  0  0
  5 26  1  0  0  0
  5104  1  0  0  0
  6 25  1  0  0  0
  6105  1  0  0  0
  6106  1  0  0  0
  7  8  2  0  0  0
  7 26  1  0  0  0
  7 29  1  0  0  0
  8  9  1  0  0  0
  8 22  1  0  0  0
  9 10  1  0  0  0
  9 27  2  0  0  0
 10 11  2  0  0  0
 10 15  1  0  0  0
 11 12  1  0  0  0
 11107  1  0  0  0
 12 13  2  0  0  0
 12108  1  0  0  0
 13 14  1  0  0  0
 13 31  1  0  0  0
 14 15  2  0  0  0
 14109  1  0  0  0
 15110  1  0  0  0
 16 17  2  0  0  0
 16 21  1  0  0  0
 16 31  1  0  0  0
 17 18  1  0  0  0
 17111  1  0  0  0
 18 19  2  0  0  0
 18112  1  0  0  0
 19 20  1  0  0  0
 19 24  1  0  0  0
 20 21  2  0  0  0
 20113  1  0  0  0
 21 23  1  0  0  0
 22 28  1  0  0  0
 22 32  2  0  0  0
 26 27  1  0  0  0
 28114  1  0  0  0
 28115  1  0  0  0
 29116  1  0  0  0
 29117  1  0  0  0
 33 34  1  0  0  0
 33 66  1  0  0  0
 33 70  2  0  0  0
 34 36  1  0  0  0
 34 59  1  0  0  0
 34118  1  0  0  0
 35 44  2  0  0  0
 35 45  1  0  0  0
 35 68  1  0  0  0
 36 56  1  0  0  0
 36119  1  0  0  0
 37 39  1  0  0  0
 37 47  1  0  0  0
 37 66  1  0  0  0
 37120  1  0  0  0
 38 43  2  0  0  0
 38 46  1  0  0  0
 38 47  1  0  0  0
 39 64  1  0  0  0
 39 67  2  0  0  0
 40 52  1  0  0  0
 40 53  2  0  0  0
 40 58  1  0  0  0
 41121  1  0  0  0
 41122  1  0  0  0
 41123  1  0  0  0
 41 48  1  0  0  0
 42 43  1  0  0  0
 42 66  1  0  0  0
 42124  1  0  0  0
 42125  1  0  0  0
 43 44  1  0  0  0
 44126  1  0  0  0
 45 46  2  0  0  0
 45127  1  0  0  0
 46128  1  0  0  0
 47129  1  0  0  0
 47130  1  0  0  0
 48 56  1  0  0  0
 48 65  1  0  0  0
 48131  1  0  0  0
 49 50  1  0  0  0
 49 53  1  0  0  0
 49 64  1  0  0  0
 49132  1  0  0  0
 50 51  1  0  0  0
 50133  1  0  0  0
 50134  1  0  0  0
 51 52  1  0  0  0
 51135  1  0  0  0
 51136  1  0  0  0
 52137  1  0  0  0
 52138  1  0  0  0
 53 54  1  0  0  0
 54 55  2  0  0  0
 54139  1  0  0  0
 55 57  1  0  0  0
 55140  1  0  0  0
 56 69  2  0  0  0
 57 58  2  0  0  0
 57141  1  0  0  0
 58142  1  0  0  0
 59 60  1  0  0  0
 59 61  1  0  0  0
 59 62  1  0  0  0
 60143  1  0  0  0
 60144  1  0  0  0
 60145  1  0  0  0
 61146  1  0  0  0
 61147  1  0  0  0
 61148  1  0  0  0
 62149  1  0  0  0
 62150  1  0  0  0
 62151  1  0  0  0
 63 65  1  0  0  0
 63152  1  0  0  0
 63153  1  0  0  0
 63154  1  0  0  0
 64155  1  0  0  0
 65156  1  0  0  0
 68 91  1  0  0  0
 71 72  2  0  0  0
 71 73  1  0  0  0
 71157  1  0  0  0
 72 75  1  0  0  0
 72158  1  0  0  0
 73 76  2  0  0  0
 73159  1  0  0  0
 74 75  2  0  0  0
 74 76  1  0  0  0
 74160  1  0  0  0
 75 77  1  0  0  0
 76 94  1  0  0  0
 77 93  1  0  0  0
 77 96  2  0  0  0
 78 82  1  0  0  0
 78 95  1  0  0  0
 78 97  2  0  0  0
 79161  1  0  0  0
 79162  1  0  0  0
 79163  1  0  0  0
 79 92  1  0  0  0
 80 92  1  0  0  0
 80164  1  0  0  0
 80165  1  0  0  0
 80166  1  0  0  0
 81 95  1  0  0  0
 81167  1  0  0  0
 81168  1  0  0  0
 81169  1  0  0  0
 82 83  1  0  0  0
 82170  1  0  0  0
 82171  1  0  0  0
 83 84  1  0  0  0
 83172  1  0  0  0
 83173  1  0  0  0
 84 85  1  0  0  0
 84174  1  0  0  0
 84175  1  0  0  0
 85 86  1  0  0  0
 85176  1  0  0  0
 85177  1  0  0  0
 86 87  1  0  0  0
 86178  1  0  0  0
 86179  1  0  0  0
 87 89  1  0  0  0
 87180  1  0  0  0
 87181  1  0  0  0
 88 90  1  0  0  0
 88 91  1  0  0  0
 88182  1  0  0  0
 88183  1  0  0  0
 89 93  1  0  0  0
 89184  1  0  0  0
 89185  1  0  0  0
 90 95  1  0  0  0
 90186  1  0  0  0
 90187  1  0  0  0
 91188  1  0  0  0
 91189  1  0  0  0
 92 94  1  0  0  0
 92190  1  0  0  0
 93191  1  0  0  0
M  ISO  4   1 100  68 101  91 101  94 100
M  END
> <chiral flag>
0

> <version>
0

> <s_m_source_file>
/data/baiqing/PycharmProjects/Reinvent-master-3.2/result/LINK_invent/BTK/process_docking_weight1_custom_sum_contain_oxygen_bond_distance_aromatic_linkinvent_7_9_3/rearranged_h_0006.sdf

> <i_m_source_file_index>
43

> <r_mmod_Potential_Energy-OPLS-2005>
214.061737060547

> <r_mmod_Stretch_Energy-OPLS-2005>
40.2671585083008

> <r_mmod_Bend_Energy-OPLS-2005>
105.780113220215

> <r_mmod_Torsional_Energy-OPLS-2005>
380.949401855469

> <r_mmod_Improper_Torsional_Energy-OPLS-2005>
22.7286205291748

> <r_mmod_Van_der_Waal_Energy-OPLS-2005>
167.118743896484

> <r_mmod_Electrostatic_Energy-OPLS-2005>
-307.58837890625

> <r_mmod_Solvation_Energy-OPLS-2005>
-232.454223632812

> <b_mmod_Minimization_Converged-OPLS-2005>
0

> <r_mmod_RMS_Derivative-OPLS-2005>
4.47730159759521

$$$$
43
                    3D
 Structure written by MMmdl.
159167  0  0  1  0            999 V2000
  -30.3183  -15.6771   20.2505 C   0  0  0  0  0  0
  -30.4097  -13.1018   19.5251 C   0  0  0  0  0  0
  -29.5442  -12.6637   18.3117 C   0  0  0  0  0  0
  -28.1246  -12.2934   18.7616 C   0  0  0  0  0  0
  -27.5865  -13.3116   19.7923 C   0  0  2  0  0  0
  -28.6020  -13.6934   20.8980 C   0  0  0  0  0  0
  -25.2285  -13.8258   20.5785 C   0  0  0  0  0  0
  -24.1669  -13.0418   20.9255 C   0  0  0  0  0  0
  -24.6350  -11.6932   20.8683 C   0  0  0  0  0  0
  -23.9027  -10.4301   21.0354 C   0  0  0  0  0  0
  -24.3596   -9.4220   21.9134 C   0  0  0  0  0  0
  -23.6275   -8.2245   22.0728 C   0  0  0  0  0  0
  -22.4248   -8.0256   21.3528 C   0  0  0  0  0  0
  -21.9880   -9.0202   20.4615 C   0  0  0  0  0  0
  -22.7195  -10.2092   20.3005 C   0  0  0  0  0  0
  -21.6847   -6.0699   22.5270 C   0  0  0  0  0  0
  -21.4016   -6.5598   23.8201 C   0  0  0  0  0  0
  -21.3686   -5.6756   24.9171 C   0  0  0  0  0  0
  -21.6068   -4.3016   24.7229 C   0  0  0  0  0  0
  -21.8820   -3.8102   23.4343 C   0  0  0  0  0  0
  -21.9183   -4.6929   22.3395 C   0  0  0  0  0  0
  -22.7706  -13.5170   21.1905 C   0  0  0  0  0  0
  -22.1669   -4.2115   21.0975 F   0  0  0  0  0  0
  -21.5638   -3.4511   25.7747 F   0  0  0  0  0  0
  -29.7740  -14.3127   20.2292 N   0  0  0  0  0  0
  -26.2719  -12.9607   20.3146 N   0  0  0  0  0  0
  -25.9288  -11.6675   20.5581 N   0  0  0  0  0  0
  -22.0363  -12.8152   22.0467 N   0  0  0  0  0  0
  -25.3866  -15.2025   20.4293 N   0  0  0  0  0  0
  -31.5537  -15.5487   20.1209 O   0  0  0  0  0  0
  -21.6620   -6.8838   21.4231 O   0  0  0  0  0  0
  -22.3408  -14.5474   20.6752 O   0  0  0  0  0  0
  -24.6860  -31.7948   23.1446 C   0  0  0  0  0  0
  -25.9423  -32.4447   23.8002 C   0  0  1  0  0  0
  -27.2387  -26.6700   20.2032 C   0  0  0  0  0  0
  -25.5996  -33.8262   24.1885 N   0  0  0  0  0  0
  -23.5145  -30.3921   21.4976 C   0  0  2  0  0  0
  -24.9787  -28.7247   20.1097 C   0  0  0  0  0  0
  -22.7777  -29.4273   22.4650 C   0  0  0  0  0  0
  -18.0353  -28.1455   22.8457 C   0  0  0  0  0  0
  -24.1496  -36.7144   23.2656 C   0  0  0  0  0  0
  -26.0937  -30.5122   21.4176 C   0  0  0  0  0  0
  -26.1624  -29.0740   20.7673 C   0  0  0  0  0  0
  -27.2663  -28.0704   20.7927 C   0  0  0  0  0  0
  -26.0255  -26.5393   19.4794 C   0  0  0  0  0  0
  -24.9504  -27.4863   19.4406 C   0  0  0  0  0  0
  -23.7747  -29.6825   20.1339 C   0  0  0  0  0  0
  -25.4133  -36.2880   24.0274 C   0  0  1  0  0  0
  -20.5978  -28.3808   23.1125 C   0  0  2  0  0  0
  -20.6808  -26.9456   22.5403 C   0  0  0  0  0  0
  -19.5778  -26.6395   21.5223 C   0  0  0  0  0  0
  -18.1969  -26.7978   22.1627 C   0  0  0  0  0  0
  -19.1616  -28.8958   23.2783 C   0  0  0  0  0  0
  -18.9516  -30.1535   23.8830 C   0  0  0  0  0  0
  -17.6506  -30.6621   24.0582 C   0  0  0  0  0  0
  -25.9114  -34.9273   23.4916 C   0  0  0  0  0  0
  -16.5396  -29.9094   23.6371 C   0  0  0  0  0  0
  -16.7332  -28.6531   23.0363 C   0  0  0  0  0  0
  -26.4596  -31.6487   25.0630 C   0  0  0  0  0  0
  -25.3638  -31.3826   26.1229 C   0  0  0  0  0  0
  -27.0519  -30.2814   24.6556 C   0  0  0  0  0  0
  -27.6052  -32.4324   25.7448 C   0  0  0  0  0  0
  -27.5547  -37.1734   24.8461 C   0  0  0  0  0  0
  -21.4424  -29.3028   22.3408 N   0  0  0  0  0  0
  -26.4251  -37.3642   23.9416 N   0  0  0  0  0  0
  -24.7880  -30.9342   22.0734 N   0  0  0  0  0  0
  -23.4201  -28.7902   23.3043 O   0  0  0  0  0  0
  -28.2020  -25.4509   20.3580 O   0  0  0  0  0  0
  -26.5757  -34.8882   22.4536 O   0  0  0  0  0  0
  -23.5869  -32.1029   23.6386 O   0  0  0  0  0  0
  -31.7426  -20.7543   18.5362 C   0  0  0  0  0  0
  -31.9679  -19.4000   18.4011 C   0  0  0  0  0  0
  -30.6055  -21.1952   19.2103 C   0  0  0  0  0  0
  -31.1079  -18.4798   18.9960 C   0  0  0  0  0  0
  -29.6159  -20.4043   19.8582 C   0  0  0  0  0  0
  -29.9753  -18.7441   19.8285 C   0  0  0  0  0  0
  -28.8026  -21.9478   21.9084 C   0  0  0  0  0  0
  -26.8233  -20.0358   21.0084 C   0  0  0  0  0  0
  -26.0184  -22.1351   20.0674 C   0  0  0  0  0  0
  -28.4134  -23.7463   19.8701 C   0  0  0  0  0  0
  -28.5246  -21.8227   20.3949 C   0  0  1  0  0  0
  -29.6264  -17.1041   20.2601 N   0  0  0  0  0  0
  -27.1697  -21.2070   20.1564 N   0  3  0  0  0  0
  -31.4065  -13.3374   19.1565 H   0  0  0  0  0  0
  -30.5606  -12.2746   20.2203 H   0  0  0  0  0  0
  -30.0077  -11.8272   17.7889 H   0  0  0  0  0  0
  -29.4953  -13.4859   17.5935 H   0  0  0  0  0  0
  -28.1641  -11.3021   19.2188 H   0  0  0  0  0  0
  -27.4575  -12.2181   17.9010 H   0  0  0  0  0  0
  -27.4323  -14.2178   19.2056 H   0  0  0  0  0  0
  -28.8635  -12.8373   21.5191 H   0  0  0  0  0  0
  -28.1552  -14.4270   21.5704 H   0  0  0  0  0  0
  -25.2732   -9.5729   22.4715 H   0  0  0  0  0  0
  -23.9995   -7.4647   22.7453 H   0  0  0  0  0  0
  -21.0814   -8.8682   19.8911 H   0  0  0  0  0  0
  -22.3607  -10.9616   19.6116 H   0  0  0  0  0  0
  -21.2000   -7.6100   23.9711 H   0  0  0  0  0  0
  -21.1527   -6.0472   25.9082 H   0  0  0  0  0  0
  -22.0570   -2.7562   23.2836 H   0  0  0  0  0  0
  -22.3979  -11.9846   22.4916 H   0  0  0  0  0  0
  -21.0978  -13.1179   22.2633 H   0  0  0  0  0  0
  -24.6064  -15.8412   20.5341 H   0  0  0  0  0  0
  -26.2265  -15.6493   20.0879 H   0  0  0  0  0  0
  -26.7498  -32.4940   23.0701 H   0  0  0  0  0  0
  -25.0049  -33.9283   24.9983 H   0  0  0  0  0  0
  -22.8417  -31.2316   21.3032 H   0  0  0  0  0  0
  -23.3770  -35.9464   23.3261 H   0  0  0  0  0  0
  -24.3554  -36.8863   22.2085 H   0  0  0  0  0  0
  -23.7257  -37.6309   23.6758 H   0  0  0  0  0  0
  -26.2940  -31.2335   20.6247 H   0  0  0  0  0  0
  -26.9393  -30.5879   22.0884 H   0  0  0  0  0  0
  -28.1430  -28.3323   21.3676 H   0  0  0  0  0  0
  -25.8565  -25.5972   18.9776 H   0  0  0  0  0  0
  -24.0571  -27.2108   18.8944 H   0  0  0  0  0  0
  -23.9566  -30.4392   19.3685 H   0  0  0  0  0  0
  -22.8774  -29.1524   19.8113 H   0  0  0  0  0  0
  -25.1361  -36.1620   25.0762 H   0  0  0  0  0  0
  -21.0090  -28.3469   24.1243 H   0  0  0  0  0  0
  -20.5661  -26.2441   23.3674 H   0  0  0  0  0  0
  -21.6670  -26.7390   22.1228 H   0  0  0  0  0  0
  -19.6913  -25.6284   21.1310 H   0  0  0  0  0  0
  -19.6730  -27.3149   20.6710 H   0  0  0  0  0  0
  -17.4235  -26.6740   21.4035 H   0  0  0  0  0  0
  -18.0357  -26.0129   22.9034 H   0  0  0  0  0  0
  -19.7988  -30.7394   24.2153 H   0  0  0  0  0  0
  -17.5049  -31.6304   24.5191 H   0  0  0  0  0  0
  -15.5378  -30.2992   23.7729 H   0  0  0  0  0  0
  -15.8746  -28.0860   22.7070 H   0  0  0  0  0  0
  -24.5867  -30.7127   25.7531 H   0  0  0  0  0  0
  -24.8781  -32.3060   26.4395 H   0  0  0  0  0  0
  -25.7795  -30.9180   27.0175 H   0  0  0  0  0  0
  -26.3235  -29.6406   24.1573 H   0  0  0  0  0  0
  -27.3950  -29.7302   25.5318 H   0  0  0  0  0  0
  -27.9230  -30.3914   24.0081 H   0  0  0  0  0  0
  -27.2612  -33.3711   26.1795 H   0  0  0  0  0  0
  -28.3983  -32.6713   25.0344 H   0  0  0  0  0  0
  -28.0567  -31.8584   26.5552 H   0  0  0  0  0  0
  -28.2543  -38.0057   24.7494 H   0  0  0  0  0  0
  -28.1080  -36.2572   24.6300 H   0  0  0  0  0  0
  -27.2267  -37.1389   25.8871 H   0  0  0  0  0  0
  -20.9709  -29.8690   21.6495 H   0  0  0  0  0  0
  -26.0077  -38.2699   24.1421 H   0  0  0  0  0  0
  -32.4293  -21.4665   18.0940 H   0  0  0  0  0  0
  -32.8234  -19.0515   17.8389 H   0  0  0  0  0  0
  -30.5394  -22.2677   19.2095 H   0  0  0  0  0  0
  -31.4098  -17.4792   18.7449 H   0  0  0  0  0  0
  -29.7779  -22.4025   22.0867 H   0  0  0  0  0  0
  -28.8107  -20.9844   22.4181 H   0  0  0  0  0  0
  -28.0612  -22.5787   22.3978 H   0  0  0  0  0  0
  -26.0120  -19.4642   20.5564 H   0  0  0  0  0  0
  -26.4949  -20.3497   21.9987 H   0  0  0  0  0  0
  -27.6452  -19.3369   21.1441 H   0  0  0  0  0  0
  -25.0891  -21.5717   19.9800 H   0  0  0  0  0  0
  -26.0574  -22.7578   19.1749 H   0  0  0  0  0  0
  -25.9315  -22.7738   20.9454 H   0  0  0  0  0  0
  -28.0065  -23.7413   18.8598 H   0  0  0  0  0  0
  -29.4705  -23.9206   19.6841 H   0  0  0  0  0  0
  -28.6520  -16.9909   20.5082 H   0  0  0  0  0  0
  -27.2495  -20.8241   19.2247 H   0  0  0  0  0  0
  1 25  1  0  0  0
  1 30  2  0  0  0
  1 82  1  0  0  0
  2  3  1  0  0  0
  2 25  1  0  0  0
  2 84  1  0  0  0
  2 85  1  0  0  0
  3  4  1  0  0  0
  3 86  1  0  0  0
  3 87  1  0  0  0
  4  5  1  0  0  0
  4 88  1  0  0  0
  4 89  1  0  0  0
  5  6  1  0  0  0
  5 26  1  0  0  0
  5 90  1  0  0  0
  6 25  1  0  0  0
  6 91  1  0  0  0
  6 92  1  0  0  0
  7  8  2  0  0  0
  7 26  1  0  0  0
  7 29  1  0  0  0
  8  9  1  0  0  0
  8 22  1  0  0  0
  9 10  1  0  0  0
  9 27  2  0  0  0
 10 11  2  0  0  0
 10 15  1  0  0  0
 11 12  1  0  0  0
 11 93  1  0  0  0
 12 13  2  0  0  0
 12 94  1  0  0  0
 13 14  1  0  0  0
 13 31  1  0  0  0
 14 15  2  0  0  0
 14 95  1  0  0  0
 15 96  1  0  0  0
 16 17  2  0  0  0
 16 21  1  0  0  0
 16 31  1  0  0  0
 17 18  1  0  0  0
 17 97  1  0  0  0
 18 19  2  0  0  0
 18 98  1  0  0  0
 19 20  1  0  0  0
 19 24  1  0  0  0
 20 21  2  0  0  0
 20 99  1  0  0  0
 21 23  1  0  0  0
 22 28  1  0  0  0
 22 32  2  0  0  0
 26 27  1  0  0  0
 28100  1  0  0  0
 28101  1  0  0  0
 29102  1  0  0  0
 29103  1  0  0  0
 33 34  1  0  0  0
 33 66  1  0  0  0
 33 70  2  0  0  0
 34 36  1  0  0  0
 34 59  1  0  0  0
 34104  1  0  0  0
 35 44  2  0  0  0
 35 45  1  0  0  0
 35 68  1  0  0  0
 36 56  1  0  0  0
 36105  1  0  0  0
 37 39  1  0  0  0
 37 47  1  0  0  0
 37 66  1  0  0  0
 37106  1  0  0  0
 38 43  2  0  0  0
 38 46  1  0  0  0
 38 47  1  0  0  0
 39 64  1  0  0  0
 39 67  2  0  0  0
 40 52  1  0  0  0
 40 53  2  0  0  0
 40 58  1  0  0  0
 41107  1  0  0  0
 41108  1  0  0  0
 41109  1  0  0  0
 41 48  1  0  0  0
 42 43  1  0  0  0
 42 66  1  0  0  0
 42110  1  0  0  0
 42111  1  0  0  0
 43 44  1  0  0  0
 44112  1  0  0  0
 45 46  2  0  0  0
 45113  1  0  0  0
 46114  1  0  0  0
 47115  1  0  0  0
 47116  1  0  0  0
 48 56  1  0  0  0
 48 65  1  0  0  0
 48117  1  0  0  0
 49 50  1  0  0  0
 49 53  1  0  0  0
 49 64  1  0  0  0
 49118  1  0  0  0
 50 51  1  0  0  0
 50119  1  0  0  0
 50120  1  0  0  0
 51 52  1  0  0  0
 51121  1  0  0  0
 51122  1  0  0  0
 52123  1  0  0  0
 52124  1  0  0  0
 53 54  1  0  0  0
 54 55  2  0  0  0
 54125  1  0  0  0
 55 57  1  0  0  0
 55126  1  0  0  0
 56 69  2  0  0  0
 57 58  2  0  0  0
 57127  1  0  0  0
 58128  1  0  0  0
 59 60  1  0  0  0
 59 61  1  0  0  0
 59 62  1  0  0  0
 60129  1  0  0  0
 60130  1  0  0  0
 60131  1  0  0  0
 61132  1  0  0  0
 61133  1  0  0  0
 61134  1  0  0  0
 62135  1  0  0  0
 62136  1  0  0  0
 62137  1  0  0  0
 63 65  1  0  0  0
 63138  1  0  0  0
 63139  1  0  0  0
 63140  1  0  0  0
 64141  1  0  0  0
 65142  1  0  0  0
 68 80  1  0  0  0
 71 72  2  0  0  0
 71 73  1  0  0  0
 71143  1  0  0  0
 72 74  1  0  0  0
 72144  1  0  0  0
 73 75  2  0  0  0
 73145  1  0  0  0
 74 76  2  0  0  0
 74146  1  0  0  0
 75 76  1  0  0  0
 75 81  1  0  0  0
 76 82  1  0  0  0
 77147  1  0  0  0
 77148  1  0  0  0
 77149  1  0  0  0
 77 81  1  0  0  0
 78150  1  0  0  0
 78151  1  0  0  0
 78152  1  0  0  0
 78 83  1  0  0  0
 79 83  1  0  0  0
 79153  1  0  0  0
 79154  1  0  0  0
 79155  1  0  0  0
 80 81  1  0  0  0
 80156  1  0  0  0
 80157  1  0  0  0
 81 83  1  0  0  0
 82158  1  0  0  0
 83159  1  0  0  0
M  CHG  1  83   1
M  ISO  4   1 100  68 101  80 101  82 100
M  END
> <chiral flag>
0

> <version>
0

> <s_m_source_file>
/data/baiqing/PycharmProjects/Reinvent-master-3.2/result/LINK_invent/BTK/process_docking_weight1_custom_sum_contain_oxygen_bond_distance_aromatic_linkinvent_7_9_3/rearranged_h_0006.sdf

> <i_m_source_file_index>
44

> <r_mmod_Potential_Energy-OPLS-2005>
2843.0517578125

> <r_mmod_Stretch_Energy-OPLS-2005>
1292.72900390625

> <r_mmod_Bend_Energy-OPLS-2005>
860.216186523438

> <r_mmod_Torsional_Energy-OPLS-2005>
247.698226928711

> <r_mmod_Improper_Torsional_Energy-OPLS-2005>
3.89122104644775

> <r_mmod_Van_der_Waal_Energy-OPLS-2005>
149.391906738281

> <r_mmod_Electrostatic_Energy-OPLS-2005>
-219.628280639648

> <r_mmod_Solvation_Energy-OPLS-2005>
-458.329315185547

> <b_mmod_Minimization_Converged-OPLS-2005>
0

> <r_mmod_RMS_Derivative-OPLS-2005>
5.50418853759766

$$$$
44
                    3D
 Structure written by MMmdl.
160168  0  0  1  0            999 V2000
  -30.5251  -14.9966   20.3836 C   0  0  0  0  0  0
  -30.4454  -12.6196   19.4813 C   0  0  0  0  0  0
  -29.5149  -12.5520   18.2473 C   0  0  0  0  0  0
  -28.0495  -12.3336   18.6708 C   0  0  0  0  0  0
  -27.6250  -13.2507   19.8479 C   0  0  2  0  0  0
  -28.6866  -13.2760   20.9710 C   0  0  0  0  0  0
  -25.2215  -13.7803   20.5614 C   0  0  0  0  0  0
  -24.1643  -13.0099   20.9300 C   0  0  0  0  0  0
  -24.6404  -11.6680   20.8842 C   0  0  0  0  0  0
  -23.9097  -10.4101   21.0440 C   0  0  0  0  0  0
  -24.3627   -9.4039   21.9223 C   0  0  0  0  0  0
  -23.6259   -8.2112   22.0767 C   0  0  0  0  0  0
  -22.4240   -8.0208   21.3554 C   0  0  0  0  0  0
  -21.9900   -9.0180   20.4651 C   0  0  0  0  0  0
  -22.7272  -10.2020   20.3067 C   0  0  0  0  0  0
  -21.6815   -6.0691   22.5279 C   0  0  0  0  0  0
  -21.3983   -6.5605   23.8209 C   0  0  0  0  0  0
  -21.3668   -5.6779   24.9188 C   0  0  0  0  0  0
  -21.6052   -4.3036   24.7245 C   0  0  0  0  0  0
  -21.8819   -3.8117   23.4366 C   0  0  0  0  0  0
  -21.9177   -4.6917   22.3411 C   0  0  0  0  0  0
  -22.7689  -13.4951   21.1943 C   0  0  0  0  0  0
  -22.1654   -4.2109   21.0987 F   0  0  0  0  0  0
  -21.5644   -3.4532   25.7763 F   0  0  0  0  0  0
  -29.9543  -13.7177   20.3636 N   0  0  0  0  0  0
  -26.2864  -12.9286   20.3365 N   0  0  0  0  0  0
  -25.9383  -11.6400   20.5890 N   0  0  0  0  0  0
  -22.0340  -12.8014   22.0542 N   0  0  0  0  0  0
  -25.3224  -15.1346   20.3613 N   0  0  0  0  0  0
  -31.7297  -15.0749   20.1197 O   0  0  0  0  0  0
  -21.6588   -6.8828   21.4246 O   0  0  0  0  0  0
  -22.3405  -14.5281   20.6780 O   0  0  0  0  0  0
  -24.6406  -31.8444   23.1874 C   0  0  0  0  0  0
  -25.9176  -32.4700   23.8272 C   0  0  1  0  0  0
  -27.2566  -27.1667   20.1336 C   0  0  0  0  0  0
  -25.5938  -33.8507   24.2191 N   0  0  0  0  0  0
  -23.4463  -30.4569   21.5321 C   0  0  2  0  0  0
  -24.9023  -28.8822   20.1090 C   0  0  0  0  0  0
  -22.7568  -29.4518   22.4870 C   0  0  0  0  0  0
  -18.0304  -28.1391   22.8472 C   0  0  0  0  0  0
  -24.1491  -36.7263   23.2637 C   0  0  0  0  0  0
  -25.9976  -30.7222   21.3845 C   0  0  0  0  0  0
  -26.0736  -29.3349   20.7262 C   0  0  0  0  0  0
  -27.2429  -28.4908   20.7266 C   0  0  0  0  0  0
  -26.0524  -26.8022   19.4870 C   0  0  0  0  0  0
  -24.9023  -27.6262   19.4787 C   0  0  0  0  0  0
  -23.6736  -29.7789   20.1531 C   0  0  0  0  0  0
  -25.4120  -36.3040   24.0312 C   0  0  1  0  0  0
  -20.5911  -28.3714   23.1231 C   0  0  2  0  0  0
  -20.6782  -26.9417   22.5397 C   0  0  0  0  0  0
  -19.5751  -26.6369   21.5212 C   0  0  0  0  0  0
  -18.1942  -26.7921   22.1637 C   0  0  0  0  0  0
  -19.1558  -28.8876   23.2838 C   0  0  0  0  0  0
  -18.9482  -30.1469   23.8863 C   0  0  0  0  0  0
  -17.6474  -30.6584   24.0561 C   0  0  0  0  0  0
  -25.9076  -34.9412   23.5069 C   0  0  0  0  0  0
  -16.5369  -29.9076   23.6322 C   0  0  0  0  0  0
  -16.7289  -28.6499   23.0345 C   0  0  0  0  0  0
  -26.4500  -31.6570   25.0715 C   0  0  0  0  0  0
  -25.3680  -31.3803   26.1422 C   0  0  0  0  0  0
  -27.0342  -30.2952   24.6304 C   0  0  0  0  0  0
  -27.6052  -32.4312   25.7492 C   0  0  0  0  0  0
  -27.5576  -37.1788   24.8453 C   0  0  0  0  0  0
  -21.4263  -29.3038   22.3619 N   0  0  0  0  0  0
  -26.4282  -37.3749   23.9410 N   0  0  0  0  0  0
  -24.7140  -31.0290   22.0905 N   0  0  0  0  0  0
  -23.4214  -28.8073   23.3026 O   0  0  0  0  0  0
  -28.3646  -26.2501   20.2348 O   0  0  0  0  0  0
  -26.5670  -34.8909   22.4656 O   0  0  0  0  0  0
  -23.5526  -32.1331   23.7080 O   0  0  0  0  0  0
  -28.6289  -20.0353   20.5795 C   0  0  0  0  0  0
  -30.8437  -18.5014   19.9482 C   0  0  0  0  0  0
  -28.5874  -18.5793   20.6764 C   0  0  0  0  0  0
  -29.7348  -17.7040   20.3982 C   0  0  0  0  0  0
  -29.7085  -20.8086   20.0989 C   0  0  0  0  0  0
  -30.8224  -19.9496   19.7794 C   0  0  0  0  0  0
  -26.0904  -19.0254   21.3435 C   0  0  0  0  0  0
  -27.1614  -16.9232   21.9951 C   0  0  0  0  0  0
  -26.7389  -17.5507   19.4783 C   0  0  0  0  0  0
  -28.4799  -24.8173   19.6500 C   0  0  0  0  0  0
  -28.8087  -23.3620   20.4294 C   0  0  0  0  0  0
  -27.1721  -18.0060   20.8903 C   0  0  0  0  0  0
  -29.6893  -16.1512   20.5045 N   0  0  0  0  0  0
  -29.6881  -22.2487   19.8352 O   0  0  0  0  0  0
  -31.9338  -20.5337   19.2682 F   0  0  0  0  0  0
  -31.4727  -12.7918   19.1568 H   0  0  0  0  0  0
  -30.4544  -11.6671   20.0130 H   0  0  0  0  0  0
  -29.8285  -11.7562   17.5709 H   0  0  0  0  0  0
  -29.5979  -13.4812   17.6815 H   0  0  0  0  0  0
  -27.9445  -11.2885   18.9623 H   0  0  0  0  0  0
  -27.3849  -12.4813   17.8190 H   0  0  0  0  0  0
  -27.5737  -14.2569   19.4322 H   0  0  0  0  0  0
  -28.7913  -12.2905   21.4255 H   0  0  0  0  0  0
  -28.3925  -13.9426   21.7810 H   0  0  0  0  0  0
  -25.2758   -9.5480   22.4824 H   0  0  0  0  0  0
  -23.9927   -7.4480   22.7481 H   0  0  0  0  0  0
  -21.0823   -8.8731   19.8957 H   0  0  0  0  0  0
  -22.3766  -10.9582   19.6191 H   0  0  0  0  0  0
  -21.1954   -7.6110   23.9698 H   0  0  0  0  0  0
  -21.1513   -6.0515   25.9092 H   0  0  0  0  0  0
  -22.0590   -2.7576   23.2893 H   0  0  0  0  0  0
  -22.3954  -11.9693   22.4964 H   0  0  0  0  0  0
  -21.0968  -13.1075   22.2750 H   0  0  0  0  0  0
  -24.4997  -15.7221   20.4226 H   0  0  0  0  0  0
  -26.1151  -15.6134   19.9591 H   0  0  0  0  0  0
  -26.7247  -32.5308   23.1012 H   0  0  0  0  0  0
  -25.0054  -33.9627   25.0317 H   0  0  0  0  0  0
  -22.7472  -31.2807   21.3744 H   0  0  0  0  0  0
  -23.3756  -35.9591   23.3280 H   0  0  0  0  0  0
  -24.3575  -36.8915   22.2054 H   0  0  0  0  0  0
  -23.7247  -37.6454   23.6690 H   0  0  0  0  0  0
  -26.1490  -31.4749   20.6103 H   0  0  0  0  0  0
  -26.8687  -30.7753   22.0258 H   0  0  0  0  0  0
  -28.1331  -28.8345   21.2351 H   0  0  0  0  0  0
  -25.9574  -25.8414   19.0066 H   0  0  0  0  0  0
  -24.0062  -27.2693   18.9897 H   0  0  0  0  0  0
  -23.8072  -30.5511   19.3948 H   0  0  0  0  0  0
  -22.7913  -29.2156   19.8434 H   0  0  0  0  0  0
  -25.1304  -36.1881   25.0802 H   0  0  0  0  0  0
  -20.9992  -28.3309   24.1356 H   0  0  0  0  0  0
  -20.5670  -26.2339   23.3624 H   0  0  0  0  0  0
  -21.6652  -26.7416   22.1203 H   0  0  0  0  0  0
  -19.6913  -25.6276   21.1252 H   0  0  0  0  0  0
  -19.6667  -27.3165   20.6729 H   0  0  0  0  0  0
  -17.4200  -26.6634   21.4061 H   0  0  0  0  0  0
  -18.0360  -26.0079   22.9050 H   0  0  0  0  0  0
  -19.7960  -30.7294   24.2216 H   0  0  0  0  0  0
  -17.5032  -31.6252   24.5178 H   0  0  0  0  0  0
  -15.5370  -30.2977   23.7655 H   0  0  0  0  0  0
  -15.8687  -28.0808   22.7073 H   0  0  0  0  0  0
  -24.5786  -30.7246   25.7740 H   0  0  0  0  0  0
  -24.8967  -32.3017   26.4850 H   0  0  0  0  0  0
  -25.7924  -30.8936   27.0210 H   0  0  0  0  0  0
  -26.2954  -29.6691   24.1287 H   0  0  0  0  0  0
  -27.3911  -29.7246   25.4891 H   0  0  0  0  0  0
  -27.8889  -30.4174   23.9647 H   0  0  0  0  0  0
  -27.2686  -33.3657   26.1994 H   0  0  0  0  0  0
  -28.3907  -32.6783   25.0338 H   0  0  0  0  0  0
  -28.0662  -31.8473   26.5471 H   0  0  0  0  0  0
  -28.2574  -38.0100   24.7509 H   0  0  0  0  0  0
  -28.1090  -36.2630   24.6264 H   0  0  0  0  0  0
  -27.2291  -37.1416   25.8852 H   0  0  0  0  0  0
  -20.9496  -29.8788   21.6812 H   0  0  0  0  0  0
  -26.0150  -38.2822   24.1410 H   0  0  0  0  0  0
  -27.7624  -20.6340   20.7889 H   0  0  0  0  0  0
  -31.7510  -17.9887   19.6664 H   0  0  0  0  0  0
  -26.3653  -19.5295   22.2723 H   0  0  0  0  0  0
  -25.1330  -18.5332   21.5194 H   0  0  0  0  0  0
  -25.8782  -19.7806   20.5848 H   0  0  0  0  0  0
  -27.7176  -17.2545   22.8731 H   0  0  0  0  0  0
  -27.5670  -15.9713   21.6842 H   0  0  0  0  0  0
  -26.1523  -16.6972   22.3406 H   0  0  0  0  0  0
  -26.9290  -18.3416   18.7503 H   0  0  0  0  0  0
  -25.6695  -17.3675   19.3987 H   0  0  0  0  0  0
  -27.2876  -16.6783   19.1255 H   0  0  0  0  0  0
  -27.6549  -24.6247   18.9693 H   0  0  0  0  0  0
  -29.3263  -24.9372   18.9736 H   0  0  0  0  0  0
  -27.8568  -22.9270   20.7322 H   0  0  0  0  0  0
  -29.3032  -23.6230   21.3645 H   0  0  0  0  0  0
  -28.7546  -15.8419   20.7211 H   0  0  0  0  0  0
  1 25  1  0  0  0
  1 30  2  0  0  0
  1 83  1  0  0  0
  2  3  1  0  0  0
  2 25  1  0  0  0
  2 86  1  0  0  0
  2 87  1  0  0  0
  3  4  1  0  0  0
  3 88  1  0  0  0
  3 89  1  0  0  0
  4  5  1  0  0  0
  4 90  1  0  0  0
  4 91  1  0  0  0
  5  6  1  0  0  0
  5 26  1  0  0  0
  5 92  1  0  0  0
  6 25  1  0  0  0
  6 93  1  0  0  0
  6 94  1  0  0  0
  7  8  2  0  0  0
  7 26  1  0  0  0
  7 29  1  0  0  0
  8  9  1  0  0  0
  8 22  1  0  0  0
  9 10  1  0  0  0
  9 27  2  0  0  0
 10 11  2  0  0  0
 10 15  1  0  0  0
 11 12  1  0  0  0
 11 95  1  0  0  0
 12 13  2  0  0  0
 12 96  1  0  0  0
 13 14  1  0  0  0
 13 31  1  0  0  0
 14 15  2  0  0  0
 14 97  1  0  0  0
 15 98  1  0  0  0
 16 17  2  0  0  0
 16 21  1  0  0  0
 16 31  1  0  0  0
 17 18  1  0  0  0
 17 99  1  0  0  0
 18 19  2  0  0  0
 18100  1  0  0  0
 19 20  1  0  0  0
 19 24  1  0  0  0
 20 21  2  0  0  0
 20101  1  0  0  0
 21 23  1  0  0  0
 22 28  1  0  0  0
 22 32  2  0  0  0
 26 27  1  0  0  0
 28102  1  0  0  0
 28103  1  0  0  0
 29104  1  0  0  0
 29105  1  0  0  0
 33 34  1  0  0  0
 33 66  1  0  0  0
 33 70  2  0  0  0
 34 36  1  0  0  0
 34 59  1  0  0  0
 34106  1  0  0  0
 35 44  2  0  0  0
 35 45  1  0  0  0
 35 68  1  0  0  0
 36 56  1  0  0  0
 36107  1  0  0  0
 37 39  1  0  0  0
 37 47  1  0  0  0
 37 66  1  0  0  0
 37108  1  0  0  0
 38 43  2  0  0  0
 38 46  1  0  0  0
 38 47  1  0  0  0
 39 64  1  0  0  0
 39 67  2  0  0  0
 40 52  1  0  0  0
 40 53  2  0  0  0
 40 58  1  0  0  0
 41109  1  0  0  0
 41110  1  0  0  0
 41111  1  0  0  0
 41 48  1  0  0  0
 42 43  1  0  0  0
 42 66  1  0  0  0
 42112  1  0  0  0
 42113  1  0  0  0
 43 44  1  0  0  0
 44114  1  0  0  0
 45 46  2  0  0  0
 45115  1  0  0  0
 46116  1  0  0  0
 47117  1  0  0  0
 47118  1  0  0  0
 48 56  1  0  0  0
 48 65  1  0  0  0
 48119  1  0  0  0
 49 50  1  0  0  0
 49 53  1  0  0  0
 49 64  1  0  0  0
 49120  1  0  0  0
 50 51  1  0  0  0
 50121  1  0  0  0
 50122  1  0  0  0
 51 52  1  0  0  0
 51123  1  0  0  0
 51124  1  0  0  0
 52125  1  0  0  0
 52126  1  0  0  0
 53 54  1  0  0  0
 54 55  2  0  0  0
 54127  1  0  0  0
 55 57  1  0  0  0
 55128  1  0  0  0
 56 69  2  0  0  0
 57 58  2  0  0  0
 57129  1  0  0  0
 58130  1  0  0  0
 59 60  1  0  0  0
 59 61  1  0  0  0
 59 62  1  0  0  0
 60131  1  0  0  0
 60132  1  0  0  0
 60133  1  0  0  0
 61134  1  0  0  0
 61135  1  0  0  0
 61136  1  0  0  0
 62137  1  0  0  0
 62138  1  0  0  0
 62139  1  0  0  0
 63 65  1  0  0  0
 63140  1  0  0  0
 63141  1  0  0  0
 63142  1  0  0  0
 64143  1  0  0  0
 65144  1  0  0  0
 68 80  1  0  0  0
 71 73  2  0  0  0
 71 75  1  0  0  0
 71145  1  0  0  0
 72 74  2  0  0  0
 72 76  1  0  0  0
 72146  1  0  0  0
 73 74  1  0  0  0
 73 82  1  0  0  0
 74 83  1  0  0  0
 75 76  2  0  0  0
 75 84  1  0  0  0
 76 85  1  0  0  0
 77147  1  0  0  0
 77148  1  0  0  0
 77149  1  0  0  0
 77 82  1  0  0  0
 78 82  1  0  0  0
 78150  1  0  0  0
 78151  1  0  0  0
 78152  1  0  0  0
 79 82  1  0  0  0
 79153  1  0  0  0
 79154  1  0  0  0
 79155  1  0  0  0
 80 81  1  0  0  0
 80156  1  0  0  0
 80157  1  0  0  0
 81 84  1  0  0  0
 81158  1  0  0  0
 81159  1  0  0  0
 83160  1  0  0  0
M  ISO  4   1 100  68 101  80 101  83 100
M  END
> <chiral flag>
0

> <version>
0

> <s_m_source_file>
/data/baiqing/PycharmProjects/Reinvent-master-3.2/result/LINK_invent/BTK/process_docking_weight1_custom_sum_contain_oxygen_bond_distance_aromatic_linkinvent_7_9_3/rearranged_h_0006.sdf

> <i_m_source_file_index>
45

> <r_mmod_Potential_Energy-OPLS-2005>
596.799072265625

> <r_mmod_Stretch_Energy-OPLS-2005>
243.596313476562

> <r_mmod_Bend_Energy-OPLS-2005>
322.727691650391

> <r_mmod_Torsional_Energy-OPLS-2005>
226.390274047852

> <r_mmod_Improper_Torsional_Energy-OPLS-2005>
6.19905090332031

> <r_mmod_Van_der_Waal_Energy-OPLS-2005>
159.436706542969

> <r_mmod_Electrostatic_Energy-OPLS-2005>
-358.052642822266

> <r_mmod_Solvation_Energy-OPLS-2005>
-200.169631958008

> <b_mmod_Minimization_Converged-OPLS-2005>
0

> <r_mmod_RMS_Derivative-OPLS-2005>
2.28748273849487

$$$$
45
                    3D
 Structure written by MMmdl.
169177  0  0  1  0            999 V2000
  -30.6348  -14.6431   20.4915 C   0  0  0  0  0  0
  -30.4342  -12.3896   19.4711 C   0  0  0  0  0  0
  -29.5178  -12.5121   18.2332 C   0  0  0  0  0  0
  -28.0387  -12.3503   18.6392 C   0  0  0  0  0  0
  -27.6563  -13.2252   19.8642 C   0  0  2  0  0  0
  -28.6959  -13.0958   21.0022 C   0  0  0  0  0  0
  -25.2571  -13.8178   20.5693 C   0  0  0  0  0  0
  -24.1833  -13.0447   20.9190 C   0  0  0  0  0  0
  -24.6404  -11.6915   20.8718 C   0  0  0  0  0  0
  -23.9064  -10.4293   21.0383 C   0  0  0  0  0  0
  -24.3622   -9.4223   21.9171 C   0  0  0  0  0  0
  -23.6305   -8.2255   22.0747 C   0  0  0  0  0  0
  -22.4295   -8.0280   21.3526 C   0  0  0  0  0  0
  -21.9908   -9.0258   20.4648 C   0  0  0  0  0  0
  -22.7229  -10.2139   20.3044 C   0  0  0  0  0  0
  -21.6856   -6.0747   22.5274 C   0  0  0  0  0  0
  -21.4018   -6.5649   23.8213 C   0  0  0  0  0  0
  -21.3661   -5.6788   24.9172 C   0  0  0  0  0  0
  -21.6049   -4.3052   24.7220 C   0  0  0  0  0  0
  -21.8815   -3.8154   23.4336 C   0  0  0  0  0  0
  -21.9192   -4.6976   22.3395 C   0  0  0  0  0  0
  -22.7847  -13.5250   21.1833 C   0  0  0  0  0  0
  -22.1658   -4.2161   21.0976 F   0  0  0  0  0  0
  -21.5628   -3.4535   25.7731 F   0  0  0  0  0  0
  -30.0163  -13.4215   20.4441 N   0  0  0  0  0  0
  -26.3009  -12.9385   20.3316 N   0  0  0  0  0  0
  -25.9338  -11.6534   20.5752 N   0  0  0  0  0  0
  -22.0461  -12.8270   22.0394 N   0  0  0  0  0  0
  -25.4274  -15.1902   20.4114 N   0  0  0  0  0  0
  -31.7814  -14.7939   20.0566 O   0  0  0  0  0  0
  -21.6643   -6.8892   21.4235 O   0  0  0  0  0  0
  -22.3554  -14.5555   20.6684 O   0  0  0  0  0  0
  -24.6229  -31.8619   23.2040 C   0  0  0  0  0  0
  -25.9080  -32.4794   23.8388 C   0  0  1  0  0  0
  -27.2206  -27.3199   20.1083 C   0  0  0  0  0  0
  -25.5896  -33.8600   24.2294 N   0  0  0  0  0  0
  -23.4180  -30.4850   21.5454 C   0  0  2  0  0  0
  -24.8657  -28.9445   20.1054 C   0  0  0  0  0  0
  -22.7451  -29.4637   22.4928 C   0  0  0  0  0  0
  -18.0285  -28.1366   22.8474 C   0  0  0  0  0  0
  -24.1481  -36.7280   23.2641 C   0  0  0  0  0  0
  -25.9627  -30.7834   21.3877 C   0  0  0  0  0  0
  -26.0319  -29.4155   20.7206 C   0  0  0  0  0  0
  -27.2098  -28.6119   20.7196 C   0  0  0  0  0  0
  -26.0384  -26.9168   19.4434 C   0  0  0  0  0  0
  -24.8721  -27.7023   19.4554 C   0  0  0  0  0  0
  -23.6309  -29.8194   20.1606 C   0  0  0  0  0  0
  -25.4111  -36.3086   24.0331 C   0  0  1  0  0  0
  -20.5874  -28.3677   23.1244 C   0  0  2  0  0  0
  -20.6754  -26.9399   22.5381 C   0  0  0  0  0  0
  -19.5746  -26.6373   21.5162 C   0  0  0  0  0  0
  -18.1928  -26.7915   22.1590 C   0  0  0  0  0  0
  -19.1532  -28.8836   23.2861 C   0  0  0  0  0  0
  -18.9471  -30.1426   23.8902 C   0  0  0  0  0  0
  -17.6474  -30.6579   24.0539 C   0  0  0  0  0  0
  -25.9049  -34.9453   23.5110 C   0  0  0  0  0  0
  -16.5361  -29.9079   23.6318 C   0  0  0  0  0  0
  -16.7269  -28.6473   23.0382 C   0  0  0  0  0  0
  -26.4465  -31.6638   25.0783 C   0  0  0  0  0  0
  -25.3681  -31.3801   26.1495 C   0  0  0  0  0  0
  -27.0336  -30.3051   24.6319 C   0  0  0  0  0  0
  -27.6032  -32.4396   25.7534 C   0  0  0  0  0  0
  -27.5584  -37.1787   24.8461 C   0  0  0  0  0  0
  -21.4166  -29.3042   22.3651 N   0  0  0  0  0  0
  -26.4295  -37.3777   23.9405 N   0  0  0  0  0  0
  -24.6857  -31.0612   22.1007 N   0  0  0  0  0  0
  -23.4162  -28.8168   23.3009 O   0  0  0  0  0  0
  -28.3324  -26.4648   20.1804 O   0  0  0  0  0  0
  -26.5628  -34.8908   22.4684 O   0  0  0  0  0  0
  -23.5381  -32.1444   23.7334 O   0  0  0  0  0  0
  -29.5964  -17.1351   18.9185 C   0  0  0  0  0  0
  -29.3260  -19.5701   19.0114 C   0  0  0  0  0  0
  -29.7300  -18.2846   21.0645 C   0  0  0  0  0  0
  -29.3488  -18.3667   18.2739 C   0  0  0  0  0  0
  -29.7914  -17.0495   20.3175 C   0  0  0  0  0  0
  -29.5067  -19.5575   20.4057 C   0  0  0  0  0  0
  -29.9045  -18.2342   22.5743 C   0  0  0  0  0  0
  -26.9524  -19.6533   16.5926 C   0  0  0  0  0  0
  -30.1196  -18.5732   14.6497 C   0  0  0  0  0  0
  -27.6567  -18.2870   16.5597 C   0  0  0  0  0  0
  -30.0064  -19.1362   16.0724 C   0  0  0  0  0  0
  -29.1025  -23.9638   20.6154 C   0  0  0  0  0  0
  -28.1450  -25.0178   19.9126 C   0  0  0  0  0  0
  -29.9005  -15.7182   20.9259 N   0  0  0  0  0  0
  -28.8918  -22.5089   20.2219 N   0  0  0  0  0  0
  -29.0820  -18.3585   16.8949 N   0  0  0  0  0  0
  -28.4133  -21.1160   22.3481 O   0  0  0  0  0  0
  -30.8103  -21.5581   21.6727 O   0  0  0  0  0  0
  -29.4343  -21.2013   21.2916 S   0  0  0  0  0  0
  -31.4831  -12.4898   19.1844 H   0  0  0  0  0  0
  -30.3422  -11.3979   19.9168 H   0  0  0  0  0  0
  -29.7851  -11.7595   17.4912 H   0  0  0  0  0  0
  -29.6684  -13.4821   17.7519 H   0  0  0  0  0  0
  -27.8773  -11.2969   18.8759 H   0  0  0  0  0  0
  -27.3866  -12.5727   17.7936 H   0  0  0  0  0  0
  -27.6769  -14.2601   19.5191 H   0  0  0  0  0  0
  -28.7009  -12.0838   21.4115 H   0  0  0  0  0  0
  -28.4387  -13.7511   21.8354 H   0  0  0  0  0  0
  -25.2759   -9.5728   22.4754 H   0  0  0  0  0  0
  -24.0019   -7.4657   22.7472 H   0  0  0  0  0  0
  -21.0829   -8.8777   19.8975 H   0  0  0  0  0  0
  -22.3657  -10.9685   19.6169 H   0  0  0  0  0  0
  -21.2008   -7.6153   23.9729 H   0  0  0  0  0  0
  -21.1486   -6.0513   25.9079 H   0  0  0  0  0  0
  -22.0593   -2.7619   23.2823 H   0  0  0  0  0  0
  -22.4060  -11.9979   22.4870 H   0  0  0  0  0  0
  -21.1070  -13.1324   22.2537 H   0  0  0  0  0  0
  -24.6571  -15.8398   20.5256 H   0  0  0  0  0  0
  -26.2826  -15.6340   20.0987 H   0  0  0  0  0  0
  -26.7153  -32.5432   23.1137 H   0  0  0  0  0  0
  -25.0022  -33.9791   25.0422 H   0  0  0  0  0  0
  -22.7118  -31.3055   21.4013 H   0  0  0  0  0  0
  -23.3765  -35.9596   23.3313 H   0  0  0  0  0  0
  -24.3557  -36.8893   22.2053 H   0  0  0  0  0  0
  -23.7219  -37.6469   23.6668 H   0  0  0  0  0  0
  -26.1209  -31.5554   20.6329 H   0  0  0  0  0  0
  -26.8294  -30.8080   22.0375 H   0  0  0  0  0  0
  -28.0989  -28.9621   21.2246 H   0  0  0  0  0  0
  -25.9857  -25.9827   18.9040 H   0  0  0  0  0  0
  -23.9848  -27.3471   18.9501 H   0  0  0  0  0  0
  -23.7357  -30.5916   19.3979 H   0  0  0  0  0  0
  -22.7553  -29.2378   19.8653 H   0  0  0  0  0  0
  -25.1299  -36.1948   25.0830 H   0  0  0  0  0  0
  -20.9988  -28.3252   24.1348 H   0  0  0  0  0  0
  -20.5562  -26.2314   23.3591 H   0  0  0  0  0  0
  -21.6639  -26.7373   22.1232 H   0  0  0  0  0  0
  -19.6906  -25.6272   21.1220 H   0  0  0  0  0  0
  -19.6689  -27.3150   20.6662 H   0  0  0  0  0  0
  -17.4187  -26.6628   21.4011 H   0  0  0  0  0  0
  -18.0367  -26.0057   22.8990 H   0  0  0  0  0  0
  -19.7953  -30.7207   24.2313 H   0  0  0  0  0  0
  -17.5044  -31.6268   24.5127 H   0  0  0  0  0  0
  -15.5364  -30.2989   23.7646 H   0  0  0  0  0  0
  -15.8658  -28.0763   22.7174 H   0  0  0  0  0  0
  -24.5829  -30.7201   25.7783 H   0  0  0  0  0  0
  -24.8911  -32.2987   26.4929 H   0  0  0  0  0  0
  -25.7959  -30.8938   27.0274 H   0  0  0  0  0  0
  -26.2960  -29.6804   24.1270 H   0  0  0  0  0  0
  -27.3903  -29.7319   25.4889 H   0  0  0  0  0  0
  -27.8885  -30.4319   23.9673 H   0  0  0  0  0  0
  -27.2648  -33.3689   26.2136 H   0  0  0  0  0  0
  -28.3808  -32.6987   25.0336 H   0  0  0  0  0  0
  -28.0757  -31.8536   26.5430 H   0  0  0  0  0  0
  -28.2600  -38.0084   24.7515 H   0  0  0  0  0  0
  -28.1081  -36.2615   24.6287 H   0  0  0  0  0  0
  -27.2301  -37.1432   25.8862 H   0  0  0  0  0  0
  -20.9344  -29.8778   21.6872 H   0  0  0  0  0  0
  -26.0182  -38.2857   24.1398 H   0  0  0  0  0  0
  -29.6006  -16.2347   18.3206 H   0  0  0  0  0  0
  -29.1503  -20.5125   18.5160 H   0  0  0  0  0  0
  -30.4800  -17.3609   22.8809 H   0  0  0  0  0  0
  -28.9310  -18.1899   23.0635 H   0  0  0  0  0  0
  -30.4392  -19.1071   22.9484 H   0  0  0  0  0  0
  -25.8929  -19.5458   16.3575 H   0  0  0  0  0  0
  -27.3755  -20.3407   15.8607 H   0  0  0  0  0  0
  -27.0176  -20.1234   17.5722 H   0  0  0  0  0  0
  -30.8500  -19.1336   14.0651 H   0  0  0  0  0  0
  -29.1701  -18.6202   14.1164 H   0  0  0  0  0  0
  -30.4468  -17.5338   14.6658 H   0  0  0  0  0  0
  -27.5367  -17.8430   15.5708 H   0  0  0  0  0  0
  -27.1533  -17.6048   17.2487 H   0  0  0  0  0  0
  -29.6944  -20.1807   16.0374 H   0  0  0  0  0  0
  -30.9960  -19.1272   16.5316 H   0  0  0  0  0  0
  -28.9703  -24.0468   21.6956 H   0  0  0  0  0  0
  -30.1444  -24.2233   20.4260 H   0  0  0  0  0  0
  -27.1390  -24.7151   20.2019 H   0  0  0  0  0  0
  -28.2083  -24.8800   18.8313 H   0  0  0  0  0  0
  -29.1303  -15.4726   21.5296 H   0  0  0  0  0  0
  -27.9238  -22.3333   19.9450 H   0  0  0  0  0  0
  1 25  1  0  0  0
  1 30  2  0  0  0
  1 84  1  0  0  0
  2  3  1  0  0  0
  2 25  1  0  0  0
  2 90  1  0  0  0
  2 91  1  0  0  0
  3  4  1  0  0  0
  3 92  1  0  0  0
  3 93  1  0  0  0
  4  5  1  0  0  0
  4 94  1  0  0  0
  4 95  1  0  0  0
  5  6  1  0  0  0
  5 26  1  0  0  0
  5 96  1  0  0  0
  6 25  1  0  0  0
  6 97  1  0  0  0
  6 98  1  0  0  0
  7  8  2  0  0  0
  7 26  1  0  0  0
  7 29  1  0  0  0
  8  9  1  0  0  0
  8 22  1  0  0  0
  9 10  1  0  0  0
  9 27  2  0  0  0
 10 11  2  0  0  0
 10 15  1  0  0  0
 11 12  1  0  0  0
 11 99  1  0  0  0
 12 13  2  0  0  0
 12100  1  0  0  0
 13 14  1  0  0  0
 13 31  1  0  0  0
 14 15  2  0  0  0
 14101  1  0  0  0
 15102  1  0  0  0
 16 17  2  0  0  0
 16 21  1  0  0  0
 16 31  1  0  0  0
 17 18  1  0  0  0
 17103  1  0  0  0
 18 19  2  0  0  0
 18104  1  0  0  0
 19 20  1  0  0  0
 19 24  1  0  0  0
 20 21  2  0  0  0
 20105  1  0  0  0
 21 23  1  0  0  0
 22 28  1  0  0  0
 22 32  2  0  0  0
 26 27  1  0  0  0
 28106  1  0  0  0
 28107  1  0  0  0
 29108  1  0  0  0
 29109  1  0  0  0
 33 34  1  0  0  0
 33 66  1  0  0  0
 33 70  2  0  0  0
 34 36  1  0  0  0
 34 59  1  0  0  0
 34110  1  0  0  0
 35 44  2  0  0  0
 35 45  1  0  0  0
 35 68  1  0  0  0
 36 56  1  0  0  0
 36111  1  0  0  0
 37 39  1  0  0  0
 37 47  1  0  0  0
 37 66  1  0  0  0
 37112  1  0  0  0
 38 43  2  0  0  0
 38 46  1  0  0  0
 38 47  1  0  0  0
 39 64  1  0  0  0
 39 67  2  0  0  0
 40 52  1  0  0  0
 40 53  2  0  0  0
 40 58  1  0  0  0
 41113  1  0  0  0
 41114  1  0  0  0
 41115  1  0  0  0
 41 48  1  0  0  0
 42 43  1  0  0  0
 42 66  1  0  0  0
 42116  1  0  0  0
 42117  1  0  0  0
 43 44  1  0  0  0
 44118  1  0  0  0
 45 46  2  0  0  0
 45119  1  0  0  0
 46120  1  0  0  0
 47121  1  0  0  0
 47122  1  0  0  0
 48 56  1  0  0  0
 48 65  1  0  0  0
 48123  1  0  0  0
 49 50  1  0  0  0
 49 53  1  0  0  0
 49 64  1  0  0  0
 49124  1  0  0  0
 50 51  1  0  0  0
 50125  1  0  0  0
 50126  1  0  0  0
 51 52  1  0  0  0
 51127  1  0  0  0
 51128  1  0  0  0
 52129  1  0  0  0
 52130  1  0  0  0
 53 54  1  0  0  0
 54 55  2  0  0  0
 54131  1  0  0  0
 55 57  1  0  0  0
 55132  1  0  0  0
 56 69  2  0  0  0
 57 58  2  0  0  0
 57133  1  0  0  0
 58134  1  0  0  0
 59 60  1  0  0  0
 59 61  1  0  0  0
 59 62  1  0  0  0
 60135  1  0  0  0
 60136  1  0  0  0
 60137  1  0  0  0
 61138  1  0  0  0
 61139  1  0  0  0
 61140  1  0  0  0
 62141  1  0  0  0
 62142  1  0  0  0
 62143  1  0  0  0
 63 65  1  0  0  0
 63144  1  0  0  0
 63145  1  0  0  0
 63146  1  0  0  0
 64147  1  0  0  0
 65148  1  0  0  0
 68 83  1  0  0  0
 71 74  2  0  0  0
 71 75  1  0  0  0
 71149  1  0  0  0
 72 74  1  0  0  0
 72 76  2  0  0  0
 72150  1  0  0  0
 73 75  2  0  0  0
 73 76  1  0  0  0
 73 77  1  0  0  0
 74 86  1  0  0  0
 75 84  1  0  0  0
 76 89  1  0  0  0
 77151  1  0  0  0
 77152  1  0  0  0
 77153  1  0  0  0
 78 80  1  0  0  0
 78154  1  0  0  0
 78155  1  0  0  0
 78156  1  0  0  0
 79 81  1  0  0  0
 79157  1  0  0  0
 79158  1  0  0  0
 79159  1  0  0  0
 80 86  1  0  0  0
 80160  1  0  0  0
 80161  1  0  0  0
 81 86  1  0  0  0
 81162  1  0  0  0
 81163  1  0  0  0
 82 83  1  0  0  0
 82 85  1  0  0  0
 82164  1  0  0  0
 82165  1  0  0  0
 83166  1  0  0  0
 83167  1  0  0  0
 84168  1  0  0  0
 85169  1  0  0  0
 85 89  1  0  0  0
 87 89  2  0  0  0
 88 89  2  0  0  0
M  ISO  4   1 100  68 101  83 101  84 100
M  END
> <chiral flag>
0

> <version>
0

> <s_m_source_file>
/data/baiqing/PycharmProjects/Reinvent-master-3.2/result/LINK_invent/BTK/process_docking_weight1_custom_sum_contain_oxygen_bond_distance_aromatic_linkinvent_7_9_3/rearranged_h_0006.sdf

> <i_m_source_file_index>
46

> <r_mmod_Potential_Energy-OPLS-2005>
-54.2253303527832

> <r_mmod_Stretch_Energy-OPLS-2005>
84.7050247192383

> <r_mmod_Bend_Energy-OPLS-2005>
138.105239868164

> <r_mmod_Torsional_Energy-OPLS-2005>
280.327026367188

> <r_mmod_Improper_Torsional_Energy-OPLS-2005>
12.0203990936279

> <r_mmod_Van_der_Waal_Energy-OPLS-2005>
135.56657409668

> <r_mmod_Electrostatic_Energy-OPLS-2005>
-500.450653076172

> <r_mmod_Solvation_Energy-OPLS-2005>
-255.682922363281

> <b_mmod_Minimization_Converged-OPLS-2005>
0

> <r_mmod_RMS_Derivative-OPLS-2005>
2.81247043609619

$$$$
46
                    3D
 Structure written by MMmdl.
157165  0  0  1  0            999 V2000
  -30.7821  -14.3430   20.6966 C   0  0  0  0  0  0
  -30.4186  -12.2789   19.3963 C   0  0  0  0  0  0
  -29.4860  -12.5211   18.1956 C   0  0  0  0  0  0
  -28.0112  -12.3765   18.6133 C   0  0  0  0  0  0
  -27.6700  -13.1996   19.8819 C   0  0  2  0  0  0
  -28.7066  -12.9356   20.9971 C   0  0  0  0  0  0
  -25.2619  -13.8149   20.5670 C   0  0  0  0  0  0
  -24.1856  -13.0433   20.9163 C   0  0  0  0  0  0
  -24.6398  -11.6897   20.8720 C   0  0  0  0  0  0
  -23.9062  -10.4290   21.0392 C   0  0  0  0  0  0
  -24.3611   -9.4206   21.9172 C   0  0  0  0  0  0
  -23.6290   -8.2241   22.0750 C   0  0  0  0  0  0
  -22.4271   -8.0278   21.3540 C   0  0  0  0  0  0
  -21.9906   -9.0252   20.4643 C   0  0  0  0  0  0
  -22.7232  -10.2133   20.3049 C   0  0  0  0  0  0
  -21.6852   -6.0732   22.5281 C   0  0  0  0  0  0
  -21.4012   -6.5634   23.8213 C   0  0  0  0  0  0
  -21.3660   -5.6788   24.9174 C   0  0  0  0  0  0
  -21.6048   -4.3052   24.7226 C   0  0  0  0  0  0
  -21.8820   -3.8145   23.4347 C   0  0  0  0  0  0
  -21.9191   -4.6961   22.3403 C   0  0  0  0  0  0
  -22.7880  -13.5240   21.1830 C   0  0  0  0  0  0
  -22.1660   -4.2145   21.0978 F   0  0  0  0  0  0
  -21.5634   -3.4539   25.7743 F   0  0  0  0  0  0
  -30.0558  -13.2183   20.4671 N   0  0  0  0  0  0
  -26.3062  -12.9314   20.3381 N   0  0  0  0  0  0
  -25.9324  -11.6475   20.5751 N   0  0  0  0  0  0
  -22.0518  -12.8238   22.0394 N   0  0  0  0  0  0
  -25.4351  -15.1868   20.4093 N   0  0  0  0  0  0
  -31.7797  -14.6427   20.0335 O   0  0  0  0  0  0
  -21.6633   -6.8877   21.4242 O   0  0  0  0  0  0
  -22.3564  -14.5539   20.6671 O   0  0  0  0  0  0
  -24.6114  -31.8714   23.2138 C   0  0  0  0  0  0
  -25.9027  -32.4839   23.8413 C   0  0  1  0  0  0
  -27.2307  -27.4804   20.0767 C   0  0  0  0  0  0
  -25.5891  -33.8640   24.2336 N   0  0  0  0  0  0
  -23.3968  -30.4963   21.5553 C   0  0  2  0  0  0
  -24.8408  -28.9713   20.1126 C   0  0  0  0  0  0
  -22.7383  -29.4676   22.5025 C   0  0  0  0  0  0
  -18.0262  -28.1391   22.8498 C   0  0  0  0  0  0
  -24.1483  -36.7306   23.2635 C   0  0  0  0  0  0
  -25.9220  -30.8489   21.3624 C   0  0  0  0  0  0
  -25.9998  -29.4895   20.7048 C   0  0  0  0  0  0
  -27.2018  -28.7513   20.6837 C   0  0  0  0  0  0
  -26.0575  -26.9667   19.4807 C   0  0  0  0  0  0
  -24.8615  -27.7069   19.4999 C   0  0  0  0  0  0
  -23.6011  -29.8338   20.1677 C   0  0  0  0  0  0
  -25.4109  -36.3120   24.0337 C   0  0  1  0  0  0
  -20.5849  -28.3669   23.1342 C   0  0  2  0  0  0
  -20.6754  -26.9409   22.5437 C   0  0  0  0  0  0
  -19.5743  -26.6404   21.5222 C   0  0  0  0  0  0
  -18.1913  -26.7944   22.1617 C   0  0  0  0  0  0
  -19.1511  -28.8847   23.2920 C   0  0  0  0  0  0
  -18.9440  -30.1449   23.8940 C   0  0  0  0  0  0
  -17.6447  -30.6598   24.0581 C   0  0  0  0  0  0
  -25.9038  -34.9488   23.5135 C   0  0  0  0  0  0
  -16.5340  -29.9106   23.6325 C   0  0  0  0  0  0
  -16.7252  -28.6521   23.0349 C   0  0  0  0  0  0
  -26.4466  -31.6612   25.0729 C   0  0  0  0  0  0
  -25.3750  -31.3743   26.1502 C   0  0  0  0  0  0
  -27.0231  -30.3028   24.6091 C   0  0  0  0  0  0
  -27.6080  -32.4302   25.7462 C   0  0  0  0  0  0
  -27.5598  -37.1790   24.8458 C   0  0  0  0  0  0
  -21.4118  -29.3031   22.3742 N   0  0  0  0  0  0
  -26.4293  -37.3810   23.9428 N   0  0  0  0  0  0
  -24.6614  -31.0847   22.1024 N   0  0  0  0  0  0
  -23.4169  -28.8224   23.3061 O   0  0  0  0  0  0
  -28.3896  -26.7487   20.0871 O   0  0  0  0  0  0
  -26.5605  -34.8937   22.4700 O   0  0  0  0  0  0
  -23.5314  -32.1453   23.7553 O   0  0  0  0  0  0
  -29.6585  -17.2073   22.6081 C   0  0  0  0  0  0
  -31.9602  -16.9835   21.8495 C   0  0  0  0  0  0
  -29.8806  -18.5697   22.8752 C   0  0  0  0  0  0
  -32.1763  -18.3509   22.1067 C   0  0  0  0  0  0
  -30.6811  -16.4139   22.0532 C   0  0  0  0  0  0
  -31.1306  -19.1675   22.5791 C   0  0  0  0  0  0
  -29.3880  -23.5888   21.8793 C   0  0  0  0  0  0
  -30.6297  -22.6989   22.0136 C   0  0  0  0  0  0
  -29.5739  -24.8075   20.9664 C   0  0  0  0  0  0
  -30.2802  -21.4008   22.7471 C   0  0  0  0  0  0
  -28.2281  -25.5005   20.7467 C   0  0  0  0  0  0
  -30.3677  -15.0652   21.7489 N   0  0  0  0  0  0
  -31.3935  -20.5129   22.7176 O   0  0  0  0  0  0
  -31.4616  -12.3768   19.0899 H   0  0  0  0  0  0
  -30.3152  -11.2548   19.7586 H   0  0  0  0  0  0
  -29.7153  -11.8168   17.3952 H   0  0  0  0  0  0
  -29.6589  -13.5175   17.7859 H   0  0  0  0  0  0
  -27.8207  -11.3185   18.7975 H   0  0  0  0  0  0
  -27.3570  -12.6626   17.7891 H   0  0  0  0  0  0
  -27.7312  -14.2535   19.6101 H   0  0  0  0  0  0
  -28.6624  -11.8908   21.3097 H   0  0  0  0  0  0
  -28.4493  -13.5102   21.8870 H   0  0  0  0  0  0
  -25.2761   -9.5685   22.4741 H   0  0  0  0  0  0
  -24.0003   -7.4636   22.7466 H   0  0  0  0  0  0
  -21.0837   -8.8768   19.8949 H   0  0  0  0  0  0
  -22.3685  -10.9670   19.6155 H   0  0  0  0  0  0
  -21.1999   -7.6143   23.9715 H   0  0  0  0  0  0
  -21.1484   -6.0519   25.9078 H   0  0  0  0  0  0
  -22.0600   -2.7606   23.2849 H   0  0  0  0  0  0
  -22.4138  -11.9906   22.4792 H   0  0  0  0  0  0
  -21.1133  -13.1262   22.2584 H   0  0  0  0  0  0
  -24.6722  -15.8461   20.5184 H   0  0  0  0  0  0
  -26.2963  -15.6254   20.1067 H   0  0  0  0  0  0
  -26.7108  -32.5564   23.1191 H   0  0  0  0  0  0
  -25.0056  -33.9805   25.0492 H   0  0  0  0  0  0
  -22.6845  -31.3129   21.4208 H   0  0  0  0  0  0
  -23.3775  -35.9603   23.3258 H   0  0  0  0  0  0
  -24.3592  -36.8962   22.2059 H   0  0  0  0  0  0
  -23.7178  -37.6472   23.6679 H   0  0  0  0  0  0
  -26.0304  -31.6200   20.5990 H   0  0  0  0  0  0
  -26.8091  -30.8977   21.9815 H   0  0  0  0  0  0
  -28.0987  -29.1436   21.1429 H   0  0  0  0  0  0
  -26.0627  -26.0010   18.9965 H   0  0  0  0  0  0
  -23.9702  -27.3042   19.0375 H   0  0  0  0  0  0
  -23.7039  -30.6115   19.4101 H   0  0  0  0  0  0
  -22.7252  -29.2520   19.8746 H   0  0  0  0  0  0
  -25.1273  -36.1995   25.0824 H   0  0  0  0  0  0
  -20.9931  -28.3241   24.1471 H   0  0  0  0  0  0
  -20.5670  -26.2278   23.3624 H   0  0  0  0  0  0
  -21.6629  -26.7468   22.1237 H   0  0  0  0  0  0
  -19.6916  -25.6319   21.1241 H   0  0  0  0  0  0
  -19.6700  -27.3225   20.6765 H   0  0  0  0  0  0
  -17.4193  -26.6714   21.4000 H   0  0  0  0  0  0
  -18.0292  -26.0070   22.8995 H   0  0  0  0  0  0
  -19.7912  -30.7242   24.2350 H   0  0  0  0  0  0
  -17.5004  -31.6281   24.5178 H   0  0  0  0  0  0
  -15.5343  -30.3032   23.7626 H   0  0  0  0  0  0
  -15.8647  -28.0857   22.7058 H   0  0  0  0  0  0
  -24.5893  -30.7117   25.7852 H   0  0  0  0  0  0
  -24.8993  -32.2921   26.4971 H   0  0  0  0  0  0
  -25.8113  -30.8891   27.0243 H   0  0  0  0  0  0
  -26.2722  -29.6839   24.1163 H   0  0  0  0  0  0
  -27.3970  -29.7230   25.4539 H   0  0  0  0  0  0
  -27.8599  -30.4280   23.9217 H   0  0  0  0  0  0
  -27.2741  -33.3618   26.2039 H   0  0  0  0  0  0
  -28.3888  -32.6818   25.0273 H   0  0  0  0  0  0
  -28.0745  -31.8417   26.5372 H   0  0  0  0  0  0
  -28.2597  -38.0106   24.7560 H   0  0  0  0  0  0
  -28.1098  -36.2644   24.6199 H   0  0  0  0  0  0
  -27.2330  -37.1364   25.8859 H   0  0  0  0  0  0
  -20.9286  -29.8740   21.6950 H   0  0  0  0  0  0
  -26.0185  -38.2873   24.1480 H   0  0  0  0  0  0
  -28.6808  -16.7893   22.8057 H   0  0  0  0  0  0
  -32.7845  -16.3933   21.4754 H   0  0  0  0  0  0
  -29.0636  -19.1410   23.2905 H   0  0  0  0  0  0
  -33.1485  -18.7804   21.9090 H   0  0  0  0  0  0
  -29.0737  -23.9206   22.8696 H   0  0  0  0  0  0
  -28.5630  -22.9912   21.4866 H   0  0  0  0  0  0
  -31.4319  -23.2282   22.5311 H   0  0  0  0  0  0
  -31.0052  -22.4524   21.0195 H   0  0  0  0  0  0
  -29.9818  -24.5013   20.0022 H   0  0  0  0  0  0
  -30.2901  -25.4994   21.4101 H   0  0  0  0  0  0
  -29.4117  -20.9833   22.2370 H   0  0  0  0  0  0
  -29.9918  -21.6004   23.7799 H   0  0  0  0  0  0
  -27.7453  -25.6674   21.7121 H   0  0  0  0  0  0
  -27.5770  -24.8382   20.1746 H   0  0  0  0  0  0
  -29.5599  -14.6811   22.2145 H   0  0  0  0  0  0
  1 25  1  0  0  0
  1 30  2  0  0  0
  1 82  1  0  0  0
  2  3  1  0  0  0
  2 25  1  0  0  0
  2 84  1  0  0  0
  2 85  1  0  0  0
  3  4  1  0  0  0
  3 86  1  0  0  0
  3 87  1  0  0  0
  4  5  1  0  0  0
  4 88  1  0  0  0
  4 89  1  0  0  0
  5  6  1  0  0  0
  5 26  1  0  0  0
  5 90  1  0  0  0
  6 25  1  0  0  0
  6 91  1  0  0  0
  6 92  1  0  0  0
  7  8  2  0  0  0
  7 26  1  0  0  0
  7 29  1  0  0  0
  8  9  1  0  0  0
  8 22  1  0  0  0
  9 10  1  0  0  0
  9 27  2  0  0  0
 10 11  2  0  0  0
 10 15  1  0  0  0
 11 12  1  0  0  0
 11 93  1  0  0  0
 12 13  2  0  0  0
 12 94  1  0  0  0
 13 14  1  0  0  0
 13 31  1  0  0  0
 14 15  2  0  0  0
 14 95  1  0  0  0
 15 96  1  0  0  0
 16 17  2  0  0  0
 16 21  1  0  0  0
 16 31  1  0  0  0
 17 18  1  0  0  0
 17 97  1  0  0  0
 18 19  2  0  0  0
 18 98  1  0  0  0
 19 20  1  0  0  0
 19 24  1  0  0  0
 20 21  2  0  0  0
 20 99  1  0  0  0
 21 23  1  0  0  0
 22 28  1  0  0  0
 22 32  2  0  0  0
 26 27  1  0  0  0
 28100  1  0  0  0
 28101  1  0  0  0
 29102  1  0  0  0
 29103  1  0  0  0
 33 34  1  0  0  0
 33 66  1  0  0  0
 33 70  2  0  0  0
 34 36  1  0  0  0
 34 59  1  0  0  0
 34104  1  0  0  0
 35 44  2  0  0  0
 35 45  1  0  0  0
 35 68  1  0  0  0
 36 56  1  0  0  0
 36105  1  0  0  0
 37 39  1  0  0  0
 37 47  1  0  0  0
 37 66  1  0  0  0
 37106  1  0  0  0
 38 43  2  0  0  0
 38 46  1  0  0  0
 38 47  1  0  0  0
 39 64  1  0  0  0
 39 67  2  0  0  0
 40 52  1  0  0  0
 40 53  2  0  0  0
 40 58  1  0  0  0
 41107  1  0  0  0
 41108  1  0  0  0
 41109  1  0  0  0
 41 48  1  0  0  0
 42 43  1  0  0  0
 42 66  1  0  0  0
 42110  1  0  0  0
 42111  1  0  0  0
 43 44  1  0  0  0
 44112  1  0  0  0
 45 46  2  0  0  0
 45113  1  0  0  0
 46114  1  0  0  0
 47115  1  0  0  0
 47116  1  0  0  0
 48 56  1  0  0  0
 48 65  1  0  0  0
 48117  1  0  0  0
 49 50  1  0  0  0
 49 53  1  0  0  0
 49 64  1  0  0  0
 49118  1  0  0  0
 50 51  1  0  0  0
 50119  1  0  0  0
 50120  1  0  0  0
 51 52  1  0  0  0
 51121  1  0  0  0
 51122  1  0  0  0
 52123  1  0  0  0
 52124  1  0  0  0
 53 54  1  0  0  0
 54 55  2  0  0  0
 54125  1  0  0  0
 55 57  1  0  0  0
 55126  1  0  0  0
 56 69  2  0  0  0
 57 58  2  0  0  0
 57127  1  0  0  0
 58128  1  0  0  0
 59 60  1  0  0  0
 59 61  1  0  0  0
 59 62  1  0  0  0
 60129  1  0  0  0
 60130  1  0  0  0
 60131  1  0  0  0
 61132  1  0  0  0
 61133  1  0  0  0
 61134  1  0  0  0
 62135  1  0  0  0
 62136  1  0  0  0
 62137  1  0  0  0
 63 65  1  0  0  0
 63138  1  0  0  0
 63139  1  0  0  0
 63140  1  0  0  0
 64141  1  0  0  0
 65142  1  0  0  0
 68 81  1  0  0  0
 71 73  2  0  0  0
 71 75  1  0  0  0
 71143  1  0  0  0
 72 74  1  0  0  0
 72 75  2  0  0  0
 72144  1  0  0  0
 73 76  1  0  0  0
 73145  1  0  0  0
 74 76  2  0  0  0
 74146  1  0  0  0
 75 82  1  0  0  0
 76 83  1  0  0  0
 77 78  1  0  0  0
 77 79  1  0  0  0
 77147  1  0  0  0
 77148  1  0  0  0
 78 80  1  0  0  0
 78149  1  0  0  0
 78150  1  0  0  0
 79 81  1  0  0  0
 79151  1  0  0  0
 79152  1  0  0  0
 80 83  1  0  0  0
 80153  1  0  0  0
 80154  1  0  0  0
 81155  1  0  0  0
 81156  1  0  0  0
 82157  1  0  0  0
M  ISO  4   1 100  68 101  81 101  82 100
M  END
> <chiral flag>
0

> <version>
0

> <s_m_source_file>
/data/baiqing/PycharmProjects/Reinvent-master-3.2/result/LINK_invent/BTK/process_docking_weight1_custom_sum_contain_oxygen_bond_distance_aromatic_linkinvent_7_9_3/rearranged_h_0006.sdf

> <i_m_source_file_index>
47

> <r_mmod_Potential_Energy-OPLS-2005>
-49.5983200073242

> <r_mmod_Stretch_Energy-OPLS-2005>
30.7828540802002

> <r_mmod_Bend_Energy-OPLS-2005>
92.3380584716797

> <r_mmod_Torsional_Energy-OPLS-2005>
232.460891723633

> <r_mmod_Improper_Torsional_Energy-OPLS-2005>
2.80305457115173

> <r_mmod_Van_der_Waal_Energy-OPLS-2005>
167.667709350586

> <r_mmod_Electrostatic_Energy-OPLS-2005>
-376.246826171875

> <r_mmod_Solvation_Energy-OPLS-2005>
-206.924530029297

> <b_mmod_Minimization_Converged-OPLS-2005>
0

> <r_mmod_RMS_Derivative-OPLS-2005>
1.58114111423492

$$$$
47
                    3D
 Structure written by MMmdl.
154162  0  0  1  0            999 V2000
  -30.6699  -14.7433   20.4160 C   0  0  0  0  0  0
  -30.4223  -12.4510   19.4740 C   0  0  0  0  0  0
  -29.5060  -12.4969   18.2336 C   0  0  0  0  0  0
  -28.0334  -12.3281   18.6516 C   0  0  0  0  0  0
  -27.6399  -13.2431   19.8422 C   0  0  2  0  0  0
  -28.6906  -13.2209   20.9746 C   0  0  0  0  0  0
  -25.2506  -13.8228   20.5708 C   0  0  0  0  0  0
  -24.1811  -13.0457   20.9221 C   0  0  0  0  0  0
  -24.6428  -11.6935   20.8773 C   0  0  0  0  0  0
  -23.9105  -10.4294   21.0415 C   0  0  0  0  0  0
  -24.3644   -9.4205   21.9196 C   0  0  0  0  0  0
  -23.6308   -8.2243   22.0758 C   0  0  0  0  0  0
  -22.4289   -8.0291   21.3554 C   0  0  0  0  0  0
  -21.9937   -9.0263   20.4650 C   0  0  0  0  0  0
  -22.7275  -10.2140   20.3060 C   0  0  0  0  0  0
  -21.6857   -6.0750   22.5283 C   0  0  0  0  0  0
  -21.4016   -6.5657   23.8216 C   0  0  0  0  0  0
  -21.3658   -5.6801   24.9177 C   0  0  0  0  0  0
  -21.6044   -4.3060   24.7223 C   0  0  0  0  0  0
  -21.8820   -3.8163   23.4339 C   0  0  0  0  0  0
  -21.9188   -4.6978   22.3399 C   0  0  0  0  0  0
  -22.7823  -13.5218   21.1876 C   0  0  0  0  0  0
  -22.1662   -4.2163   21.0978 F   0  0  0  0  0  0
  -21.5622   -3.4544   25.7739 F   0  0  0  0  0  0
  -29.9914  -13.5445   20.3767 N   0  0  0  0  0  0
  -26.2950  -12.9463   20.3288 N   0  0  0  0  0  0
  -25.9371  -11.6597   20.5779 N   0  0  0  0  0  0
  -22.0470  -12.8188   22.0420 N   0  0  0  0  0  0
  -25.4182  -15.1948   20.4113 N   0  0  0  0  0  0
  -31.8769  -14.7370   20.1764 O   0  0  0  0  0  0
  -21.6654   -6.8895   21.4248 O   0  0  0  0  0  0
  -22.3497  -14.5520   20.6723 O   0  0  0  0  0  0
  -24.6317  -31.8553   23.1990 C   0  0  0  0  0  0
  -25.9141  -32.4738   23.8335 C   0  0  1  0  0  0
  -27.2174  -27.2688   20.1233 C   0  0  0  0  0  0
  -25.5943  -33.8548   24.2267 N   0  0  0  0  0  0
  -23.4255  -30.4802   21.5430 C   0  0  2  0  0  0
  -24.8711  -28.9328   20.1060 C   0  0  0  0  0  0
  -22.7512  -29.4588   22.4912 C   0  0  0  0  0  0
  -18.0299  -28.1382   22.8482 C   0  0  0  0  0  0
  -24.1485  -36.7283   23.2641 C   0  0  0  0  0  0
  -25.9722  -30.7684   21.3795 C   0  0  0  0  0  0
  -26.0401  -29.3930   20.7225 C   0  0  0  0  0  0
  -27.2108  -28.5700   20.7273 C   0  0  0  0  0  0
  -26.0286  -26.8894   19.4524 C   0  0  0  0  0  0
  -24.8709  -27.6884   19.4613 C   0  0  0  0  0  0
  -23.6415  -29.8181   20.1578 C   0  0  0  0  0  0
  -25.4104  -36.3069   24.0335 C   0  0  1  0  0  0
  -20.5901  -28.3678   23.1281 C   0  0  2  0  0  0
  -20.6780  -26.9396   22.5427 C   0  0  0  0  0  0
  -19.5753  -26.6378   21.5229 C   0  0  0  0  0  0
  -18.1931  -26.7925   22.1636 C   0  0  0  0  0  0
  -19.1553  -28.8850   23.2870 C   0  0  0  0  0  0
  -18.9475  -30.1462   23.8876 C   0  0  0  0  0  0
  -17.6464  -30.6573   24.0565 C   0  0  0  0  0  0
  -25.9056  -34.9436   23.5103 C   0  0  0  0  0  0
  -16.5353  -29.9071   23.6332 C   0  0  0  0  0  0
  -16.7287  -28.6494   23.0341 C   0  0  0  0  0  0
  -26.4511  -31.6571   25.0728 C   0  0  0  0  0  0
  -25.3738  -31.3744   26.1453 C   0  0  0  0  0  0
  -27.0352  -30.2977   24.6205 C   0  0  0  0  0  0
  -27.6054  -32.4328   25.7494 C   0  0  0  0  0  0
  -27.5575  -37.1792   24.8467 C   0  0  0  0  0  0
  -21.4214  -29.3037   22.3677 N   0  0  0  0  0  0
  -26.4275  -37.3775   23.9413 N   0  0  0  0  0  0
  -24.6962  -31.0535   22.0961 N   0  0  0  0  0  0
  -23.4221  -28.8131   23.3005 O   0  0  0  0  0  0
  -28.3208  -26.3867   20.2193 O   0  0  0  0  0  0
  -26.5629  -34.8904   22.4674 O   0  0  0  0  0  0
  -23.5469  -32.1377   23.7299 O   0  0  0  0  0  0
  -32.0504  -18.8485   19.1404 C   0  0  0  0  0  0
  -31.5532  -17.5607   19.4058 C   0  0  0  0  0  0
  -29.6801  -18.5636   20.5712 C   0  0  0  0  0  0
  -31.3941  -20.0098   19.5922 C   0  0  0  0  0  0
  -30.3913  -17.3457   20.1888 C   0  0  0  0  0  0
  -30.1305  -19.9175   20.2465 C   0  0  0  0  0  0
  -29.2005  -22.3326   19.9536 C   0  0  0  0  0  0
  -32.1377  -21.3282   19.4033 C   0  0  0  0  0  0
  -28.9361  -23.7478   20.6542 C   0  0  0  0  0  0
  -28.2190  -24.9372   19.8242 C   0  0  0  0  0  0
  -29.4441  -21.1683   20.6704 N   0  0  0  0  0  0
  -29.9686  -15.9455   20.5181 N   0  0  0  0  0  0
  -29.1770  -22.2979   18.7210 O   0  0  0  0  0  0
  -31.4650  -12.5418   19.1669 H   0  0  0  0  0  0
  -30.3446  -11.4863   19.9784 H   0  0  0  0  0  0
  -29.7846  -11.7156   17.5259 H   0  0  0  0  0  0
  -29.6359  -13.4461   17.7099 H   0  0  0  0  0  0
  -27.8908  -11.2826   18.9275 H   0  0  0  0  0  0
  -27.3743  -12.5103   17.8019 H   0  0  0  0  0  0
  -27.6205  -14.2569   19.4408 H   0  0  0  0  0  0
  -28.7257  -12.2452   21.4601 H   0  0  0  0  0  0
  -28.4348  -13.9447   21.7501 H   0  0  0  0  0  0
  -25.2788   -9.5679   22.4777 H   0  0  0  0  0  0
  -24.0018   -7.4637   22.7476 H   0  0  0  0  0  0
  -21.0873   -8.8794   19.8947 H   0  0  0  0  0  0
  -22.3745  -10.9688   19.6168 H   0  0  0  0  0  0
  -21.2017   -7.6163   23.9724 H   0  0  0  0  0  0
  -21.1479   -6.0534   25.9079 H   0  0  0  0  0  0
  -22.0596   -2.7624   23.2840 H   0  0  0  0  0  0
  -22.4094  -11.9845   22.4797 H   0  0  0  0  0  0
  -21.1086  -13.1201   22.2632 H   0  0  0  0  0  0
  -24.6490  -15.8474   20.5122 H   0  0  0  0  0  0
  -26.2649  -15.6328   20.0732 H   0  0  0  0  0  0
  -26.7193  -32.5372   23.1062 H   0  0  0  0  0  0
  -25.0106  -33.9688   25.0423 H   0  0  0  0  0  0
  -22.7217  -31.3028   21.3999 H   0  0  0  0  0  0
  -23.3740  -35.9630   23.3314 H   0  0  0  0  0  0
  -24.3589  -36.8898   22.2061 H   0  0  0  0  0  0
  -23.7245  -37.6492   23.6652 H   0  0  0  0  0  0
  -26.1149  -31.5251   20.6076 H   0  0  0  0  0  0
  -26.8511  -30.8153   22.0107 H   0  0  0  0  0  0
  -28.1007  -28.9122   21.2354 H   0  0  0  0  0  0
  -25.9498  -25.9601   18.9108 H   0  0  0  0  0  0
  -23.9786  -27.3391   18.9590 H   0  0  0  0  0  0
  -23.7633  -30.5959   19.4039 H   0  0  0  0  0  0
  -22.7569  -29.2540   19.8526 H   0  0  0  0  0  0
  -25.1282  -36.1919   25.0830 H   0  0  0  0  0  0
  -20.9993  -28.3243   24.1398 H   0  0  0  0  0  0
  -20.5697  -26.2279   23.3623 H   0  0  0  0  0  0
  -21.6634  -26.7418   22.1196 H   0  0  0  0  0  0
  -19.6900  -25.6302   21.1232 H   0  0  0  0  0  0
  -19.6674  -27.3209   20.6781 H   0  0  0  0  0  0
  -17.4206  -26.6701   21.4022 H   0  0  0  0  0  0
  -18.0284  -26.0069   22.9030 H   0  0  0  0  0  0
  -19.7954  -30.7300   24.2198 H   0  0  0  0  0  0
  -17.5022  -31.6245   24.5190 H   0  0  0  0  0  0
  -15.5356  -30.2967   23.7666 H   0  0  0  0  0  0
  -15.8695  -28.0825   22.7034 H   0  0  0  0  0  0
  -24.5901  -30.7081   25.7829 H   0  0  0  0  0  0
  -24.8919  -32.2928   26.4832 H   0  0  0  0  0  0
  -25.8056  -30.8982   27.0262 H   0  0  0  0  0  0
  -26.2930  -29.6720   24.1220 H   0  0  0  0  0  0
  -27.4050  -29.7244   25.4723 H   0  0  0  0  0  0
  -27.8811  -30.4276   23.9441 H   0  0  0  0  0  0
  -27.2641  -33.3653   26.2015 H   0  0  0  0  0  0
  -28.3880  -32.6855   25.0323 H   0  0  0  0  0  0
  -28.0692  -31.8486   26.5458 H   0  0  0  0  0  0
  -28.2592  -38.0091   24.7518 H   0  0  0  0  0  0
  -28.1075  -36.2624   24.6278 H   0  0  0  0  0  0
  -27.2311  -37.1435   25.8879 H   0  0  0  0  0  0
  -20.9399  -29.8780   21.6903 H   0  0  0  0  0  0
  -26.0155  -38.2853   24.1411 H   0  0  0  0  0  0
  -32.9832  -18.9376   18.5992 H   0  0  0  0  0  0
  -32.1266  -16.7444   18.9978 H   0  0  0  0  0  0
  -28.7648  -18.4616   21.1380 H   0  0  0  0  0  0
  -33.2131  -21.1641   19.3234 H   0  0  0  0  0  0
  -31.9973  -21.9937   20.2552 H   0  0  0  0  0  0
  -31.8145  -21.8390   18.4973 H   0  0  0  0  0  0
  -29.9124  -24.1091   20.9767 H   0  0  0  0  0  0
  -28.3724  -23.5735   21.5700 H   0  0  0  0  0  0
  -27.1805  -24.6180   19.8029 H   0  0  0  0  0  0
  -28.5597  -24.8944   18.7896 H   0  0  0  0  0  0
  -29.2228  -21.2216   21.6567 H   0  0  0  0  0  0
  -29.0012  -15.8383   20.7811 H   0  0  0  0  0  0
  1 25  1  0  0  0
  1 30  2  0  0  0
  1 82  1  0  0  0
  2  3  1  0  0  0
  2 25  1  0  0  0
  2 84  1  0  0  0
  2 85  1  0  0  0
  3  4  1  0  0  0
  3 86  1  0  0  0
  3 87  1  0  0  0
  4  5  1  0  0  0
  4 88  1  0  0  0
  4 89  1  0  0  0
  5  6  1  0  0  0
  5 26  1  0  0  0
  5 90  1  0  0  0
  6 25  1  0  0  0
  6 91  1  0  0  0
  6 92  1  0  0  0
  7  8  2  0  0  0
  7 26  1  0  0  0
  7 29  1  0  0  0
  8  9  1  0  0  0
  8 22  1  0  0  0
  9 10  1  0  0  0
  9 27  2  0  0  0
 10 11  2  0  0  0
 10 15  1  0  0  0
 11 12  1  0  0  0
 11 93  1  0  0  0
 12 13  2  0  0  0
 12 94  1  0  0  0
 13 14  1  0  0  0
 13 31  1  0  0  0
 14 15  2  0  0  0
 14 95  1  0  0  0
 15 96  1  0  0  0
 16 17  2  0  0  0
 16 21  1  0  0  0
 16 31  1  0  0  0
 17 18  1  0  0  0
 17 97  1  0  0  0
 18 19  2  0  0  0
 18 98  1  0  0  0
 19 20  1  0  0  0
 19 24  1  0  0  0
 20 21  2  0  0  0
 20 99  1  0  0  0
 21 23  1  0  0  0
 22 28  1  0  0  0
 22 32  2  0  0  0
 26 27  1  0  0  0
 28100  1  0  0  0
 28101  1  0  0  0
 29102  1  0  0  0
 29103  1  0  0  0
 33 34  1  0  0  0
 33 66  1  0  0  0
 33 70  2  0  0  0
 34 36  1  0  0  0
 34 59  1  0  0  0
 34104  1  0  0  0
 35 44  2  0  0  0
 35 45  1  0  0  0
 35 68  1  0  0  0
 36 56  1  0  0  0
 36105  1  0  0  0
 37 39  1  0  0  0
 37 47  1  0  0  0
 37 66  1  0  0  0
 37106  1  0  0  0
 38 43  2  0  0  0
 38 46  1  0  0  0
 38 47  1  0  0  0
 39 64  1  0  0  0
 39 67  2  0  0  0
 40 52  1  0  0  0
 40 53  2  0  0  0
 40 58  1  0  0  0
 41107  1  0  0  0
 41108  1  0  0  0
 41109  1  0  0  0
 41 48  1  0  0  0
 42 43  1  0  0  0
 42 66  1  0  0  0
 42110  1  0  0  0
 42111  1  0  0  0
 43 44  1  0  0  0
 44112  1  0  0  0
 45 46  2  0  0  0
 45113  1  0  0  0
 46114  1  0  0  0
 47115  1  0  0  0
 47116  1  0  0  0
 48 56  1  0  0  0
 48 65  1  0  0  0
 48117  1  0  0  0
 49 50  1  0  0  0
 49 53  1  0  0  0
 49 64  1  0  0  0
 49118  1  0  0  0
 50 51  1  0  0  0
 50119  1  0  0  0
 50120  1  0  0  0
 51 52  1  0  0  0
 51121  1  0  0  0
 51122  1  0  0  0
 52123  1  0  0  0
 52124  1  0  0  0
 53 54  1  0  0  0
 54 55  2  0  0  0
 54125  1  0  0  0
 55 57  1  0  0  0
 55126  1  0  0  0
 56 69  2  0  0  0
 57 58  2  0  0  0
 57127  1  0  0  0
 58128  1  0  0  0
 59 60  1  0  0  0
 59 61  1  0  0  0
 59 62  1  0  0  0
 60129  1  0  0  0
 60130  1  0  0  0
 60131  1  0  0  0
 61132  1  0  0  0
 61133  1  0  0  0
 61134  1  0  0  0
 62135  1  0  0  0
 62136  1  0  0  0
 62137  1  0  0  0
 63 65  1  0  0  0
 63138  1  0  0  0
 63139  1  0  0  0
 63140  1  0  0  0
 64141  1  0  0  0
 65142  1  0  0  0
 68 80  1  0  0  0
 71 72  2  0  0  0
 71 74  1  0  0  0
 71143  1  0  0  0
 72 75  1  0  0  0
 72144  1  0  0  0
 73 75  2  0  0  0
 73 76  1  0  0  0
 73145  1  0  0  0
 74 76  2  0  0  0
 74 78  1  0  0  0
 75 82  1  0  0  0
 76 81  1  0  0  0
 77 79  1  0  0  0
 77 81  1  0  0  0
 77 83  2  0  0  0
 78146  1  0  0  0
 78147  1  0  0  0
 78148  1  0  0  0
 79 80  1  0  0  0
 79149  1  0  0  0
 79150  1  0  0  0
 80151  1  0  0  0
 80152  1  0  0  0
 81153  1  0  0  0
 82154  1  0  0  0
M  ISO  4   1 100  68 101  80 101  82 100
M  END
> <chiral flag>
0

> <version>
0

> <s_m_source_file>
/data/baiqing/PycharmProjects/Reinvent-master-3.2/result/LINK_invent/BTK/process_docking_weight1_custom_sum_contain_oxygen_bond_distance_aromatic_linkinvent_7_9_3/rearranged_h_0006.sdf

> <i_m_source_file_index>
48

> <r_mmod_Potential_Energy-OPLS-2005>
157.177947998047

> <r_mmod_Stretch_Energy-OPLS-2005>
127.791641235352

> <r_mmod_Bend_Energy-OPLS-2005>
164.056900024414

> <r_mmod_Torsional_Energy-OPLS-2005>
252.723739624023

> <r_mmod_Improper_Torsional_Energy-OPLS-2005>
5.17714500427246

> <r_mmod_Van_der_Waal_Energy-OPLS-2005>
155.772583007812

> <r_mmod_Electrostatic_Energy-OPLS-2005>
-403.130828857422

> <r_mmod_Solvation_Energy-OPLS-2005>
-234.143692016602

> <b_mmod_Minimization_Converged-OPLS-2005>
0

> <r_mmod_RMS_Derivative-OPLS-2005>
2.58430528640747

$$$$
48
                    3D
 Structure written by MMmdl.
154162  0  0  1  0            999 V2000
  -30.6229  -14.7465   20.4275 C   0  0  0  0  0  0
  -30.4259  -12.4483   19.4741 C   0  0  0  0  0  0
  -29.5040  -12.4967   18.2366 C   0  0  0  0  0  0
  -28.0320  -12.3241   18.6544 C   0  0  0  0  0  0
  -27.6389  -13.2331   19.8485 C   0  0  2  0  0  0
  -28.6859  -13.1846   20.9826 C   0  0  0  0  0  0
  -25.2498  -13.8204   20.5701 C   0  0  0  0  0  0
  -24.1797  -13.0448   20.9228 C   0  0  0  0  0  0
  -24.6386  -11.6927   20.8764 C   0  0  0  0  0  0
  -23.9067  -10.4297   21.0412 C   0  0  0  0  0  0
  -24.3620   -9.4208   21.9187 C   0  0  0  0  0  0
  -23.6295   -8.2241   22.0752 C   0  0  0  0  0  0
  -22.4278   -8.0277   21.3541 C   0  0  0  0  0  0
  -21.9916   -9.0254   20.4646 C   0  0  0  0  0  0
  -22.7243  -10.2133   20.3058 C   0  0  0  0  0  0
  -21.6855   -6.0730   22.5273 C   0  0  0  0  0  0
  -21.4014   -6.5636   23.8204 C   0  0  0  0  0  0
  -21.3659   -5.6791   24.9171 C   0  0  0  0  0  0
  -21.6045   -4.3054   24.7223 C   0  0  0  0  0  0
  -21.8821   -3.8142   23.4345 C   0  0  0  0  0  0
  -21.9193   -4.6957   22.3400 C   0  0  0  0  0  0
  -22.7817  -13.5226   21.1879 C   0  0  0  0  0  0
  -22.1663   -4.2144   21.0979 F   0  0  0  0  0  0
  -21.5629   -3.4538   25.7735 F   0  0  0  0  0  0
  -29.9868  -13.5246   20.3934 N   0  0  0  0  0  0
  -26.2926  -12.9414   20.3296 N   0  0  0  0  0  0
  -25.9319  -11.6556   20.5785 N   0  0  0  0  0  0
  -22.0467  -12.8199   22.0423 N   0  0  0  0  0  0
  -25.4182  -15.1924   20.4061 N   0  0  0  0  0  0
  -31.8223  -14.7937   20.1470 O   0  0  0  0  0  0
  -21.6640   -6.8875   21.4236 O   0  0  0  0  0  0
  -22.3499  -14.5536   20.6731 O   0  0  0  0  0  0
  -24.6317  -31.8530   23.1970 C   0  0  0  0  0  0
  -25.9139  -32.4730   23.8325 C   0  0  1  0  0  0
  -27.2204  -27.2574   20.1197 C   0  0  0  0  0  0
  -25.5934  -33.8536   24.2249 N   0  0  0  0  0  0
  -23.4284  -30.4783   21.5374 C   0  0  2  0  0  0
  -24.8736  -28.9199   20.1057 C   0  0  0  0  0  0
  -22.7501  -29.4619   22.4877 C   0  0  0  0  0  0
  -18.0300  -28.1392   22.8464 C   0  0  0  0  0  0
  -24.1493  -36.7271   23.2646 C   0  0  0  0  0  0
  -25.9754  -30.7612   21.3800 C   0  0  0  0  0  0
  -26.0433  -29.3855   20.7169 C   0  0  0  0  0  0
  -27.2156  -28.5655   20.7132 C   0  0  0  0  0  0
  -26.0215  -26.8493   19.4942 C   0  0  0  0  0  0
  -24.8681  -27.6601   19.4852 C   0  0  0  0  0  0
  -23.6463  -29.8098   20.1538 C   0  0  0  0  0  0
  -25.4118  -36.3058   24.0340 C   0  0  1  0  0  0
  -20.5907  -28.3715   23.1229 C   0  0  2  0  0  0
  -20.6788  -26.9429   22.5382 C   0  0  0  0  0  0
  -19.5761  -26.6384   21.5188 C   0  0  0  0  0  0
  -18.1941  -26.7929   22.1603 C   0  0  0  0  0  0
  -19.1558  -28.8866   23.2840 C   0  0  0  0  0  0
  -18.9488  -30.1459   23.8875 C   0  0  0  0  0  0
  -17.6495  -30.6588   24.0566 C   0  0  0  0  0  0
  -25.9062  -34.9426   23.5097 C   0  0  0  0  0  0
  -16.5382  -29.9091   23.6339 C   0  0  0  0  0  0
  -16.7293  -28.6509   23.0350 C   0  0  0  0  0  0
  -26.4500  -31.6568   25.0728 C   0  0  0  0  0  0
  -25.3731  -31.3718   26.1460 C   0  0  0  0  0  0
  -27.0371  -30.2990   24.6235 C   0  0  0  0  0  0
  -27.6043  -32.4338   25.7495 C   0  0  0  0  0  0
  -27.5580  -37.1789   24.8471 C   0  0  0  0  0  0
  -21.4215  -29.3053   22.3605 N   0  0  0  0  0  0
  -26.4288  -37.3761   23.9420 N   0  0  0  0  0  0
  -24.6971  -31.0508   22.0931 N   0  0  0  0  0  0
  -23.4193  -28.8165   23.2993 O   0  0  0  0  0  0
  -28.3407  -26.3994   20.2045 O   0  0  0  0  0  0
  -26.5633  -34.8904   22.4668 O   0  0  0  0  0  0
  -23.5468  -32.1353   23.7272 O   0  0  0  0  0  0
  -31.7197  -19.1131   19.6022 C   0  0  0  0  0  0
  -30.7936  -20.1422   19.8506 C   0  0  0  0  0  0
  -31.4028  -17.7590   19.8357 C   0  0  0  0  0  0
  -29.5093  -19.8583   20.3478 C   0  0  0  0  0  0
  -29.2040  -18.4468   20.6087 C   0  0  0  0  0  0
  -30.1460  -17.3544   20.3520 C   0  0  0  0  0  0
  -28.3165  -23.7247   20.4668 C   0  0  0  0  0  0
  -27.8385  -18.1072   21.1872 C   0  0  0  0  0  0
  -28.5400  -21.0987   20.6290 C   0  0  0  0  0  0
  -28.4387  -25.0429   19.5599 C   0  0  0  0  0  0
  -29.8528  -15.9008   20.5788 N   0  0  0  0  0  0
  -28.7820  -22.4887   20.0328 N   0  0  0  0  0  0
  -27.7550  -23.8181   21.5600 O   0  0  0  0  0  0
  -31.4673  -12.5589   19.1679 H   0  0  0  0  0  0
  -30.3621  -11.4775   19.9681 H   0  0  0  0  0  0
  -29.7840  -11.7177   17.5263 H   0  0  0  0  0  0
  -29.6304  -13.4477   17.7170 H   0  0  0  0  0  0
  -27.8924  -11.2775   18.9273 H   0  0  0  0  0  0
  -27.3725  -12.5069   17.8056 H   0  0  0  0  0  0
  -27.6295  -14.2509   19.4586 H   0  0  0  0  0  0
  -28.7200  -12.1958   21.4425 H   0  0  0  0  0  0
  -28.4257  -13.8835   21.7789 H   0  0  0  0  0  0
  -25.2761   -9.5683   22.4768 H   0  0  0  0  0  0
  -24.0003   -7.4630   22.7467 H   0  0  0  0  0  0
  -21.0849   -8.8776   19.8944 H   0  0  0  0  0  0
  -22.3704  -10.9676   19.6170 H   0  0  0  0  0  0
  -21.2006   -7.6144   23.9710 H   0  0  0  0  0  0
  -21.1480   -6.0520   25.9075 H   0  0  0  0  0  0
  -22.0599   -2.7603   23.2847 H   0  0  0  0  0  0
  -22.4094  -11.9851   22.4784 H   0  0  0  0  0  0
  -21.1085  -13.1204   22.2647 H   0  0  0  0  0  0
  -24.6432  -15.8403   20.4975 H   0  0  0  0  0  0
  -26.2468  -15.6201   20.0152 H   0  0  0  0  0  0
  -26.7205  -32.5366   23.1062 H   0  0  0  0  0  0
  -25.0091  -33.9652   25.0405 H   0  0  0  0  0  0
  -22.7267  -31.3020   21.3889 H   0  0  0  0  0  0
  -23.3760  -35.9594   23.3292 H   0  0  0  0  0  0
  -24.3592  -36.8907   22.2063 H   0  0  0  0  0  0
  -23.7228  -37.6464   23.6676 H   0  0  0  0  0  0
  -26.1302  -31.5237   20.6160 H   0  0  0  0  0  0
  -26.8468  -30.7989   22.0222 H   0  0  0  0  0  0
  -28.1114  -28.9157   21.2064 H   0  0  0  0  0  0
  -25.9290  -25.8765   19.0370 H   0  0  0  0  0  0
  -23.9699  -27.2920   19.0090 H   0  0  0  0  0  0
  -23.7737  -30.5840   19.3967 H   0  0  0  0  0  0
  -22.7634  -29.2471   19.8467 H   0  0  0  0  0  0
  -25.1290  -36.1913   25.0833 H   0  0  0  0  0  0
  -21.0011  -28.3315   24.1347 H   0  0  0  0  0  0
  -20.5686  -26.2337   23.3597 H   0  0  0  0  0  0
  -21.6655  -26.7445   22.1177 H   0  0  0  0  0  0
  -19.6936  -25.6289   21.1224 H   0  0  0  0  0  0
  -19.6700  -27.3181   20.6707 H   0  0  0  0  0  0
  -17.4209  -26.6671   21.4007 H   0  0  0  0  0  0
  -18.0360  -26.0066   22.8999 H   0  0  0  0  0  0
  -19.7977  -30.7262   24.2235 H   0  0  0  0  0  0
  -17.5066  -31.6265   24.5174 H   0  0  0  0  0  0
  -15.5386  -30.2998   23.7677 H   0  0  0  0  0  0
  -15.8686  -28.0830   22.7085 H   0  0  0  0  0  0
  -24.5912  -30.7052   25.7805 H   0  0  0  0  0  0
  -24.8911  -32.2879   26.4882 H   0  0  0  0  0  0
  -25.8055  -30.8911   27.0246 H   0  0  0  0  0  0
  -26.2963  -29.6713   24.1271 H   0  0  0  0  0  0
  -27.4071  -29.7279   25.4760 H   0  0  0  0  0  0
  -27.8828  -30.4269   23.9478 H   0  0  0  0  0  0
  -27.2638  -33.3658   26.2020 H   0  0  0  0  0  0
  -28.3862  -32.6874   25.0324 H   0  0  0  0  0  0
  -28.0700  -31.8510   26.5451 H   0  0  0  0  0  0
  -28.2588  -38.0094   24.7521 H   0  0  0  0  0  0
  -28.1084  -36.2623   24.6290 H   0  0  0  0  0  0
  -27.2301  -37.1432   25.8874 H   0  0  0  0  0  0
  -20.9421  -29.8773   21.6790 H   0  0  0  0  0  0
  -26.0171  -38.2840   24.1407 H   0  0  0  0  0  0
  -32.7007  -19.3692   19.2256 H   0  0  0  0  0  0
  -31.0868  -21.1665   19.6671 H   0  0  0  0  0  0
  -32.1755  -17.0453   19.5992 H   0  0  0  0  0  0
  -27.5446  -18.8379   21.9406 H   0  0  0  0  0  0
  -27.8262  -17.1343   21.6774 H   0  0  0  0  0  0
  -27.0812  -18.1021   20.4029 H   0  0  0  0  0  0
  -28.4770  -21.2059   21.7126 H   0  0  0  0  0  0
  -27.5400  -20.8030   20.3104 H   0  0  0  0  0  0
  -27.7768  -24.9486   18.7019 H   0  0  0  0  0  0
  -29.4366  -25.0060   19.1233 H   0  0  0  0  0  0
  -28.8953  -15.6993   20.8179 H   0  0  0  0  0  0
  -29.2324  -22.4945   19.1274 H   0  0  0  0  0  0
  1 25  1  0  0  0
  1 30  2  0  0  0
  1 81  1  0  0  0
  2  3  1  0  0  0
  2 25  1  0  0  0
  2 84  1  0  0  0
  2 85  1  0  0  0
  3  4  1  0  0  0
  3 86  1  0  0  0
  3 87  1  0  0  0
  4  5  1  0  0  0
  4 88  1  0  0  0
  4 89  1  0  0  0
  5  6  1  0  0  0
  5 26  1  0  0  0
  5 90  1  0  0  0
  6 25  1  0  0  0
  6 91  1  0  0  0
  6 92  1  0  0  0
  7  8  2  0  0  0
  7 26  1  0  0  0
  7 29  1  0  0  0
  8  9  1  0  0  0
  8 22  1  0  0  0
  9 10  1  0  0  0
  9 27  2  0  0  0
 10 11  2  0  0  0
 10 15  1  0  0  0
 11 12  1  0  0  0
 11 93  1  0  0  0
 12 13  2  0  0  0
 12 94  1  0  0  0
 13 14  1  0  0  0
 13 31  1  0  0  0
 14 15  2  0  0  0
 14 95  1  0  0  0
 15 96  1  0  0  0
 16 17  2  0  0  0
 16 21  1  0  0  0
 16 31  1  0  0  0
 17 18  1  0  0  0
 17 97  1  0  0  0
 18 19  2  0  0  0
 18 98  1  0  0  0
 19 20  1  0  0  0
 19 24  1  0  0  0
 20 21  2  0  0  0
 20 99  1  0  0  0
 21 23  1  0  0  0
 22 28  1  0  0  0
 22 32  2  0  0  0
 26 27  1  0  0  0
 28100  1  0  0  0
 28101  1  0  0  0
 29102  1  0  0  0
 29103  1  0  0  0
 33 34  1  0  0  0
 33 66  1  0  0  0
 33 70  2  0  0  0
 34 36  1  0  0  0
 34 59  1  0  0  0
 34104  1  0  0  0
 35 44  2  0  0  0
 35 45  1  0  0  0
 35 68  1  0  0  0
 36 56  1  0  0  0
 36105  1  0  0  0
 37 39  1  0  0  0
 37 47  1  0  0  0
 37 66  1  0  0  0
 37106  1  0  0  0
 38 43  2  0  0  0
 38 46  1  0  0  0
 38 47  1  0  0  0
 39 64  1  0  0  0
 39 67  2  0  0  0
 40 52  1  0  0  0
 40 53  2  0  0  0
 40 58  1  0  0  0
 41107  1  0  0  0
 41108  1  0  0  0
 41109  1  0  0  0
 41 48  1  0  0  0
 42 43  1  0  0  0
 42 66  1  0  0  0
 42110  1  0  0  0
 42111  1  0  0  0
 43 44  1  0  0  0
 44112  1  0  0  0
 45 46  2  0  0  0
 45113  1  0  0  0
 46114  1  0  0  0
 47115  1  0  0  0
 47116  1  0  0  0
 48 56  1  0  0  0
 48 65  1  0  0  0
 48117  1  0  0  0
 49 50  1  0  0  0
 49 53  1  0  0  0
 49 64  1  0  0  0
 49118  1  0  0  0
 50 51  1  0  0  0
 50119  1  0  0  0
 50120  1  0  0  0
 51 52  1  0  0  0
 51121  1  0  0  0
 51122  1  0  0  0
 52123  1  0  0  0
 52124  1  0  0  0
 53 54  1  0  0  0
 54 55  2  0  0  0
 54125  1  0  0  0
 55 57  1  0  0  0
 55126  1  0  0  0
 56 69  2  0  0  0
 57 58  2  0  0  0
 57127  1  0  0  0
 58128  1  0  0  0
 59 60  1  0  0  0
 59 61  1  0  0  0
 59 62  1  0  0  0
 60129  1  0  0  0
 60130  1  0  0  0
 60131  1  0  0  0
 61132  1  0  0  0
 61133  1  0  0  0
 61134  1  0  0  0
 62135  1  0  0  0
 62136  1  0  0  0
 62137  1  0  0  0
 63 65  1  0  0  0
 63138  1  0  0  0
 63139  1  0  0  0
 63140  1  0  0  0
 64141  1  0  0  0
 65142  1  0  0  0
 68 80  1  0  0  0
 71 72  2  0  0  0
 71 73  1  0  0  0
 71143  1  0  0  0
 72 74  1  0  0  0
 72144  1  0  0  0
 73 76  2  0  0  0
 73145  1  0  0  0
 74 75  2  0  0  0
 74 79  1  0  0  0
 75 76  1  0  0  0
 75 78  1  0  0  0
 76 81  1  0  0  0
 77 80  1  0  0  0
 77 82  1  0  0  0
 77 83  2  0  0  0
 78146  1  0  0  0
 78147  1  0  0  0
 78148  1  0  0  0
 79 82  1  0  0  0
 79149  1  0  0  0
 79150  1  0  0  0
 80151  1  0  0  0
 80152  1  0  0  0
 81153  1  0  0  0
 82154  1  0  0  0
M  ISO  4   1 100  68 101  80 101  81 100
M  END
> <chiral flag>
0

> <version>
0

> <s_m_source_file>
/data/baiqing/PycharmProjects/Reinvent-master-3.2/result/LINK_invent/BTK/process_docking_weight1_custom_sum_contain_oxygen_bond_distance_aromatic_linkinvent_7_9_3/rearranged_h_0006.sdf

> <i_m_source_file_index>
49

> <r_mmod_Potential_Energy-OPLS-2005>
69.156135559082

> <r_mmod_Stretch_Energy-OPLS-2005>
130.121948242188

> <r_mmod_Bend_Energy-OPLS-2005>
169.58366394043

> <r_mmod_Torsional_Energy-OPLS-2005>
204.204071044922

> <r_mmod_Improper_Torsional_Energy-OPLS-2005>
5.20302295684814

> <r_mmod_Van_der_Waal_Energy-OPLS-2005>
140.157577514648

> <r_mmod_Electrostatic_Energy-OPLS-2005>
-420.117126464844

> <r_mmod_Solvation_Energy-OPLS-2005>
-246.169830322266

> <b_mmod_Minimization_Converged-OPLS-2005>
0

> <r_mmod_RMS_Derivative-OPLS-2005>
1.53939998149872

$$$$
49
                    3D
 Structure written by MMmdl.
173181  0  0  1  0            999 V2000
  -30.5674  -14.7805   20.4378 C   0  0  0  0  0  0
  -30.4479  -12.4754   19.4528 C   0  0  0  0  0  0
  -29.5118  -12.4937   18.2227 C   0  0  0  0  0  0
  -28.0394  -12.3097   18.6488 C   0  0  0  0  0  0
  -27.6395  -13.2222   19.8401 C   0  0  2  0  0  0
  -28.6920  -13.1703   20.9684 C   0  0  0  0  0  0
  -25.2528  -13.8165   20.5682 C   0  0  0  0  0  0
  -24.1826  -13.0428   20.9203 C   0  0  0  0  0  0
  -24.6407  -11.6897   20.8749 C   0  0  0  0  0  0
  -23.9077  -10.4284   21.0413 C   0  0  0  0  0  0
  -24.3628   -9.4195   21.9186 C   0  0  0  0  0  0
  -23.6297   -8.2237   22.0759 C   0  0  0  0  0  0
  -22.4276   -8.0282   21.3550 C   0  0  0  0  0  0
  -21.9914   -9.0255   20.4654 C   0  0  0  0  0  0
  -22.7249  -10.2129   20.3058 C   0  0  0  0  0  0
  -21.6849   -6.0737   22.5283 C   0  0  0  0  0  0
  -21.4018   -6.5640   23.8220 C   0  0  0  0  0  0
  -21.3652   -5.6793   24.9180 C   0  0  0  0  0  0
  -21.6042   -4.3057   24.7230 C   0  0  0  0  0  0
  -21.8818   -3.8149   23.4351 C   0  0  0  0  0  0
  -21.9197   -4.6966   22.3409 C   0  0  0  0  0  0
  -22.7850  -13.5214   21.1867 C   0  0  0  0  0  0
  -22.1664   -4.2149   21.0987 F   0  0  0  0  0  0
  -21.5622   -3.4542   25.7743 F   0  0  0  0  0  0
  -29.9809  -13.5368   20.3689 N   0  0  0  0  0  0
  -26.2942  -12.9357   20.3261 N   0  0  0  0  0  0
  -25.9331  -11.6507   20.5748 N   0  0  0  0  0  0
  -22.0500  -12.8208   22.0423 N   0  0  0  0  0  0
  -25.4199  -15.1896   20.4083 N   0  0  0  0  0  0
  -31.7794  -14.9062   20.2423 O   0  0  0  0  0  0
  -21.6640   -6.8878   21.4245 O   0  0  0  0  0  0
  -22.3531  -14.5510   20.6696 O   0  0  0  0  0  0
  -24.6315  -31.8567   23.2006 C   0  0  0  0  0  0
  -25.9161  -32.4755   23.8329 C   0  0  1  0  0  0
  -27.2224  -27.2649   20.1325 C   0  0  0  0  0  0
  -25.5979  -33.8552   24.2249 N   0  0  0  0  0  0
  -23.4292  -30.4821   21.5405 C   0  0  2  0  0  0
  -24.8767  -28.9282   20.1133 C   0  0  0  0  0  0
  -22.7508  -29.4619   22.4876 C   0  0  0  0  0  0
  -18.0298  -28.1387   22.8456 C   0  0  0  0  0  0
  -24.1508  -36.7284   23.2645 C   0  0  0  0  0  0
  -25.9751  -30.7697   21.3818 C   0  0  0  0  0  0
  -26.0487  -29.3922   20.7248 C   0  0  0  0  0  0
  -27.2248  -28.5754   20.7206 C   0  0  0  0  0  0
  -26.0272  -26.8701   19.4894 C   0  0  0  0  0  0
  -24.8710  -27.6734   19.4855 C   0  0  0  0  0  0
  -23.6507  -29.8194   20.1563 C   0  0  0  0  0  0
  -25.4134  -36.3058   24.0317 C   0  0  1  0  0  0
  -20.5906  -28.3723   23.1251 C   0  0  2  0  0  0
  -20.6806  -26.9443   22.5408 C   0  0  0  0  0  0
  -19.5789  -26.6384   21.5206 C   0  0  0  0  0  0
  -18.1955  -26.7925   22.1595 C   0  0  0  0  0  0
  -19.1554  -28.8861   23.2845 C   0  0  0  0  0  0
  -18.9493  -30.1458   23.8874 C   0  0  0  0  0  0
  -17.6503  -30.6590   24.0563 C   0  0  0  0  0  0
  -25.9078  -34.9425   23.5082 C   0  0  0  0  0  0
  -16.5390  -29.9107   23.6328 C   0  0  0  0  0  0
  -16.7285  -28.6528   23.0327 C   0  0  0  0  0  0
  -26.4529  -31.6579   25.0712 C   0  0  0  0  0  0
  -25.3746  -31.3752   26.1436 C   0  0  0  0  0  0
  -27.0409  -30.3000   24.6205 C   0  0  0  0  0  0
  -27.6068  -32.4338   25.7482 C   0  0  0  0  0  0
  -27.5580  -37.1804   24.8457 C   0  0  0  0  0  0
  -21.4215  -29.3074   22.3630 N   0  0  0  0  0  0
  -26.4296  -37.3764   23.9395 N   0  0  0  0  0  0
  -24.6975  -31.0538   22.0977 N   0  0  0  0  0  0
  -23.4200  -28.8155   23.2983 O   0  0  0  0  0  0
  -28.3275  -26.3814   20.1518 O   0  0  0  0  0  0
  -26.5625  -34.8890   22.4638 O   0  0  0  0  0  0
  -23.5465  -32.1398   23.7295 O   0  0  0  0  0  0
  -29.7437  -18.5015   20.1494 C   0  0  0  0  0  0
  -29.1386  -19.8032   22.1164 C   0  0  0  0  0  0
  -29.3325  -17.3505   22.2512 C   0  0  0  0  0  0
  -29.4695  -19.8093   20.7459 C   0  0  0  0  0  0
  -29.6930  -17.2445   20.8917 C   0  0  0  0  0  0
  -29.0467  -18.6006   22.8528 C   0  0  0  0  0  0
  -29.5835  -21.1861   20.0143 C   0  0  0  0  0  0
  -27.4064  -18.2304   24.5831 C   0  0  0  0  0  0
  -25.5092  -17.8851   26.3020 C   0  0  0  0  0  0
  -31.8388  -19.1081   26.3191 C   0  0  0  0  0  0
  -26.9489  -18.3663   26.0453 C   0  0  0  0  0  0
  -30.8409  -18.4380   25.3704 C   0  0  0  0  0  0
  -29.5915  -19.3062   25.1456 C   0  0  0  0  0  0
  -28.1108  -24.9090   20.4096 C   0  0  0  0  0  0
  -29.2759  -23.8020   20.1619 C   0  0  1  0  0  0
  -30.5526  -24.2276   20.9279 C   0  0  0  0  0  0
  -29.7067  -15.8680   20.3334 N   0  0  0  0  0  0
  -28.9801  -22.3333   20.5083 N   0  0  0  0  0  0
  -28.6449  -18.6647   24.2188 N   0  0  0  0  0  0
  -30.2521  -21.2385   18.9813 O   0  0  0  0  0  0
  -26.6195  -17.7293   23.7708 O   0  0  0  0  0  0
  -31.5601  -23.3818   20.7117 F   0  0  0  0  0  0
  -30.9584  -25.4363   20.5411 F   0  0  0  0  0  0
  -30.3087  -24.2543   22.2407 F   0  0  0  0  0  0
  -31.4823  -12.6320   19.1414 H   0  0  0  0  0  0
  -30.4215  -11.5022   19.9455 H   0  0  0  0  0  0
  -29.7964  -11.7081   17.5203 H   0  0  0  0  0  0
  -29.6254  -13.4377   17.6867 H   0  0  0  0  0  0
  -27.9099  -11.2629   18.9315 H   0  0  0  0  0  0
  -27.3738  -12.4790   17.8012 H   0  0  0  0  0  0
  -27.6236  -14.2358   19.4422 H   0  0  0  0  0  0
  -28.7431  -12.1758   21.4137 H   0  0  0  0  0  0
  -28.4288  -13.8575   21.7741 H   0  0  0  0  0  0
  -25.2771   -9.5664   22.4763 H   0  0  0  0  0  0
  -23.9998   -7.4626   22.7473 H   0  0  0  0  0  0
  -21.0851   -8.8785   19.8959 H   0  0  0  0  0  0
  -22.3718  -10.9675   19.6169 H   0  0  0  0  0  0
  -21.2011   -7.6149   23.9722 H   0  0  0  0  0  0
  -21.1472   -6.0525   25.9083 H   0  0  0  0  0  0
  -22.0601   -2.7611   23.2860 H   0  0  0  0  0  0
  -22.4124  -11.9865   22.4800 H   0  0  0  0  0  0
  -21.1121  -13.1242   22.2644 H   0  0  0  0  0  0
  -24.6510  -15.8361   20.5418 H   0  0  0  0  0  0
  -26.2654  -15.6469   20.0970 H   0  0  0  0  0  0
  -26.7214  -32.5389   23.1061 H   0  0  0  0  0  0
  -25.0160  -33.9679   25.0417 H   0  0  0  0  0  0
  -22.7256  -31.3036   21.3942 H   0  0  0  0  0  0
  -23.3756  -35.9634   23.3301 H   0  0  0  0  0  0
  -24.3629  -36.8923   22.2069 H   0  0  0  0  0  0
  -23.7263  -37.6480   23.6683 H   0  0  0  0  0  0
  -26.1175  -31.5340   20.6161 H   0  0  0  0  0  0
  -26.8498  -30.8203   22.0178 H   0  0  0  0  0  0
  -28.1237  -28.9310   21.2074 H   0  0  0  0  0  0
  -25.9623  -25.9257   18.9719 H   0  0  0  0  0  0
  -23.9782  -27.3151   18.9924 H   0  0  0  0  0  0
  -23.7858  -30.5982   19.4048 H   0  0  0  0  0  0
  -22.7666  -29.2607   19.8426 H   0  0  0  0  0  0
  -25.1326  -36.1909   25.0805 H   0  0  0  0  0  0
  -20.9984  -28.3326   24.1374 H   0  0  0  0  0  0
  -20.5755  -26.2337   23.3624 H   0  0  0  0  0  0
  -21.6676  -26.7501   22.1191 H   0  0  0  0  0  0
  -19.6993  -25.6289   21.1254 H   0  0  0  0  0  0
  -19.6729  -27.3170   20.6713 H   0  0  0  0  0  0
  -17.4243  -26.6658   21.3981 H   0  0  0  0  0  0
  -18.0359  -26.0060   22.8982 H   0  0  0  0  0  0
  -19.7987  -30.7249   24.2235 H   0  0  0  0  0  0
  -17.5083  -31.6256   24.5198 H   0  0  0  0  0  0
  -15.5400  -30.3023   23.7651 H   0  0  0  0  0  0
  -15.8676  -28.0858   22.7038 H   0  0  0  0  0  0
  -24.5905  -30.7125   25.7775 H   0  0  0  0  0  0
  -24.8971  -32.2942   26.4831 H   0  0  0  0  0  0
  -25.8070  -30.8942   27.0225 H   0  0  0  0  0  0
  -26.3023  -29.6701   24.1247 H   0  0  0  0  0  0
  -27.4138  -29.7300   25.4725 H   0  0  0  0  0  0
  -27.8860  -30.4289   23.9444 H   0  0  0  0  0  0
  -27.2676  -33.3661   26.2012 H   0  0  0  0  0  0
  -28.3910  -32.6880   25.0338 H   0  0  0  0  0  0
  -28.0709  -31.8500   26.5444 H   0  0  0  0  0  0
  -28.2586  -38.0111   24.7509 H   0  0  0  0  0  0
  -28.1088  -36.2636   24.6291 H   0  0  0  0  0  0
  -27.2295  -37.1459   25.8859 H   0  0  0  0  0  0
  -20.9405  -29.8803   21.6831 H   0  0  0  0  0  0
  -26.0164  -38.2832   24.1413 H   0  0  0  0  0  0
  -29.9778  -18.4681   19.0950 H   0  0  0  0  0  0
  -28.9330  -20.7375   22.6207 H   0  0  0  0  0  0
  -29.2173  -16.4508   22.8416 H   0  0  0  0  0  0
  -25.2603  -17.9586   27.3616 H   0  0  0  0  0  0
  -25.3754  -16.8457   25.9996 H   0  0  0  0  0  0
  -24.7890  -18.4908   25.7495 H   0  0  0  0  0  0
  -32.7322  -18.4953   26.4440 H   0  0  0  0  0  0
  -31.3991  -19.2565   27.3060 H   0  0  0  0  0  0
  -32.1493  -20.0840   25.9405 H   0  0  0  0  0  0
  -27.0107  -19.4129   26.3418 H   0  0  0  0  0  0
  -27.6354  -17.8048   26.6781 H   0  0  0  0  0  0
  -30.5533  -17.4661   25.7739 H   0  0  0  0  0  0
  -31.3340  -18.2408   24.4180 H   0  0  0  0  0  0
  -29.8907  -20.2692   24.7315 H   0  0  0  0  0  0
  -29.1619  -19.5477   26.1147 H   0  0  0  0  0  0
  -27.2444  -24.5520   19.8592 H   0  0  0  0  0  0
  -27.8168  -24.8409   21.4575 H   0  0  0  0  0  0
  -29.5096  -23.8359   19.0967 H   0  0  0  0  0  0
  -28.7738  -15.5369   20.1438 H   0  0  0  0  0  0
  -28.4025  -22.2024   21.3244 H   0  0  0  0  0  0
  1 25  1  0  0  0
  1 30  2  0  0  0
  1 87  1  0  0  0
  2  3  1  0  0  0
  2 25  1  0  0  0
  2 95  1  0  0  0
  2 96  1  0  0  0
  3  4  1  0  0  0
  3 97  1  0  0  0
  3 98  1  0  0  0
  4  5  1  0  0  0
  4 99  1  0  0  0
  4100  1  0  0  0
  5  6  1  0  0  0
  5 26  1  0  0  0
  5101  1  0  0  0
  6 25  1  0  0  0
  6102  1  0  0  0
  6103  1  0  0  0
  7  8  2  0  0  0
  7 26  1  0  0  0
  7 29  1  0  0  0
  8  9  1  0  0  0
  8 22  1  0  0  0
  9 10  1  0  0  0
  9 27  2  0  0  0
 10 11  2  0  0  0
 10 15  1  0  0  0
 11 12  1  0  0  0
 11104  1  0  0  0
 12 13  2  0  0  0
 12105  1  0  0  0
 13 14  1  0  0  0
 13 31  1  0  0  0
 14 15  2  0  0  0
 14106  1  0  0  0
 15107  1  0  0  0
 16 17  2  0  0  0
 16 21  1  0  0  0
 16 31  1  0  0  0
 17 18  1  0  0  0
 17108  1  0  0  0
 18 19  2  0  0  0
 18109  1  0  0  0
 19 20  1  0  0  0
 19 24  1  0  0  0
 20 21  2  0  0  0
 20110  1  0  0  0
 21 23  1  0  0  0
 22 28  1  0  0  0
 22 32  2  0  0  0
 26 27  1  0  0  0
 28111  1  0  0  0
 28112  1  0  0  0
 29113  1  0  0  0
 29114  1  0  0  0
 33 34  1  0  0  0
 33 66  1  0  0  0
 33 70  2  0  0  0
 34 36  1  0  0  0
 34 59  1  0  0  0
 34115  1  0  0  0
 35 44  2  0  0  0
 35 45  1  0  0  0
 35 68  1  0  0  0
 36 56  1  0  0  0
 36116  1  0  0  0
 37 39  1  0  0  0
 37 47  1  0  0  0
 37 66  1  0  0  0
 37117  1  0  0  0
 38 43  2  0  0  0
 38 46  1  0  0  0
 38 47  1  0  0  0
 39 64  1  0  0  0
 39 67  2  0  0  0
 40 52  1  0  0  0
 40 53  2  0  0  0
 40 58  1  0  0  0
 41118  1  0  0  0
 41119  1  0  0  0
 41120  1  0  0  0
 41 48  1  0  0  0
 42 43  1  0  0  0
 42 66  1  0  0  0
 42121  1  0  0  0
 42122  1  0  0  0
 43 44  1  0  0  0
 44123  1  0  0  0
 45 46  2  0  0  0
 45124  1  0  0  0
 46125  1  0  0  0
 47126  1  0  0  0
 47127  1  0  0  0
 48 56  1  0  0  0
 48 65  1  0  0  0
 48128  1  0  0  0
 49 50  1  0  0  0
 49 53  1  0  0  0
 49 64  1  0  0  0
 49129  1  0  0  0
 50 51  1  0  0  0
 50130  1  0  0  0
 50131  1  0  0  0
 51 52  1  0  0  0
 51132  1  0  0  0
 51133  1  0  0  0
 52134  1  0  0  0
 52135  1  0  0  0
 53 54  1  0  0  0
 54 55  2  0  0  0
 54136  1  0  0  0
 55 57  1  0  0  0
 55137  1  0  0  0
 56 69  2  0  0  0
 57 58  2  0  0  0
 57138  1  0  0  0
 58139  1  0  0  0
 59 60  1  0  0  0
 59 61  1  0  0  0
 59 62  1  0  0  0
 60140  1  0  0  0
 60141  1  0  0  0
 60142  1  0  0  0
 61143  1  0  0  0
 61144  1  0  0  0
 61145  1  0  0  0
 62146  1  0  0  0
 62147  1  0  0  0
 62148  1  0  0  0
 63 65  1  0  0  0
 63149  1  0  0  0
 63150  1  0  0  0
 63151  1  0  0  0
 64152  1  0  0  0
 65153  1  0  0  0
 68 84  1  0  0  0
 71 74  2  0  0  0
 71 75  1  0  0  0
 71154  1  0  0  0
 72 74  1  0  0  0
 72 76  2  0  0  0
 72155  1  0  0  0
 73 75  2  0  0  0
 73 76  1  0  0  0
 73156  1  0  0  0
 74 77  1  0  0  0
 75 87  1  0  0  0
 76 89  1  0  0  0
 77 88  1  0  0  0
 77 90  2  0  0  0
 78 81  1  0  0  0
 78 89  1  0  0  0
 78 91  2  0  0  0
 79 81  1  0  0  0
 79157  1  0  0  0
 79158  1  0  0  0
 79159  1  0  0  0
 80 82  1  0  0  0
 80160  1  0  0  0
 80161  1  0  0  0
 80162  1  0  0  0
 81163  1  0  0  0
 81164  1  0  0  0
 82 83  1  0  0  0
 82165  1  0  0  0
 82166  1  0  0  0
 83 89  1  0  0  0
 83167  1  0  0  0
 83168  1  0  0  0
 84169  1  0  0  0
 84170  1  0  0  0
 84 85  1  0  0  0
 85 86  1  0  0  0
 85 88  1  0  0  0
 85171  1  0  0  0
 86 92  1  0  0  0
 86 93  1  0  0  0
 86 94  1  0  0  0
 87172  1  0  0  0
 88173  1  0  0  0
M  ISO  4   1 100  68 101  84 101  87 100
M  END
> <chiral flag>
0

> <version>
0

> <s_m_source_file>
/data/baiqing/PycharmProjects/Reinvent-master-3.2/result/LINK_invent/BTK/process_docking_weight1_custom_sum_contain_oxygen_bond_distance_aromatic_linkinvent_7_9_3/rearranged_h_0006.sdf

> <i_m_source_file_index>
50

> <r_mmod_Potential_Energy-OPLS-2005>
196.864242553711

> <r_mmod_Stretch_Energy-OPLS-2005>
128.864929199219

> <r_mmod_Bend_Energy-OPLS-2005>
170.049392700195

> <r_mmod_Torsional_Energy-OPLS-2005>
347.269714355469

> <r_mmod_Improper_Torsional_Energy-OPLS-2005>
14.7232246398926

> <r_mmod_Van_der_Waal_Energy-OPLS-2005>
143.514450073242

> <r_mmod_Electrostatic_Energy-OPLS-2005>
-459.243194580078

> <r_mmod_Solvation_Energy-OPLS-2005>
-244.886276245117

> <b_mmod_Minimization_Converged-OPLS-2005>
0

> <r_mmod_RMS_Derivative-OPLS-2005>
2.68688440322876

$$$$
50
                    3D
 Structure written by MMmdl.
206213  0  0  1  0            999 V2000
  -30.8438  -14.2661   20.7666 C   0  0  0  0  0  0
  -30.4191  -12.2727   19.3848 C   0  0  0  0  0  0
  -29.4839  -12.5129   18.1903 C   0  0  0  0  0  0
  -28.0145  -12.3492   18.6159 C   0  0  0  0  0  0
  -27.6669  -13.1960   19.8634 C   0  0  2  0  0  0
  -28.7005  -12.9781   20.9876 C   0  0  0  0  0  0
  -25.2647  -13.8139   20.5665 C   0  0  0  0  0  0
  -24.1864  -13.0452   20.9180 C   0  0  0  0  0  0
  -24.6385  -11.6920   20.8728 C   0  0  0  0  0  0
  -23.9055  -10.4323   21.0404 C   0  0  0  0  0  0
  -24.3629   -9.4243   21.9165 C   0  0  0  0  0  0
  -23.6292   -8.2300   22.0769 C   0  0  0  0  0  0
  -22.4287   -8.0306   21.3532 C   0  0  0  0  0  0
  -21.9903   -9.0287   20.4630 C   0  0  0  0  0  0
  -22.7219  -10.2172   20.3046 C   0  0  0  0  0  0
  -21.6885   -6.0750   22.5301 C   0  0  0  0  0  0
  -21.4061   -6.5656   23.8229 C   0  0  0  0  0  0
  -21.3636   -5.6798   24.9176 C   0  0  0  0  0  0
  -21.6018   -4.3065   24.7245 C   0  0  0  0  0  0
  -21.8835   -3.8154   23.4351 C   0  0  0  0  0  0
  -21.9222   -4.6970   22.3409 C   0  0  0  0  0  0
  -22.7895  -13.5282   21.1819 C   0  0  0  0  0  0
  -22.1689   -4.2154   21.0984 F   0  0  0  0  0  0
  -21.5590   -3.4556   25.7746 F   0  0  0  0  0  0
  -30.0666  -13.1959   20.4725 N   0  0  0  0  0  0
  -26.3052  -12.9290   20.3296 N   0  0  0  0  0  0
  -25.9303  -11.6455   20.5716 N   0  0  0  0  0  0
  -22.0481  -12.8257   22.0337 N   0  0  0  0  0  0
  -25.4365  -15.1840   20.4099 N   0  0  0  0  0  0
  -31.7108  -14.7179   20.0165 O   0  0  0  0  0  0
  -21.6645   -6.8901   21.4262 O   0  0  0  0  0  0
  -22.3612  -14.5596   20.6672 O   0  0  0  0  0  0
  -24.6079  -31.8711   23.2124 C   0  0  0  0  0  0
  -25.8990  -32.4843   23.8419 C   0  0  1  0  0  0
  -27.2434  -27.4902   20.0743 C   0  0  0  0  0  0
  -25.5867  -33.8640   24.2358 N   0  0  0  0  0  0
  -23.3956  -30.4928   21.5503 C   0  0  2  0  0  0
  -24.8441  -28.9550   20.1233 C   0  0  0  0  0  0
  -22.7377  -29.4674   22.4999 C   0  0  0  0  0  0
  -18.0262  -28.1373   22.8488 C   0  0  0  0  0  0
  -24.1481  -36.7331   23.2639 C   0  0  0  0  0  0
  -25.9184  -30.8482   21.3610 C   0  0  0  0  0  0
  -25.9977  -29.4817   20.7180 C   0  0  0  0  0  0
  -27.2012  -28.7497   20.7033 C   0  0  0  0  0  0
  -26.0761  -26.9533   19.4964 C   0  0  0  0  0  0
  -24.8733  -27.6848   19.5179 C   0  0  0  0  0  0
  -23.6039  -29.8165   20.1678 C   0  0  0  0  0  0
  -25.4097  -36.3137   24.0352 C   0  0  1  0  0  0
  -20.5853  -28.3656   23.1323 C   0  0  2  0  0  0
  -20.6754  -26.9394   22.5419 C   0  0  0  0  0  0
  -19.5741  -26.6384   21.5207 C   0  0  0  0  0  0
  -18.1916  -26.7919   22.1614 C   0  0  0  0  0  0
  -19.1510  -28.8826   23.2911 C   0  0  0  0  0  0
  -18.9445  -30.1432   23.8919 C   0  0  0  0  0  0
  -17.6450  -30.6582   24.0564 C   0  0  0  0  0  0
  -25.9009  -34.9494   23.5155 C   0  0  0  0  0  0
  -16.5341  -29.9088   23.6326 C   0  0  0  0  0  0
  -16.7250  -28.6507   23.0342 C   0  0  0  0  0  0
  -26.4443  -31.6609   25.0727 C   0  0  0  0  0  0
  -25.3733  -31.3701   26.1499 C   0  0  0  0  0  0
  -27.0270  -30.3063   24.6073 C   0  0  0  0  0  0
  -27.6050  -32.4307   25.7467 C   0  0  0  0  0  0
  -27.5586  -37.1816   24.8464 C   0  0  0  0  0  0
  -21.4111  -29.3033   22.3734 N   0  0  0  0  0  0
  -26.4297  -37.3812   23.9407 N   0  0  0  0  0  0
  -24.6584  -31.0850   22.1001 N   0  0  0  0  0  0
  -23.4161  -28.8228   23.3039 O   0  0  0  0  0  0
  -28.4230  -26.8070   19.9761 O   0  0  0  0  0  0
  -26.5582  -34.8937   22.4717 O   0  0  0  0  0  0
  -23.5291  -32.1443   23.7544 O   0  0  0  0  0  0
  -30.0877   -9.5571   24.8082 C   0  0  0  0  0  0
  -34.8388  -10.1381   22.9103 C   0  0  0  0  0  0
  -30.6565  -24.4192   19.8684 C   0  0  0  0  0  0
  -29.9259  -10.3235   26.1307 C   0  0  0  0  0  0
  -33.7628   -9.3719   23.6704 C   0  0  0  0  0  0
  -30.8051  -22.9269   19.5763 C   0  0  0  0  0  0
  -29.5500  -11.8130   25.9726 C   0  0  0  0  0  0
  -31.6080  -22.2016   20.6655 C   0  0  0  0  0  0
  -32.6106   -8.8814   22.7670 C   0  0  0  0  0  0
  -30.6363  -12.6736   25.2895 C   0  0  0  0  0  0
  -31.8940  -20.7418   20.2989 C   0  0  0  0  0  0
  -32.8937  -20.1001   21.2634 C   0  0  0  0  0  0
  -33.2066  -18.6498   20.8892 C   0  0  0  0  0  0
  -34.2875  -18.0582   21.7945 C   0  0  0  0  0  0
  -34.6583  -16.6327   21.3901 C   0  0  0  0  0  0
  -35.8980  -16.1279   22.1420 C   0  0  0  0  0  0
  -36.2344  -14.6697   21.8114 C   0  0  0  0  0  0
  -30.1017  -13.4028   24.0494 C   0  0  0  0  0  0
  -35.2486  -13.6601   22.4205 C   0  0  0  0  0  0
  -31.5812   -8.0232   23.5265 C   0  0  0  0  0  0
  -35.3746  -12.2788   21.7716 C   0  0  0  0  0  0
  -31.2212  -13.9829   23.1703 C   0  0  0  0  0  0
  -30.5922  -26.6951   18.8845 C   0  0  0  0  0  0
  -29.1242  -27.1256   18.7773 C   0  0  0  0  0  0
  -31.1171   -8.7056   24.7324 N   0  0  0  0  0  0
  -34.4879  -11.3366   22.4393 N   0  0  0  0  0  0
  -30.7297  -25.2452   18.8207 N   0  0  0  0  0  0
  -30.7231  -14.7372   22.0154 N   0  0  0  0  0  0
  -29.3105   -9.7444   23.8702 O   0  0  0  0  0  0
  -35.9724   -9.6708   22.7956 O   0  0  0  0  0  0
  -30.4860  -24.8150   21.0222 O   0  0  0  0  0  0
  -31.4604  -12.3871   19.0755 H   0  0  0  0  0  0
  -30.3329  -11.2469   19.7471 H   0  0  0  0  0  0
  -29.7201  -11.8141   17.3852 H   0  0  0  0  0  0
  -29.6508  -13.5129   17.7886 H   0  0  0  0  0  0
  -27.8427  -11.2942   18.8255 H   0  0  0  0  0  0
  -27.3462  -12.6001   17.7934 H   0  0  0  0  0  0
  -27.7159  -14.2422   19.5627 H   0  0  0  0  0  0
  -28.6287  -11.9656   21.3937 H   0  0  0  0  0  0
  -28.4540  -13.6615   21.8007 H   0  0  0  0  0  0
  -25.2810   -9.5730   22.4681 H   0  0  0  0  0  0
  -24.0003   -7.4709   22.7489 H   0  0  0  0  0  0
  -21.0858   -8.8769   19.8911 H   0  0  0  0  0  0
  -22.3671  -10.9712   19.6150 H   0  0  0  0  0  0
  -21.2109   -7.6173   23.9754 H   0  0  0  0  0  0
  -21.1402   -6.0507   25.9071 H   0  0  0  0  0  0
  -22.0623   -2.7624   23.2855 H   0  0  0  0  0  0
  -22.4092  -11.9894   22.4655 H   0  0  0  0  0  0
  -21.1067  -13.1271   22.2459 H   0  0  0  0  0  0
  -24.6771  -15.8402   20.5496 H   0  0  0  0  0  0
  -26.2919  -15.6240   20.0942 H   0  0  0  0  0  0
  -26.7059  -32.5579   23.1193 H   0  0  0  0  0  0
  -25.0036  -33.9817   25.0519 H   0  0  0  0  0  0
  -22.6825  -31.3070   21.4061 H   0  0  0  0  0  0
  -23.3749  -35.9660   23.3315 H   0  0  0  0  0  0
  -24.3588  -36.8923   22.2052 H   0  0  0  0  0  0
  -23.7224  -37.6539   23.6632 H   0  0  0  0  0  0
  -26.0218  -31.6099   20.5874 H   0  0  0  0  0  0
  -26.8091  -30.9089   21.9742 H   0  0  0  0  0  0
  -28.1006  -29.1586   21.1430 H   0  0  0  0  0  0
  -26.1102  -25.9878   19.0117 H   0  0  0  0  0  0
  -23.9849  -27.2710   19.0603 H   0  0  0  0  0  0
  -23.7098  -30.5836   19.4001 H   0  0  0  0  0  0
  -22.7321  -29.2280   19.8765 H   0  0  0  0  0  0
  -25.1270  -36.2024   25.0850 H   0  0  0  0  0  0
  -20.9945  -28.3225   24.1446 H   0  0  0  0  0  0
  -20.5649  -26.2270   23.3608 H   0  0  0  0  0  0
  -21.6629  -26.7443   22.1220 H   0  0  0  0  0  0
  -19.6907  -25.6302   21.1225 H   0  0  0  0  0  0
  -19.6684  -27.3208   20.6751 H   0  0  0  0  0  0
  -17.4193  -26.6670   21.4010 H   0  0  0  0  0  0
  -18.0313  -26.0050   22.9000 H   0  0  0  0  0  0
  -19.7928  -30.7232   24.2301 H   0  0  0  0  0  0
  -17.5016  -31.6261   24.5161 H   0  0  0  0  0  0
  -15.5346  -30.2998   23.7636 H   0  0  0  0  0  0
  -15.8651  -28.0830   22.7047 H   0  0  0  0  0  0
  -24.5900  -30.7049   25.7846 H   0  0  0  0  0  0
  -24.8930  -32.2852   26.4977 H   0  0  0  0  0  0
  -25.8112  -30.8858   27.0238 H   0  0  0  0  0  0
  -26.2803  -29.6824   24.1148 H   0  0  0  0  0  0
  -27.4081  -29.7297   25.4511 H   0  0  0  0  0  0
  -27.8618  -30.4400   23.9187 H   0  0  0  0  0  0
  -27.2701  -33.3594   26.2097 H   0  0  0  0  0  0
  -28.3824  -32.6879   25.0260 H   0  0  0  0  0  0
  -28.0754  -31.8391   26.5331 H   0  0  0  0  0  0
  -28.2620  -38.0102   24.7518 H   0  0  0  0  0  0
  -28.1071  -36.2641   24.6279 H   0  0  0  0  0  0
  -27.2316  -37.1457   25.8873 H   0  0  0  0  0  0
  -20.9263  -29.8753   21.6959 H   0  0  0  0  0  0
  -26.0205  -38.2900   24.1406 H   0  0  0  0  0  0
  -30.8469  -10.2529   26.7089 H   0  0  0  0  0  0
  -29.1589   -9.8142   26.7143 H   0  0  0  0  0  0
  -33.3878  -10.0269   24.4576 H   0  0  0  0  0  0
  -34.2294   -8.5230   24.1700 H   0  0  0  0  0  0
  -31.2982  -22.7958   18.6125 H   0  0  0  0  0  0
  -29.8116  -22.4865   19.4817 H   0  0  0  0  0  0
  -29.3396  -12.2262   26.9603 H   0  0  0  0  0  0
  -28.6038  -11.8812   25.4333 H   0  0  0  0  0  0
  -31.0646  -22.2366   21.6102 H   0  0  0  0  0  0
  -32.5484  -22.7294   20.8339 H   0  0  0  0  0  0
  -33.0099   -8.3071   21.9281 H   0  0  0  0  0  0
  -32.1015   -9.7405   22.3252 H   0  0  0  0  0  0
  -31.4800  -12.0449   25.0020 H   0  0  0  0  0  0
  -31.0389  -13.4051   25.9956 H   0  0  0  0  0  0
  -32.2992  -20.6887   19.2884 H   0  0  0  0  0  0
  -30.9628  -20.1739   20.2901 H   0  0  0  0  0  0
  -32.5139  -20.1482   22.2845 H   0  0  0  0  0  0
  -33.8201  -20.6765   21.2526 H   0  0  0  0  0  0
  -33.5467  -18.6110   19.8534 H   0  0  0  0  0  0
  -32.3013  -18.0424   20.9410 H   0  0  0  0  0  0
  -33.9523  -18.0652   22.8318 H   0  0  0  0  0  0
  -35.1758  -18.6872   21.7529 H   0  0  0  0  0  0
  -34.8531  -16.5915   20.3177 H   0  0  0  0  0  0
  -33.7971  -15.9910   21.5673 H   0  0  0  0  0  0
  -35.7751  -16.2523   23.2194 H   0  0  0  0  0  0
  -36.7470  -16.7523   21.8602 H   0  0  0  0  0  0
  -37.2340  -14.4389   22.1803 H   0  0  0  0  0  0
  -36.2784  -14.5481   20.7285 H   0  0  0  0  0  0
  -29.4048  -14.1874   24.3507 H   0  0  0  0  0  0
  -29.5286  -12.6815   23.4707 H   0  0  0  0  0  0
  -34.2241  -14.0035   22.2920 H   0  0  0  0  0  0
  -35.4170  -13.5871   23.4970 H   0  0  0  0  0  0
  -32.0389   -7.0789   23.8277 H   0  0  0  0  0  0
  -30.7452   -7.7629   22.8747 H   0  0  0  0  0  0
  -36.4143  -11.9514   21.8078 H   0  0  0  0  0  0
  -35.1005  -12.3332   20.7166 H   0  0  0  0  0  0
  -31.8758  -13.1740   22.8376 H   0  0  0  0  0  0
  -31.8430  -14.6535   23.7651 H   0  0  0  0  0  0
  -31.0401  -27.0970   19.7951 H   0  0  0  0  0  0
  -31.1546  -27.1191   18.0517 H   0  0  0  0  0  0
  -28.6407  -26.6469   17.9232 H   0  0  0  0  0  0
  -29.0932  -28.2015   18.5917 H   0  0  0  0  0  0
  -31.6862   -8.5913   25.5613 H   0  0  0  0  0  0
  -33.5309  -11.6280   22.5868 H   0  0  0  0  0  0
  -30.8875  -24.8374   17.9081 H   0  0  0  0  0  0
  -31.0014  -15.7055   22.0673 H   0  0  0  0  0  0
  1 25  1  0  0  0
  1 30  2  0  0  0
  1 98  1  0  0  0
  2  3  1  0  0  0
  2 25  1  0  0  0
  2102  1  0  0  0
  2103  1  0  0  0
  3  4  1  0  0  0
  3104  1  0  0  0
  3105  1  0  0  0
  4  5  1  0  0  0
  4106  1  0  0  0
  4107  1  0  0  0
  5  6  1  0  0  0
  5 26  1  0  0  0
  5108  1  0  0  0
  6 25  1  0  0  0
  6109  1  0  0  0
  6110  1  0  0  0
  7  8  2  0  0  0
  7 26  1  0  0  0
  7 29  1  0  0  0
  8  9  1  0  0  0
  8 22  1  0  0  0
  9 10  1  0  0  0
  9 27  2  0  0  0
 10 11  2  0  0  0
 10 15  1  0  0  0
 11 12  1  0  0  0
 11111  1  0  0  0
 12 13  2  0  0  0
 12112  1  0  0  0
 13 14  1  0  0  0
 13 31  1  0  0  0
 14 15  2  0  0  0
 14113  1  0  0  0
 15114  1  0  0  0
 16 17  2  0  0  0
 16 21  1  0  0  0
 16 31  1  0  0  0
 17 18  1  0  0  0
 17115  1  0  0  0
 18 19  2  0  0  0
 18116  1  0  0  0
 19 20  1  0  0  0
 19 24  1  0  0  0
 20 21  2  0  0  0
 20117  1  0  0  0
 21 23  1  0  0  0
 22 28  1  0  0  0
 22 32  2  0  0  0
 26 27  1  0  0  0
 28118  1  0  0  0
 28119  1  0  0  0
 29120  1  0  0  0
 29121  1  0  0  0
 33 34  1  0  0  0
 33 66  1  0  0  0
 33 70  2  0  0  0
 34 36  1  0  0  0
 34 59  1  0  0  0
 34122  1  0  0  0
 35 44  2  0  0  0
 35 45  1  0  0  0
 35 68  1  0  0  0
 36 56  1  0  0  0
 36123  1  0  0  0
 37 39  1  0  0  0
 37 47  1  0  0  0
 37 66  1  0  0  0
 37124  1  0  0  0
 38 43  2  0  0  0
 38 46  1  0  0  0
 38 47  1  0  0  0
 39 64  1  0  0  0
 39 67  2  0  0  0
 40 52  1  0  0  0
 40 53  2  0  0  0
 40 58  1  0  0  0
 41125  1  0  0  0
 41126  1  0  0  0
 41127  1  0  0  0
 41 48  1  0  0  0
 42 43  1  0  0  0
 42 66  1  0  0  0
 42128  1  0  0  0
 42129  1  0  0  0
 43 44  1  0  0  0
 44130  1  0  0  0
 45 46  2  0  0  0
 45131  1  0  0  0
 46132  1  0  0  0
 47133  1  0  0  0
 47134  1  0  0  0
 48 56  1  0  0  0
 48 65  1  0  0  0
 48135  1  0  0  0
 49 50  1  0  0  0
 49 53  1  0  0  0
 49 64  1  0  0  0
 49136  1  0  0  0
 50 51  1  0  0  0
 50137  1  0  0  0
 50138  1  0  0  0
 51 52  1  0  0  0
 51139  1  0  0  0
 51140  1  0  0  0
 52141  1  0  0  0
 52142  1  0  0  0
 53 54  1  0  0  0
 54 55  2  0  0  0
 54143  1  0  0  0
 55 57  1  0  0  0
 55144  1  0  0  0
 56 69  2  0  0  0
 57 58  2  0  0  0
 57145  1  0  0  0
 58146  1  0  0  0
 59 60  1  0  0  0
 59 61  1  0  0  0
 59 62  1  0  0  0
 60147  1  0  0  0
 60148  1  0  0  0
 60149  1  0  0  0
 61150  1  0  0  0
 61151  1  0  0  0
 61152  1  0  0  0
 62153  1  0  0  0
 62154  1  0  0  0
 62155  1  0  0  0
 63 65  1  0  0  0
 63156  1  0  0  0
 63157  1  0  0  0
 63158  1  0  0  0
 64159  1  0  0  0
 65160  1  0  0  0
 68 94  1  0  0  0
 71 74  1  0  0  0
 71 95  1  0  0  0
 71 99  2  0  0  0
 72 75  1  0  0  0
 72 96  1  0  0  0
 72100  2  0  0  0
 73 76  1  0  0  0
 73 97  1  0  0  0
 73101  2  0  0  0
 74 77  1  0  0  0
 74161  1  0  0  0
 74162  1  0  0  0
 75 79  1  0  0  0
 75163  1  0  0  0
 75164  1  0  0  0
 76 78  1  0  0  0
 76165  1  0  0  0
 76166  1  0  0  0
 77 80  1  0  0  0
 77167  1  0  0  0
 77168  1  0  0  0
 78 81  1  0  0  0
 78169  1  0  0  0
 78170  1  0  0  0
 79 90  1  0  0  0
 79171  1  0  0  0
 79172  1  0  0  0
 80 88  1  0  0  0
 80173  1  0  0  0
 80174  1  0  0  0
 81 82  1  0  0  0
 81175  1  0  0  0
 81176  1  0  0  0
 82 83  1  0  0  0
 82177  1  0  0  0
 82178  1  0  0  0
 83 84  1  0  0  0
 83179  1  0  0  0
 83180  1  0  0  0
 84 85  1  0  0  0
 84181  1  0  0  0
 84182  1  0  0  0
 85 86  1  0  0  0
 85183  1  0  0  0
 85184  1  0  0  0
 86 87  1  0  0  0
 86185  1  0  0  0
 86186  1  0  0  0
 87 89  1  0  0  0
 87187  1  0  0  0
 87188  1  0  0  0
 88 92  1  0  0  0
 88189  1  0  0  0
 88190  1  0  0  0
 89 91  1  0  0  0
 89191  1  0  0  0
 89192  1  0  0  0
 90 95  1  0  0  0
 90193  1  0  0  0
 90194  1  0  0  0
 91 96  1  0  0  0
 91195  1  0  0  0
 91196  1  0  0  0
 92 98  1  0  0  0
 92197  1  0  0  0
 92198  1  0  0  0
 93 94  1  0  0  0
 93 97  1  0  0  0
 93199  1  0  0  0
 93200  1  0  0  0
 94201  1  0  0  0
 94202  1  0  0  0
 95203  1  0  0  0
 96204  1  0  0  0
 97205  1  0  0  0
 98206  1  0  0  0
M  ISO  4   1 100  68 101  94 101  98 100
M  END
> <chiral flag>
0

> <version>
0

> <s_m_source_file>
/data/baiqing/PycharmProjects/Reinvent-master-3.2/result/LINK_invent/BTK/process_docking_weight1_custom_sum_contain_oxygen_bond_distance_aromatic_linkinvent_7_9_3/rearranged_h_0006.sdf

> <i_m_source_file_index>
51

> <r_mmod_Potential_Energy-OPLS-2005>
-267.734222412109

> <r_mmod_Stretch_Energy-OPLS-2005>
30.4935245513916

> <r_mmod_Bend_Energy-OPLS-2005>
95.7681579589844

> <r_mmod_Torsional_Energy-OPLS-2005>
314.684875488281

> <r_mmod_Improper_Torsional_Energy-OPLS-2005>
7.61854553222656

> <r_mmod_Van_der_Waal_Energy-OPLS-2005>
112.161827087402

> <r_mmod_Electrostatic_Energy-OPLS-2005>
-556.337951660156

> <r_mmod_Solvation_Energy-OPLS-2005>
-282.371765136719

> <b_mmod_Minimization_Converged-OPLS-2005>
0

> <r_mmod_RMS_Derivative-OPLS-2005>
3.68362808227539

$$$$
51
                    3D
 Structure written by MMmdl.
185193  0  0  1  0            999 V2000
  -30.7481  -14.3771   20.6581 C   0  0  0  0  0  0
  -30.4186  -12.2849   19.3962 C   0  0  0  0  0  0
  -29.4855  -12.5160   18.1923 C   0  0  0  0  0  0
  -28.0083  -12.3777   18.6090 C   0  0  0  0  0  0
  -27.6660  -13.2004   19.8793 C   0  0  2  0  0  0
  -28.7040  -12.9371   20.9924 C   0  0  0  0  0  0
  -25.2602  -13.8156   20.5665 C   0  0  0  0  0  0
  -24.1841  -13.0443   20.9164 C   0  0  0  0  0  0
  -24.6382  -11.6906   20.8729 C   0  0  0  0  0  0
  -23.9051  -10.4294   21.0404 C   0  0  0  0  0  0
  -24.3602   -9.4215   21.9178 C   0  0  0  0  0  0
  -23.6287   -8.2243   22.0754 C   0  0  0  0  0  0
  -22.4268   -8.0277   21.3543 C   0  0  0  0  0  0
  -21.9895   -9.0250   20.4652 C   0  0  0  0  0  0
  -22.7217  -10.2136   20.3054 C   0  0  0  0  0  0
  -21.6852   -6.0732   22.5281 C   0  0  0  0  0  0
  -21.4012   -6.5638   23.8208 C   0  0  0  0  0  0
  -21.3652   -5.6791   24.9174 C   0  0  0  0  0  0
  -21.6051   -4.3056   24.7229 C   0  0  0  0  0  0
  -21.8817   -3.8145   23.4347 C   0  0  0  0  0  0
  -21.9193   -4.6960   22.3404 C   0  0  0  0  0  0
  -22.7867  -13.5250   21.1847 C   0  0  0  0  0  0
  -22.1663   -4.2145   21.0984 F   0  0  0  0  0  0
  -21.5629   -3.4539   25.7740 F   0  0  0  0  0  0
  -30.0437  -13.2356   20.4528 N   0  0  0  0  0  0
  -26.3037  -12.9311   20.3368 N   0  0  0  0  0  0
  -25.9306  -11.6480   20.5755 N   0  0  0  0  0  0
  -22.0503  -12.8254   22.0396 N   0  0  0  0  0  0
  -25.4354  -15.1869   20.4062 N   0  0  0  0  0  0
  -31.8074  -14.6353   20.0784 O   0  0  0  0  0  0
  -21.6636   -6.8872   21.4239 O   0  0  0  0  0  0
  -22.3554  -14.5560   20.6691 O   0  0  0  0  0  0
  -24.6061  -31.8701   23.2113 C   0  0  0  0  0  0
  -25.8960  -32.4862   23.8405 C   0  0  1  0  0  0
  -27.2649  -27.4856   20.0879 C   0  0  0  0  0  0
  -25.5820  -33.8669   24.2305 N   0  0  0  0  0  0
  -23.3938  -30.4890   21.5479 C   0  0  2  0  0  0
  -24.8495  -28.9529   20.1202 C   0  0  0  0  0  0
  -22.7356  -29.4654   22.4997 C   0  0  0  0  0  0
  -18.0249  -28.1351   22.8511 C   0  0  0  0  0  0
  -24.1474  -36.7382   23.2639 C   0  0  0  0  0  0
  -25.9146  -30.8511   21.3547 C   0  0  0  0  0  0
  -26.0002  -29.4836   20.7146 C   0  0  0  0  0  0
  -27.2069  -28.7577   20.7050 C   0  0  0  0  0  0
  -26.0936  -26.9536   19.5138 C   0  0  0  0  0  0
  -24.8867  -27.6806   19.5185 C   0  0  0  0  0  0
  -23.6043  -29.8110   20.1651 C   0  0  0  0  0  0
  -25.4090  -36.3157   24.0328 C   0  0  1  0  0  0
  -20.5839  -28.3625   23.1361 C   0  0  2  0  0  0
  -20.6736  -26.9359   22.5449 C   0  0  0  0  0  0
  -19.5726  -26.6375   21.5221 C   0  0  0  0  0  0
  -18.1899  -26.7912   22.1622 C   0  0  0  0  0  0
  -19.1504  -28.8805   23.2938 C   0  0  0  0  0  0
  -18.9430  -30.1425   23.8923 C   0  0  0  0  0  0
  -17.6434  -30.6573   24.0565 C   0  0  0  0  0  0
  -25.9025  -34.9522   23.5130 C   0  0  0  0  0  0
  -16.5325  -29.9080   23.6316 C   0  0  0  0  0  0
  -16.7243  -28.6497   23.0332 C   0  0  0  0  0  0
  -26.4423  -31.6656   25.0735 C   0  0  0  0  0  0
  -25.3713  -31.3758   26.1509 C   0  0  0  0  0  0
  -27.0214  -30.3095   24.6079 C   0  0  0  0  0  0
  -27.6040  -32.4355   25.7445 C   0  0  0  0  0  0
  -27.5595  -37.1815   24.8435 C   0  0  0  0  0  0
  -21.4089  -29.2997   22.3759 N   0  0  0  0  0  0
  -26.4277  -37.3845   23.9427 N   0  0  0  0  0  0
  -24.6568  -31.0826   22.0994 N   0  0  0  0  0  0
  -23.4143  -28.8210   23.3036 O   0  0  0  0  0  0
  -28.4127  -26.7256   20.0020 O   0  0  0  0  0  0
  -26.5626  -34.8970   22.4712 O   0  0  0  0  0  0
  -23.5264  -32.1431   23.7530 O   0  0  0  0  0  0
  -26.4500  -29.3195   14.9671 C   0  0  0  0  0  0
  -25.5867  -28.2138   15.0898 C   0  0  0  0  0  0
  -27.7994  -29.2072   15.3485 C   0  0  0  0  0  0
  -27.4194  -26.8950   15.9992 C   0  0  0  0  0  0
  -26.0634  -26.9843   15.5914 C   0  0  0  0  0  0
  -28.2945  -28.0021   15.8808 C   0  0  0  0  0  0
  -25.3589  -24.5861   15.8186 C   0  0  0  0  0  0
  -24.1330  -23.6630   15.8364 C   0  0  0  0  0  0
  -28.7364  -18.8122   19.3431 C   0  0  0  0  0  0
  -28.9977  -17.9756   20.6061 C   0  0  0  0  0  0
  -27.3243  -19.4184   19.3124 C   0  0  0  0  0  0
  -30.4804  -17.6007   20.7717 C   0  0  0  0  0  0
  -27.0407  -20.2246   18.0313 C   0  0  0  0  0  0
  -29.8236  -28.1774   18.6301 C   0  0  0  0  0  0
  -30.7350  -16.5527   21.8732 C   0  0  0  0  0  0
  -24.1890  -22.5620   16.9248 C   0  0  0  0  0  0
  -25.6534  -20.8942   18.0542 C   0  0  0  0  0  0
  -29.6730  -27.3982   19.9519 C   0  0  0  0  0  0
  -30.0013  -27.2600   17.4085 C   0  0  0  0  0  0
  -25.1335  -25.9041   15.6651 N   0  0  0  0  0  0
  -30.1977  -15.2397   21.5220 N   0  0  0  0  0  0
  -25.3884  -21.6916   16.8370 N   0  3  0  0  0  0
  -26.4778  -24.0781   15.9329 O   0  0  0  0  0  0
  -29.6310  -27.9560   16.2179 O   0  0  0  0  0  0
  -31.4611  -12.3882   19.0896 H   0  0  0  0  0  0
  -30.3202  -11.2630   19.7663 H   0  0  0  0  0  0
  -29.7169  -11.8063   17.3968 H   0  0  0  0  0  0
  -29.6607  -13.5094   17.7758 H   0  0  0  0  0  0
  -27.8137  -11.3200   18.7911 H   0  0  0  0  0  0
  -27.3548  -12.6666   17.7850 H   0  0  0  0  0  0
  -27.7269  -14.2544   19.6078 H   0  0  0  0  0  0
  -28.6684  -11.8904   21.2985 H   0  0  0  0  0  0
  -28.4545  -13.5024   21.8904 H   0  0  0  0  0  0
  -25.2749   -9.5693   22.4748 H   0  0  0  0  0  0
  -24.0003   -7.4635   22.7462 H   0  0  0  0  0  0
  -21.0824   -8.8762   19.8962 H   0  0  0  0  0  0
  -22.3667  -10.9667   19.6160 H   0  0  0  0  0  0
  -21.1997   -7.6145   23.9712 H   0  0  0  0  0  0
  -21.1479   -6.0523   25.9078 H   0  0  0  0  0  0
  -22.0602   -2.7608   23.2852 H   0  0  0  0  0  0
  -22.4100  -11.9911   22.4797 H   0  0  0  0  0  0
  -21.1122  -13.1286   22.2595 H   0  0  0  0  0  0
  -24.6746  -15.8483   20.5165 H   0  0  0  0  0  0
  -26.2967  -15.6210   20.0996 H   0  0  0  0  0  0
  -26.7037  -32.5609   23.1204 H   0  0  0  0  0  0
  -24.9820  -33.9853   25.0341 H   0  0  0  0  0  0
  -22.6778  -31.3013   21.4032 H   0  0  0  0  0  0
  -23.3739  -35.9716   23.3272 H   0  0  0  0  0  0
  -24.3576  -36.9040   22.2064 H   0  0  0  0  0  0
  -23.7222  -37.6575   23.6679 H   0  0  0  0  0  0
  -26.0006  -31.6063   20.5732 H   0  0  0  0  0  0
  -26.8106  -30.9269   21.9585 H   0  0  0  0  0  0
  -28.0757  -29.1890   21.1761 H   0  0  0  0  0  0
  -26.1318  -25.9838   19.0388 H   0  0  0  0  0  0
  -24.0020  -27.2618   19.0577 H   0  0  0  0  0  0
  -23.7050  -30.5803   19.3981 H   0  0  0  0  0  0
  -22.7340  -29.2201   19.8732 H   0  0  0  0  0  0
  -25.1256  -36.2012   25.0814 H   0  0  0  0  0  0
  -20.9950  -28.3192   24.1474 H   0  0  0  0  0  0
  -20.5626  -26.2217   23.3622 H   0  0  0  0  0  0
  -21.6613  -26.7393   22.1252 H   0  0  0  0  0  0
  -19.6881  -25.6300   21.1224 H   0  0  0  0  0  0
  -19.6686  -27.3203   20.6763 H   0  0  0  0  0  0
  -17.4179  -26.6715   21.3999 H   0  0  0  0  0  0
  -18.0265  -26.0011   22.8968 H   0  0  0  0  0  0
  -19.7897  -30.7249   24.2312 H   0  0  0  0  0  0
  -17.4973  -31.6257   24.5163 H   0  0  0  0  0  0
  -15.5324  -30.2983   23.7626 H   0  0  0  0  0  0
  -15.8641  -28.0846   22.6989 H   0  0  0  0  0  0
  -24.5833  -30.7159   25.7865 H   0  0  0  0  0  0
  -24.8980  -32.2918   26.5039 H   0  0  0  0  0  0
  -25.8085  -30.8864   27.0218 H   0  0  0  0  0  0
  -26.2721  -29.6915   24.1122 H   0  0  0  0  0  0
  -27.3956  -29.7276   25.4510 H   0  0  0  0  0  0
  -27.8578  -30.4425   23.9211 H   0  0  0  0  0  0
  -27.2689  -33.3607   26.2147 H   0  0  0  0  0  0
  -28.3764  -32.7001   25.0211 H   0  0  0  0  0  0
  -28.0817  -31.8412   26.5248 H   0  0  0  0  0  0
  -28.2567  -38.0160   24.7540 H   0  0  0  0  0  0
  -28.1118  -36.2693   24.6126 H   0  0  0  0  0  0
  -27.2345  -37.1314   25.8845 H   0  0  0  0  0  0
  -20.9213  -29.8706   21.6995 H   0  0  0  0  0  0
  -26.0171  -38.2920   24.1468 H   0  0  0  0  0  0
  -26.0778  -30.2547   14.5724 H   0  0  0  0  0  0
  -24.5565  -28.3185   14.7776 H   0  0  0  0  0  0
  -28.4583  -30.0584   15.2431 H   0  0  0  0  0  0
  -27.8012  -25.9668   16.3842 H   0  0  0  0  0  0
  -24.0332  -23.2084   14.8503 H   0  0  0  0  0  0
  -23.2307  -24.2583   15.9865 H   0  0  0  0  0  0
  -28.8883  -18.1851   18.4629 H   0  0  0  0  0  0
  -29.4726  -19.6151   19.2759 H   0  0  0  0  0  0
  -28.3810  -17.0772   20.5703 H   0  0  0  0  0  0
  -28.6777  -18.5281   21.4914 H   0  0  0  0  0  0
  -27.2015  -20.0687   20.1809 H   0  0  0  0  0  0
  -26.5829  -18.6245   19.4171 H   0  0  0  0  0  0
  -31.0488  -18.5031   21.0048 H   0  0  0  0  0  0
  -30.8806  -17.2392   19.8232 H   0  0  0  0  0  0
  -27.1231  -19.5679   17.1641 H   0  0  0  0  0  0
  -27.8106  -20.9898   17.9144 H   0  0  0  0  0  0
  -30.6851  -28.8425   18.6921 H   0  0  0  0  0  0
  -28.9640  -28.8294   18.4878 H   0  0  0  0  0  0
  -30.2830  -16.8769   22.8120 H   0  0  0  0  0  0
  -31.8061  -16.4653   22.0667 H   0  0  0  0  0  0
  -23.2947  -21.9402   16.8671 H   0  0  0  0  0  0
  -24.1619  -23.0456   17.9028 H   0  0  0  0  0  0
  -25.5932  -21.5441   18.9289 H   0  0  0  0  0  0
  -24.8711  -20.1423   18.1658 H   0  0  0  0  0  0
  -29.8216  -28.0449   20.8157 H   0  0  0  0  0  0
  -30.4617  -26.6492   20.0254 H   0  0  0  0  0  0
  -29.4685  -26.3214   17.5436 H   0  0  0  0  0  0
  -31.0509  -26.9784   17.3264 H   0  0  0  0  0  0
  -24.1649  -26.1557   15.5216 H   0  0  0  0  0  0
  -29.3347  -14.9551   21.9610 H   0  0  0  0  0  0
  -26.1747  -22.3081   16.6683 H   0  0  0  0  0  0
  -25.3046  -21.0797   16.0401 H   0  0  0  0  0  0
  1 25  1  0  0  0
  1 30  2  0  0  0
  1 91  1  0  0  0
  2  3  1  0  0  0
  2 25  1  0  0  0
  2 95  1  0  0  0
  2 96  1  0  0  0
  3  4  1  0  0  0
  3 97  1  0  0  0
  3 98  1  0  0  0
  4  5  1  0  0  0
  4 99  1  0  0  0
  4100  1  0  0  0
  5  6  1  0  0  0
  5 26  1  0  0  0
  5101  1  0  0  0
  6 25  1  0  0  0
  6102  1  0  0  0
  6103  1  0  0  0
  7  8  2  0  0  0
  7 26  1  0  0  0
  7 29  1  0  0  0
  8  9  1  0  0  0
  8 22  1  0  0  0
  9 10  1  0  0  0
  9 27  2  0  0  0
 10 11  2  0  0  0
 10 15  1  0  0  0
 11 12  1  0  0  0
 11104  1  0  0  0
 12 13  2  0  0  0
 12105  1  0  0  0
 13 14  1  0  0  0
 13 31  1  0  0  0
 14 15  2  0  0  0
 14106  1  0  0  0
 15107  1  0  0  0
 16 17  2  0  0  0
 16 21  1  0  0  0
 16 31  1  0  0  0
 17 18  1  0  0  0
 17108  1  0  0  0
 18 19  2  0  0  0
 18109  1  0  0  0
 19 20  1  0  0  0
 19 24  1  0  0  0
 20 21  2  0  0  0
 20110  1  0  0  0
 21 23  1  0  0  0
 22 28  1  0  0  0
 22 32  2  0  0  0
 26 27  1  0  0  0
 28111  1  0  0  0
 28112  1  0  0  0
 29113  1  0  0  0
 29114  1  0  0  0
 33 34  1  0  0  0
 33 66  1  0  0  0
 33 70  2  0  0  0
 34 36  1  0  0  0
 34 59  1  0  0  0
 34115  1  0  0  0
 35 44  2  0  0  0
 35 45  1  0  0  0
 35 68  1  0  0  0
 36 56  1  0  0  0
 36116  1  0  0  0
 37 39  1  0  0  0
 37 47  1  0  0  0
 37 66  1  0  0  0
 37117  1  0  0  0
 38 43  2  0  0  0
 38 46  1  0  0  0
 38 47  1  0  0  0
 39 64  1  0  0  0
 39 67  2  0  0  0
 40 52  1  0  0  0
 40 53  2  0  0  0
 40 58  1  0  0  0
 41118  1  0  0  0
 41119  1  0  0  0
 41120  1  0  0  0
 41 48  1  0  0  0
 42 43  1  0  0  0
 42 66  1  0  0  0
 42121  1  0  0  0
 42122  1  0  0  0
 43 44  1  0  0  0
 44123  1  0  0  0
 45 46  2  0  0  0
 45124  1  0  0  0
 46125  1  0  0  0
 47126  1  0  0  0
 47127  1  0  0  0
 48 56  1  0  0  0
 48 65  1  0  0  0
 48128  1  0  0  0
 49 50  1  0  0  0
 49 53  1  0  0  0
 49 64  1  0  0  0
 49129  1  0  0  0
 50 51  1  0  0  0
 50130  1  0  0  0
 50131  1  0  0  0
 51 52  1  0  0  0
 51132  1  0  0  0
 51133  1  0  0  0
 52134  1  0  0  0
 52135  1  0  0  0
 53 54  1  0  0  0
 54 55  2  0  0  0
 54136  1  0  0  0
 55 57  1  0  0  0
 55137  1  0  0  0
 56 69  2  0  0  0
 57 58  2  0  0  0
 57138  1  0  0  0
 58139  1  0  0  0
 59 60  1  0  0  0
 59 61  1  0  0  0
 59 62  1  0  0  0
 60140  1  0  0  0
 60141  1  0  0  0
 60142  1  0  0  0
 61143  1  0  0  0
 61144  1  0  0  0
 61145  1  0  0  0
 62146  1  0  0  0
 62147  1  0  0  0
 62148  1  0  0  0
 63 65  1  0  0  0
 63149  1  0  0  0
 63150  1  0  0  0
 63151  1  0  0  0
 64152  1  0  0  0
 65153  1  0  0  0
 68 88  1  0  0  0
 71 72  2  0  0  0
 71 73  1  0  0  0
 71154  1  0  0  0
 72 75  1  0  0  0
 72155  1  0  0  0
 73 76  2  0  0  0
 73156  1  0  0  0
 74 75  2  0  0  0
 74 76  1  0  0  0
 74157  1  0  0  0
 75 90  1  0  0  0
 76 94  1  0  0  0
 77 78  1  0  0  0
 77 90  1  0  0  0
 77 93  2  0  0  0
 78 86  1  0  0  0
 78158  1  0  0  0
 78159  1  0  0  0
 79 80  1  0  0  0
 79 81  1  0  0  0
 79160  1  0  0  0
 79161  1  0  0  0
 80 82  1  0  0  0
 80162  1  0  0  0
 80163  1  0  0  0
 81 83  1  0  0  0
 81164  1  0  0  0
 81165  1  0  0  0
 82 85  1  0  0  0
 82166  1  0  0  0
 82167  1  0  0  0
 83 87  1  0  0  0
 83168  1  0  0  0
 83169  1  0  0  0
 84 88  1  0  0  0
 84 89  1  0  0  0
 84170  1  0  0  0
 84171  1  0  0  0
 85 91  1  0  0  0
 85172  1  0  0  0
 85173  1  0  0  0
 86 92  1  0  0  0
 86174  1  0  0  0
 86175  1  0  0  0
 87 92  1  0  0  0
 87176  1  0  0  0
 87177  1  0  0  0
 88178  1  0  0  0
 88179  1  0  0  0
 89 94  1  0  0  0
 89180  1  0  0  0
 89181  1  0  0  0
 90182  1  0  0  0
 91183  1  0  0  0
 92184  1  0  0  0
 92185  1  0  0  0
M  CHG  1  92   1
M  ISO  4   1 100  68 101  88 101  91 100
M  END
> <chiral flag>
0

> <version>
0

> <s_m_source_file>
/data/baiqing/PycharmProjects/Reinvent-master-3.2/result/LINK_invent/BTK/process_docking_weight1_custom_sum_contain_oxygen_bond_distance_aromatic_linkinvent_7_9_3/rearranged_h_0006.sdf

> <i_m_source_file_index>
52

> <r_mmod_Potential_Energy-OPLS-2005>
-300.878204345703

> <r_mmod_Stretch_Energy-OPLS-2005>
35.8552513122559

> <r_mmod_Bend_Energy-OPLS-2005>
110.791870117188

> <r_mmod_Torsional_Energy-OPLS-2005>
211.072631835938

> <r_mmod_Improper_Torsional_Energy-OPLS-2005>
1.90401172637939

> <r_mmod_Van_der_Waal_Energy-OPLS-2005>
154.790802001953

> <r_mmod_Electrostatic_Energy-OPLS-2005>
-356.967407226562

> <r_mmod_Solvation_Energy-OPLS-2005>
-464.381713867188

> <b_mmod_Minimization_Converged-OPLS-2005>
0

> <r_mmod_RMS_Derivative-OPLS-2005>
2.51761174201965

$$$$
52
                    3D
 Structure written by MMmdl.
151159  0  0  1  0            999 V2000
  -30.6240  -14.7128   20.4559 C   0  0  0  0  0  0
  -30.4260  -12.4287   19.4809 C   0  0  0  0  0  0
  -29.5114  -12.5211   18.2394 C   0  0  0  0  0  0
  -28.0342  -12.3558   18.6424 C   0  0  0  0  0  0
  -27.6473  -13.2367   19.8603 C   0  0  2  0  0  0
  -28.6895  -13.1460   20.9987 C   0  0  0  0  0  0
  -25.2522  -13.8215   20.5686 C   0  0  0  0  0  0
  -24.1813  -13.0453   20.9196 C   0  0  0  0  0  0
  -24.6407  -11.6933   20.8734 C   0  0  0  0  0  0
  -23.9079  -10.4307   21.0389 C   0  0  0  0  0  0
  -24.3630   -9.4223   21.9169 C   0  0  0  0  0  0
  -23.6304   -8.2260   22.0746 C   0  0  0  0  0  0
  -22.4283   -8.0295   21.3542 C   0  0  0  0  0  0
  -21.9919   -9.0266   20.4639 C   0  0  0  0  0  0
  -22.7248  -10.2144   20.3044 C   0  0  0  0  0  0
  -21.6862   -6.0743   22.5271 C   0  0  0  0  0  0
  -21.4023   -6.5641   23.8207 C   0  0  0  0  0  0
  -21.3662   -5.6790   24.9168 C   0  0  0  0  0  0
  -21.6044   -4.3052   24.7212 C   0  0  0  0  0  0
  -21.8822   -3.8147   23.4331 C   0  0  0  0  0  0
  -21.9198   -4.6970   22.3394 C   0  0  0  0  0  0
  -22.7830  -13.5230   21.1851 C   0  0  0  0  0  0
  -22.1659   -4.2157   21.0969 F   0  0  0  0  0  0
  -21.5631   -3.4532   25.7720 F   0  0  0  0  0  0
  -30.0014  -13.4846   20.4312 N   0  0  0  0  0  0
  -26.2963  -12.9431   20.3308 N   0  0  0  0  0  0
  -25.9343  -11.6566   20.5756 N   0  0  0  0  0  0
  -22.0480  -12.8229   22.0416 N   0  0  0  0  0  0
  -25.4209  -15.1945   20.4101 N   0  0  0  0  0  0
  -31.7921  -14.8162   20.0689 O   0  0  0  0  0  0
  -21.6649   -6.8888   21.4236 O   0  0  0  0  0  0
  -22.3506  -14.5529   20.6690 O   0  0  0  0  0  0
  -24.6307  -31.8560   23.2001 C   0  0  0  0  0  0
  -25.9132  -32.4765   23.8337 C   0  0  1  0  0  0
  -27.2211  -27.2639   20.1238 C   0  0  0  0  0  0
  -25.5936  -33.8566   24.2266 N   0  0  0  0  0  0
  -23.4275  -30.4802   21.5432 C   0  0  2  0  0  0
  -24.8757  -28.9316   20.1076 C   0  0  0  0  0  0
  -22.7498  -29.4610   22.4907 C   0  0  0  0  0  0
  -18.0299  -28.1380   22.8484 C   0  0  0  0  0  0
  -24.1497  -36.7288   23.2634 C   0  0  0  0  0  0
  -25.9738  -30.7680   21.3829 C   0  0  0  0  0  0
  -26.0457  -29.3913   20.7242 C   0  0  0  0  0  0
  -27.2173  -28.5674   20.7279 C   0  0  0  0  0  0
  -26.0333  -26.8880   19.4534 C   0  0  0  0  0  0
  -24.8752  -27.6874   19.4616 C   0  0  0  0  0  0
  -23.6461  -29.8179   20.1579 C   0  0  0  0  0  0
  -25.4120  -36.3083   24.0330 C   0  0  1  0  0  0
  -20.5902  -28.3701   23.1266 C   0  0  2  0  0  0
  -20.6789  -26.9414   22.5410 C   0  0  0  0  0  0
  -19.5767  -26.6374   21.5215 C   0  0  0  0  0  0
  -18.1945  -26.7924   22.1620 C   0  0  0  0  0  0
  -19.1547  -28.8855   23.2876 C   0  0  0  0  0  0
  -18.9465  -30.1456   23.8894 C   0  0  0  0  0  0
  -17.6462  -30.6581   24.0562 C   0  0  0  0  0  0
  -25.9057  -34.9450   23.5103 C   0  0  0  0  0  0
  -16.5357  -29.9076   23.6325 C   0  0  0  0  0  0
  -16.7284  -28.6493   23.0350 C   0  0  0  0  0  0
  -26.4496  -31.6580   25.0718 C   0  0  0  0  0  0
  -25.3714  -31.3721   26.1433 C   0  0  0  0  0  0
  -27.0337  -30.2998   24.6193 C   0  0  0  0  0  0
  -27.6054  -32.4312   25.7488 C   0  0  0  0  0  0
  -27.5600  -37.1790   24.8451 C   0  0  0  0  0  0
  -21.4206  -29.3050   22.3650 N   0  0  0  0  0  0
  -26.4296  -37.3784   23.9420 N   0  0  0  0  0  0
  -24.6963  -31.0530   22.0981 N   0  0  0  0  0  0
  -23.4196  -28.8150   23.3008 O   0  0  0  0  0  0
  -28.3135  -26.3643   20.2130 O   0  0  0  0  0  0
  -26.5617  -34.8923   22.4665 O   0  0  0  0  0  0
  -23.5459  -32.1386   23.7296 O   0  0  0  0  0  0
  -29.9215  -18.4009   17.9838 C   0  0  0  0  0  0
  -30.0436  -17.2015   18.7101 C   0  0  0  0  0  0
  -29.6505  -19.6289   18.6192 C   0  0  0  0  0  0
  -29.6150  -18.4578   20.7475 C   0  0  0  0  0  0
  -29.8832  -17.1718   20.1126 C   0  0  0  0  0  0
  -29.5061  -19.7228   20.0242 C   0  0  0  0  0  0
  -28.9583  -23.7015   20.5590 C   0  0  0  0  0  0
  -28.1390  -24.9094   19.8603 C   0  0  0  0  0  0
  -28.9051  -22.2244   19.8922 C   0  0  0  0  0  0
  -29.8887  -15.8432   20.7781 N   0  0  0  0  0  0
  -29.2917  -20.9914   20.6527 O   0  0  0  0  0  0
  -31.4711  -12.5289   19.1850 H   0  0  0  0  0  0
  -30.3434  -11.4441   19.9445 H   0  0  0  0  0  0
  -29.7878  -11.7633   17.5056 H   0  0  0  0  0  0
  -29.6521  -13.4855   17.7487 H   0  0  0  0  0  0
  -27.8736  -11.3035   18.8783 H   0  0  0  0  0  0
  -27.3839  -12.5778   17.7944 H   0  0  0  0  0  0
  -27.6497  -14.2659   19.5014 H   0  0  0  0  0  0
  -28.7085  -12.1426   21.4259 H   0  0  0  0  0  0
  -28.4261  -13.8197   21.8158 H   0  0  0  0  0  0
  -25.2776   -9.5703   22.4741 H   0  0  0  0  0  0
  -24.0011   -7.4656   22.7465 H   0  0  0  0  0  0
  -21.0850   -8.8788   19.8956 H   0  0  0  0  0  0
  -22.3695  -10.9685   19.6157 H   0  0  0  0  0  0
  -21.2016   -7.6148   23.9717 H   0  0  0  0  0  0
  -21.1482   -6.0514   25.9073 H   0  0  0  0  0  0
  -22.0598   -2.7610   23.2826 H   0  0  0  0  0  0
  -22.4088  -11.9897   22.4822 H   0  0  0  0  0  0
  -21.1095  -13.1252   22.2608 H   0  0  0  0  0  0
  -24.6539  -15.8493   20.5182 H   0  0  0  0  0  0
  -26.2720  -15.6335   20.0812 H   0  0  0  0  0  0
  -26.7194  -32.5423   23.1073 H   0  0  0  0  0  0
  -25.0108  -33.9697   25.0431 H   0  0  0  0  0  0
  -22.7246  -31.3034   21.3992 H   0  0  0  0  0  0
  -23.3787  -35.9590   23.3251 H   0  0  0  0  0  0
  -24.3611  -36.8955   22.2062 H   0  0  0  0  0  0
  -23.7209  -37.6460   23.6678 H   0  0  0  0  0  0
  -26.1139  -31.5300   20.6151 H   0  0  0  0  0  0
  -26.8505  -30.8151   22.0170 H   0  0  0  0  0  0
  -28.1074  -28.9110   21.2363 H   0  0  0  0  0  0
  -25.9612  -25.9548   18.9169 H   0  0  0  0  0  0
  -23.9851  -27.3344   18.9594 H   0  0  0  0  0  0
  -23.7705  -30.5966   19.4044 H   0  0  0  0  0  0
  -22.7642  -29.2517   19.8525 H   0  0  0  0  0  0
  -25.1302  -36.1934   25.0823 H   0  0  0  0  0  0
  -21.0005  -28.3286   24.1384 H   0  0  0  0  0  0
  -20.5701  -26.2309   23.3617 H   0  0  0  0  0  0
  -21.6657  -26.7444   22.1198 H   0  0  0  0  0  0
  -19.6930  -25.6282   21.1255 H   0  0  0  0  0  0
  -19.6711  -27.3176   20.6741 H   0  0  0  0  0  0
  -17.4222  -26.6685   21.4013 H   0  0  0  0  0  0
  -18.0335  -26.0059   22.9007 H   0  0  0  0  0  0
  -19.7940  -30.7272   24.2264 H   0  0  0  0  0  0
  -17.5014  -31.6263   24.5158 H   0  0  0  0  0  0
  -15.5354  -30.2972   23.7645 H   0  0  0  0  0  0
  -15.8690  -28.0806   22.7061 H   0  0  0  0  0  0
  -24.5890  -30.7073   25.7749 H   0  0  0  0  0  0
  -24.8896  -32.2885   26.4853 H   0  0  0  0  0  0
  -25.8022  -30.8890   27.0213 H   0  0  0  0  0  0
  -26.2909  -29.6744   24.1224 H   0  0  0  0  0  0
  -27.4035  -29.7261   25.4703 H   0  0  0  0  0  0
  -27.8786  -30.4282   23.9422 H   0  0  0  0  0  0
  -27.2666  -33.3615   26.2063 H   0  0  0  0  0  0
  -28.3860  -32.6868   25.0307 H   0  0  0  0  0  0
  -28.0720  -31.8431   26.5404 H   0  0  0  0  0  0
  -28.2567  -38.0141   24.7588 H   0  0  0  0  0  0
  -28.1152  -36.2679   24.6168 H   0  0  0  0  0  0
  -27.2330  -37.1304   25.8852 H   0  0  0  0  0  0
  -20.9380  -29.8783   21.6870 H   0  0  0  0  0  0
  -26.0183  -38.2854   24.1457 H   0  0  0  0  0  0
  -30.0301  -18.3759   16.9078 H   0  0  0  0  0  0
  -30.2300  -16.2897   18.1602 H   0  0  0  0  0  0
  -29.5703  -20.4951   17.9815 H   0  0  0  0  0  0
  -29.4868  -18.4791   21.8197 H   0  0  0  0  0  0
  -28.6090  -23.6198   21.5884 H   0  0  0  0  0  0
  -30.0060  -23.9934   20.6347 H   0  0  0  0  0  0
  -27.1028  -24.6222   20.0292 H   0  0  0  0  0  0
  -28.2986  -24.8394   18.7838 H   0  0  0  0  0  0
  -29.5254  -22.3041   19.0017 H   0  0  0  0  0  0
  -27.8886  -22.0526   19.5364 H   0  0  0  0  0  0
  -29.0753  -15.6548   21.3447 H   0  0  0  0  0  0
  1 25  1  0  0  0
  1 30  2  0  0  0
  1 80  1  0  0  0
  2  3  1  0  0  0
  2 25  1  0  0  0
  2 82  1  0  0  0
  2 83  1  0  0  0
  3  4  1  0  0  0
  3 84  1  0  0  0
  3 85  1  0  0  0
  4  5  1  0  0  0
  4 86  1  0  0  0
  4 87  1  0  0  0
  5  6  1  0  0  0
  5 26  1  0  0  0
  5 88  1  0  0  0
  6 25  1  0  0  0
  6 89  1  0  0  0
  6 90  1  0  0  0
  7  8  2  0  0  0
  7 26  1  0  0  0
  7 29  1  0  0  0
  8  9  1  0  0  0
  8 22  1  0  0  0
  9 10  1  0  0  0
  9 27  2  0  0  0
 10 11  2  0  0  0
 10 15  1  0  0  0
 11 12  1  0  0  0
 11 91  1  0  0  0
 12 13  2  0  0  0
 12 92  1  0  0  0
 13 14  1  0  0  0
 13 31  1  0  0  0
 14 15  2  0  0  0
 14 93  1  0  0  0
 15 94  1  0  0  0
 16 17  2  0  0  0
 16 21  1  0  0  0
 16 31  1  0  0  0
 17 18  1  0  0  0
 17 95  1  0  0  0
 18 19  2  0  0  0
 18 96  1  0  0  0
 19 20  1  0  0  0
 19 24  1  0  0  0
 20 21  2  0  0  0
 20 97  1  0  0  0
 21 23  1  0  0  0
 22 28  1  0  0  0
 22 32  2  0  0  0
 26 27  1  0  0  0
 28 98  1  0  0  0
 28 99  1  0  0  0
 29100  1  0  0  0
 29101  1  0  0  0
 33 34  1  0  0  0
 33 66  1  0  0  0
 33 70  2  0  0  0
 34 36  1  0  0  0
 34 59  1  0  0  0
 34102  1  0  0  0
 35 44  2  0  0  0
 35 45  1  0  0  0
 35 68  1  0  0  0
 36 56  1  0  0  0
 36103  1  0  0  0
 37 39  1  0  0  0
 37 47  1  0  0  0
 37 66  1  0  0  0
 37104  1  0  0  0
 38 43  2  0  0  0
 38 46  1  0  0  0
 38 47  1  0  0  0
 39 64  1  0  0  0
 39 67  2  0  0  0
 40 52  1  0  0  0
 40 53  2  0  0  0
 40 58  1  0  0  0
 41105  1  0  0  0
 41106  1  0  0  0
 41107  1  0  0  0
 41 48  1  0  0  0
 42 43  1  0  0  0
 42 66  1  0  0  0
 42108  1  0  0  0
 42109  1  0  0  0
 43 44  1  0  0  0
 44110  1  0  0  0
 45 46  2  0  0  0
 45111  1  0  0  0
 46112  1  0  0  0
 47113  1  0  0  0
 47114  1  0  0  0
 48 56  1  0  0  0
 48 65  1  0  0  0
 48115  1  0  0  0
 49 50  1  0  0  0
 49 53  1  0  0  0
 49 64  1  0  0  0
 49116  1  0  0  0
 50 51  1  0  0  0
 50117  1  0  0  0
 50118  1  0  0  0
 51 52  1  0  0  0
 51119  1  0  0  0
 51120  1  0  0  0
 52121  1  0  0  0
 52122  1  0  0  0
 53 54  1  0  0  0
 54 55  2  0  0  0
 54123  1  0  0  0
 55 57  1  0  0  0
 55124  1  0  0  0
 56 69  2  0  0  0
 57 58  2  0  0  0
 57125  1  0  0  0
 58126  1  0  0  0
 59 60  1  0  0  0
 59 61  1  0  0  0
 59 62  1  0  0  0
 60127  1  0  0  0
 60128  1  0  0  0
 60129  1  0  0  0
 61130  1  0  0  0
 61131  1  0  0  0
 61132  1  0  0  0
 62133  1  0  0  0
 62134  1  0  0  0
 62135  1  0  0  0
 63 65  1  0  0  0
 63136  1  0  0  0
 63137  1  0  0  0
 63138  1  0  0  0
 64139  1  0  0  0
 65140  1  0  0  0
 68 78  1  0  0  0
 71 72  2  0  0  0
 71 73  1  0  0  0
 71141  1  0  0  0
 72 75  1  0  0  0
 72142  1  0  0  0
 73 76  2  0  0  0
 73143  1  0  0  0
 74 75  2  0  0  0
 74 76  1  0  0  0
 74144  1  0  0  0
 75 80  1  0  0  0
 76 81  1  0  0  0
 77 78  1  0  0  0
 77 79  1  0  0  0
 77145  1  0  0  0
 77146  1  0  0  0
 78147  1  0  0  0
 78148  1  0  0  0
 79 81  1  0  0  0
 79149  1  0  0  0
 79150  1  0  0  0
 80151  1  0  0  0
M  ISO  4   1 100  68 101  78 101  80 100
M  END
> <chiral flag>
0

> <version>
0

> <s_m_source_file>
/data/baiqing/PycharmProjects/Reinvent-master-3.2/result/LINK_invent/BTK/process_docking_weight1_custom_sum_contain_oxygen_bond_distance_aromatic_linkinvent_7_9_3/rearranged_h_0006.sdf

> <i_m_source_file_index>
53

> <r_mmod_Potential_Energy-OPLS-2005>
185.519424438477

> <r_mmod_Stretch_Energy-OPLS-2005>
124.80167388916

> <r_mmod_Bend_Energy-OPLS-2005>
166.076385498047

> <r_mmod_Torsional_Energy-OPLS-2005>
237.988235473633

> <r_mmod_Improper_Torsional_Energy-OPLS-2005>
4.65315580368042

> <r_mmod_Van_der_Waal_Energy-OPLS-2005>
146.747375488281

> <r_mmod_Electrostatic_Energy-OPLS-2005>
-355.506103515625

> <r_mmod_Solvation_Energy-OPLS-2005>
-217.155700683594

> <b_mmod_Minimization_Converged-OPLS-2005>
0

> <r_mmod_RMS_Derivative-OPLS-2005>
1.40038752555847

$$$$
53
                    3D
 Structure written by MMmdl.
173181  0  0  1  0            999 V2000
  -30.6967  -14.4506   20.5663 C   0  0  0  0  0  0
  -30.4264  -12.2961   19.4134 C   0  0  0  0  0  0
  -29.4882  -12.4990   18.2040 C   0  0  0  0  0  0
  -28.0103  -12.3341   18.6130 C   0  0  0  0  0  0
  -27.6562  -13.1672   19.8683 C   0  0  2  0  0  0
  -28.7012  -12.9615   20.9896 C   0  0  0  0  0  0
  -25.2547  -13.8039   20.5582 C   0  0  0  0  0  0
  -24.1802  -13.0377   20.9196 C   0  0  0  0  0  0
  -24.6322  -11.6835   20.8785 C   0  0  0  0  0  0
  -23.8992  -10.4257   21.0443 C   0  0  0  0  0  0
  -24.3577   -9.4179   21.9204 C   0  0  0  0  0  0
  -23.6273   -8.2205   22.0753 C   0  0  0  0  0  0
  -22.4252   -8.0263   21.3526 C   0  0  0  0  0  0
  -21.9883   -9.0234   20.4629 C   0  0  0  0  0  0
  -22.7190  -10.2118   20.3058 C   0  0  0  0  0  0
  -21.6843   -6.0728   22.5270 C   0  0  0  0  0  0
  -21.4006   -6.5633   23.8203 C   0  0  0  0  0  0
  -21.3657   -5.6784   24.9169 C   0  0  0  0  0  0
  -21.6038   -4.3046   24.7213 C   0  0  0  0  0  0
  -21.8821   -3.8141   23.4333 C   0  0  0  0  0  0
  -21.9187   -4.6961   22.3394 C   0  0  0  0  0  0
  -22.7853  -13.5226   21.1874 C   0  0  0  0  0  0
  -22.1661   -4.2155   21.0974 F   0  0  0  0  0  0
  -21.5633   -3.4524   25.7726 F   0  0  0  0  0  0
  -30.0364  -13.2677   20.4447 N   0  0  0  0  0  0
  -26.2955  -12.9136   20.3290 N   0  0  0  0  0  0
  -25.9230  -11.6350   20.5793 N   0  0  0  0  0  0
  -22.0476  -12.8267   22.0456 N   0  0  0  0  0  0
  -25.4160  -15.1738   20.3803 N   0  0  0  0  0  0
  -31.8337  -14.6413   20.1257 O   0  0  0  0  0  0
  -21.6607   -6.8868   21.4231 O   0  0  0  0  0  0
  -22.3582  -14.5549   20.6725 O   0  0  0  0  0  0
  -24.6119  -31.8700   23.2120 C   0  0  0  0  0  0
  -25.9020  -32.4838   23.8407 C   0  0  1  0  0  0
  -27.2356  -27.4625   20.0952 C   0  0  0  0  0  0
  -25.5907  -33.8643   24.2337 N   0  0  0  0  0  0
  -23.3982  -30.4916   21.5534 C   0  0  2  0  0  0
  -24.8448  -28.9525   20.1264 C   0  0  0  0  0  0
  -22.7402  -29.4655   22.5031 C   0  0  0  0  0  0
  -18.0271  -28.1366   22.8517 C   0  0  0  0  0  0
  -24.1473  -36.7307   23.2642 C   0  0  0  0  0  0
  -25.9239  -30.8417   21.3611 C   0  0  0  0  0  0
  -26.0021  -29.4744   20.7183 C   0  0  0  0  0  0
  -27.2037  -28.7348   20.7023 C   0  0  0  0  0  0
  -26.0683  -26.9422   19.5024 C   0  0  0  0  0  0
  -24.8700  -27.6830   19.5203 C   0  0  0  0  0  0
  -23.6053  -29.8170   20.1712 C   0  0  0  0  0  0
  -25.4103  -36.3143   24.0340 C   0  0  1  0  0  0
  -20.5857  -28.3637   23.1348 C   0  0  2  0  0  0
  -20.6759  -26.9379   22.5434 C   0  0  0  0  0  0
  -19.5740  -26.6377   21.5226 C   0  0  0  0  0  0
  -18.1916  -26.7916   22.1632 C   0  0  0  0  0  0
  -19.1521  -28.8825   23.2925 C   0  0  0  0  0  0
  -18.9448  -30.1438   23.8921 C   0  0  0  0  0  0
  -17.6449  -30.6587   24.0560 C   0  0  0  0  0  0
  -25.9039  -34.9499   23.5146 C   0  0  0  0  0  0
  -16.5341  -29.9088   23.6322 C   0  0  0  0  0  0
  -16.7256  -28.6499   23.0361 C   0  0  0  0  0  0
  -26.4443  -31.6628   25.0738 C   0  0  0  0  0  0
  -25.3697  -31.3739   26.1485 C   0  0  0  0  0  0
  -27.0245  -30.3072   24.6089 C   0  0  0  0  0  0
  -27.6027  -32.4343   25.7496 C   0  0  0  0  0  0
  -27.5576  -37.1814   24.8474 C   0  0  0  0  0  0
  -21.4132  -29.3005   22.3765 N   0  0  0  0  0  0
  -26.4289  -37.3829   23.9424 N   0  0  0  0  0  0
  -24.6626  -31.0822   22.1007 N   0  0  0  0  0  0
  -23.4187  -28.8204   23.3072 O   0  0  0  0  0  0
  -28.4083  -26.7571   20.0287 O   0  0  0  0  0  0
  -26.5589  -34.8943   22.4695 O   0  0  0  0  0  0
  -23.5326  -32.1432   23.7534 O   0  0  0  0  0  0
  -30.6626  -18.8125   19.5046 C   0  0  0  0  0  0
  -29.5078  -18.9677   18.7087 C   0  0  0  0  0  0
  -30.8248  -17.6673   20.3137 C   0  0  0  0  0  0
  -28.6371  -16.8859   19.6067 C   0  0  0  0  0  0
  -28.4883  -17.9927   18.7537 C   0  0  0  0  0  0
  -29.8174  -16.6775   20.3415 C   0  0  0  0  0  0
  -27.2917  -18.0508   17.8530 C   0  0  0  0  0  0
  -26.6133  -22.3759   20.6471 C   0  0  0  0  0  0
  -26.9550  -23.7848   21.1412 C   0  0  0  0  0  0
  -28.2488  -24.3656   20.5310 C   0  0  0  0  0  0
  -24.1335  -18.9545   19.1271 C   0  0  0  0  0  0
  -24.2071  -18.9167   17.5837 C   0  0  0  0  0  0
  -24.3035  -20.3612   19.7306 C   0  0  0  0  0  0
  -25.4974  -19.4913   16.9411 C   0  0  0  0  0  0
  -25.1805  -20.3779   20.9984 C   0  0  0  0  0  0
  -28.5912  -25.7756   21.0450 C   0  0  0  0  0  0
  -29.9561  -15.4590   21.0565 N   0  0  0  0  0  0
  -26.7080  -19.2421   17.7199 N   0  0  0  0  0  0
  -25.6438  -21.7281   21.3076 N   0  0  0  0  0  0
  -26.8559  -17.0245   17.3281 O   0  0  0  0  0  0
  -27.2042  -21.8802   19.6835 O   0  0  0  0  0  0
  -31.4685  -12.4081   19.1038 H   0  0  0  0  0  0
  -30.3384  -11.2830   19.8059 H   0  0  0  0  0  0
  -29.7350  -11.7894   17.4133 H   0  0  0  0  0  0
  -29.6436  -13.4934   17.7823 H   0  0  0  0  0  0
  -27.8256  -11.2769   18.8061 H   0  0  0  0  0  0
  -27.3564  -12.6056   17.7829 H   0  0  0  0  0  0
  -27.6984  -14.1925   19.5425 H   0  0  0  0  0  0
  -28.6813  -11.9249   21.3284 H   0  0  0  0  0  0
  -28.4572  -13.5602   21.8680 H   0  0  0  0  0  0
  -25.2716   -9.5669   22.4786 H   0  0  0  0  0  0
  -23.9972   -7.4593   22.7465 H   0  0  0  0  0  0
  -21.0817   -8.8744   19.8946 H   0  0  0  0  0  0
  -22.3642  -10.9665   19.6177 H   0  0  0  0  0  0
  -21.2003   -7.6138   23.9710 H   0  0  0  0  0  0
  -21.1481   -6.0507   25.9065 H   0  0  0  0  0  0
  -22.0611   -2.7600   23.2816 H   0  0  0  0  0  0
  -22.4052  -11.9940   22.4884 H   0  0  0  0  0  0
  -21.1088  -13.1314   22.2626 H   0  0  0  0  0  0
  -24.5975  -15.7717   20.3813 H   0  0  0  0  0  0
  -26.1750  -15.5633   19.8405 H   0  0  0  0  0  0
  -26.7093  -32.5548   23.1174 H   0  0  0  0  0  0
  -25.0085  -33.9809   25.0506 H   0  0  0  0  0  0
  -22.6869  -31.3074   21.4132 H   0  0  0  0  0  0
  -23.3751  -35.9632   23.3344 H   0  0  0  0  0  0
  -24.3572  -36.8873   22.2054 H   0  0  0  0  0  0
  -23.7183  -37.6512   23.6611 H   0  0  0  0  0  0
  -26.0275  -31.5989   20.5833 H   0  0  0  0  0  0
  -26.8166  -30.9036   21.9719 H   0  0  0  0  0  0
  -28.1013  -29.1405   21.1464 H   0  0  0  0  0  0
  -26.0908  -25.9734   19.0201 H   0  0  0  0  0  0
  -23.9793  -27.2770   19.0601 H   0  0  0  0  0  0
  -23.7151  -30.5876   19.4082 H   0  0  0  0  0  0
  -22.7294  -29.2360   19.8731 H   0  0  0  0  0  0
  -25.1268  -36.2021   25.0829 H   0  0  0  0  0  0
  -20.9937  -28.3192   24.1472 H   0  0  0  0  0  0
  -20.5682  -26.2240   23.3622 H   0  0  0  0  0  0
  -21.6628  -26.7435   22.1210 H   0  0  0  0  0  0
  -19.6902  -25.6297   21.1243 H   0  0  0  0  0  0
  -19.6680  -27.3205   20.6775 H   0  0  0  0  0  0
  -17.4191  -26.6701   21.4022 H   0  0  0  0  0  0
  -18.0282  -26.0036   22.9004 H   0  0  0  0  0  0
  -19.7923  -30.7255   24.2298 H   0  0  0  0  0  0
  -17.5004  -31.6268   24.5151 H   0  0  0  0  0  0
  -15.5345  -30.2996   23.7634 H   0  0  0  0  0  0
  -15.8654  -28.0819   22.7071 H   0  0  0  0  0  0
  -24.5867  -30.7096   25.7809 H   0  0  0  0  0  0
  -24.8889  -32.2904   26.4924 H   0  0  0  0  0  0
  -25.8043  -30.8901   27.0239 H   0  0  0  0  0  0
  -26.2767  -29.6892   24.1099 H   0  0  0  0  0  0
  -27.3966  -29.7269   25.4541 H   0  0  0  0  0  0
  -27.8639  -30.4405   23.9254 H   0  0  0  0  0  0
  -27.2644  -33.3632   26.2095 H   0  0  0  0  0  0
  -28.3813  -32.6919   25.0306 H   0  0  0  0  0  0
  -28.0706  -31.8442   26.5385 H   0  0  0  0  0  0
  -28.2625  -38.0085   24.7531 H   0  0  0  0  0  0
  -28.1040  -36.2625   24.6288 H   0  0  0  0  0  0
  -27.2308  -37.1453   25.8882 H   0  0  0  0  0  0
  -20.9317  -29.8711   21.6960 H   0  0  0  0  0  0
  -26.0190  -38.2918   24.1432 H   0  0  0  0  0  0
  -31.4395  -19.5633   19.4666 H   0  0  0  0  0  0
  -29.4173  -19.8260   18.0569 H   0  0  0  0  0  0
  -31.7292  -17.5503   20.8931 H   0  0  0  0  0  0
  -27.8363  -16.1758   19.6445 H   0  0  0  0  0  0
  -27.0540  -23.7469   22.2263 H   0  0  0  0  0  0
  -26.1078  -24.4379   20.9282 H   0  0  0  0  0  0
  -28.1965  -24.3776   19.4416 H   0  0  0  0  0  0
  -29.0759  -23.6974   20.7769 H   0  0  0  0  0  0
  -24.8894  -18.2786   19.5281 H   0  0  0  0  0  0
  -23.1805  -18.5323   19.4520 H   0  0  0  0  0  0
  -23.3472  -19.4367   17.1604 H   0  0  0  0  0  0
  -24.0972  -17.8771   17.2699 H   0  0  0  0  0  0
  -23.3271  -20.7947   19.9472 H   0  0  0  0  0  0
  -24.7483  -21.0206   18.9884 H   0  0  0  0  0  0
  -25.4065  -20.5701   16.8131 H   0  0  0  0  0  0
  -25.6205  -19.0849   15.9356 H   0  0  0  0  0  0
  -26.0532  -19.7317   20.8762 H   0  0  0  0  0  0
  -24.6238  -19.9812   21.8481 H   0  0  0  0  0  0
  -29.6459  -25.8052   21.3186 H   0  0  0  0  0  0
  -28.0442  -26.0181   21.9580 H   0  0  0  0  0  0
  -29.1026  -15.1195   21.4734 H   0  0  0  0  0  0
  -27.1074  -20.0223   18.2290 H   0  0  0  0  0  0
  -25.2068  -22.1999   22.0898 H   0  0  0  0  0  0
  1 25  1  0  0  0
  1 30  2  0  0  0
  1 87  1  0  0  0
  2  3  1  0  0  0
  2 25  1  0  0  0
  2 92  1  0  0  0
  2 93  1  0  0  0
  3  4  1  0  0  0
  3 94  1  0  0  0
  3 95  1  0  0  0
  4  5  1  0  0  0
  4 96  1  0  0  0
  4 97  1  0  0  0
  5  6  1  0  0  0
  5 26  1  0  0  0
  5 98  1  0  0  0
  6 25  1  0  0  0
  6 99  1  0  0  0
  6100  1  0  0  0
  7  8  2  0  0  0
  7 26  1  0  0  0
  7 29  1  0  0  0
  8  9  1  0  0  0
  8 22  1  0  0  0
  9 10  1  0  0  0
  9 27  2  0  0  0
 10 11  2  0  0  0
 10 15  1  0  0  0
 11 12  1  0  0  0
 11101  1  0  0  0
 12 13  2  0  0  0
 12102  1  0  0  0
 13 14  1  0  0  0
 13 31  1  0  0  0
 14 15  2  0  0  0
 14103  1  0  0  0
 15104  1  0  0  0
 16 17  2  0  0  0
 16 21  1  0  0  0
 16 31  1  0  0  0
 17 18  1  0  0  0
 17105  1  0  0  0
 18 19  2  0  0  0
 18106  1  0  0  0
 19 20  1  0  0  0
 19 24  1  0  0  0
 20 21  2  0  0  0
 20107  1  0  0  0
 21 23  1  0  0  0
 22 28  1  0  0  0
 22 32  2  0  0  0
 26 27  1  0  0  0
 28108  1  0  0  0
 28109  1  0  0  0
 29110  1  0  0  0
 29111  1  0  0  0
 33 34  1  0  0  0
 33 66  1  0  0  0
 33 70  2  0  0  0
 34 36  1  0  0  0
 34 59  1  0  0  0
 34112  1  0  0  0
 35 44  2  0  0  0
 35 45  1  0  0  0
 35 68  1  0  0  0
 36 56  1  0  0  0
 36113  1  0  0  0
 37 39  1  0  0  0
 37 47  1  0  0  0
 37 66  1  0  0  0
 37114  1  0  0  0
 38 43  2  0  0  0
 38 46  1  0  0  0
 38 47  1  0  0  0
 39 64  1  0  0  0
 39 67  2  0  0  0
 40 52  1  0  0  0
 40 53  2  0  0  0
 40 58  1  0  0  0
 41115  1  0  0  0
 41116  1  0  0  0
 41117  1  0  0  0
 41 48  1  0  0  0
 42 43  1  0  0  0
 42 66  1  0  0  0
 42118  1  0  0  0
 42119  1  0  0  0
 43 44  1  0  0  0
 44120  1  0  0  0
 45 46  2  0  0  0
 45121  1  0  0  0
 46122  1  0  0  0
 47123  1  0  0  0
 47124  1  0  0  0
 48 56  1  0  0  0
 48 65  1  0  0  0
 48125  1  0  0  0
 49 50  1  0  0  0
 49 53  1  0  0  0
 49 64  1  0  0  0
 49126  1  0  0  0
 50 51  1  0  0  0
 50127  1  0  0  0
 50128  1  0  0  0
 51 52  1  0  0  0
 51129  1  0  0  0
 51130  1  0  0  0
 52131  1  0  0  0
 52132  1  0  0  0
 53 54  1  0  0  0
 54 55  2  0  0  0
 54133  1  0  0  0
 55 57  1  0  0  0
 55134  1  0  0  0
 56 69  2  0  0  0
 57 58  2  0  0  0
 57135  1  0  0  0
 58136  1  0  0  0
 59 60  1  0  0  0
 59 61  1  0  0  0
 59 62  1  0  0  0
 60137  1  0  0  0
 60138  1  0  0  0
 60139  1  0  0  0
 61140  1  0  0  0
 61141  1  0  0  0
 61142  1  0  0  0
 62143  1  0  0  0
 62144  1  0  0  0
 62145  1  0  0  0
 63 65  1  0  0  0
 63146  1  0  0  0
 63147  1  0  0  0
 63148  1  0  0  0
 64149  1  0  0  0
 65150  1  0  0  0
 68 86  1  0  0  0
 71 72  2  0  0  0
 71 73  1  0  0  0
 71151  1  0  0  0
 72 75  1  0  0  0
 72152  1  0  0  0
 73 76  2  0  0  0
 73153  1  0  0  0
 74 75  2  0  0  0
 74 76  1  0  0  0
 74154  1  0  0  0
 75 77  1  0  0  0
 76 87  1  0  0  0
 77 88  1  0  0  0
 77 90  2  0  0  0
 78 79  1  0  0  0
 78 89  1  0  0  0
 78 91  2  0  0  0
 79 80  1  0  0  0
 79155  1  0  0  0
 79156  1  0  0  0
 80 86  1  0  0  0
 80157  1  0  0  0
 80158  1  0  0  0
 81 82  1  0  0  0
 81 83  1  0  0  0
 81159  1  0  0  0
 81160  1  0  0  0
 82 84  1  0  0  0
 82161  1  0  0  0
 82162  1  0  0  0
 83 85  1  0  0  0
 83163  1  0  0  0
 83164  1  0  0  0
 84 88  1  0  0  0
 84165  1  0  0  0
 84166  1  0  0  0
 85 89  1  0  0  0
 85167  1  0  0  0
 85168  1  0  0  0
 86169  1  0  0  0
 86170  1  0  0  0
 87171  1  0  0  0
 88172  1  0  0  0
 89173  1  0  0  0
M  ISO  4   1 100  68 101  86 101  87 100
M  END
> <chiral flag>
0

> <version>
0

> <s_m_source_file>
/data/baiqing/PycharmProjects/Reinvent-master-3.2/result/LINK_invent/BTK/process_docking_weight1_custom_sum_contain_oxygen_bond_distance_aromatic_linkinvent_7_9_3/rearranged_h_0006.sdf

> <i_m_source_file_index>
54

> <r_mmod_Potential_Energy-OPLS-2005>
-171.369491577148

> <r_mmod_Stretch_Energy-OPLS-2005>
32.8377723693848

> <r_mmod_Bend_Energy-OPLS-2005>
92.4751129150391

> <r_mmod_Torsional_Energy-OPLS-2005>
308.338348388672

> <r_mmod_Improper_Torsional_Energy-OPLS-2005>
9.95774745941162

> <r_mmod_Van_der_Waal_Energy-OPLS-2005>
138.05712890625

> <r_mmod_Electrostatic_Energy-OPLS-2005>
-527.938659667969

> <r_mmod_Solvation_Energy-OPLS-2005>
-236.092407226562

> <b_mmod_Minimization_Converged-OPLS-2005>
0

> <r_mmod_RMS_Derivative-OPLS-2005>
3.05832004547119

$$$$
54
                    3D
 Structure written by MMmdl.
185192  0  0  1  0            999 V2000
  -30.7326  -14.3951   20.5828 C   0  0  0  0  0  0
  -30.4159  -12.2571   19.4252 C   0  0  0  0  0  0
  -29.5005  -12.5275   18.2156 C   0  0  0  0  0  0
  -28.0157  -12.4019   18.6130 C   0  0  0  0  0  0
  -27.6724  -13.2084   19.8959 C   0  0  2  0  0  0
  -28.7117  -12.9506   21.0176 C   0  0  0  0  0  0
  -25.2598  -13.8159   20.5720 C   0  0  0  0  0  0
  -24.1783  -13.0391   20.9148 C   0  0  0  0  0  0
  -24.6392  -11.6893   20.8720 C   0  0  0  0  0  0
  -23.9020  -10.4300   21.0395 C   0  0  0  0  0  0
  -24.3594   -9.4233   21.9157 C   0  0  0  0  0  0
  -23.6257   -8.2290   22.0765 C   0  0  0  0  0  0
  -22.4249   -8.0296   21.3538 C   0  0  0  0  0  0
  -21.9857   -9.0275   20.4650 C   0  0  0  0  0  0
  -22.7220  -10.2156   20.3035 C   0  0  0  0  0  0
  -21.6839   -6.0702   22.5264 C   0  0  0  0  0  0
  -21.4052   -6.5605   23.8219 C   0  0  0  0  0  0
  -21.3659   -5.6772   24.9161 C   0  0  0  0  0  0
  -21.6079   -4.3024   24.7238 C   0  0  0  0  0  0
  -21.8788   -3.8113   23.4339 C   0  0  0  0  0  0
  -21.9232   -4.6920   22.3414 C   0  0  0  0  0  0
  -22.7847  -13.5280   21.1758 C   0  0  0  0  0  0
  -22.1664   -4.2101   21.0978 F   0  0  0  0  0  0
  -21.5639   -3.4519   25.7741 F   0  0  0  0  0  0
  -30.0616  -13.2223   20.4833 N   0  0  0  0  0  0
  -26.3046  -12.9369   20.3456 N   0  0  0  0  0  0
  -25.9324  -11.6517   20.5784 N   0  0  0  0  0  0
  -22.0460  -12.8294   22.0328 N   0  0  0  0  0  0
  -25.4303  -15.1852   20.4171 N   0  0  0  0  0  0
  -31.8209  -14.5910   20.0228 O   0  0  0  0  0  0
  -21.6628   -6.8841   21.4232 O   0  0  0  0  0  0
  -22.3505  -14.5587   20.6586 O   0  0  0  0  0  0
  -24.6101  -31.8691   23.2160 C   0  0  0  0  0  0
  -25.9015  -32.4835   23.8372 C   0  0  1  0  0  0
  -27.2274  -27.4647   20.0744 C   0  0  0  0  0  0
  -25.5895  -33.8656   24.2285 N   0  0  0  0  0  0
  -23.3947  -30.5021   21.5513 C   0  0  2  0  0  0
  -24.8374  -28.9706   20.1211 C   0  0  0  0  0  0
  -22.7363  -29.4630   22.4931 C   0  0  0  0  0  0
  -18.0253  -28.1401   22.8513 C   0  0  0  0  0  0
  -24.1472  -36.7331   23.2615 C   0  0  0  0  0  0
  -25.9247  -30.8332   21.3680 C   0  0  0  0  0  0
  -25.9953  -29.4662   20.7300 C   0  0  0  0  0  0
  -27.1958  -28.7199   20.7239 C   0  0  0  0  0  0
  -26.0596  -26.9798   19.4574 C   0  0  0  0  0  0
  -24.8606  -27.7175   19.4858 C   0  0  0  0  0  0
  -23.5997  -29.8399   20.1640 C   0  0  0  0  0  0
  -25.4091  -36.3128   24.0301 C   0  0  1  0  0  0
  -20.5837  -28.3649   23.1365 C   0  0  2  0  0  0
  -20.6790  -26.9400   22.5452 C   0  0  0  0  0  0
  -19.5754  -26.6411   21.5261 C   0  0  0  0  0  0
  -18.1919  -26.7962   22.1648 C   0  0  0  0  0  0
  -19.1513  -28.8860   23.2947 C   0  0  0  0  0  0
  -18.9414  -30.1486   23.8930 C   0  0  0  0  0  0
  -17.6415  -30.6621   24.0596 C   0  0  0  0  0  0
  -25.9031  -34.9491   23.5103 C   0  0  0  0  0  0
  -16.5304  -29.9123   23.6332 C   0  0  0  0  0  0
  -16.7251  -28.6534   23.0364 C   0  0  0  0  0  0
  -26.4438  -31.6627   25.0718 C   0  0  0  0  0  0
  -25.3697  -31.3806   26.1476 C   0  0  0  0  0  0
  -27.0201  -30.3027   24.6111 C   0  0  0  0  0  0
  -27.5986  -32.4361   25.7515 C   0  0  0  0  0  0
  -27.5582  -37.1808   24.8429 C   0  0  0  0  0  0
  -21.4065  -29.2999   22.3735 N   0  0  0  0  0  0
  -26.4260  -37.3817   23.9431 N   0  0  0  0  0  0
  -24.6621  -31.0838   22.1000 N   0  0  0  0  0  0
  -23.4202  -28.8090   23.2864 O   0  0  0  0  0  0
  -28.3924  -26.7473   19.9196 O   0  0  0  0  0  0
  -26.5635  -34.8927   22.4673 O   0  0  0  0  0  0
  -23.5317  -32.1380   23.7619 O   0  0  0  0  0  0
  -33.4805  -20.3937   19.3127 C   0  0  0  0  0  0
  -31.7271  -21.2181   23.9593 C   0  0  0  0  0  0
  -28.3219  -24.7441   21.3286 C   0  0  0  0  0  0
  -32.0869  -20.9741   19.1348 C   0  0  0  0  0  0
  -31.7365  -19.6965   24.1599 C   0  0  0  0  0  0
  -28.9632  -26.1294   21.0756 C   0  0  0  0  0  0
  -31.0415  -19.8370   19.2258 C   0  0  0  0  0  0
  -32.6229  -18.9436   23.1458 C   0  0  0  0  0  0
  -29.8309  -20.1426   20.1193 C   0  0  0  0  0  0
  -34.1568  -19.1356   23.2697 C   0  0  0  0  0  0
  -28.7961  -18.9964   20.1450 C   0  0  0  0  0  0
  -34.9211  -18.6744   22.0155 C   0  0  0  0  0  0
  -29.1667  -17.7774   21.0295 C   0  0  0  0  0  0
  -35.2368  -19.7405   20.9335 C   0  0  0  0  0  0
  -29.9853  -16.6713   20.3462 C   0  0  0  0  0  0
  -30.4222  -23.3034   23.7839 C   0  0  0  0  0  0
  -30.4122  -23.6762   22.2914 C   0  0  0  0  0  0
  -34.0883  -20.5318   20.4994 N   0  0  0  0  0  0
  -30.5531  -21.8609   23.9913 N   0  0  0  0  0  0
  -29.0398  -23.7179   21.7964 N   0  0  0  0  0  0
  -30.0737  -15.4260   21.1110 N   0  0  0  0  0  0
  -33.9666  -19.7412   18.3985 O   0  0  0  0  0  0
  -32.7723  -21.8275   23.7485 O   0  0  0  0  0  0
  -27.1287  -24.5613   21.0774 O   0  0  0  0  0  0
  -31.4589  -12.3400   19.1186 H   0  0  0  0  0  0
  -30.2966  -11.2322   19.7804 H   0  0  0  0  0  0
  -29.7375  -11.8411   17.4018 H   0  0  0  0  0  0
  -29.6929  -13.5303   17.8350 H   0  0  0  0  0  0
  -27.7998  -11.3440   18.7642 H   0  0  0  0  0  0
  -27.3772  -12.7262   17.7906 H   0  0  0  0  0  0
  -27.7312  -14.2637   19.6334 H   0  0  0  0  0  0
  -28.6513  -11.9117   21.3481 H   0  0  0  0  0  0
  -28.4848  -13.5541   21.8970 H   0  0  0  0  0  0
  -25.2713   -9.5697   22.4709 H   0  0  0  0  0  0
  -23.9962   -7.4672   22.7478 H   0  0  0  0  0  0
  -21.0795   -8.8777   19.8941 H   0  0  0  0  0  0
  -22.3651  -10.9674   19.6125 H   0  0  0  0  0  0
  -21.2019   -7.6108   23.9686 H   0  0  0  0  0  0
  -21.1524   -6.0493   25.9069 H   0  0  0  0  0  0
  -22.0580   -2.7560   23.2872 H   0  0  0  0  0  0
  -22.4104  -11.9988   22.4758 H   0  0  0  0  0  0
  -21.1090  -13.1344   22.2567 H   0  0  0  0  0  0
  -24.6668  -15.8455   20.5278 H   0  0  0  0  0  0
  -26.2993  -15.6221   20.1274 H   0  0  0  0  0  0
  -26.7108  -32.5532   23.1150 H   0  0  0  0  0  0
  -25.0033  -33.9762   25.0434 H   0  0  0  0  0  0
  -22.6757  -31.3143   21.4290 H   0  0  0  0  0  0
  -23.3731  -35.9677   23.3261 H   0  0  0  0  0  0
  -24.3553  -36.8972   22.2038 H   0  0  0  0  0  0
  -23.7228  -37.6524   23.6638 H   0  0  0  0  0  0
  -26.0377  -31.5757   20.5773 H   0  0  0  0  0  0
  -26.8178  -30.8944   21.9783 H   0  0  0  0  0  0
  -28.0949  -29.1136   21.1761 H   0  0  0  0  0  0
  -26.0803  -26.0322   18.9376 H   0  0  0  0  0  0
  -23.9739  -27.3376   19.0026 H   0  0  0  0  0  0
  -23.7033  -30.6170   19.4076 H   0  0  0  0  0  0
  -22.7229  -29.2635   19.8702 H   0  0  0  0  0  0
  -25.1279  -36.1968   25.0792 H   0  0  0  0  0  0
  -21.0000  -28.3261   24.1456 H   0  0  0  0  0  0
  -20.5795  -26.2198   23.3596 H   0  0  0  0  0  0
  -21.6637  -26.7502   22.1169 H   0  0  0  0  0  0
  -19.6903  -25.6337   21.1251 H   0  0  0  0  0  0
  -19.6775  -27.3261   20.6836 H   0  0  0  0  0  0
  -17.4213  -26.6736   21.4028 H   0  0  0  0  0  0
  -18.0310  -26.0089   22.9029 H   0  0  0  0  0  0
  -19.7870  -30.7364   24.2263 H   0  0  0  0  0  0
  -17.4935  -31.6281   24.5232 H   0  0  0  0  0  0
  -15.5316  -30.3077   23.7625 H   0  0  0  0  0  0
  -15.8608  -28.0919   22.7055 H   0  0  0  0  0  0
  -24.5907  -30.7078   25.7886 H   0  0  0  0  0  0
  -24.8853  -32.2999   26.4784 H   0  0  0  0  0  0
  -25.8075  -30.9130   27.0301 H   0  0  0  0  0  0
  -26.2732  -29.6930   24.1010 H   0  0  0  0  0  0
  -27.3725  -29.7157   25.4602 H   0  0  0  0  0  0
  -27.8687  -30.4282   23.9380 H   0  0  0  0  0  0
  -27.2543  -33.3662   26.2054 H   0  0  0  0  0  0
  -28.3849  -32.6933   25.0407 H   0  0  0  0  0  0
  -28.0566  -31.8502   26.5493 H   0  0  0  0  0  0
  -28.2563  -38.0150   24.7597 H   0  0  0  0  0  0
  -28.1124  -36.2705   24.6120 H   0  0  0  0  0  0
  -27.2302  -37.1288   25.8818 H   0  0  0  0  0  0
  -20.9208  -29.8677   21.6946 H   0  0  0  0  0  0
  -26.0140  -38.2857   24.1576 H   0  0  0  0  0  0
  -32.0119  -21.4737   18.1663 H   0  0  0  0  0  0
  -31.9148  -21.7387   19.8880 H   0  0  0  0  0  0
  -30.7158  -19.3309   24.0487 H   0  0  0  0  0  0
  -32.0200  -19.4545   25.1854 H   0  0  0  0  0  0
  -28.8955  -26.7573   21.9635 H   0  0  0  0  0  0
  -30.0194  -26.0120   20.8309 H   0  0  0  0  0  0
  -31.5265  -18.9580   19.6330 H   0  0  0  0  0  0
  -30.7093  -19.5461   18.2273 H   0  0  0  0  0  0
  -32.2961  -19.2088   22.1438 H   0  0  0  0  0  0
  -32.4209  -17.8787   23.2402 H   0  0  0  0  0  0
  -29.3469  -21.0582   19.7621 H   0  0  0  0  0  0
  -30.1611  -20.3638   21.1365 H   0  0  0  0  0  0
  -34.4944  -18.5432   24.1232 H   0  0  0  0  0  0
  -34.4583  -20.1549   23.5076 H   0  0  0  0  0  0
  -28.5546  -18.6808   19.1294 H   0  0  0  0  0  0
  -27.8654  -19.4205   20.5305 H   0  0  0  0  0  0
  -34.3846  -17.8391   21.5678 H   0  0  0  0  0  0
  -35.8764  -18.2613   22.3356 H   0  0  0  0  0  0
  -28.2299  -17.3257   21.3566 H   0  0  0  0  0  0
  -29.6815  -18.1088   21.9286 H   0  0  0  0  0  0
  -35.6451  -19.1982   20.0808 H   0  0  0  0  0  0
  -36.0415  -20.4007   21.2628 H   0  0  0  0  0  0
  -29.5354  -16.4653   19.3645 H   0  0  0  0  0  0
  -30.9948  -17.0184   20.1145 H   0  0  0  0  0  0
  -29.5405  -23.6876   24.2980 H   0  0  0  0  0  0
  -31.2669  -23.8032   24.2588 H   0  0  0  0  0  0
  -30.9797  -22.9703   21.6839 H   0  0  0  0  0  0
  -30.9255  -24.6268   22.1910 H   0  0  0  0  0  0
  -33.6988  -21.1616   21.1815 H   0  0  0  0  0  0
  -29.7115  -21.3280   24.1647 H   0  0  0  0  0  0
  -28.5404  -22.8407   21.8492 H   0  0  0  0  0  0
  -29.4533  -15.2603   21.8816 H   0  0  0  0  0  0
  1 25  1  0  0  0
  1 30  2  0  0  0
  1 91  1  0  0  0
  2  3  1  0  0  0
  2 25  1  0  0  0
  2 95  1  0  0  0
  2 96  1  0  0  0
  3  4  1  0  0  0
  3 97  1  0  0  0
  3 98  1  0  0  0
  4  5  1  0  0  0
  4 99  1  0  0  0
  4100  1  0  0  0
  5  6  1  0  0  0
  5 26  1  0  0  0
  5101  1  0  0  0
  6 25  1  0  0  0
  6102  1  0  0  0
  6103  1  0  0  0
  7  8  2  0  0  0
  7 26  1  0  0  0
  7 29  1  0  0  0
  8  9  1  0  0  0
  8 22  1  0  0  0
  9 10  1  0  0  0
  9 27  2  0  0  0
 10 11  2  0  0  0
 10 15  1  0  0  0
 11 12  1  0  0  0
 11104  1  0  0  0
 12 13  2  0  0  0
 12105  1  0  0  0
 13 14  1  0  0  0
 13 31  1  0  0  0
 14 15  2  0  0  0
 14106  1  0  0  0
 15107  1  0  0  0
 16 17  2  0  0  0
 16 21  1  0  0  0
 16 31  1  0  0  0
 17 18  1  0  0  0
 17108  1  0  0  0
 18 19  2  0  0  0
 18109  1  0  0  0
 19 20  1  0  0  0
 19 24  1  0  0  0
 20 21  2  0  0  0
 20110  1  0  0  0
 21 23  1  0  0  0
 22 28  1  0  0  0
 22 32  2  0  0  0
 26 27  1  0  0  0
 28111  1  0  0  0
 28112  1  0  0  0
 29113  1  0  0  0
 29114  1  0  0  0
 33 34  1  0  0  0
 33 66  1  0  0  0
 33 70  2  0  0  0
 34 36  1  0  0  0
 34 59  1  0  0  0
 34115  1  0  0  0
 35 44  2  0  0  0
 35 45  1  0  0  0
 35 68  1  0  0  0
 36 56  1  0  0  0
 36116  1  0  0  0
 37 39  1  0  0  0
 37 47  1  0  0  0
 37 66  1  0  0  0
 37117  1  0  0  0
 38 43  2  0  0  0
 38 46  1  0  0  0
 38 47  1  0  0  0
 39 64  1  0  0  0
 39 67  2  0  0  0
 40 52  1  0  0  0
 40 53  2  0  0  0
 40 58  1  0  0  0
 41118  1  0  0  0
 41119  1  0  0  0
 41120  1  0  0  0
 41 48  1  0  0  0
 42 43  1  0  0  0
 42 66  1  0  0  0
 42121  1  0  0  0
 42122  1  0  0  0
 43 44  1  0  0  0
 44123  1  0  0  0
 45 46  2  0  0  0
 45124  1  0  0  0
 46125  1  0  0  0
 47126  1  0  0  0
 47127  1  0  0  0
 48 56  1  0  0  0
 48 65  1  0  0  0
 48128  1  0  0  0
 49 50  1  0  0  0
 49 53  1  0  0  0
 49 64  1  0  0  0
 49129  1  0  0  0
 50 51  1  0  0  0
 50130  1  0  0  0
 50131  1  0  0  0
 51 52  1  0  0  0
 51132  1  0  0  0
 51133  1  0  0  0
 52134  1  0  0  0
 52135  1  0  0  0
 53 54  1  0  0  0
 54 55  2  0  0  0
 54136  1  0  0  0
 55 57  1  0  0  0
 55137  1  0  0  0
 56 69  2  0  0  0
 57 58  2  0  0  0
 57138  1  0  0  0
 58139  1  0  0  0
 59 60  1  0  0  0
 59 61  1  0  0  0
 59 62  1  0  0  0
 60140  1  0  0  0
 60141  1  0  0  0
 60142  1  0  0  0
 61143  1  0  0  0
 61144  1  0  0  0
 61145  1  0  0  0
 62146  1  0  0  0
 62147  1  0  0  0
 62148  1  0  0  0
 63 65  1  0  0  0
 63149  1  0  0  0
 63150  1  0  0  0
 63151  1  0  0  0
 64152  1  0  0  0
 65153  1  0  0  0
 68 76  1  0  0  0
 71 74  1  0  0  0
 71 88  1  0  0  0
 71 92  2  0  0  0
 72 75  1  0  0  0
 72 89  1  0  0  0
 72 93  2  0  0  0
 73 76  1  0  0  0
 73 90  1  0  0  0
 73 94  2  0  0  0
 74 77  1  0  0  0
 74154  1  0  0  0
 74155  1  0  0  0
 75 78  1  0  0  0
 75156  1  0  0  0
 75157  1  0  0  0
 76158  1  0  0  0
 76159  1  0  0  0
 77 79  1  0  0  0
 77160  1  0  0  0
 77161  1  0  0  0
 78 80  1  0  0  0
 78162  1  0  0  0
 78163  1  0  0  0
 79 81  1  0  0  0
 79164  1  0  0  0
 79165  1  0  0  0
 80 82  1  0  0  0
 80166  1  0  0  0
 80167  1  0  0  0
 81 83  1  0  0  0
 81168  1  0  0  0
 81169  1  0  0  0
 82 84  1  0  0  0
 82170  1  0  0  0
 82171  1  0  0  0
 83 85  1  0  0  0
 83172  1  0  0  0
 83173  1  0  0  0
 84 88  1  0  0  0
 84174  1  0  0  0
 84175  1  0  0  0
 85 91  1  0  0  0
 85176  1  0  0  0
 85177  1  0  0  0
 86 87  1  0  0  0
 86 89  1  0  0  0
 86178  1  0  0  0
 86179  1  0  0  0
 87 90  1  0  0  0
 87180  1  0  0  0
 87181  1  0  0  0
 88182  1  0  0  0
 89183  1  0  0  0
 90184  1  0  0  0
 91185  1  0  0  0
M  ISO  4   1 100  68 101  76 101  91 100
M  END
> <chiral flag>
0

> <version>
0

> <s_m_source_file>
/data/baiqing/PycharmProjects/Reinvent-master-3.2/result/LINK_invent/BTK/process_docking_weight1_custom_sum_contain_oxygen_bond_distance_aromatic_linkinvent_7_9_3/rearranged_h_0006.sdf

> <i_m_source_file_index>
55

> <r_mmod_Potential_Energy-OPLS-2005>
-218.888198852539

> <r_mmod_Stretch_Energy-OPLS-2005>
36.2818145751953

> <r_mmod_Bend_Energy-OPLS-2005>
122.536415100098

> <r_mmod_Torsional_Energy-OPLS-2005>
305.149536132812

> <r_mmod_Improper_Torsional_Energy-OPLS-2005>
7.5066065788269

> <r_mmod_Van_der_Waal_Energy-OPLS-2005>
123.672904968262

> <r_mmod_Electrostatic_Energy-OPLS-2005>
-533.672546386719

> <r_mmod_Solvation_Energy-OPLS-2005>
-290.663391113281

> <b_mmod_Minimization_Converged-OPLS-2005>
0

> <r_mmod_RMS_Derivative-OPLS-2005>
14.7801208496094

$$$$
55
                    3D
 Structure written by MMmdl.
158166  0  0  1  0            999 V2000
  -30.6626  -14.7364   20.4153 C   0  0  0  0  0  0
  -30.4214  -12.4469   19.4511 C   0  0  0  0  0  0
  -29.5034  -12.5090   18.2147 C   0  0  0  0  0  0
  -28.0239  -12.3707   18.6223 C   0  0  0  0  0  0
  -27.6405  -13.2519   19.8433 C   0  0  2  0  0  0
  -28.7001  -13.1988   20.9669 C   0  0  0  0  0  0
  -25.2479  -13.8236   20.5695 C   0  0  0  0  0  0
  -24.1826  -13.0439   20.9224 C   0  0  0  0  0  0
  -24.6466  -11.6937   20.8755 C   0  0  0  0  0  0
  -23.9150  -10.4307   21.0385 C   0  0  0  0  0  0
  -24.3666   -9.4213   21.9157 C   0  0  0  0  0  0
  -23.6332   -8.2250   22.0730 C   0  0  0  0  0  0
  -22.4313   -8.0281   21.3523 C   0  0  0  0  0  0
  -21.9963   -9.0279   20.4649 C   0  0  0  0  0  0
  -22.7306  -10.2137   20.3058 C   0  0  0  0  0  0
  -21.6872   -6.0737   22.5273 C   0  0  0  0  0  0
  -21.4038   -6.5641   23.8213 C   0  0  0  0  0  0
  -21.3680   -5.6784   24.9179 C   0  0  0  0  0  0
  -21.6046   -4.3055   24.7206 C   0  0  0  0  0  0
  -21.8818   -3.8145   23.4337 C   0  0  0  0  0  0
  -21.9192   -4.6964   22.3386 C   0  0  0  0  0  0
  -22.7824  -13.5184   21.1851 C   0  0  0  0  0  0
  -22.1650   -4.2167   21.0958 F   0  0  0  0  0  0
  -21.5628   -3.4518   25.7712 F   0  0  0  0  0  0
  -29.9989  -13.5295   20.3680 N   0  0  0  0  0  0
  -26.2971  -12.9490   20.3281 N   0  0  0  0  0  0
  -25.9413  -11.6612   20.5777 N   0  0  0  0  0  0
  -22.0483  -12.8186   22.0427 N   0  0  0  0  0  0
  -25.4029  -15.1977   20.4078 N   0  0  0  0  0  0
  -31.8615  -14.7709   20.1371 O   0  0  0  0  0  0
  -21.6657   -6.8890   21.4238 O   0  0  0  0  0  0
  -22.3492  -14.5449   20.6658 O   0  0  0  0  0  0
  -24.6246  -31.8592   23.2015 C   0  0  0  0  0  0
  -25.9084  -32.4777   23.8348 C   0  0  1  0  0  0
  -27.2088  -27.2807   20.1484 C   0  0  0  0  0  0
  -25.5921  -33.8582   24.2268 N   0  0  0  0  0  0
  -23.4226  -30.4824   21.5419 C   0  0  2  0  0  0
  -24.8736  -28.9340   20.1092 C   0  0  0  0  0  0
  -22.7490  -29.4588   22.4890 C   0  0  0  0  0  0
  -18.0295  -28.1398   22.8500 C   0  0  0  0  0  0
  -24.1495  -36.7289   23.2634 C   0  0  0  0  0  0
  -25.9666  -30.7836   21.3780 C   0  0  0  0  0  0
  -26.0429  -29.4069   20.7206 C   0  0  0  0  0  0
  -27.2194  -28.5935   20.7256 C   0  0  0  0  0  0
  -26.0273  -26.8716   19.5007 C   0  0  0  0  0  0
  -24.8706  -27.6768   19.4843 C   0  0  0  0  0  0
  -23.6458  -29.8223   20.1554 C   0  0  0  0  0  0
  -25.4124  -36.3073   24.0317 C   0  0  1  0  0  0
  -20.5898  -28.3692   23.1287 C   0  0  2  0  0  0
  -20.6785  -26.9411   22.5425 C   0  0  0  0  0  0
  -19.5754  -26.6378   21.5236 C   0  0  0  0  0  0
  -18.1929  -26.7941   22.1639 C   0  0  0  0  0  0
  -19.1541  -28.8859   23.2900 C   0  0  0  0  0  0
  -18.9467  -30.1469   23.8917 C   0  0  0  0  0  0
  -17.6459  -30.6597   24.0568 C   0  0  0  0  0  0
  -25.9060  -34.9450   23.5087 C   0  0  0  0  0  0
  -16.5354  -29.9099   23.6324 C   0  0  0  0  0  0
  -16.7268  -28.6524   23.0343 C   0  0  0  0  0  0
  -26.4476  -31.6598   25.0725 C   0  0  0  0  0  0
  -25.3676  -31.3784   26.1429 C   0  0  0  0  0  0
  -27.0307  -30.2998   24.6208 C   0  0  0  0  0  0
  -27.6017  -32.4347   25.7510 C   0  0  0  0  0  0
  -27.5595  -37.1793   24.8443 C   0  0  0  0  0  0
  -21.4199  -29.3034   22.3672 N   0  0  0  0  0  0
  -26.4291  -37.3774   23.9414 N   0  0  0  0  0  0
  -24.6893  -31.0581   22.0972 N   0  0  0  0  0  0
  -23.4213  -28.8117   23.2952 O   0  0  0  0  0  0
  -28.2944  -26.3879   20.1729 O   0  0  0  0  0  0
  -26.5623  -34.8915   22.4646 O   0  0  0  0  0  0
  -23.5405  -32.1400   23.7327 O   0  0  0  0  0  0
  -32.0349  -19.1092   20.4217 C   0  0  0  0  0  0
  -31.6605  -17.7526   20.5122 C   0  0  0  0  0  0
  -29.3534  -18.4398   20.3483 C   0  0  0  0  0  0
  -31.0901  -20.1538   20.2890 C   0  0  0  0  0  0
  -30.3070  -17.3489   20.4553 C   0  0  0  0  0  0
  -29.6956  -19.8648   20.2849 C   0  0  0  0  0  0
  -31.6448  -21.5616   20.0884 C   0  0  0  0  0  0
  -27.4214  -20.4845   19.6471 C   0  0  0  0  0  0
  -28.4637  -23.6567   19.9939 C   0  0  0  0  0  0
  -28.7227  -22.2927   20.8341 C   0  0  0  0  0  0
  -28.0957  -25.0258   20.7740 C   0  0  0  0  0  0
  -29.9177  -15.9088   20.5199 N   0  0  0  0  0  0
  -28.7210  -20.9415   20.1319 N   0  0  0  0  0  0
  -31.4631  -12.5491   19.1424 H   0  0  0  0  0  0
  -30.3459  -11.4735   19.9387 H   0  0  0  0  0  0
  -29.7712  -11.7240   17.5057 H   0  0  0  0  0  0
  -29.6544  -13.4550   17.6908 H   0  0  0  0  0  0
  -27.8351  -11.3199   18.8402 H   0  0  0  0  0  0
  -27.3877  -12.6246   17.7740 H   0  0  0  0  0  0
  -27.6227  -14.2782   19.4723 H   0  0  0  0  0  0
  -28.7358  -12.2139   21.4343 H   0  0  0  0  0  0
  -28.4518  -13.9066   21.7566 H   0  0  0  0  0  0
  -25.2826   -9.5659   22.4726 H   0  0  0  0  0  0
  -24.0037   -7.4649   22.7455 H   0  0  0  0  0  0
  -21.0889   -8.8829   19.8978 H   0  0  0  0  0  0
  -22.3795  -10.9664   19.6168 H   0  0  0  0  0  0
  -21.2049   -7.6152   23.9725 H   0  0  0  0  0  0
  -21.1501   -6.0506   25.9080 H   0  0  0  0  0  0
  -22.0581   -2.7606   23.2811 H   0  0  0  0  0  0
  -22.4125  -11.9932   22.4937 H   0  0  0  0  0  0
  -21.1074  -13.1179   22.2545 H   0  0  0  0  0  0
  -24.6118  -15.8256   20.5102 H   0  0  0  0  0  0
  -26.2276  -15.6546   20.0394 H   0  0  0  0  0  0
  -26.7153  -32.5445   23.1103 H   0  0  0  0  0  0
  -25.0058  -33.9747   25.0410 H   0  0  0  0  0  0
  -22.7144  -31.3030   21.3984 H   0  0  0  0  0  0
  -23.3769  -35.9599   23.3232 H   0  0  0  0  0  0
  -24.3607  -36.8980   22.2064 H   0  0  0  0  0  0
  -23.7231  -37.6463   23.6698 H   0  0  0  0  0  0
  -26.1052  -31.5560   20.6201 H   0  0  0  0  0  0
  -26.8421  -30.8271   22.0141 H   0  0  0  0  0  0
  -28.1143  -28.9584   21.2108 H   0  0  0  0  0  0
  -25.9975  -25.9078   19.0101 H   0  0  0  0  0  0
  -23.9760  -27.3183   18.9931 H   0  0  0  0  0  0
  -23.7815  -30.6061   19.4092 H   0  0  0  0  0  0
  -22.7656  -29.2644   19.8318 H   0  0  0  0  0  0
  -25.1308  -36.1894   25.0807 H   0  0  0  0  0  0
  -21.0001  -28.3259   24.1397 H   0  0  0  0  0  0
  -20.5721  -26.2288   23.3627 H   0  0  0  0  0  0
  -21.6647  -26.7461   22.1188 H   0  0  0  0  0  0
  -19.6914  -25.6280   21.1279 H   0  0  0  0  0  0
  -19.6696  -27.3190   20.6766 H   0  0  0  0  0  0
  -17.4214  -26.6700   21.4026 H   0  0  0  0  0  0
  -18.0310  -26.0095   22.9041 H   0  0  0  0  0  0
  -19.7939  -30.7290   24.2285 H   0  0  0  0  0  0
  -17.5009  -31.6266   24.5179 H   0  0  0  0  0  0
  -15.5354  -30.3003   23.7644 H   0  0  0  0  0  0
  -15.8675  -28.0850   22.7030 H   0  0  0  0  0  0
  -24.5816  -30.7194   25.7734 H   0  0  0  0  0  0
  -24.8927  -32.2991   26.4825 H   0  0  0  0  0  0
  -25.7958  -30.8949   27.0215 H   0  0  0  0  0  0
  -26.2892  -29.6774   24.1189 H   0  0  0  0  0  0
  -27.3932  -29.7237   25.4736 H   0  0  0  0  0  0
  -27.8796  -30.4266   23.9483 H   0  0  0  0  0  0
  -27.2586  -33.3631   26.2090 H   0  0  0  0  0  0
  -28.3827  -32.6946   25.0349 H   0  0  0  0  0  0
  -28.0668  -31.8478   26.5442 H   0  0  0  0  0  0
  -28.2540  -38.0164   24.7567 H   0  0  0  0  0  0
  -28.1170  -36.2695   24.6150 H   0  0  0  0  0  0
  -27.2328  -37.1284   25.8847 H   0  0  0  0  0  0
  -20.9361  -29.8771   21.6914 H   0  0  0  0  0  0
  -26.0150  -38.2822   24.1473 H   0  0  0  0  0  0
  -33.0889  -19.3512   20.4377 H   0  0  0  0  0  0
  -32.4563  -17.0313   20.6112 H   0  0  0  0  0  0
  -28.3204  -18.1403   20.3031 H   0  0  0  0  0  0
  -32.6317  -21.5389   19.6223 H   0  0  0  0  0  0
  -31.7411  -22.0806   21.0431 H   0  0  0  0  0  0
  -31.0106  -22.1510   19.4272 H   0  0  0  0  0  0
  -27.5345  -20.0453   18.6548 H   0  0  0  0  0  0
  -26.6929  -21.2911   19.5733 H   0  0  0  0  0  0
  -26.9878  -19.7348   20.3108 H   0  0  0  0  0  0
  -27.6712  -23.4751   19.2699 H   0  0  0  0  0  0
  -29.3537  -23.8550   19.3979 H   0  0  0  0  0  0
  -27.9472  -22.2273   21.5992 H   0  0  0  0  0  0
  -29.6319  -22.4113   21.4141 H   0  0  0  0  0  0
  -28.6967  -25.0366   21.6827 H   0  0  0  0  0  0
  -27.0723  -24.9356   21.1436 H   0  0  0  0  0  0
  -28.9271  -15.7414   20.5971 H   0  0  0  0  0  0
  1 25  1  0  0  0
  1 30  2  0  0  0
  1 82  1  0  0  0
  2  3  1  0  0  0
  2 25  1  0  0  0
  2 84  1  0  0  0
  2 85  1  0  0  0
  3  4  1  0  0  0
  3 86  1  0  0  0
  3 87  1  0  0  0
  4  5  1  0  0  0
  4 88  1  0  0  0
  4 89  1  0  0  0
  5  6  1  0  0  0
  5 26  1  0  0  0
  5 90  1  0  0  0
  6 25  1  0  0  0
  6 91  1  0  0  0
  6 92  1  0  0  0
  7  8  2  0  0  0
  7 26  1  0  0  0
  7 29  1  0  0  0
  8  9  1  0  0  0
  8 22  1  0  0  0
  9 10  1  0  0  0
  9 27  2  0  0  0
 10 11  2  0  0  0
 10 15  1  0  0  0
 11 12  1  0  0  0
 11 93  1  0  0  0
 12 13  2  0  0  0
 12 94  1  0  0  0
 13 14  1  0  0  0
 13 31  1  0  0  0
 14 15  2  0  0  0
 14 95  1  0  0  0
 15 96  1  0  0  0
 16 17  2  0  0  0
 16 21  1  0  0  0
 16 31  1  0  0  0
 17 18  1  0  0  0
 17 97  1  0  0  0
 18 19  2  0  0  0
 18 98  1  0  0  0
 19 20  1  0  0  0
 19 24  1  0  0  0
 20 21  2  0  0  0
 20 99  1  0  0  0
 21 23  1  0  0  0
 22 28  1  0  0  0
 22 32  2  0  0  0
 26 27  1  0  0  0
 28100  1  0  0  0
 28101  1  0  0  0
 29102  1  0  0  0
 29103  1  0  0  0
 33 34  1  0  0  0
 33 66  1  0  0  0
 33 70  2  0  0  0
 34 36  1  0  0  0
 34 59  1  0  0  0
 34104  1  0  0  0
 35 44  2  0  0  0
 35 45  1  0  0  0
 35 68  1  0  0  0
 36 56  1  0  0  0
 36105  1  0  0  0
 37 39  1  0  0  0
 37 47  1  0  0  0
 37 66  1  0  0  0
 37106  1  0  0  0
 38 43  2  0  0  0
 38 46  1  0  0  0
 38 47  1  0  0  0
 39 64  1  0  0  0
 39 67  2  0  0  0
 40 52  1  0  0  0
 40 53  2  0  0  0
 40 58  1  0  0  0
 41107  1  0  0  0
 41108  1  0  0  0
 41109  1  0  0  0
 41 48  1  0  0  0
 42 43  1  0  0  0
 42 66  1  0  0  0
 42110  1  0  0  0
 42111  1  0  0  0
 43 44  1  0  0  0
 44112  1  0  0  0
 45 46  2  0  0  0
 45113  1  0  0  0
 46114  1  0  0  0
 47115  1  0  0  0
 47116  1  0  0  0
 48 56  1  0  0  0
 48 65  1  0  0  0
 48117  1  0  0  0
 49 50  1  0  0  0
 49 53  1  0  0  0
 49 64  1  0  0  0
 49118  1  0  0  0
 50 51  1  0  0  0
 50119  1  0  0  0
 50120  1  0  0  0
 51 52  1  0  0  0
 51121  1  0  0  0
 51122  1  0  0  0
 52123  1  0  0  0
 52124  1  0  0  0
 53 54  1  0  0  0
 54 55  2  0  0  0
 54125  1  0  0  0
 55 57  1  0  0  0
 55126  1  0  0  0
 56 69  2  0  0  0
 57 58  2  0  0  0
 57127  1  0  0  0
 58128  1  0  0  0
 59 60  1  0  0  0
 59 61  1  0  0  0
 59 62  1  0  0  0
 60129  1  0  0  0
 60130  1  0  0  0
 60131  1  0  0  0
 61132  1  0  0  0
 61133  1  0  0  0
 61134  1  0  0  0
 62135  1  0  0  0
 62136  1  0  0  0
 62137  1  0  0  0
 63 65  1  0  0  0
 63138  1  0  0  0
 63139  1  0  0  0
 63140  1  0  0  0
 64141  1  0  0  0
 65142  1  0  0  0
 68 81  1  0  0  0
 71 72  2  0  0  0
 71 74  1  0  0  0
 71143  1  0  0  0
 72 75  1  0  0  0
 72144  1  0  0  0
 73 75  2  0  0  0
 73 76  1  0  0  0
 73145  1  0  0  0
 74 76  2  0  0  0
 74 77  1  0  0  0
 75 82  1  0  0  0
 76 83  1  0  0  0
 77146  1  0  0  0
 77147  1  0  0  0
 77148  1  0  0  0
 78 83  1  0  0  0
 78149  1  0  0  0
 78150  1  0  0  0
 78151  1  0  0  0
 79 80  1  0  0  0
 79 81  1  0  0  0
 79152  1  0  0  0
 79153  1  0  0  0
 80 83  1  0  0  0
 80154  1  0  0  0
 80155  1  0  0  0
 81156  1  0  0  0
 81157  1  0  0  0
 82158  1  0  0  0
M  ISO  4   1 100  68 101  81 101  82 100
M  END
> <chiral flag>
0

> <version>
0

> <s_m_source_file>
/data/baiqing/PycharmProjects/Reinvent-master-3.2/result/LINK_invent/BTK/process_docking_weight1_custom_sum_contain_oxygen_bond_distance_aromatic_linkinvent_7_9_3/rearranged_h_0006.sdf

> <i_m_source_file_index>
56

> <r_mmod_Potential_Energy-OPLS-2005>
191.132629394531

> <r_mmod_Stretch_Energy-OPLS-2005>
124.552200317383

> <r_mmod_Bend_Energy-OPLS-2005>
171.06005859375

> <r_mmod_Torsional_Energy-OPLS-2005>
235.744598388672

> <r_mmod_Improper_Torsional_Energy-OPLS-2005>
7.57624053955078

> <r_mmod_Van_der_Waal_Energy-OPLS-2005>
151.599349975586

> <r_mmod_Electrostatic_Energy-OPLS-2005>
-360.08837890625

> <r_mmod_Solvation_Energy-OPLS-2005>
-220.66764831543

> <b_mmod_Minimization_Converged-OPLS-2005>
0

> <r_mmod_RMS_Derivative-OPLS-2005>
4.75300121307373

$$$$
56
                    3D
 Structure written by MMmdl.
151159  0  0  1  0            999 V2000
  -30.5957  -14.6517   20.5206 C   0  0  0  0  0  0
  -30.4468  -12.4001   19.4548 C   0  0  0  0  0  0
  -29.5175  -12.4896   18.2211 C   0  0  0  0  0  0
  -28.0388  -12.3182   18.6343 C   0  0  0  0  0  0
  -27.6471  -13.2047   19.8473 C   0  0  2  0  0  0
  -28.6842  -13.0682   20.9833 C   0  0  0  0  0  0
  -25.2580  -13.8137   20.5633 C   0  0  0  0  0  0
  -24.1827  -13.0428   20.9227 C   0  0  0  0  0  0
  -24.6354  -11.6893   20.8710 C   0  0  0  0  0  0
  -23.9015  -10.4278   21.0397 C   0  0  0  0  0  0
  -24.3569   -9.4216   21.9199 C   0  0  0  0  0  0
  -23.6261   -8.2230   22.0757 C   0  0  0  0  0  0
  -22.4270   -8.0265   21.3523 C   0  0  0  0  0  0
  -21.9875   -9.0242   20.4647 C   0  0  0  0  0  0
  -22.7164  -10.2144   20.3067 C   0  0  0  0  0  0
  -21.6862   -6.0724   22.5264 C   0  0  0  0  0  0
  -21.4002   -6.5624   23.8206 C   0  0  0  0  0  0
  -21.3665   -5.6794   24.9166 C   0  0  0  0  0  0
  -21.6040   -4.3047   24.7232 C   0  0  0  0  0  0
  -21.8817   -3.8136   23.4349 C   0  0  0  0  0  0
  -21.9190   -4.6941   22.3404 C   0  0  0  0  0  0
  -22.7864  -13.5255   21.1900 C   0  0  0  0  0  0
  -22.1666   -4.2120   21.0980 F   0  0  0  0  0  0
  -21.5633   -3.4549   25.7751 F   0  0  0  0  0  0
  -30.0017  -13.4181   20.4278 N   0  0  0  0  0  0
  -26.2941  -12.9266   20.3180 N   0  0  0  0  0  0
  -25.9267  -11.6439   20.5665 N   0  0  0  0  0  0
  -22.0453  -12.8288   22.0448 N   0  0  0  0  0  0
  -25.4305  -15.1849   20.4002 N   0  0  0  0  0  0
  -31.7706  -14.8318   20.1791 O   0  0  0  0  0  0
  -21.6631   -6.8860   21.4232 O   0  0  0  0  0  0
  -22.3553  -14.5545   20.6716 O   0  0  0  0  0  0
  -24.6241  -31.8606   23.2091 C   0  0  0  0  0  0
  -25.9097  -32.4810   23.8384 C   0  0  1  0  0  0
  -27.2068  -27.3064   20.1361 C   0  0  0  0  0  0
  -25.5893  -33.8600   24.2308 N   0  0  0  0  0  0
  -23.4184  -30.4879   21.5526 C   0  0  2  0  0  0
  -24.8622  -28.9471   20.1150 C   0  0  0  0  0  0
  -22.7449  -29.4623   22.4959 C   0  0  0  0  0  0
  -18.0267  -28.1411   22.8515 C   0  0  0  0  0  0
  -24.1470  -36.7275   23.2641 C   0  0  0  0  0  0
  -25.9587  -30.7950   21.3782 C   0  0  0  0  0  0
  -26.0307  -29.4178   20.7274 C   0  0  0  0  0  0
  -27.2054  -28.6054   20.7331 C   0  0  0  0  0  0
  -26.0186  -26.9041   19.4792 C   0  0  0  0  0  0
  -24.8589  -27.6972   19.4808 C   0  0  0  0  0  0
  -23.6325  -29.8279   20.1663 C   0  0  0  0  0  0
  -25.4121  -36.3133   24.0333 C   0  0  1  0  0  0
  -20.5866  -28.3711   23.1334 C   0  0  2  0  0  0
  -20.6754  -26.9443   22.5445 C   0  0  0  0  0  0
  -19.5735  -26.6417   21.5236 C   0  0  0  0  0  0
  -18.1904  -26.7958   22.1635 C   0  0  0  0  0  0
  -19.1516  -28.8872   23.2919 C   0  0  0  0  0  0
  -18.9427  -30.1463   23.8950 C   0  0  0  0  0  0
  -17.6432  -30.6617   24.0589 C   0  0  0  0  0  0
  -25.9044  -34.9474   23.5145 C   0  0  0  0  0  0
  -16.5323  -29.9116   23.6350 C   0  0  0  0  0  0
  -16.7252  -28.6525   23.0394 C   0  0  0  0  0  0
  -26.4541  -31.6603   25.0708 C   0  0  0  0  0  0
  -25.3754  -31.3671   26.1388 C   0  0  0  0  0  0
  -27.0390  -30.3045   24.6132 C   0  0  0  0  0  0
  -27.6172  -32.4267   25.7434 C   0  0  0  0  0  0
  -27.5590  -37.1816   24.8511 C   0  0  0  0  0  0
  -21.4166  -29.3044   22.3690 N   0  0  0  0  0  0
  -26.4334  -37.3806   23.9410 N   0  0  0  0  0  0
  -24.6863  -31.0629   22.1044 N   0  0  0  0  0  0
  -23.4142  -28.8130   23.3034 O   0  0  0  0  0  0
  -28.3051  -26.4329   20.2156 O   0  0  0  0  0  0
  -26.5613  -34.8941   22.4719 O   0  0  0  0  0  0
  -23.5408  -32.1377   23.7429 O   0  0  0  0  0  0
  -28.6038  -17.8877   20.8354 C   0  0  0  0  0  0
  -28.5756  -19.3133   20.8367 C   0  0  0  0  0  0
  -31.0125  -17.8992   20.8130 C   0  0  0  0  0  0
  -29.8153  -17.1382   20.8075 C   0  0  0  0  0  0
  -29.7739  -20.0754   20.8318 C   0  0  0  0  0  0
  -30.9902  -19.3267   20.8292 C   0  0  0  0  0  0
  -29.0710  -23.9165   20.6529 C   0  0  0  0  0  0
  -28.0426  -24.9781   20.0660 C   0  0  0  0  0  0
  -28.7044  -22.3638   20.6054 C   0  0  0  0  0  0
  -29.7301  -15.6757   20.8082 N   0  0  0  0  0  0
  -29.8455  -21.4832   20.8581 O   0  0  0  0  0  0
  -32.4981  -20.1751   20.8495 Cl  0  0  0  0  0  0
  -31.4837  -12.5484   19.1533 H   0  0  0  0  0  0
  -30.3994  -11.4050   19.8997 H   0  0  0  0  0  0
  -29.7900  -11.7216   17.4959 H   0  0  0  0  0  0
  -29.6569  -13.4464   17.7181 H   0  0  0  0  0  0
  -27.9001  -11.2690   18.8961 H   0  0  0  0  0  0
  -27.3836  -12.5121   17.7843 H   0  0  0  0  0  0
  -27.6634  -14.2333   19.4904 H   0  0  0  0  0  0
  -28.6964  -12.0460   21.3662 H   0  0  0  0  0  0
  -28.4174  -13.7041   21.8288 H   0  0  0  0  0  0
  -25.2709   -9.5716   22.4787 H   0  0  0  0  0  0
  -23.9990   -7.4619   22.7486 H   0  0  0  0  0  0
  -21.0797   -8.8722   19.8962 H   0  0  0  0  0  0
  -22.3578  -10.9681   19.6183 H   0  0  0  0  0  0
  -21.1982   -7.6137   23.9694 H   0  0  0  0  0  0
  -21.1504   -6.0527   25.9073 H   0  0  0  0  0  0
  -22.0595   -2.7595   23.2859 H   0  0  0  0  0  0
  -22.4024  -11.9946   22.4863 H   0  0  0  0  0  0
  -21.1058  -13.1335   22.2591 H   0  0  0  0  0  0
  -24.6544  -15.8326   20.4870 H   0  0  0  0  0  0
  -26.2488  -15.6020   19.9740 H   0  0  0  0  0  0
  -26.7114  -32.5552   23.1101 H   0  0  0  0  0  0
  -25.0075  -33.9761   25.0469 H   0  0  0  0  0  0
  -22.7155  -31.3108   21.4176 H   0  0  0  0  0  0
  -23.3767  -35.9585   23.3386 H   0  0  0  0  0  0
  -24.3548  -36.8784   22.2039 H   0  0  0  0  0  0
  -23.7140  -37.6473   23.6588 H   0  0  0  0  0  0
  -26.0789  -31.5508   20.6012 H   0  0  0  0  0  0
  -26.8409  -30.8619   22.0022 H   0  0  0  0  0  0
  -28.1004  -28.9483   21.2313 H   0  0  0  0  0  0
  -25.9464  -25.9579   18.9634 H   0  0  0  0  0  0
  -23.9596  -27.3465   18.9899 H   0  0  0  0  0  0
  -23.7498  -30.6040   19.4108 H   0  0  0  0  0  0
  -22.7500  -29.2594   19.8728 H   0  0  0  0  0  0
  -25.1302  -36.2034   25.0819 H   0  0  0  0  0  0
  -21.0002  -28.3289   24.1447 H   0  0  0  0  0  0
  -20.5706  -26.2300   23.3638 H   0  0  0  0  0  0
  -21.6607  -26.7512   22.1198 H   0  0  0  0  0  0
  -19.6914  -25.6339   21.1225 H   0  0  0  0  0  0
  -19.6653  -27.3266   20.6793 H   0  0  0  0  0  0
  -17.4176  -26.6733   21.4028 H   0  0  0  0  0  0
  -18.0300  -26.0098   22.9017 H   0  0  0  0  0  0
  -19.7886  -30.7266   24.2357 H   0  0  0  0  0  0
  -17.4979  -31.6331   24.5141 H   0  0  0  0  0  0
  -15.5322  -30.3043   23.7676 H   0  0  0  0  0  0
  -15.8629  -28.0857   22.7151 H   0  0  0  0  0  0
  -24.6016  -30.6972   25.7625 H   0  0  0  0  0  0
  -24.8839  -32.2787   26.4784 H   0  0  0  0  0  0
  -25.8009  -30.8824   27.0168 H   0  0  0  0  0  0
  -26.2948  -29.6744   24.1248 H   0  0  0  0  0  0
  -27.4223  -29.7362   25.4613 H   0  0  0  0  0  0
  -27.8748  -30.4376   23.9261 H   0  0  0  0  0  0
  -27.2936  -33.3602   26.2042 H   0  0  0  0  0  0
  -28.3950  -32.6717   25.0187 H   0  0  0  0  0  0
  -28.0886  -31.8317   26.5280 H   0  0  0  0  0  0
  -28.2713  -38.0020   24.7521 H   0  0  0  0  0  0
  -28.0966  -36.2562   24.6412 H   0  0  0  0  0  0
  -27.2300  -37.1544   25.8914 H   0  0  0  0  0  0
  -20.9343  -29.8683   21.6829 H   0  0  0  0  0  0
  -26.0245  -38.2892   24.1403 H   0  0  0  0  0  0
  -27.6518  -17.3742   20.8497 H   0  0  0  0  0  0
  -27.6123  -19.8083   20.8552 H   0  0  0  0  0  0
  -31.9732  -17.4040   20.8253 H   0  0  0  0  0  0
  -29.2673  -24.1704   21.6963 H   0  0  0  0  0  0
  -30.0170  -24.0480   20.1306 H   0  0  0  0  0  0
  -27.0787  -24.7403   20.5160 H   0  0  0  0  0  0
  -27.9339  -24.7756   18.9967 H   0  0  0  0  0  0
  -28.2820  -22.1226   19.6289 H   0  0  0  0  0  0
  -27.9324  -22.1616   21.3509 H   0  0  0  0  0  0
  -28.7959  -15.3218   20.9411 H   0  0  0  0  0  0
  1 25  1  0  0  0
  1 30  2  0  0  0
  1 80  1  0  0  0
  2  3  1  0  0  0
  2 25  1  0  0  0
  2 83  1  0  0  0
  2 84  1  0  0  0
  3  4  1  0  0  0
  3 85  1  0  0  0
  3 86  1  0  0  0
  4  5  1  0  0  0
  4 87  1  0  0  0
  4 88  1  0  0  0
  5  6  1  0  0  0
  5 26  1  0  0  0
  5 89  1  0  0  0
  6 25  1  0  0  0
  6 90  1  0  0  0
  6 91  1  0  0  0
  7  8  2  0  0  0
  7 26  1  0  0  0
  7 29  1  0  0  0
  8  9  1  0  0  0
  8 22  1  0  0  0
  9 10  1  0  0  0
  9 27  2  0  0  0
 10 11  2  0  0  0
 10 15  1  0  0  0
 11 12  1  0  0  0
 11 92  1  0  0  0
 12 13  2  0  0  0
 12 93  1  0  0  0
 13 14  1  0  0  0
 13 31  1  0  0  0
 14 15  2  0  0  0
 14 94  1  0  0  0
 15 95  1  0  0  0
 16 17  2  0  0  0
 16 21  1  0  0  0
 16 31  1  0  0  0
 17 18  1  0  0  0
 17 96  1  0  0  0
 18 19  2  0  0  0
 18 97  1  0  0  0
 19 20  1  0  0  0
 19 24  1  0  0  0
 20 21  2  0  0  0
 20 98  1  0  0  0
 21 23  1  0  0  0
 22 28  1  0  0  0
 22 32  2  0  0  0
 26 27  1  0  0  0
 28 99  1  0  0  0
 28100  1  0  0  0
 29101  1  0  0  0
 29102  1  0  0  0
 33 34  1  0  0  0
 33 66  1  0  0  0
 33 70  2  0  0  0
 34 36  1  0  0  0
 34 59  1  0  0  0
 34103  1  0  0  0
 35 44  2  0  0  0
 35 45  1  0  0  0
 35 68  1  0  0  0
 36 56  1  0  0  0
 36104  1  0  0  0
 37 39  1  0  0  0
 37 47  1  0  0  0
 37 66  1  0  0  0
 37105  1  0  0  0
 38 43  2  0  0  0
 38 46  1  0  0  0
 38 47  1  0  0  0
 39 64  1  0  0  0
 39 67  2  0  0  0
 40 52  1  0  0  0
 40 53  2  0  0  0
 40 58  1  0  0  0
 41106  1  0  0  0
 41107  1  0  0  0
 41108  1  0  0  0
 41 48  1  0  0  0
 42 43  1  0  0  0
 42 66  1  0  0  0
 42109  1  0  0  0
 42110  1  0  0  0
 43 44  1  0  0  0
 44111  1  0  0  0
 45 46  2  0  0  0
 45112  1  0  0  0
 46113  1  0  0  0
 47114  1  0  0  0
 47115  1  0  0  0
 48 56  1  0  0  0
 48 65  1  0  0  0
 48116  1  0  0  0
 49 50  1  0  0  0
 49 53  1  0  0  0
 49 64  1  0  0  0
 49117  1  0  0  0
 50 51  1  0  0  0
 50118  1  0  0  0
 50119  1  0  0  0
 51 52  1  0  0  0
 51120  1  0  0  0
 51121  1  0  0  0
 52122  1  0  0  0
 52123  1  0  0  0
 53 54  1  0  0  0
 54 55  2  0  0  0
 54124  1  0  0  0
 55 57  1  0  0  0
 55125  1  0  0  0
 56 69  2  0  0  0
 57 58  2  0  0  0
 57126  1  0  0  0
 58127  1  0  0  0
 59 60  1  0  0  0
 59 61  1  0  0  0
 59 62  1  0  0  0
 60128  1  0  0  0
 60129  1  0  0  0
 60130  1  0  0  0
 61131  1  0  0  0
 61132  1  0  0  0
 61133  1  0  0  0
 62134  1  0  0  0
 62135  1  0  0  0
 62136  1  0  0  0
 63 65  1  0  0  0
 63137  1  0  0  0
 63138  1  0  0  0
 63139  1  0  0  0
 64140  1  0  0  0
 65141  1  0  0  0
 68 78  1  0  0  0
 71 72  2  0  0  0
 71 74  1  0  0  0
 71142  1  0  0  0
 72 75  1  0  0  0
 72143  1  0  0  0
 73 74  2  0  0  0
 73 76  1  0  0  0
 73144  1  0  0  0
 74 80  1  0  0  0
 75 76  2  0  0  0
 75 81  1  0  0  0
 76 82  1  0  0  0
 77 78  1  0  0  0
 77 79  1  0  0  0
 77145  1  0  0  0
 77146  1  0  0  0
 78147  1  0  0  0
 78148  1  0  0  0
 79 81  1  0  0  0
 79149  1  0  0  0
 79150  1  0  0  0
 80151  1  0  0  0
M  ISO  4   1 100  68 101  78 101  80 100
M  END
> <chiral flag>
0

> <version>
0

> <s_m_source_file>
/data/baiqing/PycharmProjects/Reinvent-master-3.2/result/LINK_invent/BTK/process_docking_weight1_custom_sum_contain_oxygen_bond_distance_aromatic_linkinvent_7_9_3/rearranged_h_0006.sdf

> <i_m_source_file_index>
57

> <r_mmod_Potential_Energy-OPLS-2005>
75.7188110351562

> <r_mmod_Stretch_Energy-OPLS-2005>
78.2957916259766

> <r_mmod_Bend_Energy-OPLS-2005>
144.195495605469

> <r_mmod_Torsional_Energy-OPLS-2005>
211.836456298828

> <r_mmod_Improper_Torsional_Energy-OPLS-2005>
5.42349863052368

> <r_mmod_Van_der_Waal_Energy-OPLS-2005>
143.755264282227

> <r_mmod_Electrostatic_Energy-OPLS-2005>
-350.020111083984

> <r_mmod_Solvation_Energy-OPLS-2005>
-215.935211181641

> <b_mmod_Minimization_Converged-OPLS-2005>
0

> <r_mmod_RMS_Derivative-OPLS-2005>
5.47856521606445

$$$$
57
                    3D
 Structure written by MMmdl.
195203  0  0  1  0            999 V2000
  -30.7025  -14.4147   20.5831 C   0  0  0  0  0  0
  -30.4235  -12.2733   19.4111 C   0  0  0  0  0  0
  -29.4935  -12.5049   18.2016 C   0  0  0  0  0  0
  -28.0129  -12.3739   18.6111 C   0  0  0  0  0  0
  -27.6680  -13.1976   19.8814 C   0  0  2  0  0  0
  -28.7056  -12.9338   20.9966 C   0  0  0  0  0  0
  -25.2618  -13.8153   20.5676 C   0  0  0  0  0  0
  -24.1851  -13.0440   20.9163 C   0  0  0  0  0  0
  -24.6386  -11.6900   20.8723 C   0  0  0  0  0  0
  -23.9051  -10.4289   21.0403 C   0  0  0  0  0  0
  -24.3609   -9.4210   21.9177 C   0  0  0  0  0  0
  -23.6287   -8.2244   22.0748 C   0  0  0  0  0  0
  -22.4274   -8.0279   21.3541 C   0  0  0  0  0  0
  -21.9903   -9.0249   20.4643 C   0  0  0  0  0  0
  -22.7224  -10.2131   20.3048 C   0  0  0  0  0  0
  -21.6851   -6.0737   22.5282 C   0  0  0  0  0  0
  -21.4013   -6.5640   23.8214 C   0  0  0  0  0  0
  -21.3659   -5.6792   24.9177 C   0  0  0  0  0  0
  -21.6047   -4.3053   24.7227 C   0  0  0  0  0  0
  -21.8818   -3.8147   23.4344 C   0  0  0  0  0  0
  -21.9192   -4.6964   22.3405 C   0  0  0  0  0  0
  -22.7878  -13.5247   21.1834 C   0  0  0  0  0  0
  -22.1660   -4.2151   21.0980 F   0  0  0  0  0  0
  -21.5632   -3.4538   25.7737 F   0  0  0  0  0  0
  -30.0465  -13.2322   20.4582 N   0  0  0  0  0  0
  -26.3052  -12.9303   20.3380 N   0  0  0  0  0  0
  -25.9312  -11.6472   20.5758 N   0  0  0  0  0  0
  -22.0515  -12.8236   22.0396 N   0  0  0  0  0  0
  -25.4381  -15.1867   20.4110 N   0  0  0  0  0  0
  -31.8102  -14.6331   20.0816 O   0  0  0  0  0  0
  -21.6636   -6.8877   21.4241 O   0  0  0  0  0  0
  -22.3563  -14.5557   20.6692 O   0  0  0  0  0  0
  -24.6031  -31.8699   23.2078 C   0  0  0  0  0  0
  -25.8962  -32.4844   23.8320 C   0  0  1  0  0  0
  -27.2622  -27.4851   20.1021 C   0  0  0  0  0  0
  -25.5804  -33.8634   24.2247 N   0  0  0  0  0  0
  -23.3905  -30.4881   21.5486 C   0  0  2  0  0  0
  -24.8425  -28.9537   20.1122 C   0  0  0  0  0  0
  -22.7362  -29.4652   22.5024 C   0  0  0  0  0  0
  -18.0270  -28.1390   22.8510 C   0  0  0  0  0  0
  -24.1458  -36.7352   23.2648 C   0  0  0  0  0  0
  -25.9082  -30.8503   21.3538 C   0  0  0  0  0  0
  -25.9898  -29.4890   20.7054 C   0  0  0  0  0  0
  -27.1944  -28.7654   20.6968 C   0  0  0  0  0  0
  -26.0997  -26.9521   19.5068 C   0  0  0  0  0  0
  -24.8900  -27.6808   19.5100 C   0  0  0  0  0  0
  -23.5974  -29.8111   20.1642 C   0  0  0  0  0  0
  -25.4075  -36.3106   24.0332 C   0  0  1  0  0  0
  -20.5849  -28.3631   23.1381 C   0  0  2  0  0  0
  -20.6761  -26.9382   22.5441 C   0  0  0  0  0  0
  -19.5748  -26.6397   21.5229 C   0  0  0  0  0  0
  -18.1929  -26.7943   22.1639 C   0  0  0  0  0  0
  -19.1517  -28.8831   23.2947 C   0  0  0  0  0  0
  -18.9443  -30.1451   23.8929 C   0  0  0  0  0  0
  -17.6446  -30.6594   24.0584 C   0  0  0  0  0  0
  -25.9004  -34.9492   23.5097 C   0  0  0  0  0  0
  -16.5339  -29.9099   23.6331 C   0  0  0  0  0  0
  -16.7263  -28.6531   23.0326 C   0  0  0  0  0  0
  -26.4447  -31.6654   25.0632 C   0  0  0  0  0  0
  -25.3712  -31.3783   26.1378 C   0  0  0  0  0  0
  -27.0323  -30.3093   24.6060 C   0  0  0  0  0  0
  -27.5988  -32.4463   25.7339 C   0  0  0  0  0  0
  -27.5571  -37.1823   24.8462 C   0  0  0  0  0  0
  -21.4095  -29.3011   22.3788 N   0  0  0  0  0  0
  -26.4263  -37.3786   23.9420 N   0  0  0  0  0  0
  -24.6511  -31.0839   22.0965 N   0  0  0  0  0  0
  -23.4167  -28.8213   23.3059 O   0  0  0  0  0  0
  -28.4340  -26.7560   20.0953 O   0  0  0  0  0  0
  -26.5620  -34.8953   22.4693 O   0  0  0  0  0  0
  -23.5252  -32.1442   23.7532 O   0  0  0  0  0  0
  -28.9853  -17.5101   21.6661 C   0  0  0  0  0  0
  -28.7033  -18.8464   21.3212 C   0  0  0  0  0  0
  -30.4505  -17.3207   19.7357 C   0  0  0  0  0  0
  -29.8526  -16.7294   20.8763 C   0  0  0  0  0  0
  -29.2845  -19.4311   20.1699 C   0  0  0  0  0  0
  -30.1733  -18.6588   19.3889 C   0  0  0  0  0  0
  -32.4809  -24.0621   22.1650 C   0  0  0  0  0  0
  -30.6349  -28.2772   20.1692 C   0  0  0  0  0  0
  -30.5673  -28.1302   22.7038 C   0  0  0  0  0  0
  -27.9157  -21.3982   20.3207 C   0  0  0  0  0  0
  -31.0762  -24.2873   22.7240 C   0  0  0  0  0  0
  -30.0014  -24.4121   21.6166 C   0  0  0  0  0  0
  -33.6808  -25.0800   19.0292 C   0  0  0  0  0  0
  -33.3110  -23.9185   18.0944 C   0  0  0  0  0  0
  -34.7544  -24.6529   20.0558 C   0  0  0  0  0  0
  -32.1074  -24.2200   17.1888 C   0  0  0  0  0  0
  -28.8873  -25.4198   21.9870 C   0  0  0  0  0  0
  -34.6043  -25.2409   21.4763 C   0  0  0  0  0  0
  -31.6535  -23.0184   16.3387 C   0  0  0  0  0  0
  -31.8586  -20.0057   18.4814 C   0  0  0  0  0  0
  -32.1582  -20.8544   17.2374 C   0  0  0  0  0  0
  -30.3642  -27.3682   21.3847 C   0  0  0  0  0  0
  -30.0143  -15.3614   21.2401 N   0  0  0  0  0  0
  -33.2539  -25.1517   22.0361 N   0  0  0  0  0  0
  -29.0164  -26.7709   21.4247 N   0  0  0  0  0  0
  -32.8452  -22.9282   21.8566 O   0  0  0  0  0  0
  -29.0259  -20.7180   19.7490 O   0  0  0  0  0  0
  -30.7237  -19.1808   18.2471 O   0  0  0  0  0  0
  -31.2395  -21.9437   17.1762 O   0  0  0  0  0  0
  -31.4686  -12.3694   19.1111 H   0  0  0  0  0  0
  -30.3178  -11.2540   19.7850 H   0  0  0  0  0  0
  -29.7260  -11.7935   17.4081 H   0  0  0  0  0  0
  -29.6713  -13.4965   17.7833 H   0  0  0  0  0  0
  -27.8104  -11.3175   18.7887 H   0  0  0  0  0  0
  -27.3655  -12.6697   17.7849 H   0  0  0  0  0  0
  -27.7270  -14.2517   19.6088 H   0  0  0  0  0  0
  -28.6670  -11.8875   21.3047 H   0  0  0  0  0  0
  -28.4655  -13.5034   21.8950 H   0  0  0  0  0  0
  -25.2760   -9.5692   22.4742 H   0  0  0  0  0  0
  -24.0007   -7.4639   22.7461 H   0  0  0  0  0  0
  -21.0841   -8.8759   19.8947 H   0  0  0  0  0  0
  -22.3685  -10.9663   19.6152 H   0  0  0  0  0  0
  -21.2000   -7.6145   23.9721 H   0  0  0  0  0  0
  -21.1485   -6.0518   25.9079 H   0  0  0  0  0  0
  -22.0599   -2.7608   23.2843 H   0  0  0  0  0  0
  -22.4129  -11.9893   22.4774 H   0  0  0  0  0  0
  -21.1136  -13.1261   22.2604 H   0  0  0  0  0  0
  -24.6779  -15.8479   20.5267 H   0  0  0  0  0  0
  -26.3014  -15.6239   20.1129 H   0  0  0  0  0  0
  -26.6998  -32.5573   23.1050 H   0  0  0  0  0  0
  -24.9803  -33.9784   25.0282 H   0  0  0  0  0  0
  -22.6754  -31.3012   21.4091 H   0  0  0  0  0  0
  -23.3669  -35.9736   23.3316 H   0  0  0  0  0  0
  -24.3553  -36.8981   22.2061 H   0  0  0  0  0  0
  -23.7272  -37.6579   23.6687 H   0  0  0  0  0  0
  -26.0153  -31.6143   20.5836 H   0  0  0  0  0  0
  -26.7967  -30.9059   21.9710 H   0  0  0  0  0  0
  -28.0626  -29.1946   21.1701 H   0  0  0  0  0  0
  -26.1349  -25.9750   19.0456 H   0  0  0  0  0  0
  -24.0071  -27.2574   19.0504 H   0  0  0  0  0  0
  -23.6889  -30.5811   19.3969 H   0  0  0  0  0  0
  -22.7245  -29.2204   19.8811 H   0  0  0  0  0  0
  -25.1279  -36.1934   25.0829 H   0  0  0  0  0  0
  -20.9948  -28.3171   24.1498 H   0  0  0  0  0  0
  -20.5672  -26.2214   23.3593 H   0  0  0  0  0  0
  -21.6631  -26.7445   22.1223 H   0  0  0  0  0  0
  -19.6877  -25.6312   21.1239 H   0  0  0  0  0  0
  -19.6706  -27.3231   20.6784 H   0  0  0  0  0  0
  -17.4196  -26.6704   21.4041 H   0  0  0  0  0  0
  -18.0333  -26.0091   22.9043 H   0  0  0  0  0  0
  -19.7909  -30.7295   24.2281 H   0  0  0  0  0  0
  -17.4990  -31.6275   24.5182 H   0  0  0  0  0  0
  -15.5337  -30.3008   23.7636 H   0  0  0  0  0  0
  -15.8672  -28.0880   22.6965 H   0  0  0  0  0  0
  -24.5935  -30.7068   25.7727 H   0  0  0  0  0  0
  -24.8837  -32.2953   26.4690 H   0  0  0  0  0  0
  -25.8017  -30.9030   27.0200 H   0  0  0  0  0  0
  -26.2914  -29.6797   24.1122 H   0  0  0  0  0  0
  -27.4037  -29.7382   25.4570 H   0  0  0  0  0  0
  -27.8745  -30.4383   23.9252 H   0  0  0  0  0  0
  -27.2491  -33.3619   26.2136 H   0  0  0  0  0  0
  -28.3576  -32.7317   25.0027 H   0  0  0  0  0  0
  -28.0906  -31.8533   26.5046 H   0  0  0  0  0  0
  -28.2559  -38.0134   24.7466 H   0  0  0  0  0  0
  -28.1095  -36.2662   24.6303 H   0  0  0  0  0  0
  -27.2337  -37.1497   25.8879 H   0  0  0  0  0  0
  -20.9224  -29.8722   21.7016 H   0  0  0  0  0  0
  -26.0142  -38.2861   24.1411 H   0  0  0  0  0  0
  -28.5102  -17.0851   22.5395 H   0  0  0  0  0  0
  -28.0248  -19.3985   21.9536 H   0  0  0  0  0  0
  -31.1090  -16.7618   19.0893 H   0  0  0  0  0  0
  -31.6611  -28.6446   20.1873 H   0  0  0  0  0  0
  -29.9842  -29.1486   20.1412 H   0  0  0  0  0  0
  -30.5191  -27.7358   19.2308 H   0  0  0  0  0  0
  -31.5837  -28.5195   22.7796 H   0  0  0  0  0  0
  -30.3955  -27.4958   23.5729 H   0  0  0  0  0  0
  -29.8821  -28.9745   22.7817 H   0  0  0  0  0  0
  -27.7740  -22.3495   19.8075 H   0  0  0  0  0  0
  -28.0720  -21.6153   21.3775 H   0  0  0  0  0  0
  -26.9950  -20.8248   20.2061 H   0  0  0  0  0  0
  -31.0957  -25.1748   23.3577 H   0  0  0  0  0  0
  -30.8180  -23.4647   23.3924 H   0  0  0  0  0  0
  -29.5542  -23.4275   21.4950 H   0  0  0  0  0  0
  -30.4283  -24.6392   20.6376 H   0  0  0  0  0  0
  -32.7735  -25.4198   19.5279 H   0  0  0  0  0  0
  -34.0345  -25.9362   18.4520 H   0  0  0  0  0  0
  -33.0649  -23.0568   18.7151 H   0  0  0  0  0  0
  -34.1729  -23.6333   17.4911 H   0  0  0  0  0  0
  -35.7400  -24.9099   19.6643 H   0  0  0  0  0  0
  -34.7676  -23.5665   20.1493 H   0  0  0  0  0  0
  -32.3554  -25.0517   16.5273 H   0  0  0  0  0  0
  -31.2695  -24.5569   17.8011 H   0  0  0  0  0  0
  -28.8183  -25.5071   23.0718 H   0  0  0  0  0  0
  -27.9221  -25.0211   21.6723 H   0  0  0  0  0  0
  -34.8903  -26.2928   21.4642 H   0  0  0  0  0  0
  -35.3009  -24.7447   22.1532 H   0  0  0  0  0  0
  -32.4238  -22.7191   15.6251 H   0  0  0  0  0  0
  -30.7896  -23.3224   15.7472 H   0  0  0  0  0  0
  -31.7284  -20.6524   19.3511 H   0  0  0  0  0  0
  -32.7105  -19.3576   18.6936 H   0  0  0  0  0  0
  -32.1098  -20.2558   16.3268 H   0  0  0  0  0  0
  -33.1814  -21.2249   17.3134 H   0  0  0  0  0  0
  -31.1232  -26.5967   21.3272 H   0  0  0  0  0  0
  -29.2766  -14.9899   21.8197 H   0  0  0  0  0  0
  -32.8610  -26.0237   22.3635 H   0  0  0  0  0  0
  1 25  1  0  0  0
  1 30  2  0  0  0
  1 93  1  0  0  0
  2  3  1  0  0  0
  2 25  1  0  0  0
  2100  1  0  0  0
  2101  1  0  0  0
  3  4  1  0  0  0
  3102  1  0  0  0
  3103  1  0  0  0
  4  5  1  0  0  0
  4104  1  0  0  0
  4105  1  0  0  0
  5  6  1  0  0  0
  5 26  1  0  0  0
  5106  1  0  0  0
  6 25  1  0  0  0
  6107  1  0  0  0
  6108  1  0  0  0
  7  8  2  0  0  0
  7 26  1  0  0  0
  7 29  1  0  0  0
  8  9  1  0  0  0
  8 22  1  0  0  0
  9 10  1  0  0  0
  9 27  2  0  0  0
 10 11  2  0  0  0
 10 15  1  0  0  0
 11 12  1  0  0  0
 11109  1  0  0  0
 12 13  2  0  0  0
 12110  1  0  0  0
 13 14  1  0  0  0
 13 31  1  0  0  0
 14 15  2  0  0  0
 14111  1  0  0  0
 15112  1  0  0  0
 16 17  2  0  0  0
 16 21  1  0  0  0
 16 31  1  0  0  0
 17 18  1  0  0  0
 17113  1  0  0  0
 18 19  2  0  0  0
 18114  1  0  0  0
 19 20  1  0  0  0
 19 24  1  0  0  0
 20 21  2  0  0  0
 20115  1  0  0  0
 21 23  1  0  0  0
 22 28  1  0  0  0
 22 32  2  0  0  0
 26 27  1  0  0  0
 28116  1  0  0  0
 28117  1  0  0  0
 29118  1  0  0  0
 29119  1  0  0  0
 33 34  1  0  0  0
 33 66  1  0  0  0
 33 70  2  0  0  0
 34 36  1  0  0  0
 34 59  1  0  0  0
 34120  1  0  0  0
 35 44  2  0  0  0
 35 45  1  0  0  0
 35 68  1  0  0  0
 36 56  1  0  0  0
 36121  1  0  0  0
 37 39  1  0  0  0
 37 47  1  0  0  0
 37 66  1  0  0  0
 37122  1  0  0  0
 38 43  2  0  0  0
 38 46  1  0  0  0
 38 47  1  0  0  0
 39 64  1  0  0  0
 39 67  2  0  0  0
 40 52  1  0  0  0
 40 53  2  0  0  0
 40 58  1  0  0  0
 41123  1  0  0  0
 41124  1  0  0  0
 41125  1  0  0  0
 41 48  1  0  0  0
 42 43  1  0  0  0
 42 66  1  0  0  0
 42126  1  0  0  0
 42127  1  0  0  0
 43 44  1  0  0  0
 44128  1  0  0  0
 45 46  2  0  0  0
 45129  1  0  0  0
 46130  1  0  0  0
 47131  1  0  0  0
 47132  1  0  0  0
 48 56  1  0  0  0
 48 65  1  0  0  0
 48133  1  0  0  0
 49 50  1  0  0  0
 49 53  1  0  0  0
 49 64  1  0  0  0
 49134  1  0  0  0
 50 51  1  0  0  0
 50135  1  0  0  0
 50136  1  0  0  0
 51 52  1  0  0  0
 51137  1  0  0  0
 51138  1  0  0  0
 52139  1  0  0  0
 52140  1  0  0  0
 53 54  1  0  0  0
 54 55  2  0  0  0
 54141  1  0  0  0
 55 57  1  0  0  0
 55142  1  0  0  0
 56 69  2  0  0  0
 57 58  2  0  0  0
 57143  1  0  0  0
 58144  1  0  0  0
 59 60  1  0  0  0
 59 61  1  0  0  0
 59 62  1  0  0  0
 60145  1  0  0  0
 60146  1  0  0  0
 60147  1  0  0  0
 61148  1  0  0  0
 61149  1  0  0  0
 61150  1  0  0  0
 62151  1  0  0  0
 62152  1  0  0  0
 62153  1  0  0  0
 63 65  1  0  0  0
 63154  1  0  0  0
 63155  1  0  0  0
 63156  1  0  0  0
 64157  1  0  0  0
 65158  1  0  0  0
 68 95  1  0  0  0
 71 72  2  0  0  0
 71 74  1  0  0  0
 71159  1  0  0  0
 72 75  1  0  0  0
 72160  1  0  0  0
 73 74  2  0  0  0
 73 76  1  0  0  0
 73161  1  0  0  0
 74 93  1  0  0  0
 75 76  2  0  0  0
 75 97  1  0  0  0
 76 98  1  0  0  0
 77 81  1  0  0  0
 77 94  1  0  0  0
 77 96  2  0  0  0
 78162  1  0  0  0
 78163  1  0  0  0
 78164  1  0  0  0
 78 92  1  0  0  0
 79 92  1  0  0  0
 79165  1  0  0  0
 79166  1  0  0  0
 79167  1  0  0  0
 80 97  1  0  0  0
 80168  1  0  0  0
 80169  1  0  0  0
 80170  1  0  0  0
 81 82  1  0  0  0
 81171  1  0  0  0
 81172  1  0  0  0
 82 87  1  0  0  0
 82173  1  0  0  0
 82174  1  0  0  0
 83 84  1  0  0  0
 83 85  1  0  0  0
 83175  1  0  0  0
 83176  1  0  0  0
 84 86  1  0  0  0
 84177  1  0  0  0
 84178  1  0  0  0
 85 88  1  0  0  0
 85179  1  0  0  0
 85180  1  0  0  0
 86 89  1  0  0  0
 86181  1  0  0  0
 86182  1  0  0  0
 87 95  1  0  0  0
 87183  1  0  0  0
 87184  1  0  0  0
 88 94  1  0  0  0
 88185  1  0  0  0
 88186  1  0  0  0
 89 99  1  0  0  0
 89187  1  0  0  0
 89188  1  0  0  0
 90 91  1  0  0  0
 90 98  1  0  0  0
 90189  1  0  0  0
 90190  1  0  0  0
 91 99  1  0  0  0
 91191  1  0  0  0
 91192  1  0  0  0
 92 95  1  0  0  0
 92193  1  0  0  0
 93194  1  0  0  0
 94195  1  0  0  0
M  ISO  4   1 100  68 101  93 100  95 101
M  END
> <chiral flag>
0

> <version>
0

> <s_m_source_file>
/data/baiqing/PycharmProjects/Reinvent-master-3.2/result/LINK_invent/BTK/process_docking_weight1_custom_sum_contain_oxygen_bond_distance_aromatic_linkinvent_7_9_3/rearranged_h_0006.sdf

> <i_m_source_file_index>
58

> <r_mmod_Potential_Energy-OPLS-2005>
-82.2678146362305

> <r_mmod_Stretch_Energy-OPLS-2005>
37.5355224609375

> <r_mmod_Bend_Energy-OPLS-2005>
131.025955200195

> <r_mmod_Torsional_Energy-OPLS-2005>
306.410369873047

> <r_mmod_Improper_Torsional_Energy-OPLS-2005>
4.17611980438232

> <r_mmod_Van_der_Waal_Energy-OPLS-2005>
150.039245605469

> <r_mmod_Electrostatic_Energy-OPLS-2005>
-459.386993408203

> <r_mmod_Solvation_Energy-OPLS-2005>
-260.495849609375

> <b_mmod_Minimization_Converged-OPLS-2005>
0

> <r_mmod_RMS_Derivative-OPLS-2005>
2.32823348045349

$$$$
58
                    3D
 Structure written by MMmdl.
161169  0  0  1  0            999 V2000
  -30.7269  -14.4008   20.6673 C   0  0  0  0  0  0
  -30.4247  -12.2982   19.4017 C   0  0  0  0  0  0
  -29.4916  -12.5265   18.1959 C   0  0  0  0  0  0
  -28.0123  -12.3851   18.6061 C   0  0  0  0  0  0
  -27.6679  -13.1980   19.8826 C   0  0  2  0  0  0
  -28.7039  -12.9224   20.9950 C   0  0  0  0  0  0
  -25.2606  -13.8151   20.5651 C   0  0  0  0  0  0
  -24.1840  -13.0437   20.9146 C   0  0  0  0  0  0
  -24.6388  -11.6898   20.8718 C   0  0  0  0  0  0
  -23.9051  -10.4291   21.0394 C   0  0  0  0  0  0
  -24.3608   -9.4212   21.9171 C   0  0  0  0  0  0
  -23.6283   -8.2249   22.0755 C   0  0  0  0  0  0
  -22.4265   -8.0284   21.3542 C   0  0  0  0  0  0
  -21.9899   -9.0257   20.4642 C   0  0  0  0  0  0
  -22.7229  -10.2133   20.3042 C   0  0  0  0  0  0
  -21.6850   -6.0728   22.5273 C   0  0  0  0  0  0
  -21.4017   -6.5631   23.8208 C   0  0  0  0  0  0
  -21.3658   -5.6787   24.9172 C   0  0  0  0  0  0
  -21.6050   -4.3050   24.7228 C   0  0  0  0  0  0
  -21.8817   -3.8134   23.4349 C   0  0  0  0  0  0
  -21.9194   -4.6952   22.3403 C   0  0  0  0  0  0
  -22.7864  -13.5246   21.1817 C   0  0  0  0  0  0
  -22.1654   -4.2131   21.0982 F   0  0  0  0  0  0
  -21.5635   -3.4542   25.7747 F   0  0  0  0  0  0
  -30.0434  -13.2417   20.4627 N   0  0  0  0  0  0
  -26.3050  -12.9300   20.3380 N   0  0  0  0  0  0
  -25.9310  -11.6462   20.5733 N   0  0  0  0  0  0
  -22.0508  -12.8240   22.0381 N   0  0  0  0  0  0
  -25.4352  -15.1871   20.4065 N   0  0  0  0  0  0
  -31.7793  -14.6628   20.0761 O   0  0  0  0  0  0
  -21.6636   -6.8875   21.4234 O   0  0  0  0  0  0
  -22.3547  -14.5556   20.6681 O   0  0  0  0  0  0
  -24.6087  -31.8688   23.2117 C   0  0  0  0  0  0
  -25.8989  -32.4823   23.8413 C   0  0  1  0  0  0
  -27.2518  -27.4622   20.1011 C   0  0  0  0  0  0
  -25.5859  -33.8621   24.2332 N   0  0  0  0  0  0
  -23.3976  -30.4892   21.5484 C   0  0  2  0  0  0
  -24.8464  -28.9485   20.1217 C   0  0  0  0  0  0
  -22.7403  -29.4665   22.4999 C   0  0  0  0  0  0
  -18.0290  -28.1334   22.8490 C   0  0  0  0  0  0
  -24.1479  -36.7311   23.2641 C   0  0  0  0  0  0
  -25.9181  -30.8457   21.3555 C   0  0  0  0  0  0
  -26.0010  -29.4786   20.7078 C   0  0  0  0  0  0
  -27.2031  -28.7431   20.6909 C   0  0  0  0  0  0
  -26.0769  -26.9305   19.5228 C   0  0  0  0  0  0
  -24.8774  -27.6741   19.5261 C   0  0  0  0  0  0
  -23.6074  -29.8145   20.1640 C   0  0  0  0  0  0
  -25.4101  -36.3107   24.0337 C   0  0  1  0  0  0
  -20.5863  -28.3635   23.1315 C   0  0  2  0  0  0
  -20.6745  -26.9377   22.5396 C   0  0  0  0  0  0
  -19.5736  -26.6355   21.5176 C   0  0  0  0  0  0
  -18.1926  -26.7876   22.1600 C   0  0  0  0  0  0
  -19.1533  -28.8799   23.2898 C   0  0  0  0  0  0
  -18.9471  -30.1400   23.8909 C   0  0  0  0  0  0
  -17.6480  -30.6550   24.0553 C   0  0  0  0  0  0
  -25.9001  -34.9470   23.5131 C   0  0  0  0  0  0
  -16.5367  -29.9053   23.6306 C   0  0  0  0  0  0
  -16.7283  -28.6465   23.0333 C   0  0  0  0  0  0
  -26.4462  -31.6593   25.0708 C   0  0  0  0  0  0
  -25.3769  -31.3678   26.1475 C   0  0  0  0  0  0
  -27.0284  -30.3059   24.6010 C   0  0  0  0  0  0
  -27.6046  -32.4317   25.7472 C   0  0  0  0  0  0
  -27.5574  -37.1798   24.8471 C   0  0  0  0  0  0
  -21.4135  -29.3028   22.3742 N   0  0  0  0  0  0
  -26.4293  -37.3778   23.9400 N   0  0  0  0  0  0
  -24.6595  -31.0828   22.0997 N   0  0  0  0  0  0
  -23.4180  -28.8218   23.3046 O   0  0  0  0  0  0
  -28.4660  -26.8124   20.0895 O   0  0  0  0  0  0
  -26.5541  -34.8914   22.4673 O   0  0  0  0  0  0
  -23.5280  -32.1436   23.7515 O   0  0  0  0  0  0
  -29.6746  -18.5954   23.0701 C   0  0  0  0  0  0
  -29.4748  -17.2565   22.6864 C   0  0  0  0  0  0
  -30.8479  -19.2739   22.6976 C   0  0  0  0  0  0
  -31.6211  -17.2758   21.5396 C   0  0  0  0  0  0
  -30.4384  -16.5834   21.9054 C   0  0  0  0  0  0
  -31.8428  -18.6141   21.9386 C   0  0  0  0  0  0
  -31.5875  -23.1782   21.2965 C   0  0  0  0  0  0
  -30.2070  -23.4963   20.7006 C   0  0  0  0  0  0
  -29.9149  -25.0144   20.6268 C   0  0  0  0  0  0
  -33.5152  -21.5908   21.3111 C   0  0  0  0  0  0
  -28.5097  -25.3879   20.1152 C   0  0  0  0  0  0
  -33.5138  -20.3542   22.2276 C   0  0  0  0  0  0
  -30.1479  -15.2309   21.5537 N   0  0  0  0  0  0
  -32.1691  -22.0269   20.9290 N   0  0  0  0  0  0
  -32.1268  -23.9672   22.0748 O   0  0  0  0  0  0
  -33.0266  -19.1979   21.5399 O   0  0  0  0  0  0
  -31.4669  -12.4110   19.0992 H   0  0  0  0  0  0
  -30.3320  -11.2736   19.7659 H   0  0  0  0  0  0
  -29.7277  -11.8213   17.3976 H   0  0  0  0  0  0
  -29.6638  -13.5217   17.7816 H   0  0  0  0  0  0
  -27.8106  -11.3267   18.7741 H   0  0  0  0  0  0
  -27.3673  -12.6913   17.7820 H   0  0  0  0  0  0
  -27.7308  -14.2548   19.6209 H   0  0  0  0  0  0
  -28.6756  -11.8686   21.2804 H   0  0  0  0  0  0
  -28.4450  -13.4619   21.9070 H   0  0  0  0  0  0
  -25.2757   -9.5693   22.4736 H   0  0  0  0  0  0
  -23.9993   -7.4646   22.7481 H   0  0  0  0  0  0
  -21.0829   -8.8772   19.8950 H   0  0  0  0  0  0
  -22.3689  -10.9663   19.6146 H   0  0  0  0  0  0
  -21.2005   -7.6136   23.9706 H   0  0  0  0  0  0
  -21.1482   -6.0518   25.9074 H   0  0  0  0  0  0
  -22.0600   -2.7595   23.2860 H   0  0  0  0  0  0
  -22.4111  -11.9899   22.4768 H   0  0  0  0  0  0
  -21.1126  -13.1254   22.2574 H   0  0  0  0  0  0
  -24.6767  -15.8503   20.5247 H   0  0  0  0  0  0
  -26.2983  -15.6242   20.1065 H   0  0  0  0  0  0
  -26.7054  -32.5582   23.1183 H   0  0  0  0  0  0
  -25.0043  -33.9817   25.0501 H   0  0  0  0  0  0
  -22.6843  -31.3042   21.4016 H   0  0  0  0  0  0
  -23.3724  -35.9654   23.3332 H   0  0  0  0  0  0
  -24.3582  -36.8891   22.2050 H   0  0  0  0  0  0
  -23.7252  -37.6540   23.6641 H   0  0  0  0  0  0
  -26.0114  -31.6142   20.5871 H   0  0  0  0  0  0
  -26.8122  -30.9145   21.9644 H   0  0  0  0  0  0
  -28.1018  -29.1537   21.1304 H   0  0  0  0  0  0
  -26.0850  -25.9563   19.0532 H   0  0  0  0  0  0
  -23.9884  -27.2609   19.0674 H   0  0  0  0  0  0
  -23.7219  -30.5865   19.4020 H   0  0  0  0  0  0
  -22.7326  -29.2348   19.8643 H   0  0  0  0  0  0
  -25.1282  -36.1971   25.0831 H   0  0  0  0  0  0
  -20.9972  -28.3146   24.1432 H   0  0  0  0  0  0
  -20.5588  -26.2272   23.3590 H   0  0  0  0  0  0
  -21.6631  -26.7375   22.1237 H   0  0  0  0  0  0
  -19.6914  -25.6269   21.1221 H   0  0  0  0  0  0
  -19.6633  -27.3143   20.6682 H   0  0  0  0  0  0
  -17.4191  -26.6633   21.4009 H   0  0  0  0  0  0
  -18.0336  -25.9974   22.8960 H   0  0  0  0  0  0
  -19.7957  -30.7185   24.2295 H   0  0  0  0  0  0
  -17.5052  -31.6251   24.5117 H   0  0  0  0  0  0
  -15.5371  -30.2955   23.7628 H   0  0  0  0  0  0
  -15.8682  -28.0795   22.7015 H   0  0  0  0  0  0
  -24.5936  -30.7014   25.7844 H   0  0  0  0  0  0
  -24.8952  -32.2823   26.4946 H   0  0  0  0  0  0
  -25.8134  -30.8859   27.0227 H   0  0  0  0  0  0
  -26.2797  -29.6834   24.1090 H   0  0  0  0  0  0
  -27.4152  -29.7250   25.4396 H   0  0  0  0  0  0
  -27.8583  -30.4427   23.9064 H   0  0  0  0  0  0
  -27.2673  -33.3609   26.2081 H   0  0  0  0  0  0
  -28.3849  -32.6889   25.0302 H   0  0  0  0  0  0
  -28.0723  -31.8433   26.5376 H   0  0  0  0  0  0
  -28.2584  -38.0100   24.7478 H   0  0  0  0  0  0
  -28.1076  -36.2610   24.6348 H   0  0  0  0  0  0
  -27.2285  -37.1515   25.8879 H   0  0  0  0  0  0
  -20.9293  -29.8821   21.7037 H   0  0  0  0  0  0
  -26.0176  -38.2845   24.1437 H   0  0  0  0  0  0
  -28.9243  -19.1071   23.6555 H   0  0  0  0  0  0
  -28.5660  -16.7590   22.9952 H   0  0  0  0  0  0
  -30.9498  -20.3057   23.0003 H   0  0  0  0  0  0
  -32.3945  -16.7981   20.9592 H   0  0  0  0  0  0
  -29.4565  -22.9944   21.3125 H   0  0  0  0  0  0
  -30.1363  -23.0652   19.7011 H   0  0  0  0  0  0
  -30.6633  -25.4887   19.9883 H   0  0  0  0  0  0
  -30.0461  -25.4603   21.6145 H   0  0  0  0  0  0
  -34.0832  -21.3703   20.4053 H   0  0  0  0  0  0
  -34.0626  -22.3907   21.8135 H   0  0  0  0  0  0
  -27.7505  -24.9870   20.7866 H   0  0  0  0  0  0
  -28.3340  -24.9803   19.1170 H   0  0  0  0  0  0
  -33.0380  -20.5555   23.1859 H   0  0  0  0  0  0
  -34.5489  -20.1324   22.4865 H   0  0  0  0  0  0
  -29.3059  -14.8547   21.9605 H   0  0  0  0  0  0
  -31.6662  -21.4232   20.2924 H   0  0  0  0  0  0
  1 25  1  0  0  0
  1 30  2  0  0  0
  1 83  1  0  0  0
  2  3  1  0  0  0
  2 25  1  0  0  0
  2 87  1  0  0  0
  2 88  1  0  0  0
  3  4  1  0  0  0
  3 89  1  0  0  0
  3 90  1  0  0  0
  4  5  1  0  0  0
  4 91  1  0  0  0
  4 92  1  0  0  0
  5  6  1  0  0  0
  5 26  1  0  0  0
  5 93  1  0  0  0
  6 25  1  0  0  0
  6 94  1  0  0  0
  6 95  1  0  0  0
  7  8  2  0  0  0
  7 26  1  0  0  0
  7 29  1  0  0  0
  8  9  1  0  0  0
  8 22  1  0  0  0
  9 10  1  0  0  0
  9 27  2  0  0  0
 10 11  2  0  0  0
 10 15  1  0  0  0
 11 12  1  0  0  0
 11 96  1  0  0  0
 12 13  2  0  0  0
 12 97  1  0  0  0
 13 14  1  0  0  0
 13 31  1  0  0  0
 14 15  2  0  0  0
 14 98  1  0  0  0
 15 99  1  0  0  0
 16 17  2  0  0  0
 16 21  1  0  0  0
 16 31  1  0  0  0
 17 18  1  0  0  0
 17100  1  0  0  0
 18 19  2  0  0  0
 18101  1  0  0  0
 19 20  1  0  0  0
 19 24  1  0  0  0
 20 21  2  0  0  0
 20102  1  0  0  0
 21 23  1  0  0  0
 22 28  1  0  0  0
 22 32  2  0  0  0
 26 27  1  0  0  0
 28103  1  0  0  0
 28104  1  0  0  0
 29105  1  0  0  0
 29106  1  0  0  0
 33 34  1  0  0  0
 33 66  1  0  0  0
 33 70  2  0  0  0
 34 36  1  0  0  0
 34 59  1  0  0  0
 34107  1  0  0  0
 35 44  2  0  0  0
 35 45  1  0  0  0
 35 68  1  0  0  0
 36 56  1  0  0  0
 36108  1  0  0  0
 37 39  1  0  0  0
 37 47  1  0  0  0
 37 66  1  0  0  0
 37109  1  0  0  0
 38 43  2  0  0  0
 38 46  1  0  0  0
 38 47  1  0  0  0
 39 64  1  0  0  0
 39 67  2  0  0  0
 40 52  1  0  0  0
 40 53  2  0  0  0
 40 58  1  0  0  0
 41110  1  0  0  0
 41111  1  0  0  0
 41112  1  0  0  0
 41 48  1  0  0  0
 42 43  1  0  0  0
 42 66  1  0  0  0
 42113  1  0  0  0
 42114  1  0  0  0
 43 44  1  0  0  0
 44115  1  0  0  0
 45 46  2  0  0  0
 45116  1  0  0  0
 46117  1  0  0  0
 47118  1  0  0  0
 47119  1  0  0  0
 48 56  1  0  0  0
 48 65  1  0  0  0
 48120  1  0  0  0
 49 50  1  0  0  0
 49 53  1  0  0  0
 49 64  1  0  0  0
 49121  1  0  0  0
 50 51  1  0  0  0
 50122  1  0  0  0
 50123  1  0  0  0
 51 52  1  0  0  0
 51124  1  0  0  0
 51125  1  0  0  0
 52126  1  0  0  0
 52127  1  0  0  0
 53 54  1  0  0  0
 54 55  2  0  0  0
 54128  1  0  0  0
 55 57  1  0  0  0
 55129  1  0  0  0
 56 69  2  0  0  0
 57 58  2  0  0  0
 57130  1  0  0  0
 58131  1  0  0  0
 59 60  1  0  0  0
 59 61  1  0  0  0
 59 62  1  0  0  0
 60132  1  0  0  0
 60133  1  0  0  0
 60134  1  0  0  0
 61135  1  0  0  0
 61136  1  0  0  0
 61137  1  0  0  0
 62138  1  0  0  0
 62139  1  0  0  0
 62140  1  0  0  0
 63 65  1  0  0  0
 63141  1  0  0  0
 63142  1  0  0  0
 63143  1  0  0  0
 64144  1  0  0  0
 65145  1  0  0  0
 68 81  1  0  0  0
 71 72  2  0  0  0
 71 73  1  0  0  0
 71146  1  0  0  0
 72 75  1  0  0  0
 72147  1  0  0  0
 73 76  2  0  0  0
 73148  1  0  0  0
 74 75  2  0  0  0
 74 76  1  0  0  0
 74149  1  0  0  0
 75 83  1  0  0  0
 76 86  1  0  0  0
 77 78  1  0  0  0
 77 84  1  0  0  0
 77 85  2  0  0  0
 78 79  1  0  0  0
 78150  1  0  0  0
 78151  1  0  0  0
 79 81  1  0  0  0
 79152  1  0  0  0
 79153  1  0  0  0
 80 82  1  0  0  0
 80 84  1  0  0  0
 80154  1  0  0  0
 80155  1  0  0  0
 81156  1  0  0  0
 81157  1  0  0  0
 82 86  1  0  0  0
 82158  1  0  0  0
 82159  1  0  0  0
 83160  1  0  0  0
 84161  1  0  0  0
M  ISO  4   1 100  68 101  81 101  83 100
M  END
> <chiral flag>
0

> <version>
0

> <s_m_source_file>
/data/baiqing/PycharmProjects/Reinvent-master-3.2/result/LINK_invent/BTK/process_docking_weight1_custom_sum_contain_oxygen_bond_distance_aromatic_linkinvent_7_9_3/rearranged_h_0006.sdf

> <i_m_source_file_index>
59

> <r_mmod_Potential_Energy-OPLS-2005>
-169.661956787109

> <r_mmod_Stretch_Energy-OPLS-2005>
35.0169715881348

> <r_mmod_Bend_Energy-OPLS-2005>
118.025459289551

> <r_mmod_Torsional_Energy-OPLS-2005>
209.168106079102

> <r_mmod_Improper_Torsional_Energy-OPLS-2005>
1.98918616771698

> <r_mmod_Van_der_Waal_Energy-OPLS-2005>
160.885269165039

> <r_mmod_Electrostatic_Energy-OPLS-2005>
-463.509735107422

> <r_mmod_Solvation_Energy-OPLS-2005>
-239.696624755859

> <b_mmod_Minimization_Converged-OPLS-2005>
0

> <r_mmod_RMS_Derivative-OPLS-2005>
2.81239175796509

$$$$
59
                    3D
 Structure written by MMmdl.
161169  0  0  1  0            999 V2000
  -30.6072  -14.6596   20.4773 C   0  0  0  0  0  0
  -30.4451  -12.4017   19.4496 C   0  0  0  0  0  0
  -29.5100  -12.5037   18.2236 C   0  0  0  0  0  0
  -28.0323  -12.3425   18.6386 C   0  0  0  0  0  0
  -27.6503  -13.2182   19.8625 C   0  0  2  0  0  0
  -28.7002  -13.0822   20.9889 C   0  0  0  0  0  0
  -25.2535  -13.8130   20.5755 C   0  0  0  0  0  0
  -24.1802  -13.0391   20.9201 C   0  0  0  0  0  0
  -24.6394  -11.6878   20.8750 C   0  0  0  0  0  0
  -23.9072  -10.4267   21.0419 C   0  0  0  0  0  0
  -24.3612   -9.4176   21.9197 C   0  0  0  0  0  0
  -23.6275   -8.2219   22.0762 C   0  0  0  0  0  0
  -22.4256   -8.0267   21.3554 C   0  0  0  0  0  0
  -21.9902   -9.0248   20.4656 C   0  0  0  0  0  0
  -22.7247  -10.2120   20.3065 C   0  0  0  0  0  0
  -21.6843   -6.0730   22.5287 C   0  0  0  0  0  0
  -21.4014   -6.5636   23.8222 C   0  0  0  0  0  0
  -21.3653   -5.6791   24.9184 C   0  0  0  0  0  0
  -21.6038   -4.3055   24.7237 C   0  0  0  0  0  0
  -21.8816   -3.8144   23.4359 C   0  0  0  0  0  0
  -21.9186   -4.6959   22.3411 C   0  0  0  0  0  0
  -22.7826  -13.5202   21.1850 C   0  0  0  0  0  0
  -22.1651   -4.2143   21.0993 F   0  0  0  0  0  0
  -21.5621   -3.4535   25.7748 F   0  0  0  0  0  0
  -30.0115  -13.4272   20.4163 N   0  0  0  0  0  0
  -26.2975  -12.9341   20.3339 N   0  0  0  0  0  0
  -25.9323  -11.6491   20.5756 N   0  0  0  0  0  0
  -22.0453  -12.8223   22.0414 N   0  0  0  0  0  0
  -25.4153  -15.1856   20.4313 N   0  0  0  0  0  0
  -31.7902  -14.8209   20.1628 O   0  0  0  0  0  0
  -21.6623   -6.8866   21.4247 O   0  0  0  0  0  0
  -22.3526  -14.5511   20.6690 O   0  0  0  0  0  0
  -24.6255  -31.8591   23.2038 C   0  0  0  0  0  0
  -25.9109  -32.4775   23.8364 C   0  0  1  0  0  0
  -27.2295  -27.3232   20.1152 C   0  0  0  0  0  0
  -25.5923  -33.8577   24.2291 N   0  0  0  0  0  0
  -23.4191  -30.4832   21.5451 C   0  0  2  0  0  0
  -24.8660  -28.9386   20.1117 C   0  0  0  0  0  0
  -22.7476  -29.4613   22.4928 C   0  0  0  0  0  0
  -18.0284  -28.1386   22.8482 C   0  0  0  0  0  0
  -24.1482  -36.7299   23.2638 C   0  0  0  0  0  0
  -25.9593  -30.7919   21.3738 C   0  0  0  0  0  0
  -26.0343  -29.4189   20.7168 C   0  0  0  0  0  0
  -27.2177  -28.6228   20.7086 C   0  0  0  0  0  0
  -26.0355  -26.8935   19.4900 C   0  0  0  0  0  0
  -24.8688  -27.6810   19.4892 C   0  0  0  0  0  0
  -23.6343  -29.8196   20.1597 C   0  0  0  0  0  0
  -25.4106  -36.3082   24.0332 C   0  0  1  0  0  0
  -20.5882  -28.3684   23.1283 C   0  0  2  0  0  0
  -20.6768  -26.9408   22.5410 C   0  0  0  0  0  0
  -19.5743  -26.6381   21.5207 C   0  0  0  0  0  0
  -18.1923  -26.7928   22.1622 C   0  0  0  0  0  0
  -19.1537  -28.8852   23.2875 C   0  0  0  0  0  0
  -18.9458  -30.1451   23.8896 C   0  0  0  0  0  0
  -17.6460  -30.6586   24.0564 C   0  0  0  0  0  0
  -25.9043  -34.9447   23.5109 C   0  0  0  0  0  0
  -16.5351  -29.9087   23.6327 C   0  0  0  0  0  0
  -16.7270  -28.6505   23.0345 C   0  0  0  0  0  0
  -26.4506  -31.6581   25.0731 C   0  0  0  0  0  0
  -25.3746  -31.3725   26.1467 C   0  0  0  0  0  0
  -27.0348  -30.3001   24.6179 C   0  0  0  0  0  0
  -27.6057  -32.4318   25.7511 C   0  0  0  0  0  0
  -27.5574  -37.1803   24.8466 C   0  0  0  0  0  0
  -21.4188  -29.3045   22.3687 N   0  0  0  0  0  0
  -26.4286  -37.3773   23.9410 N   0  0  0  0  0  0
  -24.6866  -31.0612   22.0982 N   0  0  0  0  0  0
  -23.4203  -28.8138   23.2992 O   0  0  0  0  0  0
  -28.3579  -26.4875   20.1625 O   0  0  0  0  0  0
  -26.5610  -34.8915   22.4676 O   0  0  0  0  0  0
  -23.5421  -32.1385   23.7374 O   0  0  0  0  0  0
  -28.7239  -19.3539   20.2949 C   0  0  0  0  0  0
  -31.0061  -17.8959   21.0035 C   0  0  0  0  0  0
  -29.8413  -20.1034   20.7437 C   0  0  0  0  0  0
  -31.0044  -19.3259   21.0726 C   0  0  0  0  0  0
  -29.8640  -17.1607   20.6037 C   0  0  0  0  0  0
  -28.7274  -17.9208   20.2083 C   0  0  0  0  0  0
  -29.7421  -21.6300   21.0360 C   0  0  0  0  0  0
  -32.2901  -19.9932   21.5406 C   0  0  0  0  0  0
  -28.9254  -22.1971   18.7619 C   0  0  0  0  0  0
  -26.6163  -17.9124   19.0686 C   0  0  0  0  0  0
  -29.3805  -24.0733   20.3810 C   0  0  0  0  0  0
  -28.1799  -25.0304   19.9633 C   0  0  0  0  0  0
  -29.7426  -15.7039   20.6672 N   0  0  0  0  0  0
  -29.2763  -22.5721   20.1347 N   0  0  0  0  0  0
  -30.1349  -21.9958   22.1472 O   0  0  0  0  0  0
  -27.6380  -17.2012   19.7621 O   0  0  0  0  0  0
  -31.4857  -12.5358   19.1465 H   0  0  0  0  0  0
  -30.3858  -11.4095   19.9004 H   0  0  0  0  0  0
  -29.7757  -11.7451   17.4865 H   0  0  0  0  0  0
  -29.6501  -13.4683   17.7323 H   0  0  0  0  0  0
  -27.8725  -11.2905   18.8776 H   0  0  0  0  0  0
  -27.3753  -12.5662   17.7976 H   0  0  0  0  0  0
  -27.6586  -14.2511   19.5148 H   0  0  0  0  0  0
  -28.7173  -12.0626   21.3771 H   0  0  0  0  0  0
  -28.4530  -13.7214   21.8382 H   0  0  0  0  0  0
  -25.2751   -9.5640   22.4791 H   0  0  0  0  0  0
  -23.9969   -7.4608   22.7481 H   0  0  0  0  0  0
  -21.0827   -8.8790   19.8965 H   0  0  0  0  0  0
  -22.3715  -10.9671   19.6185 H   0  0  0  0  0  0
  -21.2017   -7.6149   23.9728 H   0  0  0  0  0  0
  -21.1471   -6.0523   25.9090 H   0  0  0  0  0  0
  -22.0600   -2.7604   23.2871 H   0  0  0  0  0  0
  -22.4048  -11.9897   22.4847 H   0  0  0  0  0  0
  -21.1081  -13.1291   22.2612 H   0  0  0  0  0  0
  -24.6375  -15.8212   20.5637 H   0  0  0  0  0  0
  -26.2666  -15.6577   20.1482 H   0  0  0  0  0  0
  -26.7179  -32.5448   23.1116 H   0  0  0  0  0  0
  -25.0080  -33.9724   25.0443 H   0  0  0  0  0  0
  -22.7120  -31.3033   21.4041 H   0  0  0  0  0  0
  -23.3733  -35.9641   23.3303 H   0  0  0  0  0  0
  -24.3568  -36.8912   22.2049 H   0  0  0  0  0  0
  -23.7246  -37.6508   23.6660 H   0  0  0  0  0  0
  -26.0882  -31.5535   20.6034 H   0  0  0  0  0  0
  -26.8413  -30.8428   22.0006 H   0  0  0  0  0  0
  -28.1138  -28.9876   21.1911 H   0  0  0  0  0  0
  -25.9757  -25.9339   18.9999 H   0  0  0  0  0  0
  -23.9736  -27.3091   19.0097 H   0  0  0  0  0  0
  -23.7568  -30.5977   19.4053 H   0  0  0  0  0  0
  -22.7538  -29.2521   19.8536 H   0  0  0  0  0  0
  -25.1279  -36.1936   25.0823 H   0  0  0  0  0  0
  -20.9967  -28.3257   24.1406 H   0  0  0  0  0  0
  -20.5650  -26.2296   23.3607 H   0  0  0  0  0  0
  -21.6637  -26.7425   22.1212 H   0  0  0  0  0  0
  -19.6899  -25.6291   21.1233 H   0  0  0  0  0  0
  -19.6680  -27.3193   20.6735 H   0  0  0  0  0  0
  -17.4189  -26.6662   21.4030 H   0  0  0  0  0  0
  -18.0333  -26.0077   22.9024 H   0  0  0  0  0  0
  -19.7936  -30.7259   24.2267 H   0  0  0  0  0  0
  -17.5020  -31.6266   24.5170 H   0  0  0  0  0  0
  -15.5354  -30.2993   23.7651 H   0  0  0  0  0  0
  -15.8665  -28.0826   22.7062 H   0  0  0  0  0  0
  -24.5927  -30.7059   25.7818 H   0  0  0  0  0  0
  -24.8944  -32.2898   26.4882 H   0  0  0  0  0  0
  -25.8089  -30.8926   27.0246 H   0  0  0  0  0  0
  -26.2925  -29.6753   24.1204 H   0  0  0  0  0  0
  -27.4044  -29.7254   25.4682 H   0  0  0  0  0  0
  -27.8796  -30.4281   23.9407 H   0  0  0  0  0  0
  -27.2655  -33.3612   26.2093 H   0  0  0  0  0  0
  -28.3885  -32.6880   25.0360 H   0  0  0  0  0  0
  -28.0714  -31.8443   26.5433 H   0  0  0  0  0  0
  -28.2592  -38.0096   24.7495 H   0  0  0  0  0  0
  -28.1064  -36.2624   24.6306 H   0  0  0  0  0  0
  -27.2293  -37.1477   25.8868 H   0  0  0  0  0  0
  -20.9357  -29.8801   21.6932 H   0  0  0  0  0  0
  -26.0163  -38.2845   24.1408 H   0  0  0  0  0  0
  -27.8253  -19.9061   20.0671 H   0  0  0  0  0  0
  -31.8910  -17.3535   21.3062 H   0  0  0  0  0  0
  -33.1405  -19.3161   21.4624 H   0  0  0  0  0  0
  -32.2048  -20.2970   22.5848 H   0  0  0  0  0  0
  -32.5214  -20.8728   20.9388 H   0  0  0  0  0  0
  -29.0325  -23.0322   18.0699 H   0  0  0  0  0  0
  -27.8915  -21.8537   18.7117 H   0  0  0  0  0  0
  -29.5674  -21.4025   18.3800 H   0  0  0  0  0  0
  -26.0114  -18.5016   19.7584 H   0  0  0  0  0  0
  -25.9547  -17.2041   18.5709 H   0  0  0  0  0  0
  -27.0213  -18.5683   18.2960 H   0  0  0  0  0  0
  -29.5601  -24.2622   21.4401 H   0  0  0  0  0  0
  -30.2857  -24.4140   19.8775 H   0  0  0  0  0  0
  -27.2978  -24.7037   20.5157 H   0  0  0  0  0  0
  -27.9599  -24.8744   18.9073 H   0  0  0  0  0  0
  -28.7876  -15.3922   20.7528 H   0  0  0  0  0  0
  1 25  1  0  0  0
  1 30  2  0  0  0
  1 83  1  0  0  0
  2  3  1  0  0  0
  2 25  1  0  0  0
  2 87  1  0  0  0
  2 88  1  0  0  0
  3  4  1  0  0  0
  3 89  1  0  0  0
  3 90  1  0  0  0
  4  5  1  0  0  0
  4 91  1  0  0  0
  4 92  1  0  0  0
  5  6  1  0  0  0
  5 26  1  0  0  0
  5 93  1  0  0  0
  6 25  1  0  0  0
  6 94  1  0  0  0
  6 95  1  0  0  0
  7  8  2  0  0  0
  7 26  1  0  0  0
  7 29  1  0  0  0
  8  9  1  0  0  0
  8 22  1  0  0  0
  9 10  1  0  0  0
  9 27  2  0  0  0
 10 11  2  0  0  0
 10 15  1  0  0  0
 11 12  1  0  0  0
 11 96  1  0  0  0
 12 13  2  0  0  0
 12 97  1  0  0  0
 13 14  1  0  0  0
 13 31  1  0  0  0
 14 15  2  0  0  0
 14 98  1  0  0  0
 15 99  1  0  0  0
 16 17  2  0  0  0
 16 21  1  0  0  0
 16 31  1  0  0  0
 17 18  1  0  0  0
 17100  1  0  0  0
 18 19  2  0  0  0
 18101  1  0  0  0
 19 20  1  0  0  0
 19 24  1  0  0  0
 20 21  2  0  0  0
 20102  1  0  0  0
 21 23  1  0  0  0
 22 28  1  0  0  0
 22 32  2  0  0  0
 26 27  1  0  0  0
 28103  1  0  0  0
 28104  1  0  0  0
 29105  1  0  0  0
 29106  1  0  0  0
 33 34  1  0  0  0
 33 66  1  0  0  0
 33 70  2  0  0  0
 34 36  1  0  0  0
 34 59  1  0  0  0
 34107  1  0  0  0
 35 44  2  0  0  0
 35 45  1  0  0  0
 35 68  1  0  0  0
 36 56  1  0  0  0
 36108  1  0  0  0
 37 39  1  0  0  0
 37 47  1  0  0  0
 37 66  1  0  0  0
 37109  1  0  0  0
 38 43  2  0  0  0
 38 46  1  0  0  0
 38 47  1  0  0  0
 39 64  1  0  0  0
 39 67  2  0  0  0
 40 52  1  0  0  0
 40 53  2  0  0  0
 40 58  1  0  0  0
 41110  1  0  0  0
 41111  1  0  0  0
 41112  1  0  0  0
 41 48  1  0  0  0
 42 43  1  0  0  0
 42 66  1  0  0  0
 42113  1  0  0  0
 42114  1  0  0  0
 43 44  1  0  0  0
 44115  1  0  0  0
 45 46  2  0  0  0
 45116  1  0  0  0
 46117  1  0  0  0
 47118  1  0  0  0
 47119  1  0  0  0
 48 56  1  0  0  0
 48 65  1  0  0  0
 48120  1  0  0  0
 49 50  1  0  0  0
 49 53  1  0  0  0
 49 64  1  0  0  0
 49121  1  0  0  0
 50 51  1  0  0  0
 50122  1  0  0  0
 50123  1  0  0  0
 51 52  1  0  0  0
 51124  1  0  0  0
 51125  1  0  0  0
 52126  1  0  0  0
 52127  1  0  0  0
 53 54  1  0  0  0
 54 55  2  0  0  0
 54128  1  0  0  0
 55 57  1  0  0  0
 55129  1  0  0  0
 56 69  2  0  0  0
 57 58  2  0  0  0
 57130  1  0  0  0
 58131  1  0  0  0
 59 60  1  0  0  0
 59 61  1  0  0  0
 59 62  1  0  0  0
 60132  1  0  0  0
 60133  1  0  0  0
 60134  1  0  0  0
 61135  1  0  0  0
 61136  1  0  0  0
 61137  1  0  0  0
 62138  1  0  0  0
 62139  1  0  0  0
 62140  1  0  0  0
 63 65  1  0  0  0
 63141  1  0  0  0
 63142  1  0  0  0
 63143  1  0  0  0
 64144  1  0  0  0
 65145  1  0  0  0
 68 82  1  0  0  0
 71 73  2  0  0  0
 71 76  1  0  0  0
 71146  1  0  0  0
 72 74  2  0  0  0
 72 75  1  0  0  0
 72147  1  0  0  0
 73 74  1  0  0  0
 73 77  1  0  0  0
 74 78  1  0  0  0
 75 76  2  0  0  0
 75 83  1  0  0  0
 76 86  1  0  0  0
 77 84  1  0  0  0
 77 85  2  0  0  0
 78148  1  0  0  0
 78149  1  0  0  0
 78150  1  0  0  0
 79 84  1  0  0  0
 79151  1  0  0  0
 79152  1  0  0  0
 79153  1  0  0  0
 80 86  1  0  0  0
 80154  1  0  0  0
 80155  1  0  0  0
 80156  1  0  0  0
 81 82  1  0  0  0
 81 84  1  0  0  0
 81157  1  0  0  0
 81158  1  0  0  0
 82159  1  0  0  0
 82160  1  0  0  0
 83161  1  0  0  0
M  ISO  4   1 100  68 101  82 101  83 100
M  END
> <chiral flag>
0

> <version>
0

> <s_m_source_file>
/data/baiqing/PycharmProjects/Reinvent-master-3.2/result/LINK_invent/BTK/process_docking_weight1_custom_sum_contain_oxygen_bond_distance_aromatic_linkinvent_7_9_3/rearranged_h_0006.sdf

> <i_m_source_file_index>
60

> <r_mmod_Potential_Energy-OPLS-2005>
91.820198059082

> <r_mmod_Stretch_Energy-OPLS-2005>
87.7037811279297

> <r_mmod_Bend_Energy-OPLS-2005>
149.067199707031

> <r_mmod_Torsional_Energy-OPLS-2005>
267.591339111328

> <r_mmod_Improper_Torsional_Energy-OPLS-2005>
7.19654321670532

> <r_mmod_Van_der_Waal_Energy-OPLS-2005>
157.513854980469

> <r_mmod_Electrostatic_Energy-OPLS-2005>
-404.382507324219

> <r_mmod_Solvation_Energy-OPLS-2005>
-224.977401733398

> <b_mmod_Minimization_Converged-OPLS-2005>
0

> <r_mmod_RMS_Derivative-OPLS-2005>
1.38338208198547

$$$$
60
                    3D
 Structure written by MMmdl.
170178  0  0  1  0            999 V2000
  -29.9498  -12.9283   20.2502 C   0  0  0  0  0  0
  -31.0485  -12.1533   19.3809 C   0  0  0  0  0  0
  -29.8082  -12.4075   17.9547 C   0  0  0  0  0  0
  -28.2169  -13.1085   18.3336 C   0  0  0  0  0  0
  -27.7472  -13.6893   19.9370 C   0  0  2  0  0  0
  -28.9311  -13.4472   21.3743 C   0  0  0  0  0  0
  -25.2707  -14.1260   20.2685 C   0  0  0  0  0  0
  -24.2022  -13.3196   20.4649 C   0  0  0  0  0  0
  -24.8742  -12.0799   20.5939 C   0  0  0  0  0  0
  -24.3855  -10.9109   20.9281 C   0  0  0  0  0  0
  -24.9210   -9.8839   22.2386 C   0  0  0  0  0  0
  -23.8455   -8.6770   22.7072 C   0  0  0  0  0  0
  -22.4276   -8.4746   21.9292 C   0  0  0  0  0  0
  -21.9710   -9.4730   20.8051 C   0  0  0  0  0  0
  -22.8971  -10.6415   20.2599 C   0  0  0  0  0  0
  -21.7503   -6.2215   22.6644 C   0  0  0  0  0  0
  -21.4262   -6.6034   23.9754 C   0  0  0  0  0  0
  -21.3557   -5.6508   25.0014 C   0  0  0  0  0  0
  -21.5935   -4.2964   24.7255 C   0  0  0  0  0  0
  -21.8678   -3.8838   23.4096 C   0  0  0  0  0  0
  -21.9339   -4.8352   22.3701 C   0  0  0  0  0  0
  -22.7230  -13.7361   20.5942 C   0  0  0  0  0  0
  -22.1723   -4.3934   21.1082 F   0  0  0  0  0  0
  -21.5526   -3.3969   25.7360 F   0  0  0  0  0  0
  -30.4989  -12.6877   21.0172 N   0  0  0  0  0  0
  -26.3990  -13.3371   20.2585 N   0  0  0  0  0  0
  -26.1447  -12.0855   20.5381 N   0  0  0  0  0  0
  -21.8037  -13.0037   21.2217 N   0  0  0  0  0  0
  -25.3950  -15.4783   20.0730 N   0  0  0  0  0  0
  -30.3293  -14.1929   19.7606 O   0  0  0  0  0  0
  -21.8149   -7.2157   21.7150 O   0  0  0  0  0  0
  -22.3762  -14.8657   20.3158 O   0  0  0  0  0  0
  -24.6735  -31.8097   23.1681 C   0  0  0  0  0  0
  -25.9406  -32.4464   23.8110 C   0  0  1  0  0  0
  -26.7487  -26.5357   20.4846 C   0  0  0  0  0  0
  -25.6059  -33.8303   24.1983 N   0  0  0  0  0  0
  -23.4827  -30.4399   21.5151 C   0  0  2  0  0  0
  -24.8876  -28.7994   20.0905 C   0  0  0  0  0  0
  -22.7671  -29.4397   22.4643 C   0  0  0  0  0  0
  -18.0324  -28.1413   22.8453 C   0  0  0  0  0  0
  -24.1515  -36.7140   23.2636 C   0  0  0  0  0  0
  -26.0560  -30.5002   21.4572 C   0  0  0  0  0  0
  -26.0466  -29.0584   20.8275 C   0  0  0  0  0  0
  -27.0039  -27.9368   20.9953 C   0  0  0  0  0  0
  -25.7344  -26.5556   19.5219 C   0  0  0  0  0  0
  -24.8002  -27.6016   19.3722 C   0  0  0  0  0  0
  -23.7300  -29.7937   20.1216 C   0  0  0  0  0  0
  -25.4168  -36.2873   24.0258 C   0  0  1  0  0  0
  -20.5953  -28.3757   23.1143 C   0  0  2  0  0  0
  -20.6790  -26.9418   22.5399 C   0  0  0  0  0  0
  -19.5767  -26.6364   21.5210 C   0  0  0  0  0  0
  -18.1948  -26.7945   22.1613 C   0  0  0  0  0  0
  -19.1588  -28.8905   23.2797 C   0  0  0  0  0  0
  -18.9498  -30.1491   23.8844 C   0  0  0  0  0  0
  -17.6486  -30.6589   24.0547 C   0  0  0  0  0  0
  -25.9152  -34.9269   23.4935 C   0  0  0  0  0  0
  -16.5375  -29.9075   23.6339 C   0  0  0  0  0  0
  -16.7308  -28.6501   23.0357 C   0  0  0  0  0  0
  -26.4618  -31.6491   25.0721 C   0  0  0  0  0  0
  -25.3690  -31.3837   26.1340 C   0  0  0  0  0  0
  -27.0545  -30.2809   24.6662 C   0  0  0  0  0  0
  -27.6085  -32.4342   25.7531 C   0  0  0  0  0  0
  -27.5570  -37.1729   24.8461 C   0  0  0  0  0  0
  -21.4337  -29.3025   22.3442 N   0  0  0  0  0  0
  -26.4280  -37.3643   23.9398 N   0  0  0  0  0  0
  -24.7616  -30.9573   22.0944 N   0  0  0  0  0  0
  -23.4192  -28.7953   23.2901 O   0  0  0  0  0  0
  -27.2260  -25.1136   20.8468 O   0  0  0  0  0  0
  -26.5764  -34.8830   22.4535 O   0  0  0  0  0  0
  -23.5795  -32.1216   23.6686 O   0  0  0  0  0  0
  -26.9387  -16.6542   22.9363 C   0  0  0  0  0  0
  -25.9976  -15.5826   23.1206 C   0  0  0  0  0  0
  -26.6767  -18.0153   22.5502 C   0  0  0  0  0  0
  -24.3998  -17.2642   22.5137 C   0  0  0  0  0  0
  -24.5969  -15.6860   22.9238 C   0  0  0  0  0  0
  -25.3920  -18.5525   22.2872 C   0  0  0  0  0  0
  -23.8023  -12.5968   23.2378 C   0  0  0  0  0  0
  -22.3496  -14.5831   23.6948 C   0  0  0  0  0  0
  -22.9197  -10.8968   22.6215 C   0  0  0  0  0  0
  -24.2340   -8.7298   20.4052 C   0  0  0  0  0  0
  -25.7253   -9.0179   19.6153 C   0  0  0  0  0  0
  -27.2020   -9.4179   20.2644 C   0  0  0  0  0  0
  -28.2394  -10.4293   19.5057 C   0  0  0  0  0  0
  -26.3064  -23.5559   21.0298 C   0  0  0  0  0  0
  -26.3304  -21.6357   21.6321 C   0  0  0  0  0  0
  -29.1073  -11.4826   20.2851 N   0  0  0  0  0  0
  -23.6657  -14.2009   23.1771 N   0  0  0  0  0  0
  -24.8127  -12.3082   23.8819 O   0  0  0  0  0  0
  -25.3193  -20.1451   21.8586 O   0  0  0  0  0  0
  -32.0181  -12.6063   19.1061 H   0  0  0  0  0  0
  -31.3588  -11.0963   19.4056 H   0  0  0  0  0  0
  -29.6771  -11.4629   17.4257 H   0  0  0  0  0  0
  -30.2828  -13.0527   17.2130 H   0  0  0  0  0  0
  -27.3938  -12.6034   17.8314 H   0  0  0  0  0  0
  -28.2219  -14.0270   17.7466 H   0  0  0  0  0  0
  -27.7585  -14.7718   19.8126 H   0  0  0  0  0  0
  -28.4102  -12.8930   22.1710 H   0  0  0  0  0  0
  -29.0618  -14.4125   21.8898 H   0  0  0  0  0  0
  -25.8246  -10.0732   22.7970 H   0  0  0  0  0  0
  -24.1641   -7.9563   23.4456 H   0  0  0  0  0  0
  -21.0530   -9.2629   20.2749 H   0  0  0  0  0  0
  -22.5443  -11.2427   19.4327 H   0  0  0  0  0  0
  -21.2442   -7.6413   24.2131 H   0  0  0  0  0  0
  -21.1257   -5.9611   26.0102 H   0  0  0  0  0  0
  -22.0291   -2.8391   23.1941 H   0  0  0  0  0  0
  -21.9852  -12.0338   21.4417 H   0  0  0  0  0  0
  -20.8695  -13.3715   21.3309 H   0  0  0  0  0  0
  -24.6159  -16.1019   20.2431 H   0  0  0  0  0  0
  -26.2888  -15.9485   20.1321 H   0  0  0  0  0  0
  -26.7420  -32.4879   23.0744 H   0  0  0  0  0  0
  -25.0144  -33.9384   25.0090 H   0  0  0  0  0  0
  -22.8052  -31.2822   21.3601 H   0  0  0  0  0  0
  -23.3788  -35.9457   23.3234 H   0  0  0  0  0  0
  -24.3562  -36.8877   22.2059 H   0  0  0  0  0  0
  -23.7280  -37.6296   23.6768 H   0  0  0  0  0  0
  -26.2909  -31.2124   20.6649 H   0  0  0  0  0  0
  -26.9058  -30.5462   22.1240 H   0  0  0  0  0  0
  -27.8314  -28.0835   21.6751 H   0  0  0  0  0  0
  -25.5190  -25.6312   19.0038 H   0  0  0  0  0  0
  -23.9431  -27.4283   18.7367 H   0  0  0  0  0  0
  -23.9536  -30.5794   19.3997 H   0  0  0  0  0  0
  -22.8215  -29.3111   19.7569 H   0  0  0  0  0  0
  -25.1381  -36.1606   25.0743 H   0  0  0  0  0  0
  -21.0053  -28.3376   24.1264 H   0  0  0  0  0  0
  -20.5660  -26.2367   23.3652 H   0  0  0  0  0  0
  -21.6652  -26.7374   22.1213 H   0  0  0  0  0  0
  -19.6909  -25.6263   21.1268 H   0  0  0  0  0  0
  -19.6709  -27.3145   20.6719 H   0  0  0  0  0  0
  -17.4216  -26.6687   21.4016 H   0  0  0  0  0  0
  -18.0340  -26.0113   22.9036 H   0  0  0  0  0  0
  -19.7978  -30.7323   24.2185 H   0  0  0  0  0  0
  -17.5038  -31.6265   24.5165 H   0  0  0  0  0  0
  -15.5377  -30.2953   23.7707 H   0  0  0  0  0  0
  -15.8713  -28.0805   22.7093 H   0  0  0  0  0  0
  -24.5927  -30.7117   25.7654 H   0  0  0  0  0  0
  -24.8836  -32.3078   26.4486 H   0  0  0  0  0  0
  -25.7870  -30.9200   27.0282 H   0  0  0  0  0  0
  -26.3232  -29.6401   24.1717 H   0  0  0  0  0  0
  -27.3988  -29.7276   25.5407 H   0  0  0  0  0  0
  -27.9238  -30.3896   24.0174 H   0  0  0  0  0  0
  -27.2638  -33.3725   26.1884 H   0  0  0  0  0  0
  -28.4016  -32.6754   25.0441 H   0  0  0  0  0  0
  -28.0607  -31.8613   26.5639 H   0  0  0  0  0  0
  -28.2535  -38.0070   24.7505 H   0  0  0  0  0  0
  -28.1121  -36.2585   24.6298 H   0  0  0  0  0  0
  -27.2269  -37.1359   25.8858 H   0  0  0  0  0  0
  -20.9572  -29.8761   21.6619 H   0  0  0  0  0  0
  -26.0085  -38.2673   24.1436 H   0  0  0  0  0  0
  -27.9755  -16.4023   23.1069 H   0  0  0  0  0  0
  -26.3871  -14.6179   23.4147 H   0  0  0  0  0  0
  -27.5271  -18.6759   22.4537 H   0  0  0  0  0  0
  -23.3648  -17.5114   22.3239 H   0  0  0  0  0  0
  -21.9126  -15.3860   23.1011 H   0  0  0  0  0  0
  -22.4596  -14.9503   24.7154 H   0  0  0  0  0  0
  -21.6292  -13.7643   23.7288 H   0  0  0  0  0  0
  -21.8401  -11.0608   22.5705 H   0  0  0  0  0  0
  -22.8379  -10.5009   23.6425 H   0  0  0  0  0  0
  -23.6286   -8.4735   19.5221 H   0  0  0  0  0  0
  -24.4158   -7.6929   20.7290 H   0  0  0  0  0  0
  -25.5175   -9.7924   18.8752 H   0  0  0  0  0  0
  -25.9081   -8.1483   18.9835 H   0  0  0  0  0  0
  -27.7277   -8.4725   20.4009 H   0  0  0  0  0  0
  -27.1497   -9.7819   21.2777 H   0  0  0  0  0  0
  -27.6797  -10.8059   18.6675 H   0  0  0  0  0  0
  -28.9749   -9.7856   19.0225 H   0  0  0  0  0  0
  -25.4167  -23.9304   21.5382 H   0  0  0  0  0  0
  -25.9716  -23.4359   19.9991 H   0  0  0  0  0  0
  -26.7523  -21.7285   22.6327 H   0  0  0  0  0  0
  -27.1577  -21.2367   21.0430 H   0  0  0  0  0  0
  -29.4104  -11.0433   21.1400 H   0  0  0  0  0  0
  1 25  1  0  0  0
  1 30  2  0  0  0
  1 86  1  0  0  0
  2  3  1  0  0  0
  2 25  1  0  0  0
  2 90  1  0  0  0
  2 91  1  0  0  0
  3  4  1  0  0  0
  3 92  1  0  0  0
  3 93  1  0  0  0
  4  5  1  0  0  0
  4 94  1  0  0  0
  4 95  1  0  0  0
  5  6  1  0  0  0
  5 26  1  0  0  0
  5 96  1  0  0  0
  6 25  1  0  0  0
  6 97  1  0  0  0
  6 98  1  0  0  0
  7  8  2  0  0  0
  7 26  1  0  0  0
  7 29  1  0  0  0
  8  9  1  0  0  0
  8 22  1  0  0  0
  9 10  1  0  0  0
  9 27  2  0  0  0
 10 11  2  0  0  0
 10 15  1  0  0  0
 11 12  1  0  0  0
 11 99  1  0  0  0
 12 13  2  0  0  0
 12100  1  0  0  0
 13 14  1  0  0  0
 13 31  1  0  0  0
 14 15  2  0  0  0
 14101  1  0  0  0
 15102  1  0  0  0
 16 17  2  0  0  0
 16 21  1  0  0  0
 16 31  1  0  0  0
 17 18  1  0  0  0
 17103  1  0  0  0
 18 19  2  0  0  0
 18104  1  0  0  0
 19 20  1  0  0  0
 19 24  1  0  0  0
 20 21  2  0  0  0
 20105  1  0  0  0
 21 23  1  0  0  0
 22 28  1  0  0  0
 22 32  2  0  0  0
 26 27  1  0  0  0
 28106  1  0  0  0
 28107  1  0  0  0
 29108  1  0  0  0
 29109  1  0  0  0
 33 34  1  0  0  0
 33 66  1  0  0  0
 33 70  2  0  0  0
 34 36  1  0  0  0
 34 59  1  0  0  0
 34110  1  0  0  0
 35 44  2  0  0  0
 35 45  1  0  0  0
 35 68  1  0  0  0
 36 56  1  0  0  0
 36111  1  0  0  0
 37 39  1  0  0  0
 37 47  1  0  0  0
 37 66  1  0  0  0
 37112  1  0  0  0
 38 43  2  0  0  0
 38 46  1  0  0  0
 38 47  1  0  0  0
 39 64  1  0  0  0
 39 67  2  0  0  0
 40 52  1  0  0  0
 40 53  2  0  0  0
 40 58  1  0  0  0
 41113  1  0  0  0
 41114  1  0  0  0
 41115  1  0  0  0
 41 48  1  0  0  0
 42 43  1  0  0  0
 42 66  1  0  0  0
 42116  1  0  0  0
 42117  1  0  0  0
 43 44  1  0  0  0
 44118  1  0  0  0
 45 46  2  0  0  0
 45119  1  0  0  0
 46120  1  0  0  0
 47121  1  0  0  0
 47122  1  0  0  0
 48 56  1  0  0  0
 48 65  1  0  0  0
 48123  1  0  0  0
 49 50  1  0  0  0
 49 53  1  0  0  0
 49 64  1  0  0  0
 49124  1  0  0  0
 50 51  1  0  0  0
 50125  1  0  0  0
 50126  1  0  0  0
 51 52  1  0  0  0
 51127  1  0  0  0
 51128  1  0  0  0
 52129  1  0  0  0
 52130  1  0  0  0
 53 54  1  0  0  0
 54 55  2  0  0  0
 54131  1  0  0  0
 55 57  1  0  0  0
 55132  1  0  0  0
 56 69  2  0  0  0
 57 58  2  0  0  0
 57133  1  0  0  0
 58134  1  0  0  0
 59 60  1  0  0  0
 59 61  1  0  0  0
 59 62  1  0  0  0
 60135  1  0  0  0
 60136  1  0  0  0
 60137  1  0  0  0
 61138  1  0  0  0
 61139  1  0  0  0
 61140  1  0  0  0
 62141  1  0  0  0
 62142  1  0  0  0
 62143  1  0  0  0
 63 65  1  0  0  0
 63144  1  0  0  0
 63145  1  0  0  0
 63146  1  0  0  0
 64147  1  0  0  0
 65148  1  0  0  0
 68 84  1  0  0  0
 71 72  2  0  0  0
 71 73  1  0  0  0
 71149  1  0  0  0
 72 75  1  0  0  0
 72150  1  0  0  0
 73 76  2  0  0  0
 73151  1  0  0  0
 74 75  2  0  0  0
 74 76  1  0  0  0
 74152  1  0  0  0
 75 87  1  0  0  0
 76 89  1  0  0  0
 77 79  1  0  0  0
 77 87  1  0  0  0
 77 88  2  0  0  0
 78 87  1  0  0  0
 78153  1  0  0  0
 78154  1  0  0  0
 78155  1  0  0  0
 79 80  1  0  0  0
 79156  1  0  0  0
 79157  1  0  0  0
 80 81  1  0  0  0
 80158  1  0  0  0
 80159  1  0  0  0
 81 82  1  0  0  0
 81160  1  0  0  0
 81161  1  0  0  0
 82 83  1  0  0  0
 82162  1  0  0  0
 82163  1  0  0  0
 83 86  1  0  0  0
 83164  1  0  0  0
 83165  1  0  0  0
 84 85  1  0  0  0
 84166  1  0  0  0
 84167  1  0  0  0
 85 89  1  0  0  0
 85168  1  0  0  0
 85169  1  0  0  0
 86170  1  0  0  0
M  ISO  4   1 100  68 101  84 101  86 100
M  END
> <chiral flag>
0

> <version>
0

> <s_m_source_file>
/data/baiqing/PycharmProjects/Reinvent-master-3.2/result/LINK_invent/BTK/process_docking_weight1_custom_sum_contain_oxygen_bond_distance_aromatic_linkinvent_7_9_3/rearranged_h_0006.sdf

> <i_m_source_file_index>
61

> <r_mmod_Potential_Energy-OPLS-2005>
14621.552734375

> <r_mmod_Stretch_Energy-OPLS-2005>
7934.94287109375

> <r_mmod_Bend_Energy-OPLS-2005>
1706.61437988281

> <r_mmod_Torsional_Energy-OPLS-2005>
481.133514404297

> <r_mmod_Improper_Torsional_Energy-OPLS-2005>
19.3967666625977

> <r_mmod_Van_der_Waal_Energy-OPLS-2005>
2905.67407226562

> <r_mmod_Electrostatic_Energy-OPLS-2005>
-350.675506591797

> <r_mmod_Solvation_Energy-OPLS-2005>
-231.945129394531

> <b_mmod_Minimization_Converged-OPLS-2005>
0

> <r_mmod_RMS_Derivative-OPLS-2005>
3.354243516922

$$$$
61
                    3D
 Structure written by MMmdl.
174181  0  0  1  0            999 V2000
  -29.1536  -14.4260   19.4995 C   0  0  0  0  0  0
  -30.6128  -12.5483   19.1420 C   0  0  0  0  0  0
  -29.5041  -11.9971   18.2554 C   0  0  0  0  0  0
  -28.3434  -11.6267   19.2082 C   0  0  0  0  0  0
  -28.3472  -12.3499   20.7125 C   0  0  2  0  0  0
  -29.5563  -12.8351   21.2654 C   0  0  0  0  0  0
  -25.7251  -14.4412   21.3431 C   0  0  0  0  0  0
  -23.9924  -13.6251   21.0534 C   0  0  0  0  0  0
  -24.2822  -11.4977   20.7193 C   0  0  0  0  0  0
  -23.7049  -10.2193   20.9048 C   0  0  0  0  0  0
  -24.1044   -9.4305   22.0013 C   0  0  0  0  0  0
  -23.4659   -8.2007   22.1887 C   0  0  0  0  0  0
  -22.3630   -7.8690   21.3638 C   0  0  0  0  0  0
  -22.0452   -8.6373   20.2524 C   0  0  0  0  0  0
  -22.8593   -9.6972   19.9469 C   0  0  0  0  0  0
  -21.6439   -5.9900   22.5730 C   0  0  0  0  0  0
  -21.3577   -6.5019   23.8554 C   0  0  0  0  0  0
  -21.3575   -5.6306   24.9538 C   0  0  0  0  0  0
  -21.6128   -4.2602   24.7624 C   0  0  0  0  0  0
  -21.8873   -3.7588   23.4763 C   0  0  0  0  0  0
  -21.9103   -4.6268   22.3809 C   0  0  0  0  0  0
  -22.8220  -14.5299   20.7517 C   0  0  0  0  0  0
  -22.1573   -4.1574   21.1311 F   0  0  0  0  0  0
  -21.5864   -3.4190   25.8155 F   0  0  0  0  0  0
  -29.9628  -13.4726   20.0675 N   0  0  0  0  0  0
  -27.2382  -12.7374   21.2134 N   0  0  0  0  0  0
  -26.1705  -11.0707   20.7841 N   0  0  0  0  0  0
  -21.6022  -14.4630   21.2245 N   0  0  0  0  0  0
  -25.9746  -15.7421   21.0002 N   0  0  0  0  0  0
  -29.9998  -15.3479   19.3681 O   0  0  0  0  0  0
  -21.5818   -6.7671   21.4703 O   0  0  0  0  0  0
  -22.9411  -15.4185   19.9864 O   0  0  0  0  0  0
  -24.6300  -31.8598   23.1934 C   0  0  0  0  0  0
  -25.9139  -32.4752   23.8323 C   0  0  1  0  0  0
  -27.0722  -27.2024   20.2973 C   0  0  0  0  0  0
  -25.5930  -33.8565   24.2277 N   0  0  0  0  0  0
  -23.4295  -30.4917   21.5364 C   0  0  2  0  0  0
  -24.8481  -28.9338   20.1040 C   0  0  0  0  0  0
  -22.7570  -29.4705   22.4869 C   0  0  0  0  0  0
  -18.0336  -28.1391   22.8360 C   0  0  0  0  0  0
  -24.1460  -36.7280   23.2657 C   0  0  0  0  0  0
  -25.9753  -30.7783   21.3536 C   0  0  0  0  0  0
  -26.0295  -29.3987   20.7030 C   0  0  0  0  0  0
  -27.1716  -28.5508   20.7532 C   0  0  0  0  0  0
  -25.9306  -26.8155   19.5866 C   0  0  0  0  0  0
  -24.8170  -27.6652   19.4994 C   0  0  0  0  0  0
  -23.6315  -29.8253   20.1507 C   0  0  0  0  0  0
  -25.4082  -36.3085   24.0358 C   0  0  1  0  0  0
  -20.5957  -28.3716   23.1138 C   0  0  2  0  0  0
  -20.6838  -26.9465   22.5309 C   0  0  0  0  0  0
  -19.5848  -26.6431   21.5128 C   0  0  0  0  0  0
  -18.1999  -26.7957   22.1470 C   0  0  0  0  0  0
  -19.1588  -28.8848   23.2756 C   0  0  0  0  0  0
  -18.9501  -30.1422   23.8805 C   0  0  0  0  0  0
  -17.6506  -30.6524   24.0593 C   0  0  0  0  0  0
  -25.9022  -34.9449   23.5109 C   0  0  0  0  0  0
  -16.5408  -29.9035   23.6312 C   0  0  0  0  0  0
  -16.7324  -28.6482   23.0275 C   0  0  0  0  0  0
  -26.4511  -31.6599   25.0744 C   0  0  0  0  0  0
  -25.3759  -31.3750   26.1478 C   0  0  0  0  0  0
  -27.0329  -30.3025   24.6185 C   0  0  0  0  0  0
  -27.6036  -32.4362   25.7563 C   0  0  0  0  0  0
  -27.5563  -37.1795   24.8461 C   0  0  0  0  0  0
  -21.4291  -29.3116   22.3600 N   0  0  0  0  0  0
  -26.4257  -37.3783   23.9419 N   0  0  0  0  0  0
  -24.7028  -31.0587   22.0840 N   0  0  0  0  0  0
  -23.4230  -28.8305   23.3034 O   0  0  0  0  0  0
  -28.0237  -26.2379   20.5955 O   0  0  0  0  0  0
  -26.5592  -34.8925   22.4670 O   0  0  0  0  0  0
  -23.5444  -32.1390   23.7237 O   0  0  0  0  0  0
  -25.6906  -12.9971   19.5882 C   0  0  0  0  0  0
  -27.2667  -14.0894   18.9727 C   0  0  0  0  0  0
  -22.3790  -12.9475   23.2684 C   0  0  0  0  0  0
  -22.3445  -14.6418   23.7302 C   0  0  0  0  0  0
  -21.6918  -12.0523   21.8628 C   0  0  0  0  0  0
  -23.1854  -15.9376   24.3947 C   0  0  0  0  0  0
  -21.7566  -12.1522   20.0325 C   0  0  0  0  0  0
  -23.9171  -17.1606   23.4886 C   0  0  0  0  0  0
  -26.3499  -24.0576   21.6508 C   0  0  0  0  0  0
  -22.9623  -12.5337   18.7212 C   0  0  0  0  0  0
  -26.5460  -22.5953   22.3963 C   0  0  0  0  0  0
  -27.6827  -24.8123   21.0328 C   0  0  0  0  0  0
  -23.9100  -18.8264   23.6570 C   0  0  0  0  0  0
  -24.5837  -12.8628   18.6349 N   0  0  0  0  0  0
  -25.3097  -21.6446   22.6336 N   0  0  0  0  0  0
  -25.4278  -12.5371   22.0913 O   0  0  0  0  0  0
  -26.5886  -19.5209   23.5870 O   0  0  0  0  0  0
  -25.3965  -19.3407   21.3813 O   0  0  0  0  0  0
  -25.3920  -19.8012   22.7719 S   0  0  0  0  0  0
  -31.3582  -13.0770   18.5431 H   0  0  0  0  0  0
  -31.1459  -11.7445   19.6437 H   0  0  0  0  0  0
  -29.8429  -11.1082   17.7217 H   0  0  0  0  0  0
  -29.2114  -12.6868   17.4645 H   0  0  0  0  0  0
  -28.5276  -10.5809   19.4635 H   0  0  0  0  0  0
  -27.4306  -11.5334   18.6316 H   0  0  0  0  0  0
  -28.0008  -13.3305   21.0167 H   0  0  0  0  0  0
  -30.1960  -12.0040   21.5543 H   0  0  0  0  0  0
  -29.5023  -13.5134   22.1322 H   0  0  0  0  0  0
  -24.8296   -9.7857   22.7217 H   0  0  0  0  0  0
  -23.7702   -7.5793   23.0177 H   0  0  0  0  0  0
  -21.2716   -8.3075   19.5710 H   0  0  0  0  0  0
  -22.7425  -10.1299   18.9768 H   0  0  0  0  0  0
  -21.1173   -7.5466   23.9950 H   0  0  0  0  0  0
  -21.1459   -5.9944   25.9484 H   0  0  0  0  0  0
  -22.0757   -2.7064   23.3360 H   0  0  0  0  0  0
  -21.3767  -13.7265   21.8786 H   0  0  0  0  0  0
  -20.9329  -15.1638   20.9582 H   0  0  0  0  0  0
  -25.2460  -16.4392   20.9138 H   0  0  0  0  0  0
  -26.9039  -16.1440   20.9964 H   0  0  0  0  0  0
  -26.7276  -32.5364   23.1122 H   0  0  0  0  0  0
  -25.0140  -33.9728   25.0474 H   0  0  0  0  0  0
  -22.7325  -31.3192   21.3837 H   0  0  0  0  0  0
  -23.3740  -35.9589   23.3302 H   0  0  0  0  0  0
  -24.3568  -36.8889   22.2071 H   0  0  0  0  0  0
  -23.7175  -37.6479   23.6664 H   0  0  0  0  0  0
  -26.0911  -31.5452   20.5856 H   0  0  0  0  0  0
  -26.8632  -30.8470   21.9758 H   0  0  0  0  0  0
  -28.0860  -28.8767   21.2322 H   0  0  0  0  0  0
  -25.8602  -25.8152   19.1839 H   0  0  0  0  0  0
  -23.9244  -27.3080   19.0021 H   0  0  0  0  0  0
  -23.7444  -30.5885   19.3799 H   0  0  0  0  0  0
  -22.7504  -29.2510   19.8556 H   0  0  0  0  0  0
  -25.1255  -36.1998   25.0861 H   0  0  0  0  0  0
  -21.0098  -28.3316   24.1215 H   0  0  0  0  0  0
  -20.5527  -26.2327   23.3451 H   0  0  0  0  0  0
  -21.6746  -26.7484   22.1199 H   0  0  0  0  0  0
  -19.7018  -25.6351   21.1147 H   0  0  0  0  0  0
  -19.6771  -27.3216   20.6638 H   0  0  0  0  0  0
  -17.4311  -26.6648   21.3808 H   0  0  0  0  0  0
  -18.0435  -26.0061   22.8783 H   0  0  0  0  0  0
  -19.8045  -30.7192   24.2059 H   0  0  0  0  0  0
  -17.5126  -31.6156   24.5315 H   0  0  0  0  0  0
  -15.5419  -30.2919   23.7721 H   0  0  0  0  0  0
  -15.8736  -28.0835   22.6947 H   0  0  0  0  0  0
  -24.5905  -30.7136   25.7856 H   0  0  0  0  0  0
  -24.8977  -32.2886   26.4981 H   0  0  0  0  0  0
  -25.8066  -30.8914   27.0235 H   0  0  0  0  0  0
  -26.2861  -29.6845   24.1179 H   0  0  0  0  0  0
  -27.4013  -29.7249   25.4678 H   0  0  0  0  0  0
  -27.8762  -30.4336   23.9397 H   0  0  0  0  0  0
  -27.2623  -33.3650   26.2122 H   0  0  0  0  0  0
  -28.3861  -32.6927   25.0444 H   0  0  0  0  0  0
  -28.0689  -31.8527   26.5495 H   0  0  0  0  0  0
  -28.2555  -38.0127   24.7540 H   0  0  0  0  0  0
  -28.1085  -36.2642   24.6241 H   0  0  0  0  0  0
  -27.2285  -37.1400   25.8871 H   0  0  0  0  0  0
  -20.9521  -29.8920   21.6854 H   0  0  0  0  0  0
  -26.0156  -38.2867   24.1440 H   0  0  0  0  0  0
  -26.8713  -15.0860   18.7994 H   0  0  0  0  0  0
  -27.3467  -13.7623   17.9376 H   0  0  0  0  0  0
  -21.8616  -12.4758   24.0983 H   0  0  0  0  0  0
  -23.3809  -12.5715   23.4271 H   0  0  0  0  0  0
  -21.3693  -15.0687   23.4743 H   0  0  0  0  0  0
  -23.1206  -14.8688   23.0426 H   0  0  0  0  0  0
  -20.6259  -12.2392   22.0380 H   0  0  0  0  0  0
  -21.6695  -10.9905   22.1176 H   0  0  0  0  0  0
  -23.9302  -15.5805   25.1111 H   0  0  0  0  0  0
  -22.4497  -16.4456   25.0260 H   0  0  0  0  0  0
  -20.9090  -12.7869   19.7541 H   0  0  0  0  0  0
  -21.1534  -11.3142   19.6890 H   0  0  0  0  0  0
  -23.6912  -16.9728   22.4353 H   0  0  0  0  0  0
  -24.9851  -16.9398   23.5845 H   0  0  0  0  0  0
  -25.7714  -24.7388   22.2900 H   0  0  0  0  0  0
  -25.6791  -23.8562   20.8123 H   0  0  0  0  0  0
  -22.5290  -13.4245   18.2752 H   0  0  0  0  0  0
  -22.7787  -11.8544   17.8880 H   0  0  0  0  0  0
  -27.0741  -22.7528   23.3517 H   0  0  0  0  0  0
  -27.2545  -22.0506   21.7672 H   0  0  0  0  0  0
  -27.9070  -24.2359   20.1439 H   0  0  0  0  0  0
  -28.4922  -24.5638   21.7235 H   0  0  0  0  0  0
  -23.8928  -19.1516   24.6977 H   0  0  0  0  0  0
  -22.9958  -19.2470   23.2403 H   0  0  0  0  0  0
  -24.8616  -13.1443   17.7042 H   0  0  0  0  0  0
  -24.6784  -21.8120   21.8477 H   0  0  0  0  0  0
  1 25  1  0  0  0
  1 30  2  0  0  0
  1 72  1  0  0  0
  2  3  1  0  0  0
  2 25  1  0  0  0
  2 90  1  0  0  0
  2 91  1  0  0  0
  3  4  1  0  0  0
  3 92  1  0  0  0
  3 93  1  0  0  0
  4  5  1  0  0  0
  4 94  1  0  0  0
  4 95  1  0  0  0
  5  6  1  0  0  0
  5 26  1  0  0  0
  5 96  1  0  0  0
  6 25  1  0  0  0
  6 97  1  0  0  0
  6 98  1  0  0  0
  7  8  2  0  0  0
  7 26  1  0  0  0
  7 29  1  0  0  0
  8  9  1  0  0  0
  8 22  1  0  0  0
  9 10  1  0  0  0
  9 27  2  0  0  0
 10 11  2  0  0  0
 10 15  1  0  0  0
 11 12  1  0  0  0
 11 99  1  0  0  0
 12 13  2  0  0  0
 12100  1  0  0  0
 13 14  1  0  0  0
 13 31  1  0  0  0
 14 15  2  0  0  0
 14101  1  0  0  0
 15102  1  0  0  0
 16 17  2  0  0  0
 16 21  1  0  0  0
 16 31  1  0  0  0
 17 18  1  0  0  0
 17103  1  0  0  0
 18 19  2  0  0  0
 18104  1  0  0  0
 19 20  1  0  0  0
 19 24  1  0  0  0
 20 21  2  0  0  0
 20105  1  0  0  0
 21 23  1  0  0  0
 22 28  1  0  0  0
 22 32  2  0  0  0
 26 27  1  0  0  0
 28106  1  0  0  0
 28107  1  0  0  0
 29108  1  0  0  0
 29109  1  0  0  0
 33 34  1  0  0  0
 33 66  1  0  0  0
 33 70  2  0  0  0
 34 36  1  0  0  0
 34 59  1  0  0  0
 34110  1  0  0  0
 35 44  2  0  0  0
 35 45  1  0  0  0
 35 68  1  0  0  0
 36 56  1  0  0  0
 36111  1  0  0  0
 37 39  1  0  0  0
 37 47  1  0  0  0
 37 66  1  0  0  0
 37112  1  0  0  0
 38 43  2  0  0  0
 38 46  1  0  0  0
 38 47  1  0  0  0
 39 64  1  0  0  0
 39 67  2  0  0  0
 40 52  1  0  0  0
 40 53  2  0  0  0
 40 58  1  0  0  0
 41113  1  0  0  0
 41114  1  0  0  0
 41115  1  0  0  0
 41 48  1  0  0  0
 42 43  1  0  0  0
 42 66  1  0  0  0
 42116  1  0  0  0
 42117  1  0  0  0
 43 44  1  0  0  0
 44118  1  0  0  0
 45 46  2  0  0  0
 45119  1  0  0  0
 46120  1  0  0  0
 47121  1  0  0  0
 47122  1  0  0  0
 48 56  1  0  0  0
 48 65  1  0  0  0
 48123  1  0  0  0
 49 50  1  0  0  0
 49 53  1  0  0  0
 49 64  1  0  0  0
 49124  1  0  0  0
 50 51  1  0  0  0
 50125  1  0  0  0
 50126  1  0  0  0
 51 52  1  0  0  0
 51127  1  0  0  0
 51128  1  0  0  0
 52129  1  0  0  0
 52130  1  0  0  0
 53 54  1  0  0  0
 54 55  2  0  0  0
 54131  1  0  0  0
 55 57  1  0  0  0
 55132  1  0  0  0
 56 69  2  0  0  0
 57 58  2  0  0  0
 57133  1  0  0  0
 58134  1  0  0  0
 59 60  1  0  0  0
 59 61  1  0  0  0
 59 62  1  0  0  0
 60135  1  0  0  0
 60136  1  0  0  0
 60137  1  0  0  0
 61138  1  0  0  0
 61139  1  0  0  0
 61140  1  0  0  0
 62141  1  0  0  0
 62142  1  0  0  0
 62143  1  0  0  0
 63 65  1  0  0  0
 63144  1  0  0  0
 63145  1  0  0  0
 63146  1  0  0  0
 64147  1  0  0  0
 65148  1  0  0  0
 68 82  1  0  0  0
 71 72  1  0  0  0
 71 84  1  0  0  0
 71 86  2  0  0  0
 72149  1  0  0  0
 72150  1  0  0  0
 73 74  1  0  0  0
 73 75  1  0  0  0
 73151  1  0  0  0
 73152  1  0  0  0
 74 76  1  0  0  0
 74153  1  0  0  0
 74154  1  0  0  0
 75 77  1  0  0  0
 75155  1  0  0  0
 75156  1  0  0  0
 76 78  1  0  0  0
 76157  1  0  0  0
 76158  1  0  0  0
 77 80  1  0  0  0
 77159  1  0  0  0
 77160  1  0  0  0
 78 83  1  0  0  0
 78161  1  0  0  0
 78162  1  0  0  0
 79 81  1  0  0  0
 79 82  1  0  0  0
 79163  1  0  0  0
 79164  1  0  0  0
 80 84  1  0  0  0
 80165  1  0  0  0
 80166  1  0  0  0
 81 85  1  0  0  0
 81167  1  0  0  0
 81168  1  0  0  0
 82169  1  0  0  0
 82170  1  0  0  0
 83171  1  0  0  0
 83172  1  0  0  0
 83 89  1  0  0  0
 84173  1  0  0  0
 85 89  1  0  0  0
 85174  1  0  0  0
 87 89  2  0  0  0
 88 89  2  0  0  0
M  ISO  4   1 100  68 101  72 100  82 101
M  END
> <chiral flag>
0

> <version>
0

> <s_m_source_file>
/data/baiqing/PycharmProjects/Reinvent-master-3.2/result/LINK_invent/BTK/process_docking_weight1_custom_sum_contain_oxygen_bond_distance_aromatic_linkinvent_7_9_3/rearranged_h_0006.sdf

> <i_m_source_file_index>
62

> <r_mmod_Potential_Energy-OPLS-2005>
18572.38671875

> <r_mmod_Stretch_Energy-OPLS-2005>
10293.8759765625

> <r_mmod_Bend_Energy-OPLS-2005>
1465.38134765625

> <r_mmod_Torsional_Energy-OPLS-2005>
436.342742919922

> <r_mmod_Improper_Torsional_Energy-OPLS-2005>
46.7240676879883

> <r_mmod_Van_der_Waal_Energy-OPLS-2005>
4572.935546875

> <r_mmod_Electrostatic_Energy-OPLS-2005>
-546.328857421875

> <r_mmod_Solvation_Energy-OPLS-2005>
-274.056610107422

> <b_mmod_Minimization_Converged-OPLS-2005>
0

> <r_mmod_RMS_Derivative-OPLS-2005>
23.0133800506592

$$$$
62
                    3D
 Structure written by MMmdl.
170177  0  0  1  0            999 V2000
  -30.6964  -14.4731   20.5072 C   0  0  0  0  0  0
  -30.4377  -12.3042   19.3736 C   0  0  0  0  0  0
  -29.4676  -12.4638   18.1820 C   0  0  0  0  0  0
  -27.9921  -12.3515   18.6166 C   0  0  0  0  0  0
  -27.6575  -13.1836   19.8821 C   0  0  2  0  0  0
  -28.7306  -12.9363   20.9675 C   0  0  0  0  0  0
  -25.2582  -13.8042   20.5706 C   0  0  0  0  0  0
  -24.1812  -13.0364   20.9213 C   0  0  0  0  0  0
  -24.6381  -11.6850   20.8863 C   0  0  0  0  0  0
  -23.9058  -10.4248   21.0488 C   0  0  0  0  0  0
  -24.3611   -9.4148   21.9231 C   0  0  0  0  0  0
  -23.6279   -8.2191   22.0777 C   0  0  0  0  0  0
  -22.4264   -8.0266   21.3559 C   0  0  0  0  0  0
  -21.9915   -9.0253   20.4674 C   0  0  0  0  0  0
  -22.7258  -10.2129   20.3094 C   0  0  0  0  0  0
  -21.6827   -6.0749   22.5286 C   0  0  0  0  0  0
  -21.4001   -6.5656   23.8220 C   0  0  0  0  0  0
  -21.3651   -5.6801   24.9168 C   0  0  0  0  0  0
  -21.6031   -4.3067   24.7223 C   0  0  0  0  0  0
  -21.8817   -3.8158   23.4347 C   0  0  0  0  0  0
  -21.9197   -4.6977   22.3406 C   0  0  0  0  0  0
  -22.7839  -13.5214   21.1823 C   0  0  0  0  0  0
  -22.1660   -4.2168   21.0986 F   0  0  0  0  0  0
  -21.5615   -3.4555   25.7743 F   0  0  0  0  0  0
  -30.0404  -13.2831   20.3908 N   0  0  0  0  0  0
  -26.3039  -12.9198   20.3566 N   0  0  0  0  0  0
  -25.9324  -11.6399   20.5986 N   0  0  0  0  0  0
  -22.0454  -12.8240   22.0409 N   0  0  0  0  0  0
  -25.4213  -15.1706   20.3895 N   0  0  0  0  0  0
  -31.8986  -14.5848   20.2512 O   0  0  0  0  0  0
  -21.6596   -6.8901   21.4259 O   0  0  0  0  0  0
  -22.3565  -14.5531   20.6660 O   0  0  0  0  0  0
  -24.6148  -31.8690   23.2155 C   0  0  0  0  0  0
  -25.9054  -32.4833   23.8426 C   0  0  1  0  0  0
  -27.2382  -27.4725   20.0728 C   0  0  0  0  0  0
  -25.5932  -33.8629   24.2362 N   0  0  0  0  0  0
  -23.3996  -30.4958   21.5536 C   0  0  2  0  0  0
  -24.8432  -28.9642   20.1201 C   0  0  0  0  0  0
  -22.7402  -29.4682   22.5013 C   0  0  0  0  0  0
  -18.0254  -28.1393   22.8478 C   0  0  0  0  0  0
  -24.1477  -36.7305   23.2639 C   0  0  0  0  0  0
  -25.9256  -30.8449   21.3618 C   0  0  0  0  0  0
  -26.0026  -29.4827   20.7088 C   0  0  0  0  0  0
  -27.2042  -28.7439   20.6809 C   0  0  0  0  0  0
  -26.0611  -26.9602   19.4843 C   0  0  0  0  0  0
  -24.8648  -27.6991   19.5089 C   0  0  0  0  0  0
  -23.6050  -29.8282   20.1686 C   0  0  0  0  0  0
  -25.4098  -36.3115   24.0347 C   0  0  1  0  0  0
  -20.5846  -28.3670   23.1329 C   0  0  2  0  0  0
  -20.6765  -26.9410   22.5431 C   0  0  0  0  0  0
  -19.5762  -26.6388   21.5217 C   0  0  0  0  0  0
  -18.1921  -26.7946   22.1588 C   0  0  0  0  0  0
  -19.1504  -28.8842   23.2910 C   0  0  0  0  0  0
  -18.9441  -30.1444   23.8929 C   0  0  0  0  0  0
  -17.6452  -30.6600   24.0559 C   0  0  0  0  0  0
  -25.9025  -34.9482   23.5141 C   0  0  0  0  0  0
  -16.5341  -29.9101   23.6332 C   0  0  0  0  0  0
  -16.7246  -28.6518   23.0355 C   0  0  0  0  0  0
  -26.4474  -31.6613   25.0750 C   0  0  0  0  0  0
  -25.3741  -31.3725   26.1498 C   0  0  0  0  0  0
  -27.0292  -30.3062   24.6122 C   0  0  0  0  0  0
  -27.6078  -32.4309   25.7491 C   0  0  0  0  0  0
  -27.5582  -37.1803   24.8465 C   0  0  0  0  0  0
  -21.4130  -29.3046   22.3735 N   0  0  0  0  0  0
  -26.4289  -37.3805   23.9408 N   0  0  0  0  0  0
  -24.6644  -31.0831   22.1033 N   0  0  0  0  0  0
  -23.4186  -28.8223   23.3041 O   0  0  0  0  0  0
  -28.4229  -26.7761   20.0425 O   0  0  0  0  0  0
  -26.5563  -34.8930   22.4683 O   0  0  0  0  0  0
  -23.5342  -32.1410   23.7579 O   0  0  0  0  0  0
  -29.6334  -16.1136   19.1959 C   0  0  0  0  0  0
  -26.9410  -22.2220   18.7918 C   0  0  0  0  0  0
  -30.7100  -16.1664   18.0996 C   0  0  0  0  0  0
  -24.6407  -21.7749   19.6057 C   0  0  0  0  0  0
  -27.0541  -23.4064   19.7617 C   0  0  0  0  0  0
  -28.2024  -24.3869   19.4415 C   0  0  0  0  0  0
  -27.5295  -17.9843   21.3845 C   0  0  0  0  0  0
  -27.3922  -19.1030   20.3343 C   0  0  0  0  0  0
  -28.9771  -17.5843   21.7604 C   0  0  0  0  0  0
  -26.0618  -18.9932   19.5583 C   0  0  0  0  0  0
  -29.2266  -16.0515   21.6599 C   0  0  0  0  0  0
  -25.8908  -20.0142   18.4165 C   0  0  0  0  0  0
  -28.3775  -25.4453   20.5469 C   0  0  0  0  0  0
  -29.8842  -15.5593   20.4177 N   0  0  0  0  0  0
  -25.8842  -21.3881   18.9307 N   0  0  0  0  0  0
  -28.5423  -16.6098   18.9118 O   0  0  0  0  0  0
  -27.8511  -22.0168   17.9826 O   0  0  0  0  0  0
  -31.4648  -12.4467   19.0321 H   0  0  0  0  0  0
  -30.3902  -11.2910   19.7770 H   0  0  0  0  0  0
  -29.6886  -11.7125   17.4243 H   0  0  0  0  0  0
  -29.6089  -13.4251   17.6934 H   0  0  0  0  0  0
  -27.7811  -11.2988   18.8046 H   0  0  0  0  0  0
  -27.3382  -12.6468   17.7955 H   0  0  0  0  0  0
  -27.6798  -14.2283   19.5928 H   0  0  0  0  0  0
  -28.7303  -11.8801   21.2424 H   0  0  0  0  0  0
  -28.5307  -13.4623   21.8970 H   0  0  0  0  0  0
  -25.2757   -9.5568   22.4822 H   0  0  0  0  0  0
  -23.9973   -7.4568   22.7489 H   0  0  0  0  0  0
  -21.0841   -8.8809   19.8987 H   0  0  0  0  0  0
  -22.3757  -10.9696   19.6213 H   0  0  0  0  0  0
  -21.1990   -7.6161   23.9739 H   0  0  0  0  0  0
  -21.1479   -6.0516   25.9085 H   0  0  0  0  0  0
  -22.0617   -2.7627   23.2826 H   0  0  0  0  0  0
  -22.4024  -11.9887   22.4799 H   0  0  0  0  0  0
  -21.1107  -13.1315   22.2698 H   0  0  0  0  0  0
  -24.6437  -15.8149   20.4799 H   0  0  0  0  0  0
  -26.2658  -15.6127   20.0431 H   0  0  0  0  0  0
  -26.7135  -32.5526   23.1190 H   0  0  0  0  0  0
  -25.0168  -33.9805   25.0571 H   0  0  0  0  0  0
  -22.6887  -31.3137   21.4182 H   0  0  0  0  0  0
  -23.3747  -35.9634   23.3310 H   0  0  0  0  0  0
  -24.3577  -36.8908   22.2057 H   0  0  0  0  0  0
  -23.7228  -37.6514   23.6633 H   0  0  0  0  0  0
  -26.0344  -31.6125   20.5943 H   0  0  0  0  0  0
  -26.8161  -30.8972   21.9774 H   0  0  0  0  0  0
  -28.1033  -29.1456   21.1255 H   0  0  0  0  0  0
  -26.0644  -26.0097   18.9765 H   0  0  0  0  0  0
  -23.9725  -27.2997   19.0448 H   0  0  0  0  0  0
  -23.7147  -30.6029   19.4098 H   0  0  0  0  0  0
  -22.7286  -29.2503   19.8684 H   0  0  0  0  0  0
  -25.1271  -36.1982   25.0847 H   0  0  0  0  0  0
  -20.9926  -28.3240   24.1455 H   0  0  0  0  0  0
  -20.5682  -26.2280   23.3615 H   0  0  0  0  0  0
  -21.6640  -26.7479   22.1222 H   0  0  0  0  0  0
  -19.6938  -25.6301   21.1252 H   0  0  0  0  0  0
  -19.6738  -27.3190   20.6748 H   0  0  0  0  0  0
  -17.4217  -26.6712   21.3962 H   0  0  0  0  0  0
  -18.0303  -26.0074   22.8962 H   0  0  0  0  0  0
  -19.7918  -30.7240   24.2340 H   0  0  0  0  0  0
  -17.5005  -31.6288   24.5147 H   0  0  0  0  0  0
  -15.5348  -30.3016   23.7664 H   0  0  0  0  0  0
  -15.8633  -28.0849   22.7086 H   0  0  0  0  0  0
  -24.6031  -30.6903   25.7886 H   0  0  0  0  0  0
  -24.8773  -32.2857   26.4784 H   0  0  0  0  0  0
  -25.8124  -30.9093   27.0345 H   0  0  0  0  0  0
  -26.2836  -29.6843   24.1155 H   0  0  0  0  0  0
  -27.4038  -29.7287   25.4581 H   0  0  0  0  0  0
  -27.8675  -30.4382   23.9281 H   0  0  0  0  0  0
  -27.2749  -33.3620   26.2070 H   0  0  0  0  0  0
  -28.3881  -32.6835   25.0306 H   0  0  0  0  0  0
  -28.0733  -31.8415   26.5391 H   0  0  0  0  0  0
  -28.2610  -38.0091   24.7494 H   0  0  0  0  0  0
  -28.1063  -36.2620   24.6283 H   0  0  0  0  0  0
  -27.2300  -37.1459   25.8873 H   0  0  0  0  0  0
  -20.9307  -29.8729   21.6905 H   0  0  0  0  0  0
  -26.0174  -38.2881   24.1423 H   0  0  0  0  0  0
  -30.4274  -16.8842   17.3278 H   0  0  0  0  0  0
  -30.8503  -15.1991   17.6198 H   0  0  0  0  0  0
  -31.6660  -16.4957   18.5057 H   0  0  0  0  0  0
  -24.7687  -21.7223   20.6874 H   0  0  0  0  0  0
  -23.8127  -21.1158   19.3397 H   0  0  0  0  0  0
  -24.3248  -22.7826   19.3356 H   0  0  0  0  0  0
  -27.1989  -22.9857   20.7582 H   0  0  0  0  0  0
  -26.1168  -23.9561   19.7927 H   0  0  0  0  0  0
  -28.0173  -24.8634   18.4767 H   0  0  0  0  0  0
  -29.1400  -23.8399   19.3243 H   0  0  0  0  0  0
  -27.0145  -17.1094   21.0017 H   0  0  0  0  0  0
  -26.9757  -18.2597   22.2823 H   0  0  0  0  0  0
  -28.2091  -19.0478   19.6151 H   0  0  0  0  0  0
  -27.4842  -20.0742   20.8232 H   0  0  0  0  0  0
  -29.1381  -17.8861   22.7964 H   0  0  0  0  0  0
  -29.7197  -18.1483   21.1949 H   0  0  0  0  0  0
  -25.2281  -19.0770   20.2566 H   0  0  0  0  0  0
  -25.9835  -17.9960   19.1218 H   0  0  0  0  0  0
  -28.2817  -15.5348   21.8164 H   0  0  0  0  0  0
  -29.8474  -15.7731   22.5154 H   0  0  0  0  0  0
  -24.9647  -19.8174   17.8746 H   0  0  0  0  0  0
  -26.6835  -19.8634   17.6839 H   0  0  0  0  0  0
  -29.3215  -25.2618   21.0621 H   0  0  0  0  0  0
  -27.6090  -25.3525   21.3160 H   0  0  0  0  0  0
  1 25  1  0  0  0
  1 30  2  0  0  0
  1 84  1  0  0  0
  2  3  1  0  0  0
  2 25  1  0  0  0
  2 88  1  0  0  0
  2 89  1  0  0  0
  3  4  1  0  0  0
  3 90  1  0  0  0
  3 91  1  0  0  0
  4  5  1  0  0  0
  4 92  1  0  0  0
  4 93  1  0  0  0
  5  6  1  0  0  0
  5 26  1  0  0  0
  5 94  1  0  0  0
  6 25  1  0  0  0
  6 95  1  0  0  0
  6 96  1  0  0  0
  7  8  2  0  0  0
  7 26  1  0  0  0
  7 29  1  0  0  0
  8  9  1  0  0  0
  8 22  1  0  0  0
  9 10  1  0  0  0
  9 27  2  0  0  0
 10 11  2  0  0  0
 10 15  1  0  0  0
 11 12  1  0  0  0
 11 97  1  0  0  0
 12 13  2  0  0  0
 12 98  1  0  0  0
 13 14  1  0  0  0
 13 31  1  0  0  0
 14 15  2  0  0  0
 14 99  1  0  0  0
 15100  1  0  0  0
 16 17  2  0  0  0
 16 21  1  0  0  0
 16 31  1  0  0  0
 17 18  1  0  0  0
 17101  1  0  0  0
 18 19  2  0  0  0
 18102  1  0  0  0
 19 20  1  0  0  0
 19 24  1  0  0  0
 20 21  2  0  0  0
 20103  1  0  0  0
 21 23  1  0  0  0
 22 28  1  0  0  0
 22 32  2  0  0  0
 26 27  1  0  0  0
 28104  1  0  0  0
 28105  1  0  0  0
 29106  1  0  0  0
 29107  1  0  0  0
 33 34  1  0  0  0
 33 66  1  0  0  0
 33 70  2  0  0  0
 34 36  1  0  0  0
 34 59  1  0  0  0
 34108  1  0  0  0
 35 44  2  0  0  0
 35 45  1  0  0  0
 35 68  1  0  0  0
 36 56  1  0  0  0
 36109  1  0  0  0
 37 39  1  0  0  0
 37 47  1  0  0  0
 37 66  1  0  0  0
 37110  1  0  0  0
 38 43  2  0  0  0
 38 46  1  0  0  0
 38 47  1  0  0  0
 39 64  1  0  0  0
 39 67  2  0  0  0
 40 52  1  0  0  0
 40 53  2  0  0  0
 40 58  1  0  0  0
 41111  1  0  0  0
 41112  1  0  0  0
 41113  1  0  0  0
 41 48  1  0  0  0
 42 43  1  0  0  0
 42 66  1  0  0  0
 42114  1  0  0  0
 42115  1  0  0  0
 43 44  1  0  0  0
 44116  1  0  0  0
 45 46  2  0  0  0
 45117  1  0  0  0
 46118  1  0  0  0
 47119  1  0  0  0
 47120  1  0  0  0
 48 56  1  0  0  0
 48 65  1  0  0  0
 48121  1  0  0  0
 49 50  1  0  0  0
 49 53  1  0  0  0
 49 64  1  0  0  0
 49122  1  0  0  0
 50 51  1  0  0  0
 50123  1  0  0  0
 50124  1  0  0  0
 51 52  1  0  0  0
 51125  1  0  0  0
 51126  1  0  0  0
 52127  1  0  0  0
 52128  1  0  0  0
 53 54  1  0  0  0
 54 55  2  0  0  0
 54129  1  0  0  0
 55 57  1  0  0  0
 55130  1  0  0  0
 56 69  2  0  0  0
 57 58  2  0  0  0
 57131  1  0  0  0
 58132  1  0  0  0
 59 60  1  0  0  0
 59 61  1  0  0  0
 59 62  1  0  0  0
 60133  1  0  0  0
 60134  1  0  0  0
 60135  1  0  0  0
 61136  1  0  0  0
 61137  1  0  0  0
 61138  1  0  0  0
 62139  1  0  0  0
 62140  1  0  0  0
 62141  1  0  0  0
 63 65  1  0  0  0
 63142  1  0  0  0
 63143  1  0  0  0
 63144  1  0  0  0
 64145  1  0  0  0
 65146  1  0  0  0
 68 83  1  0  0  0
 71 73  1  0  0  0
 71 84  1  0  0  0
 71 86  2  0  0  0
 72 75  1  0  0  0
 72 85  1  0  0  0
 72 87  2  0  0  0
 73147  1  0  0  0
 73148  1  0  0  0
 73149  1  0  0  0
 74 85  1  0  0  0
 74150  1  0  0  0
 74151  1  0  0  0
 74152  1  0  0  0
 75 76  1  0  0  0
 75153  1  0  0  0
 75154  1  0  0  0
 76 83  1  0  0  0
 76155  1  0  0  0
 76156  1  0  0  0
 77 78  1  0  0  0
 77 79  1  0  0  0
 77157  1  0  0  0
 77158  1  0  0  0
 78 80  1  0  0  0
 78159  1  0  0  0
 78160  1  0  0  0
 79 81  1  0  0  0
 79161  1  0  0  0
 79162  1  0  0  0
 80 82  1  0  0  0
 80163  1  0  0  0
 80164  1  0  0  0
 81 84  1  0  0  0
 81165  1  0  0  0
 81166  1  0  0  0
 82 85  1  0  0  0
 82167  1  0  0  0
 82168  1  0  0  0
 83169  1  0  0  0
 83170  1  0  0  0
M  ISO  4   1 100  68 101  83 101  84 100
M  END
> <chiral flag>
0

> <version>
0

> <s_m_source_file>
/data/baiqing/PycharmProjects/Reinvent-master-3.2/result/LINK_invent/BTK/process_docking_weight1_custom_sum_contain_oxygen_bond_distance_aromatic_linkinvent_7_9_3/rearranged_h_0006.sdf

> <i_m_source_file_index>
63

> <r_mmod_Potential_Energy-OPLS-2005>
166.237243652344

> <r_mmod_Stretch_Energy-OPLS-2005>
38.3869667053223

> <r_mmod_Bend_Energy-OPLS-2005>
102.586303710938

> <r_mmod_Torsional_Energy-OPLS-2005>
399.593963623047

> <r_mmod_Improper_Torsional_Energy-OPLS-2005>
16.2193565368652

> <r_mmod_Van_der_Waal_Energy-OPLS-2005>
155.459197998047

> <r_mmod_Electrostatic_Energy-OPLS-2005>
-368.284942626953

> <r_mmod_Solvation_Energy-OPLS-2005>
-197.169647216797

> <b_mmod_Minimization_Converged-OPLS-2005>
0

> <r_mmod_RMS_Derivative-OPLS-2005>
3.27672171592712

$$$$
63
                    3D
 Structure written by MMmdl.
195203  0  0  1  0            999 V2000
  -29.1678  -11.9790   20.1934 C   0  0  0  0  0  0
  -30.2301  -11.2657   19.2825 C   0  0  0  0  0  0
  -29.2776  -12.0847   17.8569 C   0  0  0  0  0  0
  -27.7665  -12.9195   18.2945 C   0  0  0  0  0  0
  -27.4209  -13.4594   19.9740 C   0  0  2  0  0  0
  -28.4202  -12.6316   21.3496 C   0  0  0  0  0  0
  -25.1099  -14.2149   20.5870 C   0  0  0  0  0  0
  -24.0492  -13.5459   21.1065 C   0  0  0  0  0  0
  -24.5101  -12.2919   21.4642 C   0  0  0  0  0  0
  -23.6265  -11.1680   21.7154 C   0  0  0  0  0  0
  -23.8176   -9.9265   22.8977 C   0  0  0  0  0  0
  -24.0731   -8.3128   22.6399 C   0  0  0  0  0  0
  -24.1845   -7.7301   21.0945 C   0  0  0  0  0  0
  -23.8965   -9.7086   19.4220 C   0  0  0  0  0  0
  -23.5082  -11.0514   20.1115 C   0  0  0  0  0  0
  -22.3360   -6.0515   22.3905 C   0  0  0  0  0  0
  -21.8304   -6.6099   23.6262 C   0  0  0  0  0  0
  -21.5025   -5.7646   24.7289 C   0  0  0  0  0  0
  -21.6036   -4.3615   24.6008 C   0  0  0  0  0  0
  -21.8110   -3.8204   23.3339 C   0  0  0  0  0  0
  -22.0854   -4.6725   22.2386 C   0  0  0  0  0  0
  -22.6233  -13.9424   21.1118 C   0  0  0  0  0  0
  -22.2294   -4.1147   21.0172 F   0  0  0  0  0  0
  -21.5241   -3.5494   25.6841 F   0  0  0  0  0  0
  -29.7962  -11.7012   20.9260 N   0  0  0  0  0  0
  -26.0956  -13.3151   20.4310 N   0  0  0  0  0  0
  -25.7521  -12.1772   20.9924 N   0  0  0  0  0  0
  -21.7549  -13.2133   21.7888 N   0  0  0  0  0  0
  -25.3111  -15.5254   20.2251 N   0  0  0  0  0  0
  -29.8981  -13.3039   19.9077 O   0  0  0  0  0  0
  -23.1486   -6.6048   21.3063 O   0  0  0  0  0  0
  -22.2483  -14.9001   20.4687 O   0  0  0  0  0  0
  -24.6114  -31.8669   23.1987 C   0  0  0  0  0  0
  -25.9039  -32.4765   23.8307 C   0  0  1  0  0  0
  -27.2661  -27.4673   20.1406 C   0  0  0  0  0  0
  -25.5893  -33.8551   24.2282 N   0  0  0  0  0  0
  -23.3996  -30.4878   21.5377 C   0  0  2  0  0  0
  -24.8603  -28.9527   20.1073 C   0  0  0  0  0  0
  -22.7396  -29.4707   22.4972 C   0  0  0  0  0  0
  -18.0285  -28.1406   22.8501 C   0  0  0  0  0  0
  -24.1489  -36.7354   23.2635 C   0  0  0  0  0  0
  -25.9187  -30.8565   21.3378 C   0  0  0  0  0  0
  -26.0071  -29.4857   20.7026 C   0  0  0  0  0  0
  -27.2157  -28.7538   20.7090 C   0  0  0  0  0  0
  -26.1079  -26.9358   19.5388 C   0  0  0  0  0  0
  -24.9075  -27.6694   19.5218 C   0  0  0  0  0  0
  -23.6053  -29.8011   20.1561 C   0  0  0  0  0  0
  -25.4074  -36.3056   24.0333 C   0  0  1  0  0  0
  -20.5870  -28.3713   23.1297 C   0  0  2  0  0  0
  -20.6791  -26.9437   22.5427 C   0  0  0  0  0  0
  -19.5762  -26.6405   21.5244 C   0  0  0  0  0  0
  -18.1943  -26.7952   22.1646 C   0  0  0  0  0  0
  -19.1529  -28.8875   23.2897 C   0  0  0  0  0  0
  -18.9459  -30.1484   23.8904 C   0  0  0  0  0  0
  -17.6454  -30.6598   24.0585 C   0  0  0  0  0  0
  -25.9007  -34.9427   23.5086 C   0  0  0  0  0  0
  -16.5350  -29.9120   23.6309 C   0  0  0  0  0  0
  -16.7275  -28.6548   23.0319 C   0  0  0  0  0  0
  -26.4495  -31.6524   25.0660 C   0  0  0  0  0  0
  -25.3824  -31.3609   26.1465 C   0  0  0  0  0  0
  -27.0319  -30.2950   24.6011 C   0  0  0  0  0  0
  -27.6060  -32.4257   25.7452 C   0  0  0  0  0  0
  -27.5559  -37.1775   24.8446 C   0  0  0  0  0  0
  -21.4127  -29.3070   22.3676 N   0  0  0  0  0  0
  -26.4253  -37.3762   23.9425 N   0  0  0  0  0  0
  -24.6607  -31.0850   22.0835 N   0  0  0  0  0  0
  -23.4138  -28.8284   23.3062 O   0  0  0  0  0  0
  -28.4363  -26.7416   20.1936 O   0  0  0  0  0  0
  -26.5584  -34.8896   22.4656 O   0  0  0  0  0  0
  -23.5319  -32.1370   23.7465 O   0  0  0  0  0  0
  -25.6555   -8.1777   18.9998 C   0  0  0  0  0  0
  -23.9955   -7.4913   18.7358 C   0  0  0  0  0  0
  -25.2628   -9.6399   21.1018 C   0  0  0  0  0  0
  -26.3827   -9.4609   19.9726 C   0  0  0  0  0  0
  -22.5465   -9.1123   20.9951 C   0  0  0  0  0  0
  -22.4211   -7.9684   19.5403 C   0  0  0  0  0  0
  -20.8465  -10.2049   22.9027 C   0  0  0  0  0  0
  -29.6161  -25.3571   21.8591 C   0  0  0  0  0  0
  -20.0967   -8.1685   19.1830 C   0  0  0  0  0  0
  -21.2833  -11.4029   23.9440 C   0  0  0  0  0  0
  -28.3660  -25.5302   20.9718 C   0  0  0  0  0  0
  -22.6336  -12.1558   24.4619 C   0  0  0  0  0  0
  -22.8182  -13.7205   24.6632 C   0  0  0  0  0  0
  -24.3331  -14.1813   24.5324 C   0  0  0  0  0  0
  -24.7019  -15.6391   24.9474 C   0  0  0  0  0  0
  -26.0531  -16.1976   24.3939 C   0  0  0  0  0  0
  -26.5189  -17.5338   25.0455 C   0  0  0  0  0  0
  -27.6506  -18.2950   24.2953 C   0  0  0  0  0  0
  -28.0985  -19.6277   24.9634 C   0  0  0  0  0  0
  -29.0988  -20.4369   24.1065 C   0  0  0  0  0  0
  -29.4527  -21.8417   24.6513 C   0  0  0  0  0  0
  -30.5324  -22.5524   23.7967 C   0  0  0  0  0  0
  -30.5063  -24.1029   23.8578 C   0  0  0  0  0  0
  -21.3452   -9.4774   21.8151 N   0  0  0  0  0  0
  -27.8931  -10.7134   19.7960 N   0  0  0  0  0  0
  -29.4537  -24.6333   22.9808 N   0  0  0  0  0  0
  -19.6960   -9.8390   23.1448 O   0  0  0  0  0  0
  -30.7029  -25.8418   21.5217 O   0  0  0  0  0  0
  -21.2579   -7.3651   19.1453 O   0  0  0  0  0  0
  -31.3058  -11.4663   19.1433 H   0  0  0  0  0  0
  -30.2591  -10.1698   19.1641 H   0  0  0  0  0  0
  -29.0632  -11.3413   17.0877 H   0  0  0  0  0  0
  -29.9456  -12.8106   17.3754 H   0  0  0  0  0  0
  -26.9491  -12.2584   18.0187 H   0  0  0  0  0  0
  -27.6226  -13.7577   17.6111 H   0  0  0  0  0  0
  -27.6928  -14.5165   20.0160 H   0  0  0  0  0  0
  -27.8289  -12.0698   22.0981 H   0  0  0  0  0  0
  -28.7314  -13.4479   22.0261 H   0  0  0  0  0  0
  -24.1146  -10.1563   23.9117 H   0  0  0  0  0  0
  -24.1865   -7.6397   23.4731 H   0  0  0  0  0  0
  -23.7841   -9.7416   18.3413 H   0  0  0  0  0  0
  -23.3884  -11.8836   19.4405 H   0  0  0  0  0  0
  -21.8491   -7.6716   23.7938 H   0  0  0  0  0  0
  -21.2852   -6.1751   25.7058 H   0  0  0  0  0  0
  -21.8372   -2.7509   23.1876 H   0  0  0  0  0  0
  -22.0634  -12.4625   22.3802 H   0  0  0  0  0  0
  -20.7842  -13.4877   21.7916 H   0  0  0  0  0  0
  -24.5678  -16.2086   20.3092 H   0  0  0  0  0  0
  -26.1643  -15.9042   19.8365 H   0  0  0  0  0  0
  -26.7167  -32.5474   23.1108 H   0  0  0  0  0  0
  -25.0037  -33.9681   25.0425 H   0  0  0  0  0  0
  -22.6837  -31.3011   21.3920 H   0  0  0  0  0  0
  -23.3705  -35.9742   23.3259 H   0  0  0  0  0  0
  -24.3616  -36.9030   22.2068 H   0  0  0  0  0  0
  -23.7306  -37.6568   23.6695 H   0  0  0  0  0  0
  -25.9988  -31.6156   20.5565 H   0  0  0  0  0  0
  -26.8136  -30.9272   21.9461 H   0  0  0  0  0  0
  -28.1068  -29.1711   21.1592 H   0  0  0  0  0  0
  -26.1498  -25.9572   19.0866 H   0  0  0  0  0  0
  -24.0351  -27.2358   19.0668 H   0  0  0  0  0  0
  -23.6770  -30.5691   19.3842 H   0  0  0  0  0  0
  -22.7355  -29.1994   19.8836 H   0  0  0  0  0  0
  -25.1216  -36.1899   25.0831 H   0  0  0  0  0  0
  -20.9982  -28.3319   24.1405 H   0  0  0  0  0  0
  -20.5745  -26.2319   23.3633 H   0  0  0  0  0  0
  -21.6650  -26.7495   22.1179 H   0  0  0  0  0  0
  -19.6902  -25.6326   21.1258 H   0  0  0  0  0  0
  -19.6691  -27.3240   20.6808 H   0  0  0  0  0  0
  -17.4203  -26.6741   21.4061 H   0  0  0  0  0  0
  -18.0315  -26.0107   22.9051 H   0  0  0  0  0  0
  -19.7932  -30.7316   24.2275 H   0  0  0  0  0  0
  -17.5006  -31.6262   24.5208 H   0  0  0  0  0  0
  -15.5352  -30.3013   23.7621 H   0  0  0  0  0  0
  -15.8704  -28.0873   22.6975 H   0  0  0  0  0  0
  -24.5979  -30.6952   25.7841 H   0  0  0  0  0  0
  -24.9064  -32.2779   26.4943 H   0  0  0  0  0  0
  -25.8268  -30.8763   27.0175 H   0  0  0  0  0  0
  -26.2813  -29.6679   24.1187 H   0  0  0  0  0  0
  -27.4227  -29.7180   25.4407 H   0  0  0  0  0  0
  -27.8581  -30.4242   23.9021 H   0  0  0  0  0  0
  -27.2617  -33.3533   26.2019 H   0  0  0  0  0  0
  -28.3884  -32.6836   25.0315 H   0  0  0  0  0  0
  -28.0723  -31.8405   26.5382 H   0  0  0  0  0  0
  -28.2476  -38.0149   24.7463 H   0  0  0  0  0  0
  -28.1114  -36.2640   24.6223 H   0  0  0  0  0  0
  -27.2288  -37.1395   25.8856 H   0  0  0  0  0  0
  -20.9297  -29.8711   21.6826 H   0  0  0  0  0  0
  -26.0111  -38.2823   24.1482 H   0  0  0  0  0  0
  -26.3353   -7.8297   18.2392 H   0  0  0  0  0  0
  -23.8926   -6.7868   17.9277 H   0  0  0  0  0  0
  -25.8149  -10.0817   21.9264 H   0  0  0  0  0  0
  -19.3101   -7.7047   18.5955 H   0  0  0  0  0  0
  -20.2994   -9.1511   18.7635 H   0  0  0  0  0  0
  -19.7085   -8.3010   20.1890 H   0  0  0  0  0  0
  -20.9442  -10.9704   24.8850 H   0  0  0  0  0  0
  -20.5383  -12.1768   23.7922 H   0  0  0  0  0  0
  -27.4950  -25.5005   21.6334 H   0  0  0  0  0  0
  -28.2842  -24.6566   20.3210 H   0  0  0  0  0  0
  -23.5186  -12.0155   23.9028 H   0  0  0  0  0  0
  -22.8664  -11.7132   25.4307 H   0  0  0  0  0  0
  -22.4541  -14.0138   25.6488 H   0  0  0  0  0  0
  -22.2204  -14.3185   23.9759 H   0  0  0  0  0  0
  -24.6861  -14.0379   23.5147 H   0  0  0  0  0  0
  -24.9439  -13.5059   25.1327 H   0  0  0  0  0  0
  -24.7427  -15.6665   26.0346 H   0  0  0  0  0  0
  -23.9037  -16.3195   24.6527 H   0  0  0  0  0  0
  -25.9545  -16.3404   23.3189 H   0  0  0  0  0  0
  -26.8471  -15.4598   24.5094 H   0  0  0  0  0  0
  -26.8414  -17.3354   26.0690 H   0  0  0  0  0  0
  -25.6579  -18.1959   25.1249 H   0  0  0  0  0  0
  -27.3065  -18.5207   23.2843 H   0  0  0  0  0  0
  -28.5238  -17.6491   24.1855 H   0  0  0  0  0  0
  -28.5514  -19.4229   25.9354 H   0  0  0  0  0  0
  -27.2243  -20.2496   25.1637 H   0  0  0  0  0  0
  -28.6826  -20.5532   23.1045 H   0  0  0  0  0  0
  -30.0162  -19.8593   23.9805 H   0  0  0  0  0  0
  -29.8068  -21.7666   25.6803 H   0  0  0  0  0  0
  -28.5542  -22.4552   24.6920 H   0  0  0  0  0  0
  -30.4324  -22.2408   22.7525 H   0  0  0  0  0  0
  -31.5161  -22.1903   24.1117 H   0  0  0  0  0  0
  -31.4765  -24.5016   23.5481 H   0  0  0  0  0  0
  -30.3604  -24.4429   24.8892 H   0  0  0  0  0  0
  -20.5601   -8.9523   21.4638 H   0  0  0  0  0  0
  -27.8591  -10.9482   18.8142 H   0  0  0  0  0  0
  -28.5111  -24.3366   23.1976 H   0  0  0  0  0  0
  1 25  1  0  0  0
  1 30  2  0  0  0
  1 95  1  0  0  0
  2  3  1  0  0  0
  2 25  1  0  0  0
  2100  1  0  0  0
  2101  1  0  0  0
  3  4  1  0  0  0
  3102  1  0  0  0
  3103  1  0  0  0
  4  5  1  0  0  0
  4104  1  0  0  0
  4105  1  0  0  0
  5  6  1  0  0  0
  5 26  1  0  0  0
  5106  1  0  0  0
  6 25  1  0  0  0
  6107  1  0  0  0
  6108  1  0  0  0
  7  8  2  0  0  0
  7 26  1  0  0  0
  7 29  1  0  0  0
  8  9  1  0  0  0
  8 22  1  0  0  0
  9 10  1  0  0  0
  9 27  2  0  0  0
 10 11  2  0  0  0
 10 15  1  0  0  0
 11 12  1  0  0  0
 11109  1  0  0  0
 12 13  2  0  0  0
 12110  1  0  0  0
 13 14  1  0  0  0
 13 31  1  0  0  0
 14 15  2  0  0  0
 14111  1  0  0  0
 15112  1  0  0  0
 16 17  2  0  0  0
 16 21  1  0  0  0
 16 31  1  0  0  0
 17 18  1  0  0  0
 17113  1  0  0  0
 18 19  2  0  0  0
 18114  1  0  0  0
 19 20  1  0  0  0
 19 24  1  0  0  0
 20 21  2  0  0  0
 20115  1  0  0  0
 21 23  1  0  0  0
 22 28  1  0  0  0
 22 32  2  0  0  0
 26 27  1  0  0  0
 28116  1  0  0  0
 28117  1  0  0  0
 29118  1  0  0  0
 29119  1  0  0  0
 33 34  1  0  0  0
 33 66  1  0  0  0
 33 70  2  0  0  0
 34 36  1  0  0  0
 34 59  1  0  0  0
 34120  1  0  0  0
 35 44  2  0  0  0
 35 45  1  0  0  0
 35 68  1  0  0  0
 36 56  1  0  0  0
 36121  1  0  0  0
 37 39  1  0  0  0
 37 47  1  0  0  0
 37 66  1  0  0  0
 37122  1  0  0  0
 38 43  2  0  0  0
 38 46  1  0  0  0
 38 47  1  0  0  0
 39 64  1  0  0  0
 39 67  2  0  0  0
 40 52  1  0  0  0
 40 53  2  0  0  0
 40 58  1  0  0  0
 41123  1  0  0  0
 41124  1  0  0  0
 41125  1  0  0  0
 41 48  1  0  0  0
 42 43  1  0  0  0
 42 66  1  0  0  0
 42126  1  0  0  0
 42127  1  0  0  0
 43 44  1  0  0  0
 44128  1  0  0  0
 45 46  2  0  0  0
 45129  1  0  0  0
 46130  1  0  0  0
 47131  1  0  0  0
 47132  1  0  0  0
 48 56  1  0  0  0
 48 65  1  0  0  0
 48133  1  0  0  0
 49 50  1  0  0  0
 49 53  1  0  0  0
 49 64  1  0  0  0
 49134  1  0  0  0
 50 51  1  0  0  0
 50135  1  0  0  0
 50136  1  0  0  0
 51 52  1  0  0  0
 51137  1  0  0  0
 51138  1  0  0  0
 52139  1  0  0  0
 52140  1  0  0  0
 53 54  1  0  0  0
 54 55  2  0  0  0
 54141  1  0  0  0
 55 57  1  0  0  0
 55142  1  0  0  0
 56 69  2  0  0  0
 57 58  2  0  0  0
 57143  1  0  0  0
 58144  1  0  0  0
 59 60  1  0  0  0
 59 61  1  0  0  0
 59 62  1  0  0  0
 60145  1  0  0  0
 60146  1  0  0  0
 60147  1  0  0  0
 61148  1  0  0  0
 61149  1  0  0  0
 61150  1  0  0  0
 62151  1  0  0  0
 62152  1  0  0  0
 62153  1  0  0  0
 63 65  1  0  0  0
 63154  1  0  0  0
 63155  1  0  0  0
 63156  1  0  0  0
 64157  1  0  0  0
 65158  1  0  0  0
 68 81  1  0  0  0
 71 72  2  0  0  0
 71 74  1  0  0  0
 71159  1  0  0  0
 72 76  1  0  0  0
 72160  1  0  0  0
 73 74  2  0  0  0
 73 75  1  0  0  0
 73161  1  0  0  0
 74 95  1  0  0  0
 75 76  2  0  0  0
 75 94  1  0  0  0
 76 99  1  0  0  0
 77 80  1  0  0  0
 77 94  1  0  0  0
 77 97  2  0  0  0
 78 81  1  0  0  0
 78 96  1  0  0  0
 78 98  2  0  0  0
 79 99  1  0  0  0
 79162  1  0  0  0
 79163  1  0  0  0
 79164  1  0  0  0
 80 82  1  0  0  0
 80165  1  0  0  0
 80166  1  0  0  0
 81167  1  0  0  0
 81168  1  0  0  0
 82 83  1  0  0  0
 82169  1  0  0  0
 82170  1  0  0  0
 83 84  1  0  0  0
 83171  1  0  0  0
 83172  1  0  0  0
 84 85  1  0  0  0
 84173  1  0  0  0
 84174  1  0  0  0
 85 86  1  0  0  0
 85175  1  0  0  0
 85176  1  0  0  0
 86 87  1  0  0  0
 86177  1  0  0  0
 86178  1  0  0  0
 87 88  1  0  0  0
 87179  1  0  0  0
 87180  1  0  0  0
 88 89  1  0  0  0
 88181  1  0  0  0
 88182  1  0  0  0
 89 90  1  0  0  0
 89183  1  0  0  0
 89184  1  0  0  0
 90 91  1  0  0  0
 90185  1  0  0  0
 90186  1  0  0  0
 91 92  1  0  0  0
 91187  1  0  0  0
 91188  1  0  0  0
 92 93  1  0  0  0
 92189  1  0  0  0
 92190  1  0  0  0
 93 96  1  0  0  0
 93191  1  0  0  0
 93192  1  0  0  0
 94193  1  0  0  0
 95194  1  0  0  0
 96195  1  0  0  0
M  ISO  4   1 100  68 101  81 101  95 100
M  END
> <chiral flag>
0

> <version>
0

> <s_m_source_file>
/data/baiqing/PycharmProjects/Reinvent-master-3.2/result/LINK_invent/BTK/process_docking_weight1_custom_sum_contain_oxygen_bond_distance_aromatic_linkinvent_7_9_3/rearranged_h_0006.sdf

> <i_m_source_file_index>
64

> <r_mmod_Potential_Energy-OPLS-2005>
21244.39453125

> <r_mmod_Stretch_Energy-OPLS-2005>
10926.103515625

> <r_mmod_Bend_Energy-OPLS-2005>
1652.47229003906

> <r_mmod_Torsional_Energy-OPLS-2005>
708.392272949219

> <r_mmod_Improper_Torsional_Energy-OPLS-2005>
61.0291557312012

> <r_mmod_Van_der_Waal_Energy-OPLS-2005>
4855.1982421875

> <r_mmod_Electrostatic_Energy-OPLS-2005>
-447.74755859375

> <r_mmod_Solvation_Energy-OPLS-2005>
-254.758102416992

> <b_mmod_Minimization_Converged-OPLS-2005>
0

> <r_mmod_RMS_Derivative-OPLS-2005>
27.3102569580078

$$$$
64
                    3D
 Structure written by MMmdl.
148156  0  0  1  0            999 V2000
  -30.5228  -14.9167   20.4313 C   0  0  0  0  0  0
  -30.4527  -12.5651   19.4877 C   0  0  0  0  0  0
  -29.5223  -12.5321   18.2510 C   0  0  0  0  0  0
  -28.0527  -12.3252   18.6684 C   0  0  0  0  0  0
  -27.6371  -13.2417   19.8490 C   0  0  2  0  0  0
  -28.6854  -13.2233   20.9832 C   0  0  0  0  0  0
  -25.2448  -13.8158   20.5686 C   0  0  0  0  0  0
  -24.1761  -13.0385   20.9174 C   0  0  0  0  0  0
  -24.6398  -11.6886   20.8731 C   0  0  0  0  0  0
  -23.9080  -10.4267   21.0394 C   0  0  0  0  0  0
  -24.3625   -9.4188   21.9179 C   0  0  0  0  0  0
  -23.6292   -8.2230   22.0755 C   0  0  0  0  0  0
  -22.4274   -8.0271   21.3544 C   0  0  0  0  0  0
  -21.9911   -9.0243   20.4644 C   0  0  0  0  0  0
  -22.7248  -10.2114   20.3049 C   0  0  0  0  0  0
  -21.6850   -6.0728   22.5280 C   0  0  0  0  0  0
  -21.4012   -6.5634   23.8212 C   0  0  0  0  0  0
  -21.3660   -5.6789   24.9174 C   0  0  0  0  0  0
  -21.6045   -4.3052   24.7226 C   0  0  0  0  0  0
  -21.8819   -3.8143   23.4348 C   0  0  0  0  0  0
  -21.9192   -4.6957   22.3403 C   0  0  0  0  0  0
  -22.7788  -13.5170   21.1852 C   0  0  0  0  0  0
  -22.1660   -4.2142   21.0982 F   0  0  0  0  0  0
  -21.5629   -3.4538   25.7740 F   0  0  0  0  0  0
  -29.9694  -13.6394   20.3971 N   0  0  0  0  0  0
  -26.2925  -12.9417   20.3307 N   0  0  0  0  0  0
  -25.9345  -11.6543   20.5765 N   0  0  0  0  0  0
  -22.0456  -12.8166   22.0431 N   0  0  0  0  0  0
  -25.3980  -15.1883   20.4162 N   0  0  0  0  0  0
  -31.7121  -15.0435   20.1228 O   0  0  0  0  0  0
  -21.6635   -6.8872   21.4244 O   0  0  0  0  0  0
  -22.3462  -14.5480   20.6716 O   0  0  0  0  0  0
  -24.6428  -31.8455   23.1893 C   0  0  0  0  0  0
  -25.9209  -32.4700   23.8276 C   0  0  1  0  0  0
  -27.2212  -27.1510   20.1471 C   0  0  0  0  0  0
  -25.5964  -33.8504   24.2195 N   0  0  0  0  0  0
  -23.4449  -30.4655   21.5359 C   0  0  2  0  0  0
  -24.8944  -28.8950   20.1116 C   0  0  0  0  0  0
  -22.7562  -29.4554   22.4876 C   0  0  0  0  0  0
  -18.0303  -28.1391   22.8474 C   0  0  0  0  0  0
  -24.1491  -36.7254   23.2643 C   0  0  0  0  0  0
  -26.0006  -30.7234   21.3865 C   0  0  0  0  0  0
  -26.0726  -29.3366   20.7270 C   0  0  0  0  0  0
  -27.2368  -28.4816   20.7267 C   0  0  0  0  0  0
  -26.0137  -26.8076   19.4968 C   0  0  0  0  0  0
  -24.8771  -27.6429   19.4817 C   0  0  0  0  0  0
  -23.6701  -29.7953   20.1550 C   0  0  0  0  0  0
  -25.4124  -36.3031   24.0314 C   0  0  1  0  0  0
  -20.5913  -28.3716   23.1235 C   0  0  2  0  0  0
  -20.6789  -26.9421   22.5402 C   0  0  0  0  0  0
  -19.5763  -26.6379   21.5207 C   0  0  0  0  0  0
  -18.1943  -26.7929   22.1619 C   0  0  0  0  0  0
  -19.1560  -28.8871   23.2842 C   0  0  0  0  0  0
  -18.9482  -30.1469   23.8864 C   0  0  0  0  0  0
  -17.6481  -30.6589   24.0555 C   0  0  0  0  0  0
  -25.9077  -34.9407   23.5060 C   0  0  0  0  0  0
  -16.5369  -29.9083   23.6336 C   0  0  0  0  0  0
  -16.7289  -28.6501   23.0355 C   0  0  0  0  0  0
  -26.4531  -31.6565   25.0715 C   0  0  0  0  0  0
  -25.3716  -31.3757   26.1412 C   0  0  0  0  0  0
  -27.0405  -30.2964   24.6293 C   0  0  0  0  0  0
  -27.6058  -32.4335   25.7502 C   0  0  0  0  0  0
  -27.5572  -37.1784   24.8468 C   0  0  0  0  0  0
  -21.4257  -29.3048   22.3615 N   0  0  0  0  0  0
  -26.4286  -37.3746   23.9406 N   0  0  0  0  0  0
  -24.7159  -31.0322   22.0923 N   0  0  0  0  0  0
  -23.4206  -28.8102   23.3024 O   0  0  0  0  0  0
  -28.2815  -26.1757   20.2129 O   0  0  0  0  0  0
  -26.5659  -34.8900   22.4636 O   0  0  0  0  0  0
  -23.5548  -32.1335   23.7117 O   0  0  0  0  0  0
  -27.9545  -19.4976   20.6062 C   0  0  0  0  0  0
  -30.2294  -19.9959   20.2757 C   0  0  0  0  0  0
  -29.5582  -17.5258   20.5345 C   0  0  0  0  0  0
  -28.9008  -20.5481   20.4056 C   0  0  0  0  0  0
  -28.2565  -18.0910   20.6717 C   0  0  0  0  0  0
  -30.5473  -18.5603   20.3325 C   0  0  0  0  0  0
  -27.9825  -24.6539   20.1089 C   0  0  0  0  0  0
  -28.9862  -23.3142   20.3044 C   0  0  0  0  0  0
  -29.6483  -16.0013   20.6502 N   0  0  0  0  0  0
  -28.3697  -21.9133   20.3406 O   0  0  0  0  0  0
  -27.2305  -17.2317   20.8750 F   0  0  0  0  0  0
  -31.8433  -18.1912   20.1953 F   0  0  0  0  0  0
  -31.4836  -12.7360   19.1734 H   0  0  0  0  0  0
  -30.4520  -11.6013   19.9993 H   0  0  0  0  0  0
  -29.8312  -11.7411   17.5661 H   0  0  0  0  0  0
  -29.6158  -13.4680   17.6981 H   0  0  0  0  0  0
  -27.9382  -11.2801   18.9580 H   0  0  0  0  0  0
  -27.3899  -12.4788   17.8159 H   0  0  0  0  0  0
  -27.6087  -14.2533   19.4431 H   0  0  0  0  0  0
  -28.7637  -12.2292   21.4259 H   0  0  0  0  0  0
  -28.3912  -13.8934   21.7926 H   0  0  0  0  0  0
  -25.2769   -9.5662   22.4755 H   0  0  0  0  0  0
  -23.9993   -7.4622   22.7481 H   0  0  0  0  0  0
  -21.0840   -8.8767   19.8953 H   0  0  0  0  0  0
  -22.3712  -10.9652   19.6157 H   0  0  0  0  0  0
  -21.2007   -7.6142   23.9711 H   0  0  0  0  0  0
  -21.1481   -6.0521   25.9077 H   0  0  0  0  0  0
  -22.0600   -2.7605   23.2852 H   0  0  0  0  0  0
  -22.4085  -11.9830   22.4812 H   0  0  0  0  0  0
  -21.1083  -13.1194   22.2663 H   0  0  0  0  0  0
  -24.6245  -15.8238   20.5731 H   0  0  0  0  0  0
  -26.2675  -15.6807   20.2466 H   0  0  0  0  0  0
  -26.7276  -32.5313   23.1006 H   0  0  0  0  0  0
  -25.0101  -33.9624   25.0335 H   0  0  0  0  0  0
  -22.7461  -31.2907   21.3828 H   0  0  0  0  0  0
  -23.3755  -35.9585   23.3307 H   0  0  0  0  0  0
  -24.3578  -36.8885   22.2058 H   0  0  0  0  0  0
  -23.7241  -37.6446   23.6684 H   0  0  0  0  0  0
  -26.1550  -31.4790   20.6151 H   0  0  0  0  0  0
  -26.8708  -30.7721   22.0293 H   0  0  0  0  0  0
  -28.1343  -28.8162   21.2277 H   0  0  0  0  0  0
  -25.9066  -25.8535   19.0054 H   0  0  0  0  0  0
  -23.9780  -27.2978   18.9900 H   0  0  0  0  0  0
  -23.8054  -30.5707   19.4003 H   0  0  0  0  0  0
  -22.7848  -29.2374   19.8444 H   0  0  0  0  0  0
  -25.1307  -36.1863   25.0806 H   0  0  0  0  0  0
  -20.9996  -28.3311   24.1359 H   0  0  0  0  0  0
  -20.5682  -26.2333   23.3623 H   0  0  0  0  0  0
  -21.6656  -26.7433   22.1198 H   0  0  0  0  0  0
  -19.6928  -25.6283   21.1256 H   0  0  0  0  0  0
  -19.6700  -27.3170   20.6719 H   0  0  0  0  0  0
  -17.4211  -26.6668   21.4024 H   0  0  0  0  0  0
  -18.0345  -26.0073   22.9017 H   0  0  0  0  0  0
  -19.7961  -30.7288   24.2218 H   0  0  0  0  0  0
  -17.5039  -31.6268   24.5163 H   0  0  0  0  0  0
  -15.5367  -30.2973   23.7687 H   0  0  0  0  0  0
  -15.8688  -28.0812   22.7085 H   0  0  0  0  0  0
  -24.5897  -30.7101   25.7737 H   0  0  0  0  0  0
  -24.8902  -32.2942   26.4781 H   0  0  0  0  0  0
  -25.7994  -30.8970   27.0229 H   0  0  0  0  0  0
  -26.3028  -29.6681   24.1289 H   0  0  0  0  0  0
  -27.4016  -29.7264   25.4865 H   0  0  0  0  0  0
  -27.8932  -30.4208   23.9614 H   0  0  0  0  0  0
  -27.2650  -33.3660   26.2015 H   0  0  0  0  0  0
  -28.3902  -32.6859   25.0355 H   0  0  0  0  0  0
  -28.0692  -31.8506   26.5474 H   0  0  0  0  0  0
  -28.2587  -38.0082   24.7503 H   0  0  0  0  0  0
  -28.1068  -36.2608   24.6312 H   0  0  0  0  0  0
  -27.2290  -37.1447   25.8873 H   0  0  0  0  0  0
  -20.9472  -29.8764   21.6795 H   0  0  0  0  0  0
  -26.0153  -38.2813   24.1409 H   0  0  0  0  0  0
  -26.9177  -19.7781   20.7194 H   0  0  0  0  0  0
  -31.0484  -20.6814   20.1165 H   0  0  0  0  0  0
  -27.1596  -24.4925   20.8063 H   0  0  0  0  0  0
  -27.5501  -24.5063   19.1205 H   0  0  0  0  0  0
  -29.5391  -23.4368   21.2357 H   0  0  0  0  0  0
  -29.7356  -23.3258   19.5129 H   0  0  0  0  0  0
  -28.7382  -15.6339   20.8804 H   0  0  0  0  0  0
  1 25  1  0  0  0
  1 30  2  0  0  0
  1 79  1  0  0  0
  2  3  1  0  0  0
  2 25  1  0  0  0
  2 83  1  0  0  0
  2 84  1  0  0  0
  3  4  1  0  0  0
  3 85  1  0  0  0
  3 86  1  0  0  0
  4  5  1  0  0  0
  4 87  1  0  0  0
  4 88  1  0  0  0
  5  6  1  0  0  0
  5 26  1  0  0  0
  5 89  1  0  0  0
  6 25  1  0  0  0
  6 90  1  0  0  0
  6 91  1  0  0  0
  7  8  2  0  0  0
  7 26  1  0  0  0
  7 29  1  0  0  0
  8  9  1  0  0  0
  8 22  1  0  0  0
  9 10  1  0  0  0
  9 27  2  0  0  0
 10 11  2  0  0  0
 10 15  1  0  0  0
 11 12  1  0  0  0
 11 92  1  0  0  0
 12 13  2  0  0  0
 12 93  1  0  0  0
 13 14  1  0  0  0
 13 31  1  0  0  0
 14 15  2  0  0  0
 14 94  1  0  0  0
 15 95  1  0  0  0
 16 17  2  0  0  0
 16 21  1  0  0  0
 16 31  1  0  0  0
 17 18  1  0  0  0
 17 96  1  0  0  0
 18 19  2  0  0  0
 18 97  1  0  0  0
 19 20  1  0  0  0
 19 24  1  0  0  0
 20 21  2  0  0  0
 20 98  1  0  0  0
 21 23  1  0  0  0
 22 28  1  0  0  0
 22 32  2  0  0  0
 26 27  1  0  0  0
 28 99  1  0  0  0
 28100  1  0  0  0
 29101  1  0  0  0
 29102  1  0  0  0
 33 34  1  0  0  0
 33 66  1  0  0  0
 33 70  2  0  0  0
 34 36  1  0  0  0
 34 59  1  0  0  0
 34103  1  0  0  0
 35 44  2  0  0  0
 35 45  1  0  0  0
 35 68  1  0  0  0
 36 56  1  0  0  0
 36104  1  0  0  0
 37 39  1  0  0  0
 37 47  1  0  0  0
 37 66  1  0  0  0
 37105  1  0  0  0
 38 43  2  0  0  0
 38 46  1  0  0  0
 38 47  1  0  0  0
 39 64  1  0  0  0
 39 67  2  0  0  0
 40 52  1  0  0  0
 40 53  2  0  0  0
 40 58  1  0  0  0
 41106  1  0  0  0
 41107  1  0  0  0
 41108  1  0  0  0
 41 48  1  0  0  0
 42 43  1  0  0  0
 42 66  1  0  0  0
 42109  1  0  0  0
 42110  1  0  0  0
 43 44  1  0  0  0
 44111  1  0  0  0
 45 46  2  0  0  0
 45112  1  0  0  0
 46113  1  0  0  0
 47114  1  0  0  0
 47115  1  0  0  0
 48 56  1  0  0  0
 48 65  1  0  0  0
 48116  1  0  0  0
 49 50  1  0  0  0
 49 53  1  0  0  0
 49 64  1  0  0  0
 49117  1  0  0  0
 50 51  1  0  0  0
 50118  1  0  0  0
 50119  1  0  0  0
 51 52  1  0  0  0
 51120  1  0  0  0
 51121  1  0  0  0
 52122  1  0  0  0
 52123  1  0  0  0
 53 54  1  0  0  0
 54 55  2  0  0  0
 54124  1  0  0  0
 55 57  1  0  0  0
 55125  1  0  0  0
 56 69  2  0  0  0
 57 58  2  0  0  0
 57126  1  0  0  0
 58127  1  0  0  0
 59 60  1  0  0  0
 59 61  1  0  0  0
 59 62  1  0  0  0
 60128  1  0  0  0
 60129  1  0  0  0
 60130  1  0  0  0
 61131  1  0  0  0
 61132  1  0  0  0
 61133  1  0  0  0
 62134  1  0  0  0
 62135  1  0  0  0
 62136  1  0  0  0
 63 65  1  0  0  0
 63137  1  0  0  0
 63138  1  0  0  0
 63139  1  0  0  0
 64140  1  0  0  0
 65141  1  0  0  0
 68 77  1  0  0  0
 71 74  2  0  0  0
 71 75  1  0  0  0
 71142  1  0  0  0
 72 74  1  0  0  0
 72 76  2  0  0  0
 72143  1  0  0  0
 73 75  2  0  0  0
 73 76  1  0  0  0
 73 79  1  0  0  0
 74 80  1  0  0  0
 75 81  1  0  0  0
 76 82  1  0  0  0
 77 78  1  0  0  0
 77144  1  0  0  0
 77145  1  0  0  0
 78 80  1  0  0  0
 78146  1  0  0  0
 78147  1  0  0  0
 79148  1  0  0  0
M  ISO  4   1 100  68 101  77 101  79 100
M  END
> <chiral flag>
0

> <version>
0

> <s_m_source_file>
/data/baiqing/PycharmProjects/Reinvent-master-3.2/result/LINK_invent/BTK/process_docking_weight1_custom_sum_contain_oxygen_bond_distance_aromatic_linkinvent_7_9_3/rearranged_h_0006.sdf

> <i_m_source_file_index>
65

> <r_mmod_Potential_Energy-OPLS-2005>
399.469116210938

> <r_mmod_Stretch_Energy-OPLS-2005>
214.641143798828

> <r_mmod_Bend_Energy-OPLS-2005>
307.445495605469

> <r_mmod_Torsional_Energy-OPLS-2005>
210.494476318359

> <r_mmod_Improper_Torsional_Energy-OPLS-2005>
3.88823580741882

> <r_mmod_Van_der_Waal_Energy-OPLS-2005>
132.977157592773

> <r_mmod_Electrostatic_Energy-OPLS-2005>
-434.508483886719

> <r_mmod_Solvation_Energy-OPLS-2005>
-210.045440673828

> <b_mmod_Minimization_Converged-OPLS-2005>
0

> <r_mmod_RMS_Derivative-OPLS-2005>
0.629383087158203

$$$$
65
                    3D
 Structure written by MMmdl.
154162  0  0  1  0            999 V2000
  -30.6755  -14.4856   20.5768 C   0  0  0  0  0  0
  -30.4342  -12.3171   19.4176 C   0  0  0  0  0  0
  -29.4979  -12.5126   18.2056 C   0  0  0  0  0  0
  -28.0186  -12.3671   18.6170 C   0  0  0  0  0  0
  -27.6648  -13.1978   19.8787 C   0  0  2  0  0  0
  -28.7076  -12.9625   20.9954 C   0  0  0  0  0  0
  -25.2602  -13.8130   20.5673 C   0  0  0  0  0  0
  -24.1842  -13.0423   20.9167 C   0  0  0  0  0  0
  -24.6385  -11.6887   20.8730 C   0  0  0  0  0  0
  -23.9043  -10.4283   21.0398 C   0  0  0  0  0  0
  -24.3599   -9.4204   21.9179 C   0  0  0  0  0  0
  -23.6282   -8.2238   22.0750 C   0  0  0  0  0  0
  -22.4265   -8.0274   21.3540 C   0  0  0  0  0  0
  -21.9891   -9.0244   20.4642 C   0  0  0  0  0  0
  -22.7215  -10.2127   20.3049 C   0  0  0  0  0  0
  -21.6847   -6.0734   22.5281 C   0  0  0  0  0  0
  -21.4010   -6.5638   23.8215 C   0  0  0  0  0  0
  -21.3657   -5.6790   24.9177 C   0  0  0  0  0  0
  -21.6046   -4.3054   24.7227 C   0  0  0  0  0  0
  -21.8819   -3.8146   23.4348 C   0  0  0  0  0  0
  -21.9189   -4.6963   22.3404 C   0  0  0  0  0  0
  -22.7867  -13.5235   21.1838 C   0  0  0  0  0  0
  -22.1658   -4.2149   21.0981 F   0  0  0  0  0  0
  -21.5629   -3.4536   25.7739 F   0  0  0  0  0  0
  -30.0402  -13.2864   20.4518 N   0  0  0  0  0  0
  -26.3039  -12.9284   20.3378 N   0  0  0  0  0  0
  -25.9314  -11.6454   20.5768 N   0  0  0  0  0  0
  -22.0499  -12.8240   22.0398 N   0  0  0  0  0  0
  -25.4309  -15.1846   20.4077 N   0  0  0  0  0  0
  -31.7868  -14.7150   20.0889 O   0  0  0  0  0  0
  -21.6629   -6.8873   21.4241 O   0  0  0  0  0  0
  -22.3561  -14.5548   20.6692 O   0  0  0  0  0  0
  -24.6151  -31.8672   23.2098 C   0  0  0  0  0  0
  -25.9041  -32.4819   23.8398 C   0  0  1  0  0  0
  -27.2388  -27.4345   20.0997 C   0  0  0  0  0  0
  -25.5895  -33.8618   24.2330 N   0  0  0  0  0  0
  -23.4050  -30.4890   21.5488 C   0  0  2  0  0  0
  -24.8559  -28.9546   20.1136 C   0  0  0  0  0  0
  -22.7418  -29.4648   22.4978 C   0  0  0  0  0  0
  -18.0273  -28.1376   22.8491 C   0  0  0  0  0  0
  -24.1485  -36.7316   23.2637 C   0  0  0  0  0  0
  -25.9338  -30.8323   21.3646 C   0  0  0  0  0  0
  -26.0148  -29.4661   20.7128 C   0  0  0  0  0  0
  -27.2123  -28.7122   20.7056 C   0  0  0  0  0  0
  -26.0685  -26.9379   19.4924 C   0  0  0  0  0  0
  -24.8772  -27.6891   19.5001 C   0  0  0  0  0  0
  -23.6163  -29.8202   20.1638 C   0  0  0  0  0  0
  -25.4103  -36.3112   24.0340 C   0  0  1  0  0  0
  -20.5865  -28.3664   23.1313 C   0  0  2  0  0  0
  -20.6760  -26.9399   22.5417 C   0  0  0  0  0  0
  -19.5740  -26.6384   21.5212 C   0  0  0  0  0  0
  -18.1920  -26.7923   22.1622 C   0  0  0  0  0  0
  -19.1523  -28.8836   23.2899 C   0  0  0  0  0  0
  -18.9451  -30.1442   23.8910 C   0  0  0  0  0  0
  -17.6454  -30.6584   24.0563 C   0  0  0  0  0  0
  -25.9033  -34.9476   23.5134 C   0  0  0  0  0  0
  -16.5344  -29.9087   23.6323 C   0  0  0  0  0  0
  -16.7261  -28.6501   23.0347 C   0  0  0  0  0  0
  -26.4474  -31.6595   25.0723 C   0  0  0  0  0  0
  -25.3747  -31.3694   26.1476 C   0  0  0  0  0  0
  -27.0307  -30.3037   24.6097 C   0  0  0  0  0  0
  -27.6053  -32.4313   25.7484 C   0  0  0  0  0  0
  -27.5587  -37.1801   24.8456 C   0  0  0  0  0  0
  -21.4145  -29.3031   22.3720 N   0  0  0  0  0  0
  -26.4285  -37.3801   23.9423 N   0  0  0  0  0  0
  -24.6693  -31.0768   22.0998 N   0  0  0  0  0  0
  -23.4184  -28.8193   23.3028 O   0  0  0  0  0  0
  -28.3688  -26.6472   20.1027 O   0  0  0  0  0  0
  -26.5596  -34.8928   22.4695 O   0  0  0  0  0  0
  -23.5340  -32.1421   23.7489 O   0  0  0  0  0  0
  -28.8313  -17.2028   19.9449 C   0  0  0  0  0  0
  -30.6632  -17.8086   21.4193 C   0  0  0  0  0  0
  -28.6050  -18.5670   19.6701 C   0  0  0  0  0  0
  -30.4286  -19.1810   21.1450 C   0  0  0  0  0  0
  -29.8580  -16.8071   20.8280 C   0  0  0  0  0  0
  -29.3791  -19.5781   20.2763 C   0  0  0  0  0  0
  -28.8315  -23.2801   20.3855 C   0  0  0  0  0  0
  -29.3915  -24.5523   21.0758 C   0  0  0  0  0  0
  -29.6401  -21.9813   20.6659 C   0  0  0  0  0  0
  -28.4049  -25.7441   21.2175 C   0  0  0  0  0  0
  -29.9575  -15.4355   21.2065 N   0  0  0  0  0  0
  -29.0320  -20.8859   19.9737 O   0  0  0  0  0  0
  -31.4757  -12.4372   19.1133 H   0  0  0  0  0  0
  -30.3545  -11.3010   19.8065 H   0  0  0  0  0  0
  -29.7398  -11.7918   17.4231 H   0  0  0  0  0  0
  -29.6606  -13.5003   17.7710 H   0  0  0  0  0  0
  -27.8282  -11.3100   18.8058 H   0  0  0  0  0  0
  -27.3681  -12.6487   17.7880 H   0  0  0  0  0  0
  -27.7112  -14.2455   19.5883 H   0  0  0  0  0  0
  -28.6895  -11.9185   21.3125 H   0  0  0  0  0  0
  -28.4599  -13.5349   21.8901 H   0  0  0  0  0  0
  -25.2743   -9.5684   22.4755 H   0  0  0  0  0  0
  -23.9992   -7.4627   22.7466 H   0  0  0  0  0  0
  -21.0821   -8.8758   19.8950 H   0  0  0  0  0  0
  -22.3669  -10.9663   19.6158 H   0  0  0  0  0  0
  -21.2003   -7.6145   23.9723 H   0  0  0  0  0  0
  -21.1479   -6.0517   25.9082 H   0  0  0  0  0  0
  -22.0603   -2.7608   23.2846 H   0  0  0  0  0  0
  -22.4096  -11.9892   22.4784 H   0  0  0  0  0  0
  -21.1127  -13.1289   22.2612 H   0  0  0  0  0  0
  -24.6616  -15.8368   20.5163 H   0  0  0  0  0  0
  -26.2840  -15.6286   20.0960 H   0  0  0  0  0  0
  -26.7115  -32.5537   23.1169 H   0  0  0  0  0  0
  -25.0047  -33.9783   25.0475 H   0  0  0  0  0  0
  -22.6937  -31.3056   21.4079 H   0  0  0  0  0  0
  -23.3751  -35.9643   23.3285 H   0  0  0  0  0  0
  -24.3588  -36.8946   22.2055 H   0  0  0  0  0  0
  -23.7226  -37.6513   23.6658 H   0  0  0  0  0  0
  -26.0464  -31.5983   20.5961 H   0  0  0  0  0  0
  -26.8208  -30.8871   21.9834 H   0  0  0  0  0  0
  -28.1067  -29.0996   21.1735 H   0  0  0  0  0  0
  -26.0792  -25.9628   19.0255 H   0  0  0  0  0  0
  -23.9870  -27.2886   19.0350 H   0  0  0  0  0  0
  -23.7247  -30.5947   19.4035 H   0  0  0  0  0  0
  -22.7412  -29.2391   19.8674 H   0  0  0  0  0  0
  -25.1275  -36.1974   25.0832 H   0  0  0  0  0  0
  -20.9956  -28.3229   24.1433 H   0  0  0  0  0  0
  -20.5657  -26.2274   23.3606 H   0  0  0  0  0  0
  -21.6632  -26.7437   22.1211 H   0  0  0  0  0  0
  -19.6901  -25.6298   21.1232 H   0  0  0  0  0  0
  -19.6681  -27.3200   20.6748 H   0  0  0  0  0  0
  -17.4190  -26.6672   21.4024 H   0  0  0  0  0  0
  -18.0320  -26.0061   22.9015 H   0  0  0  0  0  0
  -19.7929  -30.7252   24.2285 H   0  0  0  0  0  0
  -17.5012  -31.6266   24.5161 H   0  0  0  0  0  0
  -15.5346  -30.2994   23.7641 H   0  0  0  0  0  0
  -15.8659  -28.0827   22.7054 H   0  0  0  0  0  0
  -24.5910  -30.7058   25.7810 H   0  0  0  0  0  0
  -24.8955  -32.2848   26.4957 H   0  0  0  0  0  0
  -25.8108  -30.8834   27.0214 H   0  0  0  0  0  0
  -26.2851  -29.6793   24.1161 H   0  0  0  0  0  0
  -27.4090  -29.7277   25.4554 H   0  0  0  0  0  0
  -27.8680  -30.4358   23.9241 H   0  0  0  0  0  0
  -27.2673  -33.3596   26.2100 H   0  0  0  0  0  0
  -28.3841  -32.6899   25.0298 H   0  0  0  0  0  0
  -28.0745  -31.8413   26.5367 H   0  0  0  0  0  0
  -28.2574  -38.0131   24.7559 H   0  0  0  0  0  0
  -28.1116  -36.2668   24.6205 H   0  0  0  0  0  0
  -27.2318  -37.1356   25.8860 H   0  0  0  0  0  0
  -20.9305  -29.8761   21.6948 H   0  0  0  0  0  0
  -26.0173  -38.2872   24.1458 H   0  0  0  0  0  0
  -28.1911  -16.4684   19.4806 H   0  0  0  0  0  0
  -31.4452  -17.5332   22.1133 H   0  0  0  0  0  0
  -27.8028  -18.8432   19.0003 H   0  0  0  0  0  0
  -31.0561  -19.9164   21.6268 H   0  0  0  0  0  0
  -28.7664  -23.4536   19.3107 H   0  0  0  0  0  0
  -27.8085  -23.1144   20.7249 H   0  0  0  0  0  0
  -30.3134  -24.8783   20.5932 H   0  0  0  0  0  0
  -29.6789  -24.2650   22.0882 H   0  0  0  0  0  0
  -29.6517  -21.7891   21.7399 H   0  0  0  0  0  0
  -30.6738  -22.0941   20.3368 H   0  0  0  0  0  0
  -28.7055  -26.3349   22.0844 H   0  0  0  0  0  0
  -27.4089  -25.3630   21.4531 H   0  0  0  0  0  0
  -29.1125  -15.0532   21.6036 H   0  0  0  0  0  0
  1 25  1  0  0  0
  1 30  2  0  0  0
  1 81  1  0  0  0
  2  3  1  0  0  0
  2 25  1  0  0  0
  2 83  1  0  0  0
  2 84  1  0  0  0
  3  4  1  0  0  0
  3 85  1  0  0  0
  3 86  1  0  0  0
  4  5  1  0  0  0
  4 87  1  0  0  0
  4 88  1  0  0  0
  5  6  1  0  0  0
  5 26  1  0  0  0
  5 89  1  0  0  0
  6 25  1  0  0  0
  6 90  1  0  0  0
  6 91  1  0  0  0
  7  8  2  0  0  0
  7 26  1  0  0  0
  7 29  1  0  0  0
  8  9  1  0  0  0
  8 22  1  0  0  0
  9 10  1  0  0  0
  9 27  2  0  0  0
 10 11  2  0  0  0
 10 15  1  0  0  0
 11 12  1  0  0  0
 11 92  1  0  0  0
 12 13  2  0  0  0
 12 93  1  0  0  0
 13 14  1  0  0  0
 13 31  1  0  0  0
 14 15  2  0  0  0
 14 94  1  0  0  0
 15 95  1  0  0  0
 16 17  2  0  0  0
 16 21  1  0  0  0
 16 31  1  0  0  0
 17 18  1  0  0  0
 17 96  1  0  0  0
 18 19  2  0  0  0
 18 97  1  0  0  0
 19 20  1  0  0  0
 19 24  1  0  0  0
 20 21  2  0  0  0
 20 98  1  0  0  0
 21 23  1  0  0  0
 22 28  1  0  0  0
 22 32  2  0  0  0
 26 27  1  0  0  0
 28 99  1  0  0  0
 28100  1  0  0  0
 29101  1  0  0  0
 29102  1  0  0  0
 33 34  1  0  0  0
 33 66  1  0  0  0
 33 70  2  0  0  0
 34 36  1  0  0  0
 34 59  1  0  0  0
 34103  1  0  0  0
 35 44  2  0  0  0
 35 45  1  0  0  0
 35 68  1  0  0  0
 36 56  1  0  0  0
 36104  1  0  0  0
 37 39  1  0  0  0
 37 47  1  0  0  0
 37 66  1  0  0  0
 37105  1  0  0  0
 38 43  2  0  0  0
 38 46  1  0  0  0
 38 47  1  0  0  0
 39 64  1  0  0  0
 39 67  2  0  0  0
 40 52  1  0  0  0
 40 53  2  0  0  0
 40 58  1  0  0  0
 41106  1  0  0  0
 41107  1  0  0  0
 41108  1  0  0  0
 41 48  1  0  0  0
 42 43  1  0  0  0
 42 66  1  0  0  0
 42109  1  0  0  0
 42110  1  0  0  0
 43 44  1  0  0  0
 44111  1  0  0  0
 45 46  2  0  0  0
 45112  1  0  0  0
 46113  1  0  0  0
 47114  1  0  0  0
 47115  1  0  0  0
 48 56  1  0  0  0
 48 65  1  0  0  0
 48116  1  0  0  0
 49 50  1  0  0  0
 49 53  1  0  0  0
 49 64  1  0  0  0
 49117  1  0  0  0
 50 51  1  0  0  0
 50118  1  0  0  0
 50119  1  0  0  0
 51 52  1  0  0  0
 51120  1  0  0  0
 51121  1  0  0  0
 52122  1  0  0  0
 52123  1  0  0  0
 53 54  1  0  0  0
 54 55  2  0  0  0
 54124  1  0  0  0
 55 57  1  0  0  0
 55125  1  0  0  0
 56 69  2  0  0  0
 57 58  2  0  0  0
 57126  1  0  0  0
 58127  1  0  0  0
 59 60  1  0  0  0
 59 61  1  0  0  0
 59 62  1  0  0  0
 60128  1  0  0  0
 60129  1  0  0  0
 60130  1  0  0  0
 61131  1  0  0  0
 61132  1  0  0  0
 61133  1  0  0  0
 62134  1  0  0  0
 62135  1  0  0  0
 62136  1  0  0  0
 63 65  1  0  0  0
 63137  1  0  0  0
 63138  1  0  0  0
 63139  1  0  0  0
 64140  1  0  0  0
 65141  1  0  0  0
 68 80  1  0  0  0
 71 73  2  0  0  0
 71 75  1  0  0  0
 71142  1  0  0  0
 72 74  1  0  0  0
 72 75  2  0  0  0
 72143  1  0  0  0
 73 76  1  0  0  0
 73144  1  0  0  0
 74 76  2  0  0  0
 74145  1  0  0  0
 75 81  1  0  0  0
 76 82  1  0  0  0
 77 78  1  0  0  0
 77 79  1  0  0  0
 77146  1  0  0  0
 77147  1  0  0  0
 78 80  1  0  0  0
 78148  1  0  0  0
 78149  1  0  0  0
 79 82  1  0  0  0
 79150  1  0  0  0
 79151  1  0  0  0
 80152  1  0  0  0
 80153  1  0  0  0
 81154  1  0  0  0
M  ISO  4   1 100  68 101  80 101  81 100
M  END
> <chiral flag>
0

> <version>
0

> <s_m_source_file>
/data/baiqing/PycharmProjects/Reinvent-master-3.2/result/LINK_invent/BTK/process_docking_weight1_custom_sum_contain_oxygen_bond_distance_aromatic_linkinvent_7_9_3/rearranged_h_0006.sdf

> <i_m_source_file_index>
66

> <r_mmod_Potential_Energy-OPLS-2005>
-26.1432418823242

> <r_mmod_Stretch_Energy-OPLS-2005>
38.0520858764648

> <r_mmod_Bend_Energy-OPLS-2005>
103.493583679199

> <r_mmod_Torsional_Energy-OPLS-2005>
269.066009521484

> <r_mmod_Improper_Torsional_Energy-OPLS-2005>
5.56116437911987

> <r_mmod_Van_der_Waal_Energy-OPLS-2005>
142.235061645508

> <r_mmod_Electrostatic_Energy-OPLS-2005>
-386.073486328125

> <r_mmod_Solvation_Energy-OPLS-2005>
-212.002868652344

> <b_mmod_Minimization_Converged-OPLS-2005>
0

> <r_mmod_RMS_Derivative-OPLS-2005>
0.609314560890198

$$$$
66
                    3D
 Structure written by MMmdl.
157165  0  0  1  0            999 V2000
  -30.5336  -14.9409   20.4379 C   0  0  0  0  0  0
  -30.4370  -12.5803   19.5205 C   0  0  0  0  0  0
  -29.5314  -12.5410   18.2679 C   0  0  0  0  0  0
  -28.0582  -12.3344   18.6689 C   0  0  0  0  0  0
  -27.6325  -13.2493   19.8475 C   0  0  2  0  0  0
  -28.6676  -13.2588   20.9925 C   0  0  0  0  0  0
  -25.2480  -13.8223   20.5700 C   0  0  0  0  0  0
  -24.1787  -13.0448   20.9210 C   0  0  0  0  0  0
  -24.6396  -11.6934   20.8744 C   0  0  0  0  0  0
  -23.9075  -10.4304   21.0417 C   0  0  0  0  0  0
  -24.3633   -9.4216   21.9192 C   0  0  0  0  0  0
  -23.6310   -8.2249   22.0762 C   0  0  0  0  0  0
  -22.4292   -8.0290   21.3553 C   0  0  0  0  0  0
  -21.9927   -9.0259   20.4653 C   0  0  0  0  0  0
  -22.7246  -10.2144   20.3066 C   0  0  0  0  0  0
  -21.6860   -6.0748   22.5276 C   0  0  0  0  0  0
  -21.4009   -6.5646   23.8205 C   0  0  0  0  0  0
  -21.3665   -5.6796   24.9166 C   0  0  0  0  0  0
  -21.6058   -4.3058   24.7215 C   0  0  0  0  0  0
  -21.8822   -3.8150   23.4331 C   0  0  0  0  0  0
  -21.9190   -4.6977   22.3392 C   0  0  0  0  0  0
  -22.7816  -13.5231   21.1842 C   0  0  0  0  0  0
  -22.1671   -4.2164   21.0975 F   0  0  0  0  0  0
  -21.5630   -3.4538   25.7724 F   0  0  0  0  0  0
  -29.9467  -13.6763   20.4067 N   0  0  0  0  0  0
  -26.2888  -12.9438   20.3249 N   0  0  0  0  0  0
  -25.9328  -11.6573   20.5735 N   0  0  0  0  0  0
  -22.0468  -12.8235   22.0415 N   0  0  0  0  0  0
  -25.4168  -15.1947   20.4108 N   0  0  0  0  0  0
  -31.7252  -15.0144   20.1199 O   0  0  0  0  0  0
  -21.6647   -6.8898   21.4240 O   0  0  0  0  0  0
  -22.3500  -14.5523   20.6668 O   0  0  0  0  0  0
  -24.6460  -31.8433   23.1833 C   0  0  0  0  0  0
  -25.9214  -32.4696   23.8253 C   0  0  1  0  0  0
  -27.2159  -27.1176   20.1661 C   0  0  0  0  0  0
  -25.5943  -33.8502   24.2179 N   0  0  0  0  0  0
  -23.4501  -30.4581   21.5323 C   0  0  2  0  0  0
  -24.8968  -28.8770   20.1152 C   0  0  0  0  0  0
  -22.7582  -29.4543   22.4896 C   0  0  0  0  0  0
  -18.0303  -28.1402   22.8477 C   0  0  0  0  0  0
  -24.1477  -36.7259   23.2641 C   0  0  0  0  0  0
  -26.0046  -30.7131   21.3803 C   0  0  0  0  0  0
  -26.0764  -29.3204   20.7276 C   0  0  0  0  0  0
  -27.2398  -28.4591   20.7271 C   0  0  0  0  0  0
  -26.0102  -26.7755   19.5162 C   0  0  0  0  0  0
  -24.8770  -27.6197   19.4926 C   0  0  0  0  0  0
  -23.6722  -29.7784   20.1561 C   0  0  0  0  0  0
  -25.4113  -36.3052   24.0321 C   0  0  1  0  0  0
  -20.5920  -28.3729   23.1249 C   0  0  2  0  0  0
  -20.6796  -26.9436   22.5417 C   0  0  0  0  0  0
  -19.5775  -26.6385   21.5225 C   0  0  0  0  0  0
  -18.1952  -26.7937   22.1631 C   0  0  0  0  0  0
  -19.1567  -28.8893   23.2844 C   0  0  0  0  0  0
  -18.9472  -30.1481   23.8869 C   0  0  0  0  0  0
  -17.6473  -30.6598   24.0559 C   0  0  0  0  0  0
  -25.9071  -34.9421   23.5074 C   0  0  0  0  0  0
  -16.5362  -29.9086   23.6332 C   0  0  0  0  0  0
  -16.7290  -28.6506   23.0357 C   0  0  0  0  0  0
  -26.4501  -31.6555   25.0710 C   0  0  0  0  0  0
  -25.3653  -31.3757   26.1377 C   0  0  0  0  0  0
  -27.0330  -30.2945   24.6279 C   0  0  0  0  0  0
  -27.6037  -32.4309   25.7503 C   0  0  0  0  0  0
  -27.5573  -37.1790   24.8470 C   0  0  0  0  0  0
  -21.4281  -29.3033   22.3611 N   0  0  0  0  0  0
  -26.4284  -37.3764   23.9409 N   0  0  0  0  0  0
  -24.7202  -31.0270   22.0873 N   0  0  0  0  0  0
  -23.4214  -28.8100   23.3062 O   0  0  0  0  0  0
  -28.2773  -26.1371   20.1939 O   0  0  0  0  0  0
  -26.5674  -34.8912   22.4669 O   0  0  0  0  0  0
  -23.5573  -32.1314   23.7042 O   0  0  0  0  0  0
  -27.1811  -21.4812   24.5475 C   0  0  0  0  0  0
  -26.3940  -21.1282   23.4335 C   0  0  0  0  0  0
  -28.4872  -21.9720   24.3607 C   0  0  0  0  0  0
  -26.9180  -21.2438   22.1312 C   0  0  0  0  0  0
  -29.0133  -22.0961   23.0602 C   0  0  0  0  0  0
  -28.2346  -21.7147   21.9443 C   0  0  0  0  0  0
  -29.3185  -20.5581   20.1138 C   0  0  0  0  0  0
  -29.1837  -19.0229   20.7638 C   0  0  0  0  0  0
  -30.0557  -17.6514   20.2646 C   0  0  0  0  0  0
  -28.9261  -23.2610   20.0577 C   0  0  0  0  0  0
  -28.0411  -24.6274   20.5445 C   0  0  0  0  0  0
  -29.7583  -16.1253   20.6120 N   0  0  0  0  0  0
  -28.7946  -21.7858   20.6480 N   0  0  0  0  0  0
  -29.9528  -20.6150   19.0570 O   0  0  0  0  0  0
  -31.4767  -12.7263   19.2257 H   0  0  0  0  0  0
  -30.4130  -11.6218   20.0420 H   0  0  0  0  0  0
  -29.8519  -11.7472   17.5900 H   0  0  0  0  0  0
  -29.6364  -13.4792   17.7195 H   0  0  0  0  0  0
  -27.9367  -11.2874   18.9489 H   0  0  0  0  0  0
  -27.4057  -12.4975   17.8103 H   0  0  0  0  0  0
  -27.6023  -14.2577   19.4354 H   0  0  0  0  0  0
  -28.7462  -12.2737   21.4560 H   0  0  0  0  0  0
  -28.3654  -13.9456   21.7839 H   0  0  0  0  0  0
  -25.2786   -9.5696   22.4758 H   0  0  0  0  0  0
  -24.0029   -7.4641   22.7482 H   0  0  0  0  0  0
  -21.0864   -8.8772   19.8954 H   0  0  0  0  0  0
  -22.3706  -10.9685   19.6175 H   0  0  0  0  0  0
  -21.2000   -7.6153   23.9714 H   0  0  0  0  0  0
  -21.1493   -6.0523   25.9074 H   0  0  0  0  0  0
  -22.0598   -2.7610   23.2817 H   0  0  0  0  0  0
  -22.4077  -11.9915   22.4840 H   0  0  0  0  0  0
  -21.1079  -13.1261   22.2596 H   0  0  0  0  0  0
  -24.6497  -15.8488   20.5205 H   0  0  0  0  0  0
  -26.2585  -15.6303   20.0560 H   0  0  0  0  0  0
  -26.7291  -32.5297   23.0990 H   0  0  0  0  0  0
  -25.0035  -33.9612   25.0289 H   0  0  0  0  0  0
  -22.7531  -31.2835   21.3766 H   0  0  0  0  0  0
  -23.3762  -35.9575   23.3316 H   0  0  0  0  0  0
  -24.3537  -36.8882   22.2053 H   0  0  0  0  0  0
  -23.7198  -37.6442   23.6669 H   0  0  0  0  0  0
  -26.1541  -31.4605   20.6001 H   0  0  0  0  0  0
  -26.8783  -30.7706   22.0168 H   0  0  0  0  0  0
  -28.1435  -28.7972   21.2125 H   0  0  0  0  0  0
  -25.9212  -25.8150   19.0291 H   0  0  0  0  0  0
  -23.9756  -27.2766   19.0022 H   0  0  0  0  0  0
  -23.7988  -30.5444   19.3920 H   0  0  0  0  0  0
  -22.7880  -29.2136   19.8566 H   0  0  0  0  0  0
  -25.1296  -36.1899   25.0816 H   0  0  0  0  0  0
  -20.9996  -28.3319   24.1381 H   0  0  0  0  0  0
  -20.5714  -26.2343   23.3634 H   0  0  0  0  0  0
  -21.6656  -26.7452   22.1206 H   0  0  0  0  0  0
  -19.6936  -25.6289   21.1273 H   0  0  0  0  0  0
  -19.6712  -27.3179   20.6744 H   0  0  0  0  0  0
  -17.4223  -26.6688   21.4026 H   0  0  0  0  0  0
  -18.0343  -26.0085   22.9035 H   0  0  0  0  0  0
  -19.7940  -30.7309   24.2231 H   0  0  0  0  0  0
  -17.5014  -31.6274   24.5167 H   0  0  0  0  0  0
  -15.5361  -30.2989   23.7654 H   0  0  0  0  0  0
  -15.8688  -28.0807   22.7104 H   0  0  0  0  0  0
  -24.5827  -30.7132   25.7652 H   0  0  0  0  0  0
  -24.8834  -32.2947   26.4751 H   0  0  0  0  0  0
  -25.7892  -30.8932   27.0194 H   0  0  0  0  0  0
  -26.2923  -29.6717   24.1245 H   0  0  0  0  0  0
  -27.3885  -29.7211   25.4854 H   0  0  0  0  0  0
  -27.8860  -30.4168   23.9605 H   0  0  0  0  0  0
  -27.2631  -33.3609   26.2070 H   0  0  0  0  0  0
  -28.3850  -32.6892   25.0336 H   0  0  0  0  0  0
  -28.0703  -31.8446   26.5426 H   0  0  0  0  0  0
  -28.2606  -38.0070   24.7510 H   0  0  0  0  0  0
  -28.1052  -36.2609   24.6313 H   0  0  0  0  0  0
  -27.2297  -37.1452   25.8873 H   0  0  0  0  0  0
  -20.9530  -29.8694   21.6721 H   0  0  0  0  0  0
  -26.0170  -38.2845   24.1398 H   0  0  0  0  0  0
  -26.7831  -21.3779   25.5476 H   0  0  0  0  0  0
  -25.3878  -20.7592   23.5798 H   0  0  0  0  0  0
  -29.0912  -22.2415   25.2157 H   0  0  0  0  0  0
  -26.3125  -20.9545   21.2828 H   0  0  0  0  0  0
  -30.0252  -22.4532   22.9284 H   0  0  0  0  0  0
  -28.1267  -18.7735   20.6724 H   0  0  0  0  0  0
  -29.3456  -19.1336   21.8356 H   0  0  0  0  0  0
  -31.0953  -17.8244   20.5467 H   0  0  0  0  0  0
  -30.0659  -17.6857   19.1744 H   0  0  0  0  0  0
  -29.9793  -23.5151   20.1744 H   0  0  0  0  0  0
  -28.7823  -23.1651   18.9813 H   0  0  0  0  0  0
  -28.0926  -24.6260   21.6332 H   0  0  0  0  0  0
  -26.9975  -24.3969   20.3367 H   0  0  0  0  0  0
  -28.8055  -15.9368   20.8895 H   0  0  0  0  0  0
  1 25  1  0  0  0
  1 30  2  0  0  0
  1 82  1  0  0  0
  2  3  1  0  0  0
  2 25  1  0  0  0
  2 85  1  0  0  0
  2 86  1  0  0  0
  3  4  1  0  0  0
  3 87  1  0  0  0
  3 88  1  0  0  0
  4  5  1  0  0  0
  4 89  1  0  0  0
  4 90  1  0  0  0
  5  6  1  0  0  0
  5 26  1  0  0  0
  5 91  1  0  0  0
  6 25  1  0  0  0
  6 92  1  0  0  0
  6 93  1  0  0  0
  7  8  2  0  0  0
  7 26  1  0  0  0
  7 29  1  0  0  0
  8  9  1  0  0  0
  8 22  1  0  0  0
  9 10  1  0  0  0
  9 27  2  0  0  0
 10 11  2  0  0  0
 10 15  1  0  0  0
 11 12  1  0  0  0
 11 94  1  0  0  0
 12 13  2  0  0  0
 12 95  1  0  0  0
 13 14  1  0  0  0
 13 31  1  0  0  0
 14 15  2  0  0  0
 14 96  1  0  0  0
 15 97  1  0  0  0
 16 17  2  0  0  0
 16 21  1  0  0  0
 16 31  1  0  0  0
 17 18  1  0  0  0
 17 98  1  0  0  0
 18 19  2  0  0  0
 18 99  1  0  0  0
 19 20  1  0  0  0
 19 24  1  0  0  0
 20 21  2  0  0  0
 20100  1  0  0  0
 21 23  1  0  0  0
 22 28  1  0  0  0
 22 32  2  0  0  0
 26 27  1  0  0  0
 28101  1  0  0  0
 28102  1  0  0  0
 29103  1  0  0  0
 29104  1  0  0  0
 33 34  1  0  0  0
 33 66  1  0  0  0
 33 70  2  0  0  0
 34 36  1  0  0  0
 34 59  1  0  0  0
 34105  1  0  0  0
 35 44  2  0  0  0
 35 45  1  0  0  0
 35 68  1  0  0  0
 36 56  1  0  0  0
 36106  1  0  0  0
 37 39  1  0  0  0
 37 47  1  0  0  0
 37 66  1  0  0  0
 37107  1  0  0  0
 38 43  2  0  0  0
 38 46  1  0  0  0
 38 47  1  0  0  0
 39 64  1  0  0  0
 39 67  2  0  0  0
 40 52  1  0  0  0
 40 53  2  0  0  0
 40 58  1  0  0  0
 41108  1  0  0  0
 41109  1  0  0  0
 41110  1  0  0  0
 41 48  1  0  0  0
 42 43  1  0  0  0
 42 66  1  0  0  0
 42111  1  0  0  0
 42112  1  0  0  0
 43 44  1  0  0  0
 44113  1  0  0  0
 45 46  2  0  0  0
 45114  1  0  0  0
 46115  1  0  0  0
 47116  1  0  0  0
 47117  1  0  0  0
 48 56  1  0  0  0
 48 65  1  0  0  0
 48118  1  0  0  0
 49 50  1  0  0  0
 49 53  1  0  0  0
 49 64  1  0  0  0
 49119  1  0  0  0
 50 51  1  0  0  0
 50120  1  0  0  0
 50121  1  0  0  0
 51 52  1  0  0  0
 51122  1  0  0  0
 51123  1  0  0  0
 52124  1  0  0  0
 52125  1  0  0  0
 53 54  1  0  0  0
 54 55  2  0  0  0
 54126  1  0  0  0
 55 57  1  0  0  0
 55127  1  0  0  0
 56 69  2  0  0  0
 57 58  2  0  0  0
 57128  1  0  0  0
 58129  1  0  0  0
 59 60  1  0  0  0
 59 61  1  0  0  0
 59 62  1  0  0  0
 60130  1  0  0  0
 60131  1  0  0  0
 60132  1  0  0  0
 61133  1  0  0  0
 61134  1  0  0  0
 61135  1  0  0  0
 62136  1  0  0  0
 62137  1  0  0  0
 62138  1  0  0  0
 63 65  1  0  0  0
 63139  1  0  0  0
 63140  1  0  0  0
 63141  1  0  0  0
 64142  1  0  0  0
 65143  1  0  0  0
 68 81  1  0  0  0
 71 72  2  0  0  0
 71 73  1  0  0  0
 71144  1  0  0  0
 72 74  1  0  0  0
 72145  1  0  0  0
 73 75  2  0  0  0
 73146  1  0  0  0
 74 76  2  0  0  0
 74147  1  0  0  0
 75 76  1  0  0  0
 75148  1  0  0  0
 76 83  1  0  0  0
 77 78  1  0  0  0
 77 83  1  0  0  0
 77 84  2  0  0  0
 78 79  1  0  0  0
 78149  1  0  0  0
 78150  1  0  0  0
 79 82  1  0  0  0
 79151  1  0  0  0
 79152  1  0  0  0
 80 81  1  0  0  0
 80 83  1  0  0  0
 80153  1  0  0  0
 80154  1  0  0  0
 81155  1  0  0  0
 81156  1  0  0  0
 82157  1  0  0  0
M  ISO  4   1 100  68 101  81 101  82 100
M  END
> <chiral flag>
0

> <version>
0

> <s_m_source_file>
/data/baiqing/PycharmProjects/Reinvent-master-3.2/result/LINK_invent/BTK/process_docking_weight1_custom_sum_contain_oxygen_bond_distance_aromatic_linkinvent_7_9_3/rearranged_h_0006.sdf

> <i_m_source_file_index>
67

> <r_mmod_Potential_Energy-OPLS-2005>
573.454956054688

> <r_mmod_Stretch_Energy-OPLS-2005>
291.242156982422

> <r_mmod_Bend_Energy-OPLS-2005>
262.901153564453

> <r_mmod_Torsional_Energy-OPLS-2005>
273.960296630859

> <r_mmod_Improper_Torsional_Energy-OPLS-2005>
5.05444812774658

> <r_mmod_Van_der_Waal_Energy-OPLS-2005>
124.92308807373

> <r_mmod_Electrostatic_Energy-OPLS-2005>
-347.500061035156

> <r_mmod_Solvation_Energy-OPLS-2005>
-230.051177978516

> <b_mmod_Minimization_Converged-OPLS-2005>
0

> <r_mmod_RMS_Derivative-OPLS-2005>
2.54009032249451

$$$$
67
                    3D
 Structure written by MMmdl.
160168  0  0  1  0            999 V2000
  -30.8027  -14.3434   20.6832 C   0  0  0  0  0  0
  -30.4115  -12.2776   19.3946 C   0  0  0  0  0  0
  -29.4814  -12.5256   18.1929 C   0  0  0  0  0  0
  -28.0084  -12.3814   18.6129 C   0  0  0  0  0  0
  -27.6694  -13.2073   19.8821 C   0  0  2  0  0  0
  -28.7111  -12.9599   20.9980 C   0  0  0  0  0  0
  -25.2612  -13.8169   20.5696 C   0  0  0  0  0  0
  -24.1857  -13.0448   20.9171 C   0  0  0  0  0  0
  -24.6406  -11.6912   20.8727 C   0  0  0  0  0  0
  -23.9063  -10.4299   21.0398 C   0  0  0  0  0  0
  -24.3615   -9.4219   21.9181 C   0  0  0  0  0  0
  -23.6297   -8.2252   22.0749 C   0  0  0  0  0  0
  -22.4278   -8.0283   21.3543 C   0  0  0  0  0  0
  -21.9917   -9.0255   20.4643 C   0  0  0  0  0  0
  -22.7234  -10.2138   20.3051 C   0  0  0  0  0  0
  -21.6848   -6.0736   22.5278 C   0  0  0  0  0  0
  -21.4014   -6.5643   23.8212 C   0  0  0  0  0  0
  -21.3664   -5.6798   24.9180 C   0  0  0  0  0  0
  -21.6040   -4.3058   24.7234 C   0  0  0  0  0  0
  -21.8815   -3.8149   23.4357 C   0  0  0  0  0  0
  -21.9193   -4.6962   22.3408 C   0  0  0  0  0  0
  -22.7870  -13.5243   21.1846 C   0  0  0  0  0  0
  -22.1656   -4.2147   21.0979 F   0  0  0  0  0  0
  -21.5638   -3.4539   25.7751 F   0  0  0  0  0  0
  -30.0617  -13.2263   20.4618 N   0  0  0  0  0  0
  -26.3069  -12.9354   20.3418 N   0  0  0  0  0  0
  -25.9341  -11.6502   20.5776 N   0  0  0  0  0  0
  -22.0513  -12.8228   22.0396 N   0  0  0  0  0  0
  -25.4355  -15.1889   20.4109 N   0  0  0  0  0  0
  -31.7909  -14.6391   20.0050 O   0  0  0  0  0  0
  -21.6636   -6.8884   21.4245 O   0  0  0  0  0  0
  -22.3548  -14.5554   20.6703 O   0  0  0  0  0  0
  -24.6131  -31.8694   23.2104 C   0  0  0  0  0  0
  -25.9033  -32.4839   23.8392 C   0  0  1  0  0  0
  -27.2359  -27.4451   20.0960 C   0  0  0  0  0  0
  -25.5896  -33.8634   24.2329 N   0  0  0  0  0  0
  -23.4002  -30.4926   21.5515 C   0  0  2  0  0  0
  -24.8463  -28.9633   20.1111 C   0  0  0  0  0  0
  -22.7410  -29.4652   22.4994 C   0  0  0  0  0  0
  -18.0269  -28.1369   22.8489 C   0  0  0  0  0  0
  -24.1490  -36.7316   23.2636 C   0  0  0  0  0  0
  -25.9268  -30.8398   21.3603 C   0  0  0  0  0  0
  -26.0056  -29.4755   20.7061 C   0  0  0  0  0  0
  -27.2028  -28.7251   20.6924 C   0  0  0  0  0  0
  -26.0566  -26.9457   19.4920 C   0  0  0  0  0  0
  -24.8662  -27.6979   19.5004 C   0  0  0  0  0  0
  -23.6071  -29.8274   20.1644 C   0  0  0  0  0  0
  -25.4111  -36.3118   24.0338 C   0  0  1  0  0  0
  -20.5860  -28.3645   23.1329 C   0  0  2  0  0  0
  -20.6758  -26.9390   22.5415 C   0  0  0  0  0  0
  -19.5739  -26.6379   21.5204 C   0  0  0  0  0  0
  -18.1910  -26.7914   22.1618 C   0  0  0  0  0  0
  -19.1520  -28.8829   23.2893 C   0  0  0  0  0  0
  -18.9457  -30.1433   23.8908 C   0  0  0  0  0  0
  -17.6461  -30.6574   24.0563 C   0  0  0  0  0  0
  -25.9035  -34.9487   23.5127 C   0  0  0  0  0  0
  -16.5349  -29.9079   23.6323 C   0  0  0  0  0  0
  -16.7264  -28.6496   23.0345 C   0  0  0  0  0  0
  -26.4474  -31.6603   25.0707 C   0  0  0  0  0  0
  -25.3756  -31.3687   26.1462 C   0  0  0  0  0  0
  -27.0283  -30.3050   24.6034 C   0  0  0  0  0  0
  -27.6049  -32.4319   25.7476 C   0  0  0  0  0  0
  -27.5586  -37.1808   24.8467 C   0  0  0  0  0  0
  -21.4144  -29.3018   22.3750 N   0  0  0  0  0  0
  -26.4304  -37.3785   23.9407 N   0  0  0  0  0  0
  -24.6651  -31.0801   22.0998 N   0  0  0  0  0  0
  -23.4194  -28.8193   23.3022 O   0  0  0  0  0  0
  -28.4153  -26.7268   20.1279 O   0  0  0  0  0  0
  -26.5599  -34.8939   22.4686 O   0  0  0  0  0  0
  -23.5332  -32.1477   23.7491 O   0  0  0  0  0  0
  -32.1391  -18.3987   22.0750 C   0  0  0  0  0  0
  -31.9599  -17.0329   21.7858 C   0  0  0  0  0  0
  -29.8578  -18.5180   22.9241 C   0  0  0  0  0  0
  -31.0823  -19.1537   22.6180 C   0  0  0  0  0  0
  -30.7150  -16.4119   22.0421 C   0  0  0  0  0  0
  -29.6666  -17.1426   22.6370 C   0  0  0  0  0  0
  -30.5649  -22.3696   21.4520 C   0  0  0  0  0  0
  -27.3991  -17.1457   23.4408 C   0  0  0  0  0  0
  -29.3816  -23.0995   20.8082 C   0  0  0  0  0  0
  -29.5408  -24.6334   20.7261 C   0  0  0  0  0  0
  -28.3068  -25.3008   20.0936 C   0  0  0  0  0  0
  -30.4408  -15.0490   21.7598 N   0  0  0  0  0  0
  -31.2535  -20.5269   22.8286 N   0  0  0  0  0  0
  -30.2704  -21.3857   22.3155 N   0  0  0  0  0  0
  -31.7272  -22.6585   21.1550 O   0  0  0  0  0  0
  -28.4980  -16.4473   22.8776 O   0  0  0  0  0  0
  -31.4570  -12.3567   19.0891 H   0  0  0  0  0  0
  -30.2907  -11.2569   19.7615 H   0  0  0  0  0  0
  -29.7078  -11.8251   17.3886 H   0  0  0  0  0  0
  -29.6548  -13.5234   17.7885 H   0  0  0  0  0  0
  -27.8155  -11.3237   18.7979 H   0  0  0  0  0  0
  -27.3534  -12.6695   17.7903 H   0  0  0  0  0  0
  -27.7254  -14.2596   19.6039 H   0  0  0  0  0  0
  -28.6620  -11.9239   21.3363 H   0  0  0  0  0  0
  -28.4581  -13.5588   21.8725 H   0  0  0  0  0  0
  -25.2763   -9.5692   22.4750 H   0  0  0  0  0  0
  -24.0003   -7.4642   22.7473 H   0  0  0  0  0  0
  -21.0847   -8.8769   19.8951 H   0  0  0  0  0  0
  -22.3691  -10.9673   19.6155 H   0  0  0  0  0  0
  -21.1995   -7.6150   23.9720 H   0  0  0  0  0  0
  -21.1494   -6.0527   25.9082 H   0  0  0  0  0  0
  -22.0590   -2.7610   23.2855 H   0  0  0  0  0  0
  -22.4132  -11.9881   22.4762 H   0  0  0  0  0  0
  -21.1137  -13.1247   22.2615 H   0  0  0  0  0  0
  -24.6744  -15.8510   20.5155 H   0  0  0  0  0  0
  -26.3025  -15.6232   20.1208 H   0  0  0  0  0  0
  -26.7119  -32.5561   23.1174 H   0  0  0  0  0  0
  -25.0055  -33.9797   25.0483 H   0  0  0  0  0  0
  -22.6858  -31.3069   21.4145 H   0  0  0  0  0  0
  -23.3747  -35.9652   23.3322 H   0  0  0  0  0  0
  -24.3589  -36.8902   22.2044 H   0  0  0  0  0  0
  -23.7254  -37.6532   23.6647 H   0  0  0  0  0  0
  -26.0315  -31.6067   20.5917 H   0  0  0  0  0  0
  -26.8159  -30.8955   21.9764 H   0  0  0  0  0  0
  -28.0982  -29.1144   21.1559 H   0  0  0  0  0  0
  -26.0391  -25.9807   19.0062 H   0  0  0  0  0  0
  -23.9760  -27.3018   19.0310 H   0  0  0  0  0  0
  -23.7089  -30.6044   19.4050 H   0  0  0  0  0  0
  -22.7327  -29.2436   19.8728 H   0  0  0  0  0  0
  -25.1283  -36.1989   25.0833 H   0  0  0  0  0  0
  -20.9933  -28.3221   24.1457 H   0  0  0  0  0  0
  -20.5661  -26.2262   23.3600 H   0  0  0  0  0  0
  -21.6633  -26.7441   22.1212 H   0  0  0  0  0  0
  -19.6909  -25.6289   21.1231 H   0  0  0  0  0  0
  -19.6691  -27.3203   20.6740 H   0  0  0  0  0  0
  -17.4183  -26.6679   21.4014 H   0  0  0  0  0  0
  -18.0310  -26.0049   22.9014 H   0  0  0  0  0  0
  -19.7939  -30.7230   24.2299 H   0  0  0  0  0  0
  -17.5019  -31.6264   24.5148 H   0  0  0  0  0  0
  -15.5348  -30.2975   23.7629 H   0  0  0  0  0  0
  -15.8671  -28.0813   22.7036 H   0  0  0  0  0  0
  -24.5932  -30.7031   25.7799 H   0  0  0  0  0  0
  -24.8951  -32.2835   26.4944 H   0  0  0  0  0  0
  -25.8119  -30.8845   27.0205 H   0  0  0  0  0  0
  -26.2786  -29.6829   24.1125 H   0  0  0  0  0  0
  -27.4107  -29.7259   25.4446 H   0  0  0  0  0  0
  -27.8613  -30.4366   23.9117 H   0  0  0  0  0  0
  -27.2659  -33.3606   26.2081 H   0  0  0  0  0  0
  -28.3853  -32.6894   25.0303 H   0  0  0  0  0  0
  -28.0736  -31.8433   26.5381 H   0  0  0  0  0  0
  -28.2592  -38.0105   24.7502 H   0  0  0  0  0  0
  -28.1077  -36.2636   24.6305 H   0  0  0  0  0  0
  -27.2302  -37.1469   25.8864 H   0  0  0  0  0  0
  -20.9301  -29.8761   21.6996 H   0  0  0  0  0  0
  -26.0204  -38.2864   24.1408 H   0  0  0  0  0  0
  -33.0887  -18.8651   21.8523 H   0  0  0  0  0  0
  -32.7855  -16.4820   21.3574 H   0  0  0  0  0  0
  -29.0699  -19.1039   23.3718 H   0  0  0  0  0  0
  -26.5465  -16.4683   23.5030 H   0  0  0  0  0  0
  -27.1016  -17.9938   22.8238 H   0  0  0  0  0  0
  -27.6278  -17.4898   24.4495 H   0  0  0  0  0  0
  -28.4742  -22.8592   21.3630 H   0  0  0  0  0  0
  -29.2487  -22.6859   19.8086 H   0  0  0  0  0  0
  -30.4335  -24.8888   20.1541 H   0  0  0  0  0  0
  -29.6903  -25.0345   21.7294 H   0  0  0  0  0  0
  -27.4252  -24.9721   20.6465 H   0  0  0  0  0  0
  -28.1900  -24.9654   19.0618 H   0  0  0  0  0  0
  -29.6366  -14.6784   22.2440 H   0  0  0  0  0  0
  -32.1987  -20.8628   22.6453 H   0  0  0  0  0  0
  -29.3111  -21.1639   22.5528 H   0  0  0  0  0  0
  1 25  1  0  0  0
  1 30  2  0  0  0
  1 82  1  0  0  0
  2  3  1  0  0  0
  2 25  1  0  0  0
  2 87  1  0  0  0
  2 88  1  0  0  0
  3  4  1  0  0  0
  3 89  1  0  0  0
  3 90  1  0  0  0
  4  5  1  0  0  0
  4 91  1  0  0  0
  4 92  1  0  0  0
  5  6  1  0  0  0
  5 26  1  0  0  0
  5 93  1  0  0  0
  6 25  1  0  0  0
  6 94  1  0  0  0
  6 95  1  0  0  0
  7  8  2  0  0  0
  7 26  1  0  0  0
  7 29  1  0  0  0
  8  9  1  0  0  0
  8 22  1  0  0  0
  9 10  1  0  0  0
  9 27  2  0  0  0
 10 11  2  0  0  0
 10 15  1  0  0  0
 11 12  1  0  0  0
 11 96  1  0  0  0
 12 13  2  0  0  0
 12 97  1  0  0  0
 13 14  1  0  0  0
 13 31  1  0  0  0
 14 15  2  0  0  0
 14 98  1  0  0  0
 15 99  1  0  0  0
 16 17  2  0  0  0
 16 21  1  0  0  0
 16 31  1  0  0  0
 17 18  1  0  0  0
 17100  1  0  0  0
 18 19  2  0  0  0
 18101  1  0  0  0
 19 20  1  0  0  0
 19 24  1  0  0  0
 20 21  2  0  0  0
 20102  1  0  0  0
 21 23  1  0  0  0
 22 28  1  0  0  0
 22 32  2  0  0  0
 26 27  1  0  0  0
 28103  1  0  0  0
 28104  1  0  0  0
 29105  1  0  0  0
 29106  1  0  0  0
 33 34  1  0  0  0
 33 66  1  0  0  0
 33 70  2  0  0  0
 34 36  1  0  0  0
 34 59  1  0  0  0
 34107  1  0  0  0
 35 44  2  0  0  0
 35 45  1  0  0  0
 35 68  1  0  0  0
 36 56  1  0  0  0
 36108  1  0  0  0
 37 39  1  0  0  0
 37 47  1  0  0  0
 37 66  1  0  0  0
 37109  1  0  0  0
 38 43  2  0  0  0
 38 46  1  0  0  0
 38 47  1  0  0  0
 39 64  1  0  0  0
 39 67  2  0  0  0
 40 52  1  0  0  0
 40 53  2  0  0  0
 40 58  1  0  0  0
 41110  1  0  0  0
 41111  1  0  0  0
 41112  1  0  0  0
 41 48  1  0  0  0
 42 43  1  0  0  0
 42 66  1  0  0  0
 42113  1  0  0  0
 42114  1  0  0  0
 43 44  1  0  0  0
 44115  1  0  0  0
 45 46  2  0  0  0
 45116  1  0  0  0
 46117  1  0  0  0
 47118  1  0  0  0
 47119  1  0  0  0
 48 56  1  0  0  0
 48 65  1  0  0  0
 48120  1  0  0  0
 49 50  1  0  0  0
 49 53  1  0  0  0
 49 64  1  0  0  0
 49121  1  0  0  0
 50 51  1  0  0  0
 50122  1  0  0  0
 50123  1  0  0  0
 51 52  1  0  0  0
 51124  1  0  0  0
 51125  1  0  0  0
 52126  1  0  0  0
 52127  1  0  0  0
 53 54  1  0  0  0
 54 55  2  0  0  0
 54128  1  0  0  0
 55 57  1  0  0  0
 55129  1  0  0  0
 56 69  2  0  0  0
 57 58  2  0  0  0
 57130  1  0  0  0
 58131  1  0  0  0
 59 60  1  0  0  0
 59 61  1  0  0  0
 59 62  1  0  0  0
 60132  1  0  0  0
 60133  1  0  0  0
 60134  1  0  0  0
 61135  1  0  0  0
 61136  1  0  0  0
 61137  1  0  0  0
 62138  1  0  0  0
 62139  1  0  0  0
 62140  1  0  0  0
 63 65  1  0  0  0
 63141  1  0  0  0
 63142  1  0  0  0
 63143  1  0  0  0
 64144  1  0  0  0
 65145  1  0  0  0
 68 81  1  0  0  0
 71 72  2  0  0  0
 71 74  1  0  0  0
 71146  1  0  0  0
 72 75  1  0  0  0
 72147  1  0  0  0
 73 74  2  0  0  0
 73 76  1  0  0  0
 73148  1  0  0  0
 74 83  1  0  0  0
 75 76  2  0  0  0
 75 82  1  0  0  0
 76 86  1  0  0  0
 77 79  1  0  0  0
 77 84  1  0  0  0
 77 85  2  0  0  0
 78 86  1  0  0  0
 78149  1  0  0  0
 78150  1  0  0  0
 78151  1  0  0  0
 79 80  1  0  0  0
 79152  1  0  0  0
 79153  1  0  0  0
 80 81  1  0  0  0
 80154  1  0  0  0
 80155  1  0  0  0
 81156  1  0  0  0
 81157  1  0  0  0
 82158  1  0  0  0
 83 84  1  0  0  0
 83159  1  0  0  0
 84160  1  0  0  0
M  ISO  4   1 100  68 101  81 101  82 100
M  END
> <chiral flag>
0

> <version>
0

> <s_m_source_file>
/data/baiqing/PycharmProjects/Reinvent-master-3.2/result/LINK_invent/BTK/process_docking_weight1_custom_sum_contain_oxygen_bond_distance_aromatic_linkinvent_7_9_3/rearranged_h_0006.sdf

> <i_m_source_file_index>
68

> <r_mmod_Potential_Energy-OPLS-2005>
-171.511444091797

> <r_mmod_Stretch_Energy-OPLS-2005>
34.5613250732422

> <r_mmod_Bend_Energy-OPLS-2005>
101.074829101562

> <r_mmod_Torsional_Energy-OPLS-2005>
218.044906616211

> <r_mmod_Improper_Torsional_Energy-OPLS-2005>
8.01782131195068

> <r_mmod_Van_der_Waal_Energy-OPLS-2005>
163.831604003906

> <r_mmod_Electrostatic_Energy-OPLS-2005>
-474.046630859375

> <r_mmod_Solvation_Energy-OPLS-2005>
-231.747177124023

> <b_mmod_Minimization_Converged-OPLS-2005>
0

> <r_mmod_RMS_Derivative-OPLS-2005>
2.10773611068726

$$$$
68
                    3D
 Structure written by MMmdl.
190198  0  0  1  0            999 V2000
  -30.7464  -14.3790   20.5886 C   0  0  0  0  0  0
  -30.3907  -12.2484   19.4155 C   0  0  0  0  0  0
  -29.4773  -12.5137   18.2041 C   0  0  0  0  0  0
  -27.9979  -12.3913   18.6092 C   0  0  0  0  0  0
  -27.6623  -13.2112   19.8826 C   0  0  2  0  0  0
  -28.6992  -12.9646   21.0043 C   0  0  0  0  0  0
  -25.2585  -13.8203   20.5695 C   0  0  0  0  0  0
  -24.1832  -13.0467   20.9200 C   0  0  0  0  0  0
  -24.6394  -11.6933   20.8762 C   0  0  0  0  0  0
  -23.9078  -10.4304   21.0412 C   0  0  0  0  0  0
  -24.3627   -9.4211   21.9194 C   0  0  0  0  0  0
  -23.6306   -8.2249   22.0772 C   0  0  0  0  0  0
  -22.4283   -8.0301   21.3570 C   0  0  0  0  0  0
  -21.9918   -9.0277   20.4668 C   0  0  0  0  0  0
  -22.7256  -10.2152   20.3054 C   0  0  0  0  0  0
  -21.6859   -6.0743   22.5294 C   0  0  0  0  0  0
  -21.4017   -6.5637   23.8223 C   0  0  0  0  0  0
  -21.3652   -5.6790   24.9180 C   0  0  0  0  0  0
  -21.6045   -4.3065   24.7234 C   0  0  0  0  0  0
  -21.8806   -3.8150   23.4348 C   0  0  0  0  0  0
  -21.9180   -4.6963   22.3409 C   0  0  0  0  0  0
  -22.7847  -13.5245   21.1845 C   0  0  0  0  0  0
  -22.1650   -4.2128   21.0985 F   0  0  0  0  0  0
  -21.5633   -3.4546   25.7755 F   0  0  0  0  0  0
  -30.0419  -13.2260   20.4612 N   0  0  0  0  0  0
  -26.3025  -12.9372   20.3405 N   0  0  0  0  0  0
  -25.9316  -11.6527   20.5802 N   0  0  0  0  0  0
  -22.0459  -12.8287   22.0401 N   0  0  0  0  0  0
  -25.4325  -15.1919   20.4082 N   0  0  0  0  0  0
  -31.8025  -14.5580   19.9801 O   0  0  0  0  0  0
  -21.6644   -6.8899   21.4265 O   0  0  0  0  0  0
  -22.3537  -14.5528   20.6651 O   0  0  0  0  0  0
  -24.6091  -31.8707   23.2117 C   0  0  0  0  0  0
  -25.8996  -32.4844   23.8408 C   0  0  1  0  0  0
  -27.2592  -27.4803   20.0897 C   0  0  0  0  0  0
  -25.5866  -33.8643   24.2346 N   0  0  0  0  0  0
  -23.3962  -30.4922   21.5498 C   0  0  2  0  0  0
  -24.8472  -28.9579   20.1198 C   0  0  0  0  0  0
  -22.7382  -29.4672   22.5002 C   0  0  0  0  0  0
  -18.0271  -28.1375   22.8496 C   0  0  0  0  0  0
  -24.1481  -36.7332   23.2636 C   0  0  0  0  0  0
  -25.9174  -30.8500   21.3570 C   0  0  0  0  0  0
  -26.0001  -29.4836   20.7144 C   0  0  0  0  0  0
  -27.2035  -28.7526   20.7069 C   0  0  0  0  0  0
  -26.0862  -26.9559   19.5092 C   0  0  0  0  0  0
  -24.8819  -27.6878   19.5175 C   0  0  0  0  0  0
  -23.6040  -29.8175   20.1661 C   0  0  0  0  0  0
  -25.4097  -36.3131   24.0347 C   0  0  1  0  0  0
  -20.5856  -28.3652   23.1325 C   0  0  2  0  0  0
  -20.6755  -26.9392   22.5417 C   0  0  0  0  0  0
  -19.5737  -26.6385   21.5210 C   0  0  0  0  0  0
  -18.1915  -26.7920   22.1621 C   0  0  0  0  0  0
  -19.1514  -28.8830   23.2913 C   0  0  0  0  0  0
  -18.9445  -30.1434   23.8919 C   0  0  0  0  0  0
  -17.6451  -30.6581   24.0567 C   0  0  0  0  0  0
  -25.9023  -34.9495   23.5148 C   0  0  0  0  0  0
  -16.5348  -29.9084   23.6317 C   0  0  0  0  0  0
  -16.7262  -28.6502   23.0343 C   0  0  0  0  0  0
  -26.4445  -31.6606   25.0717 C   0  0  0  0  0  0
  -25.3728  -31.3700   26.1488 C   0  0  0  0  0  0
  -27.0258  -30.3057   24.6038 C   0  0  0  0  0  0
  -27.6050  -32.4304   25.7455 C   0  0  0  0  0  0
  -27.5593  -37.1806   24.8459 C   0  0  0  0  0  0
  -21.4119  -29.3027   22.3732 N   0  0  0  0  0  0
  -26.4293  -37.3812   23.9424 N   0  0  0  0  0  0
  -24.6593  -31.0851   22.0987 N   0  0  0  0  0  0
  -23.4173  -28.8221   23.3038 O   0  0  0  0  0  0
  -28.4001  -26.7124   20.0046 O   0  0  0  0  0  0
  -26.5596  -34.8937   22.4718 O   0  0  0  0  0  0
  -23.5293  -32.1439   23.7537 O   0  0  0  0  0  0
  -28.8183  -18.6733   20.6152 C   0  0  0  0  0  0
  -28.9454  -17.3339   21.0258 C   0  0  0  0  0  0
  -29.9575  -19.4013   20.2317 C   0  0  0  0  0  0
  -31.3789  -17.4937   20.8400 C   0  0  0  0  0  0
  -30.2105  -16.7129   21.0904 C   0  0  0  0  0  0
  -31.2336  -18.8108   20.3250 C   0  0  0  0  0  0
  -34.8358  -24.3977   20.5413 C   0  0  0  0  0  0
  -32.8286  -19.5223   18.6302 C   0  0  0  0  0  0
  -32.7813  -16.9520   21.1088 C   0  0  0  0  0  0
  -36.0550  -25.0188   19.9235 C   0  0  0  0  0  0
  -31.6142  -15.3512   15.9234 C   0  0  0  0  0  0
  -31.9641  -18.9227   17.5048 C   0  0  0  0  0  0
  -31.4930  -16.8741   16.0325 C   0  0  0  0  0  0
  -32.2248  -17.4232   17.2672 C   0  0  0  0  0  0
  -32.1673  -27.0001   20.2573 C   0  0  0  0  0  0
  -30.7900  -26.3856   19.9526 C   0  0  0  0  0  0
  -33.0058  -21.7919   20.8729 C   0  0  0  0  0  0
  -33.3452  -26.2151   19.6631 C   0  0  0  0  0  0
  -33.1222  -20.2597   20.9606 C   0  0  0  0  0  0
  -33.9119  -22.4922   21.8999 C   0  0  0  0  0  0
  -29.6371  -27.2987   20.3951 C   0  0  0  0  0  0
  -30.2161  -15.3173   21.3904 N   0  0  0  0  0  0
  -33.6228  -24.9763   20.4038 N   0  0  0  0  0  0
  -32.3656  -19.5643   19.9094 N   0  0  0  0  0  0
  -34.9828  -23.2543   21.2411 N   0  3  0  0  0  0
  -33.9454  -19.9528   18.3223 O   0  0  0  0  0  0
  -31.4382  -12.2976   19.1195 H   0  0  0  0  0  0
  -30.2399  -11.2319   19.7838 H   0  0  0  0  0  0
  -29.7060  -11.8178   17.3961 H   0  0  0  0  0  0
  -29.6651  -13.5162   17.8197 H   0  0  0  0  0  0
  -27.7790  -11.3358   18.7749 H   0  0  0  0  0  0
  -27.3551  -12.7093   17.7866 H   0  0  0  0  0  0
  -27.7188  -14.2629   19.6050 H   0  0  0  0  0  0
  -28.6465  -11.9306   21.3480 H   0  0  0  0  0  0
  -28.4654  -13.5658   21.8827 H   0  0  0  0  0  0
  -25.2746   -9.5681   22.4790 H   0  0  0  0  0  0
  -23.9992   -7.4625   22.7494 H   0  0  0  0  0  0
  -21.0841   -8.8815   19.8985 H   0  0  0  0  0  0
  -22.3717  -10.9704   19.6172 H   0  0  0  0  0  0
  -21.2008   -7.6138   23.9725 H   0  0  0  0  0  0
  -21.1500   -6.0522   25.9088 H   0  0  0  0  0  0
  -22.0585   -2.7609   23.2862 H   0  0  0  0  0  0
  -22.4014  -11.9931   22.4820 H   0  0  0  0  0  0
  -21.1090  -13.1375   22.2571 H   0  0  0  0  0  0
  -24.6713  -15.8538   20.5078 H   0  0  0  0  0  0
  -26.2813  -15.6258   20.0675 H   0  0  0  0  0  0
  -26.7077  -32.5583   23.1189 H   0  0  0  0  0  0
  -25.0002  -33.9800   25.0481 H   0  0  0  0  0  0
  -22.6833  -31.3081   21.4095 H   0  0  0  0  0  0
  -23.3748  -35.9661   23.3287 H   0  0  0  0  0  0
  -24.3587  -36.8953   22.2054 H   0  0  0  0  0  0
  -23.7219  -37.6532   23.6647 H   0  0  0  0  0  0
  -26.0169  -31.6093   20.5803 H   0  0  0  0  0  0
  -26.8104  -30.9152   21.9667 H   0  0  0  0  0  0
  -28.0759  -29.1863   21.1749 H   0  0  0  0  0  0
  -26.1112  -25.9824   19.0392 H   0  0  0  0  0  0
  -23.9958  -27.2711   19.0565 H   0  0  0  0  0  0
  -23.7047  -30.5882   19.4014 H   0  0  0  0  0  0
  -22.7308  -29.2298   19.8763 H   0  0  0  0  0  0
  -25.1260  -36.2009   25.0842 H   0  0  0  0  0  0
  -20.9961  -28.3219   24.1442 H   0  0  0  0  0  0
  -20.5650  -26.2263   23.3602 H   0  0  0  0  0  0
  -21.6627  -26.7434   22.1215 H   0  0  0  0  0  0
  -19.6897  -25.6301   21.1220 H   0  0  0  0  0  0
  -19.6679  -27.3208   20.6748 H   0  0  0  0  0  0
  -17.4190  -26.6678   21.4022 H   0  0  0  0  0  0
  -18.0319  -26.0056   22.9009 H   0  0  0  0  0  0
  -19.7925  -30.7238   24.2305 H   0  0  0  0  0  0
  -17.5010  -31.6266   24.5166 H   0  0  0  0  0  0
  -15.5339  -30.3000   23.7628 H   0  0  0  0  0  0
  -15.8664  -28.0832   22.7039 H   0  0  0  0  0  0
  -24.5868  -30.7088   25.7821 H   0  0  0  0  0  0
  -24.8960  -32.2858   26.4995 H   0  0  0  0  0  0
  -25.8094  -30.8815   27.0207 H   0  0  0  0  0  0
  -26.2772  -29.6837   24.1117 H   0  0  0  0  0  0
  -27.4079  -29.7275   25.4458 H   0  0  0  0  0  0
  -27.8585  -30.4402   23.9130 H   0  0  0  0  0  0
  -27.2700  -33.3594   26.2075 H   0  0  0  0  0  0
  -28.3822  -32.6873   25.0246 H   0  0  0  0  0  0
  -28.0753  -31.8397   26.5322 H   0  0  0  0  0  0
  -28.2589  -38.0124   24.7552 H   0  0  0  0  0  0
  -28.1105  -36.2665   24.6212 H   0  0  0  0  0  0
  -27.2328  -37.1376   25.8863 H   0  0  0  0  0  0
  -20.9272  -29.8742   21.6952 H   0  0  0  0  0  0
  -26.0188  -38.2893   24.1444 H   0  0  0  0  0  0
  -27.8412  -19.1326   20.5695 H   0  0  0  0  0  0
  -28.0500  -16.7778   21.2729 H   0  0  0  0  0  0
  -29.8530  -20.4142   19.8687 H   0  0  0  0  0  0
  -32.7612  -16.1187   21.8115 H   0  0  0  0  0  0
  -33.4369  -17.6971   21.5507 H   0  0  0  0  0  0
  -33.2456  -16.6155   20.1817 H   0  0  0  0  0  0
  -36.3429  -25.9099   20.4821 H   0  0  0  0  0  0
  -35.8628  -25.3030   18.8877 H   0  0  0  0  0  0
  -36.8978  -24.3265   19.9252 H   0  0  0  0  0  0
  -31.1627  -14.9799   15.0024 H   0  0  0  0  0  0
  -31.1151  -14.8620   16.7576 H   0  0  0  0  0  0
  -32.6565  -15.0327   15.9350 H   0  0  0  0  0  0
  -32.2095  -19.4673   16.5908 H   0  0  0  0  0  0
  -30.9059  -19.1114   17.6801 H   0  0  0  0  0  0
  -30.4352  -17.1427   16.0748 H   0  0  0  0  0  0
  -31.8958  -17.3338   15.1284 H   0  0  0  0  0  0
  -31.9046  -16.8597   18.1421 H   0  0  0  0  0  0
  -33.2954  -17.2419   17.1610 H   0  0  0  0  0  0
  -32.2994  -27.1090   21.3341 H   0  0  0  0  0  0
  -32.2085  -28.0101   19.8493 H   0  0  0  0  0  0
  -30.6933  -25.4119   20.4352 H   0  0  0  0  0  0
  -30.7062  -26.2086   18.8789 H   0  0  0  0  0  0
  -31.9711  -22.0915   21.0417 H   0  0  0  0  0  0
  -33.2506  -22.1303   19.8648 H   0  0  0  0  0  0
  -34.2294  -26.8489   19.7130 H   0  0  0  0  0  0
  -33.1781  -25.9882   18.6083 H   0  0  0  0  0  0
  -32.7608  -19.9427   21.9406 H   0  0  0  0  0  0
  -34.1712  -19.9594   20.9203 H   0  0  0  0  0  0
  -34.3638  -21.7616   22.5714 H   0  0  0  0  0  0
  -33.3296  -23.1643   22.5303 H   0  0  0  0  0  0
  -29.7606  -28.2751   19.9245 H   0  0  0  0  0  0
  -29.6605  -27.4385   21.4763 H   0  0  0  0  0  0
  -29.3971  -14.9839   21.8774 H   0  0  0  0  0  0
  -32.8117  -24.5030   20.7753 H   0  0  0  0  0  0
  -35.9109  -22.8564   21.3259 H   0  0  0  0  0  0
  1 25  1  0  0  0
  1 30  2  0  0  0
  1 92  1  0  0  0
  2  3  1  0  0  0
  2 25  1  0  0  0
  2 97  1  0  0  0
  2 98  1  0  0  0
  3  4  1  0  0  0
  3 99  1  0  0  0
  3100  1  0  0  0
  4  5  1  0  0  0
  4101  1  0  0  0
  4102  1  0  0  0
  5  6  1  0  0  0
  5 26  1  0  0  0
  5103  1  0  0  0
  6 25  1  0  0  0
  6104  1  0  0  0
  6105  1  0  0  0
  7  8  2  0  0  0
  7 26  1  0  0  0
  7 29  1  0  0  0
  8  9  1  0  0  0
  8 22  1  0  0  0
  9 10  1  0  0  0
  9 27  2  0  0  0
 10 11  2  0  0  0
 10 15  1  0  0  0
 11 12  1  0  0  0
 11106  1  0  0  0
 12 13  2  0  0  0
 12107  1  0  0  0
 13 14  1  0  0  0
 13 31  1  0  0  0
 14 15  2  0  0  0
 14108  1  0  0  0
 15109  1  0  0  0
 16 17  2  0  0  0
 16 21  1  0  0  0
 16 31  1  0  0  0
 17 18  1  0  0  0
 17110  1  0  0  0
 18 19  2  0  0  0
 18111  1  0  0  0
 19 20  1  0  0  0
 19 24  1  0  0  0
 20 21  2  0  0  0
 20112  1  0  0  0
 21 23  1  0  0  0
 22 28  1  0  0  0
 22 32  2  0  0  0
 26 27  1  0  0  0
 28113  1  0  0  0
 28114  1  0  0  0
 29115  1  0  0  0
 29116  1  0  0  0
 33 34  1  0  0  0
 33 66  1  0  0  0
 33 70  2  0  0  0
 34 36  1  0  0  0
 34 59  1  0  0  0
 34117  1  0  0  0
 35 44  2  0  0  0
 35 45  1  0  0  0
 35 68  1  0  0  0
 36 56  1  0  0  0
 36118  1  0  0  0
 37 39  1  0  0  0
 37 47  1  0  0  0
 37 66  1  0  0  0
 37119  1  0  0  0
 38 43  2  0  0  0
 38 46  1  0  0  0
 38 47  1  0  0  0
 39 64  1  0  0  0
 39 67  2  0  0  0
 40 52  1  0  0  0
 40 53  2  0  0  0
 40 58  1  0  0  0
 41120  1  0  0  0
 41121  1  0  0  0
 41122  1  0  0  0
 41 48  1  0  0  0
 42 43  1  0  0  0
 42 66  1  0  0  0
 42123  1  0  0  0
 42124  1  0  0  0
 43 44  1  0  0  0
 44125  1  0  0  0
 45 46  2  0  0  0
 45126  1  0  0  0
 46127  1  0  0  0
 47128  1  0  0  0
 47129  1  0  0  0
 48 56  1  0  0  0
 48 65  1  0  0  0
 48130  1  0  0  0
 49 50  1  0  0  0
 49 53  1  0  0  0
 49 64  1  0  0  0
 49131  1  0  0  0
 50 51  1  0  0  0
 50132  1  0  0  0
 50133  1  0  0  0
 51 52  1  0  0  0
 51134  1  0  0  0
 51135  1  0  0  0
 52136  1  0  0  0
 52137  1  0  0  0
 53 54  1  0  0  0
 54 55  2  0  0  0
 54138  1  0  0  0
 55 57  1  0  0  0
 55139  1  0  0  0
 56 69  2  0  0  0
 57 58  2  0  0  0
 57140  1  0  0  0
 58141  1  0  0  0
 59 60  1  0  0  0
 59 61  1  0  0  0
 59 62  1  0  0  0
 60142  1  0  0  0
 60143  1  0  0  0
 60144  1  0  0  0
 61145  1  0  0  0
 61146  1  0  0  0
 61147  1  0  0  0
 62148  1  0  0  0
 62149  1  0  0  0
 62150  1  0  0  0
 63 65  1  0  0  0
 63151  1  0  0  0
 63152  1  0  0  0
 63153  1  0  0  0
 64154  1  0  0  0
 65155  1  0  0  0
 68 91  1  0  0  0
 71 72  2  0  0  0
 71 73  1  0  0  0
 71156  1  0  0  0
 72 75  1  0  0  0
 72157  1  0  0  0
 73 76  2  0  0  0
 73158  1  0  0  0
 74 75  2  0  0  0
 74 76  1  0  0  0
 74 79  1  0  0  0
 75 92  1  0  0  0
 76 94  1  0  0  0
 77 80  1  0  0  0
 77 93  1  0  0  0
 77 95  2  0  0  0
 78 82  1  0  0  0
 78 94  1  0  0  0
 78 96  2  0  0  0
 79159  1  0  0  0
 79160  1  0  0  0
 79161  1  0  0  0
 80162  1  0  0  0
 80163  1  0  0  0
 80164  1  0  0  0
 81 83  1  0  0  0
 81165  1  0  0  0
 81166  1  0  0  0
 81167  1  0  0  0
 82 84  1  0  0  0
 82168  1  0  0  0
 82169  1  0  0  0
 83 84  1  0  0  0
 83170  1  0  0  0
 83171  1  0  0  0
 84172  1  0  0  0
 84173  1  0  0  0
 85 86  1  0  0  0
 85 88  1  0  0  0
 85174  1  0  0  0
 85175  1  0  0  0
 86 91  1  0  0  0
 86176  1  0  0  0
 86177  1  0  0  0
 87 89  1  0  0  0
 87 90  1  0  0  0
 87178  1  0  0  0
 87179  1  0  0  0
 88 93  1  0  0  0
 88180  1  0  0  0
 88181  1  0  0  0
 89 94  1  0  0  0
 89182  1  0  0  0
 89183  1  0  0  0
 90 95  1  0  0  0
 90184  1  0  0  0
 90185  1  0  0  0
 91186  1  0  0  0
 91187  1  0  0  0
 92188  1  0  0  0
 93189  1  0  0  0
 95190  1  0  0  0
M  CHG  1  95   1
M  ISO  4   1 100  68 101  91 101  92 100
M  END
> <chiral flag>
0

> <version>
0

> <s_m_source_file>
/data/baiqing/PycharmProjects/Reinvent-master-3.2/result/LINK_invent/BTK/process_docking_weight1_custom_sum_contain_oxygen_bond_distance_aromatic_linkinvent_7_9_3/rearranged_h_0006.sdf

> <i_m_source_file_index>
69

> <r_mmod_Potential_Energy-OPLS-2005>
20.8200454711914

> <r_mmod_Stretch_Energy-OPLS-2005>
37.663646697998

> <r_mmod_Bend_Energy-OPLS-2005>
106.614608764648

> <r_mmod_Torsional_Energy-OPLS-2005>
311.537109375

> <r_mmod_Improper_Torsional_Energy-OPLS-2005>
5.13460254669189

> <r_mmod_Van_der_Waal_Energy-OPLS-2005>
160.463729858398

> <r_mmod_Electrostatic_Energy-OPLS-2005>
-197.973327636719

> <r_mmod_Solvation_Energy-OPLS-2005>
-410.746826171875

> <b_mmod_Minimization_Converged-OPLS-2005>
0

> <r_mmod_RMS_Derivative-OPLS-2005>
3.52574920654297

$$$$
69
                    3D
 Structure written by MMmdl.
164172  0  0  1  0            999 V2000
  -30.7779  -14.3645   20.6825 C   0  0  0  0  0  0
  -30.4114  -12.2982   19.3869 C   0  0  0  0  0  0
  -29.4794  -12.5257   18.1849 C   0  0  0  0  0  0
  -28.0057  -12.3699   18.6069 C   0  0  0  0  0  0
  -27.6611  -13.1970   19.8734 C   0  0  2  0  0  0
  -28.7014  -12.9482   20.9871 C   0  0  0  0  0  0
  -25.2575  -13.8134   20.5661 C   0  0  0  0  0  0
  -24.1837  -13.0430   20.9181 C   0  0  0  0  0  0
  -24.6366  -11.6886   20.8716 C   0  0  0  0  0  0
  -23.9021  -10.4287   21.0390 C   0  0  0  0  0  0
  -24.3581   -9.4202   21.9170 C   0  0  0  0  0  0
  -23.6256   -8.2239   22.0757 C   0  0  0  0  0  0
  -22.4238   -8.0271   21.3541 C   0  0  0  0  0  0
  -21.9870   -9.0244   20.4640 C   0  0  0  0  0  0
  -22.7196  -10.2121   20.3038 C   0  0  0  0  0  0
  -21.6848   -6.0709   22.5274 C   0  0  0  0  0  0
  -21.4015   -6.5618   23.8206 C   0  0  0  0  0  0
  -21.3674   -5.6777   24.9176 C   0  0  0  0  0  0
  -21.6045   -4.3036   24.7230 C   0  0  0  0  0  0
  -21.8816   -3.8121   23.4352 C   0  0  0  0  0  0
  -21.9190   -4.6936   22.3404 C   0  0  0  0  0  0
  -22.7865  -13.5240   21.1850 C   0  0  0  0  0  0
  -22.1661   -4.2116   21.0983 F   0  0  0  0  0  0
  -21.5638   -3.4532   25.7749 F   0  0  0  0  0  0
  -30.0347  -13.2526   20.4397 N   0  0  0  0  0  0
  -26.3003  -12.9294   20.3338 N   0  0  0  0  0  0
  -25.9273  -11.6453   20.5709 N   0  0  0  0  0  0
  -22.0486  -12.8254   22.0401 N   0  0  0  0  0  0
  -25.4289  -15.1853   20.4051 N   0  0  0  0  0  0
  -31.8258  -14.6211   20.0848 O   0  0  0  0  0  0
  -21.6621   -6.8852   21.4230 O   0  0  0  0  0  0
  -22.3557  -14.5550   20.6693 O   0  0  0  0  0  0
  -24.6139  -31.8697   23.2141 C   0  0  0  0  0  0
  -25.9044  -32.4833   23.8424 C   0  0  1  0  0  0
  -27.2336  -27.4554   20.0924 C   0  0  0  0  0  0
  -25.5913  -33.8630   24.2338 N   0  0  0  0  0  0
  -23.3983  -30.4960   21.5541 C   0  0  2  0  0  0
  -24.8428  -28.9562   20.1253 C   0  0  0  0  0  0
  -22.7412  -29.4686   22.5024 C   0  0  0  0  0  0
  -18.0303  -28.1356   22.8550 C   0  0  0  0  0  0
  -24.1489  -36.7325   23.2633 C   0  0  0  0  0  0
  -25.9275  -30.8407   21.3652 C   0  0  0  0  0  0
  -26.0029  -29.4729   20.7191 C   0  0  0  0  0  0
  -27.2018  -28.7259   20.7038 C   0  0  0  0  0  0
  -26.0643  -26.9525   19.4868 C   0  0  0  0  0  0
  -24.8649  -27.6897   19.5154 C   0  0  0  0  0  0
  -23.6040  -29.8228   20.1716 C   0  0  0  0  0  0
  -25.4112  -36.3121   24.0334 C   0  0  1  0  0  0
  -20.5890  -28.3698   23.1427 C   0  0  2  0  0  0
  -20.6814  -26.9446   22.5503 C   0  0  0  0  0  0
  -19.5831  -26.6489   21.5250 C   0  0  0  0  0  0
  -18.2014  -26.7916   22.1685 C   0  0  0  0  0  0
  -19.1535  -28.8839   23.2974 C   0  0  0  0  0  0
  -18.9432  -30.1443   23.8964 C   0  0  0  0  0  0
  -17.6425  -30.6607   24.0530 C   0  0  0  0  0  0
  -25.9044  -34.9486   23.5133 C   0  0  0  0  0  0
  -16.5335  -29.9059   23.6309 C   0  0  0  0  0  0
  -16.7279  -28.6461   23.0382 C   0  0  0  0  0  0
  -26.4479  -31.6613   25.0756 C   0  0  0  0  0  0
  -25.3761  -31.3715   26.1525 C   0  0  0  0  0  0
  -27.0302  -30.3059   24.6114 C   0  0  0  0  0  0
  -27.6075  -32.4319   25.7497 C   0  0  0  0  0  0
  -27.5579  -37.1817   24.8465 C   0  0  0  0  0  0
  -21.4135  -29.3065   22.3819 N   0  0  0  0  0  0
  -26.4299  -37.3807   23.9407 N   0  0  0  0  0  0
  -24.6643  -31.0834   22.1021 N   0  0  0  0  0  0
  -23.4237  -28.8199   23.3008 O   0  0  0  0  0  0
  -28.4106  -26.7530   20.0218 O   0  0  0  0  0  0
  -26.5606  -34.8934   22.4700 O   0  0  0  0  0  0
  -23.5343  -32.1439   23.7571 O   0  0  0  0  0  0
  -28.6510  -16.3518   22.8818 C   0  0  0  0  0  0
  -27.9760  -17.8278   20.5863 C   0  0  0  0  0  0
  -29.3148  -16.0812   21.6691 C   0  0  0  0  0  0
  -27.3207  -18.1105   21.8105 C   0  0  0  0  0  0
  -27.6594  -17.3499   22.9503 C   0  0  0  0  0  0
  -28.9629  -16.8218   20.5133 C   0  0  0  0  0  0
  -26.6729  -23.8507   20.9086 C   0  0  0  0  0  0
  -28.0099  -24.3127   20.3188 C   0  0  0  0  0  0
  -24.1282  -21.6049   20.2136 C   0  0  0  0  0  0
  -24.7909  -20.7496   21.3144 C   0  0  0  0  0  0
  -24.3526  -23.1233   20.3482 C   0  0  0  0  0  0
  -28.5412  -25.6394   20.9100 C   0  0  0  0  0  0
  -26.0000  -19.9144   20.8696 C   0  0  0  0  0  0
  -30.3849  -15.1435   21.6971 N   0  0  0  0  0  0
  -25.7236  -23.5080   20.0290 N   0  0  0  0  0  0
  -26.5098  -23.7909   22.1285 O   0  0  0  0  0  0
  -26.3659  -19.0954   21.9765 O   0  0  0  0  0  0
  -27.0454  -17.5974   24.1328 F   0  0  0  0  0  0
  -29.5828  -16.6024   19.3299 F   0  0  0  0  0  0
  -31.4537  -12.3955   19.0783 H   0  0  0  0  0  0
  -30.3096  -11.2780   19.7597 H   0  0  0  0  0  0
  -29.7172  -11.8208   17.3884 H   0  0  0  0  0  0
  -29.6451  -13.5233   17.7743 H   0  0  0  0  0  0
  -27.8249  -11.3112   18.7963 H   0  0  0  0  0  0
  -27.3464  -12.6457   17.7838 H   0  0  0  0  0  0
  -27.7180  -14.2474   19.5906 H   0  0  0  0  0  0
  -28.6761  -11.9051   21.3043 H   0  0  0  0  0  0
  -28.4511  -13.5235   21.8785 H   0  0  0  0  0  0
  -25.2725   -9.5681   22.4750 H   0  0  0  0  0  0
  -23.9968   -7.4627   22.7481 H   0  0  0  0  0  0
  -21.0803   -8.8743   19.8942 H   0  0  0  0  0  0
  -22.3644  -10.9655   19.6152 H   0  0  0  0  0  0
  -21.2004   -7.6127   23.9702 H   0  0  0  0  0  0
  -21.1510   -6.0510   25.9080 H   0  0  0  0  0  0
  -22.0579   -2.7578   23.2864 H   0  0  0  0  0  0
  -22.4086  -11.9930   22.4836 H   0  0  0  0  0  0
  -21.1093  -13.1286   22.2569 H   0  0  0  0  0  0
  -24.6531  -15.8305   20.4998 H   0  0  0  0  0  0
  -26.2621  -15.6147   20.0284 H   0  0  0  0  0  0
  -26.7114  -32.5556   23.1191 H   0  0  0  0  0  0
  -25.0112  -33.9768   25.0515 H   0  0  0  0  0  0
  -22.6845  -31.3127   21.4165 H   0  0  0  0  0  0
  -23.3747  -35.9664   23.3331 H   0  0  0  0  0  0
  -24.3584  -36.8910   22.2040 H   0  0  0  0  0  0
  -23.7238  -37.6542   23.6631 H   0  0  0  0  0  0
  -26.0431  -31.6026   20.5930 H   0  0  0  0  0  0
  -26.8161  -30.8944   21.9824 H   0  0  0  0  0  0
  -28.1024  -29.1224   21.1499 H   0  0  0  0  0  0
  -26.0801  -26.0050   18.9702 H   0  0  0  0  0  0
  -23.9740  -27.2807   19.0588 H   0  0  0  0  0  0
  -23.7079  -30.5945   19.4086 H   0  0  0  0  0  0
  -22.7266  -29.2412   19.8808 H   0  0  0  0  0  0
  -25.1267  -36.2003   25.0823 H   0  0  0  0  0  0
  -21.0023  -28.3322   24.1533 H   0  0  0  0  0  0
  -20.5726  -26.2287   23.3672 H   0  0  0  0  0  0
  -21.6694  -26.7536   22.1298 H   0  0  0  0  0  0
  -19.7081  -25.6450   21.1169 H   0  0  0  0  0  0
  -19.6754  -27.3438   20.6888 H   0  0  0  0  0  0
  -17.4287  -26.6624   21.4099 H   0  0  0  0  0  0
  -18.0506  -26.0032   22.9077 H   0  0  0  0  0  0
  -19.7909  -30.7223   24.2375 H   0  0  0  0  0  0
  -17.4979  -31.6310   24.5069 H   0  0  0  0  0  0
  -15.5318  -30.2971   23.7561 H   0  0  0  0  0  0
  -15.8694  -28.0748   22.7104 H   0  0  0  0  0  0
  -24.5913  -30.7065   25.7889 H   0  0  0  0  0  0
  -24.8980  -32.2869   26.5018 H   0  0  0  0  0  0
  -25.8148  -30.8865   27.0255 H   0  0  0  0  0  0
  -26.2839  -29.6839   24.1154 H   0  0  0  0  0  0
  -27.4066  -29.7270   25.4559 H   0  0  0  0  0  0
  -27.8689  -30.4397   23.9281 H   0  0  0  0  0  0
  -27.2709  -33.3590   26.2150 H   0  0  0  0  0  0
  -28.3853  -32.6919   25.0303 H   0  0  0  0  0  0
  -28.0803  -31.8406   26.5347 H   0  0  0  0  0  0
  -28.2609  -38.0097   24.7490 H   0  0  0  0  0  0
  -28.1049  -36.2629   24.6307 H   0  0  0  0  0  0
  -27.2305  -37.1494   25.8870 H   0  0  0  0  0  0
  -20.9265  -29.8811   21.7083 H   0  0  0  0  0  0
  -26.0200  -38.2899   24.1389 H   0  0  0  0  0  0
  -28.9069  -15.8039   23.7761 H   0  0  0  0  0  0
  -27.7553  -18.3814   19.6876 H   0  0  0  0  0  0
  -27.9490  -24.3911   19.2335 H   0  0  0  0  0  0
  -28.7234  -23.5122   20.5123 H   0  0  0  0  0  0
  -23.0517  -21.4337   20.2743 H   0  0  0  0  0  0
  -24.4170  -21.2618   19.2184 H   0  0  0  0  0  0
  -24.0415  -20.0517   21.6892 H   0  0  0  0  0  0
  -25.0681  -21.3704   22.1679 H   0  0  0  0  0  0
  -24.0586  -23.4732   21.3410 H   0  0  0  0  0  0
  -23.6944  -23.6464   19.6514 H   0  0  0  0  0  0
  -28.0983  -25.8717   21.8817 H   0  0  0  0  0  0
  -29.6095  -25.5217   21.0972 H   0  0  0  0  0  0
  -26.8276  -20.5636   20.5786 H   0  0  0  0  0  0
  -25.7189  -19.2991   20.0146 H   0  0  0  0  0  0
  -31.1855  -15.5200   22.1802 H   0  0  0  0  0  0
  -25.9505  -23.6031   19.0476 H   0  0  0  0  0  0
  1 25  1  0  0  0
  1 30  2  0  0  0
  1 84  1  0  0  0
  2  3  1  0  0  0
  2 25  1  0  0  0
  2 90  1  0  0  0
  2 91  1  0  0  0
  3  4  1  0  0  0
  3 92  1  0  0  0
  3 93  1  0  0  0
  4  5  1  0  0  0
  4 94  1  0  0  0
  4 95  1  0  0  0
  5  6  1  0  0  0
  5 26  1  0  0  0
  5 96  1  0  0  0
  6 25  1  0  0  0
  6 97  1  0  0  0
  6 98  1  0  0  0
  7  8  2  0  0  0
  7 26  1  0  0  0
  7 29  1  0  0  0
  8  9  1  0  0  0
  8 22  1  0  0  0
  9 10  1  0  0  0
  9 27  2  0  0  0
 10 11  2  0  0  0
 10 15  1  0  0  0
 11 12  1  0  0  0
 11 99  1  0  0  0
 12 13  2  0  0  0
 12100  1  0  0  0
 13 14  1  0  0  0
 13 31  1  0  0  0
 14 15  2  0  0  0
 14101  1  0  0  0
 15102  1  0  0  0
 16 17  2  0  0  0
 16 21  1  0  0  0
 16 31  1  0  0  0
 17 18  1  0  0  0
 17103  1  0  0  0
 18 19  2  0  0  0
 18104  1  0  0  0
 19 20  1  0  0  0
 19 24  1  0  0  0
 20 21  2  0  0  0
 20105  1  0  0  0
 21 23  1  0  0  0
 22 28  1  0  0  0
 22 32  2  0  0  0
 26 27  1  0  0  0
 28106  1  0  0  0
 28107  1  0  0  0
 29108  1  0  0  0
 29109  1  0  0  0
 33 34  1  0  0  0
 33 66  1  0  0  0
 33 70  2  0  0  0
 34 36  1  0  0  0
 34 59  1  0  0  0
 34110  1  0  0  0
 35 44  2  0  0  0
 35 45  1  0  0  0
 35 68  1  0  0  0
 36 56  1  0  0  0
 36111  1  0  0  0
 37 39  1  0  0  0
 37 47  1  0  0  0
 37 66  1  0  0  0
 37112  1  0  0  0
 38 43  2  0  0  0
 38 46  1  0  0  0
 38 47  1  0  0  0
 39 64  1  0  0  0
 39 67  2  0  0  0
 40 52  1  0  0  0
 40 53  2  0  0  0
 40 58  1  0  0  0
 41113  1  0  0  0
 41114  1  0  0  0
 41115  1  0  0  0
 41 48  1  0  0  0
 42 43  1  0  0  0
 42 66  1  0  0  0
 42116  1  0  0  0
 42117  1  0  0  0
 43 44  1  0  0  0
 44118  1  0  0  0
 45 46  2  0  0  0
 45119  1  0  0  0
 46120  1  0  0  0
 47121  1  0  0  0
 47122  1  0  0  0
 48 56  1  0  0  0
 48 65  1  0  0  0
 48123  1  0  0  0
 49 50  1  0  0  0
 49 53  1  0  0  0
 49 64  1  0  0  0
 49124  1  0  0  0
 50 51  1  0  0  0
 50125  1  0  0  0
 50126  1  0  0  0
 51 52  1  0  0  0
 51127  1  0  0  0
 51128  1  0  0  0
 52129  1  0  0  0
 52130  1  0  0  0
 53 54  1  0  0  0
 54 55  2  0  0  0
 54131  1  0  0  0
 55 57  1  0  0  0
 55132  1  0  0  0
 56 69  2  0  0  0
 57 58  2  0  0  0
 57133  1  0  0  0
 58134  1  0  0  0
 59 60  1  0  0  0
 59 61  1  0  0  0
 59 62  1  0  0  0
 60135  1  0  0  0
 60136  1  0  0  0
 60137  1  0  0  0
 61138  1  0  0  0
 61139  1  0  0  0
 61140  1  0  0  0
 62141  1  0  0  0
 62142  1  0  0  0
 62143  1  0  0  0
 63 65  1  0  0  0
 63144  1  0  0  0
 63145  1  0  0  0
 63146  1  0  0  0
 64147  1  0  0  0
 65148  1  0  0  0
 68 82  1  0  0  0
 71 73  2  0  0  0
 71 75  1  0  0  0
 71149  1  0  0  0
 72 74  1  0  0  0
 72 76  2  0  0  0
 72150  1  0  0  0
 73 76  1  0  0  0
 73 84  1  0  0  0
 74 75  2  0  0  0
 74 87  1  0  0  0
 75 88  1  0  0  0
 76 89  1  0  0  0
 77 78  1  0  0  0
 77 85  1  0  0  0
 77 86  2  0  0  0
 78 82  1  0  0  0
 78151  1  0  0  0
 78152  1  0  0  0
 79 80  1  0  0  0
 79 81  1  0  0  0
 79153  1  0  0  0
 79154  1  0  0  0
 80 83  1  0  0  0
 80155  1  0  0  0
 80156  1  0  0  0
 81 85  1  0  0  0
 81157  1  0  0  0
 81158  1  0  0  0
 82159  1  0  0  0
 82160  1  0  0  0
 83 87  1  0  0  0
 83161  1  0  0  0
 83162  1  0  0  0
 84163  1  0  0  0
 85164  1  0  0  0
M  ISO  4   1 100  68 101  82 101  84 100
M  END
> <chiral flag>
0

> <version>
0

> <s_m_source_file>
/data/baiqing/PycharmProjects/Reinvent-master-3.2/result/LINK_invent/BTK/process_docking_weight1_custom_sum_contain_oxygen_bond_distance_aromatic_linkinvent_7_9_3/rearranged_h_0006.sdf

> <i_m_source_file_index>
70

> <r_mmod_Potential_Energy-OPLS-2005>
-101.648597717285

> <r_mmod_Stretch_Energy-OPLS-2005>
33.5746955871582

> <r_mmod_Bend_Energy-OPLS-2005>
112.747863769531

> <r_mmod_Torsional_Energy-OPLS-2005>
287.423400878906

> <r_mmod_Improper_Torsional_Energy-OPLS-2005>
6.72050428390503

> <r_mmod_Van_der_Waal_Energy-OPLS-2005>
137.813034057617

> <r_mmod_Electrostatic_Energy-OPLS-2005>
-453.614715576172

> <r_mmod_Solvation_Energy-OPLS-2005>
-233.941253662109

> <b_mmod_Minimization_Converged-OPLS-2005>
0

> <r_mmod_RMS_Derivative-OPLS-2005>
3.1206693649292

$$$$
70
                    3D
 Structure written by MMmdl.
154162  0  0  1  0            999 V2000
  -30.6172  -14.6515   20.4954 C   0  0  0  0  0  0
  -30.4390  -12.3982   19.4592 C   0  0  0  0  0  0
  -29.5099  -12.5073   18.2287 C   0  0  0  0  0  0
  -28.0320  -12.3446   18.6372 C   0  0  0  0  0  0
  -27.6525  -13.2172   19.8632 C   0  0  2  0  0  0
  -28.6960  -13.0754   20.9942 C   0  0  0  0  0  0
  -25.2528  -13.8158   20.5631 C   0  0  0  0  0  0
  -24.1814  -13.0420   20.9189 C   0  0  0  0  0  0
  -24.6388  -11.6899   20.8752 C   0  0  0  0  0  0
  -23.9057  -10.4281   21.0423 C   0  0  0  0  0  0
  -24.3612   -9.4195   21.9195 C   0  0  0  0  0  0
  -23.6293   -8.2232   22.0762 C   0  0  0  0  0  0
  -22.4282   -8.0273   21.3550 C   0  0  0  0  0  0
  -21.9915   -9.0237   20.4641 C   0  0  0  0  0  0
  -22.7233  -10.2122   20.3057 C   0  0  0  0  0  0
  -21.6851   -6.0735   22.5282 C   0  0  0  0  0  0
  -21.4001   -6.5640   23.8213 C   0  0  0  0  0  0
  -21.3661   -5.6795   24.9173 C   0  0  0  0  0  0
  -21.6050   -4.3058   24.7225 C   0  0  0  0  0  0
  -21.8822   -3.8149   23.4347 C   0  0  0  0  0  0
  -21.9184   -4.6962   22.3399 C   0  0  0  0  0  0
  -22.7844  -13.5226   21.1853 C   0  0  0  0  0  0
  -22.1663   -4.2147   21.0977 F   0  0  0  0  0  0
  -21.5629   -3.4540   25.7735 F   0  0  0  0  0  0
  -30.0118  -13.4218   20.4338 N   0  0  0  0  0  0
  -26.2978  -12.9347   20.3311 N   0  0  0  0  0  0
  -25.9318  -11.6504   20.5767 N   0  0  0  0  0  0
  -22.0487  -12.8223   22.0419 N   0  0  0  0  0  0
  -25.4163  -15.1859   20.3916 N   0  0  0  0  0  0
  -31.7822  -14.8048   20.1165 O   0  0  0  0  0  0
  -21.6640   -6.8877   21.4252 O   0  0  0  0  0  0
  -22.3525  -14.5526   20.6687 O   0  0  0  0  0  0
  -24.6274  -31.8602   23.2032 C   0  0  0  0  0  0
  -25.9116  -32.4778   23.8362 C   0  0  1  0  0  0
  -27.2274  -27.3196   20.1016 C   0  0  0  0  0  0
  -25.5936  -33.8580   24.2284 N   0  0  0  0  0  0
  -23.4201  -30.4852   21.5474 C   0  0  2  0  0  0
  -24.8648  -28.9408   20.1151 C   0  0  0  0  0  0
  -22.7467  -29.4637   22.4951 C   0  0  0  0  0  0
  -18.0281  -28.1390   22.8492 C   0  0  0  0  0  0
  -24.1493  -36.7290   23.2643 C   0  0  0  0  0  0
  -25.9634  -30.7900   21.3745 C   0  0  0  0  0  0
  -26.0376  -29.4187   20.7132 C   0  0  0  0  0  0
  -27.2223  -28.6214   20.6942 C   0  0  0  0  0  0
  -26.0233  -26.8946   19.4902 C   0  0  0  0  0  0
  -24.8596  -27.6832   19.4970 C   0  0  0  0  0  0
  -23.6331  -29.8199   20.1643 C   0  0  0  0  0  0
  -25.4125  -36.3087   24.0328 C   0  0  1  0  0  0
  -20.5879  -28.3693   23.1288 C   0  0  2  0  0  0
  -20.6771  -26.9418   22.5405 C   0  0  0  0  0  0
  -19.5743  -26.6393   21.5212 C   0  0  0  0  0  0
  -18.1925  -26.7939   22.1626 C   0  0  0  0  0  0
  -19.1533  -28.8858   23.2885 C   0  0  0  0  0  0
  -18.9457  -30.1468   23.8890 C   0  0  0  0  0  0
  -17.6456  -30.6593   24.0560 C   0  0  0  0  0  0
  -25.9057  -34.9451   23.5103 C   0  0  0  0  0  0
  -16.5350  -29.9089   23.6339 C   0  0  0  0  0  0
  -16.7269  -28.6509   23.0362 C   0  0  0  0  0  0
  -26.4499  -31.6584   25.0730 C   0  0  0  0  0  0
  -25.3737  -31.3708   26.1452 C   0  0  0  0  0  0
  -27.0352  -30.3012   24.6189 C   0  0  0  0  0  0
  -27.6047  -32.4324   25.7516 C   0  0  0  0  0  0
  -27.5574  -37.1825   24.8477 C   0  0  0  0  0  0
  -21.4181  -29.3055   22.3684 N   0  0  0  0  0  0
  -26.4308  -37.3775   23.9385 N   0  0  0  0  0  0
  -24.6894  -31.0611   22.0982 N   0  0  0  0  0  0
  -23.4186  -28.8177   23.3032 O   0  0  0  0  0  0
  -28.3530  -26.4741   20.1261 O   0  0  0  0  0  0
  -26.5616  -34.8914   22.4662 O   0  0  0  0  0  0
  -23.5433  -32.1396   23.7357 O   0  0  0  0  0  0
  -30.9540  -17.8249   20.0137 C   0  0  0  0  0  0
  -30.9708  -19.2401   19.8401 C   0  0  0  0  0  0
  -28.8389  -19.4237   20.9153 C   0  0  0  0  0  0
  -28.8203  -18.0063   21.1206 C   0  0  0  0  0  0
  -29.8813  -17.1572   20.6628 C   0  0  0  0  0  0
  -29.9196  -20.0861   20.2784 C   0  0  0  0  0  0
  -27.6239  -17.4435   21.8753 C   0  0  0  0  0  0
  -29.3210  -23.9750   20.1670 C   0  0  0  0  0  0
  -28.1184  -25.0096   20.0758 C   0  0  0  0  0  0
  -28.9470  -22.4276   20.3207 C   0  0  0  0  0  0
  -29.8047  -15.7010   20.8500 N   0  0  0  0  0  0
  -30.0373  -21.4796   20.0791 O   0  0  0  0  0  0
  -31.4795  -12.5250   19.1574 H   0  0  0  0  0  0
  -30.3780  -11.4044   19.9054 H   0  0  0  0  0  0
  -29.7769  -11.7538   17.4860 H   0  0  0  0  0  0
  -29.6515  -13.4762   17.7467 H   0  0  0  0  0  0
  -27.8678  -11.2919   18.8685 H   0  0  0  0  0  0
  -27.3813  -12.5749   17.7943 H   0  0  0  0  0  0
  -27.6692  -14.2520   19.5217 H   0  0  0  0  0  0
  -28.7081  -12.0522   21.3737 H   0  0  0  0  0  0
  -28.4379  -13.7042   21.8477 H   0  0  0  0  0  0
  -25.2752   -9.5679   22.4773 H   0  0  0  0  0  0
  -23.9994   -7.4626   22.7492 H   0  0  0  0  0  0
  -21.0851   -8.8748   19.8945 H   0  0  0  0  0  0
  -22.3689  -10.9663   19.6168 H   0  0  0  0  0  0
  -21.2000   -7.6152   23.9713 H   0  0  0  0  0  0
  -21.1491   -6.0529   25.9077 H   0  0  0  0  0  0
  -22.0605   -2.7612   23.2843 H   0  0  0  0  0  0
  -22.4109  -11.9879   22.4794 H   0  0  0  0  0  0
  -21.1105  -13.1251   22.2640 H   0  0  0  0  0  0
  -24.6277  -15.8205   20.4508 H   0  0  0  0  0  0
  -26.2388  -15.6171   19.9905 H   0  0  0  0  0  0
  -26.7187  -32.5450   23.1113 H   0  0  0  0  0  0
  -25.0094  -33.9732   25.0436 H   0  0  0  0  0  0
  -22.7143  -31.3059   21.4038 H   0  0  0  0  0  0
  -23.3738  -35.9646   23.3375 H   0  0  0  0  0  0
  -24.3552  -36.8832   22.2038 H   0  0  0  0  0  0
  -23.7278  -37.6529   23.6617 H   0  0  0  0  0  0
  -26.0951  -31.5552   20.6086 H   0  0  0  0  0  0
  -26.8436  -30.8359   22.0041 H   0  0  0  0  0  0
  -28.1241  -28.9872   21.1652 H   0  0  0  0  0  0
  -25.9393  -25.9395   18.9974 H   0  0  0  0  0  0
  -23.9603  -27.3082   19.0280 H   0  0  0  0  0  0
  -23.7493  -30.5942   19.4057 H   0  0  0  0  0  0
  -22.7541  -29.2477   19.8643 H   0  0  0  0  0  0
  -25.1313  -36.1952   25.0826 H   0  0  0  0  0  0
  -20.9972  -28.3267   24.1410 H   0  0  0  0  0  0
  -20.5692  -26.2299   23.3599 H   0  0  0  0  0  0
  -21.6638  -26.7460   22.1191 H   0  0  0  0  0  0
  -19.6906  -25.6306   21.1239 H   0  0  0  0  0  0
  -19.6684  -27.3204   20.6743 H   0  0  0  0  0  0
  -17.4195  -26.6694   21.4024 H   0  0  0  0  0  0
  -18.0319  -26.0080   22.9018 H   0  0  0  0  0  0
  -19.7933  -30.7290   24.2251 H   0  0  0  0  0  0
  -17.5013  -31.6276   24.5161 H   0  0  0  0  0  0
  -15.5350  -30.2990   23.7677 H   0  0  0  0  0  0
  -15.8673  -28.0833   22.7079 H   0  0  0  0  0  0
  -24.5911  -30.7064   25.7771 H   0  0  0  0  0  0
  -24.8932  -32.2868   26.4899 H   0  0  0  0  0  0
  -25.8067  -30.8866   27.0213 H   0  0  0  0  0  0
  -26.2931  -29.6758   24.1215 H   0  0  0  0  0  0
  -27.4044  -29.7274   25.4700 H   0  0  0  0  0  0
  -27.8799  -30.4299   23.9419 H   0  0  0  0  0  0
  -27.2648  -33.3629   26.2080 H   0  0  0  0  0  0
  -28.3878  -32.6876   25.0362 H   0  0  0  0  0  0
  -28.0694  -31.8451   26.5451 H   0  0  0  0  0  0
  -28.2642  -38.0070   24.7452 H   0  0  0  0  0  0
  -28.1022  -36.2594   24.6426 H   0  0  0  0  0  0
  -27.2266  -37.1619   25.8876 H   0  0  0  0  0  0
  -20.9356  -29.8774   21.6892 H   0  0  0  0  0  0
  -26.0196  -38.2863   24.1337 H   0  0  0  0  0  0
  -31.7930  -17.2614   19.6326 H   0  0  0  0  0  0
  -31.8233  -19.6860   19.3465 H   0  0  0  0  0  0
  -28.0049  -20.0089   21.2764 H   0  0  0  0  0  0
  -27.6420  -17.7941   22.9081 H   0  0  0  0  0  0
  -27.5886  -16.3566   21.9028 H   0  0  0  0  0  0
  -26.6918  -17.7886   21.4268 H   0  0  0  0  0  0
  -29.9710  -24.2563   20.9951 H   0  0  0  0  0  0
  -29.9265  -24.0917   19.2677 H   0  0  0  0  0  0
  -27.4107  -24.7667   20.8693 H   0  0  0  0  0  0
  -27.6274  -24.7649   19.1361 H   0  0  0  0  0  0
  -28.1426  -22.1885   19.6244 H   0  0  0  0  0  0
  -28.5494  -22.2680   21.3227 H   0  0  0  0  0  0
  -28.9150  -15.3853   21.2027 H   0  0  0  0  0  0
  1 25  1  0  0  0
  1 30  2  0  0  0
  1 81  1  0  0  0
  2  3  1  0  0  0
  2 25  1  0  0  0
  2 83  1  0  0  0
  2 84  1  0  0  0
  3  4  1  0  0  0
  3 85  1  0  0  0
  3 86  1  0  0  0
  4  5  1  0  0  0
  4 87  1  0  0  0
  4 88  1  0  0  0
  5  6  1  0  0  0
  5 26  1  0  0  0
  5 89  1  0  0  0
  6 25  1  0  0  0
  6 90  1  0  0  0
  6 91  1  0  0  0
  7  8  2  0  0  0
  7 26  1  0  0  0
  7 29  1  0  0  0
  8  9  1  0  0  0
  8 22  1  0  0  0
  9 10  1  0  0  0
  9 27  2  0  0  0
 10 11  2  0  0  0
 10 15  1  0  0  0
 11 12  1  0  0  0
 11 92  1  0  0  0
 12 13  2  0  0  0
 12 93  1  0  0  0
 13 14  1  0  0  0
 13 31  1  0  0  0
 14 15  2  0  0  0
 14 94  1  0  0  0
 15 95  1  0  0  0
 16 17  2  0  0  0
 16 21  1  0  0  0
 16 31  1  0  0  0
 17 18  1  0  0  0
 17 96  1  0  0  0
 18 19  2  0  0  0
 18 97  1  0  0  0
 19 20  1  0  0  0
 19 24  1  0  0  0
 20 21  2  0  0  0
 20 98  1  0  0  0
 21 23  1  0  0  0
 22 28  1  0  0  0
 22 32  2  0  0  0
 26 27  1  0  0  0
 28 99  1  0  0  0
 28100  1  0  0  0
 29101  1  0  0  0
 29102  1  0  0  0
 33 34  1  0  0  0
 33 66  1  0  0  0
 33 70  2  0  0  0
 34 36  1  0  0  0
 34 59  1  0  0  0
 34103  1  0  0  0
 35 44  2  0  0  0
 35 45  1  0  0  0
 35 68  1  0  0  0
 36 56  1  0  0  0
 36104  1  0  0  0
 37 39  1  0  0  0
 37 47  1  0  0  0
 37 66  1  0  0  0
 37105  1  0  0  0
 38 43  2  0  0  0
 38 46  1  0  0  0
 38 47  1  0  0  0
 39 64  1  0  0  0
 39 67  2  0  0  0
 40 52  1  0  0  0
 40 53  2  0  0  0
 40 58  1  0  0  0
 41106  1  0  0  0
 41107  1  0  0  0
 41108  1  0  0  0
 41 48  1  0  0  0
 42 43  1  0  0  0
 42 66  1  0  0  0
 42109  1  0  0  0
 42110  1  0  0  0
 43 44  1  0  0  0
 44111  1  0  0  0
 45 46  2  0  0  0
 45112  1  0  0  0
 46113  1  0  0  0
 47114  1  0  0  0
 47115  1  0  0  0
 48 56  1  0  0  0
 48 65  1  0  0  0
 48116  1  0  0  0
 49 50  1  0  0  0
 49 53  1  0  0  0
 49 64  1  0  0  0
 49117  1  0  0  0
 50 51  1  0  0  0
 50118  1  0  0  0
 50119  1  0  0  0
 51 52  1  0  0  0
 51120  1  0  0  0
 51121  1  0  0  0
 52122  1  0  0  0
 52123  1  0  0  0
 53 54  1  0  0  0
 54 55  2  0  0  0
 54124  1  0  0  0
 55 57  1  0  0  0
 55125  1  0  0  0
 56 69  2  0  0  0
 57 58  2  0  0  0
 57126  1  0  0  0
 58127  1  0  0  0
 59 60  1  0  0  0
 59 61  1  0  0  0
 59 62  1  0  0  0
 60128  1  0  0  0
 60129  1  0  0  0
 60130  1  0  0  0
 61131  1  0  0  0
 61132  1  0  0  0
 61133  1  0  0  0
 62134  1  0  0  0
 62135  1  0  0  0
 62136  1  0  0  0
 63 65  1  0  0  0
 63137  1  0  0  0
 63138  1  0  0  0
 63139  1  0  0  0
 64140  1  0  0  0
 65141  1  0  0  0
 68 79  1  0  0  0
 71 72  2  0  0  0
 71 75  1  0  0  0
 71142  1  0  0  0
 72 76  1  0  0  0
 72143  1  0  0  0
 73 74  1  0  0  0
 73 76  2  0  0  0
 73144  1  0  0  0
 74 75  2  0  0  0
 74 77  1  0  0  0
 75 81  1  0  0  0
 76 82  1  0  0  0
 77145  1  0  0  0
 77146  1  0  0  0
 77147  1  0  0  0
 78 79  1  0  0  0
 78 80  1  0  0  0
 78148  1  0  0  0
 78149  1  0  0  0
 79150  1  0  0  0
 79151  1  0  0  0
 80 82  1  0  0  0
 80152  1  0  0  0
 80153  1  0  0  0
 81154  1  0  0  0
M  ISO  4   1 100  68 101  79 101  81 100
M  END
> <chiral flag>
0

> <version>
0

> <s_m_source_file>
/data/baiqing/PycharmProjects/Reinvent-master-3.2/result/LINK_invent/BTK/process_docking_weight1_custom_sum_contain_oxygen_bond_distance_aromatic_linkinvent_7_9_3/rearranged_h_0006.sdf

> <i_m_source_file_index>
71

> <r_mmod_Potential_Energy-OPLS-2005>
29.8173980712891

> <r_mmod_Stretch_Energy-OPLS-2005>
81.5429916381836

> <r_mmod_Bend_Energy-OPLS-2005>
147.244522094727

> <r_mmod_Torsional_Energy-OPLS-2005>
211.792221069336

> <r_mmod_Improper_Torsional_Energy-OPLS-2005>
4.24478101730347

> <r_mmod_Van_der_Waal_Energy-OPLS-2005>
146.27131652832

> <r_mmod_Electrostatic_Energy-OPLS-2005>
-400.451019287109

> <r_mmod_Solvation_Energy-OPLS-2005>
-209.970321655273

> <b_mmod_Minimization_Converged-OPLS-2005>
0

> <r_mmod_RMS_Derivative-OPLS-2005>
1.8660671710968

$$$$
71
                    3D
 Structure written by MMmdl.
153160  0  0  1  0            999 V2000
  -30.5461  -14.9478   20.4134 C   0  0  0  0  0  0
  -30.4403  -12.5884   19.4917 C   0  0  0  0  0  0
  -29.5189  -12.5222   18.2518 C   0  0  0  0  0  0
  -28.0545  -12.3053   18.6764 C   0  0  0  0  0  0
  -27.6291  -13.2460   19.8342 C   0  0  2  0  0  0
  -28.6730  -13.2796   20.9706 C   0  0  0  0  0  0
  -25.2465  -13.8206   20.5703 C   0  0  0  0  0  0
  -24.1784  -13.0433   20.9225 C   0  0  0  0  0  0
  -24.6390  -11.6918   20.8754 C   0  0  0  0  0  0
  -23.9070  -10.4290   21.0411 C   0  0  0  0  0  0
  -24.3623   -9.4204   21.9185 C   0  0  0  0  0  0
  -23.6294   -8.2243   22.0759 C   0  0  0  0  0  0
  -22.4277   -8.0280   21.3547 C   0  0  0  0  0  0
  -21.9912   -9.0252   20.4648 C   0  0  0  0  0  0
  -22.7245  -10.2130   20.3058 C   0  0  0  0  0  0
  -21.6854   -6.0735   22.5279 C   0  0  0  0  0  0
  -21.4011   -6.5639   23.8212 C   0  0  0  0  0  0
  -21.3662   -5.6792   24.9173 C   0  0  0  0  0  0
  -21.6048   -4.3053   24.7223 C   0  0  0  0  0  0
  -21.8820   -3.8147   23.4344 C   0  0  0  0  0  0
  -21.9191   -4.6963   22.3401 C   0  0  0  0  0  0
  -22.7803  -13.5202   21.1871 C   0  0  0  0  0  0
  -22.1656   -4.2148   21.0977 F   0  0  0  0  0  0
  -21.5632   -3.4538   25.7735 F   0  0  0  0  0  0
  -29.9466  -13.6902   20.3672 N   0  0  0  0  0  0
  -26.2884  -12.9436   20.3232 N   0  0  0  0  0  0
  -25.9323  -11.6569   20.5736 N   0  0  0  0  0  0
  -22.0443  -12.8208   22.0430 N   0  0  0  0  0  0
  -25.4131  -15.1936   20.4113 N   0  0  0  0  0  0
  -31.7537  -15.0050   20.1596 O   0  0  0  0  0  0
  -21.6641   -6.8882   21.4243 O   0  0  0  0  0  0
  -22.3491  -14.5499   20.6694 O   0  0  0  0  0  0
  -24.6441  -31.8420   23.1867 C   0  0  0  0  0  0
  -25.9209  -32.4684   23.8259 C   0  0  1  0  0  0
  -27.2193  -27.1266   20.1518 C   0  0  0  0  0  0
  -25.5957  -33.8492   24.2178 N   0  0  0  0  0  0
  -23.4490  -30.4594   21.5324 C   0  0  2  0  0  0
  -24.8992  -28.8836   20.1095 C   0  0  0  0  0  0
  -22.7575  -29.4529   22.4860 C   0  0  0  0  0  0
  -18.0302  -28.1394   22.8468 C   0  0  0  0  0  0
  -24.1490  -36.7251   23.2641 C   0  0  0  0  0  0
  -26.0050  -30.7122   21.3872 C   0  0  0  0  0  0
  -26.0765  -29.3223   20.7289 C   0  0  0  0  0  0
  -27.2372  -28.4601   20.7323 C   0  0  0  0  0  0
  -26.0166  -26.7919   19.4920 C   0  0  0  0  0  0
  -24.8824  -27.6322   19.4751 C   0  0  0  0  0  0
  -23.6759  -29.7860   20.1527 C   0  0  0  0  0  0
  -25.4125  -36.3024   24.0311 C   0  0  1  0  0  0
  -20.5913  -28.3713   23.1232 C   0  0  2  0  0  0
  -20.6785  -26.9417   22.5399 C   0  0  0  0  0  0
  -19.5761  -26.6380   21.5204 C   0  0  0  0  0  0
  -18.1942  -26.7931   22.1614 C   0  0  0  0  0  0
  -19.1560  -28.8872   23.2838 C   0  0  0  0  0  0
  -18.9478  -30.1469   23.8862 C   0  0  0  0  0  0
  -17.6475  -30.6589   24.0553 C   0  0  0  0  0  0
  -25.9076  -34.9401   23.5053 C   0  0  0  0  0  0
  -16.5364  -29.9079   23.6341 C   0  0  0  0  0  0
  -16.7287  -28.6500   23.0356 C   0  0  0  0  0  0
  -26.4531  -31.6561   25.0710 C   0  0  0  0  0  0
  -25.3715  -31.3758   26.1406 C   0  0  0  0  0  0
  -27.0408  -30.2958   24.6308 C   0  0  0  0  0  0
  -27.6052  -32.4341   25.7503 C   0  0  0  0  0  0
  -27.5574  -37.1783   24.8465 C   0  0  0  0  0  0
  -21.4263  -29.3039   22.3610 N   0  0  0  0  0  0
  -26.4286  -37.3741   23.9406 N   0  0  0  0  0  0
  -24.7191  -31.0260   22.0908 N   0  0  0  0  0  0
  -23.4214  -28.8086   23.3023 O   0  0  0  0  0  0
  -28.2698  -26.1370   20.2270 O   0  0  0  0  0  0
  -26.5661  -34.8897   22.4631 O   0  0  0  0  0  0
  -23.5558  -32.1303   23.7083 O   0  0  0  0  0  0
  -29.5347  -20.6042   20.4462 C   0  0  0  0  0  0
  -29.3678  -23.5141   21.9662 C   0  0  0  0  0  0
  -27.3267  -21.4715   19.8147 C   0  0  0  0  0  0
  -29.1046  -18.9967   20.3325 C   0  0  0  0  0  0
  -30.1659  -17.6807   20.4841 C   0  0  0  0  0  0
  -27.9964  -24.6054   20.0636 C   0  0  0  0  0  0
  -29.0074  -23.3065   20.4852 C   0  0  2  0  0  0
  -29.7755  -16.1406   20.5341 N   0  0  0  0  0  0
  -28.6870  -21.7513   20.2722 N   0  0  0  0  0  0
  -30.7196  -20.7980   20.7253 O   0  0  0  0  0  0
  -31.4727  -12.7474   19.1761 H   0  0  0  0  0  0
  -30.4374  -11.6394   20.0295 H   0  0  0  0  0  0
  -29.8386  -11.7219   17.5827 H   0  0  0  0  0  0
  -29.6032  -13.4494   17.6826 H   0  0  0  0  0  0
  -27.9585  -11.2669   18.9957 H   0  0  0  0  0  0
  -27.3878  -12.4233   17.8219 H   0  0  0  0  0  0
  -27.5900  -14.2450   19.3988 H   0  0  0  0  0  0
  -28.7628  -12.3054   21.4535 H   0  0  0  0  0  0
  -28.3735  -13.9857   21.7469 H   0  0  0  0  0  0
  -25.2767   -9.5680   22.4765 H   0  0  0  0  0  0
  -24.0001   -7.4635   22.7481 H   0  0  0  0  0  0
  -21.0850   -8.8768   19.8948 H   0  0  0  0  0  0
  -22.3703  -10.9668   19.6168 H   0  0  0  0  0  0
  -21.1999   -7.6145   23.9713 H   0  0  0  0  0  0
  -21.1487   -6.0520   25.9075 H   0  0  0  0  0  0
  -22.0599   -2.7609   23.2842 H   0  0  0  0  0  0
  -22.4045  -11.9885   22.4866 H   0  0  0  0  0  0
  -21.1052  -13.1241   22.2589 H   0  0  0  0  0  0
  -24.6429  -15.8442   20.5209 H   0  0  0  0  0  0
  -26.2519  -15.6328   20.0561 H   0  0  0  0  0  0
  -26.7273  -32.5286   23.0985 H   0  0  0  0  0  0
  -25.0103  -33.9607   25.0325 H   0  0  0  0  0  0
  -22.7516  -31.2854   21.3759 H   0  0  0  0  0  0
  -23.3756  -35.9577   23.3291 H   0  0  0  0  0  0
  -24.3577  -36.8901   22.2059 H   0  0  0  0  0  0
  -23.7242  -37.6441   23.6691 H   0  0  0  0  0  0
  -26.1624  -31.4664   20.6148 H   0  0  0  0  0  0
  -26.8752  -30.7628   22.0301 H   0  0  0  0  0  0
  -28.1335  -28.7907   21.2389 H   0  0  0  0  0  0
  -25.9215  -25.8354   18.9997 H   0  0  0  0  0  0
  -23.9847  -27.2913   18.9777 H   0  0  0  0  0  0
  -23.8107  -30.5588   19.3952 H   0  0  0  0  0  0
  -22.7910  -29.2261   19.8446 H   0  0  0  0  0  0
  -25.1316  -36.1846   25.0803 H   0  0  0  0  0  0
  -20.9994  -28.3295   24.1358 H   0  0  0  0  0  0
  -20.5666  -26.2329   23.3616 H   0  0  0  0  0  0
  -21.6653  -26.7417   22.1203 H   0  0  0  0  0  0
  -19.6923  -25.6287   21.1245 H   0  0  0  0  0  0
  -19.6698  -27.3176   20.6721 H   0  0  0  0  0  0
  -17.4211  -26.6666   21.4018 H   0  0  0  0  0  0
  -18.0340  -26.0083   22.9017 H   0  0  0  0  0  0
  -19.7956  -30.7293   24.2214 H   0  0  0  0  0  0
  -17.5032  -31.6266   24.5161 H   0  0  0  0  0  0
  -15.5364  -30.2968   23.7695 H   0  0  0  0  0  0
  -15.8686  -28.0810   22.7090 H   0  0  0  0  0  0
  -24.5893  -30.7107   25.7732 H   0  0  0  0  0  0
  -24.8905  -32.2941   26.4781 H   0  0  0  0  0  0
  -25.7996  -30.8965   27.0219 H   0  0  0  0  0  0
  -26.3033  -29.6671   24.1307 H   0  0  0  0  0  0
  -27.4010  -29.7270   25.4891 H   0  0  0  0  0  0
  -27.8942  -30.4203   23.9641 H   0  0  0  0  0  0
  -27.2635  -33.3660   26.2022 H   0  0  0  0  0  0
  -28.3894  -32.6878   25.0357 H   0  0  0  0  0  0
  -28.0686  -31.8509   26.5471 H   0  0  0  0  0  0
  -28.2583  -38.0087   24.7514 H   0  0  0  0  0  0
  -28.1078  -36.2616   24.6291 H   0  0  0  0  0  0
  -27.2290  -37.1430   25.8868 H   0  0  0  0  0  0
  -20.9477  -29.8762   21.6792 H   0  0  0  0  0  0
  -26.0147  -38.2805   24.1416 H   0  0  0  0  0  0
  -30.1715  -22.8545   22.2934 H   0  0  0  0  0  0
  -28.5049  -23.3309   22.6071 H   0  0  0  0  0  0
  -29.6988  -24.5379   22.1458 H   0  0  0  0  0  0
  -26.6973  -22.3563   19.7609 H   0  0  0  0  0  0
  -26.8271  -20.7724   20.4867 H   0  0  0  0  0  0
  -27.3465  -21.0294   18.8179 H   0  0  0  0  0  0
  -28.6000  -18.8921   19.3729 H   0  0  0  0  0  0
  -28.3221  -18.8594   21.0777 H   0  0  0  0  0  0
  -30.7465  -17.8563   21.3905 H   0  0  0  0  0  0
  -30.8953  -17.7749   19.6788 H   0  0  0  0  0  0
  -27.7570  -24.4664   19.0089 H   0  0  0  0  0  0
  -27.0608  -24.4362   20.5975 H   0  0  0  0  0  0
  -29.9234  -23.4638   19.9139 H   0  0  0  0  0  0
  -28.7929  -15.9663   20.6834 H   0  0  0  0  0  0
  1 25  1  0  0  0
  1 30  2  0  0  0
  1 78  1  0  0  0
  2  3  1  0  0  0
  2 25  1  0  0  0
  2 81  1  0  0  0
  2 82  1  0  0  0
  3  4  1  0  0  0
  3 83  1  0  0  0
  3 84  1  0  0  0
  4  5  1  0  0  0
  4 85  1  0  0  0
  4 86  1  0  0  0
  5  6  1  0  0  0
  5 26  1  0  0  0
  5 87  1  0  0  0
  6 25  1  0  0  0
  6 88  1  0  0  0
  6 89  1  0  0  0
  7  8  2  0  0  0
  7 26  1  0  0  0
  7 29  1  0  0  0
  8  9  1  0  0  0
  8 22  1  0  0  0
  9 10  1  0  0  0
  9 27  2  0  0  0
 10 11  2  0  0  0
 10 15  1  0  0  0
 11 12  1  0  0  0
 11 90  1  0  0  0
 12 13  2  0  0  0
 12 91  1  0  0  0
 13 14  1  0  0  0
 13 31  1  0  0  0
 14 15  2  0  0  0
 14 92  1  0  0  0
 15 93  1  0  0  0
 16 17  2  0  0  0
 16 21  1  0  0  0
 16 31  1  0  0  0
 17 18  1  0  0  0
 17 94  1  0  0  0
 18 19  2  0  0  0
 18 95  1  0  0  0
 19 20  1  0  0  0
 19 24  1  0  0  0
 20 21  2  0  0  0
 20 96  1  0  0  0
 21 23  1  0  0  0
 22 28  1  0  0  0
 22 32  2  0  0  0
 26 27  1  0  0  0
 28 97  1  0  0  0
 28 98  1  0  0  0
 29 99  1  0  0  0
 29100  1  0  0  0
 33 34  1  0  0  0
 33 66  1  0  0  0
 33 70  2  0  0  0
 34 36  1  0  0  0
 34 59  1  0  0  0
 34101  1  0  0  0
 35 44  2  0  0  0
 35 45  1  0  0  0
 35 68  1  0  0  0
 36 56  1  0  0  0
 36102  1  0  0  0
 37 39  1  0  0  0
 37 47  1  0  0  0
 37 66  1  0  0  0
 37103  1  0  0  0
 38 43  2  0  0  0
 38 46  1  0  0  0
 38 47  1  0  0  0
 39 64  1  0  0  0
 39 67  2  0  0  0
 40 52  1  0  0  0
 40 53  2  0  0  0
 40 58  1  0  0  0
 41104  1  0  0  0
 41105  1  0  0  0
 41106  1  0  0  0
 41 48  1  0  0  0
 42 43  1  0  0  0
 42 66  1  0  0  0
 42107  1  0  0  0
 42108  1  0  0  0
 43 44  1  0  0  0
 44109  1  0  0  0
 45 46  2  0  0  0
 45110  1  0  0  0
 46111  1  0  0  0
 47112  1  0  0  0
 47113  1  0  0  0
 48 56  1  0  0  0
 48 65  1  0  0  0
 48114  1  0  0  0
 49 50  1  0  0  0
 49 53  1  0  0  0
 49 64  1  0  0  0
 49115  1  0  0  0
 50 51  1  0  0  0
 50116  1  0  0  0
 50117  1  0  0  0
 51 52  1  0  0  0
 51118  1  0  0  0
 51119  1  0  0  0
 52120  1  0  0  0
 52121  1  0  0  0
 53 54  1  0  0  0
 54 55  2  0  0  0
 54122  1  0  0  0
 55 57  1  0  0  0
 55123  1  0  0  0
 56 69  2  0  0  0
 57 58  2  0  0  0
 57124  1  0  0  0
 58125  1  0  0  0
 59 60  1  0  0  0
 59 61  1  0  0  0
 59 62  1  0  0  0
 60126  1  0  0  0
 60127  1  0  0  0
 60128  1  0  0  0
 61129  1  0  0  0
 61130  1  0  0  0
 61131  1  0  0  0
 62132  1  0  0  0
 62133  1  0  0  0
 62134  1  0  0  0
 63 65  1  0  0  0
 63135  1  0  0  0
 63136  1  0  0  0
 63137  1  0  0  0
 64138  1  0  0  0
 65139  1  0  0  0
 68 76  1  0  0  0
 71 74  1  0  0  0
 71 79  1  0  0  0
 71 80  2  0  0  0
 72140  1  0  0  0
 72141  1  0  0  0
 72142  1  0  0  0
 72 77  1  0  0  0
 73 79  1  0  0  0
 73143  1  0  0  0
 73144  1  0  0  0
 73145  1  0  0  0
 74 75  1  0  0  0
 74146  1  0  0  0
 74147  1  0  0  0
 75 78  1  0  0  0
 75148  1  0  0  0
 75149  1  0  0  0
 76 77  1  0  0  0
 76150  1  0  0  0
 76151  1  0  0  0
 77 79  1  0  0  0
 77152  1  0  0  0
 78153  1  0  0  0
M  ISO  4   1 100  68 101  76 101  78 100
M  END
> <chiral flag>
0

> <version>
0

> <s_m_source_file>
/data/baiqing/PycharmProjects/Reinvent-master-3.2/result/LINK_invent/BTK/process_docking_weight1_custom_sum_contain_oxygen_bond_distance_aromatic_linkinvent_7_9_3/rearranged_h_0006.sdf

> <i_m_source_file_index>
72

> <r_mmod_Potential_Energy-OPLS-2005>
508.564575195312

> <r_mmod_Stretch_Energy-OPLS-2005>
286.248992919922

> <r_mmod_Bend_Energy-OPLS-2005>
254.779830932617

> <r_mmod_Torsional_Energy-OPLS-2005>
237.173156738281

> <r_mmod_Improper_Torsional_Energy-OPLS-2005>
4.37985324859619

> <r_mmod_Van_der_Waal_Energy-OPLS-2005>
115.706123352051

> <r_mmod_Electrostatic_Energy-OPLS-2005>
-344.805694580078

> <r_mmod_Solvation_Energy-OPLS-2005>
-242.278228759766

> <b_mmod_Minimization_Converged-OPLS-2005>
0

> <r_mmod_RMS_Derivative-OPLS-2005>
0.919537425041199

$$$$
72
                    3D
 Structure written by MMmdl.
170178  0  0  1  0            999 V2000
  -30.0484  -15.2585   20.7986 C   0  0  0  0  0  0
  -30.4185  -12.8912   19.6359 C   0  0  0  0  0  0
  -29.5510  -12.6532   18.3595 C   0  0  0  0  0  0
  -28.0912  -12.3193   18.7220 C   0  0  0  0  0  0
  -27.5892  -13.2351   19.8620 C   0  0  2  0  0  0
  -28.5461  -13.2380   21.0595 C   0  0  0  0  0  0
  -25.2237  -13.8152   20.5661 C   0  0  0  0  0  0
  -24.1593  -13.0394   20.9223 C   0  0  0  0  0  0
  -24.6199  -11.6876   20.8721 C   0  0  0  0  0  0
  -23.8946  -10.4265   21.0418 C   0  0  0  0  0  0
  -24.3554   -9.4202   21.9188 C   0  0  0  0  0  0
  -23.6261   -8.2221   22.0748 C   0  0  0  0  0  0
  -22.4243   -8.0251   21.3537 C   0  0  0  0  0  0
  -21.9845   -9.0209   20.4639 C   0  0  0  0  0  0
  -22.7138  -10.2101   20.3055 C   0  0  0  0  0  0
  -21.6853   -6.0717   22.5284 C   0  0  0  0  0  0
  -21.4014   -6.5632   23.8215 C   0  0  0  0  0  0
  -21.3644   -5.6785   24.9177 C   0  0  0  0  0  0
  -21.6037   -4.3048   24.7228 C   0  0  0  0  0  0
  -21.8828   -3.8137   23.4354 C   0  0  0  0  0  0
  -21.9200   -4.6949   22.3409 C   0  0  0  0  0  0
  -22.7663  -13.5207   21.1922 C   0  0  0  0  0  0
  -22.1675   -4.2141   21.0986 F   0  0  0  0  0  0
  -21.5619   -3.4534   25.7740 F   0  0  0  0  0  0
  -29.7469  -13.8869   20.5719 N   0  0  0  0  0  0
  -26.2506  -12.9302   20.3026 N   0  0  0  0  0  0
  -25.9064  -11.6460   20.5571 N   0  0  0  0  0  0
  -22.0336  -12.8186   22.0482 N   0  0  0  0  0  0
  -25.4001  -15.1879   20.4202 N   0  0  0  0  0  0
  -31.2223  -15.5128   20.4407 O   0  0  0  0  0  0
  -21.6630   -6.8841   21.4237 O   0  0  0  0  0  0
  -22.3371  -14.5525   20.6775 O   0  0  0  0  0  0
  -24.7452  -31.8508   23.2338 C   0  0  0  0  0  0
  -25.9850  -32.4974   23.8863 C   0  0  1  0  0  0
  -26.4772  -27.2882   20.1620 C   0  0  0  0  0  0
  -25.6259  -33.8713   24.2547 N   0  0  0  0  0  0
  -23.8172  -30.2710   21.5931 C   0  0  2  0  0  0
  -25.1836  -29.4670   19.6915 C   0  0  0  0  0  0
  -23.5863  -28.8110   22.4507 C   0  0  0  0  0  0
  -18.0800  -27.9901   22.7671 C   0  0  0  0  0  0
  -24.1492  -36.7305   23.2586 C   0  0  0  0  0  0
  -26.2325  -30.7776   21.5341 C   0  0  0  0  0  0
  -26.2176  -29.5671   20.6180 C   0  0  0  0  0  0
  -27.0473  -28.4493   20.7524 C   0  0  0  0  0  0
  -26.1004  -27.3820   18.8541 C   0  0  0  0  0  0
  -25.2202  -28.4693   18.6789 C   0  0  0  0  0  0
  -24.0595  -30.3528   20.0306 C   0  0  0  0  0  0
  -25.4108  -36.3137   24.0312 C   0  0  1  0  0  0
  -20.7720  -27.6109   23.0862 C   0  0  2  0  0  0
  -20.4874  -26.3303   22.3810 C   0  0  0  0  0  0
  -19.4245  -26.4663   21.3244 C   0  0  0  0  0  0
  -18.0891  -26.6991   22.0012 C   0  0  0  0  0  0
  -19.3057  -28.5066   23.2979 C   0  0  0  0  0  0
  -19.0083  -29.7067   24.0898 C   0  0  0  0  0  0
  -17.7716  -30.3988   24.1450 C   0  0  0  0  0  0
  -25.9103  -34.9506   23.5159 C   0  0  0  0  0  0
  -16.6380  -29.8253   23.5765 C   0  0  0  0  0  0
  -16.8036  -28.5984   22.9244 C   0  0  0  0  0  0
  -26.4899  -31.6830   25.1354 C   0  0  0  0  0  0
  -25.3882  -31.3906   26.1790 C   0  0  0  0  0  0
  -27.1171  -30.3276   24.7340 C   0  0  0  0  0  0
  -27.6183  -32.4764   25.8246 C   0  0  0  0  0  0
  -27.5572  -37.1839   24.8459 C   0  0  0  0  0  0
  -22.3707  -27.8786   22.5416 N   0  0  0  0  0  0
  -26.4284  -37.3829   23.9408 N   0  0  0  0  0  0
  -24.9271  -31.0100   22.1849 N   0  0  0  0  0  0
  -24.4784  -28.6258   23.2272 O   0  0  0  0  0  0
  -25.2112  -27.0499   20.7406 O   0  0  0  0  0  0
  -26.5553  -34.8903   22.4653 O   0  0  0  0  0  0
  -23.6323  -32.1295   23.7028 O   0  0  0  0  0  0
  -27.9030  -19.7119   23.4702 C   0  0  0  0  0  0
  -28.5781  -18.4528   22.9927 C   0  0  0  0  0  0
  -26.8364  -19.9203   21.4987 C   0  0  0  0  0  0
  -27.5010  -18.6465   20.9970 C   0  0  0  0  0  0
  -26.9372  -20.6038   22.7997 C   0  0  0  0  0  0
  -28.4753  -17.7583   21.7008 C   0  0  0  0  0  0
  -25.3119  -23.1398   23.2549 C   0  0  0  0  0  0
  -22.1378  -28.3845   20.0369 C   0  0  0  0  0  0
  -24.7361  -24.4826   24.3243 C   0  0  0  0  0  0
  -23.5382  -27.1321   20.2003 C   0  0  0  0  0  0
  -23.6393  -25.9750   24.1136 C   0  0  0  0  0  0
  -22.9589  -27.5577   24.9950 C   0  0  0  0  0  0
  -22.0586  -29.2862   24.4912 C   0  0  0  0  0  0
  -21.3724  -30.0920   22.7035 C   0  0  0  0  0  0
  -27.0921  -18.2743   19.5704 C   0  0  0  0  0  0
  -26.2263  -21.9576   23.4818 N   0  0  0  0  0  0
  -28.9856  -16.2122   21.3189 N   0  0  0  0  0  0
  -21.4058  -29.4164   20.9844 N   0  0  0  0  0  0
  -24.8571  -23.2194   22.1128 O   0  0  0  0  0  0
  -21.6535  -28.3744   18.9081 O   0  0  0  0  0  0
  -25.7854  -18.4721   19.3881 F   0  0  0  0  0  0
  -27.7544  -19.0553   18.7177 F   0  0  0  0  0  0
  -27.3478  -17.0050   19.2545 F   0  0  0  0  0  0
  -31.4066  -13.2477   19.3408 H   0  0  0  0  0  0
  -30.5952  -11.9489   20.1563 H   0  0  0  0  0  0
  -29.9812  -11.8628   17.7427 H   0  0  0  0  0  0
  -29.5668  -13.5586   17.7507 H   0  0  0  0  0  0
  -28.0506  -11.2783   19.0457 H   0  0  0  0  0  0
  -27.4472  -12.3981   17.8453 H   0  0  0  0  0  0
  -27.5566  -14.2398   19.4387 H   0  0  0  0  0  0
  -28.7382  -12.2268   21.4224 H   0  0  0  0  0  0
  -28.1195  -13.7828   21.9034 H   0  0  0  0  0  0
  -25.2699   -9.5715   22.4756 H   0  0  0  0  0  0
  -23.9999   -7.4613   22.7451 H   0  0  0  0  0  0
  -21.0783   -8.8700   19.8941 H   0  0  0  0  0  0
  -22.3583  -10.9639   19.6171 H   0  0  0  0  0  0
  -21.2015   -7.6145   23.9719 H   0  0  0  0  0  0
  -21.1450   -6.0513   25.9078 H   0  0  0  0  0  0
  -22.0620   -2.7603   23.2856 H   0  0  0  0  0  0
  -22.3964  -11.9829   22.4825 H   0  0  0  0  0  0
  -21.0965  -13.1210   22.2729 H   0  0  0  0  0  0
  -24.6080  -15.8150   20.4961 H   0  0  0  0  0  0
  -26.1764  -15.6034   19.9186 H   0  0  0  0  0  0
  -26.8157  -32.5594   23.1854 H   0  0  0  0  0  0
  -25.0479  -33.9850   25.0743 H   0  0  0  0  0  0
  -23.0970  -31.0632   21.5542 H   0  0  0  0  0  0
  -23.3765  -35.9628   23.3243 H   0  0  0  0  0  0
  -24.3610  -36.8917   22.2005 H   0  0  0  0  0  0
  -23.7211  -37.6500   23.6582 H   0  0  0  0  0  0
  -26.5052  -31.6587   20.9509 H   0  0  0  0  0  0
  -27.0449  -30.6196   22.2288 H   0  0  0  0  0  0
  -27.7529  -28.3831   21.5681 H   0  0  0  0  0  0
  -26.0073  -26.5144   18.2157 H   0  0  0  0  0  0
  -24.5029  -28.4650   17.8687 H   0  0  0  0  0  0
  -24.4195  -31.3596   19.8052 H   0  0  0  0  0  0
  -23.2371  -30.3828   19.3243 H   0  0  0  0  0  0
  -25.1252  -36.2032   25.0801 H   0  0  0  0  0  0
  -20.8192  -27.2250   24.0984 H   0  0  0  0  0  0
  -20.1370  -25.5898   23.1041 H   0  0  0  0  0  0
  -21.3654  -25.8526   21.9540 H   0  0  0  0  0  0
  -19.3737  -25.5464   20.7406 H   0  0  0  0  0  0
  -19.6411  -27.2671   20.6195 H   0  0  0  0  0  0
  -17.3065  -26.7136   21.2404 H   0  0  0  0  0  0
  -17.8423  -25.8800   22.6786 H   0  0  0  0  0  0
  -19.7452  -30.2469   24.6482 H   0  0  0  0  0  0
  -17.6900  -31.3276   24.6932 H   0  0  0  0  0  0
  -15.6681  -30.2965   23.6566 H   0  0  0  0  0  0
  -15.9299  -28.1254   22.4972 H   0  0  0  0  0  0
  -24.6600  -30.6703   25.8116 H   0  0  0  0  0  0
  -24.8495  -32.2936   26.4671 H   0  0  0  0  0  0
  -25.8083  -30.9642   27.0910 H   0  0  0  0  0  0
  -26.4295  -29.6792   24.2023 H   0  0  0  0  0  0
  -27.4303  -29.7701   25.6182 H   0  0  0  0  0  0
  -28.0158  -30.4580   24.1311 H   0  0  0  0  0  0
  -27.2549  -33.4029   26.2709 H   0  0  0  0  0  0
  -28.4077  -32.7426   25.1203 H   0  0  0  0  0  0
  -28.0801  -31.9043   26.6307 H   0  0  0  0  0  0
  -28.2577  -38.0150   24.7539 H   0  0  0  0  0  0
  -28.1084  -36.2683   24.6254 H   0  0  0  0  0  0
  -27.2293  -37.1456   25.8861 H   0  0  0  0  0  0
  -21.9802  -28.2901   21.6988 H   0  0  0  0  0  0
  -26.0164  -38.2897   24.1435 H   0  0  0  0  0  0
  -28.1549  -19.9933   24.4826 H   0  0  0  0  0  0
  -29.2038  -17.9646   23.7265 H   0  0  0  0  0  0
  -26.1645  -20.3958   20.7992 H   0  0  0  0  0  0
  -25.6680  -24.8857   24.7205 H   0  0  0  0  0  0
  -24.3047  -23.9450   25.1685 H   0  0  0  0  0  0
  -23.5387  -26.6560   19.2189 H   0  0  0  0  0  0
  -23.1028  -26.3127   20.7645 H   0  0  0  0  0  0
  -22.7238  -25.4959   23.7767 H   0  0  0  0  0  0
  -24.1092  -26.2958   23.1924 H   0  0  0  0  0  0
  -23.8161  -27.8997   25.5761 H   0  0  0  0  0  0
  -22.3205  -27.1522   25.7799 H   0  0  0  0  0  0
  -22.7744  -30.0323   24.8262 H   0  0  0  0  0  0
  -21.3430  -29.3940   25.2979 H   0  0  0  0  0  0
  -21.7003  -31.1165   22.8071 H   0  0  0  0  0  0
  -20.4264  -30.5999   22.6258 H   0  0  0  0  0  0
  -26.5205  -22.0260   24.4481 H   0  0  0  0  0  0
  -28.1847  -15.6091   21.4334 H   0  0  0  0  0  0
  -20.6816  -29.8762   20.4438 H   0  0  0  0  0  0
  1 25  1  0  0  0
  1 30  2  0  0  0
  1 87  1  0  0  0
  2  3  1  0  0  0
  2 25  1  0  0  0
  2 94  1  0  0  0
  2 95  1  0  0  0
  3  4  1  0  0  0
  3 96  1  0  0  0
  3 97  1  0  0  0
  4  5  1  0  0  0
  4 98  1  0  0  0
  4 99  1  0  0  0
  5  6  1  0  0  0
  5 26  1  0  0  0
  5100  1  0  0  0
  6 25  1  0  0  0
  6101  1  0  0  0
  6102  1  0  0  0
  7  8  2  0  0  0
  7 26  1  0  0  0
  7 29  1  0  0  0
  8  9  1  0  0  0
  8 22  1  0  0  0
  9 10  1  0  0  0
  9 27  2  0  0  0
 10 11  2  0  0  0
 10 15  1  0  0  0
 11 12  1  0  0  0
 11103  1  0  0  0
 12 13  2  0  0  0
 12104  1  0  0  0
 13 14  1  0  0  0
 13 31  1  0  0  0
 14 15  2  0  0  0
 14105  1  0  0  0
 15106  1  0  0  0
 16 17  2  0  0  0
 16 21  1  0  0  0
 16 31  1  0  0  0
 17 18  1  0  0  0
 17107  1  0  0  0
 18 19  2  0  0  0
 18108  1  0  0  0
 19 20  1  0  0  0
 19 24  1  0  0  0
 20 21  2  0  0  0
 20109  1  0  0  0
 21 23  1  0  0  0
 22 28  1  0  0  0
 22 32  2  0  0  0
 26 27  1  0  0  0
 28110  1  0  0  0
 28111  1  0  0  0
 29112  1  0  0  0
 29113  1  0  0  0
 33 34  1  0  0  0
 33 66  1  0  0  0
 33 70  2  0  0  0
 34 36  1  0  0  0
 34 59  1  0  0  0
 34114  1  0  0  0
 35 44  2  0  0  0
 35 45  1  0  0  0
 35 68  1  0  0  0
 36 56  1  0  0  0
 36115  1  0  0  0
 37 39  1  0  0  0
 37 47  1  0  0  0
 37 66  1  0  0  0
 37116  1  0  0  0
 38 43  2  0  0  0
 38 46  1  0  0  0
 38 47  1  0  0  0
 39 64  1  0  0  0
 39 67  2  0  0  0
 40 52  1  0  0  0
 40 53  2  0  0  0
 40 58  1  0  0  0
 41117  1  0  0  0
 41118  1  0  0  0
 41119  1  0  0  0
 41 48  1  0  0  0
 42 43  1  0  0  0
 42 66  1  0  0  0
 42120  1  0  0  0
 42121  1  0  0  0
 43 44  1  0  0  0
 44122  1  0  0  0
 45 46  2  0  0  0
 45123  1  0  0  0
 46124  1  0  0  0
 47125  1  0  0  0
 47126  1  0  0  0
 48 56  1  0  0  0
 48 65  1  0  0  0
 48127  1  0  0  0
 49 50  1  0  0  0
 49 53  1  0  0  0
 49 64  1  0  0  0
 49128  1  0  0  0
 50 51  1  0  0  0
 50129  1  0  0  0
 50130  1  0  0  0
 51 52  1  0  0  0
 51131  1  0  0  0
 51132  1  0  0  0
 52133  1  0  0  0
 52134  1  0  0  0
 53 54  1  0  0  0
 54 55  2  0  0  0
 54135  1  0  0  0
 55 57  1  0  0  0
 55136  1  0  0  0
 56 69  2  0  0  0
 57 58  2  0  0  0
 57137  1  0  0  0
 58138  1  0  0  0
 59 60  1  0  0  0
 59 61  1  0  0  0
 59 62  1  0  0  0
 60139  1  0  0  0
 60140  1  0  0  0
 60141  1  0  0  0
 61142  1  0  0  0
 61143  1  0  0  0
 61144  1  0  0  0
 62145  1  0  0  0
 62146  1  0  0  0
 62147  1  0  0  0
 63 65  1  0  0  0
 63148  1  0  0  0
 63149  1  0  0  0
 63150  1  0  0  0
 64151  1  0  0  0
 65152  1  0  0  0
 68 80  1  0  0  0
 71 72  2  0  0  0
 71 75  1  0  0  0
 71153  1  0  0  0
 72 76  1  0  0  0
 72154  1  0  0  0
 73 74  1  0  0  0
 73 75  2  0  0  0
 73155  1  0  0  0
 74 76  2  0  0  0
 74 85  1  0  0  0
 75 86  1  0  0  0
 76 87  1  0  0  0
 77 79  1  0  0  0
 77 86  1  0  0  0
 77 89  2  0  0  0
 78 80  1  0  0  0
 78 88  1  0  0  0
 78 90  2  0  0  0
 79 81  1  0  0  0
 79156  1  0  0  0
 79157  1  0  0  0
 80158  1  0  0  0
 80159  1  0  0  0
 81 82  1  0  0  0
 81160  1  0  0  0
 81161  1  0  0  0
 82 83  1  0  0  0
 82162  1  0  0  0
 82163  1  0  0  0
 83 84  1  0  0  0
 83164  1  0  0  0
 83165  1  0  0  0
 84 88  1  0  0  0
 84166  1  0  0  0
 84167  1  0  0  0
 85 91  1  0  0  0
 85 92  1  0  0  0
 85 93  1  0  0  0
 86168  1  0  0  0
 87169  1  0  0  0
 88170  1  0  0  0
M  ISO  4   1 100  68 101  80 101  87 100
M  END
> <chiral flag>
0

> <version>
0

> <s_m_source_file>
/data/baiqing/PycharmProjects/Reinvent-master-3.2/result/LINK_invent/BTK/process_docking_weight1_custom_sum_contain_oxygen_bond_distance_aromatic_linkinvent_7_9_3/rearranged_h_0006.sdf

> <i_m_source_file_index>
73

> <r_mmod_Potential_Energy-OPLS-2005>
7880.60302734375

> <r_mmod_Stretch_Energy-OPLS-2005>
2522.82153320312

> <r_mmod_Bend_Energy-OPLS-2005>
1514.25256347656

> <r_mmod_Torsional_Energy-OPLS-2005>
564.488037109375

> <r_mmod_Improper_Torsional_Energy-OPLS-2005>
50.1289710998535

> <r_mmod_Van_der_Waal_Energy-OPLS-2005>
1265.47131347656

> <r_mmod_Electrostatic_Energy-OPLS-2005>
-418.716217041016

> <r_mmod_Solvation_Energy-OPLS-2005>
-236.004058837891

> <b_mmod_Minimization_Converged-OPLS-2005>
0

> <r_mmod_RMS_Derivative-OPLS-2005>
1.63327240943909

$$$$
73
                    3D
 Structure written by MMmdl.
151159  0  0  1  0            999 V2000
  -30.5176  -15.0326   20.4586 C   0  0  0  0  0  0
  -30.4435  -12.6586   19.4990 C   0  0  0  0  0  0
  -29.5224  -12.5598   18.2576 C   0  0  0  0  0  0
  -28.0557  -12.3295   18.6685 C   0  0  0  0  0  0
  -27.6277  -13.2490   19.8400 C   0  0  2  0  0  0
  -28.6706  -13.2392   20.9716 C   0  0  0  0  0  0
  -25.2450  -13.8208   20.5698 C   0  0  0  0  0  0
  -24.1768  -13.0430   20.9208 C   0  0  0  0  0  0
  -24.6391  -11.6917   20.8742 C   0  0  0  0  0  0
  -23.9080  -10.4289   21.0408 C   0  0  0  0  0  0
  -24.3627   -9.4203   21.9188 C   0  0  0  0  0  0
  -23.6298   -8.2242   22.0756 C   0  0  0  0  0  0
  -22.4283   -8.0280   21.3543 C   0  0  0  0  0  0
  -21.9918   -9.0256   20.4649 C   0  0  0  0  0  0
  -22.7249  -10.2133   20.3060 C   0  0  0  0  0  0
  -21.6853   -6.0733   22.5273 C   0  0  0  0  0  0
  -21.4016   -6.5639   23.8203 C   0  0  0  0  0  0
  -21.3657   -5.6793   24.9166 C   0  0  0  0  0  0
  -21.6044   -4.3056   24.7218 C   0  0  0  0  0  0
  -21.8822   -3.8146   23.4340 C   0  0  0  0  0  0
  -21.9192   -4.6962   22.3395 C   0  0  0  0  0  0
  -22.7790  -13.5199   21.1870 C   0  0  0  0  0  0
  -22.1660   -4.2145   21.0974 F   0  0  0  0  0  0
  -21.5629   -3.4542   25.7733 F   0  0  0  0  0  0
  -29.9286  -13.7500   20.3930 N   0  0  0  0  0  0
  -26.2870  -12.9435   20.3234 N   0  0  0  0  0  0
  -25.9320  -11.6563   20.5719 N   0  0  0  0  0  0
  -22.0452  -12.8189   22.0437 N   0  0  0  0  0  0
  -25.4130  -15.1939   20.4141 N   0  0  0  0  0  0
  -31.7022  -15.0684   20.0990 O   0  0  0  0  0  0
  -21.6644   -6.8879   21.4236 O   0  0  0  0  0  0
  -22.3464  -14.5496   20.6711 O   0  0  0  0  0  0
  -24.6489  -31.8383   23.1834 C   0  0  0  0  0  0
  -25.9231  -32.4663   23.8240 C   0  0  1  0  0  0
  -27.2148  -27.0782   20.1627 C   0  0  0  0  0  0
  -25.5955  -33.8476   24.2147 N   0  0  0  0  0  0
  -23.4553  -30.4556   21.5312 C   0  0  2  0  0  0
  -24.9046  -28.8700   20.1143 C   0  0  0  0  0  0
  -22.7586  -29.4519   22.4849 C   0  0  0  0  0  0
  -18.0299  -28.1401   22.8463 C   0  0  0  0  0  0
  -24.1494  -36.7246   23.2643 C   0  0  0  0  0  0
  -26.0158  -30.6930   21.3912 C   0  0  0  0  0  0
  -26.0853  -29.2982   20.7346 C   0  0  0  0  0  0
  -27.2419  -28.4209   20.7365 C   0  0  0  0  0  0
  -26.0087  -26.7676   19.4980 C   0  0  0  0  0  0
  -24.8819  -27.6198   19.4793 C   0  0  0  0  0  0
  -23.6850  -29.7805   20.1532 C   0  0  0  0  0  0
  -25.4127  -36.3013   24.0308 C   0  0  1  0  0  0
  -20.5917  -28.3731   23.1222 C   0  0  2  0  0  0
  -20.6791  -26.9431   22.5407 C   0  0  0  0  0  0
  -19.5768  -26.6381   21.5214 C   0  0  0  0  0  0
  -18.1942  -26.7933   22.1615 C   0  0  0  0  0  0
  -19.1560  -28.8883   23.2827 C   0  0  0  0  0  0
  -18.9479  -30.1472   23.8860 C   0  0  0  0  0  0
  -17.6482  -30.6597   24.0553 C   0  0  0  0  0  0
  -25.9087  -34.9394   23.5044 C   0  0  0  0  0  0
  -16.5369  -29.9091   23.6341 C   0  0  0  0  0  0
  -16.7283  -28.6509   23.0356 C   0  0  0  0  0  0
  -26.4530  -31.6555   25.0709 C   0  0  0  0  0  0
  -25.3686  -31.3775   26.1391 C   0  0  0  0  0  0
  -27.0407  -30.2939   24.6351 C   0  0  0  0  0  0
  -27.6046  -32.4342   25.7496 C   0  0  0  0  0  0
  -27.5570  -37.1774   24.8459 C   0  0  0  0  0  0
  -21.4273  -29.3046   22.3590 N   0  0  0  0  0  0
  -26.4283  -37.3736   23.9406 N   0  0  0  0  0  0
  -24.7273  -31.0185   22.0901 N   0  0  0  0  0  0
  -23.4195  -28.8071   23.3029 O   0  0  0  0  0  0
  -28.2612  -26.0666   20.1938 O   0  0  0  0  0  0
  -26.5688  -34.8899   22.4632 O   0  0  0  0  0  0
  -23.5594  -32.1296   23.7015 O   0  0  0  0  0  0
  -30.8635  -17.9831   19.1884 C   0  0  0  0  0  0
  -31.0960  -19.2830   18.6763 C   0  0  0  0  0  0
  -29.2182  -18.9947   20.6381 C   0  0  0  0  0  0
  -29.9361  -17.7316   20.2240 C   0  0  0  0  0  0
  -29.4157  -20.3944   20.1195 C   0  0  0  0  0  0
  -30.4206  -20.4452   19.1220 C   0  0  0  0  0  0
  -29.0301  -16.2223   22.0156 C   0  0  0  0  0  0
  -27.9869  -24.5188   20.4119 C   0  0  0  0  0  0
  -28.9308  -23.1263   20.0494 C   0  0  0  0  0  0
  -29.7983  -16.2664   20.7671 N   0  0  0  0  0  0
  -28.7010  -21.6364   20.5212 O   0  0  0  0  0  0
  -30.7633  -21.6251   18.5546 F   0  0  0  0  0  0
  -31.4682  -12.8403   19.1735 H   0  0  0  0  0  0
  -30.4791  -11.7047   20.0274 H   0  0  0  0  0  0
  -29.8569  -11.7568   17.5991 H   0  0  0  0  0  0
  -29.5965  -13.4804   17.6765 H   0  0  0  0  0  0
  -27.9577  -11.2852   18.9676 H   0  0  0  0  0  0
  -27.3924  -12.4639   17.8132 H   0  0  0  0  0  0
  -27.5971  -14.2605   19.4338 H   0  0  0  0  0  0
  -28.7976  -12.2267   21.3583 H   0  0  0  0  0  0
  -28.3174  -13.8111   21.8215 H   0  0  0  0  0  0
  -25.2770   -9.5672   22.4763 H   0  0  0  0  0  0
  -23.9998   -7.4630   22.7478 H   0  0  0  0  0  0
  -21.0845   -8.8780   19.8956 H   0  0  0  0  0  0
  -22.3709  -10.9674   19.6171 H   0  0  0  0  0  0
  -21.2016   -7.6149   23.9701 H   0  0  0  0  0  0
  -21.1475   -6.0528   25.9066 H   0  0  0  0  0  0
  -22.0606   -2.7609   23.2842 H   0  0  0  0  0  0
  -22.4087  -11.9862   22.4834 H   0  0  0  0  0  0
  -21.1067  -13.1197   22.2648 H   0  0  0  0  0  0
  -24.6479  -15.8493   20.5294 H   0  0  0  0  0  0
  -26.2693  -15.6354   20.1036 H   0  0  0  0  0  0
  -26.7295  -32.5244   23.0957 H   0  0  0  0  0  0
  -25.0057  -33.9584   25.0266 H   0  0  0  0  0  0
  -22.7610  -31.2834   21.3704 H   0  0  0  0  0  0
  -23.3762  -35.9569   23.3293 H   0  0  0  0  0  0
  -24.3579  -36.8906   22.2061 H   0  0  0  0  0  0
  -23.7252  -37.6433   23.6705 H   0  0  0  0  0  0
  -26.1798  -31.4437   20.6168 H   0  0  0  0  0  0
  -26.8827  -30.7433   22.0382 H   0  0  0  0  0  0
  -28.1422  -28.7460   21.2379 H   0  0  0  0  0  0
  -25.9089  -25.8220   18.9869 H   0  0  0  0  0  0
  -23.9840  -27.2885   18.9762 H   0  0  0  0  0  0
  -23.8271  -30.5525   19.3963 H   0  0  0  0  0  0
  -22.7976  -29.2269   19.8406 H   0  0  0  0  0  0
  -25.1320  -36.1831   25.0799 H   0  0  0  0  0  0
  -20.9990  -28.3336   24.1351 H   0  0  0  0  0  0
  -20.5693  -26.2347   23.3633 H   0  0  0  0  0  0
  -21.6654  -26.7445   22.1202 H   0  0  0  0  0  0
  -19.6947  -25.6284   21.1264 H   0  0  0  0  0  0
  -19.6715  -27.3172   20.6729 H   0  0  0  0  0  0
  -17.4216  -26.6665   21.4013 H   0  0  0  0  0  0
  -18.0335  -26.0087   22.9023 H   0  0  0  0  0  0
  -19.7964  -30.7283   24.2221 H   0  0  0  0  0  0
  -17.5044  -31.6273   24.5162 H   0  0  0  0  0  0
  -15.5370  -30.2984   23.7697 H   0  0  0  0  0  0
  -15.8677  -28.0822   22.7099 H   0  0  0  0  0  0
  -24.5883  -30.7108   25.7708 H   0  0  0  0  0  0
  -24.8856  -32.2967   26.4717 H   0  0  0  0  0  0
  -25.7944  -30.9015   27.0234 H   0  0  0  0  0  0
  -26.3049  -29.6637   24.1347 H   0  0  0  0  0  0
  -27.3974  -29.7269   25.4960 H   0  0  0  0  0  0
  -27.8973  -30.4150   23.9715 H   0  0  0  0  0  0
  -27.2634  -33.3675   26.1987 H   0  0  0  0  0  0
  -28.3894  -32.6859   25.0347 H   0  0  0  0  0  0
  -28.0671  -31.8527   26.5481 H   0  0  0  0  0  0
  -28.2573  -38.0082   24.7507 H   0  0  0  0  0  0
  -28.1078  -36.2612   24.6283 H   0  0  0  0  0  0
  -27.2285  -37.1415   25.8860 H   0  0  0  0  0  0
  -20.9504  -29.8750   21.6750 H   0  0  0  0  0  0
  -26.0143  -38.2798   24.1417 H   0  0  0  0  0  0
  -31.4416  -17.1749   18.7666 H   0  0  0  0  0  0
  -31.8391  -19.3987   17.9011 H   0  0  0  0  0  0
  -28.4612  -18.8987   21.4012 H   0  0  0  0  0  0
  -27.9715  -16.0524   21.8185 H   0  0  0  0  0  0
  -29.1174  -17.1511   22.5769 H   0  0  0  0  0  0
  -29.3964  -15.4597   22.7057 H   0  0  0  0  0  0
  -27.8170  -24.4574   21.4868 H   0  0  0  0  0  0
  -27.0097  -24.2997   19.9887 H   0  0  0  0  0  0
  -29.9494  -23.3622   20.3581 H   0  0  0  0  0  0
  -28.9624  -23.0907   18.9609 H   0  0  0  0  0  0
  1 25  1  0  0  0
  1 30  2  0  0  0
  1 80  1  0  0  0
  2  3  1  0  0  0
  2 25  1  0  0  0
  2 83  1  0  0  0
  2 84  1  0  0  0
  3  4  1  0  0  0
  3 85  1  0  0  0
  3 86  1  0  0  0
  4  5  1  0  0  0
  4 87  1  0  0  0
  4 88  1  0  0  0
  5  6  1  0  0  0
  5 26  1  0  0  0
  5 89  1  0  0  0
  6 25  1  0  0  0
  6 90  1  0  0  0
  6 91  1  0  0  0
  7  8  2  0  0  0
  7 26  1  0  0  0
  7 29  1  0  0  0
  8  9  1  0  0  0
  8 22  1  0  0  0
  9 10  1  0  0  0
  9 27  2  0  0  0
 10 11  2  0  0  0
 10 15  1  0  0  0
 11 12  1  0  0  0
 11 92  1  0  0  0
 12 13  2  0  0  0
 12 93  1  0  0  0
 13 14  1  0  0  0
 13 31  1  0  0  0
 14 15  2  0  0  0
 14 94  1  0  0  0
 15 95  1  0  0  0
 16 17  2  0  0  0
 16 21  1  0  0  0
 16 31  1  0  0  0
 17 18  1  0  0  0
 17 96  1  0  0  0
 18 19  2  0  0  0
 18 97  1  0  0  0
 19 20  1  0  0  0
 19 24  1  0  0  0
 20 21  2  0  0  0
 20 98  1  0  0  0
 21 23  1  0  0  0
 22 28  1  0  0  0
 22 32  2  0  0  0
 26 27  1  0  0  0
 28 99  1  0  0  0
 28100  1  0  0  0
 29101  1  0  0  0
 29102  1  0  0  0
 33 34  1  0  0  0
 33 66  1  0  0  0
 33 70  2  0  0  0
 34 36  1  0  0  0
 34 59  1  0  0  0
 34103  1  0  0  0
 35 44  2  0  0  0
 35 45  1  0  0  0
 35 68  1  0  0  0
 36 56  1  0  0  0
 36104  1  0  0  0
 37 39  1  0  0  0
 37 47  1  0  0  0
 37 66  1  0  0  0
 37105  1  0  0  0
 38 43  2  0  0  0
 38 46  1  0  0  0
 38 47  1  0  0  0
 39 64  1  0  0  0
 39 67  2  0  0  0
 40 52  1  0  0  0
 40 53  2  0  0  0
 40 58  1  0  0  0
 41106  1  0  0  0
 41107  1  0  0  0
 41108  1  0  0  0
 41 48  1  0  0  0
 42 43  1  0  0  0
 42 66  1  0  0  0
 42109  1  0  0  0
 42110  1  0  0  0
 43 44  1  0  0  0
 44111  1  0  0  0
 45 46  2  0  0  0
 45112  1  0  0  0
 46113  1  0  0  0
 47114  1  0  0  0
 47115  1  0  0  0
 48 56  1  0  0  0
 48 65  1  0  0  0
 48116  1  0  0  0
 49 50  1  0  0  0
 49 53  1  0  0  0
 49 64  1  0  0  0
 49117  1  0  0  0
 50 51  1  0  0  0
 50118  1  0  0  0
 50119  1  0  0  0
 51 52  1  0  0  0
 51120  1  0  0  0
 51121  1  0  0  0
 52122  1  0  0  0
 52123  1  0  0  0
 53 54  1  0  0  0
 54 55  2  0  0  0
 54124  1  0  0  0
 55 57  1  0  0  0
 55125  1  0  0  0
 56 69  2  0  0  0
 57 58  2  0  0  0
 57126  1  0  0  0
 58127  1  0  0  0
 59 60  1  0  0  0
 59 61  1  0  0  0
 59 62  1  0  0  0
 60128  1  0  0  0
 60129  1  0  0  0
 60130  1  0  0  0
 61131  1  0  0  0
 61132  1  0  0  0
 61133  1  0  0  0
 62134  1  0  0  0
 62135  1  0  0  0
 62136  1  0  0  0
 63 65  1  0  0  0
 63137  1  0  0  0
 63138  1  0  0  0
 63139  1  0  0  0
 64140  1  0  0  0
 65141  1  0  0  0
 68 78  1  0  0  0
 71 72  2  0  0  0
 71 74  1  0  0  0
 71142  1  0  0  0
 72 76  1  0  0  0
 72143  1  0  0  0
 73 74  2  0  0  0
 73 75  1  0  0  0
 73144  1  0  0  0
 74 80  1  0  0  0
 75 76  2  0  0  0
 75 81  1  0  0  0
 76 82  1  0  0  0
 77 80  1  0  0  0
 77145  1  0  0  0
 77146  1  0  0  0
 77147  1  0  0  0
 78 79  1  0  0  0
 78148  1  0  0  0
 78149  1  0  0  0
 79 81  1  0  0  0
 79150  1  0  0  0
 79151  1  0  0  0
M  ISO  4   1 100  68 101  78 101  80 100
M  END
> <chiral flag>
0

> <version>
0

> <s_m_source_file>
/data/baiqing/PycharmProjects/Reinvent-master-3.2/result/LINK_invent/BTK/process_docking_weight1_custom_sum_contain_oxygen_bond_distance_aromatic_linkinvent_7_9_3/rearranged_h_0006.sdf

> <i_m_source_file_index>
74

> <r_mmod_Potential_Energy-OPLS-2005>
839.746032714844

> <r_mmod_Stretch_Energy-OPLS-2005>
349.183380126953

> <r_mmod_Bend_Energy-OPLS-2005>
303.928802490234

> <r_mmod_Torsional_Energy-OPLS-2005>
272.863525390625

> <r_mmod_Improper_Torsional_Energy-OPLS-2005>
3.49158120155334

> <r_mmod_Van_der_Waal_Energy-OPLS-2005>
146.722702026367

> <r_mmod_Electrostatic_Energy-OPLS-2005>
-283.020355224609

> <r_mmod_Solvation_Energy-OPLS-2005>
-192.731521606445

> <b_mmod_Minimization_Converged-OPLS-2005>
0

> <r_mmod_RMS_Derivative-OPLS-2005>
1.03634107112885

$$$$
74
                    3D
 Structure written by MMmdl.
209216  0  0  1  0            999 V2000
  -30.0497  -13.1342   20.2733 C   0  0  0  0  0  0
  -31.1911  -12.4556   19.3618 C   0  0  0  0  0  0
  -29.8490  -12.4338   18.0120 C   0  0  0  0  0  0
  -28.1695  -12.7525   18.4562 C   0  0  0  0  0  0
  -27.6953  -13.4759   19.9898 C   0  0  2  0  0  0
  -28.9566  -13.5707   21.3991 C   0  0  0  0  0  0
  -25.2410  -13.8599   20.5825 C   0  0  0  0  0  0
  -24.1906  -13.0491   20.9104 C   0  0  0  0  0  0
  -24.6847  -11.7090   20.8545 C   0  0  0  0  0  0
  -23.9459  -10.4340   21.0158 C   0  0  0  0  0  0
  -24.3819   -9.4193   21.8980 C   0  0  0  0  0  0
  -23.6402   -8.2285   22.0643 C   0  0  0  0  0  0
  -22.4361   -8.0375   21.3490 C   0  0  0  0  0  0
  -22.0042   -9.0402   20.4626 C   0  0  0  0  0  0
  -22.7495  -10.2234   20.2960 C   0  0  0  0  0  0
  -21.6878   -6.0788   22.5232 C   0  0  0  0  0  0
  -21.4035   -6.5661   23.8180 C   0  0  0  0  0  0
  -21.3684   -5.6823   24.9145 C   0  0  0  0  0  0
  -21.6061   -4.3086   24.7207 C   0  0  0  0  0  0
  -21.8805   -3.8170   23.4315 C   0  0  0  0  0  0
  -21.9181   -4.6989   22.3375 C   0  0  0  0  0  0
  -22.7801  -13.5018   21.1712 C   0  0  0  0  0  0
  -22.1627   -4.2151   21.0963 F   0  0  0  0  0  0
  -21.5633   -3.4586   25.7718 F   0  0  0  0  0  0
  -30.6347  -13.0092   21.0135 N   0  0  0  0  0  0
  -26.3383  -13.0412   20.3916 N   0  0  0  0  0  0
  -26.0019  -11.7250   20.5827 N   0  0  0  0  0  0
  -22.0504  -12.7948   22.0279 N   0  0  0  0  0  0
  -25.3550  -15.2382   20.4224 N   0  0  0  0  0  0
  -30.2187  -14.3937   19.7210 O   0  0  0  0  0  0
  -21.6672   -6.8987   21.4232 O   0  0  0  0  0  0
  -22.3381  -14.5295   20.6618 O   0  0  0  0  0  0
  -24.6119  -31.8682   23.2135 C   0  0  0  0  0  0
  -25.9015  -32.4843   23.8429 C   0  0  1  0  0  0
  -27.2405  -27.4535   20.0870 C   0  0  0  0  0  0
  -25.5873  -33.8650   24.2362 N   0  0  0  0  0  0
  -23.3984  -30.4946   21.5481 C   0  0  2  0  0  0
  -24.8440  -28.9559   20.1230 C   0  0  0  0  0  0
  -22.7367  -29.4698   22.4970 C   0  0  0  0  0  0
  -18.0244  -28.1394   22.8465 C   0  0  0  0  0  0
  -24.1480  -36.7331   23.2641 C   0  0  0  0  0  0
  -25.9256  -30.8399   21.3594 C   0  0  0  0  0  0
  -26.0019  -29.4707   20.7161 C   0  0  0  0  0  0
  -27.1986  -28.7250   20.6980 C   0  0  0  0  0  0
  -26.0589  -26.9403   19.5011 C   0  0  0  0  0  0
  -24.8627  -27.6854   19.5220 C   0  0  0  0  0  0
  -23.6078  -29.8266   20.1635 C   0  0  0  0  0  0
  -25.4104  -36.3139   24.0358 C   0  0  1  0  0  0
  -20.5820  -28.3751   23.1313 C   0  0  2  0  0  0
  -20.6781  -26.9547   22.5392 C   0  0  0  0  0  0
  -19.5770  -26.6426   21.5218 C   0  0  0  0  0  0
  -18.1954  -26.7919   22.1659 C   0  0  0  0  0  0
  -19.1466  -28.8877   23.2883 C   0  0  0  0  0  0
  -18.9384  -30.1475   23.8908 C   0  0  0  0  0  0
  -17.6383  -30.6601   24.0545 C   0  0  0  0  0  0
  -25.9011  -34.9484   23.5150 C   0  0  0  0  0  0
  -16.5291  -29.9081   23.6319 C   0  0  0  0  0  0
  -16.7220  -28.6499   23.0340 C   0  0  0  0  0  0
  -26.4485  -31.6612   25.0733 C   0  0  0  0  0  0
  -25.3782  -31.3665   26.1492 C   0  0  0  0  0  0
  -27.0296  -30.3058   24.6061 C   0  0  0  0  0  0
  -27.6087  -32.4306   25.7493 C   0  0  0  0  0  0
  -27.5596  -37.1815   24.8458 C   0  0  0  0  0  0
  -21.4093  -29.3108   22.3715 N   0  0  0  0  0  0
  -26.4313  -37.3803   23.9399 N   0  0  0  0  0  0
  -24.6629  -31.0833   22.0988 N   0  0  0  0  0  0
  -23.4112  -28.8204   23.3002 O   0  0  0  0  0  0
  -28.4480  -26.7828   20.0775 O   0  0  0  0  0  0
  -26.5570  -34.8887   22.4706 O   0  0  0  0  0  0
  -23.5304  -32.1433   23.7520 O   0  0  0  0  0  0
  -26.2836  -15.2173   26.8039 C   0  0  0  0  0  0
  -28.2072   -9.7243   23.0379 C   0  0  0  0  0  0
  -28.0281  -24.8442   21.4813 C   0  0  0  0  0  0
  -27.6774  -14.8280   27.2942 C   0  0  0  0  0  0
  -28.6599   -9.5249   21.5878 C   0  0  0  0  0  0
  -28.4742  -25.3488   20.1023 C   0  0  0  0  0  0
  -28.1826  -13.4736   26.7281 C   0  0  0  0  0  0
  -28.0893  -13.2990   25.1905 C   0  0  0  0  0  0
  -20.3470  -20.0243   25.2801 C   0  0  0  0  0  0
  -20.0150  -21.4948   24.9876 C   0  0  0  0  0  0
  -20.8190  -19.7637   26.7247 C   0  0  0  0  0  0
  -21.2328  -22.4110   25.2017 C   0  0  0  0  0  0
  -21.7035  -18.5199   26.8263 C   0  0  0  0  0  0
  -21.1981  -23.7159   24.3945 C   0  0  0  0  0  0
  -20.9150  -17.2047   26.7900 C   0  0  0  0  0  0
  -22.1606  -23.6767   23.1967 C   0  0  0  0  0  0
  -21.7859  -15.9947   26.4252 C   0  0  0  0  0  0
  -23.6360  -23.8108   23.6179 C   0  0  0  0  0  0
  -26.7647  -12.6582   24.7063 C   0  0  0  0  0  0
  -23.1391  -15.9548   27.1534 C   0  0  0  0  0  0
  -24.5869  -23.8110   22.4210 C   0  0  0  0  0  0
  -29.8294  -10.4492   21.1968 C   0  0  0  0  0  0
  -26.8287  -11.1317   24.5546 C   0  0  0  0  0  0
  -23.8812  -14.6407   26.8938 C   0  0  0  0  0  0
  -26.0184  -24.2163   22.7957 C   0  0  0  0  0  0
  -25.2390  -14.6593   27.4277 N   0  0  0  0  0  0
  -27.4142  -10.7713   23.2711 N   0  0  0  0  0  0
  -26.7519  -24.4663   21.5697 N   0  0  0  0  0  0
  -29.4047  -11.6307   20.4016 N   0  0  0  0  0  0
  -26.1615  -15.9744   25.8392 O   0  0  0  0  0  0
  -28.5545   -8.9358   23.9190 O   0  0  0  0  0  0
  -28.7934  -24.8458   22.4489 O   0  0  0  0  0  0
  -32.0620  -13.0300   18.9988 H   0  0  0  0  0  0
  -31.6639  -11.4640   19.4077 H   0  0  0  0  0  0
  -29.8840  -11.4717   17.4954 H   0  0  0  0  0  0
  -30.1371  -13.1646   17.2526 H   0  0  0  0  0  0
  -27.6516  -11.7930   18.3859 H   0  0  0  0  0  0
  -27.7184  -13.3392   17.6529 H   0  0  0  0  0  0
  -27.6023  -14.5209   19.6953 H   0  0  0  0  0  0
  -28.5709  -13.0092   22.2606 H   0  0  0  0  0  0
  -28.9492  -14.5873   21.8287 H   0  0  0  0  0  0
  -25.2925   -9.5453   22.4584 H   0  0  0  0  0  0
  -24.0075   -7.4680   22.7401 H   0  0  0  0  0  0
  -21.0887   -8.9046   19.9028 H   0  0  0  0  0  0
  -22.3899  -10.9799   19.6134 H   0  0  0  0  0  0
  -21.2051   -7.6181   23.9672 H   0  0  0  0  0  0
  -21.1508   -6.0571   25.9036 H   0  0  0  0  0  0
  -22.0566   -2.7623   23.2840 H   0  0  0  0  0  0
  -22.4155  -11.9647   22.4702 H   0  0  0  0  0  0
  -21.1081  -13.0869   22.2432 H   0  0  0  0  0  0
  -24.5618  -15.8633   20.5178 H   0  0  0  0  0  0
  -26.2111  -15.7268   20.1872 H   0  0  0  0  0  0
  -26.7079  -32.5516   23.1186 H   0  0  0  0  0  0
  -25.0033  -33.9859   25.0509 H   0  0  0  0  0  0
  -22.6869  -31.3106   21.4056 H   0  0  0  0  0  0
  -23.3726  -35.9680   23.3300 H   0  0  0  0  0  0
  -24.3566  -36.8913   22.2052 H   0  0  0  0  0  0
  -23.7219  -37.6542   23.6621 H   0  0  0  0  0  0
  -26.0344  -31.5984   20.5800 H   0  0  0  0  0  0
  -26.8175  -30.8970   21.9737 H   0  0  0  0  0  0
  -28.0917  -29.1276   21.1526 H   0  0  0  0  0  0
  -26.0460  -25.9807   19.0090 H   0  0  0  0  0  0
  -23.9656  -27.2884   19.0681 H   0  0  0  0  0  0
  -23.7189  -30.6018   19.4020 H   0  0  0  0  0  0
  -22.7308  -29.2440   19.8769 H   0  0  0  0  0  0
  -25.1273  -36.2078   25.0866 H   0  0  0  0  0  0
  -20.9909  -28.3288   24.1440 H   0  0  0  0  0  0
  -20.5735  -26.2469   23.3600 H   0  0  0  0  0  0
  -21.6650  -26.7719   22.1126 H   0  0  0  0  0  0
  -19.6988  -25.6331   21.1260 H   0  0  0  0  0  0
  -19.6687  -27.3248   20.6743 H   0  0  0  0  0  0
  -17.4221  -26.6511   21.4088 H   0  0  0  0  0  0
  -18.0446  -26.0123   22.9139 H   0  0  0  0  0  0
  -19.7824  -30.7318   24.2308 H   0  0  0  0  0  0
  -17.4904  -31.6298   24.5106 H   0  0  0  0  0  0
  -15.5278  -30.2983   23.7633 H   0  0  0  0  0  0
  -15.8620  -28.0813   22.7078 H   0  0  0  0  0  0
  -24.5952  -30.7041   25.7796 H   0  0  0  0  0  0
  -24.9001  -32.2790   26.5060 H   0  0  0  0  0  0
  -25.8185  -30.8741   27.0173 H   0  0  0  0  0  0
  -26.2820  -29.6805   24.1175 H   0  0  0  0  0  0
  -27.4123  -29.7328   25.4515 H   0  0  0  0  0  0
  -27.8624  -30.4349   23.9149 H   0  0  0  0  0  0
  -27.2753  -33.3566   26.2192 H   0  0  0  0  0  0
  -28.3870  -32.6924   25.0315 H   0  0  0  0  0  0
  -28.0788  -31.8336   26.5316 H   0  0  0  0  0  0
  -28.2630  -38.0105   24.7518 H   0  0  0  0  0  0
  -28.1080  -36.2628   24.6296 H   0  0  0  0  0  0
  -27.2285  -37.1494   25.8854 H   0  0  0  0  0  0
  -20.9262  -29.8730   21.6851 H   0  0  0  0  0  0
  -26.0204  -38.2874   24.1423 H   0  0  0  0  0  0
  -27.6903  -14.8086   28.3849 H   0  0  0  0  0  0
  -28.3660  -15.6224   27.0028 H   0  0  0  0  0  0
  -27.8175   -9.6242   20.9020 H   0  0  0  0  0  0
  -28.9883   -8.4894   21.4952 H   0  0  0  0  0  0
  -29.5050  -25.0306   19.9323 H   0  0  0  0  0  0
  -27.8811  -24.8907   19.3097 H   0  0  0  0  0  0
  -27.6732  -12.6475   27.2310 H   0  0  0  0  0  0
  -29.2295  -13.3805   27.0229 H   0  0  0  0  0  0
  -28.9305  -12.6988   24.8370 H   0  0  0  0  0  0
  -28.2230  -14.2736   24.7218 H   0  0  0  0  0  0
  -21.1163  -19.7093   24.5723 H   0  0  0  0  0  0
  -19.4775  -19.4046   25.0607 H   0  0  0  0  0  0
  -19.1829  -21.8310   25.6079 H   0  0  0  0  0  0
  -19.6705  -21.5709   23.9548 H   0  0  0  0  0  0
  -19.9637  -19.6869   27.3972 H   0  0  0  0  0  0
  -21.4155  -20.5986   27.0902 H   0  0  0  0  0  0
  -22.1383  -21.8561   24.9569 H   0  0  0  0  0  0
  -21.3222  -22.6587   26.2587 H   0  0  0  0  0  0
  -22.2692  -18.5665   27.7592 H   0  0  0  0  0  0
  -22.4483  -18.5471   26.0268 H   0  0  0  0  0  0
  -21.4717  -24.5509   25.0410 H   0  0  0  0  0  0
  -20.1805  -23.9365   24.0631 H   0  0  0  0  0  0
  -20.1018  -17.2737   26.0666 H   0  0  0  0  0  0
  -20.4467  -17.0466   27.7632 H   0  0  0  0  0  0
  -21.9285  -24.5000   22.5254 H   0  0  0  0  0  0
  -21.9916  -22.7689   22.6146 H   0  0  0  0  0  0
  -21.9635  -15.9947   25.3485 H   0  0  0  0  0  0
  -21.2246  -15.0842   26.6361 H   0  0  0  0  0  0
  -23.9201  -23.0096   24.2979 H   0  0  0  0  0  0
  -23.7623  -24.7478   24.1648 H   0  0  0  0  0  0
  -26.4605  -13.1125   23.7596 H   0  0  0  0  0  0
  -25.9606  -12.8910   25.4022 H   0  0  0  0  0  0
  -22.9962  -16.1021   28.2252 H   0  0  0  0  0  0
  -23.7580  -16.7844   26.8035 H   0  0  0  0  0  0
  -24.1968  -24.5165   21.6866 H   0  0  0  0  0  0
  -24.5878  -22.8374   21.9264 H   0  0  0  0  0  0
  -30.3702  -10.7482   22.0961 H   0  0  0  0  0  0
  -30.5449   -9.8760   20.6078 H   0  0  0  0  0  0
  -25.8217  -10.7143   24.5885 H   0  0  0  0  0  0
  -27.3763  -10.6863   25.3888 H   0  0  0  0  0  0
  -23.9202  -14.4431   25.8210 H   0  0  0  0  0  0
  -23.3334  -13.8107   27.3406 H   0  0  0  0  0  0
  -26.5159  -23.4530   23.3979 H   0  0  0  0  0  0
  -26.0055  -25.1320   23.3911 H   0  0  0  0  0  0
  -25.4269  -14.0797   28.2358 H   0  0  0  0  0  0
  -27.1385  -11.3192   22.4629 H   0  0  0  0  0  0
  -26.2087  -24.5206   20.7198 H   0  0  0  0  0  0
  -28.6732  -11.4614   19.7262 H   0  0  0  0  0  0
  1 25  1  0  0  0
  1 30  2  0  0  0
  1 99  1  0  0  0
  2  3  1  0  0  0
  2 25  1  0  0  0
  2103  1  0  0  0
  2104  1  0  0  0
  3  4  1  0  0  0
  3105  1  0  0  0
  3106  1  0  0  0
  4  5  1  0  0  0
  4107  1  0  0  0
  4108  1  0  0  0
  5  6  1  0  0  0
  5 26  1  0  0  0
  5109  1  0  0  0
  6 25  1  0  0  0
  6110  1  0  0  0
  6111  1  0  0  0
  7  8  2  0  0  0
  7 26  1  0  0  0
  7 29  1  0  0  0
  8  9  1  0  0  0
  8 22  1  0  0  0
  9 10  1  0  0  0
  9 27  2  0  0  0
 10 11  2  0  0  0
 10 15  1  0  0  0
 11 12  1  0  0  0
 11112  1  0  0  0
 12 13  2  0  0  0
 12113  1  0  0  0
 13 14  1  0  0  0
 13 31  1  0  0  0
 14 15  2  0  0  0
 14114  1  0  0  0
 15115  1  0  0  0
 16 17  2  0  0  0
 16 21  1  0  0  0
 16 31  1  0  0  0
 17 18  1  0  0  0
 17116  1  0  0  0
 18 19  2  0  0  0
 18117  1  0  0  0
 19 20  1  0  0  0
 19 24  1  0  0  0
 20 21  2  0  0  0
 20118  1  0  0  0
 21 23  1  0  0  0
 22 28  1  0  0  0
 22 32  2  0  0  0
 26 27  1  0  0  0
 28119  1  0  0  0
 28120  1  0  0  0
 29121  1  0  0  0
 29122  1  0  0  0
 33 34  1  0  0  0
 33 66  1  0  0  0
 33 70  2  0  0  0
 34 36  1  0  0  0
 34 59  1  0  0  0
 34123  1  0  0  0
 35 44  2  0  0  0
 35 45  1  0  0  0
 35 68  1  0  0  0
 36 56  1  0  0  0
 36124  1  0  0  0
 37 39  1  0  0  0
 37 47  1  0  0  0
 37 66  1  0  0  0
 37125  1  0  0  0
 38 43  2  0  0  0
 38 46  1  0  0  0
 38 47  1  0  0  0
 39 64  1  0  0  0
 39 67  2  0  0  0
 40 52  1  0  0  0
 40 53  2  0  0  0
 40 58  1  0  0  0
 41126  1  0  0  0
 41127  1  0  0  0
 41128  1  0  0  0
 41 48  1  0  0  0
 42 43  1  0  0  0
 42 66  1  0  0  0
 42129  1  0  0  0
 42130  1  0  0  0
 43 44  1  0  0  0
 44131  1  0  0  0
 45 46  2  0  0  0
 45132  1  0  0  0
 46133  1  0  0  0
 47134  1  0  0  0
 47135  1  0  0  0
 48 56  1  0  0  0
 48 65  1  0  0  0
 48136  1  0  0  0
 49 50  1  0  0  0
 49 53  1  0  0  0
 49 64  1  0  0  0
 49137  1  0  0  0
 50 51  1  0  0  0
 50138  1  0  0  0
 50139  1  0  0  0
 51 52  1  0  0  0
 51140  1  0  0  0
 51141  1  0  0  0
 52142  1  0  0  0
 52143  1  0  0  0
 53 54  1  0  0  0
 54 55  2  0  0  0
 54144  1  0  0  0
 55 57  1  0  0  0
 55145  1  0  0  0
 56 69  2  0  0  0
 57 58  2  0  0  0
 57146  1  0  0  0
 58147  1  0  0  0
 59 60  1  0  0  0
 59 61  1  0  0  0
 59 62  1  0  0  0
 60148  1  0  0  0
 60149  1  0  0  0
 60150  1  0  0  0
 61151  1  0  0  0
 61152  1  0  0  0
 61153  1  0  0  0
 62154  1  0  0  0
 62155  1  0  0  0
 62156  1  0  0  0
 63 65  1  0  0  0
 63157  1  0  0  0
 63158  1  0  0  0
 63159  1  0  0  0
 64160  1  0  0  0
 65161  1  0  0  0
 68 76  1  0  0  0
 71 74  1  0  0  0
 71 96  1  0  0  0
 71100  2  0  0  0
 72 75  1  0  0  0
 72 97  1  0  0  0
 72101  2  0  0  0
 73 76  1  0  0  0
 73 98  1  0  0  0
 73102  2  0  0  0
 74 77  1  0  0  0
 74162  1  0  0  0
 74163  1  0  0  0
 75 92  1  0  0  0
 75164  1  0  0  0
 75165  1  0  0  0
 76166  1  0  0  0
 76167  1  0  0  0
 77 78  1  0  0  0
 77168  1  0  0  0
 77169  1  0  0  0
 78 89  1  0  0  0
 78170  1  0  0  0
 78171  1  0  0  0
 79 80  1  0  0  0
 79 81  1  0  0  0
 79172  1  0  0  0
 79173  1  0  0  0
 80 82  1  0  0  0
 80174  1  0  0  0
 80175  1  0  0  0
 81 83  1  0  0  0
 81176  1  0  0  0
 81177  1  0  0  0
 82 84  1  0  0  0
 82178  1  0  0  0
 82179  1  0  0  0
 83 85  1  0  0  0
 83180  1  0  0  0
 83181  1  0  0  0
 84 86  1  0  0  0
 84182  1  0  0  0
 84183  1  0  0  0
 85 87  1  0  0  0
 85184  1  0  0  0
 85185  1  0  0  0
 86 88  1  0  0  0
 86186  1  0  0  0
 86187  1  0  0  0
 87 90  1  0  0  0
 87188  1  0  0  0
 87189  1  0  0  0
 88 91  1  0  0  0
 88190  1  0  0  0
 88191  1  0  0  0
 89 93  1  0  0  0
 89192  1  0  0  0
 89193  1  0  0  0
 90 94  1  0  0  0
 90194  1  0  0  0
 90195  1  0  0  0
 91 95  1  0  0  0
 91196  1  0  0  0
 91197  1  0  0  0
 92 99  1  0  0  0
 92198  1  0  0  0
 92199  1  0  0  0
 93 97  1  0  0  0
 93200  1  0  0  0
 93201  1  0  0  0
 94 96  1  0  0  0
 94202  1  0  0  0
 94203  1  0  0  0
 95 98  1  0  0  0
 95204  1  0  0  0
 95205  1  0  0  0
 96206  1  0  0  0
 97207  1  0  0  0
 98208  1  0  0  0
 99209  1  0  0  0
M  ISO  4   1 100  68 101  76 101  99 100
M  END
> <chiral flag>
0

> <version>
0

> <s_m_source_file>
/data/baiqing/PycharmProjects/Reinvent-master-3.2/result/LINK_invent/BTK/process_docking_weight1_custom_sum_contain_oxygen_bond_distance_aromatic_linkinvent_7_9_3/rearranged_h_0006.sdf

> <i_m_source_file_index>
75

> <r_mmod_Potential_Energy-OPLS-2005>
3464.20751953125

> <r_mmod_Stretch_Energy-OPLS-2005>
1406.8505859375

> <r_mmod_Bend_Energy-OPLS-2005>
766.8916015625

> <r_mmod_Torsional_Energy-OPLS-2005>
396.121124267578

> <r_mmod_Improper_Torsional_Energy-OPLS-2005>
2.86295318603516

> <r_mmod_Van_der_Waal_Energy-OPLS-2005>
904.449157714844

> <r_mmod_Electrostatic_Energy-OPLS-2005>
-465.379821777344

> <r_mmod_Solvation_Energy-OPLS-2005>
-275.348571777344

> <b_mmod_Minimization_Converged-OPLS-2005>
0

> <r_mmod_RMS_Derivative-OPLS-2005>
5.39713191986084

$$$$
75
                    3D
 Structure written by MMmdl.
151159  0  0  1  0            999 V2000
  -30.6240  -14.7128   20.4559 C   0  0  0  0  0  0
  -30.4260  -12.4287   19.4809 C   0  0  0  0  0  0
  -29.5114  -12.5211   18.2394 C   0  0  0  0  0  0
  -28.0342  -12.3558   18.6424 C   0  0  0  0  0  0
  -27.6473  -13.2367   19.8603 C   0  0  2  0  0  0
  -28.6895  -13.1460   20.9987 C   0  0  0  0  0  0
  -25.2522  -13.8215   20.5686 C   0  0  0  0  0  0
  -24.1813  -13.0453   20.9196 C   0  0  0  0  0  0
  -24.6407  -11.6933   20.8734 C   0  0  0  0  0  0
  -23.9079  -10.4307   21.0389 C   0  0  0  0  0  0
  -24.3630   -9.4223   21.9169 C   0  0  0  0  0  0
  -23.6304   -8.2260   22.0746 C   0  0  0  0  0  0
  -22.4283   -8.0295   21.3542 C   0  0  0  0  0  0
  -21.9919   -9.0266   20.4639 C   0  0  0  0  0  0
  -22.7248  -10.2144   20.3044 C   0  0  0  0  0  0
  -21.6862   -6.0743   22.5271 C   0  0  0  0  0  0
  -21.4023   -6.5641   23.8207 C   0  0  0  0  0  0
  -21.3662   -5.6790   24.9168 C   0  0  0  0  0  0
  -21.6044   -4.3052   24.7212 C   0  0  0  0  0  0
  -21.8822   -3.8147   23.4331 C   0  0  0  0  0  0
  -21.9198   -4.6970   22.3394 C   0  0  0  0  0  0
  -22.7830  -13.5230   21.1851 C   0  0  0  0  0  0
  -22.1659   -4.2157   21.0969 F   0  0  0  0  0  0
  -21.5631   -3.4532   25.7720 F   0  0  0  0  0  0
  -30.0014  -13.4846   20.4312 N   0  0  0  0  0  0
  -26.2963  -12.9431   20.3308 N   0  0  0  0  0  0
  -25.9343  -11.6566   20.5756 N   0  0  0  0  0  0
  -22.0480  -12.8229   22.0416 N   0  0  0  0  0  0
  -25.4209  -15.1945   20.4101 N   0  0  0  0  0  0
  -31.7921  -14.8162   20.0689 O   0  0  0  0  0  0
  -21.6649   -6.8888   21.4236 O   0  0  0  0  0  0
  -22.3506  -14.5529   20.6690 O   0  0  0  0  0  0
  -24.6307  -31.8560   23.2001 C   0  0  0  0  0  0
  -25.9132  -32.4765   23.8337 C   0  0  1  0  0  0
  -27.2211  -27.2639   20.1238 C   0  0  0  0  0  0
  -25.5936  -33.8566   24.2266 N   0  0  0  0  0  0
  -23.4275  -30.4802   21.5432 C   0  0  2  0  0  0
  -24.8757  -28.9316   20.1076 C   0  0  0  0  0  0
  -22.7498  -29.4610   22.4907 C   0  0  0  0  0  0
  -18.0299  -28.1380   22.8484 C   0  0  0  0  0  0
  -24.1497  -36.7288   23.2634 C   0  0  0  0  0  0
  -25.9738  -30.7680   21.3829 C   0  0  0  0  0  0
  -26.0457  -29.3913   20.7242 C   0  0  0  0  0  0
  -27.2173  -28.5674   20.7279 C   0  0  0  0  0  0
  -26.0333  -26.8880   19.4534 C   0  0  0  0  0  0
  -24.8752  -27.6874   19.4616 C   0  0  0  0  0  0
  -23.6461  -29.8179   20.1579 C   0  0  0  0  0  0
  -25.4120  -36.3083   24.0330 C   0  0  1  0  0  0
  -20.5902  -28.3701   23.1266 C   0  0  2  0  0  0
  -20.6789  -26.9414   22.5410 C   0  0  0  0  0  0
  -19.5767  -26.6374   21.5215 C   0  0  0  0  0  0
  -18.1945  -26.7924   22.1620 C   0  0  0  0  0  0
  -19.1547  -28.8855   23.2876 C   0  0  0  0  0  0
  -18.9465  -30.1456   23.8894 C   0  0  0  0  0  0
  -17.6462  -30.6581   24.0562 C   0  0  0  0  0  0
  -25.9057  -34.9450   23.5103 C   0  0  0  0  0  0
  -16.5357  -29.9076   23.6325 C   0  0  0  0  0  0
  -16.7284  -28.6493   23.0350 C   0  0  0  0  0  0
  -26.4496  -31.6580   25.0718 C   0  0  0  0  0  0
  -25.3714  -31.3721   26.1433 C   0  0  0  0  0  0
  -27.0337  -30.2998   24.6193 C   0  0  0  0  0  0
  -27.6054  -32.4312   25.7488 C   0  0  0  0  0  0
  -27.5600  -37.1790   24.8451 C   0  0  0  0  0  0
  -21.4206  -29.3050   22.3650 N   0  0  0  0  0  0
  -26.4296  -37.3784   23.9420 N   0  0  0  0  0  0
  -24.6963  -31.0530   22.0981 N   0  0  0  0  0  0
  -23.4196  -28.8150   23.3008 O   0  0  0  0  0  0
  -28.3135  -26.3643   20.2130 O   0  0  0  0  0  0
  -26.5617  -34.8923   22.4665 O   0  0  0  0  0  0
  -23.5459  -32.1386   23.7296 O   0  0  0  0  0  0
  -29.9215  -18.4009   17.9838 C   0  0  0  0  0  0
  -30.0436  -17.2015   18.7101 C   0  0  0  0  0  0
  -29.6505  -19.6289   18.6192 C   0  0  0  0  0  0
  -29.6150  -18.4578   20.7475 C   0  0  0  0  0  0
  -29.8832  -17.1718   20.1126 C   0  0  0  0  0  0
  -29.5061  -19.7228   20.0242 C   0  0  0  0  0  0
  -28.9583  -23.7015   20.5590 C   0  0  0  0  0  0
  -28.1390  -24.9094   19.8603 C   0  0  0  0  0  0
  -28.9051  -22.2244   19.8922 C   0  0  0  0  0  0
  -29.8887  -15.8432   20.7781 N   0  0  0  0  0  0
  -29.2917  -20.9914   20.6527 O   0  0  0  0  0  0
  -31.4711  -12.5289   19.1850 H   0  0  0  0  0  0
  -30.3434  -11.4441   19.9445 H   0  0  0  0  0  0
  -29.7878  -11.7633   17.5056 H   0  0  0  0  0  0
  -29.6521  -13.4855   17.7487 H   0  0  0  0  0  0
  -27.8736  -11.3035   18.8783 H   0  0  0  0  0  0
  -27.3839  -12.5778   17.7944 H   0  0  0  0  0  0
  -27.6497  -14.2659   19.5014 H   0  0  0  0  0  0
  -28.7085  -12.1426   21.4259 H   0  0  0  0  0  0
  -28.4261  -13.8197   21.8158 H   0  0  0  0  0  0
  -25.2776   -9.5703   22.4741 H   0  0  0  0  0  0
  -24.0011   -7.4656   22.7465 H   0  0  0  0  0  0
  -21.0850   -8.8788   19.8956 H   0  0  0  0  0  0
  -22.3695  -10.9685   19.6157 H   0  0  0  0  0  0
  -21.2016   -7.6148   23.9717 H   0  0  0  0  0  0
  -21.1482   -6.0514   25.9073 H   0  0  0  0  0  0
  -22.0598   -2.7610   23.2826 H   0  0  0  0  0  0
  -22.4088  -11.9897   22.4822 H   0  0  0  0  0  0
  -21.1095  -13.1252   22.2608 H   0  0  0  0  0  0
  -24.6539  -15.8493   20.5182 H   0  0  0  0  0  0
  -26.2720  -15.6335   20.0812 H   0  0  0  0  0  0
  -26.7194  -32.5423   23.1073 H   0  0  0  0  0  0
  -25.0108  -33.9697   25.0431 H   0  0  0  0  0  0
  -22.7246  -31.3034   21.3992 H   0  0  0  0  0  0
  -23.3787  -35.9590   23.3251 H   0  0  0  0  0  0
  -24.3611  -36.8955   22.2062 H   0  0  0  0  0  0
  -23.7209  -37.6460   23.6678 H   0  0  0  0  0  0
  -26.1139  -31.5300   20.6151 H   0  0  0  0  0  0
  -26.8505  -30.8151   22.0170 H   0  0  0  0  0  0
  -28.1074  -28.9110   21.2363 H   0  0  0  0  0  0
  -25.9612  -25.9548   18.9169 H   0  0  0  0  0  0
  -23.9851  -27.3344   18.9594 H   0  0  0  0  0  0
  -23.7705  -30.5966   19.4044 H   0  0  0  0  0  0
  -22.7642  -29.2517   19.8525 H   0  0  0  0  0  0
  -25.1302  -36.1934   25.0823 H   0  0  0  0  0  0
  -21.0005  -28.3286   24.1384 H   0  0  0  0  0  0
  -20.5701  -26.2309   23.3617 H   0  0  0  0  0  0
  -21.6657  -26.7444   22.1198 H   0  0  0  0  0  0
  -19.6930  -25.6282   21.1255 H   0  0  0  0  0  0
  -19.6711  -27.3176   20.6741 H   0  0  0  0  0  0
  -17.4222  -26.6685   21.4013 H   0  0  0  0  0  0
  -18.0335  -26.0059   22.9007 H   0  0  0  0  0  0
  -19.7940  -30.7272   24.2264 H   0  0  0  0  0  0
  -17.5014  -31.6263   24.5158 H   0  0  0  0  0  0
  -15.5354  -30.2972   23.7645 H   0  0  0  0  0  0
  -15.8690  -28.0806   22.7061 H   0  0  0  0  0  0
  -24.5890  -30.7073   25.7749 H   0  0  0  0  0  0
  -24.8896  -32.2885   26.4853 H   0  0  0  0  0  0
  -25.8022  -30.8890   27.0213 H   0  0  0  0  0  0
  -26.2909  -29.6744   24.1224 H   0  0  0  0  0  0
  -27.4035  -29.7261   25.4703 H   0  0  0  0  0  0
  -27.8786  -30.4282   23.9422 H   0  0  0  0  0  0
  -27.2666  -33.3615   26.2063 H   0  0  0  0  0  0
  -28.3860  -32.6868   25.0307 H   0  0  0  0  0  0
  -28.0720  -31.8431   26.5404 H   0  0  0  0  0  0
  -28.2567  -38.0141   24.7588 H   0  0  0  0  0  0
  -28.1152  -36.2679   24.6168 H   0  0  0  0  0  0
  -27.2330  -37.1304   25.8852 H   0  0  0  0  0  0
  -20.9380  -29.8783   21.6870 H   0  0  0  0  0  0
  -26.0183  -38.2854   24.1457 H   0  0  0  0  0  0
  -30.0301  -18.3759   16.9078 H   0  0  0  0  0  0
  -30.2300  -16.2897   18.1602 H   0  0  0  0  0  0
  -29.5703  -20.4951   17.9815 H   0  0  0  0  0  0
  -29.4868  -18.4791   21.8197 H   0  0  0  0  0  0
  -28.6090  -23.6198   21.5884 H   0  0  0  0  0  0
  -30.0060  -23.9934   20.6347 H   0  0  0  0  0  0
  -27.1028  -24.6222   20.0292 H   0  0  0  0  0  0
  -28.2986  -24.8394   18.7838 H   0  0  0  0  0  0
  -29.5254  -22.3041   19.0017 H   0  0  0  0  0  0
  -27.8886  -22.0526   19.5364 H   0  0  0  0  0  0
  -29.0753  -15.6548   21.3447 H   0  0  0  0  0  0
  1 25  1  0  0  0
  1 30  2  0  0  0
  1 80  1  0  0  0
  2  3  1  0  0  0
  2 25  1  0  0  0
  2 82  1  0  0  0
  2 83  1  0  0  0
  3  4  1  0  0  0
  3 84  1  0  0  0
  3 85  1  0  0  0
  4  5  1  0  0  0
  4 86  1  0  0  0
  4 87  1  0  0  0
  5  6  1  0  0  0
  5 26  1  0  0  0
  5 88  1  0  0  0
  6 25  1  0  0  0
  6 89  1  0  0  0
  6 90  1  0  0  0
  7  8  2  0  0  0
  7 26  1  0  0  0
  7 29  1  0  0  0
  8  9  1  0  0  0
  8 22  1  0  0  0
  9 10  1  0  0  0
  9 27  2  0  0  0
 10 11  2  0  0  0
 10 15  1  0  0  0
 11 12  1  0  0  0
 11 91  1  0  0  0
 12 13  2  0  0  0
 12 92  1  0  0  0
 13 14  1  0  0  0
 13 31  1  0  0  0
 14 15  2  0  0  0
 14 93  1  0  0  0
 15 94  1  0  0  0
 16 17  2  0  0  0
 16 21  1  0  0  0
 16 31  1  0  0  0
 17 18  1  0  0  0
 17 95  1  0  0  0
 18 19  2  0  0  0
 18 96  1  0  0  0
 19 20  1  0  0  0
 19 24  1  0  0  0
 20 21  2  0  0  0
 20 97  1  0  0  0
 21 23  1  0  0  0
 22 28  1  0  0  0
 22 32  2  0  0  0
 26 27  1  0  0  0
 28 98  1  0  0  0
 28 99  1  0  0  0
 29100  1  0  0  0
 29101  1  0  0  0
 33 34  1  0  0  0
 33 66  1  0  0  0
 33 70  2  0  0  0
 34 36  1  0  0  0
 34 59  1  0  0  0
 34102  1  0  0  0
 35 44  2  0  0  0
 35 45  1  0  0  0
 35 68  1  0  0  0
 36 56  1  0  0  0
 36103  1  0  0  0
 37 39  1  0  0  0
 37 47  1  0  0  0
 37 66  1  0  0  0
 37104  1  0  0  0
 38 43  2  0  0  0
 38 46  1  0  0  0
 38 47  1  0  0  0
 39 64  1  0  0  0
 39 67  2  0  0  0
 40 52  1  0  0  0
 40 53  2  0  0  0
 40 58  1  0  0  0
 41105  1  0  0  0
 41106  1  0  0  0
 41107  1  0  0  0
 41 48  1  0  0  0
 42 43  1  0  0  0
 42 66  1  0  0  0
 42108  1  0  0  0
 42109  1  0  0  0
 43 44  1  0  0  0
 44110  1  0  0  0
 45 46  2  0  0  0
 45111  1  0  0  0
 46112  1  0  0  0
 47113  1  0  0  0
 47114  1  0  0  0
 48 56  1  0  0  0
 48 65  1  0  0  0
 48115  1  0  0  0
 49 50  1  0  0  0
 49 53  1  0  0  0
 49 64  1  0  0  0
 49116  1  0  0  0
 50 51  1  0  0  0
 50117  1  0  0  0
 50118  1  0  0  0
 51 52  1  0  0  0
 51119  1  0  0  0
 51120  1  0  0  0
 52121  1  0  0  0
 52122  1  0  0  0
 53 54  1  0  0  0
 54 55  2  0  0  0
 54123  1  0  0  0
 55 57  1  0  0  0
 55124  1  0  0  0
 56 69  2  0  0  0
 57 58  2  0  0  0
 57125  1  0  0  0
 58126  1  0  0  0
 59 60  1  0  0  0
 59 61  1  0  0  0
 59 62  1  0  0  0
 60127  1  0  0  0
 60128  1  0  0  0
 60129  1  0  0  0
 61130  1  0  0  0
 61131  1  0  0  0
 61132  1  0  0  0
 62133  1  0  0  0
 62134  1  0  0  0
 62135  1  0  0  0
 63 65  1  0  0  0
 63136  1  0  0  0
 63137  1  0  0  0
 63138  1  0  0  0
 64139  1  0  0  0
 65140  1  0  0  0
 68 78  1  0  0  0
 71 72  2  0  0  0
 71 73  1  0  0  0
 71141  1  0  0  0
 72 75  1  0  0  0
 72142  1  0  0  0
 73 76  2  0  0  0
 73143  1  0  0  0
 74 75  2  0  0  0
 74 76  1  0  0  0
 74144  1  0  0  0
 75 80  1  0  0  0
 76 81  1  0  0  0
 77 78  1  0  0  0
 77 79  1  0  0  0
 77145  1  0  0  0
 77146  1  0  0  0
 78147  1  0  0  0
 78148  1  0  0  0
 79 81  1  0  0  0
 79149  1  0  0  0
 79150  1  0  0  0
 80151  1  0  0  0
M  ISO  4   1 100  68 101  78 101  80 100
M  END
> <chiral flag>
0

> <version>
0

> <s_m_source_file>
/data/baiqing/PycharmProjects/Reinvent-master-3.2/result/LINK_invent/BTK/process_docking_weight1_custom_sum_contain_oxygen_bond_distance_aromatic_linkinvent_7_9_3/rearranged_h_0006.sdf

> <i_m_source_file_index>
76

> <r_mmod_Potential_Energy-OPLS-2005>
185.519424438477

> <r_mmod_Stretch_Energy-OPLS-2005>
124.80167388916

> <r_mmod_Bend_Energy-OPLS-2005>
166.076385498047

> <r_mmod_Torsional_Energy-OPLS-2005>
237.988235473633

> <r_mmod_Improper_Torsional_Energy-OPLS-2005>
4.65315580368042

> <r_mmod_Van_der_Waal_Energy-OPLS-2005>
146.747375488281

> <r_mmod_Electrostatic_Energy-OPLS-2005>
-355.506103515625

> <r_mmod_Solvation_Energy-OPLS-2005>
-217.155700683594

> <b_mmod_Minimization_Converged-OPLS-2005>
0

> <r_mmod_RMS_Derivative-OPLS-2005>
1.40038752555847

$$$$
76
                    3D
 Structure written by MMmdl.
174182  0  0  1  0            999 V2000
  -30.7106  -14.4755   20.5686 C   0  0  0  0  0  0
  -30.4186  -12.3108   19.4175 C   0  0  0  0  0  0
  -29.4911  -12.5020   18.2009 C   0  0  0  0  0  0
  -28.0124  -12.3628   18.6170 C   0  0  0  0  0  0
  -27.6577  -13.2094   19.8693 C   0  0  2  0  0  0
  -28.7023  -13.0040   20.9890 C   0  0  0  0  0  0
  -25.2582  -13.8164   20.5684 C   0  0  0  0  0  0
  -24.1839  -13.0444   20.9200 C   0  0  0  0  0  0
  -24.6391  -11.6911   20.8742 C   0  0  0  0  0  0
  -23.9064  -10.4294   21.0420 C   0  0  0  0  0  0
  -24.3618   -9.4204   21.9186 C   0  0  0  0  0  0
  -23.6295   -8.2239   22.0748 C   0  0  0  0  0  0
  -22.4272   -8.0285   21.3544 C   0  0  0  0  0  0
  -21.9917   -9.0259   20.4644 C   0  0  0  0  0  0
  -22.7246  -10.2138   20.3060 C   0  0  0  0  0  0
  -21.6854   -6.0744   22.5286 C   0  0  0  0  0  0
  -21.4005   -6.5644   23.8218 C   0  0  0  0  0  0
  -21.3651   -5.6795   24.9177 C   0  0  0  0  0  0
  -21.6052   -4.3060   24.7225 C   0  0  0  0  0  0
  -21.8814   -3.8155   23.4342 C   0  0  0  0  0  0
  -21.9188   -4.6975   22.3405 C   0  0  0  0  0  0
  -22.7859  -13.5243   21.1852 C   0  0  0  0  0  0
  -22.1664   -4.2168   21.0982 F   0  0  0  0  0  0
  -21.5628   -3.4535   25.7731 F   0  0  0  0  0  0
  -30.0284  -13.3058   20.4281 N   0  0  0  0  0  0
  -26.3006  -12.9337   20.3346 N   0  0  0  0  0  0
  -25.9316  -11.6499   20.5765 N   0  0  0  0  0  0
  -22.0489  -12.8239   22.0407 N   0  0  0  0  0  0
  -25.4299  -15.1879   20.4081 N   0  0  0  0  0  0
  -31.8519  -14.6328   20.1269 O   0  0  0  0  0  0
  -21.6630   -6.8886   21.4247 O   0  0  0  0  0  0
  -22.3556  -14.5548   20.6701 O   0  0  0  0  0  0
  -24.6157  -31.8695   23.2107 C   0  0  0  0  0  0
  -25.9035  -32.4843   23.8403 C   0  0  1  0  0  0
  -27.2211  -27.4083   20.0961 C   0  0  0  0  0  0
  -25.5879  -33.8639   24.2337 N   0  0  0  0  0  0
  -23.4052  -30.4963   21.5530 C   0  0  2  0  0  0
  -24.8500  -28.9709   20.1081 C   0  0  0  0  0  0
  -22.7434  -29.4657   22.4986 C   0  0  0  0  0  0
  -18.0278  -28.1390   22.8500 C   0  0  0  0  0  0
  -24.1480  -36.7294   23.2645 C   0  0  0  0  0  0
  -25.9390  -30.8277   21.3680 C   0  0  0  0  0  0
  -26.0149  -29.4623   20.7114 C   0  0  0  0  0  0
  -27.2028  -28.6890   20.7060 C   0  0  0  0  0  0
  -26.0371  -26.9573   19.4611 C   0  0  0  0  0  0
  -24.8576  -27.7194   19.4769 C   0  0  0  0  0  0
  -23.6134  -29.8376   20.1649 C   0  0  0  0  0  0
  -25.4108  -36.3117   24.0348 C   0  0  1  0  0  0
  -20.5872  -28.3659   23.1325 C   0  0  2  0  0  0
  -20.6766  -26.9394   22.5424 C   0  0  0  0  0  0
  -19.5737  -26.6401   21.5221 C   0  0  0  0  0  0
  -18.1921  -26.7940   22.1645 C   0  0  0  0  0  0
  -19.1530  -28.8845   23.2910 C   0  0  0  0  0  0
  -18.9454  -30.1463   23.8904 C   0  0  0  0  0  0
  -17.6458  -30.6597   24.0584 C   0  0  0  0  0  0
  -25.9034  -34.9488   23.5144 C   0  0  0  0  0  0
  -16.5346  -29.9095   23.6349 C   0  0  0  0  0  0
  -16.7268  -28.6521   23.0352 C   0  0  0  0  0  0
  -26.4448  -31.6619   25.0727 C   0  0  0  0  0  0
  -25.3706  -31.3720   26.1475 C   0  0  0  0  0  0
  -27.0268  -30.3072   24.6077 C   0  0  0  0  0  0
  -27.6055  -32.4304   25.7471 C   0  0  0  0  0  0
  -27.5591  -37.1809   24.8475 C   0  0  0  0  0  0
  -21.4160  -29.3027   22.3732 N   0  0  0  0  0  0
  -26.4295  -37.3806   23.9427 N   0  0  0  0  0  0
  -24.6725  -31.0782   22.1019 N   0  0  0  0  0  0
  -23.4196  -28.8194   23.3028 O   0  0  0  0  0  0
  -28.3616  -26.6168   20.1477 O   0  0  0  0  0  0
  -26.5599  -34.8928   22.4709 O   0  0  0  0  0  0
  -23.5339  -32.1436   23.7495 O   0  0  0  0  0  0
  -29.7187  -17.9838   20.9014 C   0  0  0  0  0  0
  -31.7074  -17.0568   21.9645 C   0  0  0  0  0  0
  -31.3919  -19.4829   21.8371 C   0  0  0  0  0  0
  -30.4829  -16.8490   21.2922 C   0  0  0  0  0  0
  -30.1683  -19.3112   21.1470 C   0  0  0  0  0  0
  -32.1498  -18.3653   22.2330 C   0  0  0  0  0  0
  -38.9877  -17.9251   21.1303 C   0  0  0  0  0  0
  -34.6104  -20.6882   21.4819 C   0  0  0  0  0  0
  -37.5027  -17.9234   21.5134 C   0  0  0  0  0  0
  -36.6038  -18.4509   20.3830 C   0  0  0  0  0  0
  -29.2464  -24.2556   20.5258 C   0  0  0  0  0  0
  -28.8850  -22.7561   20.3008 C   0  0  0  0  0  0
  -35.1028  -18.3735   20.7149 C   0  0  0  0  0  0
  -28.1520  -25.1964   19.9669 C   0  0  0  0  0  0
  -29.8583  -21.7217   20.9175 C   0  0  0  0  0  0
  -30.0010  -15.5192   21.0527 N   0  0  0  0  0  0
  -34.7340  -19.2621   21.8346 N   0  0  0  0  0  0
  -33.5448  -19.6708   24.0938 O   0  0  0  0  0  0
  -34.2758  -17.3160   23.4673 O   0  0  0  0  0  0
  -29.3935  -20.3755   20.6993 O   0  0  0  0  0  0
  -33.7115  -18.6176   23.0778 S   0  0  0  0  0  0
  -31.4629  -12.4035   19.1149 H   0  0  0  0  0  0
  -30.3153  -11.3025   19.8232 H   0  0  0  0  0  0
  -29.7304  -11.7731   17.4251 H   0  0  0  0  0  0
  -29.6585  -13.4850   17.7587 H   0  0  0  0  0  0
  -27.8254  -11.3080   18.8206 H   0  0  0  0  0  0
  -27.3588  -12.6293   17.7849 H   0  0  0  0  0  0
  -27.6973  -14.2541   19.5619 H   0  0  0  0  0  0
  -28.6789  -11.9709   21.3398 H   0  0  0  0  0  0
  -28.4685  -13.6155   21.8622 H   0  0  0  0  0  0
  -25.2762   -9.5680   22.4761 H   0  0  0  0  0  0
  -24.0013   -7.4625   22.7453 H   0  0  0  0  0  0
  -21.0853   -8.8774   19.8945 H   0  0  0  0  0  0
  -22.3703  -10.9678   19.6167 H   0  0  0  0  0  0
  -21.1990   -7.6147   23.9731 H   0  0  0  0  0  0
  -21.1484   -6.0516   25.9083 H   0  0  0  0  0  0
  -22.0597   -2.7623   23.2832 H   0  0  0  0  0  0
  -22.4093  -11.9900   22.4811 H   0  0  0  0  0  0
  -21.1103  -13.1271   22.2592 H   0  0  0  0  0  0
  -24.6596  -15.8410   20.5020 H   0  0  0  0  0  0
  -26.2795  -15.6249   20.0743 H   0  0  0  0  0  0
  -26.7125  -32.5557   23.1190 H   0  0  0  0  0  0
  -25.0028  -33.9797   25.0486 H   0  0  0  0  0  0
  -22.6939  -31.3151   21.4197 H   0  0  0  0  0  0
  -23.3748  -35.9623   23.3315 H   0  0  0  0  0  0
  -24.3572  -36.8880   22.2055 H   0  0  0  0  0  0
  -23.7207  -37.6500   23.6634 H   0  0  0  0  0  0
  -26.0532  -31.5915   20.5970 H   0  0  0  0  0  0
  -26.8265  -30.8823   21.9858 H   0  0  0  0  0  0
  -28.0948  -29.0599   21.1923 H   0  0  0  0  0  0
  -25.9926  -26.0116   18.9420 H   0  0  0  0  0  0
  -23.9666  -27.3429   18.9919 H   0  0  0  0  0  0
  -23.7220  -30.6152   19.4086 H   0  0  0  0  0  0
  -22.7376  -29.2586   19.8679 H   0  0  0  0  0  0
  -25.1283  -36.1996   25.0840 H   0  0  0  0  0  0
  -20.9990  -28.3213   24.1438 H   0  0  0  0  0  0
  -20.5674  -26.2252   23.3597 H   0  0  0  0  0  0
  -21.6637  -26.7446   22.1217 H   0  0  0  0  0  0
  -19.6870  -25.6311   21.1244 H   0  0  0  0  0  0
  -19.6681  -27.3233   20.6758 H   0  0  0  0  0  0
  -17.4198  -26.6696   21.4042 H   0  0  0  0  0  0
  -18.0316  -26.0073   22.9032 H   0  0  0  0  0  0
  -19.7920  -30.7303   24.2254 H   0  0  0  0  0  0
  -17.5000  -31.6272   24.5189 H   0  0  0  0  0  0
  -15.5345  -30.3002   23.7659 H   0  0  0  0  0  0
  -15.8668  -28.0866   22.7022 H   0  0  0  0  0  0
  -24.5885  -30.7062   25.7811 H   0  0  0  0  0  0
  -24.8879  -32.2866   26.4927 H   0  0  0  0  0  0
  -25.8046  -30.8893   27.0241 H   0  0  0  0  0  0
  -26.2806  -29.6850   24.1122 H   0  0  0  0  0  0
  -27.4049  -29.7284   25.4516 H   0  0  0  0  0  0
  -27.8636  -30.4413   23.9217 H   0  0  0  0  0  0
  -27.2740  -33.3620   26.2068 H   0  0  0  0  0  0
  -28.3848  -32.6828   25.0269 H   0  0  0  0  0  0
  -28.0734  -31.8389   26.5350 H   0  0  0  0  0  0
  -28.2636  -38.0088   24.7537 H   0  0  0  0  0  0
  -28.1047  -36.2618   24.6284 H   0  0  0  0  0  0
  -27.2296  -37.1459   25.8874 H   0  0  0  0  0  0
  -20.9299  -29.8752   21.6973 H   0  0  0  0  0  0
  -26.0170  -38.2883   24.1431 H   0  0  0  0  0  0
  -28.7789  -17.8407   20.3860 H   0  0  0  0  0  0
  -32.3115  -16.2215   22.2868 H   0  0  0  0  0  0
  -31.7800  -20.4590   22.0781 H   0  0  0  0  0  0
  -39.6000  -17.5316   21.9428 H   0  0  0  0  0  0
  -39.3401  -18.9336   20.9104 H   0  0  0  0  0  0
  -39.1688  -17.3077   20.2493 H   0  0  0  0  0  0
  -35.4867  -21.0423   20.9412 H   0  0  0  0  0  0
  -34.5102  -21.3029   22.3776 H   0  0  0  0  0  0
  -33.7357  -20.8558   20.8537 H   0  0  0  0  0  0
  -37.3619  -18.5285   22.4094 H   0  0  0  0  0  0
  -37.1994  -16.9095   21.7783 H   0  0  0  0  0  0
  -36.7829  -17.8560   19.4857 H   0  0  0  0  0  0
  -36.8908  -19.4692   20.1218 H   0  0  0  0  0  0
  -30.2036  -24.4811   20.0559 H   0  0  0  0  0  0
  -29.3688  -24.4445   21.5938 H   0  0  0  0  0  0
  -28.8137  -22.5696   19.2292 H   0  0  0  0  0  0
  -27.8895  -22.5683   20.7046 H   0  0  0  0  0  0
  -34.8439  -17.3412   20.9563 H   0  0  0  0  0  0
  -34.5052  -18.6300   19.8378 H   0  0  0  0  0  0
  -27.2269  -24.9031   20.4672 H   0  0  0  0  0  0
  -28.0228  -24.9925   18.9034 H   0  0  0  0  0  0
  -29.9433  -21.9061   21.9898 H   0  0  0  0  0  0
  -30.8469  -21.8522   20.4752 H   0  0  0  0  0  0
  -29.0174  -15.3517   21.1992 H   0  0  0  0  0  0
  1 25  1  0  0  0
  1 30  2  0  0  0
  1 86  1  0  0  0
  2  3  1  0  0  0
  2 25  1  0  0  0
  2 92  1  0  0  0
  2 93  1  0  0  0
  3  4  1  0  0  0
  3 94  1  0  0  0
  3 95  1  0  0  0
  4  5  1  0  0  0
  4 96  1  0  0  0
  4 97  1  0  0  0
  5  6  1  0  0  0
  5 26  1  0  0  0
  5 98  1  0  0  0
  6 25  1  0  0  0
  6 99  1  0  0  0
  6100  1  0  0  0
  7  8  2  0  0  0
  7 26  1  0  0  0
  7 29  1  0  0  0
  8  9  1  0  0  0
  8 22  1  0  0  0
  9 10  1  0  0  0
  9 27  2  0  0  0
 10 11  2  0  0  0
 10 15  1  0  0  0
 11 12  1  0  0  0
 11101  1  0  0  0
 12 13  2  0  0  0
 12102  1  0  0  0
 13 14  1  0  0  0
 13 31  1  0  0  0
 14 15  2  0  0  0
 14103  1  0  0  0
 15104  1  0  0  0
 16 17  2  0  0  0
 16 21  1  0  0  0
 16 31  1  0  0  0
 17 18  1  0  0  0
 17105  1  0  0  0
 18 19  2  0  0  0
 18106  1  0  0  0
 19 20  1  0  0  0
 19 24  1  0  0  0
 20 21  2  0  0  0
 20107  1  0  0  0
 21 23  1  0  0  0
 22 28  1  0  0  0
 22 32  2  0  0  0
 26 27  1  0  0  0
 28108  1  0  0  0
 28109  1  0  0  0
 29110  1  0  0  0
 29111  1  0  0  0
 33 34  1  0  0  0
 33 66  1  0  0  0
 33 70  2  0  0  0
 34 36  1  0  0  0
 34 59  1  0  0  0
 34112  1  0  0  0
 35 44  2  0  0  0
 35 45  1  0  0  0
 35 68  1  0  0  0
 36 56  1  0  0  0
 36113  1  0  0  0
 37 39  1  0  0  0
 37 47  1  0  0  0
 37 66  1  0  0  0
 37114  1  0  0  0
 38 43  2  0  0  0
 38 46  1  0  0  0
 38 47  1  0  0  0
 39 64  1  0  0  0
 39 67  2  0  0  0
 40 52  1  0  0  0
 40 53  2  0  0  0
 40 58  1  0  0  0
 41115  1  0  0  0
 41116  1  0  0  0
 41117  1  0  0  0
 41 48  1  0  0  0
 42 43  1  0  0  0
 42 66  1  0  0  0
 42118  1  0  0  0
 42119  1  0  0  0
 43 44  1  0  0  0
 44120  1  0  0  0
 45 46  2  0  0  0
 45121  1  0  0  0
 46122  1  0  0  0
 47123  1  0  0  0
 47124  1  0  0  0
 48 56  1  0  0  0
 48 65  1  0  0  0
 48125  1  0  0  0
 49 50  1  0  0  0
 49 53  1  0  0  0
 49 64  1  0  0  0
 49126  1  0  0  0
 50 51  1  0  0  0
 50127  1  0  0  0
 50128  1  0  0  0
 51 52  1  0  0  0
 51129  1  0  0  0
 51130  1  0  0  0
 52131  1  0  0  0
 52132  1  0  0  0
 53 54  1  0  0  0
 54 55  2  0  0  0
 54133  1  0  0  0
 55 57  1  0  0  0
 55134  1  0  0  0
 56 69  2  0  0  0
 57 58  2  0  0  0
 57135  1  0  0  0
 58136  1  0  0  0
 59 60  1  0  0  0
 59 61  1  0  0  0
 59 62  1  0  0  0
 60137  1  0  0  0
 60138  1  0  0  0
 60139  1  0  0  0
 61140  1  0  0  0
 61141  1  0  0  0
 61142  1  0  0  0
 62143  1  0  0  0
 62144  1  0  0  0
 62145  1  0  0  0
 63 65  1  0  0  0
 63146  1  0  0  0
 63147  1  0  0  0
 63148  1  0  0  0
 64149  1  0  0  0
 65150  1  0  0  0
 68 84  1  0  0  0
 71 74  2  0  0  0
 71 75  1  0  0  0
 71151  1  0  0  0
 72 74  1  0  0  0
 72 76  2  0  0  0
 72152  1  0  0  0
 73 75  2  0  0  0
 73 76  1  0  0  0
 73153  1  0  0  0
 74 86  1  0  0  0
 75 90  1  0  0  0
 76 91  1  0  0  0
 77 79  1  0  0  0
 77154  1  0  0  0
 77155  1  0  0  0
 77156  1  0  0  0
 78 87  1  0  0  0
 78157  1  0  0  0
 78158  1  0  0  0
 78159  1  0  0  0
 79 80  1  0  0  0
 79160  1  0  0  0
 79161  1  0  0  0
 80 83  1  0  0  0
 80162  1  0  0  0
 80163  1  0  0  0
 81 82  1  0  0  0
 81 84  1  0  0  0
 81164  1  0  0  0
 81165  1  0  0  0
 82 85  1  0  0  0
 82166  1  0  0  0
 82167  1  0  0  0
 83 87  1  0  0  0
 83168  1  0  0  0
 83169  1  0  0  0
 84170  1  0  0  0
 84171  1  0  0  0
 85 90  1  0  0  0
 85172  1  0  0  0
 85173  1  0  0  0
 86174  1  0  0  0
 87 91  1  0  0  0
 88 91  2  0  0  0
 89 91  2  0  0  0
M  ISO  4   1 100  68 101  84 101  86 100
M  END
> <chiral flag>
0

> <version>
0

> <s_m_source_file>
/data/baiqing/PycharmProjects/Reinvent-master-3.2/result/LINK_invent/BTK/process_docking_weight1_custom_sum_contain_oxygen_bond_distance_aromatic_linkinvent_7_9_3/rearranged_h_0006.sdf

> <i_m_source_file_index>
77

> <r_mmod_Potential_Energy-OPLS-2005>
-150.200988769531

> <r_mmod_Stretch_Energy-OPLS-2005>
43.5378494262695

> <r_mmod_Bend_Energy-OPLS-2005>
104.329765319824

> <r_mmod_Torsional_Energy-OPLS-2005>
200.263214111328

> <r_mmod_Improper_Torsional_Energy-OPLS-2005>
6.57237720489502

> <r_mmod_Van_der_Waal_Energy-OPLS-2005>
153.705490112305

> <r_mmod_Electrostatic_Energy-OPLS-2005>
-425.521301269531

> <r_mmod_Solvation_Energy-OPLS-2005>
-251.075988769531

> <b_mmod_Minimization_Converged-OPLS-2005>
0

> <r_mmod_RMS_Derivative-OPLS-2005>
2.257080078125

$$$$
77
                    3D
 Structure written by MMmdl.
154162  0  0  1  0            999 V2000
  -30.5206  -14.9223   20.4505 C   0  0  0  0  0  0
  -30.4543  -12.5719   19.4979 C   0  0  0  0  0  0
  -29.5274  -12.5378   18.2578 C   0  0  0  0  0  0
  -28.0588  -12.3221   18.6729 C   0  0  0  0  0  0
  -27.6400  -13.2398   19.8500 C   0  0  2  0  0  0
  -28.6829  -13.2227   20.9897 C   0  0  0  0  0  0
  -25.2483  -13.8172   20.5653 C   0  0  0  0  0  0
  -24.1797  -13.0422   20.9211 C   0  0  0  0  0  0
  -24.6411  -11.6908   20.8767 C   0  0  0  0  0  0
  -23.9085  -10.4288   21.0419 C   0  0  0  0  0  0
  -24.3630   -9.4201   21.9196 C   0  0  0  0  0  0
  -23.6297   -8.2242   22.0763 C   0  0  0  0  0  0
  -22.4281   -8.0289   21.3549 C   0  0  0  0  0  0
  -21.9923   -9.0263   20.4652 C   0  0  0  0  0  0
  -22.7259  -10.2133   20.3065 C   0  0  0  0  0  0
  -21.6847   -6.0743   22.5283 C   0  0  0  0  0  0
  -21.4010   -6.5642   23.8216 C   0  0  0  0  0  0
  -21.3660   -5.6793   24.9176 C   0  0  0  0  0  0
  -21.6039   -4.3055   24.7222 C   0  0  0  0  0  0
  -21.8817   -3.8149   23.4342 C   0  0  0  0  0  0
  -21.9191   -4.6972   22.3401 C   0  0  0  0  0  0
  -22.7819  -13.5209   21.1862 C   0  0  0  0  0  0
  -22.1657   -4.2158   21.0978 F   0  0  0  0  0  0
  -21.5629   -3.4540   25.7729 F   0  0  0  0  0  0
  -29.9687  -13.6430   20.4121 N   0  0  0  0  0  0
  -26.2936  -12.9408   20.3273 N   0  0  0  0  0  0
  -25.9350  -11.6544   20.5771 N   0  0  0  0  0  0
  -22.0455  -12.8212   22.0423 N   0  0  0  0  0  0
  -25.4097  -15.1886   20.3946 N   0  0  0  0  0  0
  -31.6979  -15.0572   20.0974 O   0  0  0  0  0  0
  -21.6636   -6.8887   21.4246 O   0  0  0  0  0  0
  -22.3512  -14.5514   20.6708 O   0  0  0  0  0  0
  -24.6438  -31.8436   23.1885 C   0  0  0  0  0  0
  -25.9208  -32.4695   23.8280 C   0  0  1  0  0  0
  -27.2228  -27.1389   20.1477 C   0  0  0  0  0  0
  -25.5966  -33.8500   24.2207 N   0  0  0  0  0  0
  -23.4481  -30.4643   21.5336 C   0  0  2  0  0  0
  -24.8998  -28.8933   20.1103 C   0  0  0  0  0  0
  -22.7583  -29.4543   22.4855 C   0  0  0  0  0  0
  -18.0308  -28.1389   22.8486 C   0  0  0  0  0  0
  -24.1491  -36.7242   23.2645 C   0  0  0  0  0  0
  -26.0045  -30.7197   21.3871 C   0  0  0  0  0  0
  -26.0776  -29.3311   20.7296 C   0  0  0  0  0  0
  -27.2399  -28.4697   20.7328 C   0  0  0  0  0  0
  -26.0167  -26.8084   19.4863 C   0  0  0  0  0  0
  -24.8822  -27.6452   19.4741 C   0  0  0  0  0  0
  -23.6756  -29.7933   20.1530 C   0  0  0  0  0  0
  -25.4120  -36.3022   24.0325 C   0  0  1  0  0  0
  -20.5927  -28.3710   23.1234 C   0  0  2  0  0  0
  -20.6790  -26.9414   22.5397 C   0  0  0  0  0  0
  -19.5757  -26.6371   21.5211 C   0  0  0  0  0  0
  -18.1941  -26.7929   22.1621 C   0  0  0  0  0  0
  -19.1571  -28.8865   23.2855 C   0  0  0  0  0  0
  -18.9487  -30.1467   23.8873 C   0  0  0  0  0  0
  -17.6482  -30.6586   24.0555 C   0  0  0  0  0  0
  -25.9066  -34.9404   23.5064 C   0  0  0  0  0  0
  -16.5369  -29.9080   23.6340 C   0  0  0  0  0  0
  -16.7293  -28.6497   23.0363 C   0  0  0  0  0  0
  -26.4547  -31.6554   25.0707 C   0  0  0  0  0  0
  -25.3745  -31.3738   26.1411 C   0  0  0  0  0  0
  -27.0409  -30.2952   24.6260 C   0  0  0  0  0  0
  -27.6070  -32.4317   25.7492 C   0  0  0  0  0  0
  -27.5571  -37.1774   24.8471 C   0  0  0  0  0  0
  -21.4271  -29.3049   22.3612 N   0  0  0  0  0  0
  -26.4278  -37.3738   23.9419 N   0  0  0  0  0  0
  -24.7189  -31.0301   22.0922 N   0  0  0  0  0  0
  -23.4230  -28.8079   23.2993 O   0  0  0  0  0  0
  -28.2681  -26.1421   20.2214 O   0  0  0  0  0  0
  -26.5637  -34.8905   22.4632 O   0  0  0  0  0  0
  -23.5550  -32.1308   23.7107 O   0  0  0  0  0  0
  -28.3251  -19.6617   21.3299 C   0  0  0  0  0  0
  -30.3601  -18.4712   19.8859 C   0  0  0  0  0  0
  -28.5934  -18.2410   21.4392 C   0  0  0  0  0  0
  -30.0976  -19.9148   19.7915 C   0  0  0  0  0  0
  -29.0358  -20.5900   20.5040 C   0  0  0  0  0  0
  -29.6050  -17.5439   20.6924 C   0  0  0  0  0  0
  -28.9537  -23.3641   20.3077 C   0  0  0  0  0  0
  -27.7331  -17.4461   22.4100 C   0  0  0  0  0  0
  -30.9641  -20.7332   18.8527 C   0  0  0  0  0  0
  -27.9181  -24.6335   20.0450 C   0  0  0  0  0  0
  -28.4948  -22.0206   20.3403 N   0  0  0  0  0  0
  -29.6745  -16.0103   20.7721 N   0  0  0  0  0  0
  -30.1509  -23.6131   20.4643 O   0  0  0  0  0  0
  -31.4856  -12.7435   19.1861 H   0  0  0  0  0  0
  -30.4555  -11.6063   20.0065 H   0  0  0  0  0  0
  -29.8420  -11.7506   17.5710 H   0  0  0  0  0  0
  -29.6165  -13.4764   17.7083 H   0  0  0  0  0  0
  -27.9514  -11.2772   18.9670 H   0  0  0  0  0  0
  -27.3951  -12.4671   17.8196 H   0  0  0  0  0  0
  -27.6165  -14.2515   19.4436 H   0  0  0  0  0  0
  -28.7622  -12.2274   21.4301 H   0  0  0  0  0  0
  -28.3812  -13.8893   21.7994 H   0  0  0  0  0  0
  -25.2771   -9.5666   22.4779 H   0  0  0  0  0  0
  -23.9999   -7.4623   22.7480 H   0  0  0  0  0  0
  -21.0857   -8.8786   19.8948 H   0  0  0  0  0  0
  -22.3729  -10.9679   19.6175 H   0  0  0  0  0  0
  -21.1999   -7.6151   23.9722 H   0  0  0  0  0  0
  -21.1481   -6.0521   25.9075 H   0  0  0  0  0  0
  -22.0594   -2.7617   23.2835 H   0  0  0  0  0  0
  -22.4061  -11.9875   22.4823 H   0  0  0  0  0  0
  -21.1076  -13.1250   22.2612 H   0  0  0  0  0  0
  -24.6241  -15.8258   20.4703 H   0  0  0  0  0  0
  -26.2314  -15.6218   19.9945 H   0  0  0  0  0  0
  -26.7264  -32.5307   23.0996 H   0  0  0  0  0  0
  -25.0147  -33.9622   25.0377 H   0  0  0  0  0  0
  -22.7511  -31.2900   21.3767 H   0  0  0  0  0  0
  -23.3766  -35.9557   23.3277 H   0  0  0  0  0  0
  -24.3587  -36.8894   22.2066 H   0  0  0  0  0  0
  -23.7223  -37.6425   23.6687 H   0  0  0  0  0  0
  -26.1580  -31.4738   20.6141 H   0  0  0  0  0  0
  -26.8762  -30.7720   22.0278 H   0  0  0  0  0  0
  -28.1348  -28.7981   21.2426 H   0  0  0  0  0  0
  -25.9071  -25.8591   18.9855 H   0  0  0  0  0  0
  -23.9842  -27.3063   18.9760 H   0  0  0  0  0  0
  -23.8138  -30.5669   19.3965 H   0  0  0  0  0  0
  -22.7918  -29.2335   19.8406 H   0  0  0  0  0  0
  -25.1302  -36.1843   25.0816 H   0  0  0  0  0  0
  -21.0023  -28.3281   24.1351 H   0  0  0  0  0  0
  -20.5683  -26.2323   23.3617 H   0  0  0  0  0  0
  -21.6652  -26.7413   22.1187 H   0  0  0  0  0  0
  -19.6920  -25.6281   21.1241 H   0  0  0  0  0  0
  -19.6689  -27.3186   20.6748 H   0  0  0  0  0  0
  -17.4214  -26.6693   21.4018 H   0  0  0  0  0  0
  -18.0326  -26.0081   22.9019 H   0  0  0  0  0  0
  -19.7970  -30.7287   24.2229 H   0  0  0  0  0  0
  -17.5041  -31.6273   24.5148 H   0  0  0  0  0  0
  -15.5373  -30.2969   23.7685 H   0  0  0  0  0  0
  -15.8695  -28.0800   22.7085 H   0  0  0  0  0  0
  -24.5936  -30.7068   25.7741 H   0  0  0  0  0  0
  -24.8936  -32.2929   26.4772 H   0  0  0  0  0  0
  -25.8055  -30.8964   27.0221 H   0  0  0  0  0  0
  -26.3022  -29.6671   24.1273 H   0  0  0  0  0  0
  -27.4060  -29.7235   25.4802 H   0  0  0  0  0  0
  -27.8913  -30.4206   23.9552 H   0  0  0  0  0  0
  -27.2671  -33.3663   26.1962 H   0  0  0  0  0  0
  -28.3950  -32.6794   25.0366 H   0  0  0  0  0  0
  -28.0660  -31.8507   26.5501 H   0  0  0  0  0  0
  -28.2560  -38.0098   24.7526 H   0  0  0  0  0  0
  -28.1092  -36.2620   24.6273 H   0  0  0  0  0  0
  -27.2295  -37.1391   25.8877 H   0  0  0  0  0  0
  -20.9470  -29.8791   21.6823 H   0  0  0  0  0  0
  -26.0139  -38.2797   24.1439 H   0  0  0  0  0  0
  -27.5032  -20.0577   21.9105 H   0  0  0  0  0  0
  -31.1543  -18.0603   19.2778 H   0  0  0  0  0  0
  -27.1626  -18.0994   23.0702 H   0  0  0  0  0  0
  -28.3498  -16.8101   23.0463 H   0  0  0  0  0  0
  -27.0265  -16.8137   21.8759 H   0  0  0  0  0  0
  -31.4957  -20.1012   18.1408 H   0  0  0  0  0  0
  -31.7008  -21.3016   19.4218 H   0  0  0  0  0  0
  -30.3611  -21.4385   18.2809 H   0  0  0  0  0  0
  -27.0328  -24.4290   20.6479 H   0  0  0  0  0  0
  -27.6128  -24.5075   19.0064 H   0  0  0  0  0  0
  -27.4839  -22.0243   20.3034 H   0  0  0  0  0  0
  -28.8160  -15.6322   21.1415 H   0  0  0  0  0  0
  1 25  1  0  0  0
  1 30  2  0  0  0
  1 82  1  0  0  0
  2  3  1  0  0  0
  2 25  1  0  0  0
  2 84  1  0  0  0
  2 85  1  0  0  0
  3  4  1  0  0  0
  3 86  1  0  0  0
  3 87  1  0  0  0
  4  5  1  0  0  0
  4 88  1  0  0  0
  4 89  1  0  0  0
  5  6  1  0  0  0
  5 26  1  0  0  0
  5 90  1  0  0  0
  6 25  1  0  0  0
  6 91  1  0  0  0
  6 92  1  0  0  0
  7  8  2  0  0  0
  7 26  1  0  0  0
  7 29  1  0  0  0
  8  9  1  0  0  0
  8 22  1  0  0  0
  9 10  1  0  0  0
  9 27  2  0  0  0
 10 11  2  0  0  0
 10 15  1  0  0  0
 11 12  1  0  0  0
 11 93  1  0  0  0
 12 13  2  0  0  0
 12 94  1  0  0  0
 13 14  1  0  0  0
 13 31  1  0  0  0
 14 15  2  0  0  0
 14 95  1  0  0  0
 15 96  1  0  0  0
 16 17  2  0  0  0
 16 21  1  0  0  0
 16 31  1  0  0  0
 17 18  1  0  0  0
 17 97  1  0  0  0
 18 19  2  0  0  0
 18 98  1  0  0  0
 19 20  1  0  0  0
 19 24  1  0  0  0
 20 21  2  0  0  0
 20 99  1  0  0  0
 21 23  1  0  0  0
 22 28  1  0  0  0
 22 32  2  0  0  0
 26 27  1  0  0  0
 28100  1  0  0  0
 28101  1  0  0  0
 29102  1  0  0  0
 29103  1  0  0  0
 33 34  1  0  0  0
 33 66  1  0  0  0
 33 70  2  0  0  0
 34 36  1  0  0  0
 34 59  1  0  0  0
 34104  1  0  0  0
 35 44  2  0  0  0
 35 45  1  0  0  0
 35 68  1  0  0  0
 36 56  1  0  0  0
 36105  1  0  0  0
 37 39  1  0  0  0
 37 47  1  0  0  0
 37 66  1  0  0  0
 37106  1  0  0  0
 38 43  2  0  0  0
 38 46  1  0  0  0
 38 47  1  0  0  0
 39 64  1  0  0  0
 39 67  2  0  0  0
 40 52  1  0  0  0
 40 53  2  0  0  0
 40 58  1  0  0  0
 41107  1  0  0  0
 41108  1  0  0  0
 41109  1  0  0  0
 41 48  1  0  0  0
 42 43  1  0  0  0
 42 66  1  0  0  0
 42110  1  0  0  0
 42111  1  0  0  0
 43 44  1  0  0  0
 44112  1  0  0  0
 45 46  2  0  0  0
 45113  1  0  0  0
 46114  1  0  0  0
 47115  1  0  0  0
 47116  1  0  0  0
 48 56  1  0  0  0
 48 65  1  0  0  0
 48117  1  0  0  0
 49 50  1  0  0  0
 49 53  1  0  0  0
 49 64  1  0  0  0
 49118  1  0  0  0
 50 51  1  0  0  0
 50119  1  0  0  0
 50120  1  0  0  0
 51 52  1  0  0  0
 51121  1  0  0  0
 51122  1  0  0  0
 52123  1  0  0  0
 52124  1  0  0  0
 53 54  1  0  0  0
 54 55  2  0  0  0
 54125  1  0  0  0
 55 57  1  0  0  0
 55126  1  0  0  0
 56 69  2  0  0  0
 57 58  2  0  0  0
 57127  1  0  0  0
 58128  1  0  0  0
 59 60  1  0  0  0
 59 61  1  0  0  0
 59 62  1  0  0  0
 60129  1  0  0  0
 60130  1  0  0  0
 60131  1  0  0  0
 61132  1  0  0  0
 61133  1  0  0  0
 61134  1  0  0  0
 62135  1  0  0  0
 62136  1  0  0  0
 62137  1  0  0  0
 63 65  1  0  0  0
 63138  1  0  0  0
 63139  1  0  0  0
 63140  1  0  0  0
 64141  1  0  0  0
 65142  1  0  0  0
 68 80  1  0  0  0
 71 73  2  0  0  0
 71 75  1  0  0  0
 71143  1  0  0  0
 72 74  1  0  0  0
 72 76  2  0  0  0
 72144  1  0  0  0
 73 76  1  0  0  0
 73 78  1  0  0  0
 74 75  2  0  0  0
 74 79  1  0  0  0
 75 81  1  0  0  0
 76 82  1  0  0  0
 77 80  1  0  0  0
 77 81  1  0  0  0
 77 83  2  0  0  0
 78145  1  0  0  0
 78146  1  0  0  0
 78147  1  0  0  0
 79148  1  0  0  0
 79149  1  0  0  0
 79150  1  0  0  0
 80151  1  0  0  0
 80152  1  0  0  0
 81153  1  0  0  0
 82154  1  0  0  0
M  ISO  4   1 100  68 101  80 101  82 100
M  END
> <chiral flag>
0

> <version>
0

> <s_m_source_file>
/data/baiqing/PycharmProjects/Reinvent-master-3.2/result/LINK_invent/BTK/process_docking_weight1_custom_sum_contain_oxygen_bond_distance_aromatic_linkinvent_7_9_3/rearranged_h_0006.sdf

> <i_m_source_file_index>
78

> <r_mmod_Potential_Energy-OPLS-2005>
400.772918701172

> <r_mmod_Stretch_Energy-OPLS-2005>
226.624282836914

> <r_mmod_Bend_Energy-OPLS-2005>
269.122406005859

> <r_mmod_Torsional_Energy-OPLS-2005>
238.813201904297

> <r_mmod_Improper_Torsional_Energy-OPLS-2005>
4.67786645889282

> <r_mmod_Van_der_Waal_Energy-OPLS-2005>
129.205856323242

> <r_mmod_Electrostatic_Energy-OPLS-2005>
-405.990814208984

> <r_mmod_Solvation_Energy-OPLS-2005>
-244.963607788086

> <b_mmod_Minimization_Converged-OPLS-2005>
0

> <r_mmod_RMS_Derivative-OPLS-2005>
1.48286306858063

$$$$
78
                    3D
 Structure written by MMmdl.
154162  0  0  1  0            999 V2000
  -30.5214  -14.9116   20.4378 C   0  0  0  0  0  0
  -30.4544  -12.5629   19.4923 C   0  0  0  0  0  0
  -29.5253  -12.5336   18.2542 C   0  0  0  0  0  0
  -28.0558  -12.3232   18.6698 C   0  0  0  0  0  0
  -27.6390  -13.2392   19.8492 C   0  0  2  0  0  0
  -28.6845  -13.2173   20.9861 C   0  0  0  0  0  0
  -25.2461  -13.8169   20.5614 C   0  0  0  0  0  0
  -24.1792  -13.0421   20.9224 C   0  0  0  0  0  0
  -24.6408  -11.6909   20.8781 C   0  0  0  0  0  0
  -23.9085  -10.4287   21.0428 C   0  0  0  0  0  0
  -24.3629   -9.4194   21.9199 C   0  0  0  0  0  0
  -23.6294   -8.2234   22.0758 C   0  0  0  0  0  0
  -22.4275   -8.0284   21.3550 C   0  0  0  0  0  0
  -21.9921   -9.0263   20.4653 C   0  0  0  0  0  0
  -22.7261  -10.2137   20.3071 C   0  0  0  0  0  0
  -21.6850   -6.0735   22.5285 C   0  0  0  0  0  0
  -21.4014   -6.5638   23.8220 C   0  0  0  0  0  0
  -21.3660   -5.6790   24.9181 C   0  0  0  0  0  0
  -21.6044   -4.3053   24.7232 C   0  0  0  0  0  0
  -21.8816   -3.8146   23.4352 C   0  0  0  0  0  0
  -21.9190   -4.6962   22.3408 C   0  0  0  0  0  0
  -22.7816  -13.5210   21.1877 C   0  0  0  0  0  0
  -22.1657   -4.2148   21.0985 F   0  0  0  0  0  0
  -21.5628   -3.4539   25.7742 F   0  0  0  0  0  0
  -29.9695  -13.6343   20.4042 N   0  0  0  0  0  0
  -26.2924  -12.9408   20.3266 N   0  0  0  0  0  0
  -25.9347  -11.6550   20.5783 N   0  0  0  0  0  0
  -22.0459  -12.8211   22.0440 N   0  0  0  0  0  0
  -25.4023  -15.1867   20.3812 N   0  0  0  0  0  0
  -31.7087  -15.0350   20.1177 O   0  0  0  0  0  0
  -21.6638   -6.8881   21.4245 O   0  0  0  0  0  0
  -22.3505  -14.5515   20.6711 O   0  0  0  0  0  0
  -24.6426  -31.8458   23.1899 C   0  0  0  0  0  0
  -25.9204  -32.4703   23.8283 C   0  0  1  0  0  0
  -27.2180  -27.1525   20.1451 C   0  0  0  0  0  0
  -25.5954  -33.8508   24.2203 N   0  0  0  0  0  0
  -23.4452  -30.4671   21.5348 C   0  0  2  0  0  0
  -24.8942  -28.8985   20.1105 C   0  0  0  0  0  0
  -22.7565  -29.4557   22.4852 C   0  0  0  0  0  0
  -18.0306  -28.1393   22.8472 C   0  0  0  0  0  0
  -24.1491  -36.7262   23.2642 C   0  0  0  0  0  0
  -26.0010  -30.7252   21.3866 C   0  0  0  0  0  0
  -26.0723  -29.3382   20.7273 C   0  0  0  0  0  0
  -27.2358  -28.4822   20.7265 C   0  0  0  0  0  0
  -26.0104  -26.8120   19.4934 C   0  0  0  0  0  0
  -24.8755  -27.6480   19.4784 C   0  0  0  0  0  0
  -23.6711  -29.7997   20.1529 C   0  0  0  0  0  0
  -25.4120  -36.3033   24.0317 C   0  0  1  0  0  0
  -20.5919  -28.3720   23.1230 C   0  0  2  0  0  0
  -20.6785  -26.9422   22.5398 C   0  0  0  0  0  0
  -19.5758  -26.6379   21.5205 C   0  0  0  0  0  0
  -18.1943  -26.7931   22.1621 C   0  0  0  0  0  0
  -19.1562  -28.8873   23.2847 C   0  0  0  0  0  0
  -18.9480  -30.1470   23.8875 C   0  0  0  0  0  0
  -17.6475  -30.6587   24.0560 C   0  0  0  0  0  0
  -25.9069  -34.9409   23.5066 C   0  0  0  0  0  0
  -16.5368  -29.9082   23.6333 C   0  0  0  0  0  0
  -16.7290  -28.6502   23.0350 C   0  0  0  0  0  0
  -26.4526  -31.6565   25.0720 C   0  0  0  0  0  0
  -25.3720  -31.3751   26.1423 C   0  0  0  0  0  0
  -27.0395  -30.2962   24.6300 C   0  0  0  0  0  0
  -27.6052  -32.4334   25.7510 C   0  0  0  0  0  0
  -27.5574  -37.1787   24.8465 C   0  0  0  0  0  0
  -21.4259  -29.3054   22.3605 N   0  0  0  0  0  0
  -26.4281  -37.3746   23.9409 N   0  0  0  0  0  0
  -24.7160  -31.0331   22.0924 N   0  0  0  0  0  0
  -23.4214  -28.8100   23.2993 O   0  0  0  0  0  0
  -28.2757  -26.1750   20.2068 O   0  0  0  0  0  0
  -26.5654  -34.8903   22.4644 O   0  0  0  0  0  0
  -23.5547  -32.1324   23.7127 O   0  0  0  0  0  0
  -28.1193  -19.5690   21.2017 C   0  0  0  0  0  0
  -30.0554  -19.9649   19.9379 C   0  0  0  0  0  0
  -28.4125  -18.1560   21.2649 C   0  0  0  0  0  0
  -30.3664  -18.5266   19.9696 C   0  0  0  0  0  0
  -29.5456  -17.5318   20.6345 C   0  0  0  0  0  0
  -28.8951  -20.5659   20.5411 C   0  0  0  0  0  0
  -27.4318  -17.3231   22.0794 C   0  0  0  0  0  0
  -31.6116  -18.0713   19.2361 C   0  0  0  0  0  0
  -27.9652  -24.6537   20.1308 C   0  0  0  0  0  0
  -28.9729  -23.3129   20.2760 C   0  0  0  0  0  0
  -29.6535  -15.9987   20.6975 N   0  0  0  0  0  0
  -28.3661  -21.9309   20.5295 O   0  0  0  0  0  0
  -31.4858  -12.7351   19.1798 H   0  0  0  0  0  0
  -30.4543  -11.5982   20.0018 H   0  0  0  0  0  0
  -29.8349  -11.7462   17.5658 H   0  0  0  0  0  0
  -29.6198  -13.4724   17.7063 H   0  0  0  0  0  0
  -27.9432  -11.2783   18.9605 H   0  0  0  0  0  0
  -27.3941  -12.4758   17.8163 H   0  0  0  0  0  0
  -27.6167  -14.2509   19.4445 H   0  0  0  0  0  0
  -28.7621  -12.2213   21.4241 H   0  0  0  0  0  0
  -28.3893  -13.8824   21.7986 H   0  0  0  0  0  0
  -25.2769   -9.5660   22.4781 H   0  0  0  0  0  0
  -23.9996   -7.4619   22.7470 H   0  0  0  0  0  0
  -21.0854   -8.8799   19.8956 H   0  0  0  0  0  0
  -22.3729  -10.9685   19.6186 H   0  0  0  0  0  0
  -21.2009   -7.6146   23.9728 H   0  0  0  0  0  0
  -21.1482   -6.0516   25.9085 H   0  0  0  0  0  0
  -22.0591   -2.7608   23.2856 H   0  0  0  0  0  0
  -22.4076  -11.9881   22.4841 H   0  0  0  0  0  0
  -21.1082  -13.1253   22.2651 H   0  0  0  0  0  0
  -24.6033  -15.8090   20.4313 H   0  0  0  0  0  0
  -26.2012  -15.6097   19.9282 H   0  0  0  0  0  0
  -26.7274  -32.5314   23.1018 H   0  0  0  0  0  0
  -25.0079  -33.9623   25.0333 H   0  0  0  0  0  0
  -22.7470  -31.2927   21.3821 H   0  0  0  0  0  0
  -23.3750  -35.9597   23.3291 H   0  0  0  0  0  0
  -24.3579  -36.8907   22.2060 H   0  0  0  0  0  0
  -23.7250  -37.6456   23.6687 H   0  0  0  0  0  0
  -26.1561  -31.4812   20.6154 H   0  0  0  0  0  0
  -26.8719  -30.7735   22.0287 H   0  0  0  0  0  0
  -28.1337  -28.8152   21.2278 H   0  0  0  0  0  0
  -25.9002  -25.8616   18.9967 H   0  0  0  0  0  0
  -23.9770  -27.3069   18.9825 H   0  0  0  0  0  0
  -23.8089  -30.5760   19.3991 H   0  0  0  0  0  0
  -22.7859  -29.2432   19.8400 H   0  0  0  0  0  0
  -25.1305  -36.1862   25.0808 H   0  0  0  0  0  0
  -21.0014  -28.3309   24.1351 H   0  0  0  0  0  0
  -20.5663  -26.2337   23.3619 H   0  0  0  0  0  0
  -21.6652  -26.7413   22.1207 H   0  0  0  0  0  0
  -19.6914  -25.6285   21.1250 H   0  0  0  0  0  0
  -19.6690  -27.3175   20.6724 H   0  0  0  0  0  0
  -17.4206  -26.6671   21.4033 H   0  0  0  0  0  0
  -18.0347  -26.0082   22.9027 H   0  0  0  0  0  0
  -19.7957  -30.7292   24.2233 H   0  0  0  0  0  0
  -17.5029  -31.6263   24.5169 H   0  0  0  0  0  0
  -15.5367  -30.2974   23.7667 H   0  0  0  0  0  0
  -15.8694  -28.0813   22.7070 H   0  0  0  0  0  0
  -24.5889  -30.7111   25.7746 H   0  0  0  0  0  0
  -24.8924  -32.2935   26.4817 H   0  0  0  0  0  0
  -25.8009  -30.8940   27.0222 H   0  0  0  0  0  0
  -26.3016  -29.6681   24.1298 H   0  0  0  0  0  0
  -27.4000  -29.7262   25.4874 H   0  0  0  0  0  0
  -27.8925  -30.4198   23.9624 H   0  0  0  0  0  0
  -27.2632  -33.3641   26.2049 H   0  0  0  0  0  0
  -28.3885  -32.6888   25.0360 H   0  0  0  0  0  0
  -28.0701  -31.8492   26.5463 H   0  0  0  0  0  0
  -28.2580  -38.0093   24.7504 H   0  0  0  0  0  0
  -28.1078  -36.2620   24.6292 H   0  0  0  0  0  0
  -27.2294  -37.1437   25.8868 H   0  0  0  0  0  0
  -20.9460  -29.8792   21.6812 H   0  0  0  0  0  0
  -26.0148  -38.2812   24.1410 H   0  0  0  0  0  0
  -27.2225  -19.9117   21.6988 H   0  0  0  0  0  0
  -30.7203  -20.6211   19.3945 H   0  0  0  0  0  0
  -26.4105  -17.6666   21.9138 H   0  0  0  0  0  0
  -27.6505  -17.4304   23.1420 H   0  0  0  0  0  0
  -27.4464  -16.2618   21.8444 H   0  0  0  0  0  0
  -32.0686  -18.8849   18.6729 H   0  0  0  0  0  0
  -31.3712  -17.2746   18.5321 H   0  0  0  0  0  0
  -32.3509  -17.6972   19.9448 H   0  0  0  0  0  0
  -27.1858  -24.5043   20.8786 H   0  0  0  0  0  0
  -27.4744  -24.4917   19.1729 H   0  0  0  0  0  0
  -29.6541  -23.4987   21.1062 H   0  0  0  0  0  0
  -29.6043  -23.2509   19.3898 H   0  0  0  0  0  0
  -28.7790  -15.6047   21.0051 H   0  0  0  0  0  0
  1 25  1  0  0  0
  1 30  2  0  0  0
  1 81  1  0  0  0
  2  3  1  0  0  0
  2 25  1  0  0  0
  2 83  1  0  0  0
  2 84  1  0  0  0
  3  4  1  0  0  0
  3 85  1  0  0  0
  3 86  1  0  0  0
  4  5  1  0  0  0
  4 87  1  0  0  0
  4 88  1  0  0  0
  5  6  1  0  0  0
  5 26  1  0  0  0
  5 89  1  0  0  0
  6 25  1  0  0  0
  6 90  1  0  0  0
  6 91  1  0  0  0
  7  8  2  0  0  0
  7 26  1  0  0  0
  7 29  1  0  0  0
  8  9  1  0  0  0
  8 22  1  0  0  0
  9 10  1  0  0  0
  9 27  2  0  0  0
 10 11  2  0  0  0
 10 15  1  0  0  0
 11 12  1  0  0  0
 11 92  1  0  0  0
 12 13  2  0  0  0
 12 93  1  0  0  0
 13 14  1  0  0  0
 13 31  1  0  0  0
 14 15  2  0  0  0
 14 94  1  0  0  0
 15 95  1  0  0  0
 16 17  2  0  0  0
 16 21  1  0  0  0
 16 31  1  0  0  0
 17 18  1  0  0  0
 17 96  1  0  0  0
 18 19  2  0  0  0
 18 97  1  0  0  0
 19 20  1  0  0  0
 19 24  1  0  0  0
 20 21  2  0  0  0
 20 98  1  0  0  0
 21 23  1  0  0  0
 22 28  1  0  0  0
 22 32  2  0  0  0
 26 27  1  0  0  0
 28 99  1  0  0  0
 28100  1  0  0  0
 29101  1  0  0  0
 29102  1  0  0  0
 33 34  1  0  0  0
 33 66  1  0  0  0
 33 70  2  0  0  0
 34 36  1  0  0  0
 34 59  1  0  0  0
 34103  1  0  0  0
 35 44  2  0  0  0
 35 45  1  0  0  0
 35 68  1  0  0  0
 36 56  1  0  0  0
 36104  1  0  0  0
 37 39  1  0  0  0
 37 47  1  0  0  0
 37 66  1  0  0  0
 37105  1  0  0  0
 38 43  2  0  0  0
 38 46  1  0  0  0
 38 47  1  0  0  0
 39 64  1  0  0  0
 39 67  2  0  0  0
 40 52  1  0  0  0
 40 53  2  0  0  0
 40 58  1  0  0  0
 41106  1  0  0  0
 41107  1  0  0  0
 41108  1  0  0  0
 41 48  1  0  0  0
 42 43  1  0  0  0
 42 66  1  0  0  0
 42109  1  0  0  0
 42110  1  0  0  0
 43 44  1  0  0  0
 44111  1  0  0  0
 45 46  2  0  0  0
 45112  1  0  0  0
 46113  1  0  0  0
 47114  1  0  0  0
 47115  1  0  0  0
 48 56  1  0  0  0
 48 65  1  0  0  0
 48116  1  0  0  0
 49 50  1  0  0  0
 49 53  1  0  0  0
 49 64  1  0  0  0
 49117  1  0  0  0
 50 51  1  0  0  0
 50118  1  0  0  0
 50119  1  0  0  0
 51 52  1  0  0  0
 51120  1  0  0  0
 51121  1  0  0  0
 52122  1  0  0  0
 52123  1  0  0  0
 53 54  1  0  0  0
 54 55  2  0  0  0
 54124  1  0  0  0
 55 57  1  0  0  0
 55125  1  0  0  0
 56 69  2  0  0  0
 57 58  2  0  0  0
 57126  1  0  0  0
 58127  1  0  0  0
 59 60  1  0  0  0
 59 61  1  0  0  0
 59 62  1  0  0  0
 60128  1  0  0  0
 60129  1  0  0  0
 60130  1  0  0  0
 61131  1  0  0  0
 61132  1  0  0  0
 61133  1  0  0  0
 62134  1  0  0  0
 62135  1  0  0  0
 62136  1  0  0  0
 63 65  1  0  0  0
 63137  1  0  0  0
 63138  1  0  0  0
 63139  1  0  0  0
 64140  1  0  0  0
 65141  1  0  0  0
 68 79  1  0  0  0
 71 73  2  0  0  0
 71 76  1  0  0  0
 71142  1  0  0  0
 72 74  1  0  0  0
 72 76  2  0  0  0
 72143  1  0  0  0
 73 75  1  0  0  0
 73 77  1  0  0  0
 74 75  2  0  0  0
 74 78  1  0  0  0
 75 81  1  0  0  0
 76 82  1  0  0  0
 77144  1  0  0  0
 77145  1  0  0  0
 77146  1  0  0  0
 78147  1  0  0  0
 78148  1  0  0  0
 78149  1  0  0  0
 79 80  1  0  0  0
 79150  1  0  0  0
 79151  1  0  0  0
 80 82  1  0  0  0
 80152  1  0  0  0
 80153  1  0  0  0
 81154  1  0  0  0
M  ISO  4   1 100  68 101  79 101  81 100
M  END
> <chiral flag>
0

> <version>
0

> <s_m_source_file>
/data/baiqing/PycharmProjects/Reinvent-master-3.2/result/LINK_invent/BTK/process_docking_weight1_custom_sum_contain_oxygen_bond_distance_aromatic_linkinvent_7_9_3/rearranged_h_0006.sdf

> <i_m_source_file_index>
79

> <r_mmod_Potential_Energy-OPLS-2005>
440.882080078125

> <r_mmod_Stretch_Energy-OPLS-2005>
219.512252807617

> <r_mmod_Bend_Energy-OPLS-2005>
306.338348388672

> <r_mmod_Torsional_Energy-OPLS-2005>
217.69140625

> <r_mmod_Improper_Torsional_Energy-OPLS-2005>
4.4046368598938

> <r_mmod_Van_der_Waal_Energy-OPLS-2005>
133.55078125

> <r_mmod_Electrostatic_Energy-OPLS-2005>
-406.874145507812

> <r_mmod_Solvation_Energy-OPLS-2005>
-205.703887939453

> <b_mmod_Minimization_Converged-OPLS-2005>
0

> <r_mmod_RMS_Derivative-OPLS-2005>
0.886530339717865

$$$$
79
                    3D
 Structure written by MMmdl.
163171  0  0  1  0            999 V2000
  -30.6842  -14.5007   20.5227 C   0  0  0  0  0  0
  -30.4216  -12.3111   19.4196 C   0  0  0  0  0  0
  -29.4900  -12.4908   18.2039 C   0  0  0  0  0  0
  -28.0087  -12.3674   18.6158 C   0  0  0  0  0  0
  -27.6554  -13.2091   19.8706 C   0  0  2  0  0  0
  -28.7015  -13.0063   20.9888 C   0  0  0  0  0  0
  -25.2544  -13.8178   20.5705 C   0  0  0  0  0  0
  -24.1800  -13.0448   20.9178 C   0  0  0  0  0  0
  -24.6364  -11.6927   20.8727 C   0  0  0  0  0  0
  -23.9042  -10.4313   21.0385 C   0  0  0  0  0  0
  -24.3587   -9.4240   21.9167 C   0  0  0  0  0  0
  -23.6283   -8.2260   22.0713 C   0  0  0  0  0  0
  -22.4260   -8.0280   21.3523 C   0  0  0  0  0  0
  -21.9894   -9.0263   20.4629 C   0  0  0  0  0  0
  -22.7215  -10.2144   20.3034 C   0  0  0  0  0  0
  -21.6870   -6.0724   22.5289 C   0  0  0  0  0  0
  -21.4047   -6.5623   23.8232 C   0  0  0  0  0  0
  -21.3656   -5.6765   24.9178 C   0  0  0  0  0  0
  -21.6028   -4.3022   24.7218 C   0  0  0  0  0  0
  -21.8825   -3.8130   23.4347 C   0  0  0  0  0  0
  -21.9206   -4.6956   22.3406 C   0  0  0  0  0  0
  -22.7820  -13.5249   21.1835 C   0  0  0  0  0  0
  -22.1644   -4.2149   21.0978 F   0  0  0  0  0  0
  -21.5625   -3.4503   25.7723 F   0  0  0  0  0  0
  -30.0283  -13.3110   20.4265 N   0  0  0  0  0  0
  -26.2984  -12.9360   20.3368 N   0  0  0  0  0  0
  -25.9288  -11.6513   20.5749 N   0  0  0  0  0  0
  -22.0431  -12.8270   22.0393 N   0  0  0  0  0  0
  -25.4206  -15.1906   20.4174 N   0  0  0  0  0  0
  -31.8351  -14.6639   20.1103 O   0  0  0  0  0  0
  -21.6639   -6.8865   21.4241 O   0  0  0  0  0  0
  -22.3524  -14.5571   20.6685 O   0  0  0  0  0  0
  -24.6151  -31.8671   23.2086 C   0  0  0  0  0  0
  -25.9037  -32.4824   23.8397 C   0  0  1  0  0  0
  -27.2547  -27.4333   20.0894 C   0  0  0  0  0  0
  -25.5883  -33.8624   24.2333 N   0  0  0  0  0  0
  -23.4031  -30.4893   21.5485 C   0  0  2  0  0  0
  -24.8534  -28.9516   20.1146 C   0  0  0  0  0  0
  -22.7407  -29.4656   22.4978 C   0  0  0  0  0  0
  -18.0258  -28.1389   22.8478 C   0  0  0  0  0  0
  -24.1474  -36.7320   23.2639 C   0  0  0  0  0  0
  -25.9302  -30.8331   21.3595 C   0  0  0  0  0  0
  -26.0121  -29.4654   20.7092 C   0  0  0  0  0  0
  -27.2105  -28.7139   20.6933 C   0  0  0  0  0  0
  -26.0719  -26.9362   19.4902 C   0  0  0  0  0  0
  -24.8789  -27.6866   19.5028 C   0  0  0  0  0  0
  -23.6131  -29.8180   20.1639 C   0  0  0  0  0  0
  -25.4095  -36.3120   24.0339 C   0  0  1  0  0  0
  -20.5847  -28.3681   23.1295 C   0  0  2  0  0  0
  -20.6740  -26.9413   22.5410 C   0  0  0  0  0  0
  -19.5725  -26.6383   21.5201 C   0  0  0  0  0  0
  -18.1903  -26.7927   22.1617 C   0  0  0  0  0  0
  -19.1511  -28.8849   23.2879 C   0  0  0  0  0  0
  -18.9458  -30.1447   23.8903 C   0  0  0  0  0  0
  -17.6470  -30.6600   24.0567 C   0  0  0  0  0  0
  -25.9026  -34.9479   23.5140 C   0  0  0  0  0  0
  -16.5351  -29.9114   23.6322 C   0  0  0  0  0  0
  -16.7253  -28.6522   23.0350 C   0  0  0  0  0  0
  -26.4478  -31.6597   25.0719 C   0  0  0  0  0  0
  -25.3766  -31.3723   26.1497 C   0  0  0  0  0  0
  -27.0275  -30.3028   24.6084 C   0  0  0  0  0  0
  -27.6069  -32.4299   25.7479 C   0  0  0  0  0  0
  -27.5576  -37.1811   24.8455 C   0  0  0  0  0  0
  -21.4130  -29.3055   22.3720 N   0  0  0  0  0  0
  -26.4281  -37.3805   23.9415 N   0  0  0  0  0  0
  -24.6675  -31.0772   22.0982 N   0  0  0  0  0  0
  -23.4177  -28.8184   23.3017 O   0  0  0  0  0  0
  -28.4474  -26.7255   20.1113 O   0  0  0  0  0  0
  -26.5601  -34.8927   22.4710 O   0  0  0  0  0  0
  -23.5341  -32.1419   23.7483 O   0  0  0  0  0  0
  -29.8600  -18.8725   19.1796 C   0  0  0  0  0  0
  -31.2675  -19.0790   21.1398 C   0  0  0  0  0  0
  -30.7213  -19.6561   19.9727 C   0  0  0  0  0  0
  -29.5856  -17.5227   19.5094 C   0  0  0  0  0  0
  -31.0197  -17.7241   21.4795 C   0  0  0  0  0  0
  -30.1949  -16.9197   20.6431 C   0  0  0  0  0  0
  -29.9645  -23.2404   19.3914 C   0  0  0  0  0  0
  -28.6448  -16.7377   18.6129 C   0  0  0  0  0  0
  -30.9158  -17.6224   24.0110 C   0  0  0  0  0  0
  -31.6621  -17.1738   22.7478 C   0  0  0  0  0  0
  -31.1671  -21.0455   19.4876 C   0  0  0  0  0  0
  -29.7822  -24.6188   20.0742 C   0  0  0  0  0  0
  -28.4404  -25.3326   19.7468 C   0  0  0  0  0  0
  -29.9324  -15.5432   20.9422 N   0  0  0  0  0  0
  -30.5312  -22.2334   20.0899 N   0  0  0  0  0  0
  -29.6593  -23.1128   18.2033 O   0  0  0  0  0  0
  -31.4637  -12.4104   19.1104 H   0  0  0  0  0  0
  -30.3280  -11.3055   19.8306 H   0  0  0  0  0  0
  -29.7204  -11.7521   17.4344 H   0  0  0  0  0  0
  -29.6639  -13.4655   17.7484 H   0  0  0  0  0  0
  -27.7999  -11.3143   18.8045 H   0  0  0  0  0  0
  -27.3696  -12.6601   17.7825 H   0  0  0  0  0  0
  -27.6895  -14.2513   19.5633 H   0  0  0  0  0  0
  -28.6824  -11.9751   21.3429 H   0  0  0  0  0  0
  -28.4688  -13.6223   21.8582 H   0  0  0  0  0  0
  -25.2697   -9.5762   22.4780 H   0  0  0  0  0  0
  -24.0016   -7.4652   22.7413 H   0  0  0  0  0  0
  -21.0829   -8.8792   19.8928 H   0  0  0  0  0  0
  -22.3655  -10.9688   19.6160 H   0  0  0  0  0  0
  -21.2049   -7.6126   23.9749 H   0  0  0  0  0  0
  -21.1447   -6.0464   25.9086 H   0  0  0  0  0  0
  -22.0605   -2.7592   23.2849 H   0  0  0  0  0  0
  -22.3978  -11.9933   22.4836 H   0  0  0  0  0  0
  -21.1054  -13.1350   22.2555 H   0  0  0  0  0  0
  -24.6466  -15.8358   20.5356 H   0  0  0  0  0  0
  -26.2695  -15.6483   20.1147 H   0  0  0  0  0  0
  -26.7112  -32.5553   23.1166 H   0  0  0  0  0  0
  -25.0030  -33.9790   25.0479 H   0  0  0  0  0  0
  -22.6920  -31.3063   21.4083 H   0  0  0  0  0  0
  -23.3740  -35.9648   23.3298 H   0  0  0  0  0  0
  -24.3571  -36.8943   22.2054 H   0  0  0  0  0  0
  -23.7224  -37.6519   23.6667 H   0  0  0  0  0  0
  -26.0364  -31.5989   20.5900 H   0  0  0  0  0  0
  -26.8195  -30.8954   21.9734 H   0  0  0  0  0  0
  -28.1043  -29.1127   21.1520 H   0  0  0  0  0  0
  -26.0513  -25.9726   19.0029 H   0  0  0  0  0  0
  -23.9899  -27.2850   19.0350 H   0  0  0  0  0  0
  -23.7188  -30.5915   19.4023 H   0  0  0  0  0  0
  -22.7381  -29.2357   19.8694 H   0  0  0  0  0  0
  -25.1273  -36.1979   25.0833 H   0  0  0  0  0  0
  -20.9939  -28.3265   24.1417 H   0  0  0  0  0  0
  -20.5611  -26.2315   23.3616 H   0  0  0  0  0  0
  -21.6624  -26.7436   22.1242 H   0  0  0  0  0  0
  -19.6891  -25.6293   21.1233 H   0  0  0  0  0  0
  -19.6646  -27.3183   20.6721 H   0  0  0  0  0  0
  -17.4169  -26.6660   21.4026 H   0  0  0  0  0  0
  -18.0309  -26.0074   22.9019 H   0  0  0  0  0  0
  -19.7946  -30.7235   24.2289 H   0  0  0  0  0  0
  -17.5046  -31.6278   24.5172 H   0  0  0  0  0  0
  -15.5362  -30.3045   23.7626 H   0  0  0  0  0  0
  -15.8641  -28.0845   22.7084 H   0  0  0  0  0  0
  -24.5908  -30.7088   25.7873 H   0  0  0  0  0  0
  -24.8998  -32.2885   26.4987 H   0  0  0  0  0  0
  -25.8146  -30.8882   27.0233 H   0  0  0  0  0  0
  -26.2790  -29.6810   24.1155 H   0  0  0  0  0  0
  -27.4047  -29.7255   25.4536 H   0  0  0  0  0  0
  -27.8636  -30.4328   23.9207 H   0  0  0  0  0  0
  -27.2710  -33.3598   26.2082 H   0  0  0  0  0  0
  -28.3877  -32.6851   25.0302 H   0  0  0  0  0  0
  -28.0734  -31.8398   26.5379 H   0  0  0  0  0  0
  -28.2603  -38.0101   24.7518 H   0  0  0  0  0  0
  -28.1061  -36.2641   24.6252 H   0  0  0  0  0  0
  -27.2307  -37.1435   25.8861 H   0  0  0  0  0  0
  -20.9292  -29.8831   21.6981 H   0  0  0  0  0  0
  -26.0165  -38.2876   24.1450 H   0  0  0  0  0  0
  -29.4343  -19.3018   18.2818 H   0  0  0  0  0  0
  -31.9230  -19.6729   21.7628 H   0  0  0  0  0  0
  -28.3932  -17.2901   17.7055 H   0  0  0  0  0  0
  -27.7183  -16.5366   19.1499 H   0  0  0  0  0  0
  -29.0899  -15.7909   18.3057 H   0  0  0  0  0  0
  -31.3981  -17.2301   24.9073 H   0  0  0  0  0  0
  -29.8832  -17.2713   24.0069 H   0  0  0  0  0  0
  -30.9007  -18.7096   24.0978 H   0  0  0  0  0  0
  -32.6967  -17.5159   22.7917 H   0  0  0  0  0  0
  -31.7195  -16.0855   22.7257 H   0  0  0  0  0  0
  -31.0917  -21.0668   18.3986 H   0  0  0  0  0  0
  -32.2363  -21.1295   19.6832 H   0  0  0  0  0  0
  -30.6026  -25.2478   19.7264 H   0  0  0  0  0  0
  -29.9100  -24.5339   21.1534 H   0  0  0  0  0  0
  -27.6454  -24.8178   20.2855 H   0  0  0  0  0  0
  -28.2198  -25.2552   18.6826 H   0  0  0  0  0  0
  -28.9813  -15.3039   21.1815 H   0  0  0  0  0  0
  -30.7496  -22.4077   21.0622 H   0  0  0  0  0  0
  1 25  1  0  0  0
  1 30  2  0  0  0
  1 84  1  0  0  0
  2  3  1  0  0  0
  2 25  1  0  0  0
  2 87  1  0  0  0
  2 88  1  0  0  0
  3  4  1  0  0  0
  3 89  1  0  0  0
  3 90  1  0  0  0
  4  5  1  0  0  0
  4 91  1  0  0  0
  4 92  1  0  0  0
  5  6  1  0  0  0
  5 26  1  0  0  0
  5 93  1  0  0  0
  6 25  1  0  0  0
  6 94  1  0  0  0
  6 95  1  0  0  0
  7  8  2  0  0  0
  7 26  1  0  0  0
  7 29  1  0  0  0
  8  9  1  0  0  0
  8 22  1  0  0  0
  9 10  1  0  0  0
  9 27  2  0  0  0
 10 11  2  0  0  0
 10 15  1  0  0  0
 11 12  1  0  0  0
 11 96  1  0  0  0
 12 13  2  0  0  0
 12 97  1  0  0  0
 13 14  1  0  0  0
 13 31  1  0  0  0
 14 15  2  0  0  0
 14 98  1  0  0  0
 15 99  1  0  0  0
 16 17  2  0  0  0
 16 21  1  0  0  0
 16 31  1  0  0  0
 17 18  1  0  0  0
 17100  1  0  0  0
 18 19  2  0  0  0
 18101  1  0  0  0
 19 20  1  0  0  0
 19 24  1  0  0  0
 20 21  2  0  0  0
 20102  1  0  0  0
 21 23  1  0  0  0
 22 28  1  0  0  0
 22 32  2  0  0  0
 26 27  1  0  0  0
 28103  1  0  0  0
 28104  1  0  0  0
 29105  1  0  0  0
 29106  1  0  0  0
 33 34  1  0  0  0
 33 66  1  0  0  0
 33 70  2  0  0  0
 34 36  1  0  0  0
 34 59  1  0  0  0
 34107  1  0  0  0
 35 44  2  0  0  0
 35 45  1  0  0  0
 35 68  1  0  0  0
 36 56  1  0  0  0
 36108  1  0  0  0
 37 39  1  0  0  0
 37 47  1  0  0  0
 37 66  1  0  0  0
 37109  1  0  0  0
 38 43  2  0  0  0
 38 46  1  0  0  0
 38 47  1  0  0  0
 39 64  1  0  0  0
 39 67  2  0  0  0
 40 52  1  0  0  0
 40 53  2  0  0  0
 40 58  1  0  0  0
 41110  1  0  0  0
 41111  1  0  0  0
 41112  1  0  0  0
 41 48  1  0  0  0
 42 43  1  0  0  0
 42 66  1  0  0  0
 42113  1  0  0  0
 42114  1  0  0  0
 43 44  1  0  0  0
 44115  1  0  0  0
 45 46  2  0  0  0
 45116  1  0  0  0
 46117  1  0  0  0
 47118  1  0  0  0
 47119  1  0  0  0
 48 56  1  0  0  0
 48 65  1  0  0  0
 48120  1  0  0  0
 49 50  1  0  0  0
 49 53  1  0  0  0
 49 64  1  0  0  0
 49121  1  0  0  0
 50 51  1  0  0  0
 50122  1  0  0  0
 50123  1  0  0  0
 51 52  1  0  0  0
 51124  1  0  0  0
 51125  1  0  0  0
 52126  1  0  0  0
 52127  1  0  0  0
 53 54  1  0  0  0
 54 55  2  0  0  0
 54128  1  0  0  0
 55 57  1  0  0  0
 55129  1  0  0  0
 56 69  2  0  0  0
 57 58  2  0  0  0
 57130  1  0  0  0
 58131  1  0  0  0
 59 60  1  0  0  0
 59 61  1  0  0  0
 59 62  1  0  0  0
 60132  1  0  0  0
 60133  1  0  0  0
 60134  1  0  0  0
 61135  1  0  0  0
 61136  1  0  0  0
 61137  1  0  0  0
 62138  1  0  0  0
 62139  1  0  0  0
 62140  1  0  0  0
 63 65  1  0  0  0
 63141  1  0  0  0
 63142  1  0  0  0
 63143  1  0  0  0
 64144  1  0  0  0
 65145  1  0  0  0
 68 83  1  0  0  0
 71 73  2  0  0  0
 71 74  1  0  0  0
 71146  1  0  0  0
 72 73  1  0  0  0
 72 75  2  0  0  0
 72147  1  0  0  0
 73 81  1  0  0  0
 74 76  2  0  0  0
 74 78  1  0  0  0
 75 76  1  0  0  0
 75 80  1  0  0  0
 76 84  1  0  0  0
 77 82  1  0  0  0
 77 85  1  0  0  0
 77 86  2  0  0  0
 78148  1  0  0  0
 78149  1  0  0  0
 78150  1  0  0  0
 79 80  1  0  0  0
 79151  1  0  0  0
 79152  1  0  0  0
 79153  1  0  0  0
 80154  1  0  0  0
 80155  1  0  0  0
 81 85  1  0  0  0
 81156  1  0  0  0
 81157  1  0  0  0
 82 83  1  0  0  0
 82158  1  0  0  0
 82159  1  0  0  0
 83160  1  0  0  0
 83161  1  0  0  0
 84162  1  0  0  0
 85163  1  0  0  0
M  ISO  4   1 100  68 101  83 101  84 100
M  END
> <chiral flag>
0

> <version>
0

> <s_m_source_file>
/data/baiqing/PycharmProjects/Reinvent-master-3.2/result/LINK_invent/BTK/process_docking_weight1_custom_sum_contain_oxygen_bond_distance_aromatic_linkinvent_7_9_3/rearranged_h_0006.sdf

> <i_m_source_file_index>
80

> <r_mmod_Potential_Energy-OPLS-2005>
-150.112487792969

> <r_mmod_Stretch_Energy-OPLS-2005>
42.170654296875

> <r_mmod_Bend_Energy-OPLS-2005>
100.394477844238

> <r_mmod_Torsional_Energy-OPLS-2005>
242.489440917969

> <r_mmod_Improper_Torsional_Energy-OPLS-2005>
6.62481117248535

> <r_mmod_Van_der_Waal_Energy-OPLS-2005>
146.844909667969

> <r_mmod_Electrostatic_Energy-OPLS-2005>
-468.075286865234

> <r_mmod_Solvation_Energy-OPLS-2005>
-236.362060546875

> <b_mmod_Minimization_Converged-OPLS-2005>
0

> <r_mmod_RMS_Derivative-OPLS-2005>
3.21186661720276

$$$$
80
                    3D
 Structure written by MMmdl.
164172  0  0  1  0            999 V2000
  -30.8385  -14.2850   20.7465 C   0  0  0  0  0  0
  -30.4054  -12.2856   19.3724 C   0  0  0  0  0  0
  -29.4704  -12.5358   18.1785 C   0  0  0  0  0  0
  -28.0020  -12.3798   18.6063 C   0  0  0  0  0  0
  -27.6665  -13.2050   19.8743 C   0  0  2  0  0  0
  -28.7065  -12.9636   20.9924 C   0  0  0  0  0  0
  -25.2609  -13.8164   20.5673 C   0  0  0  0  0  0
  -24.1854  -13.0452   20.9155 C   0  0  0  0  0  0
  -24.6398  -11.6912   20.8723 C   0  0  0  0  0  0
  -23.9060  -10.4300   21.0385 C   0  0  0  0  0  0
  -24.3609   -9.4222   21.9172 C   0  0  0  0  0  0
  -23.6283   -8.2258   22.0757 C   0  0  0  0  0  0
  -22.4270   -8.0280   21.3538 C   0  0  0  0  0  0
  -21.9900   -9.0257   20.4641 C   0  0  0  0  0  0
  -22.7229  -10.2137   20.3042 C   0  0  0  0  0  0
  -21.6855   -6.0728   22.5276 C   0  0  0  0  0  0
  -21.4016   -6.5632   23.8212 C   0  0  0  0  0  0
  -21.3660   -5.6786   24.9172 C   0  0  0  0  0  0
  -21.6048   -4.3051   24.7230 C   0  0  0  0  0  0
  -21.8818   -3.8140   23.4351 C   0  0  0  0  0  0
  -21.9197   -4.6953   22.3407 C   0  0  0  0  0  0
  -22.7876  -13.5245   21.1842 C   0  0  0  0  0  0
  -22.1661   -4.2137   21.0984 F   0  0  0  0  0  0
  -21.5633   -3.4538   25.7745 F   0  0  0  0  0  0
  -30.0575  -13.2158   20.4553 N   0  0  0  0  0  0
  -26.3054  -12.9336   20.3370 N   0  0  0  0  0  0
  -25.9328  -11.6493   20.5753 N   0  0  0  0  0  0
  -22.0510  -12.8233   22.0381 N   0  0  0  0  0  0
  -25.4338  -15.1886   20.4090 N   0  0  0  0  0  0
  -31.7650  -14.6712   20.0288 O   0  0  0  0  0  0
  -21.6642   -6.8875   21.4236 O   0  0  0  0  0  0
  -22.3567  -14.5563   20.6702 O   0  0  0  0  0  0
  -24.6094  -31.8700   23.2153 C   0  0  0  0  0  0
  -25.9014  -32.4834   23.8420 C   0  0  1  0  0  0
  -27.2403  -27.4814   20.0833 C   0  0  0  0  0  0
  -25.5876  -33.8630   24.2370 N   0  0  0  0  0  0
  -23.3965  -30.4932   21.5550 C   0  0  2  0  0  0
  -24.8451  -28.9681   20.1150 C   0  0  0  0  0  0
  -22.7384  -29.4658   22.5020 C   0  0  0  0  0  0
  -18.0247  -28.1391   22.8476 C   0  0  0  0  0  0
  -24.1469  -36.7329   23.2641 C   0  0  0  0  0  0
  -25.9173  -30.8556   21.3586 C   0  0  0  0  0  0
  -26.0007  -29.4916   20.7082 C   0  0  0  0  0  0
  -27.2040  -28.7568   20.6928 C   0  0  0  0  0  0
  -26.0742  -26.9690   19.4808 C   0  0  0  0  0  0
  -24.8726  -27.7039   19.5010 C   0  0  0  0  0  0
  -23.6013  -29.8257   20.1688 C   0  0  0  0  0  0
  -25.4091  -36.3130   24.0347 C   0  0  1  0  0  0
  -20.5829  -28.3674   23.1333 C   0  0  2  0  0  0
  -20.6748  -26.9422   22.5423 C   0  0  0  0  0  0
  -19.5744  -26.6408   21.5199 C   0  0  0  0  0  0
  -18.1905  -26.7945   22.1594 C   0  0  0  0  0  0
  -19.1496  -28.8853   23.2892 C   0  0  0  0  0  0
  -18.9435  -30.1453   23.8920 C   0  0  0  0  0  0
  -17.6447  -30.6604   24.0568 C   0  0  0  0  0  0
  -25.9009  -34.9486   23.5167 C   0  0  0  0  0  0
  -16.5333  -29.9113   23.6336 C   0  0  0  0  0  0
  -16.7240  -28.6517   23.0369 C   0  0  0  0  0  0
  -26.4465  -31.6593   25.0729 C   0  0  0  0  0  0
  -25.3728  -31.3629   26.1452 C   0  0  0  0  0  0
  -27.0333  -30.3065   24.6077 C   0  0  0  0  0  0
  -27.6048  -32.4299   25.7488 C   0  0  0  0  0  0
  -27.5574  -37.1823   24.8463 C   0  0  0  0  0  0
  -21.4123  -29.3015   22.3732 N   0  0  0  0  0  0
  -26.4293  -37.3801   23.9404 N   0  0  0  0  0  0
  -24.6595  -31.0852   22.1026 N   0  0  0  0  0  0
  -23.4156  -28.8176   23.3042 O   0  0  0  0  0  0
  -28.3669  -26.6965   20.0602 O   0  0  0  0  0  0
  -26.5572  -34.8927   22.4728 O   0  0  0  0  0  0
  -23.5307  -32.1401   23.7600 O   0  0  0  0  0  0
  -29.0269  -23.3311   22.5893 C   0  0  0  0  0  0
  -29.3779  -21.9702   22.6216 C   0  0  0  0  0  0
  -26.8553  -22.7400   21.6839 C   0  0  0  0  0  0
  -27.1957  -21.3688   21.7112 C   0  0  0  0  0  0
  -27.7528  -23.7309   22.1268 C   0  0  0  0  0  0
  -28.4663  -20.9719   22.1971 C   0  0  0  0  0  0
  -31.5340  -17.0945   22.3516 C   0  0  0  0  0  0
  -30.1168  -17.6795   22.4607 C   0  0  0  0  0  0
  -31.6242  -15.6003   22.7123 C   0  0  0  0  0  0
  -30.0982  -19.2114   22.4164 C   0  0  0  0  0  0
  -29.0777  -26.5542   21.2930 C   0  0  0  0  0  0
  -28.1669  -26.1105   22.4634 C   0  0  0  0  0  0
  -26.1970  -20.3240   21.2115 C   0  0  0  0  0  0
  -30.6729  -14.7588   21.9870 N   0  0  0  0  0  0
  -27.3051  -25.0331   22.0885 O   0  0  0  0  0  0
  -28.7480  -19.6224   22.2467 O   0  0  0  0  0  0
  -25.0838  -20.8869   20.7359 F   0  0  0  0  0  0
  -26.7283  -19.5926   20.2292 F   0  0  0  0  0  0
  -25.8490  -19.5107   22.2094 F   0  0  0  0  0  0
  -31.4480  -12.3786   19.0628 H   0  0  0  0  0  0
  -30.2940  -11.2592   19.7267 H   0  0  0  0  0  0
  -29.6975  -11.8410   17.3690 H   0  0  0  0  0  0
  -29.6371  -13.5377   17.7791 H   0  0  0  0  0  0
  -27.8184  -11.3214   18.7929 H   0  0  0  0  0  0
  -27.3381  -12.6633   17.7887 H   0  0  0  0  0  0
  -27.7219  -14.2577   19.5949 H   0  0  0  0  0  0
  -28.6524  -11.9335   21.3487 H   0  0  0  0  0  0
  -28.4594  -13.5907   21.8496 H   0  0  0  0  0  0
  -25.2752   -9.5708   22.4749 H   0  0  0  0  0  0
  -23.9996   -7.4657   22.7482 H   0  0  0  0  0  0
  -21.0839   -8.8766   19.8945 H   0  0  0  0  0  0
  -22.3677  -10.9672   19.6155 H   0  0  0  0  0  0
  -21.1999   -7.6140   23.9707 H   0  0  0  0  0  0
  -21.1484   -6.0521   25.9077 H   0  0  0  0  0  0
  -22.0597   -2.7602   23.2860 H   0  0  0  0  0  0
  -22.4107  -11.9878   22.4762 H   0  0  0  0  0  0
  -21.1127  -13.1263   22.2584 H   0  0  0  0  0  0
  -24.6742  -15.8487   20.5279 H   0  0  0  0  0  0
  -26.3015  -15.6285   20.1281 H   0  0  0  0  0  0
  -26.7075  -32.5580   23.1179 H   0  0  0  0  0  0
  -24.9997  -33.9753   25.0505 H   0  0  0  0  0  0
  -22.6831  -31.3080   21.4184 H   0  0  0  0  0  0
  -23.3726  -35.9663   23.3309 H   0  0  0  0  0  0
  -24.3549  -36.8946   22.2049 H   0  0  0  0  0  0
  -23.7220  -37.6542   23.6647 H   0  0  0  0  0  0
  -26.0093  -31.6255   20.5909 H   0  0  0  0  0  0
  -26.8122  -30.9163   21.9665 H   0  0  0  0  0  0
  -28.0946  -29.1734   21.1429 H   0  0  0  0  0  0
  -26.0891  -25.9919   19.0184 H   0  0  0  0  0  0
  -23.9786  -27.2995   19.0452 H   0  0  0  0  0  0
  -23.6964  -30.5988   19.4043 H   0  0  0  0  0  0
  -22.7289  -29.2356   19.8830 H   0  0  0  0  0  0
  -25.1261  -36.2005   25.0837 H   0  0  0  0  0  0
  -20.9879  -28.3251   24.1478 H   0  0  0  0  0  0
  -20.5691  -26.2264   23.3587 H   0  0  0  0  0  0
  -21.6619  -26.7499   22.1208 H   0  0  0  0  0  0
  -19.6928  -25.6319   21.1227 H   0  0  0  0  0  0
  -19.6721  -27.3226   20.6730 H   0  0  0  0  0  0
  -17.4180  -26.6681   21.3990 H   0  0  0  0  0  0
  -18.0320  -26.0093   22.8995 H   0  0  0  0  0  0
  -19.7920  -30.7235   24.2325 H   0  0  0  0  0  0
  -17.5016  -31.6291   24.5166 H   0  0  0  0  0  0
  -15.5340  -30.3039   23.7668 H   0  0  0  0  0  0
  -15.8612  -28.0846   22.7124 H   0  0  0  0  0  0
  -24.6001  -30.6860   25.7768 H   0  0  0  0  0  0
  -24.8756  -32.2715   26.4859 H   0  0  0  0  0  0
  -25.8096  -30.8858   27.0231 H   0  0  0  0  0  0
  -26.2895  -29.6780   24.1160 H   0  0  0  0  0  0
  -27.4160  -29.7337   25.4530 H   0  0  0  0  0  0
  -27.8678  -30.4415   23.9195 H   0  0  0  0  0  0
  -27.2732  -33.3629   26.2055 H   0  0  0  0  0  0
  -28.3881  -32.6799   25.0320 H   0  0  0  0  0  0
  -28.0684  -31.8399   26.5409 H   0  0  0  0  0  0
  -28.2596  -38.0121   24.7533 H   0  0  0  0  0  0
  -28.1084  -36.2661   24.6289 H   0  0  0  0  0  0
  -27.2277  -37.1458   25.8863 H   0  0  0  0  0  0
  -20.9305  -29.8705   21.6909 H   0  0  0  0  0  0
  -26.0199  -38.2879   24.1438 H   0  0  0  0  0  0
  -29.7607  -24.0422   22.9398 H   0  0  0  0  0  0
  -30.3593  -21.7237   22.9969 H   0  0  0  0  0  0
  -25.8888  -23.0427   21.3117 H   0  0  0  0  0  0
  -32.2025  -17.6432   23.0170 H   0  0  0  0  0  0
  -31.9179  -17.2579   21.3430 H   0  0  0  0  0  0
  -29.6536  -17.3493   23.3909 H   0  0  0  0  0  0
  -29.5017  -17.2891   21.6497 H   0  0  0  0  0  0
  -31.4378  -15.4697   23.7797 H   0  0  0  0  0  0
  -32.6410  -15.2381   22.5445 H   0  0  0  0  0  0
  -30.7024  -19.5783   21.5849 H   0  0  0  0  0  0
  -30.5223  -19.5963   23.3452 H   0  0  0  0  0  0
  -29.8567  -25.8097   21.1352 H   0  0  0  0  0  0
  -29.5970  -27.4799   21.5418 H   0  0  0  0  0  0
  -27.5215  -26.9387   22.7580 H   0  0  0  0  0  0
  -28.7505  -25.8934   23.3576 H   0  0  0  0  0  0
  -29.9267  -14.3442   22.5257 H   0  0  0  0  0  0
  1 25  1  0  0  0
  1 30  2  0  0  0
  1 84  1  0  0  0
  2  3  1  0  0  0
  2 25  1  0  0  0
  2 90  1  0  0  0
  2 91  1  0  0  0
  3  4  1  0  0  0
  3 92  1  0  0  0
  3 93  1  0  0  0
  4  5  1  0  0  0
  4 94  1  0  0  0
  4 95  1  0  0  0
  5  6  1  0  0  0
  5 26  1  0  0  0
  5 96  1  0  0  0
  6 25  1  0  0  0
  6 97  1  0  0  0
  6 98  1  0  0  0
  7  8  2  0  0  0
  7 26  1  0  0  0
  7 29  1  0  0  0
  8  9  1  0  0  0
  8 22  1  0  0  0
  9 10  1  0  0  0
  9 27  2  0  0  0
 10 11  2  0  0  0
 10 15  1  0  0  0
 11 12  1  0  0  0
 11 99  1  0  0  0
 12 13  2  0  0  0
 12100  1  0  0  0
 13 14  1  0  0  0
 13 31  1  0  0  0
 14 15  2  0  0  0
 14101  1  0  0  0
 15102  1  0  0  0
 16 17  2  0  0  0
 16 21  1  0  0  0
 16 31  1  0  0  0
 17 18  1  0  0  0
 17103  1  0  0  0
 18 19  2  0  0  0
 18104  1  0  0  0
 19 20  1  0  0  0
 19 24  1  0  0  0
 20 21  2  0  0  0
 20105  1  0  0  0
 21 23  1  0  0  0
 22 28  1  0  0  0
 22 32  2  0  0  0
 26 27  1  0  0  0
 28106  1  0  0  0
 28107  1  0  0  0
 29108  1  0  0  0
 29109  1  0  0  0
 33 34  1  0  0  0
 33 66  1  0  0  0
 33 70  2  0  0  0
 34 36  1  0  0  0
 34 59  1  0  0  0
 34110  1  0  0  0
 35 44  2  0  0  0
 35 45  1  0  0  0
 35 68  1  0  0  0
 36 56  1  0  0  0
 36111  1  0  0  0
 37 39  1  0  0  0
 37 47  1  0  0  0
 37 66  1  0  0  0
 37112  1  0  0  0
 38 43  2  0  0  0
 38 46  1  0  0  0
 38 47  1  0  0  0
 39 64  1  0  0  0
 39 67  2  0  0  0
 40 52  1  0  0  0
 40 53  2  0  0  0
 40 58  1  0  0  0
 41113  1  0  0  0
 41114  1  0  0  0
 41115  1  0  0  0
 41 48  1  0  0  0
 42 43  1  0  0  0
 42 66  1  0  0  0
 42116  1  0  0  0
 42117  1  0  0  0
 43 44  1  0  0  0
 44118  1  0  0  0
 45 46  2  0  0  0
 45119  1  0  0  0
 46120  1  0  0  0
 47121  1  0  0  0
 47122  1  0  0  0
 48 56  1  0  0  0
 48 65  1  0  0  0
 48123  1  0  0  0
 49 50  1  0  0  0
 49 53  1  0  0  0
 49 64  1  0  0  0
 49124  1  0  0  0
 50 51  1  0  0  0
 50125  1  0  0  0
 50126  1  0  0  0
 51 52  1  0  0  0
 51127  1  0  0  0
 51128  1  0  0  0
 52129  1  0  0  0
 52130  1  0  0  0
 53 54  1  0  0  0
 54 55  2  0  0  0
 54131  1  0  0  0
 55 57  1  0  0  0
 55132  1  0  0  0
 56 69  2  0  0  0
 57 58  2  0  0  0
 57133  1  0  0  0
 58134  1  0  0  0
 59 60  1  0  0  0
 59 61  1  0  0  0
 59 62  1  0  0  0
 60135  1  0  0  0
 60136  1  0  0  0
 60137  1  0  0  0
 61138  1  0  0  0
 61139  1  0  0  0
 61140  1  0  0  0
 62141  1  0  0  0
 62142  1  0  0  0
 62143  1  0  0  0
 63 65  1  0  0  0
 63144  1  0  0  0
 63145  1  0  0  0
 63146  1  0  0  0
 64147  1  0  0  0
 65148  1  0  0  0
 68 81  1  0  0  0
 71 72  2  0  0  0
 71 75  1  0  0  0
 71149  1  0  0  0
 72 76  1  0  0  0
 72150  1  0  0  0
 73 74  1  0  0  0
 73 75  2  0  0  0
 73151  1  0  0  0
 74 76  2  0  0  0
 74 83  1  0  0  0
 75 85  1  0  0  0
 76 86  1  0  0  0
 77 78  1  0  0  0
 77 79  1  0  0  0
 77152  1  0  0  0
 77153  1  0  0  0
 78 80  1  0  0  0
 78154  1  0  0  0
 78155  1  0  0  0
 79 84  1  0  0  0
 79156  1  0  0  0
 79157  1  0  0  0
 80 86  1  0  0  0
 80158  1  0  0  0
 80159  1  0  0  0
 81 82  1  0  0  0
 81160  1  0  0  0
 81161  1  0  0  0
 82 85  1  0  0  0
 82162  1  0  0  0
 82163  1  0  0  0
 83 87  1  0  0  0
 83 88  1  0  0  0
 83 89  1  0  0  0
 84164  1  0  0  0
M  ISO  4   1 100  68 101  81 101  84 100
M  END
> <chiral flag>
0

> <version>
0

> <s_m_source_file>
/data/baiqing/PycharmProjects/Reinvent-master-3.2/result/LINK_invent/BTK/process_docking_weight1_custom_sum_contain_oxygen_bond_distance_aromatic_linkinvent_7_9_3/rearranged_h_0006.sdf

> <i_m_source_file_index>
81

> <r_mmod_Potential_Energy-OPLS-2005>
-35.8830604553223

> <r_mmod_Stretch_Energy-OPLS-2005>
33.3381958007812

> <r_mmod_Bend_Energy-OPLS-2005>
107.08927154541

> <r_mmod_Torsional_Energy-OPLS-2005>
210.344635009766

> <r_mmod_Improper_Torsional_Energy-OPLS-2005>
4.71339750289917

> <r_mmod_Van_der_Waal_Energy-OPLS-2005>
158.535766601562

> <r_mmod_Electrostatic_Energy-OPLS-2005>
-347.153350830078

> <r_mmod_Solvation_Energy-OPLS-2005>
-210.908905029297

> <b_mmod_Minimization_Converged-OPLS-2005>
0

> <r_mmod_RMS_Derivative-OPLS-2005>
2.54137873649597

$$$$
81
                    3D
 Structure written by MMmdl.
155162  0  0  1  0            999 V2000
  -30.6653  -14.6705   20.4908 C   0  0  0  0  0  0
  -30.4120  -12.4162   19.4720 C   0  0  0  0  0  0
  -29.5051  -12.5224   18.2287 C   0  0  0  0  0  0
  -28.0277  -12.3553   18.6218 C   0  0  0  0  0  0
  -27.6408  -13.2344   19.8418 C   0  0  2  0  0  0
  -28.6744  -13.1660   20.9890 C   0  0  0  0  0  0
  -25.2487  -13.8175   20.5537 C   0  0  0  0  0  0
  -24.1778  -13.0462   20.9127 C   0  0  0  0  0  0
  -24.6389  -11.6923   20.8746 C   0  0  0  0  0  0
  -23.9039  -10.4304   21.0467 C   0  0  0  0  0  0
  -24.3613   -9.4230   21.9217 C   0  0  0  0  0  0
  -23.6307   -8.2247   22.0783 C   0  0  0  0  0  0
  -22.4284   -8.0273   21.3557 C   0  0  0  0  0  0
  -21.9901   -9.0245   20.4658 C   0  0  0  0  0  0
  -22.7218  -10.2144   20.3081 C   0  0  0  0  0  0
  -21.6850   -6.0736   22.5290 C   0  0  0  0  0  0
  -21.4024   -6.5628   23.8233 C   0  0  0  0  0  0
  -21.3688   -5.6786   24.9193 C   0  0  0  0  0  0
  -21.6033   -4.3038   24.7258 C   0  0  0  0  0  0
  -21.8834   -3.8134   23.4367 C   0  0  0  0  0  0
  -21.9194   -4.6941   22.3439 C   0  0  0  0  0  0
  -22.7821  -13.5255   21.1862 C   0  0  0  0  0  0
  -22.1653   -4.2139   21.1009 F   0  0  0  0  0  0
  -21.5638   -3.4531   25.7782 F   0  0  0  0  0  0
  -30.0045  -13.4628   20.4356 N   0  0  0  0  0  0
  -26.2913  -12.9401   20.3134 N   0  0  0  0  0  0
  -25.9302  -11.6537   20.5653 N   0  0  0  0  0  0
  -22.0450  -12.8315   22.0414 N   0  0  0  0  0  0
  -25.4173  -15.1889   20.3839 N   0  0  0  0  0  0
  -31.7392  -14.8129   19.8968 O   0  0  0  0  0  0
  -21.6631   -6.8888   21.4267 O   0  0  0  0  0  0
  -22.3543  -14.5593   20.6741 O   0  0  0  0  0  0
  -24.6351  -31.8581   23.2010 C   0  0  0  0  0  0
  -25.9191  -32.4793   23.8340 C   0  0  1  0  0  0
  -27.2003  -27.2458   20.1073 C   0  0  0  0  0  0
  -25.6005  -33.8584   24.2275 N   0  0  0  0  0  0
  -23.4315  -30.4827   21.5468 C   0  0  2  0  0  0
  -24.8759  -28.9377   20.1048 C   0  0  0  0  0  0
  -22.7524  -29.4628   22.4918 C   0  0  0  0  0  0
  -18.0312  -28.1410   22.8483 C   0  0  0  0  0  0
  -24.1501  -36.7274   23.2633 C   0  0  0  0  0  0
  -25.9822  -30.7560   21.3934 C   0  0  0  0  0  0
  -26.0491  -29.3801   20.7303 C   0  0  0  0  0  0
  -27.2170  -28.5444   20.7262 C   0  0  0  0  0  0
  -26.0127  -26.8998   19.4251 C   0  0  0  0  0  0
  -24.8660  -27.7066   19.4386 C   0  0  0  0  0  0
  -23.6499  -29.8260   20.1599 C   0  0  0  0  0  0
  -25.4138  -36.3088   24.0325 C   0  0  1  0  0  0
  -20.5921  -28.3747   23.1256 C   0  0  2  0  0  0
  -20.6831  -26.9475   22.5382 C   0  0  0  0  0  0
  -19.5786  -26.6413   21.5215 C   0  0  0  0  0  0
  -18.1961  -26.7957   22.1620 C   0  0  0  0  0  0
  -19.1565  -28.8895   23.2865 C   0  0  0  0  0  0
  -18.9486  -30.1489   23.8890 C   0  0  0  0  0  0
  -17.6486  -30.6612   24.0577 C   0  0  0  0  0  0
  -25.9073  -34.9469   23.5093 C   0  0  0  0  0  0
  -16.5378  -29.9112   23.6347 C   0  0  0  0  0  0
  -16.7296  -28.6531   23.0367 C   0  0  0  0  0  0
  -26.4553  -31.6614   25.0720 C   0  0  0  0  0  0
  -25.3755  -31.3775   26.1430 C   0  0  0  0  0  0
  -27.0422  -30.3040   24.6220 C   0  0  0  0  0  0
  -27.6113  -32.4366   25.7464 C   0  0  0  0  0  0
  -27.5594  -37.1794   24.8461 C   0  0  0  0  0  0
  -21.4229  -29.3091   22.3643 N   0  0  0  0  0  0
  -26.4308  -37.3794   23.9415 N   0  0  0  0  0  0
  -24.7025  -31.0504   22.1025 N   0  0  0  0  0  0
  -23.4214  -28.8181   23.3032 O   0  0  0  0  0  0
  -28.2493  -26.2908   20.1605 O   0  0  0  0  0  0
  -26.5607  -34.8936   22.4628 O   0  0  0  0  0  0
  -23.5508  -32.1441   23.7282 O   0  0  0  0  0  0
  -30.6017  -15.7354   22.5789 C   0  0  0  0  0  0
  -28.9533  -23.6874   20.2132 C   0  0  0  0  0  0
  -31.5748  -14.6696   23.1413 C   0  0  0  0  0  0
  -27.8680  -24.8360   19.9599 C   0  0  0  0  0  0
  -28.9451  -19.6526   20.4466 C   0  0  0  0  0  0
  -29.9229  -18.3842   20.7194 C   0  0  0  0  0  0
  -29.4949  -21.1543   20.6971 C   0  0  0  0  0  0
  -29.3486  -16.8692   20.7368 C   0  0  0  0  0  0
  -28.5944  -22.3669   20.4645 N   0  0  0  0  0  0
  -30.1879  -15.6991   21.2782 N   0  0  0  0  0  0
  -30.2243  -16.6119   23.3633 O   0  0  0  0  0  0
  -30.1460  -23.9962   20.1283 O   0  0  0  0  0  0
  -31.4586  -12.5051   19.1752 H   0  0  0  0  0  0
  -30.3201  -11.4337   19.9362 H   0  0  0  0  0  0
  -29.7791  -11.7725   17.4868 H   0  0  0  0  0  0
  -29.6508  -13.4907   17.7468 H   0  0  0  0  0  0
  -27.8489  -11.3012   18.8357 H   0  0  0  0  0  0
  -27.3850  -12.5944   17.7720 H   0  0  0  0  0  0
  -27.6377  -14.2618   19.4754 H   0  0  0  0  0  0
  -28.6695  -12.1893   21.4747 H   0  0  0  0  0  0
  -28.3865  -13.8898   21.7538 H   0  0  0  0  0  0
  -25.2784   -9.5712   22.4784 H   0  0  0  0  0  0
  -24.0008   -7.4660   22.7518 H   0  0  0  0  0  0
  -21.0815   -8.8784   19.8994 H   0  0  0  0  0  0
  -22.3664  -10.9691   19.6196 H   0  0  0  0  0  0
  -21.2009   -7.6146   23.9745 H   0  0  0  0  0  0
  -21.1492   -6.0508   25.9108 H   0  0  0  0  0  0
  -22.0589   -2.7586   23.2880 H   0  0  0  0  0  0
  -22.3888  -11.9899   22.4778 H   0  0  0  0  0  0
  -21.1126  -13.1494   22.2680 H   0  0  0  0  0  0
  -24.6326  -15.8307   20.3948 H   0  0  0  0  0  0
  -26.2502  -15.6046   19.9929 H   0  0  0  0  0  0
  -26.7238  -32.5433   23.1054 H   0  0  0  0  0  0
  -25.0259  -33.9744   25.0507 H   0  0  0  0  0  0
  -22.7296  -31.3074   21.4060 H   0  0  0  0  0  0
  -23.3790  -35.9570   23.3288 H   0  0  0  0  0  0
  -24.3585  -36.8906   22.2041 H   0  0  0  0  0  0
  -23.7216  -37.6464   23.6656 H   0  0  0  0  0  0
  -26.1295  -31.5158   20.6246 H   0  0  0  0  0  0
  -26.8578  -30.8029   22.0275 H   0  0  0  0  0  0
  -28.1049  -28.8684   21.2528 H   0  0  0  0  0  0
  -25.9247  -25.9797   18.8711 H   0  0  0  0  0  0
  -23.9837  -27.3692   18.9130 H   0  0  0  0  0  0
  -23.7816  -30.6104   19.4126 H   0  0  0  0  0  0
  -22.7664  -29.2655   19.8484 H   0  0  0  0  0  0
  -25.1309  -36.1931   25.0814 H   0  0  0  0  0  0
  -21.0005  -28.3347   24.1385 H   0  0  0  0  0  0
  -20.5836  -26.2348   23.3591 H   0  0  0  0  0  0
  -21.6690  -26.7577   22.1120 H   0  0  0  0  0  0
  -19.6971  -25.6322   21.1271 H   0  0  0  0  0  0
  -19.6719  -27.3209   20.6734 H   0  0  0  0  0  0
  -17.4243  -26.6718   21.4012 H   0  0  0  0  0  0
  -18.0359  -26.0106   22.9014 H   0  0  0  0  0  0
  -19.7962  -30.7310   24.2261 H   0  0  0  0  0  0
  -17.5050  -31.6294   24.5173 H   0  0  0  0  0  0
  -15.5388  -30.3020   23.7685 H   0  0  0  0  0  0
  -15.8690  -28.0851   22.7099 H   0  0  0  0  0  0
  -24.5827  -30.7292   25.7684 H   0  0  0  0  0  0
  -24.9081  -32.2971   26.4957 H   0  0  0  0  0  0
  -25.8013  -30.8782   27.0140 H   0  0  0  0  0  0
  -26.3012  -29.6749   24.1275 H   0  0  0  0  0  0
  -27.4169  -29.7346   25.4732 H   0  0  0  0  0  0
  -27.8864  -30.4344   23.9443 H   0  0  0  0  0  0
  -27.2727  -33.3635   26.2103 H   0  0  0  0  0  0
  -28.3859  -32.7006   25.0249 H   0  0  0  0  0  0
  -28.0878  -31.8479   26.5317 H   0  0  0  0  0  0
  -28.2611  -38.0097   24.7561 H   0  0  0  0  0  0
  -28.1103  -36.2640   24.6236 H   0  0  0  0  0  0
  -27.2310  -37.1373   25.8863 H   0  0  0  0  0  0
  -20.9441  -29.8757   21.6778 H   0  0  0  0  0  0
  -26.0189  -38.2864   24.1444 H   0  0  0  0  0  0
  -31.0267  -13.7562   23.3762 H   0  0  0  0  0  0
  -32.0670  -15.0082   24.0513 H   0  0  0  0  0  0
  -32.3799  -14.4075   22.4504 H   0  0  0  0  0  0
  -26.9696  -24.6007   20.5392 H   0  0  0  0  0  0
  -27.5849  -24.6940   18.9144 H   0  0  0  0  0  0
  -28.0573  -19.5347   21.0747 H   0  0  0  0  0  0
  -28.5883  -19.5877   19.4155 H   0  0  0  0  0  0
  -30.4270  -18.5667   21.6679 H   0  0  0  0  0  0
  -30.7093  -18.4038   19.9604 H   0  0  0  0  0  0
  -30.4185  -21.2997   20.1341 H   0  0  0  0  0  0
  -29.8022  -21.1956   21.7437 H   0  0  0  0  0  0
  -29.0098  -16.6087   19.7321 H   0  0  0  0  0  0
  -28.4370  -16.8739   21.3354 H   0  0  0  0  0  0
  -27.6058  -22.1974   20.6145 H   0  0  0  0  0  0
  1 25  1  0  0  0
  1 30  2  0  0  0
  1 80  1  0  0  0
  2  3  1  0  0  0
  2 25  1  0  0  0
  2 83  1  0  0  0
  2 84  1  0  0  0
  3  4  1  0  0  0
  3 85  1  0  0  0
  3 86  1  0  0  0
  4  5  1  0  0  0
  4 87  1  0  0  0
  4 88  1  0  0  0
  5  6  1  0  0  0
  5 26  1  0  0  0
  5 89  1  0  0  0
  6 25  1  0  0  0
  6 90  1  0  0  0
  6 91  1  0  0  0
  7  8  2  0  0  0
  7 26  1  0  0  0
  7 29  1  0  0  0
  8  9  1  0  0  0
  8 22  1  0  0  0
  9 10  1  0  0  0
  9 27  2  0  0  0
 10 11  2  0  0  0
 10 15  1  0  0  0
 11 12  1  0  0  0
 11 92  1  0  0  0
 12 13  2  0  0  0
 12 93  1  0  0  0
 13 14  1  0  0  0
 13 31  1  0  0  0
 14 15  2  0  0  0
 14 94  1  0  0  0
 15 95  1  0  0  0
 16 17  2  0  0  0
 16 21  1  0  0  0
 16 31  1  0  0  0
 17 18  1  0  0  0
 17 96  1  0  0  0
 18 19  2  0  0  0
 18 97  1  0  0  0
 19 20  1  0  0  0
 19 24  1  0  0  0
 20 21  2  0  0  0
 20 98  1  0  0  0
 21 23  1  0  0  0
 22 28  1  0  0  0
 22 32  2  0  0  0
 26 27  1  0  0  0
 28 99  1  0  0  0
 28100  1  0  0  0
 29101  1  0  0  0
 29102  1  0  0  0
 33 34  1  0  0  0
 33 66  1  0  0  0
 33 70  2  0  0  0
 34 36  1  0  0  0
 34 59  1  0  0  0
 34103  1  0  0  0
 35 44  2  0  0  0
 35 45  1  0  0  0
 35 68  1  0  0  0
 36 56  1  0  0  0
 36104  1  0  0  0
 37 39  1  0  0  0
 37 47  1  0  0  0
 37 66  1  0  0  0
 37105  1  0  0  0
 38 43  2  0  0  0
 38 46  1  0  0  0
 38 47  1  0  0  0
 39 64  1  0  0  0
 39 67  2  0  0  0
 40 52  1  0  0  0
 40 53  2  0  0  0
 40 58  1  0  0  0
 41106  1  0  0  0
 41107  1  0  0  0
 41108  1  0  0  0
 41 48  1  0  0  0
 42 43  1  0  0  0
 42 66  1  0  0  0
 42109  1  0  0  0
 42110  1  0  0  0
 43 44  1  0  0  0
 44111  1  0  0  0
 45 46  2  0  0  0
 45112  1  0  0  0
 46113  1  0  0  0
 47114  1  0  0  0
 47115  1  0  0  0
 48 56  1  0  0  0
 48 65  1  0  0  0
 48116  1  0  0  0
 49 50  1  0  0  0
 49 53  1  0  0  0
 49 64  1  0  0  0
 49117  1  0  0  0
 50 51  1  0  0  0
 50118  1  0  0  0
 50119  1  0  0  0
 51 52  1  0  0  0
 51120  1  0  0  0
 51121  1  0  0  0
 52122  1  0  0  0
 52123  1  0  0  0
 53 54  1  0  0  0
 54 55  2  0  0  0
 54124  1  0  0  0
 55 57  1  0  0  0
 55125  1  0  0  0
 56 69  2  0  0  0
 57 58  2  0  0  0
 57126  1  0  0  0
 58127  1  0  0  0
 59 60  1  0  0  0
 59 61  1  0  0  0
 59 62  1  0  0  0
 60128  1  0  0  0
 60129  1  0  0  0
 60130  1  0  0  0
 61131  1  0  0  0
 61132  1  0  0  0
 61133  1  0  0  0
 62134  1  0  0  0
 62135  1  0  0  0
 62136  1  0  0  0
 63 65  1  0  0  0
 63137  1  0  0  0
 63138  1  0  0  0
 63139  1  0  0  0
 64140  1  0  0  0
 65141  1  0  0  0
 68 74  1  0  0  0
 71 73  1  0  0  0
 71 80  1  0  0  0
 71 81  2  0  0  0
 72 74  1  0  0  0
 72 79  1  0  0  0
 72 82  2  0  0  0
 73142  1  0  0  0
 73143  1  0  0  0
 73144  1  0  0  0
 74145  1  0  0  0
 74146  1  0  0  0
 75 76  1  0  0  0
 75 77  1  0  0  0
 75147  1  0  0  0
 75148  1  0  0  0
 76 78  1  0  0  0
 76149  1  0  0  0
 76150  1  0  0  0
 77 79  1  0  0  0
 77151  1  0  0  0
 77152  1  0  0  0
 78 80  1  0  0  0
 78153  1  0  0  0
 78154  1  0  0  0
 79155  1  0  0  0
M  ISO  4   1 100  68 101  74 101  80 100
M  END
> <chiral flag>
0

> <version>
0

> <s_m_source_file>
/data/baiqing/PycharmProjects/Reinvent-master-3.2/result/LINK_invent/BTK/process_docking_weight1_custom_sum_contain_oxygen_bond_distance_aromatic_linkinvent_7_9_3/rearranged_h_0006.sdf

> <i_m_source_file_index>
82

> <r_mmod_Potential_Energy-OPLS-2005>
226.13117980957

> <r_mmod_Stretch_Energy-OPLS-2005>
130.876037597656

> <r_mmod_Bend_Energy-OPLS-2005>
164.8466796875

> <r_mmod_Torsional_Energy-OPLS-2005>
278.013000488281

> <r_mmod_Improper_Torsional_Energy-OPLS-2005>
3.63271331787109

> <r_mmod_Van_der_Waal_Energy-OPLS-2005>
140.017913818359

> <r_mmod_Electrostatic_Energy-OPLS-2005>
-344.258728027344

> <r_mmod_Solvation_Energy-OPLS-2005>
-231.458358764648

> <b_mmod_Minimization_Converged-OPLS-2005>
0

> <r_mmod_RMS_Derivative-OPLS-2005>
7.3453688621521

$$$$
82
                    3D
 Structure written by MMmdl.
148156  0  0  1  0            999 V2000
  -30.5205  -15.0264   20.4016 C   0  0  0  0  0  0
  -30.4388  -12.6399   19.5030 C   0  0  0  0  0  0
  -29.5228  -12.5359   18.2613 C   0  0  0  0  0  0
  -28.0594  -12.3085   18.6834 C   0  0  0  0  0  0
  -27.6237  -13.2547   19.8321 C   0  0  2  0  0  0
  -28.6657  -13.3235   20.9682 C   0  0  0  0  0  0
  -25.2437  -13.8224   20.5717 C   0  0  0  0  0  0
  -24.1766  -13.0437   20.9241 C   0  0  0  0  0  0
  -24.6393  -11.6927   20.8761 C   0  0  0  0  0  0
  -23.9081  -10.4293   21.0409 C   0  0  0  0  0  0
  -24.3628   -9.4206   21.9186 C   0  0  0  0  0  0
  -23.6298   -8.2243   22.0754 C   0  0  0  0  0  0
  -22.4281   -8.0282   21.3544 C   0  0  0  0  0  0
  -21.9920   -9.0257   20.4646 C   0  0  0  0  0  0
  -22.7253  -10.2134   20.3057 C   0  0  0  0  0  0
  -21.6855   -6.0736   22.5278 C   0  0  0  0  0  0
  -21.4016   -6.5640   23.8211 C   0  0  0  0  0  0
  -21.3659   -5.6792   24.9173 C   0  0  0  0  0  0
  -21.6044   -4.3055   24.7224 C   0  0  0  0  0  0
  -21.8819   -3.8146   23.4346 C   0  0  0  0  0  0
  -21.9193   -4.6963   22.3401 C   0  0  0  0  0  0
  -22.7786  -13.5202   21.1892 C   0  0  0  0  0  0
  -22.1661   -4.2149   21.0980 F   0  0  0  0  0  0
  -21.5628   -3.4538   25.7738 F   0  0  0  0  0  0
  -29.9294  -13.7564   20.3577 N   0  0  0  0  0  0
  -26.2861  -12.9466   20.3233 N   0  0  0  0  0  0
  -25.9326  -11.6590   20.5739 N   0  0  0  0  0  0
  -22.0439  -12.8187   22.0446 N   0  0  0  0  0  0
  -25.4080  -15.1955   20.4126 N   0  0  0  0  0  0
  -31.7341  -15.0537   20.1650 O   0  0  0  0  0  0
  -21.6642   -6.8880   21.4240 O   0  0  0  0  0  0
  -22.3467  -14.5505   20.6734 O   0  0  0  0  0  0
  -24.6491  -31.8384   23.1832 C   0  0  0  0  0  0
  -25.9238  -32.4664   23.8242 C   0  0  1  0  0  0
  -27.2152  -27.0784   20.1593 C   0  0  0  0  0  0
  -25.5962  -33.8472   24.2155 N   0  0  0  0  0  0
  -23.4556  -30.4559   21.5300 C   0  0  2  0  0  0
  -24.9054  -28.8722   20.1108 C   0  0  0  0  0  0
  -22.7597  -29.4517   22.4836 C   0  0  0  0  0  0
  -18.0309  -28.1399   22.8473 C   0  0  0  0  0  0
  -24.1492  -36.7241   23.2644 C   0  0  0  0  0  0
  -26.0157  -30.6939   21.3903 C   0  0  0  0  0  0
  -26.0858  -29.2996   20.7319 C   0  0  0  0  0  0
  -27.2411  -28.4207   20.7352 C   0  0  0  0  0  0
  -26.0064  -26.7659   19.4989 C   0  0  0  0  0  0
  -24.8820  -27.6210   19.4772 C   0  0  0  0  0  0
  -23.6855  -29.7822   20.1511 C   0  0  0  0  0  0
  -25.4127  -36.3013   24.0311 C   0  0  1  0  0  0
  -20.5926  -28.3729   23.1221 C   0  0  2  0  0  0
  -20.6792  -26.9426   22.5402 C   0  0  0  0  0  0
  -19.5765  -26.6380   21.5212 C   0  0  0  0  0  0
  -18.1946  -26.7934   22.1624 C   0  0  0  0  0  0
  -19.1567  -28.8883   23.2836 C   0  0  0  0  0  0
  -18.9483  -30.1477   23.8866 C   0  0  0  0  0  0
  -17.6479  -30.6594   24.0557 C   0  0  0  0  0  0
  -25.9082  -34.9391   23.5047 C   0  0  0  0  0  0
  -16.5369  -29.9084   23.6340 C   0  0  0  0  0  0
  -16.7293  -28.6504   23.0359 C   0  0  0  0  0  0
  -26.4538  -31.6555   25.0710 C   0  0  0  0  0  0
  -25.3705  -31.3765   26.1393 C   0  0  0  0  0  0
  -27.0414  -30.2943   24.6337 C   0  0  0  0  0  0
  -27.6054  -32.4336   25.7503 C   0  0  0  0  0  0
  -27.5574  -37.1776   24.8466 C   0  0  0  0  0  0
  -21.4282  -29.3046   22.3587 N   0  0  0  0  0  0
  -26.4284  -37.3733   23.9409 N   0  0  0  0  0  0
  -24.7272  -31.0188   22.0892 N   0  0  0  0  0  0
  -23.4213  -28.8070   23.3012 O   0  0  0  0  0  0
  -28.2523  -26.0582   20.2291 O   0  0  0  0  0  0
  -26.5674  -34.8900   22.4630 O   0  0  0  0  0  0
  -23.5597  -32.1286   23.7018 O   0  0  0  0  0  0
  -31.7700  -19.5441   20.5721 C   0  0  0  0  0  0
  -31.3857  -18.1810   20.5604 C   0  0  0  0  0  0
  -30.8520  -20.6180   20.4816 C   0  0  0  0  0  0
  -29.1018  -18.9472   20.3640 C   0  0  0  0  0  0
  -30.0374  -17.7691   20.4575 C   0  0  0  0  0  0
  -29.4615  -20.4115   20.3680 C   0  0  0  0  0  0
  -27.9614  -24.5038   20.1070 C   0  0  0  0  0  0
  -28.9765  -23.1286   20.3248 C   0  0  0  0  0  0
  -29.7366  -16.2366   20.4835 N   0  0  0  0  0  0
  -28.5804  -21.6011   20.2654 O   0  0  0  0  0  0
  -31.4693  -12.8061   19.1854 H   0  0  0  0  0  0
  -30.4485  -11.7011   20.0590 H   0  0  0  0  0  0
  -29.8554  -11.7267   17.6098 H   0  0  0  0  0  0
  -29.5967  -13.4529   17.6746 H   0  0  0  0  0  0
  -27.9707  -11.2716   19.0096 H   0  0  0  0  0  0
  -27.3938  -12.4159   17.8261 H   0  0  0  0  0  0
  -27.5734  -14.2472   19.3833 H   0  0  0  0  0  0
  -28.7736  -12.3592   21.4670 H   0  0  0  0  0  0
  -28.3527  -14.0363   21.7330 H   0  0  0  0  0  0
  -25.2770   -9.5681   22.4766 H   0  0  0  0  0  0
  -24.0004   -7.4634   22.7476 H   0  0  0  0  0  0
  -21.0852   -8.8780   19.8951 H   0  0  0  0  0  0
  -22.3712  -10.9674   19.6168 H   0  0  0  0  0  0
  -21.2010   -7.6148   23.9715 H   0  0  0  0  0  0
  -21.1481   -6.0522   25.9077 H   0  0  0  0  0  0
  -22.0598   -2.7609   23.2846 H   0  0  0  0  0  0
  -22.4066  -11.9853   22.4835 H   0  0  0  0  0  0
  -21.1053  -13.1199   22.2651 H   0  0  0  0  0  0
  -24.6338  -15.8423   20.5186 H   0  0  0  0  0  0
  -26.2411  -15.6362   20.0460 H   0  0  0  0  0  0
  -26.7302  -32.5250   23.0964 H   0  0  0  0  0  0
  -25.0079  -33.9576   25.0283 H   0  0  0  0  0  0
  -22.7612  -31.2836   21.3714 H   0  0  0  0  0  0
  -23.3762  -35.9565   23.3289 H   0  0  0  0  0  0
  -24.3575  -36.8895   22.2061 H   0  0  0  0  0  0
  -23.7242  -37.6428   23.6698 H   0  0  0  0  0  0
  -26.1785  -31.4453   20.6166 H   0  0  0  0  0  0
  -26.8831  -30.7448   22.0368 H   0  0  0  0  0  0
  -28.1389  -28.7436   21.2432 H   0  0  0  0  0  0
  -25.8933  -25.8099   19.0111 H   0  0  0  0  0  0
  -23.9815  -27.2887   18.9791 H   0  0  0  0  0  0
  -23.8280  -30.5554   19.3951 H   0  0  0  0  0  0
  -22.7984  -29.2283   19.8384 H   0  0  0  0  0  0
  -25.1317  -36.1831   25.0803 H   0  0  0  0  0  0
  -21.0014  -28.3324   24.1344 H   0  0  0  0  0  0
  -20.5683  -26.2343   23.3628 H   0  0  0  0  0  0
  -21.6656  -26.7424   22.1200 H   0  0  0  0  0  0
  -19.6927  -25.6283   21.1261 H   0  0  0  0  0  0
  -19.6704  -27.3175   20.6729 H   0  0  0  0  0  0
  -17.4214  -26.6677   21.4029 H   0  0  0  0  0  0
  -18.0345  -26.0085   22.9030 H   0  0  0  0  0  0
  -19.7960  -30.7300   24.2221 H   0  0  0  0  0  0
  -17.5033  -31.6271   24.5163 H   0  0  0  0  0  0
  -15.5368  -30.2975   23.7683 H   0  0  0  0  0  0
  -15.8694  -28.0812   22.7090 H   0  0  0  0  0  0
  -24.5893  -30.7105   25.7712 H   0  0  0  0  0  0
  -24.8886  -32.2953   26.4742 H   0  0  0  0  0  0
  -25.7970  -30.8987   27.0222 H   0  0  0  0  0  0
  -26.3047  -29.6649   24.1331 H   0  0  0  0  0  0
  -27.3989  -29.7263   25.4937 H   0  0  0  0  0  0
  -27.8970  -30.4161   23.9693 H   0  0  0  0  0  0
  -27.2638  -33.3668   26.1994 H   0  0  0  0  0  0
  -28.3910  -32.6847   25.0363 H   0  0  0  0  0  0
  -28.0671  -31.8519   26.5491 H   0  0  0  0  0  0
  -28.2576  -38.0085   24.7513 H   0  0  0  0  0  0
  -28.1083  -36.2614   24.6292 H   0  0  0  0  0  0
  -27.2290  -37.1419   25.8868 H   0  0  0  0  0  0
  -20.9504  -29.8756   21.6755 H   0  0  0  0  0  0
  -26.0146  -38.2798   24.1416 H   0  0  0  0  0  0
  -32.8222  -19.7769   20.6574 H   0  0  0  0  0  0
  -32.1724  -17.4461   20.6451 H   0  0  0  0  0  0
  -31.2468  -21.6234   20.4994 H   0  0  0  0  0  0
  -28.0487  -18.7195   20.2832 H   0  0  0  0  0  0
  -27.1135  -24.3371   20.7719 H   0  0  0  0  0  0
  -27.5561  -24.3759   19.1037 H   0  0  0  0  0  0
  -29.4489  -23.2554   21.2989 H   0  0  0  0  0  0
  -29.7877  -23.2451   19.6062 H   0  0  0  0  0  0
  -28.7533  -16.0263   20.5640 H   0  0  0  0  0  0
  1 25  1  0  0  0
  1 30  2  0  0  0
  1 79  1  0  0  0
  2  3  1  0  0  0
  2 25  1  0  0  0
  2 81  1  0  0  0
  2 82  1  0  0  0
  3  4  1  0  0  0
  3 83  1  0  0  0
  3 84  1  0  0  0
  4  5  1  0  0  0
  4 85  1  0  0  0
  4 86  1  0  0  0
  5  6  1  0  0  0
  5 26  1  0  0  0
  5 87  1  0  0  0
  6 25  1  0  0  0
  6 88  1  0  0  0
  6 89  1  0  0  0
  7  8  2  0  0  0
  7 26  1  0  0  0
  7 29  1  0  0  0
  8  9  1  0  0  0
  8 22  1  0  0  0
  9 10  1  0  0  0
  9 27  2  0  0  0
 10 11  2  0  0  0
 10 15  1  0  0  0
 11 12  1  0  0  0
 11 90  1  0  0  0
 12 13  2  0  0  0
 12 91  1  0  0  0
 13 14  1  0  0  0
 13 31  1  0  0  0
 14 15  2  0  0  0
 14 92  1  0  0  0
 15 93  1  0  0  0
 16 17  2  0  0  0
 16 21  1  0  0  0
 16 31  1  0  0  0
 17 18  1  0  0  0
 17 94  1  0  0  0
 18 19  2  0  0  0
 18 95  1  0  0  0
 19 20  1  0  0  0
 19 24  1  0  0  0
 20 21  2  0  0  0
 20 96  1  0  0  0
 21 23  1  0  0  0
 22 28  1  0  0  0
 22 32  2  0  0  0
 26 27  1  0  0  0
 28 97  1  0  0  0
 28 98  1  0  0  0
 29 99  1  0  0  0
 29100  1  0  0  0
 33 34  1  0  0  0
 33 66  1  0  0  0
 33 70  2  0  0  0
 34 36  1  0  0  0
 34 59  1  0  0  0
 34101  1  0  0  0
 35 44  2  0  0  0
 35 45  1  0  0  0
 35 68  1  0  0  0
 36 56  1  0  0  0
 36102  1  0  0  0
 37 39  1  0  0  0
 37 47  1  0  0  0
 37 66  1  0  0  0
 37103  1  0  0  0
 38 43  2  0  0  0
 38 46  1  0  0  0
 38 47  1  0  0  0
 39 64  1  0  0  0
 39 67  2  0  0  0
 40 52  1  0  0  0
 40 53  2  0  0  0
 40 58  1  0  0  0
 41104  1  0  0  0
 41105  1  0  0  0
 41106  1  0  0  0
 41 48  1  0  0  0
 42 43  1  0  0  0
 42 66  1  0  0  0
 42107  1  0  0  0
 42108  1  0  0  0
 43 44  1  0  0  0
 44109  1  0  0  0
 45 46  2  0  0  0
 45110  1  0  0  0
 46111  1  0  0  0
 47112  1  0  0  0
 47113  1  0  0  0
 48 56  1  0  0  0
 48 65  1  0  0  0
 48114  1  0  0  0
 49 50  1  0  0  0
 49 53  1  0  0  0
 49 64  1  0  0  0
 49115  1  0  0  0
 50 51  1  0  0  0
 50116  1  0  0  0
 50117  1  0  0  0
 51 52  1  0  0  0
 51118  1  0  0  0
 51119  1  0  0  0
 52120  1  0  0  0
 52121  1  0  0  0
 53 54  1  0  0  0
 54 55  2  0  0  0
 54122  1  0  0  0
 55 57  1  0  0  0
 55123  1  0  0  0
 56 69  2  0  0  0
 57 58  2  0  0  0
 57124  1  0  0  0
 58125  1  0  0  0
 59 60  1  0  0  0
 59 61  1  0  0  0
 59 62  1  0  0  0
 60126  1  0  0  0
 60127  1  0  0  0
 60128  1  0  0  0
 61129  1  0  0  0
 61130  1  0  0  0
 61131  1  0  0  0
 62132  1  0  0  0
 62133  1  0  0  0
 62134  1  0  0  0
 63 65  1  0  0  0
 63135  1  0  0  0
 63136  1  0  0  0
 63137  1  0  0  0
 64138  1  0  0  0
 65139  1  0  0  0
 68 77  1  0  0  0
 71 72  2  0  0  0
 71 73  1  0  0  0
 71140  1  0  0  0
 72 75  1  0  0  0
 72141  1  0  0  0
 73 76  2  0  0  0
 73142  1  0  0  0
 74 75  2  0  0  0
 74 76  1  0  0  0
 74143  1  0  0  0
 75 79  1  0  0  0
 76 80  1  0  0  0
 77 78  1  0  0  0
 77144  1  0  0  0
 77145  1  0  0  0
 78 80  1  0  0  0
 78146  1  0  0  0
 78147  1  0  0  0
 79148  1  0  0  0
M  ISO  4   1 100  68 101  77 101  79 100
M  END
> <chiral flag>
0

> <version>
0

> <s_m_source_file>
/data/baiqing/PycharmProjects/Reinvent-master-3.2/result/LINK_invent/BTK/process_docking_weight1_custom_sum_contain_oxygen_bond_distance_aromatic_linkinvent_7_9_3/rearranged_h_0006.sdf

> <i_m_source_file_index>
83

> <r_mmod_Potential_Energy-OPLS-2005>
646.360778808594

> <r_mmod_Stretch_Energy-OPLS-2005>
330.501342773438

> <r_mmod_Bend_Energy-OPLS-2005>
281.674163818359

> <r_mmod_Torsional_Energy-OPLS-2005>
210.216598510742

> <r_mmod_Improper_Torsional_Energy-OPLS-2005>
4.87754726409912

> <r_mmod_Van_der_Waal_Energy-OPLS-2005>
132.894073486328

> <r_mmod_Electrostatic_Energy-OPLS-2005>
-348.155517578125

> <r_mmod_Solvation_Energy-OPLS-2005>
-214.931076049805

> <b_mmod_Minimization_Converged-OPLS-2005>
0

> <r_mmod_RMS_Derivative-OPLS-2005>
0.254653602838516

$$$$
83
                    3D
 Structure written by MMmdl.
183191  0  0  1  0            999 V2000
  -30.6930  -14.4179   20.6209 C   0  0  0  0  0  0
  -30.4289  -12.2873   19.4035 C   0  0  0  0  0  0
  -29.4964  -12.5186   18.1959 C   0  0  0  0  0  0
  -28.0144  -12.3800   18.6040 C   0  0  0  0  0  0
  -27.6667  -13.1931   19.8788 C   0  0  2  0  0  0
  -28.7020  -12.9138   20.9904 C   0  0  0  0  0  0
  -25.2612  -13.8130   20.5645 C   0  0  0  0  0  0
  -24.1847  -13.0426   20.9128 C   0  0  0  0  0  0
  -24.6374  -11.6881   20.8681 C   0  0  0  0  0  0
  -23.9038  -10.4277   21.0380 C   0  0  0  0  0  0
  -24.3594   -9.4202   21.9166 C   0  0  0  0  0  0
  -23.6268   -8.2243   22.0760 C   0  0  0  0  0  0
  -22.4251   -8.0275   21.3551 C   0  0  0  0  0  0
  -21.9875   -9.0247   20.4656 C   0  0  0  0  0  0
  -22.7206  -10.2122   20.3044 C   0  0  0  0  0  0
  -21.6855   -6.0717   22.5267 C   0  0  0  0  0  0
  -21.4026   -6.5626   23.8201 C   0  0  0  0  0  0
  -21.3659   -5.6781   24.9168 C   0  0  0  0  0  0
  -21.6041   -4.3042   24.7222 C   0  0  0  0  0  0
  -21.8822   -3.8133   23.4345 C   0  0  0  0  0  0
  -21.9198   -4.6946   22.3398 C   0  0  0  0  0  0
  -22.7872  -13.5241   21.1801 C   0  0  0  0  0  0
  -22.1661   -4.2131   21.0978 F   0  0  0  0  0  0
  -21.5628   -3.4531   25.7741 F   0  0  0  0  0  0
  -30.0417  -13.2341   20.4576 N   0  0  0  0  0  0
  -26.3032  -12.9270   20.3328 N   0  0  0  0  0  0
  -25.9290  -11.6439   20.5697 N   0  0  0  0  0  0
  -22.0513  -12.8252   22.0376 N   0  0  0  0  0  0
  -25.4371  -15.1853   20.4098 N   0  0  0  0  0  0
  -31.8002  -14.6458   20.1214 O   0  0  0  0  0  0
  -21.6640   -6.8859   21.4228 O   0  0  0  0  0  0
  -22.3549  -14.5547   20.6653 O   0  0  0  0  0  0
  -24.6085  -31.8705   23.2109 C   0  0  0  0  0  0
  -25.8998  -32.4825   23.8402 C   0  0  1  0  0  0
  -27.2431  -27.4792   20.1045 C   0  0  0  0  0  0
  -25.5871  -33.8621   24.2331 N   0  0  0  0  0  0
  -23.3969  -30.4916   21.5500 C   0  0  2  0  0  0
  -24.8481  -28.9614   20.1134 C   0  0  0  0  0  0
  -22.7393  -29.4674   22.5012 C   0  0  0  0  0  0
  -18.0278  -28.1380   22.8509 C   0  0  0  0  0  0
  -24.1478  -36.7323   23.2639 C   0  0  0  0  0  0
  -25.9185  -30.8496   21.3580 C   0  0  0  0  0  0
  -26.0006  -29.4863   20.7111 C   0  0  0  0  0  0
  -27.2023  -28.7515   20.7077 C   0  0  0  0  0  0
  -26.0830  -26.9555   19.4986 C   0  0  0  0  0  0
  -24.8825  -27.6933   19.5030 C   0  0  0  0  0  0
  -23.6042  -29.8196   20.1653 C   0  0  0  0  0  0
  -25.4096  -36.3110   24.0338 C   0  0  1  0  0  0
  -20.5856  -28.3666   23.1336 C   0  0  2  0  0  0
  -20.6756  -26.9403   22.5427 C   0  0  0  0  0  0
  -19.5735  -26.6393   21.5226 C   0  0  0  0  0  0
  -18.1921  -26.7932   22.1641 C   0  0  0  0  0  0
  -19.1525  -28.8845   23.2917 C   0  0  0  0  0  0
  -18.9448  -30.1452   23.8920 C   0  0  0  0  0  0
  -17.6446  -30.6584   24.0584 C   0  0  0  0  0  0
  -25.9026  -34.9472   23.5136 C   0  0  0  0  0  0
  -16.5336  -29.9089   23.6332 C   0  0  0  0  0  0
  -16.7269  -28.6514   23.0344 C   0  0  0  0  0  0
  -26.4453  -31.6595   25.0719 C   0  0  0  0  0  0
  -25.3709  -31.3709   26.1479 C   0  0  0  0  0  0
  -27.0297  -30.3048   24.6066 C   0  0  0  0  0  0
  -27.6038  -32.4317   25.7455 C   0  0  0  0  0  0
  -27.5581  -37.1812   24.8464 C   0  0  0  0  0  0
  -21.4128  -29.3038   22.3746 N   0  0  0  0  0  0
  -26.4285  -37.3795   23.9423 N   0  0  0  0  0  0
  -24.6598  -31.0836   22.0993 N   0  0  0  0  0  0
  -23.4201  -28.8234   23.3045 O   0  0  0  0  0  0
  -28.3990  -26.7459   20.1315 O   0  0  0  0  0  0
  -26.5596  -34.8916   22.4700 O   0  0  0  0  0  0
  -23.5280  -32.1459   23.7495 O   0  0  0  0  0  0
  -30.0880  -19.4934   21.5566 C   0  0  0  0  0  0
  -29.6728  -18.6822   22.5581 C   0  0  0  0  0  0
  -30.0982  -16.7096   21.3398 C   0  0  0  0  0  0
  -30.5533  -17.5728   20.1436 C   0  0  0  0  0  0
  -30.3250  -26.8235   22.6698 C   0  0  0  0  0  0
  -33.2351  -25.9965   23.4941 C   0  0  0  0  0  0
  -32.6284  -20.2174   19.7216 C   0  0  0  0  0  0
  -30.0250  -21.0203   21.6551 C   0  0  0  0  0  0
  -31.8156  -24.2142   24.4853 C   0  0  0  0  0  0
  -29.8555  -25.6557   21.7932 C   0  0  0  0  0  0
  -30.8908  -26.4950   24.0594 C   0  0  0  0  0  0
  -34.3013  -24.9697   23.0752 C   0  0  0  0  0  0
  -31.2153  -19.7819   19.3149 C   0  0  0  0  0  0
  -34.9182  -25.2935   21.6920 C   0  0  0  0  0  0
  -35.2663  -24.0427   20.8671 C   0  0  0  0  0  0
  -34.0174  -23.3531   20.2894 C   0  0  0  0  0  0
  -34.3265  -22.0354   19.5638 C   0  0  0  0  0  0
  -28.4362  -25.8287   21.2256 C   0  0  0  0  0  0
  -29.6991  -17.2969   22.4283 N   0  0  0  0  0  0
  -30.5826  -18.9232   20.3464 N   0  0  0  0  0  0
  -29.9750  -15.3217   21.3079 N   0  0  0  0  0  0
  -33.0783  -21.3678   19.2041 N   0  0  0  0  0  0
  -32.0384  -25.5728   23.9719 N   0  0  0  0  0  0
  -30.8312  -17.0517   19.0563 O   0  0  0  0  0  0
  -30.2532  -27.9921   22.2817 O   0  0  0  0  0  0
  -33.4798  -27.1932   23.3201 O   0  0  0  0  0  0
  -33.2981  -19.5296   20.4958 O   0  0  0  0  0  0
  -29.0666  -19.2889   24.0598 Cl  0  0  0  0  0  0
  -31.4731  -12.3958   19.1055 H   0  0  0  0  0  0
  -30.3323  -11.2631   19.7672 H   0  0  0  0  0  0
  -29.7312  -11.8112   17.3986 H   0  0  0  0  0  0
  -29.6736  -13.5125   17.7792 H   0  0  0  0  0  0
  -27.8145  -11.3217   18.7745 H   0  0  0  0  0  0
  -27.3696  -12.6829   17.7782 H   0  0  0  0  0  0
  -27.7297  -14.2492   19.6127 H   0  0  0  0  0  0
  -28.6690  -11.8603   21.2733 H   0  0  0  0  0  0
  -28.4500  -13.4537   21.9038 H   0  0  0  0  0  0
  -25.2747   -9.5691   22.4718 H   0  0  0  0  0  0
  -23.9988   -7.4641   22.7482 H   0  0  0  0  0  0
  -21.0804   -8.8754   19.8961 H   0  0  0  0  0  0
  -22.3660  -10.9651   19.6141 H   0  0  0  0  0  0
  -21.2027   -7.6139   23.9697 H   0  0  0  0  0  0
  -21.1474   -6.0520   25.9070 H   0  0  0  0  0  0
  -22.0603   -2.7596   23.2855 H   0  0  0  0  0  0
  -22.4132  -11.9928   22.4789 H   0  0  0  0  0  0
  -21.1134  -13.1296   22.2579 H   0  0  0  0  0  0
  -24.6735  -15.8425   20.5263 H   0  0  0  0  0  0
  -26.2933  -15.6257   20.0979 H   0  0  0  0  0  0
  -26.7070  -32.5572   23.1175 H   0  0  0  0  0  0
  -24.9981  -33.9773   25.0445 H   0  0  0  0  0  0
  -22.6854  -31.3068   21.4091 H   0  0  0  0  0  0
  -23.3713  -35.9685   23.3304 H   0  0  0  0  0  0
  -24.3574  -36.8939   22.2058 H   0  0  0  0  0  0
  -23.7258  -37.6536   23.6654 H   0  0  0  0  0  0
  -26.0191  -31.6142   20.5874 H   0  0  0  0  0  0
  -26.8102  -30.9088   21.9691 H   0  0  0  0  0  0
  -28.0914  -29.1538   21.1731 H   0  0  0  0  0  0
  -26.1100  -25.9813   19.0305 H   0  0  0  0  0  0
  -23.9949  -27.2859   19.0387 H   0  0  0  0  0  0
  -23.7034  -30.5920   19.4027 H   0  0  0  0  0  0
  -22.7324  -29.2291   19.8782 H   0  0  0  0  0  0
  -25.1258  -36.1978   25.0829 H   0  0  0  0  0  0
  -20.9955  -28.3228   24.1449 H   0  0  0  0  0  0
  -20.5657  -26.2269   23.3608 H   0  0  0  0  0  0
  -21.6631  -26.7450   22.1217 H   0  0  0  0  0  0
  -19.6885  -25.6317   21.1229 H   0  0  0  0  0  0
  -19.6653  -27.3222   20.6768 H   0  0  0  0  0  0
  -17.4178  -26.6689   21.4041 H   0  0  0  0  0  0
  -18.0316  -26.0059   22.9015 H   0  0  0  0  0  0
  -19.7914  -30.7283   24.2269 H   0  0  0  0  0  0
  -17.4996  -31.6264   24.5194 H   0  0  0  0  0  0
  -15.5339  -30.2996   23.7640 H   0  0  0  0  0  0
  -15.8675  -28.0852   22.7022 H   0  0  0  0  0  0
  -24.5845  -30.7092   25.7845 H   0  0  0  0  0  0
  -24.8909  -32.2856   26.4970 H   0  0  0  0  0  0
  -25.8046  -30.8854   27.0228 H   0  0  0  0  0  0
  -26.2848  -29.6817   24.1103 H   0  0  0  0  0  0
  -27.4078  -29.7296   25.4531 H   0  0  0  0  0  0
  -27.8683  -30.4415   23.9224 H   0  0  0  0  0  0
  -27.2679  -33.3625   26.2047 H   0  0  0  0  0  0
  -28.3831  -32.6872   25.0254 H   0  0  0  0  0  0
  -28.0728  -31.8418   26.5347 H   0  0  0  0  0  0
  -28.2603  -38.0103   24.7521 H   0  0  0  0  0  0
  -28.1061  -36.2643   24.6251 H   0  0  0  0  0  0
  -27.2304  -37.1438   25.8864 H   0  0  0  0  0  0
  -20.9277  -29.8754   21.6969 H   0  0  0  0  0  0
  -26.0164  -38.2872   24.1390 H   0  0  0  0  0  0
  -29.3198  -21.3463   22.4194 H   0  0  0  0  0  0
  -29.6770  -21.4974   20.7416 H   0  0  0  0  0  0
  -31.0014  -21.4244   21.9202 H   0  0  0  0  0  0
  -31.7551  -23.4876   23.6743 H   0  0  0  0  0  0
  -30.8973  -24.1246   25.0652 H   0  0  0  0  0  0
  -32.6300  -23.9156   25.1480 H   0  0  0  0  0  0
  -29.8733  -24.7568   22.4083 H   0  0  0  0  0  0
  -30.5742  -25.4945   20.9896 H   0  0  0  0  0  0
  -30.0808  -26.0920   24.6668 H   0  0  0  0  0  0
  -31.1947  -27.4190   24.5556 H   0  0  0  0  0  0
  -33.8786  -23.9693   23.0522 H   0  0  0  0  0  0
  -35.0808  -24.9325   23.8365 H   0  0  0  0  0  0
  -31.3137  -19.2764   18.3541 H   0  0  0  0  0  0
  -30.5949  -20.6419   19.0733 H   0  0  0  0  0  0
  -35.8172  -25.8929   21.8416 H   0  0  0  0  0  0
  -34.2488  -25.9209   21.0999 H   0  0  0  0  0  0
  -35.8378  -23.3450   21.4819 H   0  0  0  0  0  0
  -35.9228  -24.3279   20.0437 H   0  0  0  0  0  0
  -33.5148  -24.0371   19.6037 H   0  0  0  0  0  0
  -33.3023  -23.1507   21.0856 H   0  0  0  0  0  0
  -34.9474  -21.3987   20.1969 H   0  0  0  0  0  0
  -34.9036  -22.2265   18.6582 H   0  0  0  0  0  0
  -27.7646  -26.1312   22.0340 H   0  0  0  0  0  0
  -28.0705  -24.8644   20.8722 H   0  0  0  0  0  0
  -29.1918  -14.9366   21.8077 H   0  0  0  0  0  0
  -32.4710  -21.8561   18.5588 H   0  0  0  0  0  0
  1 25  1  0  0  0
  1 30  2  0  0  0
  1 91  1  0  0  0
  2  3  1  0  0  0
  2 25  1  0  0  0
  2 99  1  0  0  0
  2100  1  0  0  0
  3  4  1  0  0  0
  3101  1  0  0  0
  3102  1  0  0  0
  4  5  1  0  0  0
  4103  1  0  0  0
  4104  1  0  0  0
  5  6  1  0  0  0
  5 26  1  0  0  0
  5105  1  0  0  0
  6 25  1  0  0  0
  6106  1  0  0  0
  6107  1  0  0  0
  7  8  2  0  0  0
  7 26  1  0  0  0
  7 29  1  0  0  0
  8  9  1  0  0  0
  8 22  1  0  0  0
  9 10  1  0  0  0
  9 27  2  0  0  0
 10 11  2  0  0  0
 10 15  1  0  0  0
 11 12  1  0  0  0
 11108  1  0  0  0
 12 13  2  0  0  0
 12109  1  0  0  0
 13 14  1  0  0  0
 13 31  1  0  0  0
 14 15  2  0  0  0
 14110  1  0  0  0
 15111  1  0  0  0
 16 17  2  0  0  0
 16 21  1  0  0  0
 16 31  1  0  0  0
 17 18  1  0  0  0
 17112  1  0  0  0
 18 19  2  0  0  0
 18113  1  0  0  0
 19 20  1  0  0  0
 19 24  1  0  0  0
 20 21  2  0  0  0
 20114  1  0  0  0
 21 23  1  0  0  0
 22 28  1  0  0  0
 22 32  2  0  0  0
 26 27  1  0  0  0
 28115  1  0  0  0
 28116  1  0  0  0
 29117  1  0  0  0
 29118  1  0  0  0
 33 34  1  0  0  0
 33 66  1  0  0  0
 33 70  2  0  0  0
 34 36  1  0  0  0
 34 59  1  0  0  0
 34119  1  0  0  0
 35 44  2  0  0  0
 35 45  1  0  0  0
 35 68  1  0  0  0
 36 56  1  0  0  0
 36120  1  0  0  0
 37 39  1  0  0  0
 37 47  1  0  0  0
 37 66  1  0  0  0
 37121  1  0  0  0
 38 43  2  0  0  0
 38 46  1  0  0  0
 38 47  1  0  0  0
 39 64  1  0  0  0
 39 67  2  0  0  0
 40 52  1  0  0  0
 40 53  2  0  0  0
 40 58  1  0  0  0
 41122  1  0  0  0
 41123  1  0  0  0
 41124  1  0  0  0
 41 48  1  0  0  0
 42 43  1  0  0  0
 42 66  1  0  0  0
 42125  1  0  0  0
 42126  1  0  0  0
 43 44  1  0  0  0
 44127  1  0  0  0
 45 46  2  0  0  0
 45128  1  0  0  0
 46129  1  0  0  0
 47130  1  0  0  0
 47131  1  0  0  0
 48 56  1  0  0  0
 48 65  1  0  0  0
 48132  1  0  0  0
 49 50  1  0  0  0
 49 53  1  0  0  0
 49 64  1  0  0  0
 49133  1  0  0  0
 50 51  1  0  0  0
 50134  1  0  0  0
 50135  1  0  0  0
 51 52  1  0  0  0
 51136  1  0  0  0
 51137  1  0  0  0
 52138  1  0  0  0
 52139  1  0  0  0
 53 54  1  0  0  0
 54 55  2  0  0  0
 54140  1  0  0  0
 55 57  1  0  0  0
 55141  1  0  0  0
 56 69  2  0  0  0
 57 58  2  0  0  0
 57142  1  0  0  0
 58143  1  0  0  0
 59 60  1  0  0  0
 59 61  1  0  0  0
 59 62  1  0  0  0
 60144  1  0  0  0
 60145  1  0  0  0
 60146  1  0  0  0
 61147  1  0  0  0
 61148  1  0  0  0
 61149  1  0  0  0
 62150  1  0  0  0
 62151  1  0  0  0
 62152  1  0  0  0
 63 65  1  0  0  0
 63153  1  0  0  0
 63154  1  0  0  0
 63155  1  0  0  0
 64156  1  0  0  0
 65157  1  0  0  0
 68 88  1  0  0  0
 71 72  2  0  0  0
 71 78  1  0  0  0
 71 90  1  0  0  0
 72 89  1  0  0  0
 72 98  1  0  0  0
 73 74  1  0  0  0
 73 89  2  0  0  0
 73 91  1  0  0  0
 74 90  1  0  0  0
 74 94  2  0  0  0
 75 80  1  0  0  0
 75 81  1  0  0  0
 75 95  2  0  0  0
 76 82  1  0  0  0
 76 93  1  0  0  0
 76 96  2  0  0  0
 77 83  1  0  0  0
 77 92  1  0  0  0
 77 97  2  0  0  0
 78158  1  0  0  0
 78159  1  0  0  0
 78160  1  0  0  0
 79 93  1  0  0  0
 79161  1  0  0  0
 79162  1  0  0  0
 79163  1  0  0  0
 80 88  1  0  0  0
 80164  1  0  0  0
 80165  1  0  0  0
 81 93  1  0  0  0
 81166  1  0  0  0
 81167  1  0  0  0
 82 84  1  0  0  0
 82168  1  0  0  0
 82169  1  0  0  0
 83 90  1  0  0  0
 83170  1  0  0  0
 83171  1  0  0  0
 84 85  1  0  0  0
 84172  1  0  0  0
 84173  1  0  0  0
 85 86  1  0  0  0
 85174  1  0  0  0
 85175  1  0  0  0
 86 87  1  0  0  0
 86176  1  0  0  0
 86177  1  0  0  0
 87 92  1  0  0  0
 87178  1  0  0  0
 87179  1  0  0  0
 88180  1  0  0  0
 88181  1  0  0  0
 91182  1  0  0  0
 92183  1  0  0  0
M  ISO  4   1 100  68 101  88 101  91 100
M  END
> <chiral flag>
0

> <version>
0

> <s_m_source_file>
/data/baiqing/PycharmProjects/Reinvent-master-3.2/result/LINK_invent/BTK/process_docking_weight1_custom_sum_contain_oxygen_bond_distance_aromatic_linkinvent_7_9_3/rearranged_h_0006.sdf

> <i_m_source_file_index>
84

> <r_mmod_Potential_Energy-OPLS-2005>
-256.549163818359

> <r_mmod_Stretch_Energy-OPLS-2005>
46.5986480712891

> <r_mmod_Bend_Energy-OPLS-2005>
114.157936096191

> <r_mmod_Torsional_Energy-OPLS-2005>
262.887512207031

> <r_mmod_Improper_Torsional_Energy-OPLS-2005>
3.91478753089905

> <r_mmod_Van_der_Waal_Energy-OPLS-2005>
188.310836791992

> <r_mmod_Electrostatic_Energy-OPLS-2005>
-576.794494628906

> <r_mmod_Solvation_Energy-OPLS-2005>
-304.706390380859

> <b_mmod_Minimization_Converged-OPLS-2005>
0

> <r_mmod_RMS_Derivative-OPLS-2005>
2.52116584777832

$$$$
84
                    3D
 Structure written by MMmdl.
151159  0  0  1  0            999 V2000
  -30.6207  -14.6404   20.5017 C   0  0  0  0  0  0
  -30.4366  -12.3919   19.4535 C   0  0  0  0  0  0
  -29.5098  -12.5192   18.2233 C   0  0  0  0  0  0
  -28.0301  -12.3614   18.6287 C   0  0  0  0  0  0
  -27.6546  -13.2197   19.8662 C   0  0  2  0  0  0
  -28.6989  -13.0661   20.9954 C   0  0  0  0  0  0
  -25.2562  -13.8176   20.5677 C   0  0  0  0  0  0
  -24.1832  -13.0437   20.9184 C   0  0  0  0  0  0
  -24.6408  -11.6909   20.8734 C   0  0  0  0  0  0
  -23.9071  -10.4294   21.0403 C   0  0  0  0  0  0
  -24.3624   -9.4210   21.9184 C   0  0  0  0  0  0
  -23.6305   -8.2243   22.0754 C   0  0  0  0  0  0
  -22.4286   -8.0284   21.3541 C   0  0  0  0  0  0
  -21.9914   -9.0260   20.4646 C   0  0  0  0  0  0
  -22.7240  -10.2138   20.3055 C   0  0  0  0  0  0
  -21.6857   -6.0737   22.5278 C   0  0  0  0  0  0
  -21.4014   -6.5640   23.8212 C   0  0  0  0  0  0
  -21.3660   -5.6793   24.9175 C   0  0  0  0  0  0
  -21.6046   -4.3057   24.7221 C   0  0  0  0  0  0
  -21.8818   -3.8145   23.4342 C   0  0  0  0  0  0
  -21.9192   -4.6963   22.3399 C   0  0  0  0  0  0
  -22.7853  -13.5234   21.1843 C   0  0  0  0  0  0
  -22.1661   -4.2148   21.0977 F   0  0  0  0  0  0
  -21.5634   -3.4541   25.7733 F   0  0  0  0  0  0
  -30.0151  -13.4116   20.4353 N   0  0  0  0  0  0
  -26.2997  -12.9363   20.3319 N   0  0  0  0  0  0
  -25.9335  -11.6512   20.5749 N   0  0  0  0  0  0
  -22.0486  -12.8240   22.0403 N   0  0  0  0  0  0
  -25.4262  -15.1899   20.4079 N   0  0  0  0  0  0
  -31.7816  -14.8007   20.1137 O   0  0  0  0  0  0
  -21.6645   -6.8881   21.4242 O   0  0  0  0  0  0
  -22.3545  -14.5541   20.6689 O   0  0  0  0  0  0
  -24.6261  -31.8609   23.2045 C   0  0  0  0  0  0
  -25.9106  -32.4786   23.8370 C   0  0  1  0  0  0
  -27.2208  -27.3184   20.1168 C   0  0  0  0  0  0
  -25.5922  -33.8588   24.2296 N   0  0  0  0  0  0
  -23.4191  -30.4865   21.5481 C   0  0  2  0  0  0
  -24.8644  -28.9431   20.1147 C   0  0  0  0  0  0
  -22.7475  -29.4631   22.4947 C   0  0  0  0  0  0
  -18.0285  -28.1384   22.8493 C   0  0  0  0  0  0
  -24.1484  -36.7305   23.2639 C   0  0  0  0  0  0
  -25.9610  -30.7917   21.3754 C   0  0  0  0  0  0
  -26.0348  -29.4188   20.7191 C   0  0  0  0  0  0
  -27.2166  -28.6186   20.7108 C   0  0  0  0  0  0
  -26.0277  -26.9035   19.4793 C   0  0  0  0  0  0
  -24.8629  -27.6902   19.4870 C   0  0  0  0  0  0
  -23.6338  -29.8253   20.1625 C   0  0  0  0  0  0
  -25.4108  -36.3093   24.0334 C   0  0  1  0  0  0
  -20.5887  -28.3687   23.1297 C   0  0  2  0  0  0
  -20.6778  -26.9412   22.5417 C   0  0  0  0  0  0
  -19.5748  -26.6383   21.5224 C   0  0  0  0  0  0
  -18.1930  -26.7927   22.1635 C   0  0  0  0  0  0
  -19.1538  -28.8852   23.2889 C   0  0  0  0  0  0
  -18.9458  -30.1459   23.8898 C   0  0  0  0  0  0
  -17.6457  -30.6586   24.0566 C   0  0  0  0  0  0
  -25.9048  -34.9459   23.5116 C   0  0  0  0  0  0
  -16.5350  -29.9089   23.6324 C   0  0  0  0  0  0
  -16.7273  -28.6507   23.0345 C   0  0  0  0  0  0
  -26.4484  -31.6584   25.0734 C   0  0  0  0  0  0
  -25.3716  -31.3731   26.1462 C   0  0  0  0  0  0
  -27.0320  -30.3006   24.6178 C   0  0  0  0  0  0
  -27.6040  -32.4319   25.7509 C   0  0  0  0  0  0
  -27.5581  -37.1809   24.8464 C   0  0  0  0  0  0
  -21.4188  -29.3042   22.3692 N   0  0  0  0  0  0
  -26.4287  -37.3788   23.9414 N   0  0  0  0  0  0
  -24.6878  -31.0628   22.0996 N   0  0  0  0  0  0
  -23.4204  -28.8162   23.3016 O   0  0  0  0  0  0
  -28.3380  -26.4663   20.1474 O   0  0  0  0  0  0
  -26.5621  -34.8920   22.4686 O   0  0  0  0  0  0
  -23.5426  -32.1409   23.7376 O   0  0  0  0  0  0
  -30.9863  -17.8445   20.1353 C   0  0  0  0  0  0
  -30.9685  -19.2641   19.9932 C   0  0  0  0  0  0
  -28.7959  -17.9532   21.1125 C   0  0  0  0  0  0
  -29.8921  -17.1406   20.7028 C   0  0  0  0  0  0
  -29.8751  -20.0780   20.4000 C   0  0  0  0  0  0
  -28.7766  -19.3749   20.9706 C   0  0  0  0  0  0
  -29.2657  -23.9632   20.2182 C   0  0  0  0  0  0
  -28.0896  -25.0186   20.3689 C   0  0  0  0  0  0
  -28.9132  -22.4303   20.4994 C   0  0  0  0  0  0
  -29.8096  -15.6840   20.8721 N   0  0  0  0  0  0
  -29.9850  -21.4758   20.2123 O   0  0  0  0  0  0
  -27.6825  -20.0505   21.3985 F   0  0  0  0  0  0
  -31.4800  -12.5130   19.1578 H   0  0  0  0  0  0
  -30.3636  -11.3933   19.8877 H   0  0  0  0  0  0
  -29.7745  -11.7737   17.4721 H   0  0  0  0  0  0
  -29.6578  -13.4925   17.7514 H   0  0  0  0  0  0
  -27.8564  -11.3069   18.8449 H   0  0  0  0  0  0
  -27.3814  -12.6100   17.7878 H   0  0  0  0  0  0
  -27.6751  -14.2577   19.5349 H   0  0  0  0  0  0
  -28.7070  -12.0412   21.3704 H   0  0  0  0  0  0
  -28.4466  -13.6905   21.8533 H   0  0  0  0  0  0
  -25.2762   -9.5698   22.4766 H   0  0  0  0  0  0
  -24.0009   -7.4636   22.7478 H   0  0  0  0  0  0
  -21.0837   -8.8783   19.8964 H   0  0  0  0  0  0
  -22.3691  -10.9683   19.6175 H   0  0  0  0  0  0
  -21.2008   -7.6150   23.9716 H   0  0  0  0  0  0
  -21.1488   -6.0523   25.9081 H   0  0  0  0  0  0
  -22.0595   -2.7607   23.2840 H   0  0  0  0  0  0
  -22.4089  -11.9910   22.4815 H   0  0  0  0  0  0
  -21.1103  -13.1286   22.2588 H   0  0  0  0  0  0
  -24.6535  -15.8392   20.5078 H   0  0  0  0  0  0
  -26.2659  -15.6258   20.0488 H   0  0  0  0  0  0
  -26.7176  -32.5454   23.1120 H   0  0  0  0  0  0
  -25.0041  -33.9736   25.0421 H   0  0  0  0  0  0
  -22.7122  -31.3072   21.4089 H   0  0  0  0  0  0
  -23.3742  -35.9641   23.3296 H   0  0  0  0  0  0
  -24.3581  -36.8930   22.2055 H   0  0  0  0  0  0
  -23.7231  -37.6505   23.6659 H   0  0  0  0  0  0
  -26.0901  -31.5536   20.6055 H   0  0  0  0  0  0
  -26.8432  -30.8433   22.0018 H   0  0  0  0  0  0
  -28.1141  -28.9809   21.1926 H   0  0  0  0  0  0
  -25.9631  -25.9651   18.9527 H   0  0  0  0  0  0
  -23.9688  -27.3238   19.0015 H   0  0  0  0  0  0
  -23.7580  -30.6052   19.4102 H   0  0  0  0  0  0
  -22.7510  -29.2610   19.8558 H   0  0  0  0  0  0
  -25.1278  -36.1954   25.0826 H   0  0  0  0  0  0
  -20.9986  -28.3259   24.1416 H   0  0  0  0  0  0
  -20.5700  -26.2292   23.3614 H   0  0  0  0  0  0
  -21.6645  -26.7453   22.1199 H   0  0  0  0  0  0
  -19.6912  -25.6297   21.1248 H   0  0  0  0  0  0
  -19.6681  -27.3198   20.6759 H   0  0  0  0  0  0
  -17.4202  -26.6681   21.4034 H   0  0  0  0  0  0
  -18.0319  -26.0066   22.9030 H   0  0  0  0  0  0
  -19.7934  -30.7281   24.2258 H   0  0  0  0  0  0
  -17.5009  -31.6264   24.5173 H   0  0  0  0  0  0
  -15.5352  -30.2993   23.7638 H   0  0  0  0  0  0
  -15.8675  -28.0836   22.7043 H   0  0  0  0  0  0
  -24.5875  -30.7096   25.7793 H   0  0  0  0  0  0
  -24.8922  -32.2904   26.4894 H   0  0  0  0  0  0
  -25.8038  -30.8898   27.0234 H   0  0  0  0  0  0
  -26.2896  -29.6772   24.1177 H   0  0  0  0  0  0
  -27.3990  -29.7243   25.4681 H   0  0  0  0  0  0
  -27.8778  -30.4287   23.9419 H   0  0  0  0  0  0
  -27.2638  -33.3610   26.2096 H   0  0  0  0  0  0
  -28.3847  -32.6897   25.0339 H   0  0  0  0  0  0
  -28.0707  -31.8436   26.5420 H   0  0  0  0  0  0
  -28.2592  -38.0112   24.7515 H   0  0  0  0  0  0
  -28.1081  -36.2644   24.6274 H   0  0  0  0  0  0
  -27.2308  -37.1443   25.8869 H   0  0  0  0  0  0
  -20.9359  -29.8783   21.6922 H   0  0  0  0  0  0
  -26.0170  -38.2865   24.1414 H   0  0  0  0  0  0
  -31.8602  -17.3082   19.7940 H   0  0  0  0  0  0
  -31.8306  -19.7434   19.5523 H   0  0  0  0  0  0
  -27.9270  -17.4854   21.5514 H   0  0  0  0  0  0
  -30.0869  -24.2585   20.8705 H   0  0  0  0  0  0
  -29.6558  -24.0408   19.2037 H   0  0  0  0  0  0
  -27.6780  -24.9194   21.3744 H   0  0  0  0  0  0
  -27.3178  -24.6505   19.6997 H   0  0  0  0  0  0
  -28.0446  -22.1532   19.9005 H   0  0  0  0  0  0
  -28.6236  -22.3281   21.5461 H   0  0  0  0  0  0
  -28.9203  -15.3590   21.2197 H   0  0  0  0  0  0
  1 25  1  0  0  0
  1 30  2  0  0  0
  1 80  1  0  0  0
  2  3  1  0  0  0
  2 25  1  0  0  0
  2 83  1  0  0  0
  2 84  1  0  0  0
  3  4  1  0  0  0
  3 85  1  0  0  0
  3 86  1  0  0  0
  4  5  1  0  0  0
  4 87  1  0  0  0
  4 88  1  0  0  0
  5  6  1  0  0  0
  5 26  1  0  0  0
  5 89  1  0  0  0
  6 25  1  0  0  0
  6 90  1  0  0  0
  6 91  1  0  0  0
  7  8  2  0  0  0
  7 26  1  0  0  0
  7 29  1  0  0  0
  8  9  1  0  0  0
  8 22  1  0  0  0
  9 10  1  0  0  0
  9 27  2  0  0  0
 10 11  2  0  0  0
 10 15  1  0  0  0
 11 12  1  0  0  0
 11 92  1  0  0  0
 12 13  2  0  0  0
 12 93  1  0  0  0
 13 14  1  0  0  0
 13 31  1  0  0  0
 14 15  2  0  0  0
 14 94  1  0  0  0
 15 95  1  0  0  0
 16 17  2  0  0  0
 16 21  1  0  0  0
 16 31  1  0  0  0
 17 18  1  0  0  0
 17 96  1  0  0  0
 18 19  2  0  0  0
 18 97  1  0  0  0
 19 20  1  0  0  0
 19 24  1  0  0  0
 20 21  2  0  0  0
 20 98  1  0  0  0
 21 23  1  0  0  0
 22 28  1  0  0  0
 22 32  2  0  0  0
 26 27  1  0  0  0
 28 99  1  0  0  0
 28100  1  0  0  0
 29101  1  0  0  0
 29102  1  0  0  0
 33 34  1  0  0  0
 33 66  1  0  0  0
 33 70  2  0  0  0
 34 36  1  0  0  0
 34 59  1  0  0  0
 34103  1  0  0  0
 35 44  2  0  0  0
 35 45  1  0  0  0
 35 68  1  0  0  0
 36 56  1  0  0  0
 36104  1  0  0  0
 37 39  1  0  0  0
 37 47  1  0  0  0
 37 66  1  0  0  0
 37105  1  0  0  0
 38 43  2  0  0  0
 38 46  1  0  0  0
 38 47  1  0  0  0
 39 64  1  0  0  0
 39 67  2  0  0  0
 40 52  1  0  0  0
 40 53  2  0  0  0
 40 58  1  0  0  0
 41106  1  0  0  0
 41107  1  0  0  0
 41108  1  0  0  0
 41 48  1  0  0  0
 42 43  1  0  0  0
 42 66  1  0  0  0
 42109  1  0  0  0
 42110  1  0  0  0
 43 44  1  0  0  0
 44111  1  0  0  0
 45 46  2  0  0  0
 45112  1  0  0  0
 46113  1  0  0  0
 47114  1  0  0  0
 47115  1  0  0  0
 48 56  1  0  0  0
 48 65  1  0  0  0
 48116  1  0  0  0
 49 50  1  0  0  0
 49 53  1  0  0  0
 49 64  1  0  0  0
 49117  1  0  0  0
 50 51  1  0  0  0
 50118  1  0  0  0
 50119  1  0  0  0
 51 52  1  0  0  0
 51120  1  0  0  0
 51121  1  0  0  0
 52122  1  0  0  0
 52123  1  0  0  0
 53 54  1  0  0  0
 54 55  2  0  0  0
 54124  1  0  0  0
 55 57  1  0  0  0
 55125  1  0  0  0
 56 69  2  0  0  0
 57 58  2  0  0  0
 57126  1  0  0  0
 58127  1  0  0  0
 59 60  1  0  0  0
 59 61  1  0  0  0
 59 62  1  0  0  0
 60128  1  0  0  0
 60129  1  0  0  0
 60130  1  0  0  0
 61131  1  0  0  0
 61132  1  0  0  0
 61133  1  0  0  0
 62134  1  0  0  0
 62135  1  0  0  0
 62136  1  0  0  0
 63 65  1  0  0  0
 63137  1  0  0  0
 63138  1  0  0  0
 63139  1  0  0  0
 64140  1  0  0  0
 65141  1  0  0  0
 68 78  1  0  0  0
 71 72  2  0  0  0
 71 74  1  0  0  0
 71142  1  0  0  0
 72 75  1  0  0  0
 72143  1  0  0  0
 73 74  2  0  0  0
 73 76  1  0  0  0
 73144  1  0  0  0
 74 80  1  0  0  0
 75 76  2  0  0  0
 75 81  1  0  0  0
 76 82  1  0  0  0
 77 78  1  0  0  0
 77 79  1  0  0  0
 77145  1  0  0  0
 77146  1  0  0  0
 78147  1  0  0  0
 78148  1  0  0  0
 79 81  1  0  0  0
 79149  1  0  0  0
 79150  1  0  0  0
 80151  1  0  0  0
M  ISO  4   1 100  68 101  78 101  80 100
M  END
> <chiral flag>
0

> <version>
0

> <s_m_source_file>
/data/baiqing/PycharmProjects/Reinvent-master-3.2/result/LINK_invent/BTK/process_docking_weight1_custom_sum_contain_oxygen_bond_distance_aromatic_linkinvent_7_9_3/rearranged_h_0006.sdf

> <i_m_source_file_index>
85

> <r_mmod_Potential_Energy-OPLS-2005>
74.7860946655273

> <r_mmod_Stretch_Energy-OPLS-2005>
79.5826568603516

> <r_mmod_Bend_Energy-OPLS-2005>
147.580917358398

> <r_mmod_Torsional_Energy-OPLS-2005>
214.559097290039

> <r_mmod_Improper_Torsional_Energy-OPLS-2005>
3.90157985687256

> <r_mmod_Van_der_Waal_Energy-OPLS-2005>
146.884353637695

> <r_mmod_Electrostatic_Energy-OPLS-2005>
-358.382598876953

> <r_mmod_Solvation_Energy-OPLS-2005>
-207.118133544922

> <b_mmod_Minimization_Converged-OPLS-2005>
0

> <r_mmod_RMS_Derivative-OPLS-2005>
1.06894218921661

$$$$
85
                    3D
 Structure written by MMmdl.
160168  0  0  1  0            999 V2000
  -30.7648  -14.4071   20.6164 C   0  0  0  0  0  0
  -30.4148  -12.2980   19.3879 C   0  0  0  0  0  0
  -29.4761  -12.4940   18.1828 C   0  0  0  0  0  0
  -28.0030  -12.3474   18.6113 C   0  0  0  0  0  0
  -27.6544  -13.1928   19.8650 C   0  0  2  0  0  0
  -28.7065  -12.9900   20.9789 C   0  0  0  0  0  0
  -25.2566  -13.8089   20.5659 C   0  0  0  0  0  0
  -24.1811  -13.0395   20.9168 C   0  0  0  0  0  0
  -24.6354  -11.6864   20.8740 C   0  0  0  0  0  0
  -23.9017  -10.4266   21.0408 C   0  0  0  0  0  0
  -24.3583   -9.4191   21.9189 C   0  0  0  0  0  0
  -23.6264   -8.2222   22.0761 C   0  0  0  0  0  0
  -22.4251   -8.0257   21.3543 C   0  0  0  0  0  0
  -21.9874   -9.0229   20.4653 C   0  0  0  0  0  0
  -22.7192  -10.2111   20.3058 C   0  0  0  0  0  0
  -21.6842   -6.0713   22.5276 C   0  0  0  0  0  0
  -21.4009   -6.5626   23.8208 C   0  0  0  0  0  0
  -21.3658   -5.6783   24.9174 C   0  0  0  0  0  0
  -21.6047   -4.3048   24.7224 C   0  0  0  0  0  0
  -21.8823   -3.8133   23.4349 C   0  0  0  0  0  0
  -21.9191   -4.6944   22.3403 C   0  0  0  0  0  0
  -22.7845  -13.5229   21.1823 C   0  0  0  0  0  0
  -22.1659   -4.2133   21.0977 F   0  0  0  0  0  0
  -21.5629   -3.4536   25.7739 F   0  0  0  0  0  0
  -30.0335  -13.2806   20.4096 N   0  0  0  0  0  0
  -26.2992  -12.9244   20.3358 N   0  0  0  0  0  0
  -25.9278  -11.6422   20.5776 N   0  0  0  0  0  0
  -22.0466  -12.8257   22.0396 N   0  0  0  0  0  0
  -25.4243  -15.1785   20.4057 N   0  0  0  0  0  0
  -31.9091  -14.5663   20.1885 O   0  0  0  0  0  0
  -21.6627   -6.8849   21.4234 O   0  0  0  0  0  0
  -22.3548  -14.5534   20.6656 O   0  0  0  0  0  0
  -24.6149  -31.8726   23.2175 C   0  0  0  0  0  0
  -25.9059  -32.4844   23.8443 C   0  0  1  0  0  0
  -27.2231  -27.4454   20.0525 C   0  0  0  0  0  0
  -25.5944  -33.8646   24.2368 N   0  0  0  0  0  0
  -23.3988  -30.5053   21.5595 C   0  0  2  0  0  0
  -24.8375  -28.9884   20.1129 C   0  0  0  0  0  0
  -22.7413  -29.4694   22.4994 C   0  0  0  0  0  0
  -18.0277  -28.1385   22.8495 C   0  0  0  0  0  0
  -24.1491  -36.7319   23.2631 C   0  0  0  0  0  0
  -25.9334  -30.8343   21.3776 C   0  0  0  0  0  0
  -26.0023  -29.4751   20.7156 C   0  0  0  0  0  0
  -27.1891  -28.7050   20.6981 C   0  0  0  0  0  0
  -26.0262  -26.9911   19.4456 C   0  0  0  0  0  0
  -24.8433  -27.7400   19.4848 C   0  0  0  0  0  0
  -23.6048  -29.8566   20.1685 C   0  0  0  0  0  0
  -25.4109  -36.3123   24.0335 C   0  0  1  0  0  0
  -20.5873  -28.3673   23.1322 C   0  0  2  0  0  0
  -20.6777  -26.9414   22.5419 C   0  0  0  0  0  0
  -19.5750  -26.6390   21.5225 C   0  0  0  0  0  0
  -18.1926  -26.7931   22.1630 C   0  0  0  0  0  0
  -19.1530  -28.8843   23.2905 C   0  0  0  0  0  0
  -18.9456  -30.1452   23.8909 C   0  0  0  0  0  0
  -17.6459  -30.6589   24.0572 C   0  0  0  0  0  0
  -25.9042  -34.9490   23.5136 C   0  0  0  0  0  0
  -16.5347  -29.9095   23.6329 C   0  0  0  0  0  0
  -16.7268  -28.6515   23.0338 C   0  0  0  0  0  0
  -26.4485  -31.6613   25.0760 C   0  0  0  0  0  0
  -25.3751  -31.3741   26.1509 C   0  0  0  0  0  0
  -27.0311  -30.3048   24.6143 C   0  0  0  0  0  0
  -27.6059  -32.4331   25.7524 C   0  0  0  0  0  0
  -27.5581  -37.1817   24.8463 C   0  0  0  0  0  0
  -21.4144  -29.3046   22.3726 N   0  0  0  0  0  0
  -26.4296  -37.3805   23.9409 N   0  0  0  0  0  0
  -24.6672  -31.0845   22.1084 N   0  0  0  0  0  0
  -23.4200  -28.8211   23.3003 O   0  0  0  0  0  0
  -28.4047  -26.7206   20.0950 O   0  0  0  0  0  0
  -26.5576  -34.8935   22.4679 O   0  0  0  0  0  0
  -23.5343  -32.1479   23.7579 O   0  0  0  0  0  0
  -28.3453  -17.0973   18.2650 C   0  0  0  0  0  0
  -27.3276  -17.8078   20.3632 C   0  0  0  0  0  0
  -29.2839  -16.3375   18.9805 C   0  0  0  0  0  0
  -28.2625  -17.0363   21.0817 C   0  0  0  0  0  0
  -27.3500  -17.8180   18.9514 C   0  0  0  0  0  0
  -29.2234  -16.2670   20.3945 C   0  0  0  0  0  0
  -26.6605  -19.9065   17.6396 C   0  0  0  0  0  0
  -26.2587  -18.5270   18.1679 C   0  0  0  0  0  0
  -28.2708  -23.0470   18.9220 C   0  0  0  0  0  0
  -27.7358  -24.4750   19.1121 C   0  0  0  0  0  0
  -27.1003  -22.2015   18.3783 C   0  0  0  0  0  0
  -28.7161  -25.6651   19.1637 C   0  0  0  0  0  0
  -30.1135  -15.4522   21.1440 N   0  0  0  0  0  0
  -27.2605  -20.7560   18.4860 N   0  0  0  0  0  0
  -26.3319  -20.2338   16.4964 O   0  0  0  0  0  0
  -31.4549  -12.3989   19.0728 H   0  0  0  0  0  0
  -30.3225  -11.2875   19.7879 H   0  0  0  0  0  0
  -29.7102  -11.7684   17.4027 H   0  0  0  0  0  0
  -29.6364  -13.4780   17.7400 H   0  0  0  0  0  0
  -27.8219  -11.2914   18.8162 H   0  0  0  0  0  0
  -27.3417  -12.6094   17.7851 H   0  0  0  0  0  0
  -27.6818  -14.2327   19.5515 H   0  0  0  0  0  0
  -28.6826  -11.9607   21.3403 H   0  0  0  0  0  0
  -28.4781  -13.6148   21.8432 H   0  0  0  0  0  0
  -25.2722   -9.5676   22.4774 H   0  0  0  0  0  0
  -23.9972   -7.4613   22.7484 H   0  0  0  0  0  0
  -21.0805   -8.8735   19.8967 H   0  0  0  0  0  0
  -22.3637  -10.9648   19.6175 H   0  0  0  0  0  0
  -21.2002   -7.6136   23.9702 H   0  0  0  0  0  0
  -21.1478   -6.0517   25.9074 H   0  0  0  0  0  0
  -22.0608   -2.7596   23.2849 H   0  0  0  0  0  0
  -22.4067  -11.9933   22.4823 H   0  0  0  0  0  0
  -21.1093  -13.1317   22.2591 H   0  0  0  0  0  0
  -24.6592  -15.8306   20.5284 H   0  0  0  0  0  0
  -26.2934  -15.6295   20.1417 H   0  0  0  0  0  0
  -26.7126  -32.5545   23.1205 H   0  0  0  0  0  0
  -25.0157  -33.9826   25.0553 H   0  0  0  0  0  0
  -22.6859  -31.3227   21.4320 H   0  0  0  0  0  0
  -23.3754  -35.9653   23.3309 H   0  0  0  0  0  0
  -24.3583  -36.8905   22.2042 H   0  0  0  0  0  0
  -23.7250  -37.6532   23.6632 H   0  0  0  0  0  0
  -26.0582  -31.6053   20.6163 H   0  0  0  0  0  0
  -26.8181  -30.8742   22.0013 H   0  0  0  0  0  0
  -28.0832  -29.0782   21.1781 H   0  0  0  0  0  0
  -25.9176  -26.0613   18.9346 H   0  0  0  0  0  0
  -23.9466  -27.3555   19.0183 H   0  0  0  0  0  0
  -23.7221  -30.6423   19.4207 H   0  0  0  0  0  0
  -22.7256  -29.2863   19.8626 H   0  0  0  0  0  0
  -25.1286  -36.1990   25.0828 H   0  0  0  0  0  0
  -20.9960  -28.3237   24.1446 H   0  0  0  0  0  0
  -20.5721  -26.2274   23.3601 H   0  0  0  0  0  0
  -21.6643  -26.7482   22.1190 H   0  0  0  0  0  0
  -19.6915  -25.6307   21.1241 H   0  0  0  0  0  0
  -19.6694  -27.3215   20.6769 H   0  0  0  0  0  0
  -17.4207  -26.6697   21.4021 H   0  0  0  0  0  0
  -18.0310  -26.0069   22.9020 H   0  0  0  0  0  0
  -19.7933  -30.7270   24.2276 H   0  0  0  0  0  0
  -17.5017  -31.6270   24.5177 H   0  0  0  0  0  0
  -15.5350  -30.3001   23.7650 H   0  0  0  0  0  0
  -15.8667  -28.0849   22.7028 H   0  0  0  0  0  0
  -24.5912  -30.7096   25.7861 H   0  0  0  0  0  0
  -24.8962  -32.2910   26.4954 H   0  0  0  0  0  0
  -25.8095  -30.8918   27.0272 H   0  0  0  0  0  0
  -26.2866  -29.6825   24.1158 H   0  0  0  0  0  0
  -27.4036  -29.7268   25.4613 H   0  0  0  0  0  0
  -27.8733  -30.4362   23.9342 H   0  0  0  0  0  0
  -27.2671  -33.3617   26.2136 H   0  0  0  0  0  0
  -28.3860  -32.6905   25.0347 H   0  0  0  0  0  0
  -28.0744  -31.8437   26.5418 H   0  0  0  0  0  0
  -28.2607  -38.0107   24.7502 H   0  0  0  0  0  0
  -28.1072  -36.2637   24.6302 H   0  0  0  0  0  0
  -27.2298  -37.1478   25.8867 H   0  0  0  0  0  0
  -20.9292  -29.8777   21.6966 H   0  0  0  0  0  0
  -26.0184  -38.2887   24.1399 H   0  0  0  0  0  0
  -28.3792  -17.1002   17.1838 H   0  0  0  0  0  0
  -26.5659  -18.3540   20.9029 H   0  0  0  0  0  0
  -30.0297  -15.7917   18.4197 H   0  0  0  0  0  0
  -28.2085  -17.0100   22.1616 H   0  0  0  0  0  0
  -25.3745  -18.6450   18.7952 H   0  0  0  0  0  0
  -25.9527  -17.8962   17.3318 H   0  0  0  0  0  0
  -28.6382  -22.6587   19.8729 H   0  0  0  0  0  0
  -29.1039  -23.0320   18.2179 H   0  0  0  0  0  0
  -27.0989  -24.4764   19.9979 H   0  0  0  0  0  0
  -27.1059  -24.6497   18.2411 H   0  0  0  0  0  0
  -26.9058  -22.5040   17.3471 H   0  0  0  0  0  0
  -26.1909  -22.4425   18.9335 H   0  0  0  0  0  0
  -28.8373  -26.0920   18.1668 H   0  0  0  0  0  0
  -29.7010  -25.2917   19.4455 H   0  0  0  0  0  0
  -30.6757  -15.9841   21.7919 H   0  0  0  0  0  0
  -27.5452  -20.3791   19.3811 H   0  0  0  0  0  0
  1 25  1  0  0  0
  1 30  2  0  0  0
  1 83  1  0  0  0
  2  3  1  0  0  0
  2 25  1  0  0  0
  2 86  1  0  0  0
  2 87  1  0  0  0
  3  4  1  0  0  0
  3 88  1  0  0  0
  3 89  1  0  0  0
  4  5  1  0  0  0
  4 90  1  0  0  0
  4 91  1  0  0  0
  5  6  1  0  0  0
  5 26  1  0  0  0
  5 92  1  0  0  0
  6 25  1  0  0  0
  6 93  1  0  0  0
  6 94  1  0  0  0
  7  8  2  0  0  0
  7 26  1  0  0  0
  7 29  1  0  0  0
  8  9  1  0  0  0
  8 22  1  0  0  0
  9 10  1  0  0  0
  9 27  2  0  0  0
 10 11  2  0  0  0
 10 15  1  0  0  0
 11 12  1  0  0  0
 11 95  1  0  0  0
 12 13  2  0  0  0
 12 96  1  0  0  0
 13 14  1  0  0  0
 13 31  1  0  0  0
 14 15  2  0  0  0
 14 97  1  0  0  0
 15 98  1  0  0  0
 16 17  2  0  0  0
 16 21  1  0  0  0
 16 31  1  0  0  0
 17 18  1  0  0  0
 17 99  1  0  0  0
 18 19  2  0  0  0
 18100  1  0  0  0
 19 20  1  0  0  0
 19 24  1  0  0  0
 20 21  2  0  0  0
 20101  1  0  0  0
 21 23  1  0  0  0
 22 28  1  0  0  0
 22 32  2  0  0  0
 26 27  1  0  0  0
 28102  1  0  0  0
 28103  1  0  0  0
 29104  1  0  0  0
 29105  1  0  0  0
 33 34  1  0  0  0
 33 66  1  0  0  0
 33 70  2  0  0  0
 34 36  1  0  0  0
 34 59  1  0  0  0
 34106  1  0  0  0
 35 44  2  0  0  0
 35 45  1  0  0  0
 35 68  1  0  0  0
 36 56  1  0  0  0
 36107  1  0  0  0
 37 39  1  0  0  0
 37 47  1  0  0  0
 37 66  1  0  0  0
 37108  1  0  0  0
 38 43  2  0  0  0
 38 46  1  0  0  0
 38 47  1  0  0  0
 39 64  1  0  0  0
 39 67  2  0  0  0
 40 52  1  0  0  0
 40 53  2  0  0  0
 40 58  1  0  0  0
 41109  1  0  0  0
 41110  1  0  0  0
 41111  1  0  0  0
 41 48  1  0  0  0
 42 43  1  0  0  0
 42 66  1  0  0  0
 42112  1  0  0  0
 42113  1  0  0  0
 43 44  1  0  0  0
 44114  1  0  0  0
 45 46  2  0  0  0
 45115  1  0  0  0
 46116  1  0  0  0
 47117  1  0  0  0
 47118  1  0  0  0
 48 56  1  0  0  0
 48 65  1  0  0  0
 48119  1  0  0  0
 49 50  1  0  0  0
 49 53  1  0  0  0
 49 64  1  0  0  0
 49120  1  0  0  0
 50 51  1  0  0  0
 50121  1  0  0  0
 50122  1  0  0  0
 51 52  1  0  0  0
 51123  1  0  0  0
 51124  1  0  0  0
 52125  1  0  0  0
 52126  1  0  0  0
 53 54  1  0  0  0
 54 55  2  0  0  0
 54127  1  0  0  0
 55 57  1  0  0  0
 55128  1  0  0  0
 56 69  2  0  0  0
 57 58  2  0  0  0
 57129  1  0  0  0
 58130  1  0  0  0
 59 60  1  0  0  0
 59 61  1  0  0  0
 59 62  1  0  0  0
 60131  1  0  0  0
 60132  1  0  0  0
 60133  1  0  0  0
 61134  1  0  0  0
 61135  1  0  0  0
 61136  1  0  0  0
 62137  1  0  0  0
 62138  1  0  0  0
 62139  1  0  0  0
 63 65  1  0  0  0
 63140  1  0  0  0
 63141  1  0  0  0
 63142  1  0  0  0
 64143  1  0  0  0
 65144  1  0  0  0
 68 82  1  0  0  0
 71 73  2  0  0  0
 71 75  1  0  0  0
 71145  1  0  0  0
 72 74  1  0  0  0
 72 75  2  0  0  0
 72146  1  0  0  0
 73 76  1  0  0  0
 73147  1  0  0  0
 74 76  2  0  0  0
 74148  1  0  0  0
 75 78  1  0  0  0
 76 83  1  0  0  0
 77 78  1  0  0  0
 77 84  1  0  0  0
 77 85  2  0  0  0
 78149  1  0  0  0
 78150  1  0  0  0
 79 80  1  0  0  0
 79 81  1  0  0  0
 79151  1  0  0  0
 79152  1  0  0  0
 80 82  1  0  0  0
 80153  1  0  0  0
 80154  1  0  0  0
 81 84  1  0  0  0
 81155  1  0  0  0
 81156  1  0  0  0
 82157  1  0  0  0
 82158  1  0  0  0
 83159  1  0  0  0
 84160  1  0  0  0
M  ISO  4   1 100  68 101  82 101  83 100
M  END
> <chiral flag>
0

> <version>
0

> <s_m_source_file>
/data/baiqing/PycharmProjects/Reinvent-master-3.2/result/LINK_invent/BTK/process_docking_weight1_custom_sum_contain_oxygen_bond_distance_aromatic_linkinvent_7_9_3/rearranged_h_0006.sdf

> <i_m_source_file_index>
86

> <r_mmod_Potential_Energy-OPLS-2005>
-11.9929599761963

> <r_mmod_Stretch_Energy-OPLS-2005>
33.4126319885254

> <r_mmod_Bend_Energy-OPLS-2005>
123.17977142334

> <r_mmod_Torsional_Energy-OPLS-2005>
270.919708251953

> <r_mmod_Improper_Torsional_Energy-OPLS-2005>
9.36707210540771

> <r_mmod_Van_der_Waal_Energy-OPLS-2005>
163.110733032227

> <r_mmod_Electrostatic_Energy-OPLS-2005>
-408.06005859375

> <r_mmod_Solvation_Energy-OPLS-2005>
-220.285339355469

> <b_mmod_Minimization_Converged-OPLS-2005>
0

> <r_mmod_RMS_Derivative-OPLS-2005>
1.30804514884949

$$$$
86
                    3D
 Structure written by MMmdl.
188197  0  0  1  0            999 V2000
  -30.7028  -14.4166   20.6198 C   0  0  0  0  0  0
  -30.4328  -12.2862   19.4006 C   0  0  0  0  0  0
  -29.4913  -12.5012   18.1968 C   0  0  0  0  0  0
  -28.0122  -12.3691   18.6123 C   0  0  0  0  0  0
  -27.6713  -13.1926   19.8812 C   0  0  2  0  0  0
  -28.7111  -12.9162   20.9908 C   0  0  0  0  0  0
  -25.2645  -13.8147   20.5683 C   0  0  0  0  0  0
  -24.1853  -13.0428   20.9145 C   0  0  0  0  0  0
  -24.6387  -11.6901   20.8721 C   0  0  0  0  0  0
  -23.9048  -10.4289   21.0394 C   0  0  0  0  0  0
  -24.3613   -9.4213   21.9176 C   0  0  0  0  0  0
  -23.6289   -8.2248   22.0750 C   0  0  0  0  0  0
  -22.4274   -8.0283   21.3541 C   0  0  0  0  0  0
  -21.9910   -9.0246   20.4632 C   0  0  0  0  0  0
  -22.7221  -10.2138   20.3038 C   0  0  0  0  0  0
  -21.6869   -6.0735   22.5269 C   0  0  0  0  0  0
  -21.4011   -6.5634   23.8197 C   0  0  0  0  0  0
  -21.3657   -5.6790   24.9164 C   0  0  0  0  0  0
  -21.6048   -4.3048   24.7222 C   0  0  0  0  0  0
  -21.8824   -3.8135   23.4340 C   0  0  0  0  0  0
  -21.9186   -4.6956   22.3393 C   0  0  0  0  0  0
  -22.7880  -13.5235   21.1821 C   0  0  0  0  0  0
  -22.1658   -4.2129   21.0979 F   0  0  0  0  0  0
  -21.5634   -3.4539   25.7744 F   0  0  0  0  0  0
  -30.0525  -13.2343   20.4559 N   0  0  0  0  0  0
  -26.3075  -12.9282   20.3388 N   0  0  0  0  0  0
  -25.9316  -11.6458   20.5773 N   0  0  0  0  0  0
  -22.0526  -12.8217   22.0390 N   0  0  0  0  0  0
  -25.4409  -15.1860   20.4146 N   0  0  0  0  0  0
  -31.7629  -14.6991   20.0510 O   0  0  0  0  0  0
  -21.6639   -6.8883   21.4240 O   0  0  0  0  0  0
  -22.3566  -14.5532   20.6677 O   0  0  0  0  0  0
  -24.6100  -31.8709   23.2111 C   0  0  0  0  0  0
  -25.9033  -32.4828   23.8382 C   0  0  1  0  0  0
  -27.2315  -27.4539   20.0901 C   0  0  0  0  0  0
  -25.5935  -33.8636   24.2321 N   0  0  0  0  0  0
  -23.3945  -30.4894   21.5557 C   0  0  2  0  0  0
  -24.8398  -28.9531   20.1185 C   0  0  0  0  0  0
  -22.7378  -29.4636   22.5060 C   0  0  0  0  0  0
  -18.0266  -28.1332   22.8473 C   0  0  0  0  0  0
  -24.1486  -36.7286   23.2639 C   0  0  0  0  0  0
  -25.9190  -30.8392   21.3604 C   0  0  0  0  0  0
  -25.9997  -29.4738   20.7081 C   0  0  0  0  0  0
  -27.2018  -28.7321   20.6889 C   0  0  0  0  0  0
  -26.0582  -26.9356   19.5061 C   0  0  0  0  0  0
  -24.8618  -27.6799   19.5177 C   0  0  0  0  0  0
  -23.5997  -29.8183   20.1699 C   0  0  0  0  0  0
  -25.4110  -36.3116   24.0332 C   0  0  1  0  0  0
  -20.5816  -28.3623   23.1337 C   0  0  2  0  0  0
  -20.6730  -26.9423   22.5322 C   0  0  0  0  0  0
  -19.5724  -26.6443   21.5096 C   0  0  0  0  0  0
  -18.1911  -26.7905   22.1520 C   0  0  0  0  0  0
  -19.1503  -28.8788   23.2909 C   0  0  0  0  0  0
  -18.9442  -30.1376   23.8942 C   0  0  0  0  0  0
  -17.6467  -30.6555   24.0562 C   0  0  0  0  0  0
  -25.9041  -34.9490   23.5111 C   0  0  0  0  0  0
  -16.5356  -29.9055   23.6329 C   0  0  0  0  0  0
  -16.7255  -28.6453   23.0369 C   0  0  0  0  0  0
  -26.4496  -31.6592   25.0691 C   0  0  0  0  0  0
  -25.3776  -31.3717   26.1448 C   0  0  0  0  0  0
  -27.0326  -30.3047   24.6013 C   0  0  0  0  0  0
  -27.6045  -32.4325   25.7488 C   0  0  0  0  0  0
  -27.5580  -37.1801   24.8472 C   0  0  0  0  0  0
  -21.4103  -29.3050   22.3846 N   0  0  0  0  0  0
  -26.4296  -37.3797   23.9420 N   0  0  0  0  0  0
  -24.6587  -31.0804   22.1011 N   0  0  0  0  0  0
  -23.4190  -28.8121   23.3013 O   0  0  0  0  0  0
  -28.3948  -26.7273   20.0574 O   0  0  0  0  0  0
  -26.5583  -34.8934   22.4655 O   0  0  0  0  0  0
  -23.5307  -32.1478   23.7535 O   0  0  0  0  0  0
  -28.4200  -18.5100   21.9780 C   0  0  0  0  0  0
  -30.5678  -18.9499   20.9243 C   0  0  0  0  0  0
  -30.1168  -21.1873   24.2284 C   0  0  0  0  0  0
  -31.5088  -21.9467   22.3801 C   0  0  0  0  0  0
  -28.6694  -17.1293   21.9085 C   0  0  0  0  0  0
  -30.8204  -17.5606   20.8531 C   0  0  0  0  0  0
  -31.1102  -21.5890   25.1428 C   0  0  0  0  0  0
  -32.4993  -22.3542   23.2976 C   0  0  0  0  0  0
  -29.3821  -19.4390   21.5265 C   0  0  0  0  0  0
  -30.2965  -21.3759   22.8374 C   0  0  0  0  0  0
  -29.8799  -16.6432   21.3777 C   0  0  0  0  0  0
  -32.2975  -22.1822   24.6789 C   0  0  0  0  0  0
  -28.8352  -21.9342   20.7358 C   0  0  0  0  0  0
  -22.9224  -24.3041   23.5186 C   0  0  0  0  0  0
  -28.3449  -21.3516   19.3985 C   0  0  0  0  0  0
  -22.7378  -24.0453   22.0207 C   0  0  0  0  0  0
  -26.8780  -20.8530   19.4155 C   0  0  0  0  0  0
  -23.4687  -22.7693   21.5691 C   0  0  0  0  0  0
  -25.8173  -21.9673   19.4652 C   0  0  0  0  0  0
  -23.3746  -22.5099   20.0519 C   0  0  0  0  0  0
  -24.3711  -21.4392   19.5686 C   0  0  0  0  0  0
  -28.5851  -24.2537   20.0732 C   0  0  0  0  0  0
  -28.3920  -25.5570   20.8792 C   0  0  0  0  0  0
  -29.1880  -20.9269   21.8656 C   0  0  1  0  0  0
  -28.9089  -23.1859   21.0062 N   0  0  0  0  0  0
  -23.5466  -25.4164   23.8877 N   0  0  0  0  0  0
  -30.0815  -15.2425   21.4706 N   0  0  0  0  0  0
  -22.4994  -23.5047   24.3518 O   0  0  0  0  0  0
  -33.2431  -22.5862   25.5603 F   0  0  0  0  0  0
  -31.4736  -12.4050   19.0928 H   0  0  0  0  0  0
  -30.3475  -11.2663   19.7774 H   0  0  0  0  0  0
  -29.7184  -11.7773   17.4137 H   0  0  0  0  0  0
  -29.6628  -13.4863   17.7600 H   0  0  0  0  0  0
  -27.8099  -11.3125   18.7938 H   0  0  0  0  0  0
  -27.3611  -12.6647   17.7893 H   0  0  0  0  0  0
  -27.7336  -14.2471   19.6127 H   0  0  0  0  0  0
  -28.6841  -11.8650   21.2802 H   0  0  0  0  0  0
  -28.4525  -13.4576   21.9004 H   0  0  0  0  0  0
  -25.2768   -9.5683   22.4743 H   0  0  0  0  0  0
  -23.9977   -7.4655   22.7495 H   0  0  0  0  0  0
  -21.0833   -8.8756   19.8958 H   0  0  0  0  0  0
  -22.3664  -10.9674   19.6138 H   0  0  0  0  0  0
  -21.2018   -7.6143   23.9687 H   0  0  0  0  0  0
  -21.1478   -6.0530   25.9062 H   0  0  0  0  0  0
  -22.0614   -2.7592   23.2850 H   0  0  0  0  0  0
  -22.4144  -11.9859   22.4731 H   0  0  0  0  0  0
  -21.1149  -13.1241   22.2618 H   0  0  0  0  0  0
  -24.6883  -15.8515   20.5473 H   0  0  0  0  0  0
  -26.3071  -15.6246   20.1272 H   0  0  0  0  0  0
  -26.7073  -32.5565   23.1129 H   0  0  0  0  0  0
  -25.0187  -33.9816   25.0533 H   0  0  0  0  0  0
  -22.6805  -31.3028   21.4189 H   0  0  0  0  0  0
  -23.3789  -35.9579   23.3304 H   0  0  0  0  0  0
  -24.3591  -36.8898   22.2056 H   0  0  0  0  0  0
  -23.7176  -37.6458   23.6649 H   0  0  0  0  0  0
  -26.0230  -31.6044   20.5926 H   0  0  0  0  0  0
  -26.8078  -30.8926   21.9750 H   0  0  0  0  0  0
  -28.1028  -29.1320   21.1351 H   0  0  0  0  0  0
  -26.0776  -25.9634   19.0352 H   0  0  0  0  0  0
  -23.9713  -27.2725   19.0587 H   0  0  0  0  0  0
  -23.6993  -30.5947   19.4099 H   0  0  0  0  0  0
  -22.7218  -29.2353   19.8806 H   0  0  0  0  0  0
  -25.1278  -36.1992   25.0823 H   0  0  0  0  0  0
  -20.9881  -28.3117   24.1473 H   0  0  0  0  0  0
  -20.5695  -26.2215   23.3439 H   0  0  0  0  0  0
  -21.6581  -26.7623   22.1040 H   0  0  0  0  0  0
  -19.6980  -25.6396   21.1036 H   0  0  0  0  0  0
  -19.6640  -27.3323   20.6692 H   0  0  0  0  0  0
  -17.4191  -26.6725   21.3894 H   0  0  0  0  0  0
  -18.0273  -25.9965   22.8814 H   0  0  0  0  0  0
  -19.7960  -30.7104   24.2390 H   0  0  0  0  0  0
  -17.5070  -31.6247   24.5142 H   0  0  0  0  0  0
  -15.5373  -30.2986   23.7640 H   0  0  0  0  0  0
  -15.8641  -28.0755   22.7139 H   0  0  0  0  0  0
  -24.5917  -30.7084   25.7816 H   0  0  0  0  0  0
  -24.9014  -32.2896   26.4906 H   0  0  0  0  0  0
  -25.8143  -30.8892   27.0195 H   0  0  0  0  0  0
  -26.2833  -29.6812   24.1099 H   0  0  0  0  0  0
  -27.4172  -29.7269   25.4422 H   0  0  0  0  0  0
  -27.8642  -30.4398   23.9087 H   0  0  0  0  0  0
  -27.2605  -33.3594   26.2095 H   0  0  0  0  0  0
  -28.3867  -32.6934   25.0345 H   0  0  0  0  0  0
  -28.0682  -31.8425   26.5401 H   0  0  0  0  0  0
  -28.2602  -38.0100   24.7535 H   0  0  0  0  0  0
  -28.1063  -36.2627   24.6271 H   0  0  0  0  0  0
  -27.2305  -37.1423   25.8879 H   0  0  0  0  0  0
  -20.9240  -29.8916   21.7205 H   0  0  0  0  0  0
  -26.0202  -38.2879   24.1431 H   0  0  0  0  0  0
  -27.5036  -18.8511   22.4397 H   0  0  0  0  0  0
  -31.3224  -19.6371   20.5707 H   0  0  0  0  0  0
  -29.2103  -20.7331   24.6051 H   0  0  0  0  0  0
  -31.6809  -22.0894   21.3232 H   0  0  0  0  0  0
  -27.9264  -16.4454   22.2983 H   0  0  0  0  0  0
  -31.7563  -17.2185   20.4339 H   0  0  0  0  0  0
  -30.9602  -21.4493   26.2039 H   0  0  0  0  0  0
  -33.4135  -22.8069   22.9428 H   0  0  0  0  0  0
  -28.9919  -20.5206   19.1202 H   0  0  0  0  0  0
  -28.4770  -22.0732   18.5939 H   0  0  0  0  0  0
  -23.0943  -24.9008   21.4428 H   0  0  0  0  0  0
  -21.6719  -23.9557   21.8156 H   0  0  0  0  0  0
  -26.7294  -20.1647   20.2476 H   0  0  0  0  0  0
  -26.7072  -20.2616   18.5150 H   0  0  0  0  0  0
  -23.0659  -21.9101   22.1080 H   0  0  0  0  0  0
  -24.5123  -22.8464   21.8721 H   0  0  0  0  0  0
  -25.9041  -22.5905   18.5729 H   0  0  0  0  0  0
  -26.0301  -22.6214   20.3086 H   0  0  0  0  0  0
  -23.5347  -23.4334   19.4928 H   0  0  0  0  0  0
  -22.3577  -22.1917   19.8154 H   0  0  0  0  0  0
  -24.3180  -20.5782   20.2373 H   0  0  0  0  0  0
  -24.0616  -21.0749   18.5874 H   0  0  0  0  0  0
  -29.4013  -24.3850   19.3611 H   0  0  0  0  0  0
  -27.6845  -24.0471   19.4958 H   0  0  0  0  0  0
  -29.2166  -25.6743   21.5825 H   0  0  0  0  0  0
  -27.4900  -25.4793   21.4916 H   0  0  0  0  0  0
  -28.2862  -20.9470   22.4774 H   0  0  0  0  0  0
  -23.8715  -26.0874   23.2041 H   0  0  0  0  0  0
  -23.6844  -25.6184   24.8665 H   0  0  0  0  0  0
  -29.3643  -14.7604   21.9904 H   0  0  0  0  0  0
  1 25  1  0  0  0
  1 30  2  0  0  0
  1 97  1  0  0  0
  2  3  1  0  0  0
  2 25  1  0  0  0
  2100  1  0  0  0
  2101  1  0  0  0
  3  4  1  0  0  0
  3102  1  0  0  0
  3103  1  0  0  0
  4  5  1  0  0  0
  4104  1  0  0  0
  4105  1  0  0  0
  5  6  1  0  0  0
  5 26  1  0  0  0
  5106  1  0  0  0
  6 25  1  0  0  0
  6107  1  0  0  0
  6108  1  0  0  0
  7  8  2  0  0  0
  7 26  1  0  0  0
  7 29  1  0  0  0
  8  9  1  0  0  0
  8 22  1  0  0  0
  9 10  1  0  0  0
  9 27  2  0  0  0
 10 11  2  0  0  0
 10 15  1  0  0  0
 11 12  1  0  0  0
 11109  1  0  0  0
 12 13  2  0  0  0
 12110  1  0  0  0
 13 14  1  0  0  0
 13 31  1  0  0  0
 14 15  2  0  0  0
 14111  1  0  0  0
 15112  1  0  0  0
 16 17  2  0  0  0
 16 21  1  0  0  0
 16 31  1  0  0  0
 17 18  1  0  0  0
 17113  1  0  0  0
 18 19  2  0  0  0
 18114  1  0  0  0
 19 20  1  0  0  0
 19 24  1  0  0  0
 20 21  2  0  0  0
 20115  1  0  0  0
 21 23  1  0  0  0
 22 28  1  0  0  0
 22 32  2  0  0  0
 26 27  1  0  0  0
 28116  1  0  0  0
 28117  1  0  0  0
 29118  1  0  0  0
 29119  1  0  0  0
 33 34  1  0  0  0
 33 66  1  0  0  0
 33 70  2  0  0  0
 34 36  1  0  0  0
 34 59  1  0  0  0
 34120  1  0  0  0
 35 44  2  0  0  0
 35 45  1  0  0  0
 35 68  1  0  0  0
 36 56  1  0  0  0
 36121  1  0  0  0
 37 39  1  0  0  0
 37 47  1  0  0  0
 37 66  1  0  0  0
 37122  1  0  0  0
 38 43  2  0  0  0
 38 46  1  0  0  0
 38 47  1  0  0  0
 39 64  1  0  0  0
 39 67  2  0  0  0
 40 52  1  0  0  0
 40 53  2  0  0  0
 40 58  1  0  0  0
 41123  1  0  0  0
 41124  1  0  0  0
 41125  1  0  0  0
 41 48  1  0  0  0
 42 43  1  0  0  0
 42 66  1  0  0  0
 42126  1  0  0  0
 42127  1  0  0  0
 43 44  1  0  0  0
 44128  1  0  0  0
 45 46  2  0  0  0
 45129  1  0  0  0
 46130  1  0  0  0
 47131  1  0  0  0
 47132  1  0  0  0
 48 56  1  0  0  0
 48 65  1  0  0  0
 48133  1  0  0  0
 49 50  1  0  0  0
 49 53  1  0  0  0
 49 64  1  0  0  0
 49134  1  0  0  0
 50 51  1  0  0  0
 50135  1  0  0  0
 50136  1  0  0  0
 51 52  1  0  0  0
 51137  1  0  0  0
 51138  1  0  0  0
 52139  1  0  0  0
 52140  1  0  0  0
 53 54  1  0  0  0
 54 55  2  0  0  0
 54141  1  0  0  0
 55 57  1  0  0  0
 55142  1  0  0  0
 56 69  2  0  0  0
 57 58  2  0  0  0
 57143  1  0  0  0
 58144  1  0  0  0
 59 60  1  0  0  0
 59 61  1  0  0  0
 59 62  1  0  0  0
 60145  1  0  0  0
 60146  1  0  0  0
 60147  1  0  0  0
 61148  1  0  0  0
 61149  1  0  0  0
 61150  1  0  0  0
 62151  1  0  0  0
 62152  1  0  0  0
 62153  1  0  0  0
 63 65  1  0  0  0
 63154  1  0  0  0
 63155  1  0  0  0
 63156  1  0  0  0
 64157  1  0  0  0
 65158  1  0  0  0
 68 93  1  0  0  0
 71 75  2  0  0  0
 71 79  1  0  0  0
 71159  1  0  0  0
 72 76  1  0  0  0
 72 79  2  0  0  0
 72160  1  0  0  0
 73 77  2  0  0  0
 73 80  1  0  0  0
 73161  1  0  0  0
 74 78  1  0  0  0
 74 80  2  0  0  0
 74162  1  0  0  0
 75 81  1  0  0  0
 75163  1  0  0  0
 76 81  2  0  0  0
 76164  1  0  0  0
 77 82  1  0  0  0
 77165  1  0  0  0
 78 82  2  0  0  0
 78166  1  0  0  0
 79 94  1  0  0  0
 80 94  1  0  0  0
 81 97  1  0  0  0
 82 99  1  0  0  0
 83 85  1  0  0  0
 83 95  2  0  0  0
 83 94  1  0  0  0
 84 86  1  0  0  0
 84 96  1  0  0  0
 84 98  2  0  0  0
 85 87  1  0  0  0
 85167  1  0  0  0
 85168  1  0  0  0
 86 88  1  0  0  0
 86169  1  0  0  0
 86170  1  0  0  0
 87 89  1  0  0  0
 87171  1  0  0  0
 87172  1  0  0  0
 88 90  1  0  0  0
 88173  1  0  0  0
 88174  1  0  0  0
 89 91  1  0  0  0
 89175  1  0  0  0
 89176  1  0  0  0
 90 91  1  0  0  0
 90177  1  0  0  0
 90178  1  0  0  0
 91179  1  0  0  0
 91180  1  0  0  0
 92 93  1  0  0  0
 92 95  1  0  0  0
 92181  1  0  0  0
 92182  1  0  0  0
 93183  1  0  0  0
 93184  1  0  0  0
 94185  1  0  0  0
 96186  1  0  0  0
 96187  1  0  0  0
 97188  1  0  0  0
M  ISO  4   1 100  68 101  93 101  97 100
M  END
> <chiral flag>
0

> <version>
0

> <s_m_source_file>
/data/baiqing/PycharmProjects/Reinvent-master-3.2/result/LINK_invent/BTK/process_docking_weight1_custom_sum_contain_oxygen_bond_distance_aromatic_linkinvent_7_9_3/rearranged_h_0006.sdf

> <i_m_source_file_index>
87

> <r_mmod_Potential_Energy-OPLS-2005>
-41.5294876098633

> <r_mmod_Stretch_Energy-OPLS-2005>
42.2544898986816

> <r_mmod_Bend_Energy-OPLS-2005>
125.618637084961

> <r_mmod_Torsional_Energy-OPLS-2005>
264.947448730469

> <r_mmod_Improper_Torsional_Energy-OPLS-2005>
5.00370931625366

> <r_mmod_Van_der_Waal_Energy-OPLS-2005>
146.945083618164

> <r_mmod_Electrostatic_Energy-OPLS-2005>
-405.894897460938

> <r_mmod_Solvation_Energy-OPLS-2005>
-228.698806762695

> <b_mmod_Minimization_Converged-OPLS-2005>
0

> <r_mmod_RMS_Derivative-OPLS-2005>
3.30072450637817

$$$$
87
                    3D
 Structure written by MMmdl.
170178  0  0  1  0            999 V2000
  -30.7799  -14.3484   20.7123 C   0  0  0  0  0  0
  -30.4202  -12.2941   19.3877 C   0  0  0  0  0  0
  -29.4824  -12.5280   18.1898 C   0  0  0  0  0  0
  -28.0080  -12.3833   18.6089 C   0  0  0  0  0  0
  -27.6680  -13.2015   19.8815 C   0  0  2  0  0  0
  -28.7059  -12.9339   20.9933 C   0  0  0  0  0  0
  -25.2610  -13.8160   20.5676 C   0  0  0  0  0  0
  -24.1851  -13.0440   20.9166 C   0  0  0  0  0  0
  -24.6399  -11.6907   20.8731 C   0  0  0  0  0  0
  -23.9067  -10.4294   21.0408 C   0  0  0  0  0  0
  -24.3617   -9.4206   21.9184 C   0  0  0  0  0  0
  -23.6290   -8.2244   22.0755 C   0  0  0  0  0  0
  -22.4275   -8.0285   21.3547 C   0  0  0  0  0  0
  -21.9912   -9.0260   20.4647 C   0  0  0  0  0  0
  -22.7241  -10.2137   20.3054 C   0  0  0  0  0  0
  -21.6848   -6.0737   22.5278 C   0  0  0  0  0  0
  -21.4013   -6.5636   23.8214 C   0  0  0  0  0  0
  -21.3657   -5.6791   24.9169 C   0  0  0  0  0  0
  -21.6048   -4.3055   24.7227 C   0  0  0  0  0  0
  -21.8818   -3.8144   23.4349 C   0  0  0  0  0  0
  -21.9192   -4.6964   22.3400 C   0  0  0  0  0  0
  -22.7872  -13.5238   21.1830 C   0  0  0  0  0  0
  -22.1658   -4.2147   21.0982 F   0  0  0  0  0  0
  -21.5631   -3.4540   25.7742 F   0  0  0  0  0  0
  -30.0515  -13.2296   20.4607 N   0  0  0  0  0  0
  -26.3052  -12.9322   20.3386 N   0  0  0  0  0  0
  -25.9324  -11.6482   20.5763 N   0  0  0  0  0  0
  -22.0509  -12.8235   22.0390 N   0  0  0  0  0  0
  -25.4347  -15.1878   20.4092 N   0  0  0  0  0  0
  -31.7750  -14.6587   20.0508 O   0  0  0  0  0  0
  -21.6637   -6.8883   21.4243 O   0  0  0  0  0  0
  -22.3557  -14.5548   20.6685 O   0  0  0  0  0  0
  -24.6054  -31.8709   23.2123 C   0  0  0  0  0  0
  -25.8986  -32.4831   23.8391 C   0  0  1  0  0  0
  -27.2508  -27.4851   20.0906 C   0  0  0  0  0  0
  -25.5893  -33.8630   24.2331 N   0  0  0  0  0  0
  -23.3896  -30.4919   21.5511 C   0  0  2  0  0  0
  -24.8405  -28.9606   20.1151 C   0  0  0  0  0  0
  -22.7354  -29.4659   22.5024 C   0  0  0  0  0  0
  -18.0264  -28.1342   22.8499 C   0  0  0  0  0  0
  -24.1495  -36.7319   23.2634 C   0  0  0  0  0  0
  -25.9090  -30.8525   21.3564 C   0  0  0  0  0  0
  -25.9903  -29.4854   20.7156 C   0  0  0  0  0  0
  -27.1927  -28.7525   20.7178 C   0  0  0  0  0  0
  -26.0882  -26.9722   19.4808 C   0  0  0  0  0  0
  -24.8800  -27.6973   19.4974 C   0  0  0  0  0  0
  -23.5953  -29.8172   20.1661 C   0  0  0  0  0  0
  -25.4112  -36.3115   24.0342 C   0  0  1  0  0  0
  -20.5838  -28.3622   23.1346 C   0  0  2  0  0  0
  -20.6753  -26.9376   22.5419 C   0  0  0  0  0  0
  -19.5746  -26.6369   21.5199 C   0  0  0  0  0  0
  -18.1915  -26.7889   22.1617 C   0  0  0  0  0  0
  -19.1506  -28.8799   23.2912 C   0  0  0  0  0  0
  -18.9449  -30.1413   23.8910 C   0  0  0  0  0  0
  -17.6460  -30.6565   24.0563 C   0  0  0  0  0  0
  -25.9044  -34.9480   23.5138 C   0  0  0  0  0  0
  -16.5346  -29.9071   23.6323 C   0  0  0  0  0  0
  -16.7254  -28.6486   23.0343 C   0  0  0  0  0  0
  -26.4434  -31.6569   25.0679 C   0  0  0  0  0  0
  -25.3730  -31.3683   26.1457 C   0  0  0  0  0  0
  -27.0247  -30.3024   24.5980 C   0  0  0  0  0  0
  -27.6008  -32.4266   25.7450 C   0  0  0  0  0  0
  -27.5593  -37.1799   24.8456 C   0  0  0  0  0  0
  -21.4097  -29.2997   22.3774 N   0  0  0  0  0  0
  -26.4288  -37.3803   23.9433 N   0  0  0  0  0  0
  -24.6524  -31.0865   22.0986 N   0  0  0  0  0  0
  -23.4164  -28.8215   23.3042 O   0  0  0  0  0  0
  -28.3905  -26.7148   20.0057 O   0  0  0  0  0  0
  -26.5603  -34.8927   22.4697 O   0  0  0  0  0  0
  -23.5276  -32.1419   23.7574 O   0  0  0  0  0  0
  -32.0496  -16.8991   22.0021 C   0  0  0  0  0  0
  -32.4872  -18.0279   22.7224 C   0  0  0  0  0  0
  -30.6341  -17.7626   24.2805 C   0  0  0  0  0  0
  -30.8915  -16.1958   22.4177 C   0  0  0  0  0  0
  -31.7697  -18.4772   23.8503 C   0  0  0  0  0  0
  -30.1957  -16.6347   23.5629 C   0  0  0  0  0  0
  -29.0392  -26.2565   22.3059 C   0  0  0  0  0  0
  -31.9166  -20.8096   24.1152 C   0  0  0  0  0  0
  -33.9220  -24.5726   25.4001 C   0  0  0  0  0  0
  -29.4315  -26.8991   20.9672 C   0  0  0  0  0  0
  -32.4529  -21.8978   25.0488 C   0  0  0  0  0  0
  -30.0616  -25.2159   25.1612 C   0  0  0  0  0  0
  -31.5731  -25.4557   24.9802 C   0  0  0  0  0  0
  -29.1891  -26.4299   24.7861 C   0  0  0  0  0  0
  -32.4204  -24.2536   25.4263 C   0  0  1  0  0  0
  -30.3566  -15.0470   21.7751 N   0  0  0  0  0  0
  -29.4221  -26.8915   23.4205 N   0  0  0  0  0  0
  -28.4044  -25.1980   22.3281 O   0  0  0  0  0  0
  -31.2850  -21.0800   23.0866 O   0  0  0  0  0  0
  -32.2023  -19.5679   24.5621 O   0  0  0  0  0  0
  -32.1290  -23.1871   24.5349 O   0  0  0  0  0  0
  -29.0945  -15.9581   23.9745 F   0  0  0  0  0  0
  -31.4601  -12.4053   19.0763 H   0  0  0  0  0  0
  -30.3317  -11.2678   19.7475 H   0  0  0  0  0  0
  -29.7119  -11.8226   17.3898 H   0  0  0  0  0  0
  -29.6526  -13.5242   17.7782 H   0  0  0  0  0  0
  -27.8134  -11.3247   18.7866 H   0  0  0  0  0  0
  -27.3539  -12.6785   17.7875 H   0  0  0  0  0  0
  -27.7292  -14.2569   19.6152 H   0  0  0  0  0  0
  -28.6674  -11.8872   21.2983 H   0  0  0  0  0  0
  -28.4441  -13.4987   21.8880 H   0  0  0  0  0  0
  -25.2761   -9.5679   22.4758 H   0  0  0  0  0  0
  -23.9997   -7.4634   22.7473 H   0  0  0  0  0  0
  -21.0841   -8.8782   19.8952 H   0  0  0  0  0  0
  -22.3705  -10.9678   19.6164 H   0  0  0  0  0  0
  -21.2005   -7.6145   23.9715 H   0  0  0  0  0  0
  -21.1479   -6.0520   25.9074 H   0  0  0  0  0  0
  -22.0601   -2.7609   23.2849 H   0  0  0  0  0  0
  -22.4114  -11.9889   22.4777 H   0  0  0  0  0  0
  -21.1127  -13.1266   22.2593 H   0  0  0  0  0  0
  -24.6756  -15.8497   20.5294 H   0  0  0  0  0  0
  -26.2989  -15.6260   20.1148 H   0  0  0  0  0  0
  -26.7067  -32.5569   23.1173 H   0  0  0  0  0  0
  -25.0032  -33.9802   25.0467 H   0  0  0  0  0  0
  -22.6749  -31.3066   21.4132 H   0  0  0  0  0  0
  -23.3757  -35.9644   23.3270 H   0  0  0  0  0  0
  -24.3618  -36.8953   22.2054 H   0  0  0  0  0  0
  -23.7230  -37.6514   23.6666 H   0  0  0  0  0  0
  -26.0086  -31.6171   20.5845 H   0  0  0  0  0  0
  -26.7988  -30.9136   21.9694 H   0  0  0  0  0  0
  -28.0567  -29.1929   21.1886 H   0  0  0  0  0  0
  -26.1211  -26.0077   18.9918 H   0  0  0  0  0  0
  -23.9994  -27.2863   19.0213 H   0  0  0  0  0  0
  -23.6905  -30.5880   19.4013 H   0  0  0  0  0  0
  -22.7251  -29.2244   19.8792 H   0  0  0  0  0  0
  -25.1272  -36.1975   25.0827 H   0  0  0  0  0  0
  -20.9914  -28.3186   24.1471 H   0  0  0  0  0  0
  -20.5653  -26.2240   23.3594 H   0  0  0  0  0  0
  -21.6634  -26.7435   22.1222 H   0  0  0  0  0  0
  -19.6928  -25.6295   21.1205 H   0  0  0  0  0  0
  -19.6682  -27.3202   20.6749 H   0  0  0  0  0  0
  -17.4183  -26.6640   21.4012 H   0  0  0  0  0  0
  -18.0324  -26.0001   22.8991 H   0  0  0  0  0  0
  -19.7933  -30.7212   24.2273 H   0  0  0  0  0  0
  -17.5024  -31.6253   24.5149 H   0  0  0  0  0  0
  -15.5348  -30.2986   23.7623 H   0  0  0  0  0  0
  -15.8651  -28.0823   22.7029 H   0  0  0  0  0  0
  -24.5891  -30.7033   25.7820 H   0  0  0  0  0  0
  -24.8947  -32.2856   26.4909 H   0  0  0  0  0  0
  -25.8102  -30.8863   27.0213 H   0  0  0  0  0  0
  -26.2776  -29.6833   24.1007 H   0  0  0  0  0  0
  -27.4025  -29.7186   25.4377 H   0  0  0  0  0  0
  -27.8597  -30.4359   23.9097 H   0  0  0  0  0  0
  -27.2608  -33.3544   26.2063 H   0  0  0  0  0  0
  -28.3804  -32.6844   25.0271 H   0  0  0  0  0  0
  -28.0675  -31.8363   26.5348 H   0  0  0  0  0  0
  -28.2549  -38.0151   24.7579 H   0  0  0  0  0  0
  -28.1133  -36.2690   24.6154 H   0  0  0  0  0  0
  -27.2344  -37.1309   25.8860 H   0  0  0  0  0  0
  -20.9242  -29.8732   21.7022 H   0  0  0  0  0  0
  -26.0173  -38.2870   24.1464 H   0  0  0  0  0  0
  -32.6241  -16.6013   21.1393 H   0  0  0  0  0  0
  -33.3739  -18.5557   22.3998 H   0  0  0  0  0  0
  -30.0899  -18.0812   25.1572 H   0  0  0  0  0  0
  -34.1426  -25.4416   26.0205 H   0  0  0  0  0  0
  -34.2637  -24.7918   24.3882 H   0  0  0  0  0  0
  -34.5174  -23.7441   25.7857 H   0  0  0  0  0  0
  -30.3134  -26.3747   20.6005 H   0  0  0  0  0  0
  -29.7378  -27.9388   21.0764 H   0  0  0  0  0  0
  -33.5320  -21.7841   25.1523 H   0  0  0  0  0  0
  -32.0023  -21.7587   26.0319 H   0  0  0  0  0  0
  -29.8620  -24.9559   26.2012 H   0  0  0  0  0  0
  -29.7565  -24.3463   24.5763 H   0  0  0  0  0  0
  -31.8587  -26.3372   25.5551 H   0  0  0  0  0  0
  -31.7957  -25.6847   23.9374 H   0  0  0  0  0  0
  -29.3993  -27.2549   25.4686 H   0  0  0  0  0  0
  -28.1320  -26.1872   24.9169 H   0  0  0  0  0  0
  -32.1282  -23.9844   26.4438 H   0  0  0  0  0  0
  -29.5307  -14.6748   22.2204 H   0  0  0  0  0  0
  -29.9186  -27.7659   23.3070 H   0  0  0  0  0  0
  1 25  1  0  0  0
  1 30  2  0  0  0
  1 86  1  0  0  0
  2  3  1  0  0  0
  2 25  1  0  0  0
  2 93  1  0  0  0
  2 94  1  0  0  0
  3  4  1  0  0  0
  3 95  1  0  0  0
  3 96  1  0  0  0
  4  5  1  0  0  0
  4 97  1  0  0  0
  4 98  1  0  0  0
  5  6  1  0  0  0
  5 26  1  0  0  0
  5 99  1  0  0  0
  6 25  1  0  0  0
  6100  1  0  0  0
  6101  1  0  0  0
  7  8  2  0  0  0
  7 26  1  0  0  0
  7 29  1  0  0  0
  8  9  1  0  0  0
  8 22  1  0  0  0
  9 10  1  0  0  0
  9 27  2  0  0  0
 10 11  2  0  0  0
 10 15  1  0  0  0
 11 12  1  0  0  0
 11102  1  0  0  0
 12 13  2  0  0  0
 12103  1  0  0  0
 13 14  1  0  0  0
 13 31  1  0  0  0
 14 15  2  0  0  0
 14104  1  0  0  0
 15105  1  0  0  0
 16 17  2  0  0  0
 16 21  1  0  0  0
 16 31  1  0  0  0
 17 18  1  0  0  0
 17106  1  0  0  0
 18 19  2  0  0  0
 18107  1  0  0  0
 19 20  1  0  0  0
 19 24  1  0  0  0
 20 21  2  0  0  0
 20108  1  0  0  0
 21 23  1  0  0  0
 22 28  1  0  0  0
 22 32  2  0  0  0
 26 27  1  0  0  0
 28109  1  0  0  0
 28110  1  0  0  0
 29111  1  0  0  0
 29112  1  0  0  0
 33 34  1  0  0  0
 33 66  1  0  0  0
 33 70  2  0  0  0
 34 36  1  0  0  0
 34 59  1  0  0  0
 34113  1  0  0  0
 35 44  2  0  0  0
 35 45  1  0  0  0
 35 68  1  0  0  0
 36 56  1  0  0  0
 36114  1  0  0  0
 37 39  1  0  0  0
 37 47  1  0  0  0
 37 66  1  0  0  0
 37115  1  0  0  0
 38 43  2  0  0  0
 38 46  1  0  0  0
 38 47  1  0  0  0
 39 64  1  0  0  0
 39 67  2  0  0  0
 40 52  1  0  0  0
 40 53  2  0  0  0
 40 58  1  0  0  0
 41116  1  0  0  0
 41117  1  0  0  0
 41118  1  0  0  0
 41 48  1  0  0  0
 42 43  1  0  0  0
 42 66  1  0  0  0
 42119  1  0  0  0
 42120  1  0  0  0
 43 44  1  0  0  0
 44121  1  0  0  0
 45 46  2  0  0  0
 45122  1  0  0  0
 46123  1  0  0  0
 47124  1  0  0  0
 47125  1  0  0  0
 48 56  1  0  0  0
 48 65  1  0  0  0
 48126  1  0  0  0
 49 50  1  0  0  0
 49 53  1  0  0  0
 49 64  1  0  0  0
 49127  1  0  0  0
 50 51  1  0  0  0
 50128  1  0  0  0
 50129  1  0  0  0
 51 52  1  0  0  0
 51130  1  0  0  0
 51131  1  0  0  0
 52132  1  0  0  0
 52133  1  0  0  0
 53 54  1  0  0  0
 54 55  2  0  0  0
 54134  1  0  0  0
 55 57  1  0  0  0
 55135  1  0  0  0
 56 69  2  0  0  0
 57 58  2  0  0  0
 57136  1  0  0  0
 58137  1  0  0  0
 59 60  1  0  0  0
 59 61  1  0  0  0
 59 62  1  0  0  0
 60138  1  0  0  0
 60139  1  0  0  0
 60140  1  0  0  0
 61141  1  0  0  0
 61142  1  0  0  0
 61143  1  0  0  0
 62144  1  0  0  0
 62145  1  0  0  0
 62146  1  0  0  0
 63 65  1  0  0  0
 63147  1  0  0  0
 63148  1  0  0  0
 63149  1  0  0  0
 64150  1  0  0  0
 65151  1  0  0  0
 68 80  1  0  0  0
 71 72  2  0  0  0
 71 74  1  0  0  0
 71152  1  0  0  0
 72 75  1  0  0  0
 72153  1  0  0  0
 73 75  2  0  0  0
 73 76  1  0  0  0
 73154  1  0  0  0
 74 76  2  0  0  0
 74 86  1  0  0  0
 75 90  1  0  0  0
 76 92  1  0  0  0
 77 80  1  0  0  0
 77 87  1  0  0  0
 77 88  2  0  0  0
 78 81  1  0  0  0
 78 89  2  0  0  0
 78 90  1  0  0  0
 79155  1  0  0  0
 79156  1  0  0  0
 79157  1  0  0  0
 79 85  1  0  0  0
 80158  1  0  0  0
 80159  1  0  0  0
 81 91  1  0  0  0
 81160  1  0  0  0
 81161  1  0  0  0
 82 83  1  0  0  0
 82 84  1  0  0  0
 82162  1  0  0  0
 82163  1  0  0  0
 83 85  1  0  0  0
 83164  1  0  0  0
 83165  1  0  0  0
 84 87  1  0  0  0
 84166  1  0  0  0
 84167  1  0  0  0
 85 91  1  0  0  0
 85168  1  0  0  0
 86169  1  0  0  0
 87170  1  0  0  0
M  ISO  4   1 100  68 101  80 101  86 100
M  END
> <chiral flag>
0

> <version>
0

> <s_m_source_file>
/data/baiqing/PycharmProjects/Reinvent-master-3.2/result/LINK_invent/BTK/process_docking_weight1_custom_sum_contain_oxygen_bond_distance_aromatic_linkinvent_7_9_3/rearranged_h_0006.sdf

> <i_m_source_file_index>
88

> <r_mmod_Potential_Energy-OPLS-2005>
-160.258575439453

> <r_mmod_Stretch_Energy-OPLS-2005>
33.182373046875

> <r_mmod_Bend_Energy-OPLS-2005>
108.889678955078

> <r_mmod_Torsional_Energy-OPLS-2005>
211.139877319336

> <r_mmod_Improper_Torsional_Energy-OPLS-2005>
1.91293585300446

> <r_mmod_Van_der_Waal_Energy-OPLS-2005>
160.692581176758

> <r_mmod_Electrostatic_Energy-OPLS-2005>
-418.146850585938

> <r_mmod_Solvation_Energy-OPLS-2005>
-263.817474365234

> <b_mmod_Minimization_Converged-OPLS-2005>
0

> <r_mmod_RMS_Derivative-OPLS-2005>
1.83818590641022

$$$$
88
                    3D
 Structure written by MMmdl.
169177  0  0  1  0            999 V2000
  -30.7117  -14.4785   20.4859 C   0  0  0  0  0  0
  -30.4111  -12.2859   19.4381 C   0  0  0  0  0  0
  -29.4960  -12.4815   18.2118 C   0  0  0  0  0  0
  -28.0151  -12.3550   18.6201 C   0  0  0  0  0  0
  -27.6556  -13.2137   19.8638 C   0  0  2  0  0  0
  -28.6989  -13.0409   20.9923 C   0  0  0  0  0  0
  -25.2572  -13.8175   20.5675 C   0  0  0  0  0  0
  -24.1838  -13.0446   20.9189 C   0  0  0  0  0  0
  -24.6401  -11.6914   20.8743 C   0  0  0  0  0  0
  -23.9073  -10.4292   21.0403 C   0  0  0  0  0  0
  -24.3624   -9.4208   21.9182 C   0  0  0  0  0  0
  -23.6295   -8.2247   22.0754 C   0  0  0  0  0  0
  -22.4280   -8.0282   21.3541 C   0  0  0  0  0  0
  -21.9919   -9.0256   20.4644 C   0  0  0  0  0  0
  -22.7249  -10.2133   20.3051 C   0  0  0  0  0  0
  -21.6852   -6.0738   22.5279 C   0  0  0  0  0  0
  -21.4009   -6.5639   23.8213 C   0  0  0  0  0  0
  -21.3660   -5.6791   24.9170 C   0  0  0  0  0  0
  -21.6045   -4.3053   24.7222 C   0  0  0  0  0  0
  -21.8821   -3.8148   23.4342 C   0  0  0  0  0  0
  -21.9194   -4.6967   22.3397 C   0  0  0  0  0  0
  -22.7859  -13.5241   21.1850 C   0  0  0  0  0  0
  -22.1664   -4.2157   21.0976 F   0  0  0  0  0  0
  -21.5633   -3.4535   25.7733 F   0  0  0  0  0  0
  -30.0287  -13.3055   20.4261 N   0  0  0  0  0  0
  -26.3003  -12.9357   20.3326 N   0  0  0  0  0  0
  -25.9327  -11.6512   20.5769 N   0  0  0  0  0  0
  -22.0500  -12.8224   22.0399 N   0  0  0  0  0  0
  -25.4270  -15.1898   20.4075 N   0  0  0  0  0  0
  -31.9067  -14.5540   20.1958 O   0  0  0  0  0  0
  -21.6639   -6.8882   21.4243 O   0  0  0  0  0  0
  -22.3544  -14.5548   20.6706 O   0  0  0  0  0  0
  -24.6130  -31.8686   23.2100 C   0  0  0  0  0  0
  -25.9038  -32.4823   23.8385 C   0  0  1  0  0  0
  -27.2320  -27.4438   20.1066 C   0  0  0  0  0  0
  -25.5915  -33.8622   24.2332 N   0  0  0  0  0  0
  -23.4003  -30.4908   21.5506 C   0  0  2  0  0  0
  -24.8483  -28.9573   20.1146 C   0  0  0  0  0  0
  -22.7394  -29.4659   22.4998 C   0  0  0  0  0  0
  -18.0260  -28.1372   22.8483 C   0  0  0  0  0  0
  -24.1495  -36.7306   23.2636 C   0  0  0  0  0  0
  -25.9279  -30.8379   21.3619 C   0  0  0  0  0  0
  -26.0076  -29.4739   20.7081 C   0  0  0  0  0  0
  -27.2058  -28.7262   20.6958 C   0  0  0  0  0  0
  -26.0605  -26.9356   19.5084 C   0  0  0  0  0  0
  -24.8698  -27.6874   19.5095 C   0  0  0  0  0  0
  -23.6082  -29.8215   20.1653 C   0  0  0  0  0  0
  -25.4122  -36.3108   24.0332 C   0  0  1  0  0  0
  -20.5850  -28.3663   23.1314 C   0  0  2  0  0  0
  -20.6770  -26.9403   22.5413 C   0  0  0  0  0  0
  -19.5753  -26.6376   21.5210 C   0  0  0  0  0  0
  -18.1919  -26.7918   22.1608 C   0  0  0  0  0  0
  -19.1512  -28.8832   23.2895 C   0  0  0  0  0  0
  -18.9447  -30.1440   23.8909 C   0  0  0  0  0  0
  -17.6456  -30.6590   24.0563 C   0  0  0  0  0  0
  -25.9046  -34.9474   23.5125 C   0  0  0  0  0  0
  -16.5343  -29.9088   23.6337 C   0  0  0  0  0  0
  -16.7253  -28.6499   23.0358 C   0  0  0  0  0  0
  -26.4479  -31.6584   25.0697 C   0  0  0  0  0  0
  -25.3749  -31.3671   26.1439 C   0  0  0  0  0  0
  -27.0312  -30.3027   24.6057 C   0  0  0  0  0  0
  -27.6047  -32.4306   25.7474 C   0  0  0  0  0  0
  -27.5593  -37.1809   24.8464 C   0  0  0  0  0  0
  -21.4126  -29.3026   22.3722 N   0  0  0  0  0  0
  -26.4312  -37.3793   23.9401 N   0  0  0  0  0  0
  -24.6652  -31.0794   22.0999 N   0  0  0  0  0  0
  -23.4166  -28.8209   23.3048 O   0  0  0  0  0  0
  -28.3838  -26.6932   20.1186 O   0  0  0  0  0  0
  -26.5596  -34.8921   22.4682 O   0  0  0  0  0  0
  -23.5333  -32.1443   23.7507 O   0  0  0  0  0  0
  -30.7591  -19.4920   19.1149 C   0  0  0  0  0  0
  -31.1078  -17.1025   19.0505 C   0  0  0  0  0  0
  -31.4053  -18.3827   18.5383 C   0  0  0  0  0  0
  -29.5695  -18.0524   20.6987 C   0  0  0  0  0  0
  -29.8229  -19.3535   20.1647 C   0  0  0  0  0  0
  -30.2287  -16.9131   20.1487 C   0  0  0  0  0  0
  -28.8575  -21.6527   20.0328 C   0  0  0  0  0  0
  -28.5930  -17.8520   21.8522 C   0  0  0  0  0  0
  -33.5490  -19.5235   17.8682 C   0  0  0  0  0  0
  -31.6846  -19.2736   16.1980 C   0  0  0  0  0  0
  -33.0471  -17.2986   16.8756 C   0  0  0  0  0  0
  -28.4797  -22.8996   20.8521 C   0  0  0  0  0  0
  -28.5379  -24.2231   20.0374 C   0  0  0  0  0  0
  -28.3009  -25.4852   20.8911 C   0  0  0  0  0  0
  -32.4054  -18.6073   17.3870 C   0  0  0  0  0  0
  -29.2156  -20.5356   20.7066 N   0  0  0  0  0  0
  -29.9606  -15.5898   20.6625 N   0  0  0  0  0  0
  -28.7933  -21.7025   18.8021 O   0  0  0  0  0  0
  -31.4602  -12.3509   19.1452 H   0  0  0  0  0  0
  -30.2822  -11.2872   19.8586 H   0  0  0  0  0  0
  -29.7351  -11.7470   17.4416 H   0  0  0  0  0  0
  -29.6752  -13.4615   17.7664 H   0  0  0  0  0  0
  -27.8222  -11.3020   18.8287 H   0  0  0  0  0  0
  -27.3695  -12.6187   17.7813 H   0  0  0  0  0  0
  -27.6854  -14.2539   19.5388 H   0  0  0  0  0  0
  -28.6658  -12.0266   21.3923 H   0  0  0  0  0  0
  -28.4812  -13.7031   21.8322 H   0  0  0  0  0  0
  -25.2772   -9.5689   22.4758 H   0  0  0  0  0  0
  -24.0004   -7.4642   22.7479 H   0  0  0  0  0  0
  -21.0851   -8.8770   19.8947 H   0  0  0  0  0  0
  -22.3706  -10.9673   19.6156 H   0  0  0  0  0  0
  -21.1993   -7.6145   23.9723 H   0  0  0  0  0  0
  -21.1482   -6.0514   25.9079 H   0  0  0  0  0  0
  -22.0601   -2.7616   23.2835 H   0  0  0  0  0  0
  -22.4105  -11.9877   22.4776 H   0  0  0  0  0  0
  -21.1123  -13.1257   22.2610 H   0  0  0  0  0  0
  -24.6544  -15.8391   20.5075 H   0  0  0  0  0  0
  -26.2642  -15.6269   20.0449 H   0  0  0  0  0  0
  -26.7104  -32.5543   23.1144 H   0  0  0  0  0  0
  -25.0092  -33.9787   25.0494 H   0  0  0  0  0  0
  -22.6895  -31.3076   21.4114 H   0  0  0  0  0  0
  -23.3764  -35.9635   23.3311 H   0  0  0  0  0  0
  -24.3584  -36.8919   22.2048 H   0  0  0  0  0  0
  -23.7242  -37.6510   23.6651 H   0  0  0  0  0  0
  -26.0406  -31.6066   20.5965 H   0  0  0  0  0  0
  -26.8151  -30.8889   21.9812 H   0  0  0  0  0  0
  -28.1010  -29.1194   21.1573 H   0  0  0  0  0  0
  -26.0685  -25.9583   19.0478 H   0  0  0  0  0  0
  -23.9784  -27.2840   19.0497 H   0  0  0  0  0  0
  -23.7121  -30.5965   19.4050 H   0  0  0  0  0  0
  -22.7336  -29.2379   19.8715 H   0  0  0  0  0  0
  -25.1306  -36.1975   25.0826 H   0  0  0  0  0  0
  -20.9931  -28.3231   24.1438 H   0  0  0  0  0  0
  -20.5700  -26.2266   23.3592 H   0  0  0  0  0  0
  -21.6643  -26.7472   22.1192 H   0  0  0  0  0  0
  -19.6931  -25.6290   21.1234 H   0  0  0  0  0  0
  -19.6706  -27.3195   20.6748 H   0  0  0  0  0  0
  -17.4199  -26.6670   21.3988 H   0  0  0  0  0  0
  -18.0320  -26.0047   22.8988 H   0  0  0  0  0  0
  -19.7933  -30.7246   24.2277 H   0  0  0  0  0  0
  -17.5019  -31.6275   24.5152 H   0  0  0  0  0  0
  -15.5348  -30.3004   23.7667 H   0  0  0  0  0  0
  -15.8639  -28.0829   22.7090 H   0  0  0  0  0  0
  -24.5931  -30.7018   25.7757 H   0  0  0  0  0  0
  -24.8929  -32.2819   26.4896 H   0  0  0  0  0  0
  -25.8099  -30.8819   27.0183 H   0  0  0  0  0  0
  -26.2838  -29.6776   24.1152 H   0  0  0  0  0  0
  -27.4136  -29.7268   25.4495 H   0  0  0  0  0  0
  -27.8649  -30.4344   23.9155 H   0  0  0  0  0  0
  -27.2652  -33.3590   26.2077 H   0  0  0  0  0  0
  -28.3850  -32.6902   25.0306 H   0  0  0  0  0  0
  -28.0721  -31.8414   26.5374 H   0  0  0  0  0  0
  -28.2610  -38.0110   24.7535 H   0  0  0  0  0  0
  -28.1097  -36.2644   24.6283 H   0  0  0  0  0  0
  -27.2296  -37.1436   25.8862 H   0  0  0  0  0  0
  -20.9291  -29.8698   21.6900 H   0  0  0  0  0  0
  -26.0202  -38.2875   24.1405 H   0  0  0  0  0  0
  -30.9929  -20.4755   18.7349 H   0  0  0  0  0  0
  -31.5697  -16.2471   18.5871 H   0  0  0  0  0  0
  -28.1276  -18.7753   22.1927 H   0  0  0  0  0  0
  -29.1065  -17.4098   22.7062 H   0  0  0  0  0  0
  -27.7899  -17.1777   21.5542 H   0  0  0  0  0  0
  -33.1922  -20.5063   18.1760 H   0  0  0  0  0  0
  -34.2875  -19.6879   17.0826 H   0  0  0  0  0  0
  -34.0722  -19.0861   18.7195 H   0  0  0  0  0  0
  -31.2608  -20.2431   16.4614 H   0  0  0  0  0  0
  -30.8677  -18.6501   15.8324 H   0  0  0  0  0  0
  -32.3654  -19.4418   15.3626 H   0  0  0  0  0  0
  -33.6019  -16.7866   17.6635 H   0  0  0  0  0  0
  -33.7531  -17.4921   16.0670 H   0  0  0  0  0  0
  -32.3004  -16.6072   16.4829 H   0  0  0  0  0  0
  -29.1578  -22.9693   21.7034 H   0  0  0  0  0  0
  -27.4784  -22.7572   21.2597 H   0  0  0  0  0  0
  -27.7965  -24.1890   19.2385 H   0  0  0  0  0  0
  -29.5098  -24.3084   19.5481 H   0  0  0  0  0  0
  -29.0647  -25.5430   21.6671 H   0  0  0  0  0  0
  -27.3484  -25.3976   21.4195 H   0  0  0  0  0  0
  -29.0690  -20.5488   21.7066 H   0  0  0  0  0  0
  -29.0412  -15.4357   21.0441 H   0  0  0  0  0  0
  1 25  1  0  0  0
  1 30  2  0  0  0
  1 87  1  0  0  0
  2  3  1  0  0  0
  2 25  1  0  0  0
  2 89  1  0  0  0
  2 90  1  0  0  0
  3  4  1  0  0  0
  3 91  1  0  0  0
  3 92  1  0  0  0
  4  5  1  0  0  0
  4 93  1  0  0  0
  4 94  1  0  0  0
  5  6  1  0  0  0
  5 26  1  0  0  0
  5 95  1  0  0  0
  6 25  1  0  0  0
  6 96  1  0  0  0
  6 97  1  0  0  0
  7  8  2  0  0  0
  7 26  1  0  0  0
  7 29  1  0  0  0
  8  9  1  0  0  0
  8 22  1  0  0  0
  9 10  1  0  0  0
  9 27  2  0  0  0
 10 11  2  0  0  0
 10 15  1  0  0  0
 11 12  1  0  0  0
 11 98  1  0  0  0
 12 13  2  0  0  0
 12 99  1  0  0  0
 13 14  1  0  0  0
 13 31  1  0  0  0
 14 15  2  0  0  0
 14100  1  0  0  0
 15101  1  0  0  0
 16 17  2  0  0  0
 16 21  1  0  0  0
 16 31  1  0  0  0
 17 18  1  0  0  0
 17102  1  0  0  0
 18 19  2  0  0  0
 18103  1  0  0  0
 19 20  1  0  0  0
 19 24  1  0  0  0
 20 21  2  0  0  0
 20104  1  0  0  0
 21 23  1  0  0  0
 22 28  1  0  0  0
 22 32  2  0  0  0
 26 27  1  0  0  0
 28105  1  0  0  0
 28106  1  0  0  0
 29107  1  0  0  0
 29108  1  0  0  0
 33 34  1  0  0  0
 33 66  1  0  0  0
 33 70  2  0  0  0
 34 36  1  0  0  0
 34 59  1  0  0  0
 34109  1  0  0  0
 35 44  2  0  0  0
 35 45  1  0  0  0
 35 68  1  0  0  0
 36 56  1  0  0  0
 36110  1  0  0  0
 37 39  1  0  0  0
 37 47  1  0  0  0
 37 66  1  0  0  0
 37111  1  0  0  0
 38 43  2  0  0  0
 38 46  1  0  0  0
 38 47  1  0  0  0
 39 64  1  0  0  0
 39 67  2  0  0  0
 40 52  1  0  0  0
 40 53  2  0  0  0
 40 58  1  0  0  0
 41112  1  0  0  0
 41113  1  0  0  0
 41114  1  0  0  0
 41 48  1  0  0  0
 42 43  1  0  0  0
 42 66  1  0  0  0
 42115  1  0  0  0
 42116  1  0  0  0
 43 44  1  0  0  0
 44117  1  0  0  0
 45 46  2  0  0  0
 45118  1  0  0  0
 46119  1  0  0  0
 47120  1  0  0  0
 47121  1  0  0  0
 48 56  1  0  0  0
 48 65  1  0  0  0
 48122  1  0  0  0
 49 50  1  0  0  0
 49 53  1  0  0  0
 49 64  1  0  0  0
 49123  1  0  0  0
 50 51  1  0  0  0
 50124  1  0  0  0
 50125  1  0  0  0
 51 52  1  0  0  0
 51126  1  0  0  0
 51127  1  0  0  0
 52128  1  0  0  0
 52129  1  0  0  0
 53 54  1  0  0  0
 54 55  2  0  0  0
 54130  1  0  0  0
 55 57  1  0  0  0
 55131  1  0  0  0
 56 69  2  0  0  0
 57 58  2  0  0  0
 57132  1  0  0  0
 58133  1  0  0  0
 59 60  1  0  0  0
 59 61  1  0  0  0
 59 62  1  0  0  0
 60134  1  0  0  0
 60135  1  0  0  0
 60136  1  0  0  0
 61137  1  0  0  0
 61138  1  0  0  0
 61139  1  0  0  0
 62140  1  0  0  0
 62141  1  0  0  0
 62142  1  0  0  0
 63 65  1  0  0  0
 63143  1  0  0  0
 63144  1  0  0  0
 63145  1  0  0  0
 64146  1  0  0  0
 65147  1  0  0  0
 68 84  1  0  0  0
 71 73  2  0  0  0
 71 75  1  0  0  0
 71148  1  0  0  0
 72 73  1  0  0  0
 72 76  2  0  0  0
 72149  1  0  0  0
 73 85  1  0  0  0
 74 75  2  0  0  0
 74 76  1  0  0  0
 74 78  1  0  0  0
 75 86  1  0  0  0
 76 87  1  0  0  0
 77 82  1  0  0  0
 77 86  1  0  0  0
 77 88  2  0  0  0
 78150  1  0  0  0
 78151  1  0  0  0
 78152  1  0  0  0
 79153  1  0  0  0
 79154  1  0  0  0
 79155  1  0  0  0
 79 85  1  0  0  0
 80 85  1  0  0  0
 80156  1  0  0  0
 80157  1  0  0  0
 80158  1  0  0  0
 81 85  1  0  0  0
 81159  1  0  0  0
 81160  1  0  0  0
 81161  1  0  0  0
 82 83  1  0  0  0
 82162  1  0  0  0
 82163  1  0  0  0
 83 84  1  0  0  0
 83164  1  0  0  0
 83165  1  0  0  0
 84166  1  0  0  0
 84167  1  0  0  0
 86168  1  0  0  0
 87169  1  0  0  0
M  ISO  4   1 100  68 101  84 101  87 100
M  END
> <chiral flag>
0

> <version>
0

> <s_m_source_file>
/data/baiqing/PycharmProjects/Reinvent-master-3.2/result/LINK_invent/BTK/process_docking_weight1_custom_sum_contain_oxygen_bond_distance_aromatic_linkinvent_7_9_3/rearranged_h_0006.sdf

> <i_m_source_file_index>
89

> <r_mmod_Potential_Energy-OPLS-2005>
-96.8622665405273

> <r_mmod_Stretch_Energy-OPLS-2005>
43.0290031433105

> <r_mmod_Bend_Energy-OPLS-2005>
98.2496948242188

> <r_mmod_Torsional_Energy-OPLS-2005>
267.114379882812

> <r_mmod_Improper_Torsional_Energy-OPLS-2005>
5.76870346069336

> <r_mmod_Van_der_Waal_Energy-OPLS-2005>
171.725631713867

> <r_mmod_Electrostatic_Energy-OPLS-2005>
-483.018707275391

> <r_mmod_Solvation_Energy-OPLS-2005>
-220.020095825195

> <b_mmod_Minimization_Converged-OPLS-2005>
0

> <r_mmod_RMS_Derivative-OPLS-2005>
1.29944479465485

$$$$
89
                    3D
 Structure written by MMmdl.
215223  0  0  1  0            999 V2000
  -30.6812  -14.4583   20.5107 C   0  0  0  0  0  0
  -30.4147  -12.2776   19.4217 C   0  0  0  0  0  0
  -29.4907  -12.5098   18.2069 C   0  0  0  0  0  0
  -28.0081  -12.3774   18.6118 C   0  0  0  0  0  0
  -27.6611  -13.1958   19.8842 C   0  0  2  0  0  0
  -28.7072  -12.9666   21.0006 C   0  0  0  0  0  0
  -25.2593  -13.8140   20.5660 C   0  0  0  0  0  0
  -24.1832  -13.0432   20.9110 C   0  0  0  0  0  0
  -24.6365  -11.6887   20.8674 C   0  0  0  0  0  0
  -23.8999  -10.4292   21.0345 C   0  0  0  0  0  0
  -24.3575   -9.4236   21.9137 C   0  0  0  0  0  0
  -23.6296   -8.2252   22.0727 C   0  0  0  0  0  0
  -22.4285   -8.0253   21.3505 C   0  0  0  0  0  0
  -21.9870   -9.0201   20.4604 C   0  0  0  0  0  0
  -22.7158  -10.2121   20.3004 C   0  0  0  0  0  0
  -21.6873   -6.0713   22.5256 C   0  0  0  0  0  0
  -21.4041   -6.5624   23.8187 C   0  0  0  0  0  0
  -21.3669   -5.6773   24.9144 C   0  0  0  0  0  0
  -21.6054   -4.3041   24.7198 C   0  0  0  0  0  0
  -21.8831   -3.8127   23.4329 C   0  0  0  0  0  0
  -21.9202   -4.6942   22.3385 C   0  0  0  0  0  0
  -22.7859  -13.5237   21.1799 C   0  0  0  0  0  0
  -22.1663   -4.2116   21.0965 F   0  0  0  0  0  0
  -21.5628   -3.4538   25.7728 F   0  0  0  0  0  0
  -30.0409  -13.2623   20.4443 N   0  0  0  0  0  0
  -26.3018  -12.9271   20.3411 N   0  0  0  0  0  0
  -25.9288  -11.6436   20.5781 N   0  0  0  0  0  0
  -22.0525  -12.8205   22.0369 N   0  0  0  0  0  0
  -25.4343  -15.1864   20.4099 N   0  0  0  0  0  0
  -31.8310  -14.6406   20.1008 O   0  0  0  0  0  0
  -21.6640   -6.8855   21.4220 O   0  0  0  0  0  0
  -22.3518  -14.5551   20.6680 O   0  0  0  0  0  0
  -24.6079  -31.8713   23.2124 C   0  0  0  0  0  0
  -25.9003  -32.4834   23.8396 C   0  0  1  0  0  0
  -27.2451  -27.4825   20.0890 C   0  0  0  0  0  0
  -25.5886  -33.8631   24.2340 N   0  0  0  0  0  0
  -23.3921  -30.4936   21.5530 C   0  0  2  0  0  0
  -24.8394  -28.9595   20.1164 C   0  0  0  0  0  0
  -22.7365  -29.4680   22.5021 C   0  0  0  0  0  0
  -18.0258  -28.1369   22.8498 C   0  0  0  0  0  0
  -24.1488  -36.7318   23.2639 C   0  0  0  0  0  0
  -25.9136  -30.8502   21.3567 C   0  0  0  0  0  0
  -25.9914  -29.4849   20.7107 C   0  0  0  0  0  0
  -27.1907  -28.7488   20.7004 C   0  0  0  0  0  0
  -26.0737  -26.9498   19.4998 C   0  0  0  0  0  0
  -24.8723  -27.6882   19.5124 C   0  0  0  0  0  0
  -23.5969  -29.8205   20.1673 C   0  0  0  0  0  0
  -25.4108  -36.3125   24.0343 C   0  0  1  0  0  0
  -20.5845  -28.3652   23.1341 C   0  0  2  0  0  0
  -20.6750  -26.9395   22.5423 C   0  0  0  0  0  0
  -19.5738  -26.6387   21.5213 C   0  0  0  0  0  0
  -18.1914  -26.7922   22.1619 C   0  0  0  0  0  0
  -19.1504  -28.8827   23.2921 C   0  0  0  0  0  0
  -18.9438  -30.1436   23.8923 C   0  0  0  0  0  0
  -17.6444  -30.6587   24.0561 C   0  0  0  0  0  0
  -25.9036  -34.9493   23.5133 C   0  0  0  0  0  0
  -16.5336  -29.9093   23.6323 C   0  0  0  0  0  0
  -16.7246  -28.6507   23.0348 C   0  0  0  0  0  0
  -26.4459  -31.6598   25.0700 C   0  0  0  0  0  0
  -25.3743  -31.3678   26.1457 C   0  0  0  0  0  0
  -27.0285  -30.3055   24.6028 C   0  0  0  0  0  0
  -27.6052  -32.4303   25.7447 C   0  0  0  0  0  0
  -27.5584  -37.1813   24.8468 C   0  0  0  0  0  0
  -21.4101  -29.3024   22.3754 N   0  0  0  0  0  0
  -26.4300  -37.3802   23.9410 N   0  0  0  0  0  0
  -24.6558  -31.0856   22.0998 N   0  0  0  0  0  0
  -23.4161  -28.8233   23.3052 O   0  0  0  0  0  0
  -28.4632  -26.8490   20.1022 O   0  0  0  0  0  0
  -26.5600  -34.8935   22.4703 O   0  0  0  0  0  0
  -23.5293  -32.1453   23.7553 O   0  0  0  0  0  0
  -30.0568  -19.1345   20.0315 C   0  0  0  0  0  0
  -30.2703  -17.9177   20.7139 C   0  0  0  0  0  0
  -29.1577  -16.7262   18.9057 C   0  0  0  0  0  0
  -29.3659  -19.1578   18.7993 C   0  0  0  0  0  0
  -29.8132  -16.7038   20.1566 C   0  0  0  0  0  0
  -28.9307  -17.9451   18.2207 C   0  0  0  0  0  0
  -28.2506  -17.1189   15.9856 C   0  0  0  0  0  0
  -26.8423  -17.5997   12.3709 C   0  0  0  0  0  0
  -29.0907  -20.4860   18.1125 C   0  0  0  0  0  0
  -32.7529  -23.7483   20.0561 C   0  0  0  0  0  0
  -27.2185  -17.2989   14.8763 C   0  0  0  0  0  0
  -27.8703  -17.5402   13.5006 C   0  0  0  0  0  0
  -30.6527  -19.6038    9.6974 C   0  0  0  0  0  0
  -31.5398  -19.4944   10.9443 C   0  0  0  0  0  0
  -30.8274  -18.4433    8.7046 C   0  0  0  0  0  0
  -31.2526  -20.6454   11.9172 C   0  0  0  0  0  0
  -29.8847  -18.5275    7.4846 C   0  0  0  0  0  0
  -32.0372  -20.5564   13.2309 C   0  0  0  0  0  0
  -28.3828  -18.6539    7.8157 C   0  0  0  0  0  0
  -31.6638  -21.7108   14.1691 C   0  0  0  0  0  0
  -27.8339  -17.4856    8.6557 C   0  0  0  0  0  0
  -32.2989  -21.5969   15.5607 C   0  0  0  0  0  0
  -26.3800  -17.6820    9.1244 C   0  0  0  0  0  0
  -31.8344  -22.7386   16.4742 C   0  0  0  0  0  0
  -30.1374  -25.3172   19.5357 C   0  0  0  0  0  0
  -26.2057  -18.7319   10.2416 C   0  0  0  0  0  0
  -32.3345  -22.6017   17.9280 C   0  0  0  0  0  0
  -30.5191  -23.9242   19.0177 C   0  0  0  0  0  0
  -28.6303  -25.6004   19.4581 C   0  0  0  0  0  0
  -28.1846  -17.9808   17.0112 N   0  0  0  0  0  0
  -29.9030  -15.4850   20.8849 N   0  0  0  0  0  0
  -27.0727  -18.4807   11.3920 N   0  0  0  0  0  0
  -31.9829  -23.7655   18.7881 N   0  3  1  0  0  0
  -29.0955  -16.2240   15.8976 O   0  0  0  0  0  0
  -25.8538  -16.8654   12.3858 O   0  0  0  0  0  0
  -31.4648  -12.3522   19.1318 H   0  0  0  0  0  0
  -30.2809  -11.2675   19.8106 H   0  0  0  0  0  0
  -29.7248  -11.8022   17.4095 H   0  0  0  0  0  0
  -29.6636  -13.5058   17.7953 H   0  0  0  0  0  0
  -27.8001  -11.3211   18.7784 H   0  0  0  0  0  0
  -27.3602  -12.6814   17.7892 H   0  0  0  0  0  0
  -27.7037  -14.2441   19.6040 H   0  0  0  0  0  0
  -28.6755  -11.9299   21.3383 H   0  0  0  0  0  0
  -28.4852  -13.5663   21.8852 H   0  0  0  0  0  0
  -25.2716   -9.5770   22.4701 H   0  0  0  0  0  0
  -24.0013   -7.4662   22.7477 H   0  0  0  0  0  0
  -21.0774   -8.8682   19.8940 H   0  0  0  0  0  0
  -22.3536  -10.9637   19.6131 H   0  0  0  0  0  0
  -21.2056   -7.6137   23.9686 H   0  0  0  0  0  0
  -21.1491   -6.0502   25.9047 H   0  0  0  0  0  0
  -22.0624   -2.7593   23.2817 H   0  0  0  0  0  0
  -22.4130  -11.9823   22.4690 H   0  0  0  0  0  0
  -21.1176  -13.1255   22.2676 H   0  0  0  0  0  0
  -24.6724  -15.8459   20.5235 H   0  0  0  0  0  0
  -26.2979  -15.6305   20.1249 H   0  0  0  0  0  0
  -26.7070  -32.5570   23.1164 H   0  0  0  0  0  0
  -25.0034  -33.9805   25.0479 H   0  0  0  0  0  0
  -22.6794  -31.3090   21.4143 H   0  0  0  0  0  0
  -23.3751  -35.9651   23.3319 H   0  0  0  0  0  0
  -24.3580  -36.8908   22.2050 H   0  0  0  0  0  0
  -23.7243  -37.6529   23.6633 H   0  0  0  0  0  0
  -26.0147  -31.6158   20.5856 H   0  0  0  0  0  0
  -26.8060  -30.9095   21.9681 H   0  0  0  0  0  0
  -28.0821  -29.1574   21.1556 H   0  0  0  0  0  0
  -26.0730  -25.9783   19.0283 H   0  0  0  0  0  0
  -23.9838  -27.2759   19.0545 H   0  0  0  0  0  0
  -23.6968  -30.5927   19.4026 H   0  0  0  0  0  0
  -22.7225  -29.2336   19.8780 H   0  0  0  0  0  0
  -25.1285  -36.1994   25.0835 H   0  0  0  0  0  0
  -20.9938  -28.3208   24.1465 H   0  0  0  0  0  0
  -20.5663  -26.2255   23.3601 H   0  0  0  0  0  0
  -21.6621  -26.7463   22.1211 H   0  0  0  0  0  0
  -19.6901  -25.6310   21.1222 H   0  0  0  0  0  0
  -19.6680  -27.3211   20.6760 H   0  0  0  0  0  0
  -17.4192  -26.6682   21.4011 H   0  0  0  0  0  0
  -18.0305  -26.0053   22.9005 H   0  0  0  0  0  0
  -19.7921  -30.7231   24.2304 H   0  0  0  0  0  0
  -17.5012  -31.6272   24.5153 H   0  0  0  0  0  0
  -15.5337  -30.3000   23.7642 H   0  0  0  0  0  0
  -15.8648  -28.0833   22.7049 H   0  0  0  0  0  0
  -24.5895  -30.7057   25.7775 H   0  0  0  0  0  0
  -24.8957  -32.2828   26.4956 H   0  0  0  0  0  0
  -25.8101  -30.8790   27.0179 H   0  0  0  0  0  0
  -26.2803  -29.6801   24.1137 H   0  0  0  0  0  0
  -27.4149  -29.7294   25.4448 H   0  0  0  0  0  0
  -27.8596  -30.4396   23.9096 H   0  0  0  0  0  0
  -27.2689  -33.3590   26.2062 H   0  0  0  0  0  0
  -28.3830  -32.6876   25.0247 H   0  0  0  0  0  0
  -28.0752  -31.8399   26.5321 H   0  0  0  0  0  0
  -28.2615  -38.0098   24.7517 H   0  0  0  0  0  0
  -28.1067  -36.2634   24.6294 H   0  0  0  0  0  0
  -27.2303  -37.1467   25.8871 H   0  0  0  0  0  0
  -20.9246  -29.8741   21.6984 H   0  0  0  0  0  0
  -26.0197  -38.2884   24.1394 H   0  0  0  0  0  0
  -30.4040  -20.0590   20.4724 H   0  0  0  0  0  0
  -30.7600  -17.9309   21.6788 H   0  0  0  0  0  0
  -28.7948  -15.8041   18.4773 H   0  0  0  0  0  0
  -29.4013  -21.3184   18.7367 H   0  0  0  0  0  0
  -28.0280  -20.6183   17.9081 H   0  0  0  0  0  0
  -29.6297  -20.5499   17.1678 H   0  0  0  0  0  0
  -33.8223  -23.6432   19.8715 H   0  0  0  0  0  0
  -32.4403  -22.9196   20.6923 H   0  0  0  0  0  0
  -32.6216  -24.6726   20.6176 H   0  0  0  0  0  0
  -26.5358  -18.1151   15.1184 H   0  0  0  0  0  0
  -26.6110  -16.3932   14.8553 H   0  0  0  0  0  0
  -28.4390  -18.4704   13.5286 H   0  0  0  0  0  0
  -28.5806  -16.7454   13.2714 H   0  0  0  0  0  0
  -30.8449  -20.5499    9.1893 H   0  0  0  0  0  0
  -29.6174  -19.6416   10.0339 H   0  0  0  0  0  0
  -32.5926  -19.4987   10.6593 H   0  0  0  0  0  0
  -31.3556  -18.5416   11.4433 H   0  0  0  0  0  0
  -30.6851  -17.4918    9.2174 H   0  0  0  0  0  0
  -31.8584  -18.4274    8.3489 H   0  0  0  0  0  0
  -30.1857  -20.6614   12.1461 H   0  0  0  0  0  0
  -31.4714  -21.5958   11.4285 H   0  0  0  0  0  0
  -30.0382  -17.6471    6.8582 H   0  0  0  0  0  0
  -30.1773  -19.3807    6.8702 H   0  0  0  0  0  0
  -33.1091  -20.5735   13.0295 H   0  0  0  0  0  0
  -31.8261  -19.6034   13.7182 H   0  0  0  0  0  0
  -27.8208  -18.7117    6.8823 H   0  0  0  0  0  0
  -28.1980  -19.6061    8.3129 H   0  0  0  0  0  0
  -30.5782  -21.7419   14.2762 H   0  0  0  0  0  0
  -31.9483  -22.6595   13.7101 H   0  0  0  0  0  0
  -28.4634  -17.3127    9.5268 H   0  0  0  0  0  0
  -27.8992  -16.5710    8.0662 H   0  0  0  0  0  0
  -33.3864  -21.6023   15.4784 H   0  0  0  0  0  0
  -32.0232  -20.6398   16.0058 H   0  0  0  0  0  0
  -25.9960  -16.7258    9.4824 H   0  0  0  0  0  0
  -25.7495  -17.9482    8.2750 H   0  0  0  0  0  0
  -30.7464  -22.7517   16.4428 H   0  0  0  0  0  0
  -32.1661  -23.6906   16.0574 H   0  0  0  0  0  0
  -30.6617  -26.0847   18.9645 H   0  0  0  0  0  0
  -30.4617  -25.4241   20.5713 H   0  0  0  0  0  0
  -25.1631  -18.7705   10.5633 H   0  0  0  0  0  0
  -26.4334  -19.7263    9.8575 H   0  0  0  0  0  0
  -33.4215  -22.5055   17.8974 H   0  0  0  0  0  0
  -31.9612  -21.6811   18.3793 H   0  0  0  0  0  0
  -29.9614  -23.7668   18.0979 H   0  0  0  0  0  0
  -30.1731  -23.1663   19.7201 H   0  0  0  0  0  0
  -28.0545  -24.8263   19.9684 H   0  0  0  0  0  0
  -28.3069  -25.6481   18.4163 H   0  0  0  0  0  0
  -27.5576  -18.7639   16.8940 H   0  0  0  0  0  0
  -29.0250  -15.1678   21.2679 H   0  0  0  0  0  0
  -27.9221  -19.0255   11.4494 H   0  0  0  0  0  0
  -32.2981  -24.5810   18.2832 H   0  0  0  0  0  0
  1 25  1  0  0  0
  1 30  2  0  0  0
  1101  1  0  0  0
  2  3  1  0  0  0
  2 25  1  0  0  0
  2106  1  0  0  0
  2107  1  0  0  0
  3  4  1  0  0  0
  3108  1  0  0  0
  3109  1  0  0  0
  4  5  1  0  0  0
  4110  1  0  0  0
  4111  1  0  0  0
  5  6  1  0  0  0
  5 26  1  0  0  0
  5112  1  0  0  0
  6 25  1  0  0  0
  6113  1  0  0  0
  6114  1  0  0  0
  7  8  2  0  0  0
  7 26  1  0  0  0
  7 29  1  0  0  0
  8  9  1  0  0  0
  8 22  1  0  0  0
  9 10  1  0  0  0
  9 27  2  0  0  0
 10 11  2  0  0  0
 10 15  1  0  0  0
 11 12  1  0  0  0
 11115  1  0  0  0
 12 13  2  0  0  0
 12116  1  0  0  0
 13 14  1  0  0  0
 13 31  1  0  0  0
 14 15  2  0  0  0
 14117  1  0  0  0
 15118  1  0  0  0
 16 17  2  0  0  0
 16 21  1  0  0  0
 16 31  1  0  0  0
 17 18  1  0  0  0
 17119  1  0  0  0
 18 19  2  0  0  0
 18120  1  0  0  0
 19 20  1  0  0  0
 19 24  1  0  0  0
 20 21  2  0  0  0
 20121  1  0  0  0
 21 23  1  0  0  0
 22 28  1  0  0  0
 22 32  2  0  0  0
 26 27  1  0  0  0
 28122  1  0  0  0
 28123  1  0  0  0
 29124  1  0  0  0
 29125  1  0  0  0
 33 34  1  0  0  0
 33 66  1  0  0  0
 33 70  2  0  0  0
 34 36  1  0  0  0
 34 59  1  0  0  0
 34126  1  0  0  0
 35 44  2  0  0  0
 35 45  1  0  0  0
 35 68  1  0  0  0
 36 56  1  0  0  0
 36127  1  0  0  0
 37 39  1  0  0  0
 37 47  1  0  0  0
 37 66  1  0  0  0
 37128  1  0  0  0
 38 43  2  0  0  0
 38 46  1  0  0  0
 38 47  1  0  0  0
 39 64  1  0  0  0
 39 67  2  0  0  0
 40 52  1  0  0  0
 40 53  2  0  0  0
 40 58  1  0  0  0
 41129  1  0  0  0
 41130  1  0  0  0
 41131  1  0  0  0
 41 48  1  0  0  0
 42 43  1  0  0  0
 42 66  1  0  0  0
 42132  1  0  0  0
 42133  1  0  0  0
 43 44  1  0  0  0
 44134  1  0  0  0
 45 46  2  0  0  0
 45135  1  0  0  0
 46136  1  0  0  0
 47137  1  0  0  0
 47138  1  0  0  0
 48 56  1  0  0  0
 48 65  1  0  0  0
 48139  1  0  0  0
 49 50  1  0  0  0
 49 53  1  0  0  0
 49 64  1  0  0  0
 49140  1  0  0  0
 50 51  1  0  0  0
 50141  1  0  0  0
 50142  1  0  0  0
 51 52  1  0  0  0
 51143  1  0  0  0
 51144  1  0  0  0
 52145  1  0  0  0
 52146  1  0  0  0
 53 54  1  0  0  0
 54 55  2  0  0  0
 54147  1  0  0  0
 55 57  1  0  0  0
 55148  1  0  0  0
 56 69  2  0  0  0
 57 58  2  0  0  0
 57149  1  0  0  0
 58150  1  0  0  0
 59 60  1  0  0  0
 59 61  1  0  0  0
 59 62  1  0  0  0
 60151  1  0  0  0
 60152  1  0  0  0
 60153  1  0  0  0
 61154  1  0  0  0
 61155  1  0  0  0
 61156  1  0  0  0
 62157  1  0  0  0
 62158  1  0  0  0
 62159  1  0  0  0
 63 65  1  0  0  0
 63160  1  0  0  0
 63161  1  0  0  0
 63162  1  0  0  0
 64163  1  0  0  0
 65164  1  0  0  0
 68 99  1  0  0  0
 71 72  2  0  0  0
 71 74  1  0  0  0
 71165  1  0  0  0
 72 75  1  0  0  0
 72166  1  0  0  0
 73 75  2  0  0  0
 73 76  1  0  0  0
 73167  1  0  0  0
 74 76  2  0  0  0
 74 79  1  0  0  0
 75101  1  0  0  0
 76100  1  0  0  0
 77 81  1  0  0  0
 77100  1  0  0  0
 77104  2  0  0  0
 78 82  1  0  0  0
 78102  1  0  0  0
 78105  2  0  0  0
 79168  1  0  0  0
 79169  1  0  0  0
 79170  1  0  0  0
 80171  1  0  0  0
 80172  1  0  0  0
 80173  1  0  0  0
 80103  1  0  0  0
 81 82  1  0  0  0
 81174  1  0  0  0
 81175  1  0  0  0
 82176  1  0  0  0
 82177  1  0  0  0
 83 84  1  0  0  0
 83 85  1  0  0  0
 83178  1  0  0  0
 83179  1  0  0  0
 84 86  1  0  0  0
 84180  1  0  0  0
 84181  1  0  0  0
 85 87  1  0  0  0
 85182  1  0  0  0
 85183  1  0  0  0
 86 88  1  0  0  0
 86184  1  0  0  0
 86185  1  0  0  0
 87 89  1  0  0  0
 87186  1  0  0  0
 87187  1  0  0  0
 88 90  1  0  0  0
 88188  1  0  0  0
 88189  1  0  0  0
 89 91  1  0  0  0
 89190  1  0  0  0
 89191  1  0  0  0
 90 92  1  0  0  0
 90192  1  0  0  0
 90193  1  0  0  0
 91 93  1  0  0  0
 91194  1  0  0  0
 91195  1  0  0  0
 92 94  1  0  0  0
 92196  1  0  0  0
 92197  1  0  0  0
 93 96  1  0  0  0
 93198  1  0  0  0
 93199  1  0  0  0
 94 97  1  0  0  0
 94200  1  0  0  0
 94201  1  0  0  0
 95 98  1  0  0  0
 95 99  1  0  0  0
 95202  1  0  0  0
 95203  1  0  0  0
 96102  1  0  0  0
 96204  1  0  0  0
 96205  1  0  0  0
 97103  1  0  0  0
 97206  1  0  0  0
 97207  1  0  0  0
 98103  1  0  0  0
 98208  1  0  0  0
 98209  1  0  0  0
 99210  1  0  0  0
 99211  1  0  0  0
100212  1  0  0  0
101213  1  0  0  0
102214  1  0  0  0
103215  1  0  0  0
M  CHG  1 103   1
M  ISO  4   1 100  68 101  99 101 101 100
M  END
> <chiral flag>
0

> <version>
0

> <s_m_source_file>
/data/baiqing/PycharmProjects/Reinvent-master-3.2/result/LINK_invent/BTK/process_docking_weight1_custom_sum_contain_oxygen_bond_distance_aromatic_linkinvent_7_9_3/rearranged_h_0006.sdf

> <i_m_source_file_index>
90

> <r_mmod_Potential_Energy-OPLS-2005>
-294.407684326172

> <r_mmod_Stretch_Energy-OPLS-2005>
35.1241683959961

> <r_mmod_Bend_Energy-OPLS-2005>
115.912727355957

> <r_mmod_Torsional_Energy-OPLS-2005>
286.749145507812

> <r_mmod_Improper_Torsional_Energy-OPLS-2005>
7.97897052764893

> <r_mmod_Van_der_Waal_Energy-OPLS-2005>
139.198135375977

> <r_mmod_Electrostatic_Energy-OPLS-2005>
-379.892059326172

> <r_mmod_Solvation_Energy-OPLS-2005>
-512.90625

> <b_mmod_Minimization_Converged-OPLS-2005>
0

> <r_mmod_RMS_Derivative-OPLS-2005>
2.8590977191925

$$$$
90
                    3D
 Structure written by MMmdl.
165173  0  0  1  0            999 V2000
  -30.6893  -14.6540   20.4558 C   0  0  0  0  0  0
  -30.4401  -12.4154   19.4182 C   0  0  0  0  0  0
  -29.4918  -12.4751   18.2025 C   0  0  0  0  0  0
  -28.0223  -12.2834   18.6310 C   0  0  0  0  0  0
  -27.6415  -13.1609   19.8484 C   0  0  2  0  0  0
  -28.7163  -13.0371   20.9612 C   0  0  0  0  0  0
  -25.2508  -13.7884   20.5656 C   0  0  0  0  0  0
  -24.1732  -13.0249   20.9102 C   0  0  0  0  0  0
  -24.6307  -11.6733   20.8732 C   0  0  0  0  0  0
  -23.8974  -10.4190   21.0435 C   0  0  0  0  0  0
  -24.3530   -9.4134   21.9226 C   0  0  0  0  0  0
  -23.6214   -8.2176   22.0776 C   0  0  0  0  0  0
  -22.4207   -8.0224   21.3552 C   0  0  0  0  0  0
  -21.9826   -9.0197   20.4664 C   0  0  0  0  0  0
  -22.7152  -10.2066   20.3081 C   0  0  0  0  0  0
  -21.6838   -6.0710   22.5286 C   0  0  0  0  0  0
  -21.4014   -6.5615   23.8215 C   0  0  0  0  0  0
  -21.3643   -5.6773   24.9176 C   0  0  0  0  0  0
  -21.6035   -4.3038   24.7230 C   0  0  0  0  0  0
  -21.8820   -3.8142   23.4348 C   0  0  0  0  0  0
  -21.9192   -4.6950   22.3404 C   0  0  0  0  0  0
  -22.7804  -13.5148   21.1779 C   0  0  0  0  0  0
  -22.1661   -4.2143   21.0976 F   0  0  0  0  0  0
  -21.5608   -3.4507   25.7738 F   0  0  0  0  0  0
  -29.9971  -13.4587   20.3673 N   0  0  0  0  0  0
  -26.2929  -12.9017   20.3346 N   0  0  0  0  0  0
  -25.9233  -11.6244   20.5827 N   0  0  0  0  0  0
  -22.0417  -12.8239   22.0371 N   0  0  0  0  0  0
  -25.4184  -15.1562   20.4192 N   0  0  0  0  0  0
  -31.9089  -14.6361   20.2752 O   0  0  0  0  0  0
  -21.6574   -6.8831   21.4247 O   0  0  0  0  0  0
  -22.3555  -14.5506   20.6664 O   0  0  0  0  0  0
  -24.6160  -31.8667   23.2070 C   0  0  0  0  0  0
  -25.9047  -32.4814   23.8379 C   0  0  1  0  0  0
  -27.2357  -27.3986   20.1072 C   0  0  0  0  0  0
  -25.5915  -33.8610   24.2319 N   0  0  0  0  0  0
  -23.4059  -30.4911   21.5469 C   0  0  2  0  0  0
  -24.8541  -28.9552   20.1147 C   0  0  0  0  0  0
  -22.7419  -29.4660   22.4953 C   0  0  0  0  0  0
  -18.0274  -28.1372   22.8485 C   0  0  0  0  0  0
  -24.1498  -36.7295   23.2631 C   0  0  0  0  0  0
  -25.9392  -30.8231   21.3679 C   0  0  0  0  0  0
  -26.0177  -29.4553   20.7116 C   0  0  0  0  0  0
  -27.2113  -28.6892   20.6979 C   0  0  0  0  0  0
  -26.0487  -26.9270   19.4982 C   0  0  0  0  0  0
  -24.8674  -27.6939   19.4997 C   0  0  0  0  0  0
  -23.6172  -29.8250   20.1623 C   0  0  0  0  0  0
  -25.4119  -36.3094   24.0328 C   0  0  1  0  0  0
  -20.5865  -28.3675   23.1292 C   0  0  2  0  0  0
  -20.6768  -26.9421   22.5385 C   0  0  0  0  0  0
  -19.5762  -26.6389   21.5177 C   0  0  0  0  0  0
  -18.1937  -26.7920   22.1596 C   0  0  0  0  0  0
  -19.1525  -28.8841   23.2884 C   0  0  0  0  0  0
  -18.9451  -30.1434   23.8921 C   0  0  0  0  0  0
  -17.6458  -30.6595   24.0549 C   0  0  0  0  0  0
  -25.9053  -34.9463   23.5123 C   0  0  0  0  0  0
  -16.5343  -29.9101   23.6320 C   0  0  0  0  0  0
  -16.7259  -28.6497   23.0372 C   0  0  0  0  0  0
  -26.4496  -31.6592   25.0706 C   0  0  0  0  0  0
  -25.3748  -31.3682   26.1443 C   0  0  0  0  0  0
  -27.0312  -30.3023   24.6082 C   0  0  0  0  0  0
  -27.6103  -32.4286   25.7455 C   0  0  0  0  0  0
  -27.5594  -37.1796   24.8470 C   0  0  0  0  0  0
  -21.4145  -29.3041   22.3694 N   0  0  0  0  0  0
  -26.4306  -37.3781   23.9405 N   0  0  0  0  0  0
  -24.6717  -31.0751   22.0983 N   0  0  0  0  0  0
  -23.4183  -28.8219   23.3016 O   0  0  0  0  0  0
  -28.3972  -26.6349   20.1284 O   0  0  0  0  0  0
  -26.5617  -34.8927   22.4690 O   0  0  0  0  0  0
  -23.5345  -32.1454   23.7428 O   0  0  0  0  0  0
  -31.3547  -19.7798   19.1948 C   0  0  0  0  0  0
  -31.5199  -18.6870   18.3262 C   0  0  0  0  0  0
  -30.9533  -19.5828   20.5297 C   0  0  0  0  0  0
  -31.2019  -17.3749   18.7341 C   0  0  0  0  0  0
  -30.7568  -18.2420   20.9900 C   0  0  0  0  0  0
  -30.7696  -17.1330   20.0720 C   0  0  0  0  0  0
  -28.7322  -16.1477   20.5534 C   0  0  0  0  0  0
  -29.4420  -22.9220   20.8644 C   0  0  0  0  0  0
  -31.2610  -16.2778   17.6786 C   0  0  0  0  0  0
  -30.4602  -17.9983   22.4671 C   0  0  0  0  0  0
  -28.0458  -17.0672   19.5252 C   0  0  0  0  0  0
  -30.7220  -20.8068   21.4508 C   0  0  0  0  0  0
  -29.5804  -24.4112   20.4318 C   0  0  0  0  0  0
  -28.2427  -25.1953   20.2410 C   0  0  0  0  0  0
  -30.5417  -22.1354   20.8143 N   0  0  0  0  0  0
  -30.0614  -15.8998   20.4101 N   0  0  0  0  0  0
  -28.0765  -15.8295   21.5451 O   0  0  0  0  0  0
  -28.3643  -22.4989   21.2894 O   0  0  0  0  0  0
  -31.4713  -12.5508   19.0882 H   0  0  0  0  0  0
  -30.4190  -11.4299   19.8838 H   0  0  0  0  0  0
  -29.7716  -11.7125   17.4737 H   0  0  0  0  0  0
  -29.6005  -13.4335   17.6939 H   0  0  0  0  0  0
  -27.8870  -11.2299   18.8773 H   0  0  0  0  0  0
  -27.3537  -12.4840   17.7917 H   0  0  0  0  0  0
  -27.6163  -14.1622   19.4378 H   0  0  0  0  0  0
  -28.7772  -11.9983   21.2881 H   0  0  0  0  0  0
  -28.4766  -13.5673   21.8791 H   0  0  0  0  0  0
  -25.2672   -9.5607   22.4790 H   0  0  0  0  0  0
  -23.9932   -7.4563   22.7485 H   0  0  0  0  0  0
  -21.0755   -8.8710   19.8975 H   0  0  0  0  0  0
  -22.3635  -10.9597   19.6170 H   0  0  0  0  0  0
  -21.2037   -7.6126   23.9703 H   0  0  0  0  0  0
  -21.1445   -6.0515   25.9066 H   0  0  0  0  0  0
  -22.0630   -2.7610   23.2855 H   0  0  0  0  0  0
  -22.3907  -11.9858   22.4789 H   0  0  0  0  0  0
  -21.1093  -13.1439   22.2574 H   0  0  0  0  0  0
  -24.6582  -15.7643   20.6993 H   0  0  0  0  0  0
  -26.3235  -15.5242   20.6951 H   0  0  0  0  0  0
  -26.7105  -32.5520   23.1127 H   0  0  0  0  0  0
  -25.0099  -33.9796   25.0490 H   0  0  0  0  0  0
  -22.6941  -31.3073   21.4052 H   0  0  0  0  0  0
  -23.3770  -35.9623   23.3299 H   0  0  0  0  0  0
  -24.3598  -36.8899   22.2047 H   0  0  0  0  0  0
  -23.7254  -37.6494   23.6659 H   0  0  0  0  0  0
  -26.0619  -31.5917   20.6034 H   0  0  0  0  0  0
  -26.8210  -30.8701   21.9938 H   0  0  0  0  0  0
  -28.1098  -29.0742   21.1622 H   0  0  0  0  0  0
  -26.0103  -25.9678   19.0055 H   0  0  0  0  0  0
  -23.9765  -27.3063   19.0244 H   0  0  0  0  0  0
  -23.7285  -30.5988   19.4020 H   0  0  0  0  0  0
  -22.7402  -29.2460   19.8660 H   0  0  0  0  0  0
  -25.1297  -36.1956   25.0820 H   0  0  0  0  0  0
  -20.9955  -28.3248   24.1407 H   0  0  0  0  0  0
  -20.5642  -26.2305   23.3572 H   0  0  0  0  0  0
  -21.6654  -26.7464   22.1210 H   0  0  0  0  0  0
  -19.6943  -25.6299   21.1227 H   0  0  0  0  0  0
  -19.6709  -27.3166   20.6683 H   0  0  0  0  0  0
  -17.4204  -26.6639   21.4002 H   0  0  0  0  0  0
  -18.0381  -26.0046   22.8991 H   0  0  0  0  0  0
  -19.7927  -30.7215   24.2335 H   0  0  0  0  0  0
  -17.5030  -31.6289   24.5124 H   0  0  0  0  0  0
  -15.5354  -30.3017   23.7641 H   0  0  0  0  0  0
  -15.8646  -28.0801   22.7135 H   0  0  0  0  0  0
  -24.5935  -30.7040   25.7747 H   0  0  0  0  0  0
  -24.8933  -32.2821   26.4917 H   0  0  0  0  0  0
  -25.8083  -30.8818   27.0188 H   0  0  0  0  0  0
  -26.2837  -29.6776   24.1178 H   0  0  0  0  0  0
  -27.4117  -29.7279   25.4540 H   0  0  0  0  0  0
  -27.8683  -30.4315   23.9211 H   0  0  0  0  0  0
  -27.2775  -33.3585   26.2079 H   0  0  0  0  0  0
  -28.3902  -32.6827   25.0263 H   0  0  0  0  0  0
  -28.0806  -31.8369   26.5315 H   0  0  0  0  0  0
  -28.2607  -38.0100   24.7535 H   0  0  0  0  0  0
  -28.1094  -36.2629   24.6276 H   0  0  0  0  0  0
  -27.2323  -37.1429   25.8877 H   0  0  0  0  0  0
  -20.9315  -29.8742   21.6891 H   0  0  0  0  0  0
  -26.0190  -38.2864   24.1391 H   0  0  0  0  0  0
  -31.5359  -20.7788   18.8219 H   0  0  0  0  0  0
  -31.8323  -18.8800   17.3088 H   0  0  0  0  0  0
  -31.3548  -16.6981   16.6755 H   0  0  0  0  0  0
  -30.3607  -15.6640   17.6806 H   0  0  0  0  0  0
  -32.1268  -15.6341   17.8421 H   0  0  0  0  0  0
  -31.0264  -18.6776   23.1038 H   0  0  0  0  0  0
  -30.7499  -16.9902   22.7651 H   0  0  0  0  0  0
  -29.4001  -18.1290   22.6835 H   0  0  0  0  0  0
  -28.3177  -18.1108   19.6841 H   0  0  0  0  0  0
  -26.9627  -17.0211   19.5987 H   0  0  0  0  0  0
  -28.3157  -16.7849   18.5074 H   0  0  0  0  0  0
  -31.5870  -20.8837   22.1113 H   0  0  0  0  0  0
  -29.8728  -20.6012   22.1046 H   0  0  0  0  0  0
  -30.1609  -24.4622   19.5106 H   0  0  0  0  0  0
  -30.1733  -24.9087   21.1996 H   0  0  0  0  0  0
  -27.5736  -24.9916   21.0803 H   0  0  0  0  0  0
  -27.7625  -24.7989   19.3466 H   0  0  0  0  0  0
  -31.3811  -22.5599   20.4442 H   0  0  0  0  0  0
  1 25  1  0  0  0
  1 30  2  0  0  0
  1 86  1  0  0  0
  2  3  1  0  0  0
  2 25  1  0  0  0
  2 89  1  0  0  0
  2 90  1  0  0  0
  3  4  1  0  0  0
  3 91  1  0  0  0
  3 92  1  0  0  0
  4  5  1  0  0  0
  4 93  1  0  0  0
  4 94  1  0  0  0
  5  6  1  0  0  0
  5 26  1  0  0  0
  5 95  1  0  0  0
  6 25  1  0  0  0
  6 96  1  0  0  0
  6 97  1  0  0  0
  7  8  2  0  0  0
  7 26  1  0  0  0
  7 29  1  0  0  0
  8  9  1  0  0  0
  8 22  1  0  0  0
  9 10  1  0  0  0
  9 27  2  0  0  0
 10 11  2  0  0  0
 10 15  1  0  0  0
 11 12  1  0  0  0
 11 98  1  0  0  0
 12 13  2  0  0  0
 12 99  1  0  0  0
 13 14  1  0  0  0
 13 31  1  0  0  0
 14 15  2  0  0  0
 14100  1  0  0  0
 15101  1  0  0  0
 16 17  2  0  0  0
 16 21  1  0  0  0
 16 31  1  0  0  0
 17 18  1  0  0  0
 17102  1  0  0  0
 18 19  2  0  0  0
 18103  1  0  0  0
 19 20  1  0  0  0
 19 24  1  0  0  0
 20 21  2  0  0  0
 20104  1  0  0  0
 21 23  1  0  0  0
 22 28  1  0  0  0
 22 32  2  0  0  0
 26 27  1  0  0  0
 28105  1  0  0  0
 28106  1  0  0  0
 29107  1  0  0  0
 29108  1  0  0  0
 33 34  1  0  0  0
 33 66  1  0  0  0
 33 70  2  0  0  0
 34 36  1  0  0  0
 34 59  1  0  0  0
 34109  1  0  0  0
 35 44  2  0  0  0
 35 45  1  0  0  0
 35 68  1  0  0  0
 36 56  1  0  0  0
 36110  1  0  0  0
 37 39  1  0  0  0
 37 47  1  0  0  0
 37 66  1  0  0  0
 37111  1  0  0  0
 38 43  2  0  0  0
 38 46  1  0  0  0
 38 47  1  0  0  0
 39 64  1  0  0  0
 39 67  2  0  0  0
 40 52  1  0  0  0
 40 53  2  0  0  0
 40 58  1  0  0  0
 41112  1  0  0  0
 41113  1  0  0  0
 41114  1  0  0  0
 41 48  1  0  0  0
 42 43  1  0  0  0
 42 66  1  0  0  0
 42115  1  0  0  0
 42116  1  0  0  0
 43 44  1  0  0  0
 44117  1  0  0  0
 45 46  2  0  0  0
 45118  1  0  0  0
 46119  1  0  0  0
 47120  1  0  0  0
 47121  1  0  0  0
 48 56  1  0  0  0
 48 65  1  0  0  0
 48122  1  0  0  0
 49 50  1  0  0  0
 49 53  1  0  0  0
 49 64  1  0  0  0
 49123  1  0  0  0
 50 51  1  0  0  0
 50124  1  0  0  0
 50125  1  0  0  0
 51 52  1  0  0  0
 51126  1  0  0  0
 51127  1  0  0  0
 52128  1  0  0  0
 52129  1  0  0  0
 53 54  1  0  0  0
 54 55  2  0  0  0
 54130  1  0  0  0
 55 57  1  0  0  0
 55131  1  0  0  0
 56 69  2  0  0  0
 57 58  2  0  0  0
 57132  1  0  0  0
 58133  1  0  0  0
 59 60  1  0  0  0
 59 61  1  0  0  0
 59 62  1  0  0  0
 60134  1  0  0  0
 60135  1  0  0  0
 60136  1  0  0  0
 61137  1  0  0  0
 61138  1  0  0  0
 61139  1  0  0  0
 62140  1  0  0  0
 62141  1  0  0  0
 62142  1  0  0  0
 63 65  1  0  0  0
 63143  1  0  0  0
 63144  1  0  0  0
 63145  1  0  0  0
 64146  1  0  0  0
 65147  1  0  0  0
 68 84  1  0  0  0
 71 72  2  0  0  0
 71 73  1  0  0  0
 71148  1  0  0  0
 72 74  1  0  0  0
 72149  1  0  0  0
 73 75  2  0  0  0
 73 82  1  0  0  0
 74 76  2  0  0  0
 74 79  1  0  0  0
 75 76  1  0  0  0
 75 80  1  0  0  0
 76 86  1  0  0  0
 77 81  1  0  0  0
 77 86  1  0  0  0
 77 87  2  0  0  0
 78 83  1  0  0  0
 78 85  1  0  0  0
 78 88  2  0  0  0
 79150  1  0  0  0
 79151  1  0  0  0
 79152  1  0  0  0
 80153  1  0  0  0
 80154  1  0  0  0
 80155  1  0  0  0
 81156  1  0  0  0
 81157  1  0  0  0
 81158  1  0  0  0
 82 85  1  0  0  0
 82159  1  0  0  0
 82160  1  0  0  0
 83 84  1  0  0  0
 83161  1  0  0  0
 83162  1  0  0  0
 84163  1  0  0  0
 84164  1  0  0  0
 85165  1  0  0  0
M  ISO  4   1 100  68 101  84 101  86 100
M  END
> <chiral flag>
0

> <version>
0

> <s_m_source_file>
/data/baiqing/PycharmProjects/Reinvent-master-3.2/result/LINK_invent/BTK/process_docking_weight1_custom_sum_contain_oxygen_bond_distance_aromatic_linkinvent_7_9_3/rearranged_h_0006.sdf

> <i_m_source_file_index>
91

> <r_mmod_Potential_Energy-OPLS-2005>
105.122268676758

> <r_mmod_Stretch_Energy-OPLS-2005>
66.6522369384766

> <r_mmod_Bend_Energy-OPLS-2005>
139.517562866211

> <r_mmod_Torsional_Energy-OPLS-2005>
324.697906494141

> <r_mmod_Improper_Torsional_Energy-OPLS-2005>
17.521879196167

> <r_mmod_Van_der_Waal_Energy-OPLS-2005>
188.413131713867

> <r_mmod_Electrostatic_Energy-OPLS-2005>
-463.568542480469

> <r_mmod_Solvation_Energy-OPLS-2005>
-213.32600402832

> <b_mmod_Minimization_Converged-OPLS-2005>
0

> <r_mmod_RMS_Derivative-OPLS-2005>
3.14177799224854

$$$$
91
                    3D
 Structure written by MMmdl.
157165  0  0  1  0            999 V2000
  -30.7233  -14.4847   20.5492 C   0  0  0  0  0  0
  -30.4283  -12.3129   19.4384 C   0  0  0  0  0  0
  -29.5061  -12.4963   18.2143 C   0  0  0  0  0  0
  -28.0265  -12.3602   18.6233 C   0  0  0  0  0  0
  -27.6673  -13.2115   19.8723 C   0  0  2  0  0  0
  -28.7093  -13.0181   20.9993 C   0  0  0  0  0  0
  -25.2632  -13.8176   20.5678 C   0  0  0  0  0  0
  -24.1881  -13.0454   20.9163 C   0  0  0  0  0  0
  -24.6427  -11.6915   20.8718 C   0  0  0  0  0  0
  -23.9080  -10.4300   21.0389 C   0  0  0  0  0  0
  -24.3621   -9.4220   21.9176 C   0  0  0  0  0  0
  -23.6302   -8.2255   22.0748 C   0  0  0  0  0  0
  -22.4286   -8.0290   21.3541 C   0  0  0  0  0  0
  -21.9911   -9.0267   20.4647 C   0  0  0  0  0  0
  -22.7241  -10.2149   20.3052 C   0  0  0  0  0  0
  -21.6861   -6.0732   22.5271 C   0  0  0  0  0  0
  -21.4014   -6.5631   23.8208 C   0  0  0  0  0  0
  -21.3664   -5.6784   24.9167 C   0  0  0  0  0  0
  -21.6049   -4.3048   24.7209 C   0  0  0  0  0  0
  -21.8823   -3.8137   23.4329 C   0  0  0  0  0  0
  -21.9188   -4.6954   22.3388 C   0  0  0  0  0  0
  -22.7895  -13.5267   21.1793 C   0  0  0  0  0  0
  -22.1666   -4.2148   21.0965 F   0  0  0  0  0  0
  -21.5622   -3.4534   25.7723 F   0  0  0  0  0  0
  -30.0408  -13.3107   20.4461 N   0  0  0  0  0  0
  -26.3075  -12.9360   20.3353 N   0  0  0  0  0  0
  -25.9360  -11.6504   20.5739 N   0  0  0  0  0  0
  -22.0485  -12.8309   22.0347 N   0  0  0  0  0  0
  -25.4315  -15.1892   20.4070 N   0  0  0  0  0  0
  -31.8561  -14.6299   20.0900 O   0  0  0  0  0  0
  -21.6646   -6.8884   21.4247 O   0  0  0  0  0  0
  -22.3594  -14.5544   20.6578 O   0  0  0  0  0  0
  -24.6137  -31.8690   23.2077 C   0  0  0  0  0  0
  -25.9035  -32.4818   23.8388 C   0  0  1  0  0  0
  -27.2436  -27.4240   20.0857 C   0  0  0  0  0  0
  -25.5899  -33.8622   24.2310 N   0  0  0  0  0  0
  -23.4035  -30.4929   21.5474 C   0  0  2  0  0  0
  -24.8490  -28.9573   20.1167 C   0  0  0  0  0  0
  -22.7412  -29.4674   22.4955 C   0  0  0  0  0  0
  -18.0278  -28.1359   22.8498 C   0  0  0  0  0  0
  -24.1478  -36.7305   23.2645 C   0  0  0  0  0  0
  -25.9358  -30.8244   21.3688 C   0  0  0  0  0  0
  -26.0104  -29.4595   20.7140 C   0  0  0  0  0  0
  -27.2027  -28.6988   20.7007 C   0  0  0  0  0  0
  -26.0599  -26.9476   19.4680 C   0  0  0  0  0  0
  -24.8677  -27.6967   19.5001 C   0  0  0  0  0  0
  -23.6143  -29.8272   20.1620 C   0  0  0  0  0  0
  -25.4111  -36.3111   24.0335 C   0  0  1  0  0  0
  -20.5875  -28.3658   23.1304 C   0  0  2  0  0  0
  -20.6741  -26.9389   22.5399 C   0  0  0  0  0  0
  -19.5713  -26.6373   21.5195 C   0  0  0  0  0  0
  -18.1910  -26.7909   22.1631 C   0  0  0  0  0  0
  -19.1530  -28.8822   23.2907 C   0  0  0  0  0  0
  -18.9464  -30.1429   23.8920 C   0  0  0  0  0  0
  -17.6470  -30.6577   24.0570 C   0  0  0  0  0  0
  -25.9042  -34.9479   23.5124 C   0  0  0  0  0  0
  -16.5358  -29.9084   23.6320 C   0  0  0  0  0  0
  -16.7274  -28.6490   23.0358 C   0  0  0  0  0  0
  -26.4469  -31.6628   25.0744 C   0  0  0  0  0  0
  -25.3721  -31.3797   26.1489 C   0  0  0  0  0  0
  -27.0343  -30.3064   24.6188 C   0  0  0  0  0  0
  -27.6042  -32.4386   25.7481 C   0  0  0  0  0  0
  -27.5589  -37.1800   24.8473 C   0  0  0  0  0  0
  -21.4129  -29.3049   22.3718 N   0  0  0  0  0  0
  -26.4296  -37.3795   23.9415 N   0  0  0  0  0  0
  -24.6689  -31.0790   22.0979 N   0  0  0  0  0  0
  -23.4187  -28.8205   23.2993 O   0  0  0  0  0  0
  -28.4364  -26.7131   20.1135 O   0  0  0  0  0  0
  -26.5622  -34.8938   22.4696 O   0  0  0  0  0  0
  -23.5325  -32.1460   23.7442 O   0  0  0  0  0  0
  -30.0326  -19.1633   21.9340 C   0  0  0  0  0  0
  -31.1276  -17.5100   19.9670 C   0  0  0  0  0  0
  -30.7889  -19.7754   20.8968 C   0  0  0  0  0  0
  -30.3497  -16.9212   20.9934 C   0  0  0  0  0  0
  -29.7953  -17.7745   21.9652 C   0  0  0  0  0  0
  -31.3415  -18.9072   19.9152 C   0  0  0  0  0  0
  -30.9848  -21.2875   20.7990 C   0  0  0  0  0  0
  -29.8108  -22.2167   22.7763 C   0  0  0  0  0  0
  -29.4383  -24.4906   20.6175 C   0  0  0  0  0  0
  -29.1894  -22.9592   20.4906 C   0  0  0  0  0  0
  -28.4542  -25.3183   19.7528 C   0  0  0  0  0  0
  -30.0432  -15.5209   21.0793 N   0  0  0  0  0  0
  -30.0428  -22.1037   21.3337 N   0  0  0  0  0  0
  -31.8612  -21.7618   20.0678 O   0  0  0  0  0  0
  -29.0154  -17.2542   22.9425 F   0  0  0  0  0  0
  -32.0709  -19.3891   18.8789 F   0  0  0  0  0  0
  -31.4735  -12.4007   19.1397 H   0  0  0  0  0  0
  -30.3244  -11.3094   19.8532 H   0  0  0  0  0  0
  -29.7533  -11.7548   17.4542 H   0  0  0  0  0  0
  -29.6808  -13.4718   17.7588 H   0  0  0  0  0  0
  -27.8415  -11.3064   18.8286 H   0  0  0  0  0  0
  -27.3805  -12.6251   17.7851 H   0  0  0  0  0  0
  -27.7079  -14.2555   19.5614 H   0  0  0  0  0  0
  -28.6890  -11.9915   21.3692 H   0  0  0  0  0  0
  -28.4689  -13.6438   21.8601 H   0  0  0  0  0  0
  -25.2751   -9.5701   22.4764 H   0  0  0  0  0  0
  -23.9993   -7.4652   22.7486 H   0  0  0  0  0  0
  -21.0821   -8.8794   19.8972 H   0  0  0  0  0  0
  -22.3683  -10.9688   19.6164 H   0  0  0  0  0  0
  -21.2015   -7.6140   23.9712 H   0  0  0  0  0  0
  -21.1482   -6.0507   25.9078 H   0  0  0  0  0  0
  -22.0589   -2.7597   23.2819 H   0  0  0  0  0  0
  -22.4073  -12.0048   22.4880 H   0  0  0  0  0  0
  -21.1088  -13.1366   22.2437 H   0  0  0  0  0  0
  -24.6555  -15.8345   20.5086 H   0  0  0  0  0  0
  -26.2765  -15.6319   20.0679 H   0  0  0  0  0  0
  -26.7119  -32.5523   23.1153 H   0  0  0  0  0  0
  -25.0014  -33.9780   25.0431 H   0  0  0  0  0  0
  -22.6927  -31.3086   21.4056 H   0  0  0  0  0  0
  -23.3743  -35.9643   23.3344 H   0  0  0  0  0  0
  -24.3554  -36.8882   22.2050 H   0  0  0  0  0  0
  -23.7235  -37.6513   23.6645 H   0  0  0  0  0  0
  -26.0659  -31.5922   20.6035 H   0  0  0  0  0  0
  -26.8153  -30.8648   21.9992 H   0  0  0  0  0  0
  -28.0976  -29.0870   21.1687 H   0  0  0  0  0  0
  -26.0298  -26.0063   18.9420 H   0  0  0  0  0  0
  -23.9719  -27.3047   19.0380 H   0  0  0  0  0  0
  -23.7294  -30.6018   19.4003 H   0  0  0  0  0  0
  -22.7365  -29.2513   19.8675 H   0  0  0  0  0  0
  -25.1284  -36.1974   25.0832 H   0  0  0  0  0  0
  -20.9997  -28.3204   24.1417 H   0  0  0  0  0  0
  -20.5579  -26.2284   23.3584 H   0  0  0  0  0  0
  -21.6617  -26.7364   22.1238 H   0  0  0  0  0  0
  -19.6852  -25.6282   21.1224 H   0  0  0  0  0  0
  -19.6636  -27.3175   20.6717 H   0  0  0  0  0  0
  -17.4164  -26.6667   21.4052 H   0  0  0  0  0  0
  -18.0324  -26.0039   22.9022 H   0  0  0  0  0  0
  -19.7949  -30.7227   24.2294 H   0  0  0  0  0  0
  -17.5038  -31.6262   24.5166 H   0  0  0  0  0  0
  -15.5362  -30.3001   23.7602 H   0  0  0  0  0  0
  -15.8684  -28.0807   22.7058 H   0  0  0  0  0  0
  -24.5810  -30.7235   25.7857 H   0  0  0  0  0  0
  -24.9030  -32.2988   26.4993 H   0  0  0  0  0  0
  -25.8016  -30.8901   27.0240 H   0  0  0  0  0  0
  -26.2922  -29.6782   24.1239 H   0  0  0  0  0  0
  -27.4123  -29.7355   25.4672 H   0  0  0  0  0  0
  -27.8757  -30.4404   23.9384 H   0  0  0  0  0  0
  -27.2639  -33.3693   26.2038 H   0  0  0  0  0  0
  -28.3830  -32.6959   25.0276 H   0  0  0  0  0  0
  -28.0735  -31.8537   26.5400 H   0  0  0  0  0  0
  -28.2612  -38.0093   24.7527 H   0  0  0  0  0  0
  -28.1067  -36.2621   24.6283 H   0  0  0  0  0  0
  -27.2314  -37.1457   25.8878 H   0  0  0  0  0  0
  -20.9251  -29.8861   21.7045 H   0  0  0  0  0  0
  -26.0184  -38.2885   24.1392 H   0  0  0  0  0  0
  -29.5893  -19.7233   22.7327 H   0  0  0  0  0  0
  -31.5572  -16.9085   19.1817 H   0  0  0  0  0  0
  -30.6793  -21.8924   23.3480 H   0  0  0  0  0  0
  -28.9403  -21.6440   23.0887 H   0  0  0  0  0  0
  -29.6064  -23.2411   23.0764 H   0  0  0  0  0  0
  -30.4736  -24.7298   20.3729 H   0  0  0  0  0  0
  -29.3000  -24.8020   21.6513 H   0  0  0  0  0  0
  -29.2720  -22.6525   19.4437 H   0  0  0  0  0  0
  -28.1613  -22.7372   20.7750 H   0  0  0  0  0  0
  -27.4775  -24.8581   19.8776 H   0  0  0  0  0  0
  -28.7155  -25.2239   18.6995 H   0  0  0  0  0  0
  -29.1882  -15.2967   21.5634 H   0  0  0  0  0  0
  1 25  1  0  0  0
  1 30  2  0  0  0
  1 82  1  0  0  0
  2  3  1  0  0  0
  2 25  1  0  0  0
  2 87  1  0  0  0
  2 88  1  0  0  0
  3  4  1  0  0  0
  3 89  1  0  0  0
  3 90  1  0  0  0
  4  5  1  0  0  0
  4 91  1  0  0  0
  4 92  1  0  0  0
  5  6  1  0  0  0
  5 26  1  0  0  0
  5 93  1  0  0  0
  6 25  1  0  0  0
  6 94  1  0  0  0
  6 95  1  0  0  0
  7  8  2  0  0  0
  7 26  1  0  0  0
  7 29  1  0  0  0
  8  9  1  0  0  0
  8 22  1  0  0  0
  9 10  1  0  0  0
  9 27  2  0  0  0
 10 11  2  0  0  0
 10 15  1  0  0  0
 11 12  1  0  0  0
 11 96  1  0  0  0
 12 13  2  0  0  0
 12 97  1  0  0  0
 13 14  1  0  0  0
 13 31  1  0  0  0
 14 15  2  0  0  0
 14 98  1  0  0  0
 15 99  1  0  0  0
 16 17  2  0  0  0
 16 21  1  0  0  0
 16 31  1  0  0  0
 17 18  1  0  0  0
 17100  1  0  0  0
 18 19  2  0  0  0
 18101  1  0  0  0
 19 20  1  0  0  0
 19 24  1  0  0  0
 20 21  2  0  0  0
 20102  1  0  0  0
 21 23  1  0  0  0
 22 28  1  0  0  0
 22 32  2  0  0  0
 26 27  1  0  0  0
 28103  1  0  0  0
 28104  1  0  0  0
 29105  1  0  0  0
 29106  1  0  0  0
 33 34  1  0  0  0
 33 66  1  0  0  0
 33 70  2  0  0  0
 34 36  1  0  0  0
 34 59  1  0  0  0
 34107  1  0  0  0
 35 44  2  0  0  0
 35 45  1  0  0  0
 35 68  1  0  0  0
 36 56  1  0  0  0
 36108  1  0  0  0
 37 39  1  0  0  0
 37 47  1  0  0  0
 37 66  1  0  0  0
 37109  1  0  0  0
 38 43  2  0  0  0
 38 46  1  0  0  0
 38 47  1  0  0  0
 39 64  1  0  0  0
 39 67  2  0  0  0
 40 52  1  0  0  0
 40 53  2  0  0  0
 40 58  1  0  0  0
 41110  1  0  0  0
 41111  1  0  0  0
 41112  1  0  0  0
 41 48  1  0  0  0
 42 43  1  0  0  0
 42 66  1  0  0  0
 42113  1  0  0  0
 42114  1  0  0  0
 43 44  1  0  0  0
 44115  1  0  0  0
 45 46  2  0  0  0
 45116  1  0  0  0
 46117  1  0  0  0
 47118  1  0  0  0
 47119  1  0  0  0
 48 56  1  0  0  0
 48 65  1  0  0  0
 48120  1  0  0  0
 49 50  1  0  0  0
 49 53  1  0  0  0
 49 64  1  0  0  0
 49121  1  0  0  0
 50 51  1  0  0  0
 50122  1  0  0  0
 50123  1  0  0  0
 51 52  1  0  0  0
 51124  1  0  0  0
 51125  1  0  0  0
 52126  1  0  0  0
 52127  1  0  0  0
 53 54  1  0  0  0
 54 55  2  0  0  0
 54128  1  0  0  0
 55 57  1  0  0  0
 55129  1  0  0  0
 56 69  2  0  0  0
 57 58  2  0  0  0
 57130  1  0  0  0
 58131  1  0  0  0
 59 60  1  0  0  0
 59 61  1  0  0  0
 59 62  1  0  0  0
 60132  1  0  0  0
 60133  1  0  0  0
 60134  1  0  0  0
 61135  1  0  0  0
 61136  1  0  0  0
 61137  1  0  0  0
 62138  1  0  0  0
 62139  1  0  0  0
 62140  1  0  0  0
 63 65  1  0  0  0
 63141  1  0  0  0
 63142  1  0  0  0
 63143  1  0  0  0
 64144  1  0  0  0
 65145  1  0  0  0
 68 81  1  0  0  0
 71 73  2  0  0  0
 71 75  1  0  0  0
 71146  1  0  0  0
 72 74  1  0  0  0
 72 76  2  0  0  0
 72147  1  0  0  0
 73 76  1  0  0  0
 73 77  1  0  0  0
 74 75  2  0  0  0
 74 82  1  0  0  0
 75 85  1  0  0  0
 76 86  1  0  0  0
 77 83  1  0  0  0
 77 84  2  0  0  0
 78 83  1  0  0  0
 78148  1  0  0  0
 78149  1  0  0  0
 78150  1  0  0  0
 79 80  1  0  0  0
 79 81  1  0  0  0
 79151  1  0  0  0
 79152  1  0  0  0
 80 83  1  0  0  0
 80153  1  0  0  0
 80154  1  0  0  0
 81155  1  0  0  0
 81156  1  0  0  0
 82157  1  0  0  0
M  ISO  4   1 100  68 101  81 101  82 100
M  END
> <chiral flag>
0

> <version>
0

> <s_m_source_file>
/data/baiqing/PycharmProjects/Reinvent-master-3.2/result/LINK_invent/BTK/process_docking_weight1_custom_sum_contain_oxygen_bond_distance_aromatic_linkinvent_7_9_3/rearranged_h_0006.sdf

> <i_m_source_file_index>
92

> <r_mmod_Potential_Energy-OPLS-2005>
31.476203918457

> <r_mmod_Stretch_Energy-OPLS-2005>
43.7842330932617

> <r_mmod_Bend_Energy-OPLS-2005>
110.129432678223

> <r_mmod_Torsional_Energy-OPLS-2005>
299.083374023438

> <r_mmod_Improper_Torsional_Energy-OPLS-2005>
6.40467548370361

> <r_mmod_Van_der_Waal_Energy-OPLS-2005>
172.030700683594

> <r_mmod_Electrostatic_Energy-OPLS-2005>
-393.041198730469

> <r_mmod_Solvation_Energy-OPLS-2005>
-222.59391784668

> <b_mmod_Minimization_Converged-OPLS-2005>
0

> <r_mmod_RMS_Derivative-OPLS-2005>
4.35687971115112

$$$$
92
                    3D
 Structure written by MMmdl.
163171  0  0  1  0            999 V2000
  -30.5069  -14.9434   20.4003 C   0  0  0  0  0  0
  -30.4499  -12.5825   19.4808 C   0  0  0  0  0  0
  -29.5220  -12.5364   18.2434 C   0  0  0  0  0  0
  -28.0552  -12.3145   18.6641 C   0  0  0  0  0  0
  -27.6332  -13.2299   19.8423 C   0  0  2  0  0  0
  -28.6818  -13.2415   20.9745 C   0  0  0  0  0  0
  -25.2483  -13.8161   20.5709 C   0  0  0  0  0  0
  -24.1782  -13.0408   20.9212 C   0  0  0  0  0  0
  -24.6375  -11.6887   20.8743 C   0  0  0  0  0  0
  -23.9060  -10.4276   21.0414 C   0  0  0  0  0  0
  -24.3619   -9.4196   21.9188 C   0  0  0  0  0  0
  -23.6293   -8.2233   22.0762 C   0  0  0  0  0  0
  -22.4271   -8.0279   21.3548 C   0  0  0  0  0  0
  -21.9905   -9.0253   20.4652 C   0  0  0  0  0  0
  -22.7239  -10.2123   20.3060 C   0  0  0  0  0  0
  -21.6851   -6.0740   22.5276 C   0  0  0  0  0  0
  -21.4018   -6.5639   23.8214 C   0  0  0  0  0  0
  -21.3660   -5.6791   24.9174 C   0  0  0  0  0  0
  -21.6041   -4.3049   24.7226 C   0  0  0  0  0  0
  -21.8817   -3.8145   23.4341 C   0  0  0  0  0  0
  -21.9191   -4.6966   22.3401 C   0  0  0  0  0  0
  -22.7805  -13.5207   21.1866 C   0  0  0  0  0  0
  -22.1651   -4.2155   21.0978 F   0  0  0  0  0  0
  -21.5635   -3.4535   25.7738 F   0  0  0  0  0  0
  -29.9531  -13.6662   20.3724 N   0  0  0  0  0  0
  -26.2902  -12.9354   20.3261 N   0  0  0  0  0  0
  -25.9303  -11.6499   20.5727 N   0  0  0  0  0  0
  -22.0432  -12.8227   22.0429 N   0  0  0  0  0  0
  -25.4111  -15.1901   20.4184 N   0  0  0  0  0  0
  -31.7174  -15.0498   20.1686 O   0  0  0  0  0  0
  -21.6629   -6.8880   21.4240 O   0  0  0  0  0  0
  -22.3495  -14.5507   20.6705 O   0  0  0  0  0  0
  -24.6423  -31.8448   23.1865 C   0  0  0  0  0  0
  -25.9207  -32.4694   23.8256 C   0  0  1  0  0  0
  -27.2231  -27.1530   20.1608 C   0  0  0  0  0  0
  -25.5960  -33.8501   24.2183 N   0  0  0  0  0  0
  -23.4442  -30.4620   21.5323 C   0  0  2  0  0  0
  -24.8949  -28.8843   20.1149 C   0  0  0  0  0  0
  -22.7556  -29.4549   22.4869 C   0  0  0  0  0  0
  -18.0305  -28.1392   22.8467 C   0  0  0  0  0  0
  -24.1496  -36.7267   23.2635 C   0  0  0  0  0  0
  -25.9967  -30.7263   21.3785 C   0  0  0  0  0  0
  -26.0708  -29.3351   20.7288 C   0  0  0  0  0  0
  -27.2387  -28.4866   20.7310 C   0  0  0  0  0  0
  -26.0215  -26.7920   19.5172 C   0  0  0  0  0  0
  -24.8811  -27.6249   19.4942 C   0  0  0  0  0  0
  -23.6708  -29.7859   20.1537 C   0  0  0  0  0  0
  -25.4124  -36.3029   24.0308 C   0  0  1  0  0  0
  -20.5913  -28.3719   23.1243 C   0  0  2  0  0  0
  -20.6791  -26.9425   22.5405 C   0  0  0  0  0  0
  -19.5768  -26.6379   21.5208 C   0  0  0  0  0  0
  -18.1948  -26.7930   22.1616 C   0  0  0  0  0  0
  -19.1557  -28.8871   23.2847 C   0  0  0  0  0  0
  -18.9480  -30.1472   23.8867 C   0  0  0  0  0  0
  -17.6472  -30.6586   24.0558 C   0  0  0  0  0  0
  -25.9072  -34.9404   23.5049 C   0  0  0  0  0  0
  -16.5366  -29.9081   23.6330 C   0  0  0  0  0  0
  -16.7287  -28.6506   23.0340 C   0  0  0  0  0  0
  -26.4526  -31.6550   25.0689 C   0  0  0  0  0  0
  -25.3715  -31.3741   26.1388 C   0  0  0  0  0  0
  -27.0385  -30.2952   24.6236 C   0  0  0  0  0  0
  -27.6051  -32.4308   25.7492 C   0  0  0  0  0  0
  -27.5575  -37.1791   24.8459 C   0  0  0  0  0  0
  -21.4250  -29.3053   22.3625 N   0  0  0  0  0  0
  -26.4285  -37.3745   23.9398 N   0  0  0  0  0  0
  -24.7143  -31.0322   22.0888 N   0  0  0  0  0  0
  -23.4208  -28.8099   23.3021 O   0  0  0  0  0  0
  -28.2958  -26.1980   20.1680 O   0  0  0  0  0  0
  -26.5655  -34.8903   22.4628 O   0  0  0  0  0  0
  -23.5547  -32.1321   23.7099 O   0  0  0  0  0  0
  -29.9268  -18.3763   21.5400 C   0  0  0  0  0  0
  -29.7173  -19.8039   21.6497 C   0  0  0  0  0  0
  -29.0441  -19.9065   19.4068 C   0  0  0  0  0  0
  -29.2294  -18.4507   19.2578 C   0  0  0  0  0  0
  -29.6872  -17.5991   20.3630 C   0  0  0  0  0  0
  -29.2444  -20.6624   20.6057 C   0  0  0  0  0  0
  -30.1416  -23.6305   19.4156 C   0  0  0  0  0  0
  -28.6091  -18.8731   16.7594 C   0  0  0  0  0  0
  -27.5476  -17.0359   18.0085 C   0  0  0  0  0  0
  -29.9872  -16.9236   17.3397 C   0  0  0  0  0  0
  -28.0865  -24.7236   20.6055 C   0  0  0  0  0  0
  -28.7597  -23.3046   19.9906 C   0  0  2  0  0  0
  -28.8584  -17.8289   17.8783 C   0  0  0  0  0  0
  -29.6291  -16.0609   20.4391 N   0  0  0  0  0  0
  -28.9682  -22.0752   20.8892 O   0  0  0  0  0  0
  -31.4811  -12.7581   19.1701 H   0  0  0  0  0  0
  -30.4512  -11.6239   20.0012 H   0  0  0  0  0  0
  -29.8394  -11.7520   17.5552 H   0  0  0  0  0  0
  -29.6058  -13.4758   17.6941 H   0  0  0  0  0  0
  -27.9474  -11.2685   18.9531 H   0  0  0  0  0  0
  -27.3911  -12.4653   17.8124 H   0  0  0  0  0  0
  -27.5983  -14.2300   19.4232 H   0  0  0  0  0  0
  -28.7726  -12.2564   21.4343 H   0  0  0  0  0  0
  -28.3868  -13.9287   21.7698 H   0  0  0  0  0  0
  -25.2771   -9.5667   22.4758 H   0  0  0  0  0  0
  -24.0003   -7.4621   22.7474 H   0  0  0  0  0  0
  -21.0838   -8.8778   19.8956 H   0  0  0  0  0  0
  -22.3712  -10.9668   19.6164 H   0  0  0  0  0  0
  -21.2012   -7.6150   23.9722 H   0  0  0  0  0  0
  -21.1481   -6.0518   25.9078 H   0  0  0  0  0  0
  -22.0596   -2.7612   23.2835 H   0  0  0  0  0  0
  -22.4033  -11.9912   22.4874 H   0  0  0  0  0  0
  -21.1046  -13.1264   22.2597 H   0  0  0  0  0  0
  -24.6335  -15.8298   20.5381 H   0  0  0  0  0  0
  -26.2489  -15.6480   20.0882 H   0  0  0  0  0  0
  -26.7277  -32.5312   23.0990 H   0  0  0  0  0  0
  -25.0091  -33.9611   25.0318 H   0  0  0  0  0  0
  -22.7455  -31.2871   21.3758 H   0  0  0  0  0  0
  -23.3750  -35.9608   23.3280 H   0  0  0  0  0  0
  -24.3585  -36.8918   22.2053 H   0  0  0  0  0  0
  -23.7268  -37.6463   23.6692 H   0  0  0  0  0  0
  -26.1395  -31.4751   20.5981 H   0  0  0  0  0  0
  -26.8715  -30.7866   22.0142 H   0  0  0  0  0  0
  -28.1389  -28.8307   21.2211 H   0  0  0  0  0  0
  -25.9514  -25.8257   19.0381 H   0  0  0  0  0  0
  -23.9828  -27.2739   19.0056 H   0  0  0  0  0  0
  -23.8076  -30.5563   19.3941 H   0  0  0  0  0  0
  -22.7852  -29.2271   19.8459 H   0  0  0  0  0  0
  -25.1310  -36.1844   25.0800 H   0  0  0  0  0  0
  -20.9998  -28.3303   24.1367 H   0  0  0  0  0  0
  -20.5689  -26.2323   23.3618 H   0  0  0  0  0  0
  -21.6659  -26.7441   22.1203 H   0  0  0  0  0  0
  -19.6932  -25.6284   21.1255 H   0  0  0  0  0  0
  -19.6705  -27.3172   20.6724 H   0  0  0  0  0  0
  -17.4216  -26.6668   21.4025 H   0  0  0  0  0  0
  -18.0356  -26.0086   22.9025 H   0  0  0  0  0  0
  -19.7954  -30.7305   24.2218 H   0  0  0  0  0  0
  -17.5025  -31.6258   24.5175 H   0  0  0  0  0  0
  -15.5366  -30.2972   23.7673 H   0  0  0  0  0  0
  -15.8691  -28.0825   22.7054 H   0  0  0  0  0  0
  -24.5898  -30.7082   25.7715 H   0  0  0  0  0  0
  -24.8903  -32.2927   26.4757 H   0  0  0  0  0  0
  -25.8004  -30.8954   27.0200 H   0  0  0  0  0  0
  -26.2989  -29.6675   24.1251 H   0  0  0  0  0  0
  -27.4026  -29.7245   25.4788 H   0  0  0  0  0  0
  -27.8880  -30.4195   23.9518 H   0  0  0  0  0  0
  -27.2638  -33.3626   26.2017 H   0  0  0  0  0  0
  -28.3906  -32.6836   25.0358 H   0  0  0  0  0  0
  -28.0669  -31.8462   26.5458 H   0  0  0  0  0  0
  -28.2570  -38.0104   24.7496 H   0  0  0  0  0  0
  -28.1087  -36.2628   24.6288 H   0  0  0  0  0  0
  -27.2289  -37.1441   25.8861 H   0  0  0  0  0  0
  -20.9456  -29.8777   21.6815 H   0  0  0  0  0  0
  -26.0140  -38.2810   24.1397 H   0  0  0  0  0  0
  -30.2289  -17.8540   22.4364 H   0  0  0  0  0  0
  -29.9024  -20.2549   22.6142 H   0  0  0  0  0  0
  -28.6771  -20.4988   18.5862 H   0  0  0  0  0  0
  -30.0730  -24.4219   18.6685 H   0  0  0  0  0  0
  -30.5903  -22.7612   18.9358 H   0  0  0  0  0  0
  -30.8177  -23.9720   20.1988 H   0  0  0  0  0  0
  -27.7386  -19.4987   16.9597 H   0  0  0  0  0  0
  -28.4052  -18.3881   15.8026 H   0  0  0  0  0  0
  -29.4731  -19.5214   16.6080 H   0  0  0  0  0  0
  -26.7261  -17.6809   18.3239 H   0  0  0  0  0  0
  -27.6267  -16.2443   18.7427 H   0  0  0  0  0  0
  -27.2589  -16.5737   17.0632 H   0  0  0  0  0  0
  -30.9398  -17.4530   17.3180 H   0  0  0  0  0  0
  -29.7820  -16.5893   16.3223 H   0  0  0  0  0  0
  -30.1232  -16.0174   17.9194 H   0  0  0  0  0  0
  -28.4236  -24.7482   21.6419 H   0  0  0  0  0  0
  -27.0154  -24.5454   20.6977 H   0  0  0  0  0  0
  -28.1300  -22.9856   19.1593 H   0  0  0  0  0  0
  -28.6814  -15.7303   20.5215 H   0  0  0  0  0  0
  1 25  1  0  0  0
  1 30  2  0  0  0
  1 84  1  0  0  0
  2  3  1  0  0  0
  2 25  1  0  0  0
  2 86  1  0  0  0
  2 87  1  0  0  0
  3  4  1  0  0  0
  3 88  1  0  0  0
  3 89  1  0  0  0
  4  5  1  0  0  0
  4 90  1  0  0  0
  4 91  1  0  0  0
  5  6  1  0  0  0
  5 26  1  0  0  0
  5 92  1  0  0  0
  6 25  1  0  0  0
  6 93  1  0  0  0
  6 94  1  0  0  0
  7  8  2  0  0  0
  7 26  1  0  0  0
  7 29  1  0  0  0
  8  9  1  0  0  0
  8 22  1  0  0  0
  9 10  1  0  0  0
  9 27  2  0  0  0
 10 11  2  0  0  0
 10 15  1  0  0  0
 11 12  1  0  0  0
 11 95  1  0  0  0
 12 13  2  0  0  0
 12 96  1  0  0  0
 13 14  1  0  0  0
 13 31  1  0  0  0
 14 15  2  0  0  0
 14 97  1  0  0  0
 15 98  1  0  0  0
 16 17  2  0  0  0
 16 21  1  0  0  0
 16 31  1  0  0  0
 17 18  1  0  0  0
 17 99  1  0  0  0
 18 19  2  0  0  0
 18100  1  0  0  0
 19 20  1  0  0  0
 19 24  1  0  0  0
 20 21  2  0  0  0
 20101  1  0  0  0
 21 23  1  0  0  0
 22 28  1  0  0  0
 22 32  2  0  0  0
 26 27  1  0  0  0
 28102  1  0  0  0
 28103  1  0  0  0
 29104  1  0  0  0
 29105  1  0  0  0
 33 34  1  0  0  0
 33 66  1  0  0  0
 33 70  2  0  0  0
 34 36  1  0  0  0
 34 59  1  0  0  0
 34106  1  0  0  0
 35 44  2  0  0  0
 35 45  1  0  0  0
 35 68  1  0  0  0
 36 56  1  0  0  0
 36107  1  0  0  0
 37 39  1  0  0  0
 37 47  1  0  0  0
 37 66  1  0  0  0
 37108  1  0  0  0
 38 43  2  0  0  0
 38 46  1  0  0  0
 38 47  1  0  0  0
 39 64  1  0  0  0
 39 67  2  0  0  0
 40 52  1  0  0  0
 40 53  2  0  0  0
 40 58  1  0  0  0
 41109  1  0  0  0
 41110  1  0  0  0
 41111  1  0  0  0
 41 48  1  0  0  0
 42 43  1  0  0  0
 42 66  1  0  0  0
 42112  1  0  0  0
 42113  1  0  0  0
 43 44  1  0  0  0
 44114  1  0  0  0
 45 46  2  0  0  0
 45115  1  0  0  0
 46116  1  0  0  0
 47117  1  0  0  0
 47118  1  0  0  0
 48 56  1  0  0  0
 48 65  1  0  0  0
 48119  1  0  0  0
 49 50  1  0  0  0
 49 53  1  0  0  0
 49 64  1  0  0  0
 49120  1  0  0  0
 50 51  1  0  0  0
 50121  1  0  0  0
 50122  1  0  0  0
 51 52  1  0  0  0
 51123  1  0  0  0
 51124  1  0  0  0
 52125  1  0  0  0
 52126  1  0  0  0
 53 54  1  0  0  0
 54 55  2  0  0  0
 54127  1  0  0  0
 55 57  1  0  0  0
 55128  1  0  0  0
 56 69  2  0  0  0
 57 58  2  0  0  0
 57129  1  0  0  0
 58130  1  0  0  0
 59 60  1  0  0  0
 59 61  1  0  0  0
 59 62  1  0  0  0
 60131  1  0  0  0
 60132  1  0  0  0
 60133  1  0  0  0
 61134  1  0  0  0
 61135  1  0  0  0
 61136  1  0  0  0
 62137  1  0  0  0
 62138  1  0  0  0
 62139  1  0  0  0
 63 65  1  0  0  0
 63140  1  0  0  0
 63141  1  0  0  0
 63142  1  0  0  0
 64143  1  0  0  0
 65144  1  0  0  0
 68 81  1  0  0  0
 71 72  2  0  0  0
 71 75  1  0  0  0
 71145  1  0  0  0
 72 76  1  0  0  0
 72146  1  0  0  0
 73 74  1  0  0  0
 73 76  2  0  0  0
 73147  1  0  0  0
 74 75  2  0  0  0
 74 83  1  0  0  0
 75 84  1  0  0  0
 76 85  1  0  0  0
 77148  1  0  0  0
 77149  1  0  0  0
 77150  1  0  0  0
 77 82  1  0  0  0
 78151  1  0  0  0
 78152  1  0  0  0
 78153  1  0  0  0
 78 83  1  0  0  0
 79 83  1  0  0  0
 79154  1  0  0  0
 79155  1  0  0  0
 79156  1  0  0  0
 80 83  1  0  0  0
 80157  1  0  0  0
 80158  1  0  0  0
 80159  1  0  0  0
 81 82  1  0  0  0
 81160  1  0  0  0
 81161  1  0  0  0
 82 85  1  0  0  0
 82162  1  0  0  0
 84163  1  0  0  0
M  ISO  4   1 100  68 101  81 101  84 100
M  END
> <chiral flag>
0

> <version>
0

> <s_m_source_file>
/data/baiqing/PycharmProjects/Reinvent-master-3.2/result/LINK_invent/BTK/process_docking_weight1_custom_sum_contain_oxygen_bond_distance_aromatic_linkinvent_7_9_3/rearranged_h_0006.sdf

> <i_m_source_file_index>
93

> <r_mmod_Potential_Energy-OPLS-2005>
506.340393066406

> <r_mmod_Stretch_Energy-OPLS-2005>
232.598983764648

> <r_mmod_Bend_Energy-OPLS-2005>
286.128875732422

> <r_mmod_Torsional_Energy-OPLS-2005>
266.815124511719

> <r_mmod_Improper_Torsional_Energy-OPLS-2005>
8.20936107635498

> <r_mmod_Van_der_Waal_Energy-OPLS-2005>
130.592041015625

> <r_mmod_Electrostatic_Energy-OPLS-2005>
-398.029815673828

> <r_mmod_Solvation_Energy-OPLS-2005>
-202.047912597656

> <b_mmod_Minimization_Converged-OPLS-2005>
0

> <r_mmod_RMS_Derivative-OPLS-2005>
1.67754769325256

$$$$
93
                    3D
 Structure written by MMmdl.
154162  0  0  1  0            999 V2000
  -30.5677  -15.0295   20.4394 C   0  0  0  0  0  0
  -30.4486  -12.6496   19.5118 C   0  0  0  0  0  0
  -29.5267  -12.5498   18.2752 C   0  0  0  0  0  0
  -28.0707  -12.3073   18.7108 C   0  0  0  0  0  0
  -27.6332  -13.2595   19.8543 C   0  0  2  0  0  0
  -28.6824  -13.3454   20.9870 C   0  0  0  0  0  0
  -25.2471  -13.8257   20.5845 C   0  0  0  0  0  0
  -24.1779  -13.0451   20.9291 C   0  0  0  0  0  0
  -24.6425  -11.6943   20.8789 C   0  0  0  0  0  0
  -23.9093  -10.4301   21.0413 C   0  0  0  0  0  0
  -24.3624   -9.4214   21.9202 C   0  0  0  0  0  0
  -23.6300   -8.2243   22.0759 C   0  0  0  0  0  0
  -22.4283   -8.0282   21.3548 C   0  0  0  0  0  0
  -21.9925   -9.0262   20.4649 C   0  0  0  0  0  0
  -22.7254  -10.2141   20.3068 C   0  0  0  0  0  0
  -21.6850   -6.0745   22.5275 C   0  0  0  0  0  0
  -21.4024   -6.5646   23.8215 C   0  0  0  0  0  0
  -21.3659   -5.6794   24.9180 C   0  0  0  0  0  0
  -21.6048   -4.3063   24.7224 C   0  0  0  0  0  0
  -21.8808   -3.8151   23.4347 C   0  0  0  0  0  0
  -21.9197   -4.6969   22.3408 C   0  0  0  0  0  0
  -22.7781  -13.5206   21.1901 C   0  0  0  0  0  0
  -22.1659   -4.2145   21.0990 F   0  0  0  0  0  0
  -21.5610   -3.4550   25.7752 F   0  0  0  0  0  0
  -29.9483  -13.7727   20.3678 N   0  0  0  0  0  0
  -26.2921  -12.9504   20.3396 N   0  0  0  0  0  0
  -25.9380  -11.6624   20.5835 N   0  0  0  0  0  0
  -22.0450  -12.8173   22.0453 N   0  0  0  0  0  0
  -25.4130  -15.1995   20.4335 N   0  0  0  0  0  0
  -31.7779  -15.0485   20.1943 O   0  0  0  0  0  0
  -21.6641   -6.8880   21.4244 O   0  0  0  0  0  0
  -22.3468  -14.5539   20.6792 O   0  0  0  0  0  0
  -24.6499  -31.8328   23.1748 C   0  0  0  0  0  0
  -25.9253  -32.4618   23.8155 C   0  0  1  0  0  0
  -27.2288  -27.0743   20.1778 C   0  0  0  0  0  0
  -25.5969  -33.8430   24.2062 N   0  0  0  0  0  0
  -23.4598  -30.4463   21.5237 C   0  0  2  0  0  0
  -24.9052  -28.8552   20.1128 C   0  0  0  0  0  0
  -22.7604  -29.4495   22.4832 C   0  0  0  0  0  0
  -18.0328  -28.1332   22.8453 C   0  0  0  0  0  0
  -24.1524  -36.7271   23.2651 C   0  0  0  0  0  0
  -26.0161  -30.6907   21.3776 C   0  0  0  0  0  0
  -26.0861  -29.2940   20.7264 C   0  0  0  0  0  0
  -27.2451  -28.4234   20.7338 C   0  0  0  0  0  0
  -26.0199  -26.7491   19.5208 C   0  0  0  0  0  0
  -24.8894  -27.5970   19.4902 C   0  0  0  0  0  0
  -23.6821  -29.7621   20.1500 C   0  0  0  0  0  0
  -25.4136  -36.2980   24.0310 C   0  0  1  0  0  0
  -20.5936  -28.3683   23.1182 C   0  0  2  0  0  0
  -20.6821  -26.9381   22.5370 C   0  0  0  0  0  0
  -19.5818  -26.6300   21.5178 C   0  0  0  0  0  0
  -18.1994  -26.7851   22.1576 C   0  0  0  0  0  0
  -19.1583  -28.8832   23.2803 C   0  0  0  0  0  0
  -18.9510  -30.1426   23.8810 C   0  0  0  0  0  0
  -17.6503  -30.6538   24.0531 C   0  0  0  0  0  0
  -25.9083  -34.9366   23.4983 C   0  0  0  0  0  0
  -16.5397  -29.9014   23.6345 C   0  0  0  0  0  0
  -16.7313  -28.6440   23.0340 C   0  0  0  0  0  0
  -26.4525  -31.6532   25.0657 C   0  0  0  0  0  0
  -25.3640  -31.3800   26.1313 C   0  0  0  0  0  0
  -27.0417  -30.2913   24.6314 C   0  0  0  0  0  0
  -27.6004  -32.4362   25.7452 C   0  0  0  0  0  0
  -27.5581  -37.1787   24.8454 C   0  0  0  0  0  0
  -21.4288  -29.3026   22.3593 N   0  0  0  0  0  0
  -26.4288  -37.3692   23.9398 N   0  0  0  0  0  0
  -24.7311  -31.0106   22.0803 N   0  0  0  0  0  0
  -23.4226  -28.8037   23.3016 O   0  0  0  0  0  0
  -28.2866  -26.0759   20.2550 O   0  0  0  0  0  0
  -26.5678  -34.8911   22.4570 O   0  0  0  0  0  0
  -23.5610  -32.1242   23.6919 O   0  0  0  0  0  0
  -31.4003  -18.0607   21.3427 C   0  0  0  0  0  0
  -29.3624  -19.0100   20.4598 C   0  0  0  0  0  0
  -31.7744  -19.3669   21.7480 C   0  0  0  0  0  0
  -30.9330  -20.5114   21.5469 C   0  0  0  0  0  0
  -30.1641  -17.7652   20.7341 C   0  0  0  0  0  0
  -29.7059  -20.4375   20.7999 C   0  0  0  0  0  0
  -33.1218  -19.4997   22.4653 C   0  0  0  0  0  0
  -31.3360  -21.7980   22.2582 C   0  0  0  0  0  0
  -28.0386  -24.5102   20.3074 C   0  0  0  0  0  0
  -29.1495  -23.1970   20.4091 C   0  0  0  0  0  0
  -29.8170  -16.2602   20.5238 N   0  0  0  0  0  0
  -28.8518  -21.6358   20.5131 O   0  0  0  0  0  0
  -31.4769  -12.8118   19.1850 H   0  0  0  0  0  0
  -30.4621  -11.7093   20.0670 H   0  0  0  0  0  0
  -29.8592  -11.7499   17.6142 H   0  0  0  0  0  0
  -29.5880  -13.4715   17.6969 H   0  0  0  0  0  0
  -27.9985  -11.2725   19.0508 H   0  0  0  0  0  0
  -27.3931  -12.3947   17.8611 H   0  0  0  0  0  0
  -27.5821  -14.2502   19.4056 H   0  0  0  0  0  0
  -28.7902  -12.3950   21.5097 H   0  0  0  0  0  0
  -28.3748  -14.0781   21.7374 H   0  0  0  0  0  0
  -25.2750   -9.5678   22.4789 H   0  0  0  0  0  0
  -23.9993   -7.4630   22.7483 H   0  0  0  0  0  0
  -21.0844   -8.8784   19.8955 H   0  0  0  0  0  0
  -22.3702  -10.9691   19.6180 H   0  0  0  0  0  0
  -21.2026   -7.6153   23.9717 H   0  0  0  0  0  0
  -21.1489   -6.0535   25.9077 H   0  0  0  0  0  0
  -22.0595   -2.7615   23.2858 H   0  0  0  0  0  0
  -22.4080  -11.9797   22.4747 H   0  0  0  0  0  0
  -21.1088  -13.1185   22.2765 H   0  0  0  0  0  0
  -24.6525  -15.8521   20.5794 H   0  0  0  0  0  0
  -26.2590  -15.6472   20.1040 H   0  0  0  0  0  0
  -26.7333  -32.5160   23.0895 H   0  0  0  0  0  0
  -25.0168  -33.9520   25.0250 H   0  0  0  0  0  0
  -22.7718  -31.2776   21.3576 H   0  0  0  0  0  0
  -23.3777  -35.9621   23.3267 H   0  0  0  0  0  0
  -24.3623  -36.8925   22.2077 H   0  0  0  0  0  0
  -23.7304  -37.6473   23.6709 H   0  0  0  0  0  0
  -26.1768  -31.4392   20.5991 H   0  0  0  0  0  0
  -26.8837  -30.7293   22.0232 H   0  0  0  0  0  0
  -28.1434  -28.7538   21.2346 H   0  0  0  0  0  0
  -25.9185  -25.7885   19.0413 H   0  0  0  0  0  0
  -23.9906  -27.2479   18.9965 H   0  0  0  0  0  0
  -23.8094  -30.5239   19.3808 H   0  0  0  0  0  0
  -22.7971  -29.1937   19.8587 H   0  0  0  0  0  0
  -25.1339  -36.1818   25.0800 H   0  0  0  0  0  0
  -21.0042  -28.3229   24.1290 H   0  0  0  0  0  0
  -20.5708  -26.2290   23.3572 H   0  0  0  0  0  0
  -21.6689  -26.7327   22.1187 H   0  0  0  0  0  0
  -19.7027  -25.6213   21.1238 H   0  0  0  0  0  0
  -19.6783  -27.3087   20.6704 H   0  0  0  0  0  0
  -17.4271  -26.6616   21.3964 H   0  0  0  0  0  0
  -18.0364  -25.9948   22.8919 H   0  0  0  0  0  0
  -19.8011  -30.7262   24.2100 H   0  0  0  0  0  0
  -17.5083  -31.6217   24.5132 H   0  0  0  0  0  0
  -15.5423  -30.2904   23.7691 H   0  0  0  0  0  0
  -15.8701  -28.0755   22.7058 H   0  0  0  0  0  0
  -24.5813  -30.7180   25.7583 H   0  0  0  0  0  0
  -24.8882  -32.3044   26.4623 H   0  0  0  0  0  0
  -25.7830  -30.9006   27.0172 H   0  0  0  0  0  0
  -26.3073  -29.6606   24.1320 H   0  0  0  0  0  0
  -27.3993  -29.7254   25.4924 H   0  0  0  0  0  0
  -27.8949  -30.4100   23.9631 H   0  0  0  0  0  0
  -27.2540  -33.3724   26.1864 H   0  0  0  0  0  0
  -28.3869  -32.6859   25.0300 H   0  0  0  0  0  0
  -28.0620  -31.8641   26.5510 H   0  0  0  0  0  0
  -28.2531  -38.0146   24.7481 H   0  0  0  0  0  0
  -28.1139  -36.2661   24.6274 H   0  0  0  0  0  0
  -27.2318  -37.1385   25.8862 H   0  0  0  0  0  0
  -20.9511  -29.8726   21.6748 H   0  0  0  0  0  0
  -26.0174  -38.2770   24.1391 H   0  0  0  0  0  0
  -32.0797  -17.2486   21.5673 H   0  0  0  0  0  0
  -28.4163  -18.8608   19.9581 H   0  0  0  0  0  0
  -33.7390  -18.6064   22.3596 H   0  0  0  0  0  0
  -32.9918  -19.6611   23.5388 H   0  0  0  0  0  0
  -33.7088  -20.3286   22.0638 H   0  0  0  0  0  0
  -31.9879  -21.6393   23.1187 H   0  0  0  0  0  0
  -30.4551  -22.2521   22.7067 H   0  0  0  0  0  0
  -31.8436  -22.4862   21.5764 H   0  0  0  0  0  0
  -27.3764  -24.3837   21.1665 H   0  0  0  0  0  0
  -27.4166  -24.2755   19.4461 H   0  0  0  0  0  0
  -29.8023  -23.5046   21.2154 H   0  0  0  0  0  0
  -29.7732  -23.2833   19.5208 H   0  0  0  0  0  0
  -28.8250  -16.0828   20.4760 H   0  0  0  0  0  0
  1 25  1  0  0  0
  1 30  2  0  0  0
  1 81  1  0  0  0
  2  3  1  0  0  0
  2 25  1  0  0  0
  2 83  1  0  0  0
  2 84  1  0  0  0
  3  4  1  0  0  0
  3 85  1  0  0  0
  3 86  1  0  0  0
  4  5  1  0  0  0
  4 87  1  0  0  0
  4 88  1  0  0  0
  5  6  1  0  0  0
  5 26  1  0  0  0
  5 89  1  0  0  0
  6 25  1  0  0  0
  6 90  1  0  0  0
  6 91  1  0  0  0
  7  8  2  0  0  0
  7 26  1  0  0  0
  7 29  1  0  0  0
  8  9  1  0  0  0
  8 22  1  0  0  0
  9 10  1  0  0  0
  9 27  2  0  0  0
 10 11  2  0  0  0
 10 15  1  0  0  0
 11 12  1  0  0  0
 11 92  1  0  0  0
 12 13  2  0  0  0
 12 93  1  0  0  0
 13 14  1  0  0  0
 13 31  1  0  0  0
 14 15  2  0  0  0
 14 94  1  0  0  0
 15 95  1  0  0  0
 16 17  2  0  0  0
 16 21  1  0  0  0
 16 31  1  0  0  0
 17 18  1  0  0  0
 17 96  1  0  0  0
 18 19  2  0  0  0
 18 97  1  0  0  0
 19 20  1  0  0  0
 19 24  1  0  0  0
 20 21  2  0  0  0
 20 98  1  0  0  0
 21 23  1  0  0  0
 22 28  1  0  0  0
 22 32  2  0  0  0
 26 27  1  0  0  0
 28 99  1  0  0  0
 28100  1  0  0  0
 29101  1  0  0  0
 29102  1  0  0  0
 33 34  1  0  0  0
 33 66  1  0  0  0
 33 70  2  0  0  0
 34 36  1  0  0  0
 34 59  1  0  0  0
 34103  1  0  0  0
 35 44  2  0  0  0
 35 45  1  0  0  0
 35 68  1  0  0  0
 36 56  1  0  0  0
 36104  1  0  0  0
 37 39  1  0  0  0
 37 47  1  0  0  0
 37 66  1  0  0  0
 37105  1  0  0  0
 38 43  2  0  0  0
 38 46  1  0  0  0
 38 47  1  0  0  0
 39 64  1  0  0  0
 39 67  2  0  0  0
 40 52  1  0  0  0
 40 53  2  0  0  0
 40 58  1  0  0  0
 41106  1  0  0  0
 41107  1  0  0  0
 41108  1  0  0  0
 41 48  1  0  0  0
 42 43  1  0  0  0
 42 66  1  0  0  0
 42109  1  0  0  0
 42110  1  0  0  0
 43 44  1  0  0  0
 44111  1  0  0  0
 45 46  2  0  0  0
 45112  1  0  0  0
 46113  1  0  0  0
 47114  1  0  0  0
 47115  1  0  0  0
 48 56  1  0  0  0
 48 65  1  0  0  0
 48116  1  0  0  0
 49 50  1  0  0  0
 49 53  1  0  0  0
 49 64  1  0  0  0
 49117  1  0  0  0
 50 51  1  0  0  0
 50118  1  0  0  0
 50119  1  0  0  0
 51 52  1  0  0  0
 51120  1  0  0  0
 51121  1  0  0  0
 52122  1  0  0  0
 52123  1  0  0  0
 53 54  1  0  0  0
 54 55  2  0  0  0
 54124  1  0  0  0
 55 57  1  0  0  0
 55125  1  0  0  0
 56 69  2  0  0  0
 57 58  2  0  0  0
 57126  1  0  0  0
 58127  1  0  0  0
 59 60  1  0  0  0
 59 61  1  0  0  0
 59 62  1  0  0  0
 60128  1  0  0  0
 60129  1  0  0  0
 60130  1  0  0  0
 61131  1  0  0  0
 61132  1  0  0  0
 61133  1  0  0  0
 62134  1  0  0  0
 62135  1  0  0  0
 62136  1  0  0  0
 63 65  1  0  0  0
 63137  1  0  0  0
 63138  1  0  0  0
 63139  1  0  0  0
 64140  1  0  0  0
 65141  1  0  0  0
 68 79  1  0  0  0
 71 73  2  0  0  0
 71 75  1  0  0  0
 71142  1  0  0  0
 72 75  2  0  0  0
 72 76  1  0  0  0
 72143  1  0  0  0
 73 74  1  0  0  0
 73 77  1  0  0  0
 74 76  2  0  0  0
 74 78  1  0  0  0
 75 81  1  0  0  0
 76 82  1  0  0  0
 77144  1  0  0  0
 77145  1  0  0  0
 77146  1  0  0  0
 78147  1  0  0  0
 78148  1  0  0  0
 78149  1  0  0  0
 79 80  1  0  0  0
 79150  1  0  0  0
 79151  1  0  0  0
 80 82  1  0  0  0
 80152  1  0  0  0
 80153  1  0  0  0
 81154  1  0  0  0
M  ISO  4   1 100  68 101  79 101  81 100
M  END
> <chiral flag>
0

> <version>
0

> <s_m_source_file>
/data/baiqing/PycharmProjects/Reinvent-master-3.2/result/LINK_invent/BTK/process_docking_weight1_custom_sum_contain_oxygen_bond_distance_aromatic_linkinvent_7_9_3/rearranged_h_0006.sdf

> <i_m_source_file_index>
94

> <r_mmod_Potential_Energy-OPLS-2005>
706.440856933594

> <r_mmod_Stretch_Energy-OPLS-2005>
347.980895996094

> <r_mmod_Bend_Energy-OPLS-2005>
308.770874023438

> <r_mmod_Torsional_Energy-OPLS-2005>
229.134735107422

> <r_mmod_Improper_Torsional_Energy-OPLS-2005>
6.35769176483154

> <r_mmod_Van_der_Waal_Energy-OPLS-2005>
142.258438110352

> <r_mmod_Electrostatic_Energy-OPLS-2005>
-364.100646972656

> <r_mmod_Solvation_Energy-OPLS-2005>
-214.907043457031

> <b_mmod_Minimization_Converged-OPLS-2005>
0

> <r_mmod_RMS_Derivative-OPLS-2005>
5.21428155899048

$$$$
94
                    3D
 Structure written by MMmdl.
148156  0  0  1  0            999 V2000
  -30.5217  -15.0261   20.4052 C   0  0  0  0  0  0
  -30.4390  -12.6402   19.5048 C   0  0  0  0  0  0
  -29.5238  -12.5369   18.2623 C   0  0  0  0  0  0
  -28.0601  -12.3096   18.6832 C   0  0  0  0  0  0
  -27.6240  -13.2552   19.8324 C   0  0  2  0  0  0
  -28.6655  -13.3241   20.9692 C   0  0  0  0  0  0
  -25.2437  -13.8224   20.5717 C   0  0  0  0  0  0
  -24.1766  -13.0437   20.9239 C   0  0  0  0  0  0
  -24.6394  -11.6926   20.8759 C   0  0  0  0  0  0
  -23.9082  -10.4293   21.0409 C   0  0  0  0  0  0
  -24.3630   -9.4205   21.9184 C   0  0  0  0  0  0
  -23.6300   -8.2242   22.0754 C   0  0  0  0  0  0
  -22.4282   -8.0282   21.3545 C   0  0  0  0  0  0
  -21.9920   -9.0258   20.4648 C   0  0  0  0  0  0
  -22.7254  -10.2134   20.3057 C   0  0  0  0  0  0
  -21.6854   -6.0737   22.5278 C   0  0  0  0  0  0
  -21.4016   -6.5640   23.8212 C   0  0  0  0  0  0
  -21.3659   -5.6793   24.9173 C   0  0  0  0  0  0
  -21.6044   -4.3055   24.7225 C   0  0  0  0  0  0
  -21.8818   -3.8147   23.4345 C   0  0  0  0  0  0
  -21.9193   -4.6964   22.3402 C   0  0  0  0  0  0
  -22.7784  -13.5202   21.1892 C   0  0  0  0  0  0
  -22.1661   -4.2149   21.0979 F   0  0  0  0  0  0
  -21.5628   -3.4539   25.7737 F   0  0  0  0  0  0
  -29.9299  -13.7565   20.3600 N   0  0  0  0  0  0
  -26.2862  -12.9469   20.3230 N   0  0  0  0  0  0
  -25.9327  -11.6592   20.5735 N   0  0  0  0  0  0
  -22.0439  -12.8188   22.0448 N   0  0  0  0  0  0
  -25.4078  -15.1956   20.4133 N   0  0  0  0  0  0
  -31.7343  -15.0548   20.1648 O   0  0  0  0  0  0
  -21.6643   -6.8881   21.4241 O   0  0  0  0  0  0
  -22.3465  -14.5504   20.6733 O   0  0  0  0  0  0
  -24.6490  -31.8384   23.1833 C   0  0  0  0  0  0
  -25.9236  -32.4666   23.8243 C   0  0  1  0  0  0
  -27.2158  -27.0783   20.1612 C   0  0  0  0  0  0
  -25.5958  -33.8474   24.2155 N   0  0  0  0  0  0
  -23.4556  -30.4561   21.5299 C   0  0  2  0  0  0
  -24.9057  -28.8721   20.1110 C   0  0  0  0  0  0
  -22.7596  -29.4519   22.4836 C   0  0  0  0  0  0
  -18.0310  -28.1399   22.8474 C   0  0  0  0  0  0
  -24.1492  -36.7244   23.2644 C   0  0  0  0  0  0
  -26.0158  -30.6941   21.3906 C   0  0  0  0  0  0
  -26.0859  -29.2997   20.7324 C   0  0  0  0  0  0
  -27.2411  -28.4209   20.7363 C   0  0  0  0  0  0
  -26.0077  -26.7657   19.5001 C   0  0  0  0  0  0
  -24.8831  -27.6209   19.4774 C   0  0  0  0  0  0
  -23.6856  -29.7822   20.1510 C   0  0  0  0  0  0
  -25.4127  -36.3015   24.0310 C   0  0  1  0  0  0
  -20.5926  -28.3731   23.1221 C   0  0  2  0  0  0
  -20.6792  -26.9428   22.5403 C   0  0  0  0  0  0
  -19.5765  -26.6380   21.5212 C   0  0  0  0  0  0
  -18.1947  -26.7936   22.1623 C   0  0  0  0  0  0
  -19.1568  -28.8883   23.2838 C   0  0  0  0  0  0
  -18.9482  -30.1477   23.8868 C   0  0  0  0  0  0
  -17.6478  -30.6594   24.0558 C   0  0  0  0  0  0
  -25.9081  -34.9392   23.5046 C   0  0  0  0  0  0
  -16.5368  -29.9085   23.6338 C   0  0  0  0  0  0
  -16.7294  -28.6504   23.0358 C   0  0  0  0  0  0
  -26.4535  -31.6559   25.0712 C   0  0  0  0  0  0
  -25.3700  -31.3765   26.1392 C   0  0  0  0  0  0
  -27.0416  -30.2948   24.6340 C   0  0  0  0  0  0
  -27.6048  -32.4343   25.7506 C   0  0  0  0  0  0
  -27.5574  -37.1779   24.8466 C   0  0  0  0  0  0
  -21.4281  -29.3048   22.3586 N   0  0  0  0  0  0
  -26.4285  -37.3734   23.9406 N   0  0  0  0  0  0
  -24.7271  -31.0189   22.0893 N   0  0  0  0  0  0
  -23.4212  -28.8072   23.3012 O   0  0  0  0  0  0
  -28.2533  -26.0585   20.2323 O   0  0  0  0  0  0
  -26.5676  -34.8901   22.4631 O   0  0  0  0  0  0
  -23.5595  -32.1285   23.7019 O   0  0  0  0  0  0
  -29.1065  -18.9480   20.3819 C   0  0  0  0  0  0
  -31.3920  -18.1841   20.5578 C   0  0  0  0  0  0
  -30.8592  -20.6164   20.4838 C   0  0  0  0  0  0
  -30.0427  -17.7704   20.4668 C   0  0  0  0  0  0
  -29.4673  -20.4116   20.3808 C   0  0  0  0  0  0
  -31.7820  -19.5461   20.5675 C   0  0  0  0  0  0
  -27.9628  -24.5033   20.1172 C   0  0  0  0  0  0
  -28.9799  -23.1295   20.3350 C   0  0  0  0  0  0
  -29.7393  -16.2368   20.4946 N   0  0  0  0  0  0
  -28.5845  -21.6014   20.2828 O   0  0  0  0  0  0
  -33.1012  -19.8389   20.6637 F   0  0  0  0  0  0
  -31.4700  -12.8053   19.1886 H   0  0  0  0  0  0
  -30.4473  -11.7011   20.0606 H   0  0  0  0  0  0
  -29.8572  -11.7282   17.6105 H   0  0  0  0  0  0
  -29.5985  -13.4540   17.6760 H   0  0  0  0  0  0
  -27.9708  -11.2726   19.0087 H   0  0  0  0  0  0
  -27.3951  -12.4183   17.8256 H   0  0  0  0  0  0
  -27.5738  -14.2479   19.3840 H   0  0  0  0  0  0
  -28.7726  -12.3602   21.4688 H   0  0  0  0  0  0
  -28.3516  -14.0371   21.7334 H   0  0  0  0  0  0
  -25.2773   -9.5681   22.4763 H   0  0  0  0  0  0
  -24.0007   -7.4633   22.7474 H   0  0  0  0  0  0
  -21.0850   -8.8781   19.8954 H   0  0  0  0  0  0
  -22.3712  -10.9676   19.6170 H   0  0  0  0  0  0
  -21.2011   -7.6149   23.9716 H   0  0  0  0  0  0
  -21.1481   -6.0523   25.9077 H   0  0  0  0  0  0
  -22.0598   -2.7610   23.2845 H   0  0  0  0  0  0
  -22.4071  -11.9857   22.4839 H   0  0  0  0  0  0
  -21.1053  -13.1200   22.2654 H   0  0  0  0  0  0
  -24.6334  -15.8419   20.5208 H   0  0  0  0  0  0
  -26.2410  -15.6372   20.0479 H   0  0  0  0  0  0
  -26.7303  -32.5251   23.0968 H   0  0  0  0  0  0
  -25.0070  -33.9576   25.0279 H   0  0  0  0  0  0
  -22.7612  -31.2838   21.3715 H   0  0  0  0  0  0
  -23.3759  -35.9570   23.3293 H   0  0  0  0  0  0
  -24.3573  -36.8894   22.2062 H   0  0  0  0  0  0
  -23.7244  -37.6432   23.6697 H   0  0  0  0  0  0
  -26.1790  -31.4452   20.6166 H   0  0  0  0  0  0
  -26.8830  -30.7450   22.0374 H   0  0  0  0  0  0
  -28.1387  -28.7441   21.2446 H   0  0  0  0  0  0
  -25.8957  -25.8096   19.0121 H   0  0  0  0  0  0
  -23.9834  -27.2880   18.9781 H   0  0  0  0  0  0
  -23.8286  -30.5554   19.3953 H   0  0  0  0  0  0
  -22.7986  -29.2289   19.8377 H   0  0  0  0  0  0
  -25.1319  -36.1833   25.0802 H   0  0  0  0  0  0
  -21.0017  -28.3326   24.1343 H   0  0  0  0  0  0
  -20.5680  -26.2346   23.3628 H   0  0  0  0  0  0
  -21.6657  -26.7424   22.1204 H   0  0  0  0  0  0
  -19.6925  -25.6282   21.1262 H   0  0  0  0  0  0
  -19.6702  -27.3172   20.6727 H   0  0  0  0  0  0
  -17.4215  -26.6676   21.4029 H   0  0  0  0  0  0
  -18.0348  -26.0086   22.9029 H   0  0  0  0  0  0
  -19.7957  -30.7301   24.2224 H   0  0  0  0  0  0
  -17.5030  -31.6270   24.5166 H   0  0  0  0  0  0
  -15.5367  -30.2977   23.7678 H   0  0  0  0  0  0
  -15.8694  -28.0812   22.7091 H   0  0  0  0  0  0
  -24.5893  -30.7098   25.7709 H   0  0  0  0  0  0
  -24.8871  -32.2950   26.4737 H   0  0  0  0  0  0
  -25.7965  -30.8992   27.0223 H   0  0  0  0  0  0
  -26.3052  -29.6654   24.1331 H   0  0  0  0  0  0
  -27.3989  -29.7271   25.4942 H   0  0  0  0  0  0
  -27.8974  -30.4173   23.9700 H   0  0  0  0  0  0
  -27.2627  -33.3669   26.2008 H   0  0  0  0  0  0
  -28.3899  -32.6866   25.0366 H   0  0  0  0  0  0
  -28.0673  -31.8521   26.5487 H   0  0  0  0  0  0
  -28.2583  -38.0083   24.7509 H   0  0  0  0  0  0
  -28.1077  -36.2611   24.6299 H   0  0  0  0  0  0
  -27.2288  -37.1432   25.8868 H   0  0  0  0  0  0
  -20.9503  -29.8754   21.6752 H   0  0  0  0  0  0
  -26.0146  -38.2799   24.1409 H   0  0  0  0  0  0
  -28.0524  -18.7208   20.3122 H   0  0  0  0  0  0
  -32.1792  -17.4505   20.6354 H   0  0  0  0  0  0
  -31.2552  -21.6201   20.4990 H   0  0  0  0  0  0
  -27.1177  -24.3387   20.7862 H   0  0  0  0  0  0
  -27.5528  -24.3709   19.1166 H   0  0  0  0  0  0
  -29.4562  -23.2607   21.3069 H   0  0  0  0  0  0
  -29.7883  -23.2439   19.6128 H   0  0  0  0  0  0
  -28.7566  -16.0271   20.5831 H   0  0  0  0  0  0
  1 25  1  0  0  0
  1 30  2  0  0  0
  1 79  1  0  0  0
  2  3  1  0  0  0
  2 25  1  0  0  0
  2 82  1  0  0  0
  2 83  1  0  0  0
  3  4  1  0  0  0
  3 84  1  0  0  0
  3 85  1  0  0  0
  4  5  1  0  0  0
  4 86  1  0  0  0
  4 87  1  0  0  0
  5  6  1  0  0  0
  5 26  1  0  0  0
  5 88  1  0  0  0
  6 25  1  0  0  0
  6 89  1  0  0  0
  6 90  1  0  0  0
  7  8  2  0  0  0
  7 26  1  0  0  0
  7 29  1  0  0  0
  8  9  1  0  0  0
  8 22  1  0  0  0
  9 10  1  0  0  0
  9 27  2  0  0  0
 10 11  2  0  0  0
 10 15  1  0  0  0
 11 12  1  0  0  0
 11 91  1  0  0  0
 12 13  2  0  0  0
 12 92  1  0  0  0
 13 14  1  0  0  0
 13 31  1  0  0  0
 14 15  2  0  0  0
 14 93  1  0  0  0
 15 94  1  0  0  0
 16 17  2  0  0  0
 16 21  1  0  0  0
 16 31  1  0  0  0
 17 18  1  0  0  0
 17 95  1  0  0  0
 18 19  2  0  0  0
 18 96  1  0  0  0
 19 20  1  0  0  0
 19 24  1  0  0  0
 20 21  2  0  0  0
 20 97  1  0  0  0
 21 23  1  0  0  0
 22 28  1  0  0  0
 22 32  2  0  0  0
 26 27  1  0  0  0
 28 98  1  0  0  0
 28 99  1  0  0  0
 29100  1  0  0  0
 29101  1  0  0  0
 33 34  1  0  0  0
 33 66  1  0  0  0
 33 70  2  0  0  0
 34 36  1  0  0  0
 34 59  1  0  0  0
 34102  1  0  0  0
 35 44  2  0  0  0
 35 45  1  0  0  0
 35 68  1  0  0  0
 36 56  1  0  0  0
 36103  1  0  0  0
 37 39  1  0  0  0
 37 47  1  0  0  0
 37 66  1  0  0  0
 37104  1  0  0  0
 38 43  2  0  0  0
 38 46  1  0  0  0
 38 47  1  0  0  0
 39 64  1  0  0  0
 39 67  2  0  0  0
 40 52  1  0  0  0
 40 53  2  0  0  0
 40 58  1  0  0  0
 41105  1  0  0  0
 41106  1  0  0  0
 41107  1  0  0  0
 41 48  1  0  0  0
 42 43  1  0  0  0
 42 66  1  0  0  0
 42108  1  0  0  0
 42109  1  0  0  0
 43 44  1  0  0  0
 44110  1  0  0  0
 45 46  2  0  0  0
 45111  1  0  0  0
 46112  1  0  0  0
 47113  1  0  0  0
 47114  1  0  0  0
 48 56  1  0  0  0
 48 65  1  0  0  0
 48115  1  0  0  0
 49 50  1  0  0  0
 49 53  1  0  0  0
 49 64  1  0  0  0
 49116  1  0  0  0
 50 51  1  0  0  0
 50117  1  0  0  0
 50118  1  0  0  0
 51 52  1  0  0  0
 51119  1  0  0  0
 51120  1  0  0  0
 52121  1  0  0  0
 52122  1  0  0  0
 53 54  1  0  0  0
 54 55  2  0  0  0
 54123  1  0  0  0
 55 57  1  0  0  0
 55124  1  0  0  0
 56 69  2  0  0  0
 57 58  2  0  0  0
 57125  1  0  0  0
 58126  1  0  0  0
 59 60  1  0  0  0
 59 61  1  0  0  0
 59 62  1  0  0  0
 60127  1  0  0  0
 60128  1  0  0  0
 60129  1  0  0  0
 61130  1  0  0  0
 61131  1  0  0  0
 61132  1  0  0  0
 62133  1  0  0  0
 62134  1  0  0  0
 62135  1  0  0  0
 63 65  1  0  0  0
 63136  1  0  0  0
 63137  1  0  0  0
 63138  1  0  0  0
 64139  1  0  0  0
 65140  1  0  0  0
 68 77  1  0  0  0
 71 74  2  0  0  0
 71 75  1  0  0  0
 71141  1  0  0  0
 72 74  1  0  0  0
 72 76  2  0  0  0
 72142  1  0  0  0
 73 75  2  0  0  0
 73 76  1  0  0  0
 73143  1  0  0  0
 74 79  1  0  0  0
 75 80  1  0  0  0
 76 81  1  0  0  0
 77 78  1  0  0  0
 77144  1  0  0  0
 77145  1  0  0  0
 78 80  1  0  0  0
 78146  1  0  0  0
 78147  1  0  0  0
 79148  1  0  0  0
M  ISO  4   1 100  68 101  77 101  79 100
M  END
> <chiral flag>
0

> <version>
0

> <s_m_source_file>
/data/baiqing/PycharmProjects/Reinvent-master-3.2/result/LINK_invent/BTK/process_docking_weight1_custom_sum_contain_oxygen_bond_distance_aromatic_linkinvent_7_9_3/rearranged_h_0006.sdf

> <i_m_source_file_index>
95

> <r_mmod_Potential_Energy-OPLS-2005>
661.234252929688

> <r_mmod_Stretch_Energy-OPLS-2005>
331.611297607422

> <r_mmod_Bend_Energy-OPLS-2005>
281.5966796875

> <r_mmod_Torsional_Energy-OPLS-2005>
210.155731201172

> <r_mmod_Improper_Torsional_Energy-OPLS-2005>
4.81102991104126

> <r_mmod_Van_der_Waal_Energy-OPLS-2005>
132.258193969727

> <r_mmod_Electrostatic_Energy-OPLS-2005>
-334.958679199219

> <r_mmod_Solvation_Energy-OPLS-2005>
-213.42317199707

> <b_mmod_Minimization_Converged-OPLS-2005>
0

> <r_mmod_RMS_Derivative-OPLS-2005>
0.238067045807838

$$$$
95
                    3D
 Structure written by MMmdl.
157165  0  0  1  0            999 V2000
  -30.6113  -14.7182   20.4695 C   0  0  0  0  0  0
  -30.4337  -12.4343   19.4867 C   0  0  0  0  0  0
  -29.5165  -12.5133   18.2456 C   0  0  0  0  0  0
  -28.0392  -12.3460   18.6493 C   0  0  0  0  0  0
  -27.6490  -13.2315   19.8627 C   0  0  2  0  0  0
  -28.6888  -13.1370   21.0024 C   0  0  0  0  0  0
  -25.2537  -13.8206   20.5696 C   0  0  0  0  0  0
  -24.1817  -13.0450   20.9187 C   0  0  0  0  0  0
  -24.6400  -11.6927   20.8730 C   0  0  0  0  0  0
  -23.9073  -10.4300   21.0392 C   0  0  0  0  0  0
  -24.3625   -9.4216   21.9172 C   0  0  0  0  0  0
  -23.6299   -8.2252   22.0748 C   0  0  0  0  0  0
  -22.4281   -8.0283   21.3541 C   0  0  0  0  0  0
  -21.9915   -9.0258   20.4644 C   0  0  0  0  0  0
  -22.7243  -10.2136   20.3045 C   0  0  0  0  0  0
  -21.6857   -6.0733   22.5271 C   0  0  0  0  0  0
  -21.4021   -6.5639   23.8206 C   0  0  0  0  0  0
  -21.3664   -5.6787   24.9169 C   0  0  0  0  0  0
  -21.6046   -4.3051   24.7215 C   0  0  0  0  0  0
  -21.8821   -3.8144   23.4338 C   0  0  0  0  0  0
  -21.9199   -4.6961   22.3398 C   0  0  0  0  0  0
  -22.7837  -13.5226   21.1848 C   0  0  0  0  0  0
  -22.1661   -4.2148   21.0973 F   0  0  0  0  0  0
  -21.5635   -3.4534   25.7731 F   0  0  0  0  0  0
  -30.0013  -13.4835   20.4401 N   0  0  0  0  0  0
  -26.2970  -12.9409   20.3311 N   0  0  0  0  0  0
  -25.9334  -11.6550   20.5754 N   0  0  0  0  0  0
  -22.0491  -12.8213   22.0411 N   0  0  0  0  0  0
  -25.4257  -15.1932   20.4144 N   0  0  0  0  0  0
  -31.7669  -14.8443   20.0551 O   0  0  0  0  0  0
  -21.6646   -6.8878   21.4237 O   0  0  0  0  0  0
  -22.3512  -14.5524   20.6693 O   0  0  0  0  0  0
  -24.6310  -31.8561   23.1997 C   0  0  0  0  0  0
  -25.9134  -32.4759   23.8340 C   0  0  1  0  0  0
  -27.2154  -27.2593   20.1218 C   0  0  0  0  0  0
  -25.5931  -33.8562   24.2258 N   0  0  0  0  0  0
  -23.4279  -30.4798   21.5431 C   0  0  2  0  0  0
  -24.8752  -28.9329   20.1049 C   0  0  0  0  0  0
  -22.7504  -29.4598   22.4905 C   0  0  0  0  0  0
  -18.0296  -28.1386   22.8488 C   0  0  0  0  0  0
  -24.1491  -36.7284   23.2640 C   0  0  0  0  0  0
  -25.9748  -30.7656   21.3839 C   0  0  0  0  0  0
  -26.0455  -29.3894   20.7237 C   0  0  0  0  0  0
  -27.2152  -28.5624   20.7278 C   0  0  0  0  0  0
  -26.0279  -26.8887   19.4477 C   0  0  0  0  0  0
  -24.8726  -27.6913   19.4552 C   0  0  0  0  0  0
  -23.6464  -29.8191   20.1571 C   0  0  0  0  0  0
  -25.4115  -36.3071   24.0329 C   0  0  1  0  0  0
  -20.5900  -28.3693   23.1275 C   0  0  2  0  0  0
  -20.6782  -26.9412   22.5408 C   0  0  0  0  0  0
  -19.5753  -26.6380   21.5217 C   0  0  0  0  0  0
  -18.1936  -26.7926   22.1630 C   0  0  0  0  0  0
  -19.1550  -28.8859   23.2877 C   0  0  0  0  0  0
  -18.9465  -30.1462   23.8893 C   0  0  0  0  0  0
  -17.6460  -30.6588   24.0562 C   0  0  0  0  0  0
  -25.9053  -34.9442   23.5095 C   0  0  0  0  0  0
  -16.5354  -29.9083   23.6330 C   0  0  0  0  0  0
  -16.7280  -28.6502   23.0350 C   0  0  0  0  0  0
  -26.4498  -31.6586   25.0732 C   0  0  0  0  0  0
  -25.3712  -31.3740   26.1444 C   0  0  0  0  0  0
  -27.0342  -30.3000   24.6225 C   0  0  0  0  0  0
  -27.6049  -32.4330   25.7503 C   0  0  0  0  0  0
  -27.5578  -37.1800   24.8465 C   0  0  0  0  0  0
  -21.4209  -29.3039   22.3657 N   0  0  0  0  0  0
  -26.4290  -37.3768   23.9408 N   0  0  0  0  0  0
  -24.6967  -31.0520   22.0981 N   0  0  0  0  0  0
  -23.4208  -28.8133   23.2996 O   0  0  0  0  0  0
  -28.3010  -26.3512   20.2102 O   0  0  0  0  0  0
  -26.5623  -34.8918   22.4664 O   0  0  0  0  0  0
  -23.5458  -32.1387   23.7285 O   0  0  0  0  0  0
  -29.4310  -17.0798   18.7896 C   0  0  0  0  0  0
  -29.0451  -19.5043   18.6898 C   0  0  0  0  0  0
  -29.0949  -18.2401   18.0638 C   0  0  0  0  0  0
  -29.6479  -18.4468   20.7992 C   0  0  0  0  0  0
  -29.7058  -17.1274   20.1726 C   0  0  0  0  0  0
  -29.3293  -19.6715   20.0661 C   0  0  0  0  0  0
  -28.7678  -18.1283   16.5868 C   0  0  0  0  0  0
  -29.9409  -18.5679   22.2833 C   0  0  0  0  0  0
  -28.9380  -23.6815   20.5448 C   0  0  0  0  0  0
  -28.1046  -24.8949   19.8698 C   0  0  0  0  0  0
  -28.7879  -22.1848   19.9348 C   0  0  0  0  0  0
  -29.8736  -15.8233   20.8603 N   0  0  0  0  0  0
  -29.3007  -20.9760   20.6572 O   0  0  0  0  0  0
  -31.4771  -12.5502   19.1891 H   0  0  0  0  0  0
  -30.3667  -11.4500   19.9528 H   0  0  0  0  0  0
  -29.7952  -11.7462   17.5216 H   0  0  0  0  0  0
  -29.6549  -13.4726   17.7446 H   0  0  0  0  0  0
  -27.8834  -11.2951   18.8946 H   0  0  0  0  0  0
  -27.3880  -12.5591   17.8008 H   0  0  0  0  0  0
  -27.6529  -14.2601   19.5015 H   0  0  0  0  0  0
  -28.7104  -12.1303   21.4229 H   0  0  0  0  0  0
  -28.4212  -13.8025   21.8245 H   0  0  0  0  0  0
  -25.2772   -9.5694   22.4741 H   0  0  0  0  0  0
  -24.0012   -7.4646   22.7463 H   0  0  0  0  0  0
  -21.0849   -8.8770   19.8950 H   0  0  0  0  0  0
  -22.3695  -10.9674   19.6153 H   0  0  0  0  0  0
  -21.2005   -7.6145   23.9706 H   0  0  0  0  0  0
  -21.1490   -6.0519   25.9071 H   0  0  0  0  0  0
  -22.0598   -2.7604   23.2834 H   0  0  0  0  0  0
  -22.4116  -11.9883   22.4809 H   0  0  0  0  0  0
  -21.1103  -13.1226   22.2612 H   0  0  0  0  0  0
  -24.6636  -15.8514   20.5326 H   0  0  0  0  0  0
  -26.2820  -15.6332   20.1007 H   0  0  0  0  0  0
  -26.7196  -32.5409   23.1078 H   0  0  0  0  0  0
  -25.0072  -33.9701   25.0400 H   0  0  0  0  0  0
  -22.7244  -31.3025   21.3993 H   0  0  0  0  0  0
  -23.3755  -35.9615   23.3298 H   0  0  0  0  0  0
  -24.3582  -36.8908   22.2055 H   0  0  0  0  0  0
  -23.7245  -37.6486   23.6664 H   0  0  0  0  0  0
  -26.1174  -31.5285   20.6169 H   0  0  0  0  0  0
  -26.8512  -30.8114   22.0185 H   0  0  0  0  0  0
  -28.1054  -28.9008   21.2393 H   0  0  0  0  0  0
  -25.9543  -25.9574   18.9080 H   0  0  0  0  0  0
  -23.9821  -27.3451   18.9487 H   0  0  0  0  0  0
  -23.7696  -30.5989   19.4047 H   0  0  0  0  0  0
  -22.7644  -29.2540   19.8497 H   0  0  0  0  0  0
  -25.1300  -36.1915   25.0822 H   0  0  0  0  0  0
  -20.9999  -28.3265   24.1392 H   0  0  0  0  0  0
  -20.5689  -26.2299   23.3609 H   0  0  0  0  0  0
  -21.6648  -26.7432   22.1195 H   0  0  0  0  0  0
  -19.6910  -25.6289   21.1249 H   0  0  0  0  0  0
  -19.6692  -27.3191   20.6749 H   0  0  0  0  0  0
  -17.4205  -26.6680   21.4037 H   0  0  0  0  0  0
  -18.0331  -26.0076   22.9031 H   0  0  0  0  0  0
  -19.7943  -30.7285   24.2256 H   0  0  0  0  0  0
  -17.5014  -31.6268   24.5160 H   0  0  0  0  0  0
  -15.5355  -30.2978   23.7658 H   0  0  0  0  0  0
  -15.8683  -28.0821   22.7054 H   0  0  0  0  0  0
  -24.5891  -30.7089   25.7765 H   0  0  0  0  0  0
  -24.8900  -32.2911   26.4852 H   0  0  0  0  0  0
  -25.8021  -30.8924   27.0230 H   0  0  0  0  0  0
  -26.2928  -29.6751   24.1231 H   0  0  0  0  0  0
  -27.3994  -29.7262   25.4752 H   0  0  0  0  0  0
  -27.8822  -30.4268   23.9492 H   0  0  0  0  0  0
  -27.2655  -33.3634   26.2067 H   0  0  0  0  0  0
  -28.3865  -32.6883   25.0334 H   0  0  0  0  0  0
  -28.0710  -31.8465   26.5430 H   0  0  0  0  0  0
  -28.2591  -38.0099   24.7506 H   0  0  0  0  0  0
  -28.1078  -36.2630   24.6296 H   0  0  0  0  0  0
  -27.2298  -37.1452   25.8869 H   0  0  0  0  0  0
  -20.9387  -29.8768   21.6876 H   0  0  0  0  0  0
  -26.0169  -38.2843   24.1404 H   0  0  0  0  0  0
  -29.4340  -16.1287   18.2740 H   0  0  0  0  0  0
  -28.7813  -20.3480   18.0712 H   0  0  0  0  0  0
  -28.4650  -17.1146   16.3218 H   0  0  0  0  0  0
  -29.6359  -18.3929   15.9836 H   0  0  0  0  0  0
  -27.9481  -18.7963   16.3201 H   0  0  0  0  0  0
  -29.7778  -17.6294   22.8122 H   0  0  0  0  0  0
  -29.3016  -19.3218   22.7429 H   0  0  0  0  0  0
  -30.9787  -18.8653   22.4312 H   0  0  0  0  0  0
  -28.6639  -23.6453   21.5993 H   0  0  0  0  0  0
  -29.9960  -23.9426   20.5296 H   0  0  0  0  0  0
  -27.0702  -24.6194   20.0696 H   0  0  0  0  0  0
  -28.2301  -24.8198   18.7888 H   0  0  0  0  0  0
  -29.2639  -22.2245   18.9554 H   0  0  0  0  0  0
  -27.7287  -22.0048   19.7474 H   0  0  0  0  0  0
  -29.0959  -15.5824   21.4573 H   0  0  0  0  0  0
  1 25  1  0  0  0
  1 30  2  0  0  0
  1 82  1  0  0  0
  2  3  1  0  0  0
  2 25  1  0  0  0
  2 84  1  0  0  0
  2 85  1  0  0  0
  3  4  1  0  0  0
  3 86  1  0  0  0
  3 87  1  0  0  0
  4  5  1  0  0  0
  4 88  1  0  0  0
  4 89  1  0  0  0
  5  6  1  0  0  0
  5 26  1  0  0  0
  5 90  1  0  0  0
  6 25  1  0  0  0
  6 91  1  0  0  0
  6 92  1  0  0  0
  7  8  2  0  0  0
  7 26  1  0  0  0
  7 29  1  0  0  0
  8  9  1  0  0  0
  8 22  1  0  0  0
  9 10  1  0  0  0
  9 27  2  0  0  0
 10 11  2  0  0  0
 10 15  1  0  0  0
 11 12  1  0  0  0
 11 93  1  0  0  0
 12 13  2  0  0  0
 12 94  1  0  0  0
 13 14  1  0  0  0
 13 31  1  0  0  0
 14 15  2  0  0  0
 14 95  1  0  0  0
 15 96  1  0  0  0
 16 17  2  0  0  0
 16 21  1  0  0  0
 16 31  1  0  0  0
 17 18  1  0  0  0
 17 97  1  0  0  0
 18 19  2  0  0  0
 18 98  1  0  0  0
 19 20  1  0  0  0
 19 24  1  0  0  0
 20 21  2  0  0  0
 20 99  1  0  0  0
 21 23  1  0  0  0
 22 28  1  0  0  0
 22 32  2  0  0  0
 26 27  1  0  0  0
 28100  1  0  0  0
 28101  1  0  0  0
 29102  1  0  0  0
 29103  1  0  0  0
 33 34  1  0  0  0
 33 66  1  0  0  0
 33 70  2  0  0  0
 34 36  1  0  0  0
 34 59  1  0  0  0
 34104  1  0  0  0
 35 44  2  0  0  0
 35 45  1  0  0  0
 35 68  1  0  0  0
 36 56  1  0  0  0
 36105  1  0  0  0
 37 39  1  0  0  0
 37 47  1  0  0  0
 37 66  1  0  0  0
 37106  1  0  0  0
 38 43  2  0  0  0
 38 46  1  0  0  0
 38 47  1  0  0  0
 39 64  1  0  0  0
 39 67  2  0  0  0
 40 52  1  0  0  0
 40 53  2  0  0  0
 40 58  1  0  0  0
 41107  1  0  0  0
 41108  1  0  0  0
 41109  1  0  0  0
 41 48  1  0  0  0
 42 43  1  0  0  0
 42 66  1  0  0  0
 42110  1  0  0  0
 42111  1  0  0  0
 43 44  1  0  0  0
 44112  1  0  0  0
 45 46  2  0  0  0
 45113  1  0  0  0
 46114  1  0  0  0
 47115  1  0  0  0
 47116  1  0  0  0
 48 56  1  0  0  0
 48 65  1  0  0  0
 48117  1  0  0  0
 49 50  1  0  0  0
 49 53  1  0  0  0
 49 64  1  0  0  0
 49118  1  0  0  0
 50 51  1  0  0  0
 50119  1  0  0  0
 50120  1  0  0  0
 51 52  1  0  0  0
 51121  1  0  0  0
 51122  1  0  0  0
 52123  1  0  0  0
 52124  1  0  0  0
 53 54  1  0  0  0
 54 55  2  0  0  0
 54125  1  0  0  0
 55 57  1  0  0  0
 55126  1  0  0  0
 56 69  2  0  0  0
 57 58  2  0  0  0
 57127  1  0  0  0
 58128  1  0  0  0
 59 60  1  0  0  0
 59 61  1  0  0  0
 59 62  1  0  0  0
 60129  1  0  0  0
 60130  1  0  0  0
 60131  1  0  0  0
 61132  1  0  0  0
 61133  1  0  0  0
 61134  1  0  0  0
 62135  1  0  0  0
 62136  1  0  0  0
 62137  1  0  0  0
 63 65  1  0  0  0
 63138  1  0  0  0
 63139  1  0  0  0
 63140  1  0  0  0
 64141  1  0  0  0
 65142  1  0  0  0
 68 80  1  0  0  0
 71 73  2  0  0  0
 71 75  1  0  0  0
 71143  1  0  0  0
 72 73  1  0  0  0
 72 76  2  0  0  0
 72144  1  0  0  0
 73 77  1  0  0  0
 74 75  2  0  0  0
 74 76  1  0  0  0
 74 78  1  0  0  0
 75 82  1  0  0  0
 76 83  1  0  0  0
 77145  1  0  0  0
 77146  1  0  0  0
 77147  1  0  0  0
 78148  1  0  0  0
 78149  1  0  0  0
 78150  1  0  0  0
 79 80  1  0  0  0
 79 81  1  0  0  0
 79151  1  0  0  0
 79152  1  0  0  0
 80153  1  0  0  0
 80154  1  0  0  0
 81 83  1  0  0  0
 81155  1  0  0  0
 81156  1  0  0  0
 82157  1  0  0  0
M  ISO  4   1 100  68 101  80 101  82 100
M  END
> <chiral flag>
0

> <version>
0

> <s_m_source_file>
/data/baiqing/PycharmProjects/Reinvent-master-3.2/result/LINK_invent/BTK/process_docking_weight1_custom_sum_contain_oxygen_bond_distance_aromatic_linkinvent_7_9_3/rearranged_h_0006.sdf

> <i_m_source_file_index>
96

> <r_mmod_Potential_Energy-OPLS-2005>
172.545303344727

> <r_mmod_Stretch_Energy-OPLS-2005>
126.134323120117

> <r_mmod_Bend_Energy-OPLS-2005>
165.565216064453

> <r_mmod_Torsional_Energy-OPLS-2005>
243.216552734375

> <r_mmod_Improper_Torsional_Energy-OPLS-2005>
5.04245519638062

> <r_mmod_Van_der_Waal_Energy-OPLS-2005>
142.755676269531

> <r_mmod_Electrostatic_Energy-OPLS-2005>
-377.419311523438

> <r_mmod_Solvation_Energy-OPLS-2005>
-213.839614868164

> <b_mmod_Minimization_Converged-OPLS-2005>
0

> <r_mmod_RMS_Derivative-OPLS-2005>
0.99009895324707

$$$$
96
                    3D
 Structure written by MMmdl.
200208  0  0  1  0            999 V2000
  -30.7953  -14.2754   20.7669 C   0  0  0  0  0  0
  -30.4209  -12.2671   19.3806 C   0  0  0  0  0  0
  -29.4882  -12.5432   18.1898 C   0  0  0  0  0  0
  -28.0158  -12.3815   18.6060 C   0  0  0  0  0  0
  -27.6749  -13.1938   19.8803 C   0  0  2  0  0  0
  -28.7071  -12.9075   20.9928 C   0  0  0  0  0  0
  -25.2639  -13.8147   20.5650 C   0  0  0  0  0  0
  -24.1867  -13.0446   20.9171 C   0  0  0  0  0  0
  -24.6409  -11.6910   20.8746 C   0  0  0  0  0  0
  -23.9070  -10.4304   21.0415 C   0  0  0  0  0  0
  -24.3618   -9.4221   21.9177 C   0  0  0  0  0  0
  -23.6308   -8.2254   22.0746 C   0  0  0  0  0  0
  -22.4293   -8.0288   21.3537 C   0  0  0  0  0  0
  -21.9935   -9.0270   20.4652 C   0  0  0  0  0  0
  -22.7251  -10.2148   20.3066 C   0  0  0  0  0  0
  -21.6851   -6.0758   22.5296 C   0  0  0  0  0  0
  -21.4018   -6.5663   23.8231 C   0  0  0  0  0  0
  -21.3656   -5.6814   24.9185 C   0  0  0  0  0  0
  -21.6040   -4.3083   24.7241 C   0  0  0  0  0  0
  -21.8809   -3.8179   23.4367 C   0  0  0  0  0  0
  -21.9192   -4.6989   22.3425 C   0  0  0  0  0  0
  -22.7890  -13.5260   21.1871 C   0  0  0  0  0  0
  -22.1641   -4.2172   21.1004 F   0  0  0  0  0  0
  -21.5626   -3.4559   25.7745 F   0  0  0  0  0  0
  -30.0703  -13.1660   20.4845 N   0  0  0  0  0  0
  -26.3091  -12.9297   20.3374 N   0  0  0  0  0  0
  -25.9336  -11.6480   20.5794 N   0  0  0  0  0  0
  -22.0532  -12.8238   22.0422 N   0  0  0  0  0  0
  -25.4410  -15.1859   20.4011 N   0  0  0  0  0  0
  -31.6897  -14.7318   20.0485 O   0  0  0  0  0  0
  -21.6634   -6.8893   21.4251 O   0  0  0  0  0  0
  -22.3576  -14.5573   20.6746 O   0  0  0  0  0  0
  -24.6115  -31.8724   23.2188 C   0  0  0  0  0  0
  -25.9057  -32.4822   23.8408 C   0  0  1  0  0  0
  -27.2109  -27.4478   20.0751 C   0  0  0  0  0  0
  -25.5956  -33.8619   24.2349 N   0  0  0  0  0  0
  -23.3911  -30.5095   21.5601 C   0  0  2  0  0  0
  -24.8303  -28.9807   20.1087 C   0  0  0  0  0  0
  -22.7318  -29.4773   22.5005 C   0  0  0  0  0  0
  -18.0262  -28.1308   22.8514 C   0  0  0  0  0  0
  -24.1516  -36.7275   23.2630 C   0  0  0  0  0  0
  -25.9232  -30.8372   21.3756 C   0  0  0  0  0  0
  -25.9919  -29.4790   20.7119 C   0  0  0  0  0  0
  -27.1823  -28.7186   20.6964 C   0  0  0  0  0  0
  -26.0320  -26.9732   19.4570 C   0  0  0  0  0  0
  -24.8429  -27.7234   19.4857 C   0  0  0  0  0  0
  -23.5932  -29.8525   20.1676 C   0  0  0  0  0  0
  -25.4128  -36.3090   24.0333 C   0  0  1  0  0  0
  -20.5861  -28.3587   23.1208 C   0  0  2  0  0  0
  -20.6803  -26.9463   22.5030 C   0  0  0  0  0  0
  -19.5602  -26.6454   21.5001 C   0  0  0  0  0  0
  -18.1931  -26.7774   22.1796 C   0  0  0  0  0  0
  -19.1515  -28.8765   23.2877 C   0  0  0  0  0  0
  -18.9475  -30.1383   23.8879 C   0  0  0  0  0  0
  -17.6500  -30.6524   24.0587 C   0  0  0  0  0  0
  -25.9030  -34.9465   23.5116 C   0  0  0  0  0  0
  -16.5366  -29.9020   23.6387 C   0  0  0  0  0  0
  -16.7245  -28.6448   23.0377 C   0  0  0  0  0  0
  -26.4509  -31.6569   25.0715 C   0  0  0  0  0  0
  -25.3760  -31.3700   26.1446 C   0  0  0  0  0  0
  -27.0362  -30.3022   24.6084 C   0  0  0  0  0  0
  -27.6089  -32.4270   25.7446 C   0  0  0  0  0  0
  -27.5597  -37.1797   24.8465 C   0  0  0  0  0  0
  -21.4075  -29.2998   22.3620 N   0  0  0  0  0  0
  -26.4310  -37.3771   23.9398 N   0  0  0  0  0  0
  -24.6591  -31.0854   22.1091 N   0  0  0  0  0  0
  -23.4077  -28.8387   23.3123 O   0  0  0  0  0  0
  -28.3930  -26.7368   20.0664 O   0  0  0  0  0  0
  -26.5562  -34.8882   22.4660 O   0  0  0  0  0  0
  -23.5341  -32.1517   23.7609 O   0  0  0  0  0  0
  -29.3907  -16.8002   21.5072 C   0  0  0  0  0  0
  -29.3554  -15.8131   23.7436 C   0  0  0  0  0  0
  -28.4717  -17.7829   21.9308 C   0  0  0  0  0  0
  -28.4350  -16.7923   24.1641 C   0  0  0  0  0  0
  -29.8157  -15.7953   22.4102 C   0  0  0  0  0  0
  -27.9784  -17.7623   23.2497 C   0  0  0  0  0  0
  -24.4903  -22.9513   26.6315 C   0  0  0  0  0  0
  -23.8014  -22.4768   20.4762 C   0  0  0  0  0  0
  -25.4710  -23.2911   25.5002 C   0  0  0  0  0  0
  -22.6388  -21.5540   20.8632 C   0  0  0  0  0  0
  -21.3541  -22.2661   21.3565 C   0  0  0  0  0  0
  -26.0123  -22.0735   24.7181 C   0  0  0  0  0  0
  -21.4514  -22.8707   22.7721 C   0  0  0  0  0  0
  -20.0846  -22.9556   23.4915 C   0  0  0  0  0  0
  -20.0684  -23.6873   24.8528 C   0  0  0  0  0  0
  -21.2110  -23.2922   25.7937 C   0  0  0  0  0  0
  -21.2807  -24.1160   27.0966 C   0  0  0  0  0  0
  -26.5062  -24.0426   21.2168 C   0  0  0  0  0  0
  -27.9568  -24.5612   21.1548 C   0  0  0  0  0  0
  -27.1674  -21.3217   25.4044 C   0  0  0  0  0  0
  -22.5476  -23.8292   27.9296 C   0  0  0  0  0  0
  -26.3045  -22.7010   20.4833 C   0  0  0  0  0  0
  -28.3644  -25.3153   19.8707 C   0  0  0  0  0  0
  -27.9007  -20.3298   24.4808 C   0  0  0  0  0  0
  -30.6262  -14.6995   22.0251 N   0  0  0  0  0  0
  -23.7645  -23.9677   27.1216 N   0  0  0  0  0  0
  -25.0327  -22.0588   20.8076 N   0  0  0  0  0  0
  -24.3430  -21.7901   27.0172 O   0  0  0  0  0  0
  -23.5919  -23.5238   19.8651 O   0  0  0  0  0  0
  -26.1272  -19.5799   22.6171 O   0  0  0  0  0  0
  -26.0056  -18.4757   24.8948 O   0  0  0  0  0  0
  -26.8178  -19.0215   23.7961 S   0  0  0  0  0  0
  -31.4604  -12.3857   19.0770 H   0  0  0  0  0  0
  -30.3186  -11.2319   19.7126 H   0  0  0  0  0  0
  -29.7266  -11.8708   17.3638 H   0  0  0  0  0  0
  -29.6513  -13.5562   17.8240 H   0  0  0  0  0  0
  -27.8361  -11.3222   18.7880 H   0  0  0  0  0  0
  -27.3585  -12.6720   17.7854 H   0  0  0  0  0  0
  -27.7475  -14.2483   19.6177 H   0  0  0  0  0  0
  -28.6411  -11.8658   21.3076 H   0  0  0  0  0  0
  -28.4529  -13.4916   21.8772 H   0  0  0  0  0  0
  -25.2748   -9.5722   22.4751 H   0  0  0  0  0  0
  -24.0013   -7.4663   22.7496 H   0  0  0  0  0  0
  -21.0852   -8.8836   19.8977 H   0  0  0  0  0  0
  -22.3720  -10.9701   19.6207 H   0  0  0  0  0  0
  -21.2004   -7.6168   23.9747 H   0  0  0  0  0  0
  -21.1467   -6.0535   25.9084 H   0  0  0  0  0  0
  -22.0584   -2.7646   23.2869 H   0  0  0  0  0  0
  -22.4081  -11.9850   22.4763 H   0  0  0  0  0  0
  -21.1185  -13.1325   22.2657 H   0  0  0  0  0  0
  -24.6911  -15.8551   20.5298 H   0  0  0  0  0  0
  -26.3115  -15.6204   20.1183 H   0  0  0  0  0  0
  -26.7096  -32.5522   23.1132 H   0  0  0  0  0  0
  -25.0237  -33.9845   25.0571 H   0  0  0  0  0  0
  -22.6849  -31.3315   21.4314 H   0  0  0  0  0  0
  -23.3784  -35.9610   23.3321 H   0  0  0  0  0  0
  -24.3619  -36.8865   22.2036 H   0  0  0  0  0  0
  -23.7249  -37.6473   23.6639 H   0  0  0  0  0  0
  -26.0568  -31.6143   20.6198 H   0  0  0  0  0  0
  -26.8077  -30.8642   21.9999 H   0  0  0  0  0  0
  -28.0762  -29.1038   21.1696 H   0  0  0  0  0  0
  -25.9957  -26.0301   18.9364 H   0  0  0  0  0  0
  -23.9522  -27.3355   19.0094 H   0  0  0  0  0  0
  -23.6922  -30.6411   19.4199 H   0  0  0  0  0  0
  -22.7114  -29.2825   19.8671 H   0  0  0  0  0  0
  -25.1292  -36.1961   25.0827 H   0  0  0  0  0  0
  -20.9994  -28.3027   24.1289 H   0  0  0  0  0  0
  -20.5919  -26.2265   23.3080 H   0  0  0  0  0  0
  -21.6625  -26.7604   22.0680 H   0  0  0  0  0  0
  -19.6809  -25.6454   21.0851 H   0  0  0  0  0  0
  -19.6266  -27.3354   20.6588 H   0  0  0  0  0  0
  -17.3968  -26.6186   21.4511 H   0  0  0  0  0  0
  -18.0820  -25.9996   22.9395 H   0  0  0  0  0  0
  -19.7935  -30.7239   24.2224 H   0  0  0  0  0  0
  -17.5079  -31.6211   24.5187 H   0  0  0  0  0  0
  -15.5371  -30.2895   23.7823 H   0  0  0  0  0  0
  -15.8641  -28.0774   22.7066 H   0  0  0  0  0  0
  -24.5877  -30.7134   25.7768 H   0  0  0  0  0  0
  -24.9017  -32.2881   26.4908 H   0  0  0  0  0  0
  -25.8029  -30.8795   27.0203 H   0  0  0  0  0  0
  -26.2936  -29.6757   24.1137 H   0  0  0  0  0  0
  -27.4184  -29.7260   25.4532 H   0  0  0  0  0  0
  -27.8751  -30.4389   23.9249 H   0  0  0  0  0  0
  -27.2722  -33.3551   26.2076 H   0  0  0  0  0  0
  -28.3844  -32.6840   25.0219 H   0  0  0  0  0  0
  -28.0840  -31.8359   26.5300 H   0  0  0  0  0  0
  -28.2609  -38.0101   24.7495 H   0  0  0  0  0  0
  -28.1085  -36.2618   24.6297 H   0  0  0  0  0  0
  -27.2311  -37.1431   25.8869 H   0  0  0  0  0  0
  -20.9240  -29.8378   21.6582 H   0  0  0  0  0  0
  -26.0201  -38.2863   24.1342 H   0  0  0  0  0  0
  -29.7333  -16.8122   20.4819 H   0  0  0  0  0  0
  -29.6814  -15.0584   24.4463 H   0  0  0  0  0  0
  -28.1282  -18.5389   21.2422 H   0  0  0  0  0  0
  -28.0632  -16.7920   25.1782 H   0  0  0  0  0  0
  -26.2934  -23.8882   25.8885 H   0  0  0  0  0  0
  -24.9420  -23.9317   24.7915 H   0  0  0  0  0  0
  -22.9730  -20.8335   21.6122 H   0  0  0  0  0  0
  -22.3990  -20.9570   19.9823 H   0  0  0  0  0  0
  -20.5525  -21.5281   21.3366 H   0  0  0  0  0  0
  -21.0437  -23.0399   20.6518 H   0  0  0  0  0  0
  -26.3626  -22.4202   23.7511 H   0  0  0  0  0  0
  -25.1957  -21.3830   24.4972 H   0  0  0  0  0  0
  -21.9197  -23.8534   22.7105 H   0  0  0  0  0  0
  -22.1193  -22.2483   23.3704 H   0  0  0  0  0  0
  -19.7077  -21.9456   23.6431 H   0  0  0  0  0  0
  -19.3677  -23.4512   22.8363 H   0  0  0  0  0  0
  -19.1106  -23.5106   25.3421 H   0  0  0  0  0  0
  -20.1081  -24.7613   24.7010 H   0  0  0  0  0  0
  -22.1390  -23.4320   25.2485 H   0  0  0  0  0  0
  -21.1508  -22.2303   26.0322 H   0  0  0  0  0  0
  -20.3989  -23.9162   27.7090 H   0  0  0  0  0  0
  -21.2452  -25.1814   26.8615 H   0  0  0  0  0  0
  -25.8167  -24.7875   20.8327 H   0  0  0  0  0  0
  -26.2286  -23.9295   22.2624 H   0  0  0  0  0  0
  -28.6356  -23.7213   21.3005 H   0  0  0  0  0  0
  -28.1351  -25.2155   22.0094 H   0  0  0  0  0  0
  -26.7957  -20.7942   26.2859 H   0  0  0  0  0  0
  -27.8997  -22.0422   25.7735 H   0  0  0  0  0  0
  -22.4736  -22.8309   28.3646 H   0  0  0  0  0  0
  -22.5980  -24.5212   28.7732 H   0  0  0  0  0  0
  -27.0841  -22.0018   20.7874 H   0  0  0  0  0  0
  -26.4064  -22.8259   19.4042 H   0  0  0  0  0  0
  -27.8018  -24.9921   18.9934 H   0  0  0  0  0  0
  -29.3903  -25.0347   19.6375 H   0  0  0  0  0  0
  -28.6901  -19.8178   25.0284 H   0  0  0  0  0  0
  -28.3757  -20.8292   23.6380 H   0  0  0  0  0  0
  -30.5240  -13.9216   22.6597 H   0  0  0  0  0  0
  -23.9681  -24.8952   26.7685 H   0  0  0  0  0  0
  -25.1055  -21.1729   21.2958 H   0  0  0  0  0  0
  1 25  1  0  0  0
  1 30  2  0  0  0
  1 95  1  0  0  0
  2  3  1  0  0  0
  2 25  1  0  0  0
  2103  1  0  0  0
  2104  1  0  0  0
  3  4  1  0  0  0
  3105  1  0  0  0
  3106  1  0  0  0
  4  5  1  0  0  0
  4107  1  0  0  0
  4108  1  0  0  0
  5  6  1  0  0  0
  5 26  1  0  0  0
  5109  1  0  0  0
  6 25  1  0  0  0
  6110  1  0  0  0
  6111  1  0  0  0
  7  8  2  0  0  0
  7 26  1  0  0  0
  7 29  1  0  0  0
  8  9  1  0  0  0
  8 22  1  0  0  0
  9 10  1  0  0  0
  9 27  2  0  0  0
 10 11  2  0  0  0
 10 15  1  0  0  0
 11 12  1  0  0  0
 11112  1  0  0  0
 12 13  2  0  0  0
 12113  1  0  0  0
 13 14  1  0  0  0
 13 31  1  0  0  0
 14 15  2  0  0  0
 14114  1  0  0  0
 15115  1  0  0  0
 16 17  2  0  0  0
 16 21  1  0  0  0
 16 31  1  0  0  0
 17 18  1  0  0  0
 17116  1  0  0  0
 18 19  2  0  0  0
 18117  1  0  0  0
 19 20  1  0  0  0
 19 24  1  0  0  0
 20 21  2  0  0  0
 20118  1  0  0  0
 21 23  1  0  0  0
 22 28  1  0  0  0
 22 32  2  0  0  0
 26 27  1  0  0  0
 28119  1  0  0  0
 28120  1  0  0  0
 29121  1  0  0  0
 29122  1  0  0  0
 33 34  1  0  0  0
 33 66  1  0  0  0
 33 70  2  0  0  0
 34 36  1  0  0  0
 34 59  1  0  0  0
 34123  1  0  0  0
 35 44  2  0  0  0
 35 45  1  0  0  0
 35 68  1  0  0  0
 36 56  1  0  0  0
 36124  1  0  0  0
 37 39  1  0  0  0
 37 47  1  0  0  0
 37 66  1  0  0  0
 37125  1  0  0  0
 38 43  2  0  0  0
 38 46  1  0  0  0
 38 47  1  0  0  0
 39 64  1  0  0  0
 39 67  2  0  0  0
 40 52  1  0  0  0
 40 53  2  0  0  0
 40 58  1  0  0  0
 41126  1  0  0  0
 41127  1  0  0  0
 41128  1  0  0  0
 41 48  1  0  0  0
 42 43  1  0  0  0
 42 66  1  0  0  0
 42129  1  0  0  0
 42130  1  0  0  0
 43 44  1  0  0  0
 44131  1  0  0  0
 45 46  2  0  0  0
 45132  1  0  0  0
 46133  1  0  0  0
 47134  1  0  0  0
 47135  1  0  0  0
 48 56  1  0  0  0
 48 65  1  0  0  0
 48136  1  0  0  0
 49 50  1  0  0  0
 49 53  1  0  0  0
 49 64  1  0  0  0
 49137  1  0  0  0
 50 51  1  0  0  0
 50138  1  0  0  0
 50139  1  0  0  0
 51 52  1  0  0  0
 51140  1  0  0  0
 51141  1  0  0  0
 52142  1  0  0  0
 52143  1  0  0  0
 53 54  1  0  0  0
 54 55  2  0  0  0
 54144  1  0  0  0
 55 57  1  0  0  0
 55145  1  0  0  0
 56 69  2  0  0  0
 57 58  2  0  0  0
 57146  1  0  0  0
 58147  1  0  0  0
 59 60  1  0  0  0
 59 61  1  0  0  0
 59 62  1  0  0  0
 60148  1  0  0  0
 60149  1  0  0  0
 60150  1  0  0  0
 61151  1  0  0  0
 61152  1  0  0  0
 61153  1  0  0  0
 62154  1  0  0  0
 62155  1  0  0  0
 62156  1  0  0  0
 63 65  1  0  0  0
 63157  1  0  0  0
 63158  1  0  0  0
 63159  1  0  0  0
 64160  1  0  0  0
 65161  1  0  0  0
 68 93  1  0  0  0
 71 73  2  0  0  0
 71 75  1  0  0  0
 71162  1  0  0  0
 72 74  1  0  0  0
 72 75  2  0  0  0
 72163  1  0  0  0
 73 76  1  0  0  0
 73164  1  0  0  0
 74 76  2  0  0  0
 74165  1  0  0  0
 75 95  1  0  0  0
 76102  1  0  0  0
 77 79  1  0  0  0
 77 96  1  0  0  0
 77 98  2  0  0  0
 78 80  1  0  0  0
 78 97  1  0  0  0
 78 99  2  0  0  0
 79 82  1  0  0  0
 79166  1  0  0  0
 79167  1  0  0  0
 80 81  1  0  0  0
 80168  1  0  0  0
 80169  1  0  0  0
 81 83  1  0  0  0
 81170  1  0  0  0
 81171  1  0  0  0
 82 90  1  0  0  0
 82172  1  0  0  0
 82173  1  0  0  0
 83 84  1  0  0  0
 83174  1  0  0  0
 83175  1  0  0  0
 84 85  1  0  0  0
 84176  1  0  0  0
 84177  1  0  0  0
 85 86  1  0  0  0
 85178  1  0  0  0
 85179  1  0  0  0
 86 87  1  0  0  0
 86180  1  0  0  0
 86181  1  0  0  0
 87 91  1  0  0  0
 87182  1  0  0  0
 87183  1  0  0  0
 88 89  1  0  0  0
 88 92  1  0  0  0
 88184  1  0  0  0
 88185  1  0  0  0
 89 93  1  0  0  0
 89186  1  0  0  0
 89187  1  0  0  0
 90 94  1  0  0  0
 90188  1  0  0  0
 90189  1  0  0  0
 91 96  1  0  0  0
 91190  1  0  0  0
 91191  1  0  0  0
 92 97  1  0  0  0
 92192  1  0  0  0
 92193  1  0  0  0
 93194  1  0  0  0
 93195  1  0  0  0
 94196  1  0  0  0
 94197  1  0  0  0
 94102  1  0  0  0
 95198  1  0  0  0
 96199  1  0  0  0
 97200  1  0  0  0
100102  2  0  0  0
101102  2  0  0  0
M  ISO  4   1 100  68 101  93 101  95 100
M  END
> <chiral flag>
0

> <version>
0

> <s_m_source_file>
/data/baiqing/PycharmProjects/Reinvent-master-3.2/result/LINK_invent/BTK/process_docking_weight1_custom_sum_contain_oxygen_bond_distance_aromatic_linkinvent_7_9_3/rearranged_h_0006.sdf

> <i_m_source_file_index>
97

> <r_mmod_Potential_Energy-OPLS-2005>
-305.083862304688

> <r_mmod_Stretch_Energy-OPLS-2005>
35.4872550964355

> <r_mmod_Bend_Energy-OPLS-2005>
119.884910583496

> <r_mmod_Torsional_Energy-OPLS-2005>
252.571243286133

> <r_mmod_Improper_Torsional_Energy-OPLS-2005>
9.822096824646

> <r_mmod_Van_der_Waal_Energy-OPLS-2005>
117.957969665527

> <r_mmod_Electrostatic_Energy-OPLS-2005>
-561.19921875

> <r_mmod_Solvation_Energy-OPLS-2005>
-292.10986328125

> <b_mmod_Minimization_Converged-OPLS-2005>
0

> <r_mmod_RMS_Derivative-OPLS-2005>
5.79571008682251

$$$$
97
                    3D
 Structure written by MMmdl.
151159  0  0  1  0            999 V2000
  -30.5184  -14.9133   20.4488 C   0  0  0  0  0  0
  -30.4537  -12.5641   19.4961 C   0  0  0  0  0  0
  -29.5267  -12.5371   18.2565 C   0  0  0  0  0  0
  -28.0568  -12.3264   18.6694 C   0  0  0  0  0  0
  -27.6400  -13.2395   19.8514 C   0  0  2  0  0  0
  -28.6835  -13.2143   20.9904 C   0  0  0  0  0  0
  -25.2468  -13.8172   20.5628 C   0  0  0  0  0  0
  -24.1792  -13.0419   20.9214 C   0  0  0  0  0  0
  -24.6407  -11.6906   20.8765 C   0  0  0  0  0  0
  -23.9083  -10.4284   21.0418 C   0  0  0  0  0  0
  -24.3628   -9.4197   21.9194 C   0  0  0  0  0  0
  -23.6296   -8.2236   22.0758 C   0  0  0  0  0  0
  -22.4278   -8.0280   21.3546 C   0  0  0  0  0  0
  -21.9919   -9.0257   20.4650 C   0  0  0  0  0  0
  -22.7255  -10.2133   20.3064 C   0  0  0  0  0  0
  -21.6852   -6.0736   22.5279 C   0  0  0  0  0  0
  -21.4014   -6.5640   23.8213 C   0  0  0  0  0  0
  -21.3659   -5.6793   24.9175 C   0  0  0  0  0  0
  -21.6045   -4.3056   24.7225 C   0  0  0  0  0  0
  -21.8819   -3.8147   23.4347 C   0  0  0  0  0  0
  -21.9192   -4.6963   22.3402 C   0  0  0  0  0  0
  -22.7814  -13.5203   21.1870 C   0  0  0  0  0  0
  -22.1662   -4.2149   21.0979 F   0  0  0  0  0  0
  -21.5627   -3.4540   25.7738 F   0  0  0  0  0  0
  -29.9702  -13.6335   20.4127 N   0  0  0  0  0  0
  -26.2929  -12.9407   20.3270 N   0  0  0  0  0  0
  -25.9347  -11.6548   20.5776 N   0  0  0  0  0  0
  -22.0463  -12.8201   22.0434 N   0  0  0  0  0  0
  -25.4061  -15.1875   20.3876 N   0  0  0  0  0  0
  -31.6950  -15.0540   20.0961 O   0  0  0  0  0  0
  -21.6639   -6.8880   21.4242 O   0  0  0  0  0  0
  -22.3498  -14.5508   20.6714 O   0  0  0  0  0  0
  -24.6430  -31.8455   23.1896 C   0  0  0  0  0  0
  -25.9205  -32.4704   23.8283 C   0  0  1  0  0  0
  -27.2207  -27.1482   20.1460 C   0  0  0  0  0  0
  -25.5955  -33.8509   24.2199 N   0  0  0  0  0  0
  -23.4460  -30.4658   21.5353 C   0  0  2  0  0  0
  -24.8954  -28.8957   20.1121 C   0  0  0  0  0  0
  -22.7567  -29.4556   22.4865 C   0  0  0  0  0  0
  -18.0306  -28.1395   22.8477 C   0  0  0  0  0  0
  -24.1491  -36.7258   23.2641 C   0  0  0  0  0  0
  -26.0022  -30.7231   21.3870 C   0  0  0  0  0  0
  -26.0741  -29.3359   20.7276 C   0  0  0  0  0  0
  -27.2381  -28.4795   20.7258 C   0  0  0  0  0  0
  -26.0118  -26.8081   19.4964 C   0  0  0  0  0  0
  -24.8766  -27.6443   19.4819 C   0  0  0  0  0  0
  -23.6721  -29.7967   20.1545 C   0  0  0  0  0  0
  -25.4123  -36.3037   24.0316 C   0  0  1  0  0  0
  -20.5918  -28.3721   23.1235 C   0  0  2  0  0  0
  -20.6790  -26.9425   22.5401 C   0  0  0  0  0  0
  -19.5762  -26.6380   21.5211 C   0  0  0  0  0  0
  -18.1945  -26.7933   22.1625 C   0  0  0  0  0  0
  -19.1563  -28.8876   23.2848 C   0  0  0  0  0  0
  -18.9479  -30.1472   23.8874 C   0  0  0  0  0  0
  -17.6475  -30.6590   24.0559 C   0  0  0  0  0  0
  -25.9073  -34.9412   23.5065 C   0  0  0  0  0  0
  -16.5366  -29.9083   23.6336 C   0  0  0  0  0  0
  -16.7290  -28.6502   23.0356 C   0  0  0  0  0  0
  -26.4528  -31.6568   25.0720 C   0  0  0  0  0  0
  -25.3715  -31.3756   26.1417 C   0  0  0  0  0  0
  -27.0394  -30.2966   24.6296 C   0  0  0  0  0  0
  -27.6057  -32.4336   25.7507 C   0  0  0  0  0  0
  -27.5577  -37.1785   24.8465 C   0  0  0  0  0  0
  -21.4260  -29.3049   22.3611 N   0  0  0  0  0  0
  -26.4288  -37.3748   23.9409 N   0  0  0  0  0  0
  -24.7169  -31.0321   22.0925 N   0  0  0  0  0  0
  -23.4213  -28.8102   23.3012 O   0  0  0  0  0  0
  -28.2809  -26.1712   20.2041 O   0  0  0  0  0  0
  -26.5657  -34.8906   22.4643 O   0  0  0  0  0  0
  -23.5550  -32.1327   23.7121 O   0  0  0  0  0  0
  -30.3184  -18.4859   19.9208 C   0  0  0  0  0  0
  -30.0266  -19.9256   19.8717 C   0  0  0  0  0  0
  -28.2468  -19.5938   21.3713 C   0  0  0  0  0  0
  -28.5369  -18.1795   21.4468 C   0  0  0  0  0  0
  -29.5729  -17.5237   20.6995 C   0  0  0  0  0  0
  -28.9452  -20.5599   20.5850 C   0  0  0  0  0  0
  -27.6801  -17.3480   22.3878 C   0  0  0  0  0  0
  -27.9766  -24.6459   20.1466 C   0  0  0  0  0  0
  -28.9948  -23.3065   20.2617 C   0  0  0  0  0  0
  -29.6630  -15.9932   20.7657 N   0  0  0  0  0  0
  -28.4123  -21.9248   20.5748 O   0  0  0  0  0  0
  -31.4859  -12.7347   19.1864 H   0  0  0  0  0  0
  -30.4510  -11.5975   20.0023 H   0  0  0  0  0  0
  -29.8382  -11.7510   17.5675 H   0  0  0  0  0  0
  -29.6208  -13.4770   17.7103 H   0  0  0  0  0  0
  -27.9424  -11.2803   18.9560 H   0  0  0  0  0  0
  -27.3958  -12.4827   17.8161 H   0  0  0  0  0  0
  -27.6191  -14.2531   19.4504 H   0  0  0  0  0  0
  -28.7597  -12.2172   21.4265 H   0  0  0  0  0  0
  -28.3839  -13.8768   21.8040 H   0  0  0  0  0  0
  -25.2772   -9.5668   22.4773 H   0  0  0  0  0  0
  -24.0000   -7.4625   22.7477 H   0  0  0  0  0  0
  -21.0850   -8.8784   19.8955 H   0  0  0  0  0  0
  -22.3718  -10.9676   19.6176 H   0  0  0  0  0  0
  -21.2007   -7.6149   23.9716 H   0  0  0  0  0  0
  -21.1480   -6.0524   25.9079 H   0  0  0  0  0  0
  -22.0598   -2.7608   23.2848 H   0  0  0  0  0  0
  -22.4086  -11.9868   22.4827 H   0  0  0  0  0  0
  -21.1082  -13.1227   22.2642 H   0  0  0  0  0  0
  -24.6229  -15.8264   20.4705 H   0  0  0  0  0  0
  -26.2250  -15.6191   19.9796 H   0  0  0  0  0  0
  -26.7272  -32.5316   23.1014 H   0  0  0  0  0  0
  -25.0086  -33.9627   25.0335 H   0  0  0  0  0  0
  -22.7479  -31.2915   21.3819 H   0  0  0  0  0  0
  -23.3759  -35.9583   23.3292 H   0  0  0  0  0  0
  -24.3576  -36.8901   22.2058 H   0  0  0  0  0  0
  -23.7239  -37.6447   23.6686 H   0  0  0  0  0  0
  -26.1575  -31.4788   20.6158 H   0  0  0  0  0  0
  -26.8728  -30.7722   22.0294 H   0  0  0  0  0  0
  -28.1370  -28.8137   21.2247 H   0  0  0  0  0  0
  -25.9006  -25.8572   19.0008 H   0  0  0  0  0  0
  -23.9769  -27.3015   18.9893 H   0  0  0  0  0  0
  -23.8091  -30.5716   19.3995 H   0  0  0  0  0  0
  -22.7870  -29.2388   19.8433 H   0  0  0  0  0  0
  -25.1310  -36.1867   25.0808 H   0  0  0  0  0  0
  -21.0011  -28.3309   24.1356 H   0  0  0  0  0  0
  -20.5685  -26.2335   23.3620 H   0  0  0  0  0  0
  -21.6656  -26.7431   22.1199 H   0  0  0  0  0  0
  -19.6923  -25.6285   21.1255 H   0  0  0  0  0  0
  -19.6697  -27.3178   20.6730 H   0  0  0  0  0  0
  -17.4213  -26.6675   21.4031 H   0  0  0  0  0  0
  -18.0347  -26.0081   22.9028 H   0  0  0  0  0  0
  -19.7955  -30.7295   24.2232 H   0  0  0  0  0  0
  -17.5028  -31.6268   24.5164 H   0  0  0  0  0  0
  -15.5365  -30.2978   23.7671 H   0  0  0  0  0  0
  -15.8692  -28.0812   22.7084 H   0  0  0  0  0  0
  -24.5892  -30.7108   25.7736 H   0  0  0  0  0  0
  -24.8908  -32.2939   26.4799 H   0  0  0  0  0  0
  -25.7998  -30.8953   27.0223 H   0  0  0  0  0  0
  -26.3012  -29.6688   24.1293 H   0  0  0  0  0  0
  -27.4000  -29.7265   25.4869 H   0  0  0  0  0  0
  -27.8923  -30.4206   23.9620 H   0  0  0  0  0  0
  -27.2646  -33.3651   26.2038 H   0  0  0  0  0  0
  -28.3893  -32.6875   25.0355 H   0  0  0  0  0  0
  -28.0699  -31.8495   26.5463 H   0  0  0  0  0  0
  -28.2586  -38.0089   24.7516 H   0  0  0  0  0  0
  -28.1081  -36.2619   24.6289 H   0  0  0  0  0  0
  -27.2295  -37.1427   25.8868 H   0  0  0  0  0  0
  -20.9470  -29.8765   21.6792 H   0  0  0  0  0  0
  -26.0155  -38.2816   24.1415 H   0  0  0  0  0  0
  -31.1286  -18.1183   19.3072 H   0  0  0  0  0  0
  -30.6357  -20.5409   19.2249 H   0  0  0  0  0  0
  -27.4171  -19.9665   21.9553 H   0  0  0  0  0  0
  -26.9652  -17.9613   22.9370 H   0  0  0  0  0  0
  -28.3053  -16.8382   23.1216 H   0  0  0  0  0  0
  -27.1161  -16.5983   21.8387 H   0  0  0  0  0  0
  -27.2255  -24.4986   20.9233 H   0  0  0  0  0  0
  -27.4511  -24.4744   19.2093 H   0  0  0  0  0  0
  -29.7196  -23.5100   21.0500 H   0  0  0  0  0  0
  -29.5768  -23.2284   19.3433 H   0  0  0  0  0  0
  -28.8076  -15.6037   21.1294 H   0  0  0  0  0  0
  1 25  1  0  0  0
  1 30  2  0  0  0
  1 80  1  0  0  0
  2  3  1  0  0  0
  2 25  1  0  0  0
  2 82  1  0  0  0
  2 83  1  0  0  0
  3  4  1  0  0  0
  3 84  1  0  0  0
  3 85  1  0  0  0
  4  5  1  0  0  0
  4 86  1  0  0  0
  4 87  1  0  0  0
  5  6  1  0  0  0
  5 26  1  0  0  0
  5 88  1  0  0  0
  6 25  1  0  0  0
  6 89  1  0  0  0
  6 90  1  0  0  0
  7  8  2  0  0  0
  7 26  1  0  0  0
  7 29  1  0  0  0
  8  9  1  0  0  0
  8 22  1  0  0  0
  9 10  1  0  0  0
  9 27  2  0  0  0
 10 11  2  0  0  0
 10 15  1  0  0  0
 11 12  1  0  0  0
 11 91  1  0  0  0
 12 13  2  0  0  0
 12 92  1  0  0  0
 13 14  1  0  0  0
 13 31  1  0  0  0
 14 15  2  0  0  0
 14 93  1  0  0  0
 15 94  1  0  0  0
 16 17  2  0  0  0
 16 21  1  0  0  0
 16 31  1  0  0  0
 17 18  1  0  0  0
 17 95  1  0  0  0
 18 19  2  0  0  0
 18 96  1  0  0  0
 19 20  1  0  0  0
 19 24  1  0  0  0
 20 21  2  0  0  0
 20 97  1  0  0  0
 21 23  1  0  0  0
 22 28  1  0  0  0
 22 32  2  0  0  0
 26 27  1  0  0  0
 28 98  1  0  0  0
 28 99  1  0  0  0
 29100  1  0  0  0
 29101  1  0  0  0
 33 34  1  0  0  0
 33 66  1  0  0  0
 33 70  2  0  0  0
 34 36  1  0  0  0
 34 59  1  0  0  0
 34102  1  0  0  0
 35 44  2  0  0  0
 35 45  1  0  0  0
 35 68  1  0  0  0
 36 56  1  0  0  0
 36103  1  0  0  0
 37 39  1  0  0  0
 37 47  1  0  0  0
 37 66  1  0  0  0
 37104  1  0  0  0
 38 43  2  0  0  0
 38 46  1  0  0  0
 38 47  1  0  0  0
 39 64  1  0  0  0
 39 67  2  0  0  0
 40 52  1  0  0  0
 40 53  2  0  0  0
 40 58  1  0  0  0
 41105  1  0  0  0
 41106  1  0  0  0
 41107  1  0  0  0
 41 48  1  0  0  0
 42 43  1  0  0  0
 42 66  1  0  0  0
 42108  1  0  0  0
 42109  1  0  0  0
 43 44  1  0  0  0
 44110  1  0  0  0
 45 46  2  0  0  0
 45111  1  0  0  0
 46112  1  0  0  0
 47113  1  0  0  0
 47114  1  0  0  0
 48 56  1  0  0  0
 48 65  1  0  0  0
 48115  1  0  0  0
 49 50  1  0  0  0
 49 53  1  0  0  0
 49 64  1  0  0  0
 49116  1  0  0  0
 50 51  1  0  0  0
 50117  1  0  0  0
 50118  1  0  0  0
 51 52  1  0  0  0
 51119  1  0  0  0
 51120  1  0  0  0
 52121  1  0  0  0
 52122  1  0  0  0
 53 54  1  0  0  0
 54 55  2  0  0  0
 54123  1  0  0  0
 55 57  1  0  0  0
 55124  1  0  0  0
 56 69  2  0  0  0
 57 58  2  0  0  0
 57125  1  0  0  0
 58126  1  0  0  0
 59 60  1  0  0  0
 59 61  1  0  0  0
 59 62  1  0  0  0
 60127  1  0  0  0
 60128  1  0  0  0
 60129  1  0  0  0
 61130  1  0  0  0
 61131  1  0  0  0
 61132  1  0  0  0
 62133  1  0  0  0
 62134  1  0  0  0
 62135  1  0  0  0
 63 65  1  0  0  0
 63136  1  0  0  0
 63137  1  0  0  0
 63138  1  0  0  0
 64139  1  0  0  0
 65140  1  0  0  0
 68 78  1  0  0  0
 71 72  2  0  0  0
 71 75  1  0  0  0
 71141  1  0  0  0
 72 76  1  0  0  0
 72142  1  0  0  0
 73 74  1  0  0  0
 73 76  2  0  0  0
 73143  1  0  0  0
 74 75  2  0  0  0
 74 77  1  0  0  0
 75 80  1  0  0  0
 76 81  1  0  0  0
 77144  1  0  0  0
 77145  1  0  0  0
 77146  1  0  0  0
 78 79  1  0  0  0
 78147  1  0  0  0
 78148  1  0  0  0
 79 81  1  0  0  0
 79149  1  0  0  0
 79150  1  0  0  0
 80151  1  0  0  0
M  ISO  4   1 100  68 101  78 101  80 100
M  END
> <chiral flag>
0

> <version>
0

> <s_m_source_file>
/data/baiqing/PycharmProjects/Reinvent-master-3.2/result/LINK_invent/BTK/process_docking_weight1_custom_sum_contain_oxygen_bond_distance_aromatic_linkinvent_7_9_3/rearranged_h_0006.sdf

> <i_m_source_file_index>
98

> <r_mmod_Potential_Energy-OPLS-2005>
450.374176025391

> <r_mmod_Stretch_Energy-OPLS-2005>
220.072540283203

> <r_mmod_Bend_Energy-OPLS-2005>
300.924438476562

> <r_mmod_Torsional_Energy-OPLS-2005>
220.343322753906

> <r_mmod_Improper_Torsional_Energy-OPLS-2005>
3.81109833717346

> <r_mmod_Van_der_Waal_Energy-OPLS-2005>
132.919097900391

> <r_mmod_Electrostatic_Energy-OPLS-2005>
-390.617248535156

> <r_mmod_Solvation_Energy-OPLS-2005>
-211.13166809082

> <b_mmod_Minimization_Converged-OPLS-2005>
0

> <r_mmod_RMS_Derivative-OPLS-2005>
0.254078179597855

$$$$
98
                    3D
 Structure written by MMmdl.
151159  0  0  1  0            999 V2000
  -30.5209  -15.0260   20.4026 C   0  0  0  0  0  0
  -30.4388  -12.6404   19.5032 C   0  0  0  0  0  0
  -29.5229  -12.5367   18.2614 C   0  0  0  0  0  0
  -28.0596  -12.3090   18.6832 C   0  0  0  0  0  0
  -27.6237  -13.2547   19.8323 C   0  0  2  0  0  0
  -28.6657  -13.3239   20.9684 C   0  0  0  0  0  0
  -25.2438  -13.8224   20.5719 C   0  0  0  0  0  0
  -24.1767  -13.0438   20.9242 C   0  0  0  0  0  0
  -24.6395  -11.6927   20.8764 C   0  0  0  0  0  0
  -23.9082  -10.4294   21.0413 C   0  0  0  0  0  0
  -24.3629   -9.4207   21.9188 C   0  0  0  0  0  0
  -23.6300   -8.2243   22.0756 C   0  0  0  0  0  0
  -22.4282   -8.0284   21.3545 C   0  0  0  0  0  0
  -21.9922   -9.0259   20.4647 C   0  0  0  0  0  0
  -22.7255  -10.2135   20.3059 C   0  0  0  0  0  0
  -21.6855   -6.0738   22.5279 C   0  0  0  0  0  0
  -21.4014   -6.5641   23.8213 C   0  0  0  0  0  0
  -21.3660   -5.6794   24.9175 C   0  0  0  0  0  0
  -21.6043   -4.3057   24.7225 C   0  0  0  0  0  0
  -21.8818   -3.8149   23.4346 C   0  0  0  0  0  0
  -21.9192   -4.6965   22.3402 C   0  0  0  0  0  0
  -22.7786  -13.5204   21.1892 C   0  0  0  0  0  0
  -22.1662   -4.2152   21.0980 F   0  0  0  0  0  0
  -21.5628   -3.4540   25.7738 F   0  0  0  0  0  0
  -29.9294  -13.7566   20.3582 N   0  0  0  0  0  0
  -26.2862  -12.9466   20.3233 N   0  0  0  0  0  0
  -25.9328  -11.6590   20.5741 N   0  0  0  0  0  0
  -22.0439  -12.8190   22.0446 N   0  0  0  0  0  0
  -25.4079  -15.1956   20.4128 N   0  0  0  0  0  0
  -31.7341  -15.0541   20.1654 O   0  0  0  0  0  0
  -21.6643   -6.8884   21.4242 O   0  0  0  0  0  0
  -22.3469  -14.5507   20.6735 O   0  0  0  0  0  0
  -24.6490  -31.8385   23.1832 C   0  0  0  0  0  0
  -25.9237  -32.4666   23.8244 C   0  0  1  0  0  0
  -27.2162  -27.0783   20.1608 C   0  0  0  0  0  0
  -25.5961  -33.8474   24.2157 N   0  0  0  0  0  0
  -23.4558  -30.4560   21.5300 C   0  0  2  0  0  0
  -24.9060  -28.8721   20.1111 C   0  0  0  0  0  0
  -22.7597  -29.4520   22.4838 C   0  0  0  0  0  0
  -18.0311  -28.1401   22.8475 C   0  0  0  0  0  0
  -24.1492  -36.7241   23.2645 C   0  0  0  0  0  0
  -26.0160  -30.6942   21.3905 C   0  0  0  0  0  0
  -26.0862  -29.2998   20.7323 C   0  0  0  0  0  0
  -27.2414  -28.4209   20.7361 C   0  0  0  0  0  0
  -26.0078  -26.7656   19.5002 C   0  0  0  0  0  0
  -24.8831  -27.6206   19.4779 C   0  0  0  0  0  0
  -23.6859  -29.7821   20.1511 C   0  0  0  0  0  0
  -25.4128  -36.3014   24.0311 C   0  0  1  0  0  0
  -20.5927  -28.3733   23.1222 C   0  0  2  0  0  0
  -20.6793  -26.9430   22.5404 C   0  0  0  0  0  0
  -19.5765  -26.6382   21.5215 C   0  0  0  0  0  0
  -18.1947  -26.7938   22.1626 C   0  0  0  0  0  0
  -19.1569  -28.8886   23.2840 C   0  0  0  0  0  0
  -18.9482  -30.1481   23.8868 C   0  0  0  0  0  0
  -17.6477  -30.6595   24.0559 C   0  0  0  0  0  0
  -25.9082  -34.9391   23.5047 C   0  0  0  0  0  0
  -16.5368  -29.9085   23.6339 C   0  0  0  0  0  0
  -16.7295  -28.6506   23.0358 C   0  0  0  0  0  0
  -26.4537  -31.6556   25.0712 C   0  0  0  0  0  0
  -25.3703  -31.3761   26.1394 C   0  0  0  0  0  0
  -27.0415  -30.2944   24.6340 C   0  0  0  0  0  0
  -27.6052  -32.4336   25.7505 C   0  0  0  0  0  0
  -27.5574  -37.1778   24.8466 C   0  0  0  0  0  0
  -21.4283  -29.3047   22.3585 N   0  0  0  0  0  0
  -26.4285  -37.3733   23.9408 N   0  0  0  0  0  0
  -24.7272  -31.0188   22.0892 N   0  0  0  0  0  0
  -23.4212  -28.8076   23.3018 O   0  0  0  0  0  0
  -28.2537  -26.0582   20.2310 O   0  0  0  0  0  0
  -26.5676  -34.8900   22.4631 O   0  0  0  0  0  0
  -23.5594  -32.1287   23.7016 O   0  0  0  0  0  0
  -31.3891  -18.1824   20.5585 C   0  0  0  0  0  0
  -30.8573  -20.6137   20.4842 C   0  0  0  0  0  0
  -29.1054  -18.9473   20.3732 C   0  0  0  0  0  0
  -31.7880  -19.5459   20.5785 C   0  0  0  0  0  0
  -30.0407  -17.7703   20.4610 C   0  0  0  0  0  0
  -29.4666  -20.4096   20.3746 C   0  0  0  0  0  0
  -27.9638  -24.5032   20.1109 C   0  0  0  0  0  0
  -28.9798  -23.1284   20.3311 C   0  0  0  0  0  0
  -33.2703  -19.8823   20.6854 C   0  0  0  0  0  0
  -29.7381  -16.2370   20.4856 N   0  0  0  0  0  0
  -28.5852  -21.6001   20.2728 O   0  0  0  0  0  0
  -33.9568  -18.9036   21.2768 F   0  0  0  0  0  0
  -33.7672  -20.0704   19.4635 F   0  0  0  0  0  0
  -33.4543  -20.9968   21.3948 F   0  0  0  0  0  0
  -31.4694  -12.8067   19.1859 H   0  0  0  0  0  0
  -30.4484  -11.7015   20.0592 H   0  0  0  0  0  0
  -29.8562  -11.7282   17.6095 H   0  0  0  0  0  0
  -29.5967  -13.4540   17.6751 H   0  0  0  0  0  0
  -27.9707  -11.2719   19.0088 H   0  0  0  0  0  0
  -27.3940  -12.4172   17.8259 H   0  0  0  0  0  0
  -27.5730  -14.2472   19.3836 H   0  0  0  0  0  0
  -28.7741  -12.3597   21.4674 H   0  0  0  0  0  0
  -28.3524  -14.0367   21.7329 H   0  0  0  0  0  0
  -25.2771   -9.5682   22.4768 H   0  0  0  0  0  0
  -24.0006   -7.4634   22.7477 H   0  0  0  0  0  0
  -21.0854   -8.8781   19.8952 H   0  0  0  0  0  0
  -22.3715  -10.9676   19.6171 H   0  0  0  0  0  0
  -21.2008   -7.6150   23.9717 H   0  0  0  0  0  0
  -21.1482   -6.0525   25.9078 H   0  0  0  0  0  0
  -22.0597   -2.7611   23.2846 H   0  0  0  0  0  0
  -22.4066  -11.9855   22.4833 H   0  0  0  0  0  0
  -21.1052  -13.1204   22.2651 H   0  0  0  0  0  0
  -24.6329  -15.8416   20.5185 H   0  0  0  0  0  0
  -26.2405  -15.6367   20.0454 H   0  0  0  0  0  0
  -26.7305  -32.5252   23.0969 H   0  0  0  0  0  0
  -25.0075  -33.9579   25.0283 H   0  0  0  0  0  0
  -22.7613  -31.2836   21.3712 H   0  0  0  0  0  0
  -23.3761  -35.9564   23.3289 H   0  0  0  0  0  0
  -24.3575  -36.8895   22.2062 H   0  0  0  0  0  0
  -23.7240  -37.6426   23.6699 H   0  0  0  0  0  0
  -26.1793  -31.4456   20.6169 H   0  0  0  0  0  0
  -26.8831  -30.7453   22.0372 H   0  0  0  0  0  0
  -28.1393  -28.7442   21.2438 H   0  0  0  0  0  0
  -25.8959  -25.8094   19.0124 H   0  0  0  0  0  0
  -23.9833  -27.2878   18.9790 H   0  0  0  0  0  0
  -23.8283  -30.5552   19.3952 H   0  0  0  0  0  0
  -22.7991  -29.2282   19.8381 H   0  0  0  0  0  0
  -25.1318  -36.1832   25.0803 H   0  0  0  0  0  0
  -21.0020  -28.3330   24.1343 H   0  0  0  0  0  0
  -20.5687  -26.2349   23.3631 H   0  0  0  0  0  0
  -21.6658  -26.7428   22.1201 H   0  0  0  0  0  0
  -19.6925  -25.6285   21.1264 H   0  0  0  0  0  0
  -19.6701  -27.3177   20.6733 H   0  0  0  0  0  0
  -17.4216  -26.6684   21.4030 H   0  0  0  0  0  0
  -18.0343  -26.0089   22.9030 H   0  0  0  0  0  0
  -19.7957  -30.7307   24.2223 H   0  0  0  0  0  0
  -17.5028  -31.6272   24.5167 H   0  0  0  0  0  0
  -15.5367  -30.2977   23.7679 H   0  0  0  0  0  0
  -15.8696  -28.0814   22.7088 H   0  0  0  0  0  0
  -24.5897  -30.7095   25.7710 H   0  0  0  0  0  0
  -24.8877  -32.2948   26.4738 H   0  0  0  0  0  0
  -25.7970  -30.8988   27.0225 H   0  0  0  0  0  0
  -26.3052  -29.6649   24.1331 H   0  0  0  0  0  0
  -27.3989  -29.7264   25.4940 H   0  0  0  0  0  0
  -27.8975  -30.4163   23.9699 H   0  0  0  0  0  0
  -27.2636  -33.3664   26.2004 H   0  0  0  0  0  0
  -28.3906  -32.6853   25.0365 H   0  0  0  0  0  0
  -28.0675  -31.8516   26.5488 H   0  0  0  0  0  0
  -28.2580  -38.0084   24.7512 H   0  0  0  0  0  0
  -28.1081  -36.2612   24.6296 H   0  0  0  0  0  0
  -27.2291  -37.1425   25.8869 H   0  0  0  0  0  0
  -20.9507  -29.8749   21.6745 H   0  0  0  0  0  0
  -26.0146  -38.2798   24.1411 H   0  0  0  0  0  0
  -32.1672  -17.4393   20.6311 H   0  0  0  0  0  0
  -31.2464  -21.6202   20.4947 H   0  0  0  0  0  0
  -28.0514  -18.7203   20.2977 H   0  0  0  0  0  0
  -27.1151  -24.3368   20.7749 H   0  0  0  0  0  0
  -27.5594  -24.3738   19.1076 H   0  0  0  0  0  0
  -29.4508  -23.2569   21.3057 H   0  0  0  0  0  0
  -29.7920  -23.2449   19.6135 H   0  0  0  0  0  0
  -28.7547  -16.0270   20.5658 H   0  0  0  0  0  0
  1 25  1  0  0  0
  1 30  2  0  0  0
  1 80  1  0  0  0
  2  3  1  0  0  0
  2 25  1  0  0  0
  2 85  1  0  0  0
  2 86  1  0  0  0
  3  4  1  0  0  0
  3 87  1  0  0  0
  3 88  1  0  0  0
  4  5  1  0  0  0
  4 89  1  0  0  0
  4 90  1  0  0  0
  5  6  1  0  0  0
  5 26  1  0  0  0
  5 91  1  0  0  0
  6 25  1  0  0  0
  6 92  1  0  0  0
  6 93  1  0  0  0
  7  8  2  0  0  0
  7 26  1  0  0  0
  7 29  1  0  0  0
  8  9  1  0  0  0
  8 22  1  0  0  0
  9 10  1  0  0  0
  9 27  2  0  0  0
 10 11  2  0  0  0
 10 15  1  0  0  0
 11 12  1  0  0  0
 11 94  1  0  0  0
 12 13  2  0  0  0
 12 95  1  0  0  0
 13 14  1  0  0  0
 13 31  1  0  0  0
 14 15  2  0  0  0
 14 96  1  0  0  0
 15 97  1  0  0  0
 16 17  2  0  0  0
 16 21  1  0  0  0
 16 31  1  0  0  0
 17 18  1  0  0  0
 17 98  1  0  0  0
 18 19  2  0  0  0
 18 99  1  0  0  0
 19 20  1  0  0  0
 19 24  1  0  0  0
 20 21  2  0  0  0
 20100  1  0  0  0
 21 23  1  0  0  0
 22 28  1  0  0  0
 22 32  2  0  0  0
 26 27  1  0  0  0
 28101  1  0  0  0
 28102  1  0  0  0
 29103  1  0  0  0
 29104  1  0  0  0
 33 34  1  0  0  0
 33 66  1  0  0  0
 33 70  2  0  0  0
 34 36  1  0  0  0
 34 59  1  0  0  0
 34105  1  0  0  0
 35 44  2  0  0  0
 35 45  1  0  0  0
 35 68  1  0  0  0
 36 56  1  0  0  0
 36106  1  0  0  0
 37 39  1  0  0  0
 37 47  1  0  0  0
 37 66  1  0  0  0
 37107  1  0  0  0
 38 43  2  0  0  0
 38 46  1  0  0  0
 38 47  1  0  0  0
 39 64  1  0  0  0
 39 67  2  0  0  0
 40 52  1  0  0  0
 40 53  2  0  0  0
 40 58  1  0  0  0
 41108  1  0  0  0
 41109  1  0  0  0
 41110  1  0  0  0
 41 48  1  0  0  0
 42 43  1  0  0  0
 42 66  1  0  0  0
 42111  1  0  0  0
 42112  1  0  0  0
 43 44  1  0  0  0
 44113  1  0  0  0
 45 46  2  0  0  0
 45114  1  0  0  0
 46115  1  0  0  0
 47116  1  0  0  0
 47117  1  0  0  0
 48 56  1  0  0  0
 48 65  1  0  0  0
 48118  1  0  0  0
 49 50  1  0  0  0
 49 53  1  0  0  0
 49 64  1  0  0  0
 49119  1  0  0  0
 50 51  1  0  0  0
 50120  1  0  0  0
 50121  1  0  0  0
 51 52  1  0  0  0
 51122  1  0  0  0
 51123  1  0  0  0
 52124  1  0  0  0
 52125  1  0  0  0
 53 54  1  0  0  0
 54 55  2  0  0  0
 54126  1  0  0  0
 55 57  1  0  0  0
 55127  1  0  0  0
 56 69  2  0  0  0
 57 58  2  0  0  0
 57128  1  0  0  0
 58129  1  0  0  0
 59 60  1  0  0  0
 59 61  1  0  0  0
 59 62  1  0  0  0
 60130  1  0  0  0
 60131  1  0  0  0
 60132  1  0  0  0
 61133  1  0  0  0
 61134  1  0  0  0
 61135  1  0  0  0
 62136  1  0  0  0
 62137  1  0  0  0
 62138  1  0  0  0
 63 65  1  0  0  0
 63139  1  0  0  0
 63140  1  0  0  0
 63141  1  0  0  0
 64142  1  0  0  0
 65143  1  0  0  0
 68 77  1  0  0  0
 71 74  2  0  0  0
 71 75  1  0  0  0
 71144  1  0  0  0
 72 74  1  0  0  0
 72 76  2  0  0  0
 72145  1  0  0  0
 73 75  2  0  0  0
 73 76  1  0  0  0
 73146  1  0  0  0
 74 79  1  0  0  0
 75 80  1  0  0  0
 76 81  1  0  0  0
 77 78  1  0  0  0
 77147  1  0  0  0
 77148  1  0  0  0
 78 81  1  0  0  0
 78149  1  0  0  0
 78150  1  0  0  0
 79 82  1  0  0  0
 79 83  1  0  0  0
 79 84  1  0  0  0
 80151  1  0  0  0
M  ISO  4   1 100  68 101  77 101  80 100
M  END
> <chiral flag>
0

> <version>
0

> <s_m_source_file>
/data/baiqing/PycharmProjects/Reinvent-master-3.2/result/LINK_invent/BTK/process_docking_weight1_custom_sum_contain_oxygen_bond_distance_aromatic_linkinvent_7_9_3/rearranged_h_0006.sdf

> <i_m_source_file_index>
99

> <r_mmod_Potential_Energy-OPLS-2005>
648.157043457031

> <r_mmod_Stretch_Energy-OPLS-2005>
331.558990478516

> <r_mmod_Bend_Energy-OPLS-2005>
282.4345703125

> <r_mmod_Torsional_Energy-OPLS-2005>
210.221786499023

> <r_mmod_Improper_Torsional_Energy-OPLS-2005>
4.89591407775879

> <r_mmod_Van_der_Waal_Energy-OPLS-2005>
135.702835083008

> <r_mmod_Electrostatic_Energy-OPLS-2005>
-353.998443603516

> <r_mmod_Solvation_Energy-OPLS-2005>
-211.974334716797

> <b_mmod_Minimization_Converged-OPLS-2005>
0

> <r_mmod_RMS_Derivative-OPLS-2005>
0.242191195487976

$$$$
99
                    3D
 Structure written by MMmdl.
186194  0  0  1  0            999 V2000
  -30.6972  -14.3861   20.6894 C   0  0  0  0  0  0
  -30.4411  -12.3043   19.3842 C   0  0  0  0  0  0
  -29.4902  -12.5307   18.1885 C   0  0  0  0  0  0
  -28.0062  -12.4075   18.5949 C   0  0  0  0  0  0
  -27.6737  -13.1930   19.8920 C   0  0  2  0  0  0
  -28.7129  -12.8423   20.9755 C   0  0  0  0  0  0
  -25.2673  -13.8137   20.5769 C   0  0  0  0  0  0
  -24.1883  -13.0431   20.9206 C   0  0  0  0  0  0
  -24.6388  -11.6875   20.8762 C   0  0  0  0  0  0
  -23.9026  -10.4263   21.0428 C   0  0  0  0  0  0
  -24.3567   -9.4154   21.9205 C   0  0  0  0  0  0
  -23.6254   -8.2177   22.0733 C   0  0  0  0  0  0
  -22.4233   -8.0240   21.3518 C   0  0  0  0  0  0
  -21.9878   -9.0219   20.4626 C   0  0  0  0  0  0
  -22.7206  -10.2101   20.3052 C   0  0  0  0  0  0
  -21.6829   -6.0716   22.5284 C   0  0  0  0  0  0
  -21.3990   -6.5613   23.8226 C   0  0  0  0  0  0
  -21.3668   -5.6772   24.9188 C   0  0  0  0  0  0
  -21.6041   -4.3040   24.7244 C   0  0  0  0  0  0
  -21.8813   -3.8125   23.4364 C   0  0  0  0  0  0
  -21.9178   -4.6946   22.3413 C   0  0  0  0  0  0
  -22.7919  -13.5267   21.1785 C   0  0  0  0  0  0
  -22.1656   -4.2121   21.1002 F   0  0  0  0  0  0
  -21.5629   -3.4529   25.7759 F   0  0  0  0  0  0
  -30.0434  -13.2135   20.4682 N   0  0  0  0  0  0
  -26.3096  -12.9280   20.3436 N   0  0  0  0  0  0
  -25.9307  -11.6433   20.5739 N   0  0  0  0  0  0
  -22.0561  -12.8290   22.0381 N   0  0  0  0  0  0
  -25.4423  -15.1874   20.4255 N   0  0  0  0  0  0
  -31.7477  -14.6858   20.1136 O   0  0  0  0  0  0
  -21.6581   -6.8840   21.4234 O   0  0  0  0  0  0
  -22.3576  -14.5511   20.6522 O   0  0  0  0  0  0
  -24.6092  -31.8723   23.2130 C   0  0  0  0  0  0
  -25.9006  -32.4845   23.8415 C   0  0  1  0  0  0
  -27.2431  -27.4891   20.0820 C   0  0  0  0  0  0
  -25.5881  -33.8640   24.2343 N   0  0  0  0  0  0
  -23.3939  -30.4938   21.5529 C   0  0  2  0  0  0
  -24.8401  -28.9549   20.1296 C   0  0  0  0  0  0
  -22.7371  -29.4680   22.5033 C   0  0  0  0  0  0
  -18.0263  -28.1372   22.8496 C   0  0  0  0  0  0
  -24.1488  -36.7328   23.2639 C   0  0  0  0  0  0
  -25.9163  -30.8510   21.3585 C   0  0  0  0  0  0
  -25.9956  -29.4840   20.7185 C   0  0  0  0  0  0
  -27.2012  -28.7567   20.6981 C   0  0  0  0  0  0
  -26.0686  -26.9427   19.5297 C   0  0  0  0  0  0
  -24.8662  -27.6765   19.5417 C   0  0  0  0  0  0
  -23.6006  -29.8181   20.1709 C   0  0  0  0  0  0
  -25.4104  -36.3126   24.0345 C   0  0  1  0  0  0
  -20.5847  -28.3649   23.1342 C   0  0  2  0  0  0
  -20.6755  -26.9395   22.5427 C   0  0  0  0  0  0
  -19.5738  -26.6387   21.5214 C   0  0  0  0  0  0
  -18.1912  -26.7922   22.1621 C   0  0  0  0  0  0
  -19.1511  -28.8826   23.2916 C   0  0  0  0  0  0
  -18.9441  -30.1435   23.8922 C   0  0  0  0  0  0
  -17.6447  -30.6583   24.0567 C   0  0  0  0  0  0
  -25.9026  -34.9488   23.5138 C   0  0  0  0  0  0
  -16.5337  -29.9088   23.6322 C   0  0  0  0  0  0
  -16.7253  -28.6502   23.0344 C   0  0  0  0  0  0
  -26.4454  -31.6609   25.0724 C   0  0  0  0  0  0
  -25.3742  -31.3709   26.1485 C   0  0  0  0  0  0
  -27.0272  -30.3062   24.6058 C   0  0  0  0  0  0
  -27.6049  -32.4318   25.7464 C   0  0  0  0  0  0
  -27.5583  -37.1814   24.8461 C   0  0  0  0  0  0
  -21.4107  -29.3025   22.3758 N   0  0  0  0  0  0
  -26.4296  -37.3806   23.9408 N   0  0  0  0  0  0
  -24.6578  -31.0863   22.1007 N   0  0  0  0  0  0
  -23.4162  -28.8231   23.3069 O   0  0  0  0  0  0
  -28.4266  -26.8143   19.9372 O   0  0  0  0  0  0
  -26.5587  -34.8933   22.4698 O   0  0  0  0  0  0
  -23.5301  -32.1451   23.7560 O   0  0  0  0  0  0
  -30.6723  -22.0919   17.4573 C   0  0  0  0  0  0
  -31.0997  -21.3546   18.5688 C   0  0  0  0  0  0
  -28.3887  -21.9963   18.2783 C   0  0  0  0  0  0
  -29.3235  -22.4586   17.3327 C   0  0  0  0  0  0
  -30.1925  -20.9401   19.5767 C   0  0  0  0  0  0
  -28.8010  -21.2109   19.3853 C   0  0  0  0  0  0
  -29.1026  -25.7717   17.1500 C   0  0  0  0  0  0
  -27.9413  -17.0958   23.0507 C   0  0  0  0  0  0
  -32.2822  -20.2276   20.9242 C   0  0  0  0  0  0
  -30.3080  -18.7385   20.8011 C   0  0  0  0  0  0
  -30.2388  -20.8922   22.1320 C   0  0  0  0  0  0
  -28.9342  -23.4648   16.2656 C   0  0  0  0  0  0
  -30.0346  -26.5508   18.0875 C   0  0  0  0  0  0
  -28.3254  -15.6291   23.2448 C   0  0  0  0  0  0
  -26.4039  -18.8790   20.3442 C   0  0  0  0  0  0
  -29.7824  -15.2698   22.8415 C   0  0  0  0  0  0
  -26.4376  -18.6956   21.8752 C   0  0  0  0  0  0
  -29.3293  -27.5059   19.0655 C   0  0  0  0  0  0
  -26.5903  -20.3406   19.8973 C   0  0  0  0  0  0
  -30.7352  -20.2143   20.8345 C   0  0  0  0  0  0
  -29.6457  -24.7009   16.5656 N   0  0  0  0  0  0
  -26.8995  -17.3579   22.2478 N   0  0  0  0  0  0
  -30.0349  -15.3197   21.3935 N   0  0  0  0  0  0
  -27.9193  -26.0804   16.9968 O   0  0  0  0  0  0
  -28.5794  -17.9743   23.6317 O   0  0  0  0  0  0
  -27.8860  -20.7751   20.3212 O   0  0  0  0  0  0
  -31.4752  -12.4578   19.0700 H   0  0  0  0  0  0
  -30.3955  -11.2714   19.7290 H   0  0  0  0  0  0
  -29.7188  -11.8237   17.3892 H   0  0  0  0  0  0
  -29.6626  -13.5255   17.7738 H   0  0  0  0  0  0
  -27.7897  -11.3492   18.7391 H   0  0  0  0  0  0
  -27.3628  -12.7450   17.7820 H   0  0  0  0  0  0
  -27.7543  -14.2583   19.6701 H   0  0  0  0  0  0
  -28.6923  -11.7664   21.1680 H   0  0  0  0  0  0
  -28.4693  -13.2750   21.9346 H   0  0  0  0  0  0
  -25.2679   -9.5594   22.4819 H   0  0  0  0  0  0
  -23.9968   -7.4520   22.7406 H   0  0  0  0  0  0
  -21.0815   -8.8704   19.8910 H   0  0  0  0  0  0
  -22.3661  -10.9625   19.6153 H   0  0  0  0  0  0
  -21.1963   -7.6108   23.9727 H   0  0  0  0  0  0
  -21.1515   -6.0502   25.9098 H   0  0  0  0  0  0
  -22.0591   -2.7586   23.2886 H   0  0  0  0  0  0
  -22.4315  -12.0081   22.4855 H   0  0  0  0  0  0
  -21.1116  -13.1146   22.2499 H   0  0  0  0  0  0
  -24.6106  -15.7691   20.4034 H   0  0  0  0  0  0
  -26.1803  -15.5376   19.8296 H   0  0  0  0  0  0
  -26.7072  -32.5582   23.1190 H   0  0  0  0  0  0
  -25.0037  -33.9809   25.0493 H   0  0  0  0  0  0
  -22.6805  -31.3081   21.4128 H   0  0  0  0  0  0
  -23.3741  -35.9671   23.3321 H   0  0  0  0  0  0
  -24.3583  -36.8917   22.2049 H   0  0  0  0  0  0
  -23.7248  -37.6546   23.6632 H   0  0  0  0  0  0
  -26.0172  -31.6135   20.5849 H   0  0  0  0  0  0
  -26.8086  -30.9125   21.9693 H   0  0  0  0  0  0
  -28.1011  -29.1759   21.1262 H   0  0  0  0  0  0
  -26.0982  -25.9717   19.0558 H   0  0  0  0  0  0
  -23.9759  -27.2588   19.0921 H   0  0  0  0  0  0
  -23.7065  -30.5868   19.4055 H   0  0  0  0  0  0
  -22.7275  -29.2321   19.8800 H   0  0  0  0  0  0
  -25.1279  -36.2002   25.0838 H   0  0  0  0  0  0
  -20.9934  -28.3209   24.1463 H   0  0  0  0  0  0
  -20.5661  -26.2252   23.3604 H   0  0  0  0  0  0
  -21.6629  -26.7450   22.1219 H   0  0  0  0  0  0
  -19.6905  -25.6303   21.1225 H   0  0  0  0  0  0
  -19.6685  -27.3215   20.6756 H   0  0  0  0  0  0
  -17.4189  -26.6676   21.4013 H   0  0  0  0  0  0
  -18.0311  -26.0055   22.9008 H   0  0  0  0  0  0
  -19.7919  -30.7240   24.2304 H   0  0  0  0  0  0
  -17.5005  -31.6268   24.5162 H   0  0  0  0  0  0
  -15.5338  -30.3000   23.7636 H   0  0  0  0  0  0
  -15.8649  -28.0834   22.7045 H   0  0  0  0  0  0
  -24.5901  -30.7066   25.7827 H   0  0  0  0  0  0
  -24.8952  -32.2868   26.4962 H   0  0  0  0  0  0
  -25.8119  -30.8857   27.0223 H   0  0  0  0  0  0
  -26.2795  -29.6829   24.1138 H   0  0  0  0  0  0
  -27.4081  -29.7284   25.4491 H   0  0  0  0  0  0
  -27.8612  -30.4383   23.9162 H   0  0  0  0  0  0
  -27.2679  -33.3598   26.2095 H   0  0  0  0  0  0
  -28.3827  -32.6910   25.0269 H   0  0  0  0  0  0
  -28.0755  -31.8412   26.5337 H   0  0  0  0  0  0
  -28.2616  -38.0098   24.7502 H   0  0  0  0  0  0
  -28.1063  -36.2632   24.6292 H   0  0  0  0  0  0
  -27.2305  -37.1477   25.8867 H   0  0  0  0  0  0
  -20.9262  -29.8732   21.6972 H   0  0  0  0  0  0
  -26.0194  -38.2888   24.1401 H   0  0  0  0  0  0
  -31.4015  -22.4343   16.7363 H   0  0  0  0  0  0
  -32.1575  -21.1557   18.6300 H   0  0  0  0  0  0
  -27.3567  -22.3023   18.1785 H   0  0  0  0  0  0
  -32.7501  -19.6752   20.1071 H   0  0  0  0  0  0
  -32.6305  -19.7550   21.8430 H   0  0  0  0  0  0
  -32.6818  -21.2431   20.9269 H   0  0  0  0  0  0
  -30.6339  -18.2559   19.8806 H   0  0  0  0  0  0
  -29.2291  -18.6323   20.8600 H   0  0  0  0  0  0
  -30.7363  -18.1861   21.6378 H   0  0  0  0  0  0
  -30.4825  -21.9553   22.1412 H   0  0  0  0  0  0
  -30.7009  -20.4540   23.0170 H   0  0  0  0  0  0
  -29.1662  -20.7978   22.2822 H   0  0  0  0  0  0
  -27.8518  -23.6039   16.2391 H   0  0  0  0  0  0
  -29.2336  -23.0993   15.2819 H   0  0  0  0  0  0
  -30.7371  -27.1172   17.4762 H   0  0  0  0  0  0
  -30.6287  -25.8385   18.6602 H   0  0  0  0  0  0
  -27.5940  -14.9982   22.7413 H   0  0  0  0  0  0
  -28.2079  -15.4144   24.3061 H   0  0  0  0  0  0
  -25.4532  -18.5034   19.9641 H   0  0  0  0  0  0
  -27.1698  -18.2723   19.8616 H   0  0  0  0  0  0
  -30.0403  -14.2869   23.2428 H   0  0  0  0  0  0
  -30.4721  -15.9647   23.3216 H   0  0  0  0  0  0
  -25.4411  -18.8553   22.2905 H   0  0  0  0  0  0
  -27.0684  -19.4612   22.3295 H   0  0  0  0  0  0
  -28.8379  -28.2938   18.4888 H   0  0  0  0  0  0
  -30.0762  -28.0071   19.6825 H   0  0  0  0  0  0
  -25.8271  -20.9786   20.3457 H   0  0  0  0  0  0
  -26.4492  -20.3868   18.8182 H   0  0  0  0  0  0
  -30.6444  -24.5951   16.6766 H   0  0  0  0  0  0
  -26.4110  -16.5647   21.8401 H   0  0  0  0  0  0
  -30.3173  -16.2457   21.1077 H   0  0  0  0  0  0
  1 25  1  0  0  0
  1 30  2  0  0  0
  1 93  1  0  0  0
  2  3  1  0  0  0
  2 25  1  0  0  0
  2 97  1  0  0  0
  2 98  1  0  0  0
  3  4  1  0  0  0
  3 99  1  0  0  0
  3100  1  0  0  0
  4  5  1  0  0  0
  4101  1  0  0  0
  4102  1  0  0  0
  5  6  1  0  0  0
  5 26  1  0  0  0
  5103  1  0  0  0
  6 25  1  0  0  0
  6104  1  0  0  0
  6105  1  0  0  0
  7  8  2  0  0  0
  7 26  1  0  0  0
  7 29  1  0  0  0
  8  9  1  0  0  0
  8 22  1  0  0  0
  9 10  1  0  0  0
  9 27  2  0  0  0
 10 11  2  0  0  0
 10 15  1  0  0  0
 11 12  1  0  0  0
 11106  1  0  0  0
 12 13  2  0  0  0
 12107  1  0  0  0
 13 14  1  0  0  0
 13 31  1  0  0  0
 14 15  2  0  0  0
 14108  1  0  0  0
 15109  1  0  0  0
 16 17  2  0  0  0
 16 21  1  0  0  0
 16 31  1  0  0  0
 17 18  1  0  0  0
 17110  1  0  0  0
 18 19  2  0  0  0
 18111  1  0  0  0
 19 20  1  0  0  0
 19 24  1  0  0  0
 20 21  2  0  0  0
 20112  1  0  0  0
 21 23  1  0  0  0
 22 28  1  0  0  0
 22 32  2  0  0  0
 26 27  1  0  0  0
 28113  1  0  0  0
 28114  1  0  0  0
 29115  1  0  0  0
 29116  1  0  0  0
 33 34  1  0  0  0
 33 66  1  0  0  0
 33 70  2  0  0  0
 34 36  1  0  0  0
 34 59  1  0  0  0
 34117  1  0  0  0
 35 44  2  0  0  0
 35 45  1  0  0  0
 35 68  1  0  0  0
 36 56  1  0  0  0
 36118  1  0  0  0
 37 39  1  0  0  0
 37 47  1  0  0  0
 37 66  1  0  0  0
 37119  1  0  0  0
 38 43  2  0  0  0
 38 46  1  0  0  0
 38 47  1  0  0  0
 39 64  1  0  0  0
 39 67  2  0  0  0
 40 52  1  0  0  0
 40 53  2  0  0  0
 40 58  1  0  0  0
 41120  1  0  0  0
 41121  1  0  0  0
 41122  1  0  0  0
 41 48  1  0  0  0
 42 43  1  0  0  0
 42 66  1  0  0  0
 42123  1  0  0  0
 42124  1  0  0  0
 43 44  1  0  0  0
 44125  1  0  0  0
 45 46  2  0  0  0
 45126  1  0  0  0
 46127  1  0  0  0
 47128  1  0  0  0
 47129  1  0  0  0
 48 56  1  0  0  0
 48 65  1  0  0  0
 48130  1  0  0  0
 49 50  1  0  0  0
 49 53  1  0  0  0
 49 64  1  0  0  0
 49131  1  0  0  0
 50 51  1  0  0  0
 50132  1  0  0  0
 50133  1  0  0  0
 51 52  1  0  0  0
 51134  1  0  0  0
 51135  1  0  0  0
 52136  1  0  0  0
 52137  1  0  0  0
 53 54  1  0  0  0
 54 55  2  0  0  0
 54138  1  0  0  0
 55 57  1  0  0  0
 55139  1  0  0  0
 56 69  2  0  0  0
 57 58  2  0  0  0
 57140  1  0  0  0
 58141  1  0  0  0
 59 60  1  0  0  0
 59 61  1  0  0  0
 59 62  1  0  0  0
 60142  1  0  0  0
 60143  1  0  0  0
 60144  1  0  0  0
 61145  1  0  0  0
 61146  1  0  0  0
 61147  1  0  0  0
 62148  1  0  0  0
 62149  1  0  0  0
 62150  1  0  0  0
 63 65  1  0  0  0
 63151  1  0  0  0
 63152  1  0  0  0
 63153  1  0  0  0
 64154  1  0  0  0
 65155  1  0  0  0
 68 88  1  0  0  0
 71 72  2  0  0  0
 71 74  1  0  0  0
 71156  1  0  0  0
 72 75  1  0  0  0
 72157  1  0  0  0
 73 74  2  0  0  0
 73 76  1  0  0  0
 73158  1  0  0  0
 74 82  1  0  0  0
 75 76  2  0  0  0
 75 90  1  0  0  0
 76 96  1  0  0  0
 77 83  1  0  0  0
 77 91  1  0  0  0
 77 94  2  0  0  0
 78 84  1  0  0  0
 78 92  1  0  0  0
 78 95  2  0  0  0
 79159  1  0  0  0
 79160  1  0  0  0
 79161  1  0  0  0
 79 90  1  0  0  0
 80 90  1  0  0  0
 80162  1  0  0  0
 80163  1  0  0  0
 80164  1  0  0  0
 81 90  1  0  0  0
 81165  1  0  0  0
 81166  1  0  0  0
 81167  1  0  0  0
 82 91  1  0  0  0
 82168  1  0  0  0
 82169  1  0  0  0
 83 88  1  0  0  0
 83170  1  0  0  0
 83171  1  0  0  0
 84 86  1  0  0  0
 84172  1  0  0  0
 84173  1  0  0  0
 85 87  1  0  0  0
 85 89  1  0  0  0
 85174  1  0  0  0
 85175  1  0  0  0
 86 93  1  0  0  0
 86176  1  0  0  0
 86177  1  0  0  0
 87 92  1  0  0  0
 87178  1  0  0  0
 87179  1  0  0  0
 88180  1  0  0  0
 88181  1  0  0  0
 89 96  1  0  0  0
 89182  1  0  0  0
 89183  1  0  0  0
 91184  1  0  0  0
 92185  1  0  0  0
 93186  1  0  0  0
M  ISO  4   1 100  68 101  88 101  93 100
M  END
> <chiral flag>
0

> <version>
0

> <s_m_source_file>
/data/baiqing/PycharmProjects/Reinvent-master-3.2/result/LINK_invent/BTK/process_docking_weight1_custom_sum_contain_oxygen_bond_distance_aromatic_linkinvent_7_9_3/rearranged_h_0006.sdf

> <i_m_source_file_index>
100

> <r_mmod_Potential_Energy-OPLS-2005>
-122.267135620117

> <r_mmod_Stretch_Energy-OPLS-2005>
39.4318389892578

> <r_mmod_Bend_Energy-OPLS-2005>
118.02490234375

> <r_mmod_Torsional_Energy-OPLS-2005>
295.412231445312

> <r_mmod_Improper_Torsional_Energy-OPLS-2005>
14.4595594406128

> <r_mmod_Van_der_Waal_Energy-OPLS-2005>
148.156707763672

> <r_mmod_Electrostatic_Energy-OPLS-2005>
-497.239318847656

> <r_mmod_Solvation_Energy-OPLS-2005>
-250.421264648438

> <b_mmod_Minimization_Converged-OPLS-2005>
0

> <r_mmod_RMS_Derivative-OPLS-2005>
3.19307518005371

$$$$
