0
                    3D
 Structure written by MMmdl.
163171  0  0  1  0            999 V2000
  -30.6117  -14.7592   20.4653 C   0  0  0  0  0  0
  -30.4399  -12.4681   19.4610 C   0  0  0  0  0  0
  -29.5081  -12.5076   18.2294 C   0  0  0  0  0  0
  -28.0365  -12.3247   18.6489 C   0  0  0  0  0  0
  -27.6410  -13.2311   19.8432 C   0  0  2  0  0  0
  -28.6892  -13.1688   20.9760 C   0  0  0  0  0  0
  -25.2481  -13.8167   20.5671 C   0  0  0  0  0  0
  -24.1799  -13.0429   20.9207 C   0  0  0  0  0  0
  -24.6388  -11.6897   20.8741 C   0  0  0  0  0  0
  -23.9069  -10.4282   21.0398 C   0  0  0  0  0  0
  -24.3615   -9.4197   21.9178 C   0  0  0  0  0  0
  -23.6289   -8.2236   22.0756 C   0  0  0  0  0  0
  -22.4273   -8.0271   21.3545 C   0  0  0  0  0  0
  -21.9905   -9.0242   20.4644 C   0  0  0  0  0  0
  -22.7239  -10.2125   20.3046 C   0  0  0  0  0  0
  -21.6850   -6.0725   22.5271 C   0  0  0  0  0  0
  -21.4015   -6.5631   23.8209 C   0  0  0  0  0  0
  -21.3663   -5.6791   24.9172 C   0  0  0  0  0  0
  -21.6045   -4.3057   24.7232 C   0  0  0  0  0  0
  -21.8811   -3.8142   23.4351 C   0  0  0  0  0  0
  -21.9191   -4.6945   22.3404 C   0  0  0  0  0  0
  -22.7806  -13.5179   21.1883 C   0  0  0  0  0  0
  -22.1656   -4.2135   21.0981 F   0  0  0  0  0  0
  -21.5635   -3.4538   25.7743 F   0  0  0  0  0  0
  -29.9911  -13.5286   20.3923 N   0  0  0  0  0  0
  -26.2937  -12.9401   20.3239 N   0  0  0  0  0  0
  -25.9324  -11.6549   20.5728 N   0  0  0  0  0  0
  -22.0474  -12.8174   22.0443 N   0  0  0  0  0  0
  -25.4099  -15.1910   20.4054 N   0  0  0  0  0  0
  -31.8033  -14.8689   20.1675 O   0  0  0  0  0  0
  -21.6645   -6.8867   21.4235 O   0  0  0  0  0  0
  -22.3495  -14.5498   20.6728 O   0  0  0  0  0  0
  -24.6244  -31.8657   23.1986 C   0  0  0  0  0  0
  -25.9100  -32.4803   23.8318 C   0  0  1  0  0  0
  -27.2431  -27.3046   20.1071 C   0  0  0  0  0  0
  -25.5888  -33.8592   24.2258 N   0  0  0  0  0  0
  -23.4203  -30.4843   21.5458 C   0  0  2  0  0  0
  -24.8777  -28.9481   20.0985 C   0  0  0  0  0  0
  -22.7460  -29.4637   22.4928 C   0  0  0  0  0  0
  -18.0301  -28.1341   22.8521 C   0  0  0  0  0  0
  -24.1519  -36.7261   23.2645 C   0  0  0  0  0  0
  -25.9625  -30.7898   21.3794 C   0  0  0  0  0  0
  -26.0455  -29.4185   20.7115 C   0  0  0  0  0  0
  -27.2279  -28.6096   20.7068 C   0  0  0  0  0  0
  -26.0524  -26.9089   19.4505 C   0  0  0  0  0  0
  -24.8875  -27.7021   19.4519 C   0  0  0  0  0  0
  -23.6351  -29.8177   20.1608 C   0  0  0  0  0  0
  -25.4147  -36.3076   24.0327 C   0  0  1  0  0  0
  -20.5902  -28.3672   23.1279 C   0  0  2  0  0  0
  -20.6791  -26.9385   22.5410 C   0  0  0  0  0  0
  -19.5758  -26.6361   21.5214 C   0  0  0  0  0  0
  -18.1947  -26.7897   22.1643 C   0  0  0  0  0  0
  -19.1555  -28.8818   23.2913 C   0  0  0  0  0  0
  -18.9481  -30.1435   23.8914 C   0  0  0  0  0  0
  -17.6467  -30.6565   24.0548 C   0  0  0  0  0  0
  -25.9078  -34.9465   23.5105 C   0  0  0  0  0  0
  -16.5369  -29.9046   23.6326 C   0  0  0  0  0  0
  -16.7293  -28.6457   23.0367 C   0  0  0  0  0  0
  -26.4497  -31.6558   25.0654 C   0  0  0  0  0  0
  -25.3666  -31.3649   26.1311 C   0  0  0  0  0  0
  -27.0354  -30.2981   24.6094 C   0  0  0  0  0  0
  -27.6098  -32.4245   25.7374 C   0  0  0  0  0  0
  -27.5612  -37.1763   24.8453 C   0  0  0  0  0  0
  -21.4171  -29.3028   22.3638 N   0  0  0  0  0  0
  -26.4334  -37.3753   23.9389 N   0  0  0  0  0  0
  -24.6882  -31.0594   22.1001 N   0  0  0  0  0  0
  -23.4180  -28.8195   23.3030 O   0  0  0  0  0  0
  -28.3527  -26.4240   20.1791 O   0  0  0  0  0  0
  -26.5674  -34.8934   22.4687 O   0  0  0  0  0  0
  -23.5394  -32.1526   23.7261 O   0  0  0  0  0  0
  -29.6547  -21.1460   20.3870 C   0  0  0  0  0  0
  -29.1260  -19.9367   19.9193 C   0  0  0  0  0  0
  -27.8448  -20.3446   19.4047 C   0  0  0  0  0  0
  -27.7679  -21.7269   19.3605 C   0  0  0  0  0  0
  -26.7263  -22.5635   18.6679 C   0  0  0  0  0  0
  -26.7893  -19.2329   17.3818 C   0  0  0  0  0  0
  -25.3764  -19.7142   19.4648 C   0  0  0  0  0  0
  -29.7132  -18.4381   19.7420 C   0  0  0  0  0  0
  -29.1634  -23.7689   20.3297 C   0  0  0  0  0  0
  -30.0840  -17.3746   20.8986 C   0  0  0  0  0  0
  -28.1500  -24.9649   19.8936 C   0  0  0  0  0  0
  -26.7728  -19.3828   18.9109 C   0  0  0  0  0  0
  -28.8541  -22.2803   20.0446 N   0  0  0  0  0  0
  -29.8145  -15.8728   20.6867 N   0  0  0  0  0  0
  -31.4759  -12.6077   19.1505 H   0  0  0  0  0  0
  -30.4037  -11.4923   19.9485 H   0  0  0  0  0  0
  -29.7933  -11.7314   17.5175 H   0  0  0  0  0  0
  -29.6278  -13.4593   17.7106 H   0  0  0  0  0  0
  -27.9021  -11.2763   18.9200 H   0  0  0  0  0  0
  -27.3773  -12.5049   17.7992 H   0  0  0  0  0  0
  -27.6315  -14.2501   19.4560 H   0  0  0  0  0  0
  -28.7252  -12.1714   21.4178 H   0  0  0  0  0  0
  -28.4177  -13.8505   21.7845 H   0  0  0  0  0  0
  -25.2747   -9.5680   22.4762 H   0  0  0  0  0  0
  -23.9990   -7.4630   22.7473 H   0  0  0  0  0  0
  -21.0836   -8.8751   19.8948 H   0  0  0  0  0  0
  -22.3675  -10.9661   19.6164 H   0  0  0  0  0  0
  -21.2008   -7.6144   23.9698 H   0  0  0  0  0  0
  -21.1497   -6.0532   25.9074 H   0  0  0  0  0  0
  -22.0590   -2.7599   23.2859 H   0  0  0  0  0  0
  -22.4119  -11.9852   22.4848 H   0  0  0  0  0  0
  -21.1071  -13.1163   22.2633 H   0  0  0  0  0  0
  -24.6234  -15.8243   20.4965 H   0  0  0  0  0  0
  -26.2370  -15.6395   20.0380 H   0  0  0  0  0  0
  -26.7171  -32.5547   23.1072 H   0  0  0  0  0  0
  -24.9809  -33.9708   25.0243 H   0  0  0  0  0  0
  -22.7162  -31.3081   21.4047 H   0  0  0  0  0  0
  -23.3814  -35.9563   23.3290 H   0  0  0  0  0  0
  -24.3607  -36.8913   22.2062 H   0  0  0  0  0  0
  -23.7261  -37.6443   23.6702 H   0  0  0  0  0  0
  -26.0914  -31.5676   20.6252 H   0  0  0  0  0  0
  -26.8391  -30.8354   22.0125 H   0  0  0  0  0  0
  -28.1189  -28.9703   21.2051 H   0  0  0  0  0  0
  -25.9968  -25.9678   18.9277 H   0  0  0  0  0  0
  -23.9949  -27.3492   18.9532 H   0  0  0  0  0  0
  -23.7084  -30.5962   19.3995 H   0  0  0  0  0  0
  -22.7646  -29.2222   19.8840 H   0  0  0  0  0  0
  -25.1340  -36.1912   25.0824 H   0  0  0  0  0  0
  -21.0061  -28.3267   24.1372 H   0  0  0  0  0  0
  -20.5679  -26.2264   23.3617 H   0  0  0  0  0  0
  -21.6659  -26.7384   22.1213 H   0  0  0  0  0  0
  -19.6907  -25.6271   21.1232 H   0  0  0  0  0  0
  -19.6690  -27.3194   20.6765 H   0  0  0  0  0  0
  -17.4212  -26.6679   21.4043 H   0  0  0  0  0  0
  -18.0326  -26.0009   22.9005 H   0  0  0  0  0  0
  -19.7951  -30.7243   24.2285 H   0  0  0  0  0  0
  -17.5024  -31.6253   24.5118 H   0  0  0  0  0  0
  -15.5366  -30.2935   23.7633 H   0  0  0  0  0  0
  -15.8707  -28.0768   22.7059 H   0  0  0  0  0  0
  -24.5884  -30.7018   25.7497 H   0  0  0  0  0  0
  -24.8787  -32.2788   26.4706 H   0  0  0  0  0  0
  -25.7906  -30.8756   27.0082 H   0  0  0  0  0  0
  -26.2938  -29.6651   24.1213 H   0  0  0  0  0  0
  -27.4164  -29.7302   25.4584 H   0  0  0  0  0  0
  -27.8751  -30.4245   23.9262 H   0  0  0  0  0  0
  -27.2838  -33.3621   26.1876 H   0  0  0  0  0  0
  -28.3918  -32.6656   25.0154 H   0  0  0  0  0  0
  -28.0745  -31.8369   26.5293 H   0  0  0  0  0  0
  -28.2589  -38.0103   24.7584 H   0  0  0  0  0  0
  -28.1171  -36.2632   24.6229 H   0  0  0  0  0  0
  -27.2297  -37.1315   25.8845 H   0  0  0  0  0  0
  -20.9312  -29.8720   21.6851 H   0  0  0  0  0  0
  -26.0230  -38.2826   24.1406 H   0  0  0  0  0  0
  -30.5954  -21.3157   20.8981 H   0  0  0  0  0  0
  -27.1765  -23.2355   17.9398 H   0  0  0  0  0  0
  -26.1003  -23.1167   19.3675 H   0  0  0  0  0  0
  -26.0660  -21.9655   18.0480 H   0  0  0  0  0  0
  -27.7529  -18.8643   17.0308 H   0  0  0  0  0  0
  -26.6052  -20.1743   16.8660 H   0  0  0  0  0  0
  -26.0264  -18.5255   17.0574 H   0  0  0  0  0  0
  -25.4315  -19.9977   20.5184 H   0  0  0  0  0  0
  -24.7228  -18.8470   19.3871 H   0  0  0  0  0  0
  -24.8754  -20.5187   18.9340 H   0  0  0  0  0  0
  -30.6004  -18.5418   19.1147 H   0  0  0  0  0  0
  -29.0303  -17.9185   19.0757 H   0  0  0  0  0  0
  -29.2991  -23.8533   21.4084 H   0  0  0  0  0  0
  -30.1526  -23.9711   19.9120 H   0  0  0  0  0  0
  -29.5187  -17.6501   21.7882 H   0  0  0  0  0  0
  -31.1299  -17.5123   21.1760 H   0  0  0  0  0  0
  -27.2019  -24.7042   20.3584 H   0  0  0  0  0  0
  -28.0328  -24.9322   18.8128 H   0  0  0  0  0  0
  -26.9985  -18.4081   19.3370 H   0  0  0  0  0  0
  -28.8545  -15.6182   20.8581 H   0  0  0  0  0  0
  1 25  1  0  0  0
  1 30  2  0  0  0
  1 84  1  0  0  0
  2  3  1  0  0  0
  2 25  1  0  0  0
  2 85  1  0  0  0
  2 86  1  0  0  0
  3  4  1  0  0  0
  3 87  1  0  0  0
  3 88  1  0  0  0
  4  5  1  0  0  0
  4 89  1  0  0  0
  4 90  1  0  0  0
  5  6  1  0  0  0
  5 26  1  0  0  0
  5 91  1  0  0  0
  6 25  1  0  0  0
  6 92  1  0  0  0
  6 93  1  0  0  0
  7  8  2  0  0  0
  7 26  1  0  0  0
  7 29  1  0  0  0
  8  9  1  0  0  0
  8 22  1  0  0  0
  9 10  1  0  0  0
  9 27  2  0  0  0
 10 11  2  0  0  0
 10 15  1  0  0  0
 11 12  1  0  0  0
 11 94  1  0  0  0
 12 13  2  0  0  0
 12 95  1  0  0  0
 13 14  1  0  0  0
 13 31  1  0  0  0
 14 15  2  0  0  0
 14 96  1  0  0  0
 15 97  1  0  0  0
 16 17  2  0  0  0
 16 21  1  0  0  0
 16 31  1  0  0  0
 17 18  1  0  0  0
 17 98  1  0  0  0
 18 19  2  0  0  0
 18 99  1  0  0  0
 19 20  1  0  0  0
 19 24  1  0  0  0
 20 21  2  0  0  0
 20100  1  0  0  0
 21 23  1  0  0  0
 22 28  1  0  0  0
 22 32  2  0  0  0
 26 27  1  0  0  0
 28101  1  0  0  0
 28102  1  0  0  0
 29103  1  0  0  0
 29104  1  0  0  0
 33 34  1  0  0  0
 33 66  1  0  0  0
 33 70  2  0  0  0
 34 36  1  0  0  0
 34 59  1  0  0  0
 34105  1  0  0  0
 35 44  2  0  0  0
 35 45  1  0  0  0
 35 68  1  0  0  0
 36 56  1  0  0  0
 36106  1  0  0  0
 37 39  1  0  0  0
 37 47  1  0  0  0
 37 66  1  0  0  0
 37107  1  0  0  0
 38 43  2  0  0  0
 38 46  1  0  0  0
 38 47  1  0  0  0
 39 64  1  0  0  0
 39 67  2  0  0  0
 40 52  1  0  0  0
 40 53  2  0  0  0
 40 58  1  0  0  0
 41108  1  0  0  0
 41109  1  0  0  0
 41110  1  0  0  0
 41 48  1  0  0  0
 42 43  1  0  0  0
 42 66  1  0  0  0
 42111  1  0  0  0
 42112  1  0  0  0
 43 44  1  0  0  0
 44113  1  0  0  0
 45 46  2  0  0  0
 45114  1  0  0  0
 46115  1  0  0  0
 47116  1  0  0  0
 47117  1  0  0  0
 48 56  1  0  0  0
 48 65  1  0  0  0
 48118  1  0  0  0
 49 50  1  0  0  0
 49 53  1  0  0  0
 49 64  1  0  0  0
 49119  1  0  0  0
 50 51  1  0  0  0
 50120  1  0  0  0
 50121  1  0  0  0
 51 52  1  0  0  0
 51122  1  0  0  0
 51123  1  0  0  0
 52124  1  0  0  0
 52125  1  0  0  0
 53 54  1  0  0  0
 54 55  2  0  0  0
 54126  1  0  0  0
 55 57  1  0  0  0
 55127  1  0  0  0
 56 69  2  0  0  0
 57 58  2  0  0  0
 57128  1  0  0  0
 58129  1  0  0  0
 59 60  1  0  0  0
 59 61  1  0  0  0
 59 62  1  0  0  0
 60130  1  0  0  0
 60131  1  0  0  0
 60132  1  0  0  0
 61133  1  0  0  0
 61134  1  0  0  0
 61135  1  0  0  0
 62136  1  0  0  0
 62137  1  0  0  0
 62138  1  0  0  0
 63 65  1  0  0  0
 63139  1  0  0  0
 63140  1  0  0  0
 63141  1  0  0  0
 64142  1  0  0  0
 65143  1  0  0  0
 68 81  1  0  0  0
 71 72  2  0  0  0
 71 83  1  0  0  0
 71144  1  0  0  0
 72 73  1  0  0  0
 72 78  1  0  0  0
 73 74  2  0  0  0
 73 82  1  0  0  0
 74 75  1  0  0  0
 74 83  1  0  0  0
 75145  1  0  0  0
 75146  1  0  0  0
 75147  1  0  0  0
 76148  1  0  0  0
 76149  1  0  0  0
 76150  1  0  0  0
 76 82  1  0  0  0
 77 82  1  0  0  0
 77151  1  0  0  0
 77152  1  0  0  0
 77153  1  0  0  0
 78 80  1  0  0  0
 78154  1  0  0  0
 78155  1  0  0  0
 79 81  1  0  0  0
 79 83  1  0  0  0
 79156  1  0  0  0
 79157  1  0  0  0
 80 84  1  0  0  0
 80158  1  0  0  0
 80159  1  0  0  0
 81160  1  0  0  0
 81161  1  0  0  0
 82162  1  0  0  0
 84163  1  0  0  0
M  ISO  4   1 100  68 101  81 101  84 100
M  END
> <chiral flag>
0

> <version>
0

> <s_m_source_file>
/data/baiqing/PycharmProjects/Reinvent-master-3.2/result/LINK_invent/BTK/process_docking_weight1_custom_sum_contain_oxygen_bond_distance_aromatic_linkinvent_7_9_3/rearranged_h_0106.sdf

> <i_m_source_file_index>
1

> <r_mmod_Potential_Energy-OPLS-2005>
166.069412231445

> <r_mmod_Stretch_Energy-OPLS-2005>
131.535736083984

> <r_mmod_Bend_Energy-OPLS-2005>
204.176696777344

> <r_mmod_Torsional_Energy-OPLS-2005>
239.73664855957

> <r_mmod_Improper_Torsional_Energy-OPLS-2005>
5.64231634140015

> <r_mmod_Van_der_Waal_Energy-OPLS-2005>
129.511642456055

> <r_mmod_Electrostatic_Energy-OPLS-2005>
-411.123474121094

> <r_mmod_Solvation_Energy-OPLS-2005>
-212.746276855469

> <b_mmod_Minimization_Converged-OPLS-2005>
0

> <r_mmod_RMS_Derivative-OPLS-2005>
5.16145420074463

$$$$
1
                    3D
 Structure written by MMmdl.
173181  0  0  1  0            999 V2000
  -30.4402  -15.2316   20.3846 C   0  0  0  0  0  0
  -30.4456  -12.7914   19.4985 C   0  0  0  0  0  0
  -29.5305  -12.5717   18.2694 C   0  0  0  0  0  0
  -28.0817  -12.2918   18.7107 C   0  0  0  0  0  0
  -27.6131  -13.2674   19.8182 C   0  0  2  0  0  0
  -28.6555  -13.4293   20.9430 C   0  0  0  0  0  0
  -25.2399  -13.8207   20.5732 C   0  0  0  0  0  0
  -24.1756  -13.0411   20.9259 C   0  0  0  0  0  0
  -24.6405  -11.6904   20.8755 C   0  0  0  0  0  0
  -23.9090  -10.4272   21.0395 C   0  0  0  0  0  0
  -24.3625   -9.4185   21.9181 C   0  0  0  0  0  0
  -23.6286   -8.2235   22.0765 C   0  0  0  0  0  0
  -22.4268   -8.0278   21.3564 C   0  0  0  0  0  0
  -21.9900   -9.0248   20.4668 C   0  0  0  0  0  0
  -22.7245  -10.2116   20.3057 C   0  0  0  0  0  0
  -21.6857   -6.0725   22.5276 C   0  0  0  0  0  0
  -21.4022   -6.5632   23.8206 C   0  0  0  0  0  0
  -21.3650   -5.6792   24.9174 C   0  0  0  0  0  0
  -21.6041   -4.3052   24.7234 C   0  0  0  0  0  0
  -21.8809   -3.8139   23.4357 C   0  0  0  0  0  0
  -21.9190   -4.6950   22.3408 C   0  0  0  0  0  0
  -22.7773  -13.5155   21.1925 C   0  0  0  0  0  0
  -22.1658   -4.2130   21.0988 F   0  0  0  0  0  0
  -21.5621   -3.4535   25.7748 F   0  0  0  0  0  0
  -29.8836  -13.9290   20.3030 N   0  0  0  0  0  0
  -26.2832  -12.9478   20.3206 N   0  0  0  0  0  0
  -25.9339  -11.6588   20.5706 N   0  0  0  0  0  0
  -22.0455  -12.8128   22.0479 N   0  0  0  0  0  0
  -25.3999  -15.1951   20.4167 N   0  0  0  0  0  0
  -31.6704  -15.2568   20.2723 O   0  0  0  0  0  0
  -21.6643   -6.8874   21.4241 O   0  0  0  0  0  0
  -22.3447  -14.5469   20.6788 O   0  0  0  0  0  0
  -24.6591  -31.8247   23.1709 C   0  0  0  0  0  0
  -25.9279  -32.4595   23.8171 C   0  0  1  0  0  0
  -27.2388  -26.9590   20.1924 C   0  0  0  0  0  0
  -25.5962  -33.8419   24.2078 N   0  0  0  0  0  0
  -23.4734  -30.4341   21.5184 C   0  0  2  0  0  0
  -24.9290  -28.8172   20.1169 C   0  0  0  0  0  0
  -22.7649  -29.4434   22.4777 C   0  0  0  0  0  0
  -18.0313  -28.1396   22.8469 C   0  0  0  0  0  0
  -24.1484  -36.7219   23.2654 C   0  0  0  0  0  0
  -26.0391  -30.6418   21.3930 C   0  0  0  0  0  0
  -26.1081  -29.2302   20.7484 C   0  0  0  0  0  0
  -27.2537  -28.3240   20.7616 C   0  0  0  0  0  0
  -26.0295  -26.6861   19.5119 C   0  0  0  0  0  0
  -24.9122  -27.5640   19.4791 C   0  0  0  0  0  0
  -23.7128  -29.7428   20.1464 C   0  0  0  0  0  0
  -25.4118  -36.2966   24.0309 C   0  0  1  0  0  0
  -20.5931  -28.3741   23.1203 C   0  0  2  0  0  0
  -20.6785  -26.9418   22.5420 C   0  0  0  0  0  0
  -19.5767  -26.6350   21.5230 C   0  0  0  0  0  0
  -18.1936  -26.7939   22.1607 C   0  0  0  0  0  0
  -19.1573  -28.8884   23.2829 C   0  0  0  0  0  0
  -18.9501  -30.1477   23.8864 C   0  0  0  0  0  0
  -17.6498  -30.6595   24.0558 C   0  0  0  0  0  0
  -25.9090  -34.9361   23.5009 C   0  0  0  0  0  0
  -16.5384  -29.9086   23.6342 C   0  0  0  0  0  0
  -16.7298  -28.6502   23.0366 C   0  0  0  0  0  0
  -26.4540  -31.6548   25.0703 C   0  0  0  0  0  0
  -25.3685  -31.3803   26.1366 C   0  0  0  0  0  0
  -27.0434  -30.2926   24.6410 C   0  0  0  0  0  0
  -27.6045  -32.4355   25.7492 C   0  0  0  0  0  0
  -27.5554  -37.1759   24.8466 C   0  0  0  0  0  0
  -21.4313  -29.3052   22.3560 N   0  0  0  0  0  0
  -26.4252  -37.3712   23.9427 N   0  0  0  0  0  0
  -24.7459  -30.9932   22.0824 N   0  0  0  0  0  0
  -23.4223  -28.7989   23.2988 O   0  0  0  0  0  0
  -28.3158  -25.9373   20.2130 O   0  0  0  0  0  0
  -26.5700  -34.8893   22.4605 O   0  0  0  0  0  0
  -23.5676  -32.1183   23.6821 O   0  0  0  0  0  0
  -28.6484  -22.0121   21.2690 C   0  0  0  0  0  0
  -28.2931  -23.4586   21.3241 C   0  0  0  0  0  0
  -29.1490  -21.2809   20.1082 C   0  0  0  0  0  0
  -29.1830  -22.3205   19.0570 C   0  0  0  0  0  0
  -28.3586  -24.4036   20.2207 C   0  0  0  0  0  0
  -31.0636  -22.6554   17.3814 C   0  0  0  0  0  0
  -28.6832  -22.2418   16.5603 C   0  0  0  0  0  0
  -34.0140  -20.2050   18.7366 C   0  0  0  0  0  0
  -33.7711  -18.3251   20.4031 C   0  0  0  0  0  0
  -34.0078  -17.8206   17.9750 C   0  0  0  0  0  0
  -29.5366  -18.0759   20.7896 C   0  0  0  0  0  0
  -31.8548  -18.8432   18.8047 C   0  0  0  0  0  0
  -29.7186  -19.6148   19.9183 C   0  0  2  0  0  0
  -29.7162  -21.9662   17.6651 C   0  0  0  0  0  0
  -33.3989  -18.8123   18.9861 C   0  0  0  0  0  0
  -28.8506  -23.7054   19.1273 N   0  0  0  0  0  0
  -29.6225  -16.4616   20.3621 N   0  0  0  0  0  0
  -31.1916  -19.7440   19.7760 N   0  3  0  0  0  0
  -31.4615  -13.0085   19.1681 H   0  0  0  0  0  0
  -30.5173  -11.8836   20.1002 H   0  0  0  0  0  0
  -29.9049  -11.7470   17.6629 H   0  0  0  0  0  0
  -29.5512  -13.4583   17.6333 H   0  0  0  0  0  0
  -28.0464  -11.2699   19.0932 H   0  0  0  0  0  0
  -27.4059  -12.3216   17.8549 H   0  0  0  0  0  0
  -27.5299  -14.2334   19.3190 H   0  0  0  0  0  0
  -28.8237  -12.4905   21.4724 H   0  0  0  0  0  0
  -28.3070  -14.1476   21.6863 H   0  0  0  0  0  0
  -25.2762   -9.5641   22.4763 H   0  0  0  0  0  0
  -23.9978   -7.4616   22.7474 H   0  0  0  0  0  0
  -21.0832   -8.8766   19.8972 H   0  0  0  0  0  0
  -22.3702  -10.9654   19.6161 H   0  0  0  0  0  0
  -21.2019   -7.6142   23.9698 H   0  0  0  0  0  0
  -21.1480   -6.0539   25.9077 H   0  0  0  0  0  0
  -22.0592   -2.7602   23.2873 H   0  0  0  0  0  0
  -22.4089  -11.9748   22.4783 H   0  0  0  0  0  0
  -21.1093  -13.1158   22.2763 H   0  0  0  0  0  0
  -24.6210  -15.8362   20.5300 H   0  0  0  0  0  0
  -26.2266  -15.6400   20.0444 H   0  0  0  0  0  0
  -26.7359  -32.5135   23.0894 H   0  0  0  0  0  0
  -25.0098  -33.9520   25.0216 H   0  0  0  0  0  0
  -22.7881  -31.2670   21.3445 H   0  0  0  0  0  0
  -23.3757  -35.9544   23.3275 H   0  0  0  0  0  0
  -24.3556  -36.8897   22.2075 H   0  0  0  0  0  0
  -23.7222  -37.6393   23.6736 H   0  0  0  0  0  0
  -26.2059  -31.3774   20.6040 H   0  0  0  0  0  0
  -26.9062  -30.7068   22.0380 H   0  0  0  0  0  0
  -28.1538  -28.6470   21.2650 H   0  0  0  0  0  0
  -25.9331  -25.7302   19.0166 H   0  0  0  0  0  0
  -24.0191  -27.2416   18.9616 H   0  0  0  0  0  0
  -23.8648  -30.5085   19.3861 H   0  0  0  0  0  0
  -22.8254  -29.1949   19.8263 H   0  0  0  0  0  0
  -25.1308  -36.1761   25.0808 H   0  0  0  0  0  0
  -21.0050  -28.3334   24.1314 H   0  0  0  0  0  0
  -20.5674  -26.2353   23.3651 H   0  0  0  0  0  0
  -21.6639  -26.7372   22.1226 H   0  0  0  0  0  0
  -19.6933  -25.6251   21.1270 H   0  0  0  0  0  0
  -19.6724  -27.3155   20.6762 H   0  0  0  0  0  0
  -17.4225  -26.6731   21.3986 H   0  0  0  0  0  0
  -18.0284  -26.0089   22.9000 H   0  0  0  0  0  0
  -19.7994  -30.7282   24.2232 H   0  0  0  0  0  0
  -17.5063  -31.6278   24.5140 H   0  0  0  0  0  0
  -15.5393  -30.2978   23.7684 H   0  0  0  0  0  0
  -15.8691  -28.0793   22.7130 H   0  0  0  0  0  0
  -24.5947  -30.7032   25.7707 H   0  0  0  0  0  0
  -24.8771  -32.3006   26.4568 H   0  0  0  0  0  0
  -25.7933  -30.9166   27.0280 H   0  0  0  0  0  0
  -26.3098  -29.6610   24.1389 H   0  0  0  0  0  0
  -27.3965  -29.7264   25.5041 H   0  0  0  0  0  0
  -27.9023  -30.4121   23.9799 H   0  0  0  0  0  0
  -27.2643  -33.3739   26.1884 H   0  0  0  0  0  0
  -28.3944  -32.6776   25.0372 H   0  0  0  0  0  0
  -28.0614  -31.8599   26.5552 H   0  0  0  0  0  0
  -28.2544  -38.0075   24.7496 H   0  0  0  0  0  0
  -28.1056  -36.2598   24.6276 H   0  0  0  0  0  0
  -27.2286  -37.1385   25.8872 H   0  0  0  0  0  0
  -20.9546  -29.8789   21.6726 H   0  0  0  0  0  0
  -26.0092  -38.2765   24.1450 H   0  0  0  0  0  0
  -28.5611  -21.4570   22.1921 H   0  0  0  0  0  0
  -28.0057  -23.8559   22.2875 H   0  0  0  0  0  0
  -31.7704  -22.4964   18.1962 H   0  0  0  0  0  0
  -30.9471  -23.7327   17.2598 H   0  0  0  0  0  0
  -31.5202  -22.2697   16.4702 H   0  0  0  0  0  0
  -27.7328  -21.7573   16.7878 H   0  0  0  0  0  0
  -29.0269  -21.8620   15.5976 H   0  0  0  0  0  0
  -28.4925  -23.3086   16.4406 H   0  0  0  0  0  0
  -35.1034  -20.1592   18.7234 H   0  0  0  0  0  0
  -33.7377  -20.9191   19.5131 H   0  0  0  0  0  0
  -33.6981  -20.6204   17.7783 H   0  0  0  0  0  0
  -34.8489  -18.1935   20.5075 H   0  0  0  0  0  0
  -33.3139  -17.3595   20.6240 H   0  0  0  0  0  0
  -33.4601  -19.0232   21.1794 H   0  0  0  0  0  0
  -33.8366  -18.1318   16.9434 H   0  0  0  0  0  0
  -33.5901  -16.8183   18.0912 H   0  0  0  0  0  0
  -35.0893  -17.7356   18.1053 H   0  0  0  0  0  0
  -28.5059  -18.1356   21.1431 H   0  0  0  0  0  0
  -30.1132  -18.1610   21.7111 H   0  0  0  0  0  0
  -31.4676  -17.8300   18.9117 H   0  0  0  0  0  0
  -31.5927  -19.1592   17.7929 H   0  0  0  0  0  0
  -29.3078  -19.3630   18.9410 H   0  0  0  0  0  0
  -29.9059  -20.9010   17.6126 H   0  0  0  0  0  0
  -28.6804  -16.1540   20.1662 H   0  0  0  0  0  0
  -31.4194  -20.6919   19.5322 H   0  0  0  0  0  0
  -31.6055  -19.5687   20.6783 H   0  0  0  0  0  0
  1 25  1  0  0  0
  1 30  2  0  0  0
  1 87  1  0  0  0
  2  3  1  0  0  0
  2 25  1  0  0  0
  2 89  1  0  0  0
  2 90  1  0  0  0
  3  4  1  0  0  0
  3 91  1  0  0  0
  3 92  1  0  0  0
  4  5  1  0  0  0
  4 93  1  0  0  0
  4 94  1  0  0  0
  5  6  1  0  0  0
  5 26  1  0  0  0
  5 95  1  0  0  0
  6 25  1  0  0  0
  6 96  1  0  0  0
  6 97  1  0  0  0
  7  8  2  0  0  0
  7 26  1  0  0  0
  7 29  1  0  0  0
  8  9  1  0  0  0
  8 22  1  0  0  0
  9 10  1  0  0  0
  9 27  2  0  0  0
 10 11  2  0  0  0
 10 15  1  0  0  0
 11 12  1  0  0  0
 11 98  1  0  0  0
 12 13  2  0  0  0
 12 99  1  0  0  0
 13 14  1  0  0  0
 13 31  1  0  0  0
 14 15  2  0  0  0
 14100  1  0  0  0
 15101  1  0  0  0
 16 17  2  0  0  0
 16 21  1  0  0  0
 16 31  1  0  0  0
 17 18  1  0  0  0
 17102  1  0  0  0
 18 19  2  0  0  0
 18103  1  0  0  0
 19 20  1  0  0  0
 19 24  1  0  0  0
 20 21  2  0  0  0
 20104  1  0  0  0
 21 23  1  0  0  0
 22 28  1  0  0  0
 22 32  2  0  0  0
 26 27  1  0  0  0
 28105  1  0  0  0
 28106  1  0  0  0
 29107  1  0  0  0
 29108  1  0  0  0
 33 34  1  0  0  0
 33 66  1  0  0  0
 33 70  2  0  0  0
 34 36  1  0  0  0
 34 59  1  0  0  0
 34109  1  0  0  0
 35 44  2  0  0  0
 35 45  1  0  0  0
 35 68  1  0  0  0
 36 56  1  0  0  0
 36110  1  0  0  0
 37 39  1  0  0  0
 37 47  1  0  0  0
 37 66  1  0  0  0
 37111  1  0  0  0
 38 43  2  0  0  0
 38 46  1  0  0  0
 38 47  1  0  0  0
 39 64  1  0  0  0
 39 67  2  0  0  0
 40 52  1  0  0  0
 40 53  2  0  0  0
 40 58  1  0  0  0
 41112  1  0  0  0
 41113  1  0  0  0
 41114  1  0  0  0
 41 48  1  0  0  0
 42 43  1  0  0  0
 42 66  1  0  0  0
 42115  1  0  0  0
 42116  1  0  0  0
 43 44  1  0  0  0
 44117  1  0  0  0
 45 46  2  0  0  0
 45118  1  0  0  0
 46119  1  0  0  0
 47120  1  0  0  0
 47121  1  0  0  0
 48 56  1  0  0  0
 48 65  1  0  0  0
 48122  1  0  0  0
 49 50  1  0  0  0
 49 53  1  0  0  0
 49 64  1  0  0  0
 49123  1  0  0  0
 50 51  1  0  0  0
 50124  1  0  0  0
 50125  1  0  0  0
 51 52  1  0  0  0
 51126  1  0  0  0
 51127  1  0  0  0
 52128  1  0  0  0
 52129  1  0  0  0
 53 54  1  0  0  0
 54 55  2  0  0  0
 54130  1  0  0  0
 55 57  1  0  0  0
 55131  1  0  0  0
 56 69  2  0  0  0
 57 58  2  0  0  0
 57132  1  0  0  0
 58133  1  0  0  0
 59 60  1  0  0  0
 59 61  1  0  0  0
 59 62  1  0  0  0
 60134  1  0  0  0
 60135  1  0  0  0
 60136  1  0  0  0
 61137  1  0  0  0
 61138  1  0  0  0
 61139  1  0  0  0
 62140  1  0  0  0
 62141  1  0  0  0
 62142  1  0  0  0
 63 65  1  0  0  0
 63143  1  0  0  0
 63144  1  0  0  0
 63145  1  0  0  0
 64146  1  0  0  0
 65147  1  0  0  0
 68 75  1  0  0  0
 71 72  2  0  0  0
 71 73  1  0  0  0
 71148  1  0  0  0
 72 75  1  0  0  0
 72149  1  0  0  0
 73 74  2  0  0  0
 73 83  1  0  0  0
 74 84  1  0  0  0
 74 86  1  0  0  0
 75 86  2  0  0  0
 76150  1  0  0  0
 76151  1  0  0  0
 76152  1  0  0  0
 76 84  1  0  0  0
 77 84  1  0  0  0
 77153  1  0  0  0
 77154  1  0  0  0
 77155  1  0  0  0
 78156  1  0  0  0
 78157  1  0  0  0
 78158  1  0  0  0
 78 85  1  0  0  0
 79 85  1  0  0  0
 79159  1  0  0  0
 79160  1  0  0  0
 79161  1  0  0  0
 80 85  1  0  0  0
 80162  1  0  0  0
 80163  1  0  0  0
 80164  1  0  0  0
 81 87  1  0  0  0
 81165  1  0  0  0
 81166  1  0  0  0
 81 83  1  0  0  0
 82 85  1  0  0  0
 82 88  1  0  0  0
 82167  1  0  0  0
 82168  1  0  0  0
 83 88  1  0  0  0
 83169  1  0  0  0
 84170  1  0  0  0
 87171  1  0  0  0
 88172  1  0  0  0
 88173  1  0  0  0
M  CHG  1  88   1
M  ISO  4   1 100  68 101  75 101  87 100
M  END
> <chiral flag>
0

> <version>
0

> <s_m_source_file>
/data/baiqing/PycharmProjects/Reinvent-master-3.2/result/LINK_invent/BTK/process_docking_weight1_custom_sum_contain_oxygen_bond_distance_aromatic_linkinvent_7_9_3/rearranged_h_0106.sdf

> <i_m_source_file_index>
2

> <r_mmod_Potential_Energy-OPLS-2005>
828.697204589844

> <r_mmod_Stretch_Energy-OPLS-2005>
491.278961181641

> <r_mmod_Bend_Energy-OPLS-2005>
473.793792724609

> <r_mmod_Torsional_Energy-OPLS-2005>
278.172546386719

> <r_mmod_Improper_Torsional_Energy-OPLS-2005>
8.14615535736084

> <r_mmod_Van_der_Waal_Energy-OPLS-2005>
118.543060302734

> <r_mmod_Electrostatic_Energy-OPLS-2005>
-512.825988769531

> <r_mmod_Solvation_Energy-OPLS-2005>
-440.668914794922

> <b_mmod_Minimization_Converged-OPLS-2005>
0

> <r_mmod_RMS_Derivative-OPLS-2005>
3.010094165802

$$$$
2
                    3D
 Structure written by MMmdl.
157165  0  0  1  0            999 V2000
  -30.6314  -14.8264   20.4443 C   0  0  0  0  0  0
  -30.4208  -12.5170   19.4739 C   0  0  0  0  0  0
  -29.4999  -12.5055   18.2363 C   0  0  0  0  0  0
  -28.0353  -12.3043   18.6644 C   0  0  0  0  0  0
  -27.6260  -13.2342   19.8362 C   0  0  2  0  0  0
  -28.6746  -13.2544   20.9684 C   0  0  0  0  0  0
  -25.2454  -13.8183   20.5716 C   0  0  0  0  0  0
  -24.1761  -13.0424   20.9235 C   0  0  0  0  0  0
  -24.6366  -11.6906   20.8775 C   0  0  0  0  0  0
  -23.9053  -10.4285   21.0428 C   0  0  0  0  0  0
  -24.3608   -9.4200   21.9200 C   0  0  0  0  0  0
  -23.6286   -8.2234   22.0757 C   0  0  0  0  0  0
  -22.4271   -8.0276   21.3545 C   0  0  0  0  0  0
  -21.9912   -9.0246   20.4644 C   0  0  0  0  0  0
  -22.7235  -10.2128   20.3064 C   0  0  0  0  0  0
  -21.6850   -6.0734   22.5278 C   0  0  0  0  0  0
  -21.4012   -6.5639   23.8212 C   0  0  0  0  0  0
  -21.3656   -5.6791   24.9175 C   0  0  0  0  0  0
  -21.6046   -4.3055   24.7226 C   0  0  0  0  0  0
  -21.8817   -3.8147   23.4347 C   0  0  0  0  0  0
  -21.9191   -4.6964   22.3402 C   0  0  0  0  0  0
  -22.7786  -13.5209   21.1886 C   0  0  0  0  0  0
  -22.1661   -4.2149   21.0981 F   0  0  0  0  0  0
  -21.5630   -3.4540   25.7740 F   0  0  0  0  0  0
  -29.9599  -13.6176   20.3604 N   0  0  0  0  0  0
  -26.2864  -12.9388   20.3275 N   0  0  0  0  0  0
  -25.9296  -11.6534   20.5781 N   0  0  0  0  0  0
  -22.0428  -12.8192   22.0431 N   0  0  0  0  0  0
  -25.4129  -15.1902   20.4116 N   0  0  0  0  0  0
  -31.8422  -14.8288   20.2004 O   0  0  0  0  0  0
  -21.6634   -6.8874   21.4238 O   0  0  0  0  0  0
  -22.3480  -14.5522   20.6738 O   0  0  0  0  0  0
  -24.6368  -31.8503   23.1945 C   0  0  0  0  0  0
  -25.9169  -32.4727   23.8309 C   0  0  1  0  0  0
  -27.2113  -27.2033   20.1420 C   0  0  0  0  0  0
  -25.5941  -33.8530   24.2227 N   0  0  0  0  0  0
  -23.4355  -30.4727   21.5402 C   0  0  2  0  0  0
  -24.8822  -28.9117   20.1132 C   0  0  0  0  0  0
  -22.7528  -29.4578   22.4898 C   0  0  0  0  0  0
  -18.0296  -28.1387   22.8480 C   0  0  0  0  0  0
  -24.1488  -36.7268   23.2641 C   0  0  0  0  0  0
  -25.9866  -30.7462   21.3823 C   0  0  0  0  0  0
  -26.0578  -29.3627   20.7267 C   0  0  0  0  0  0
  -27.2268  -28.5240   20.7259 C   0  0  0  0  0  0
  -26.0155  -26.8442   19.4821 C   0  0  0  0  0  0
  -24.8695  -27.6629   19.4773 C   0  0  0  0  0  0
  -23.6561  -29.8059   20.1578 C   0  0  0  0  0  0
  -25.4117  -36.3050   24.0321 C   0  0  1  0  0  0
  -20.5903  -28.3703   23.1256 C   0  0  2  0  0  0
  -20.6782  -26.9416   22.5398 C   0  0  0  0  0  0
  -19.5754  -26.6388   21.5204 C   0  0  0  0  0  0
  -18.1936  -26.7929   22.1619 C   0  0  0  0  0  0
  -19.1552  -28.8864   23.2862 C   0  0  0  0  0  0
  -18.9472  -30.1465   23.8882 C   0  0  0  0  0  0
  -17.6468  -30.6586   24.0565 C   0  0  0  0  0  0
  -25.9064  -34.9422   23.5082 C   0  0  0  0  0  0
  -16.5361  -29.9078   23.6340 C   0  0  0  0  0  0
  -16.7282  -28.6500   23.0354 C   0  0  0  0  0  0
  -26.4517  -31.6568   25.0720 C   0  0  0  0  0  0
  -25.3721  -31.3719   26.1426 C   0  0  0  0  0  0
  -27.0383  -30.2983   24.6240 C   0  0  0  0  0  0
  -27.6061  -32.4325   25.7499 C   0  0  0  0  0  0
  -27.5574  -37.1794   24.8468 C   0  0  0  0  0  0
  -21.4230  -29.3047   22.3648 N   0  0  0  0  0  0
  -26.4286  -37.3755   23.9409 N   0  0  0  0  0  0
  -24.7060  -31.0420   22.0948 N   0  0  0  0  0  0
  -23.4208  -28.8116   23.3013 O   0  0  0  0  0  0
  -28.2819  -26.2601   20.1759 O   0  0  0  0  0  0
  -26.5645  -34.8908   22.4657 O   0  0  0  0  0  0
  -23.5508  -32.1350   23.7208 O   0  0  0  0  0  0
  -30.6364  -18.6018   21.2221 C   0  0  0  0  0  0
  -28.9511  -18.2494   19.5595 C   0  0  0  0  0  0
  -30.5473  -17.0725   21.6673 C   0  0  0  0  0  0
  -28.8629  -16.6904   19.9550 C   0  0  0  0  0  0
  -29.3421  -19.2985   20.6705 C   0  0  0  0  0  0
  -28.5463  -21.9441   20.4878 C   0  0  0  0  0  0
  -27.9928  -24.7871   20.4895 C   0  0  0  0  0  0
  -29.0100  -23.5119   20.2193 C   0  0  1  0  0  0
  -29.9831  -16.0531   20.7243 N   0  0  0  0  0  0
  -29.5537  -20.7880   20.2286 N   0  3  0  0  0  0
  -30.1413  -23.7044   21.0571 O   0  0  0  0  0  0
  -31.4584  -12.6387   19.1596 H   0  0  0  0  0  0
  -30.3792  -11.5603   19.9969 H   0  0  0  0  0  0
  -29.7998  -11.7155   17.5464 H   0  0  0  0  0  0
  -29.5989  -13.4449   17.6902 H   0  0  0  0  0  0
  -27.9249  -11.2620   18.9675 H   0  0  0  0  0  0
  -27.3662  -12.4450   17.8147 H   0  0  0  0  0  0
  -27.5855  -14.2321   19.4065 H   0  0  0  0  0  0
  -28.7384  -12.2851   21.4650 H   0  0  0  0  0  0
  -28.3946  -13.9801   21.7339 H   0  0  0  0  0  0
  -25.2749   -9.5680   22.4780 H   0  0  0  0  0  0
  -23.9995   -7.4627   22.7477 H   0  0  0  0  0  0
  -21.0847   -8.8765   19.8944 H   0  0  0  0  0  0
  -22.3697  -10.9670   19.6174 H   0  0  0  0  0  0
  -21.2001   -7.6146   23.9715 H   0  0  0  0  0  0
  -21.1481   -6.0524   25.9077 H   0  0  0  0  0  0
  -22.0600   -2.7610   23.2849 H   0  0  0  0  0  0
  -22.4038  -11.9842   22.4801 H   0  0  0  0  0  0
  -21.1044  -13.1217   22.2638 H   0  0  0  0  0  0
  -24.6449  -15.8433   20.5222 H   0  0  0  0  0  0
  -26.2612  -15.6281   20.0789 H   0  0  0  0  0  0
  -26.7235  -32.5358   23.1043 H   0  0  0  0  0  0
  -25.0074  -33.9660   25.0364 H   0  0  0  0  0  0
  -22.7350  -31.2973   21.3921 H   0  0  0  0  0  0
  -23.3755  -35.9595   23.3291 H   0  0  0  0  0  0
  -24.3574  -36.8905   22.2057 H   0  0  0  0  0  0
  -23.7243  -37.6463   23.6680 H   0  0  0  0  0  0
  -26.1301  -31.5014   20.6087 H   0  0  0  0  0  0
  -26.8631  -30.7982   22.0167 H   0  0  0  0  0  0
  -28.1263  -28.8655   21.2187 H   0  0  0  0  0  0
  -25.9388  -25.9048   18.9574 H   0  0  0  0  0  0
  -23.9742  -27.3179   18.9789 H   0  0  0  0  0  0
  -23.7852  -30.5822   19.4026 H   0  0  0  0  0  0
  -22.7722  -29.2436   19.8512 H   0  0  0  0  0  0
  -25.1299  -36.1886   25.0812 H   0  0  0  0  0  0
  -20.9998  -28.3278   24.1375 H   0  0  0  0  0  0
  -20.5680  -26.2309   23.3600 H   0  0  0  0  0  0
  -21.6648  -26.7423   22.1192 H   0  0  0  0  0  0
  -19.6912  -25.6300   21.1230 H   0  0  0  0  0  0
  -19.6688  -27.3206   20.6739 H   0  0  0  0  0  0
  -17.4200  -26.6681   21.4024 H   0  0  0  0  0  0
  -18.0335  -26.0068   22.9012 H   0  0  0  0  0  0
  -19.7949  -30.7292   24.2235 H   0  0  0  0  0  0
  -17.5020  -31.6263   24.5170 H   0  0  0  0  0  0
  -15.5363  -30.2973   23.7673 H   0  0  0  0  0  0
  -15.8682  -28.0818   22.7069 H   0  0  0  0  0  0
  -24.5925  -30.7035   25.7750 H   0  0  0  0  0  0
  -24.8878  -32.2881   26.4815 H   0  0  0  0  0  0
  -25.8026  -30.8929   27.0228 H   0  0  0  0  0  0
  -26.2987  -29.6713   24.1250 H   0  0  0  0  0  0
  -27.4043  -29.7262   25.4775 H   0  0  0  0  0  0
  -27.8863  -30.4252   23.9508 H   0  0  0  0  0  0
  -27.2674  -33.3653   26.2015 H   0  0  0  0  0  0
  -28.3901  -32.6838   25.0343 H   0  0  0  0  0  0
  -28.0691  -31.8486   26.5463 H   0  0  0  0  0  0
  -28.2584  -38.0097   24.7514 H   0  0  0  0  0  0
  -28.1079  -36.2629   24.6294 H   0  0  0  0  0  0
  -27.2289  -37.1436   25.8870 H   0  0  0  0  0  0
  -20.9428  -29.8770   21.6844 H   0  0  0  0  0  0
  -26.0155  -38.2822   24.1416 H   0  0  0  0  0  0
  -31.4233  -18.6822   20.4703 H   0  0  0  0  0  0
  -30.9985  -19.1762   22.0756 H   0  0  0  0  0  0
  -27.9952  -18.5457   19.1250 H   0  0  0  0  0  0
  -29.6700  -18.3359   18.7433 H   0  0  0  0  0  0
  -29.9353  -17.0199   22.5688 H   0  0  0  0  0  0
  -31.5415  -16.7546   21.9867 H   0  0  0  0  0  0
  -28.7116  -16.1247   19.0354 H   0  0  0  0  0  0
  -27.9626  -16.5426   20.5510 H   0  0  0  0  0  0
  -28.5856  -19.2892   21.4562 H   0  0  0  0  0  0
  -27.6608  -21.7405   19.8843 H   0  0  0  0  0  0
  -28.2143  -21.8588   21.5229 H   0  0  0  0  0  0
  -27.7212  -24.7653   21.5456 H   0  0  0  0  0  0
  -27.0775  -24.4983   19.9803 H   0  0  0  0  0  0
  -29.3405  -23.5777   19.1816 H   0  0  0  0  0  0
  -29.7926  -20.8035   19.2509 H   0  0  0  0  0  0
  -30.3821  -21.1004   20.7097 H   0  0  0  0  0  0
  -29.8261  -23.8967   21.9363 H   0  0  0  0  0  0
  1 25  1  0  0  0
  1 30  2  0  0  0
  1 79  1  0  0  0
  2  3  1  0  0  0
  2 25  1  0  0  0
  2 82  1  0  0  0
  2 83  1  0  0  0
  3  4  1  0  0  0
  3 84  1  0  0  0
  3 85  1  0  0  0
  4  5  1  0  0  0
  4 86  1  0  0  0
  4 87  1  0  0  0
  5  6  1  0  0  0
  5 26  1  0  0  0
  5 88  1  0  0  0
  6 25  1  0  0  0
  6 89  1  0  0  0
  6 90  1  0  0  0
  7  8  2  0  0  0
  7 26  1  0  0  0
  7 29  1  0  0  0
  8  9  1  0  0  0
  8 22  1  0  0  0
  9 10  1  0  0  0
  9 27  2  0  0  0
 10 11  2  0  0  0
 10 15  1  0  0  0
 11 12  1  0  0  0
 11 91  1  0  0  0
 12 13  2  0  0  0
 12 92  1  0  0  0
 13 14  1  0  0  0
 13 31  1  0  0  0
 14 15  2  0  0  0
 14 93  1  0  0  0
 15 94  1  0  0  0
 16 17  2  0  0  0
 16 21  1  0  0  0
 16 31  1  0  0  0
 17 18  1  0  0  0
 17 95  1  0  0  0
 18 19  2  0  0  0
 18 96  1  0  0  0
 19 20  1  0  0  0
 19 24  1  0  0  0
 20 21  2  0  0  0
 20 97  1  0  0  0
 21 23  1  0  0  0
 22 28  1  0  0  0
 22 32  2  0  0  0
 26 27  1  0  0  0
 28 98  1  0  0  0
 28 99  1  0  0  0
 29100  1  0  0  0
 29101  1  0  0  0
 33 34  1  0  0  0
 33 66  1  0  0  0
 33 70  2  0  0  0
 34 36  1  0  0  0
 34 59  1  0  0  0
 34102  1  0  0  0
 35 44  2  0  0  0
 35 45  1  0  0  0
 35 68  1  0  0  0
 36 56  1  0  0  0
 36103  1  0  0  0
 37 39  1  0  0  0
 37 47  1  0  0  0
 37 66  1  0  0  0
 37104  1  0  0  0
 38 43  2  0  0  0
 38 46  1  0  0  0
 38 47  1  0  0  0
 39 64  1  0  0  0
 39 67  2  0  0  0
 40 52  1  0  0  0
 40 53  2  0  0  0
 40 58  1  0  0  0
 41105  1  0  0  0
 41106  1  0  0  0
 41107  1  0  0  0
 41 48  1  0  0  0
 42 43  1  0  0  0
 42 66  1  0  0  0
 42108  1  0  0  0
 42109  1  0  0  0
 43 44  1  0  0  0
 44110  1  0  0  0
 45 46  2  0  0  0
 45111  1  0  0  0
 46112  1  0  0  0
 47113  1  0  0  0
 47114  1  0  0  0
 48 56  1  0  0  0
 48 65  1  0  0  0
 48115  1  0  0  0
 49 50  1  0  0  0
 49 53  1  0  0  0
 49 64  1  0  0  0
 49116  1  0  0  0
 50 51  1  0  0  0
 50117  1  0  0  0
 50118  1  0  0  0
 51 52  1  0  0  0
 51119  1  0  0  0
 51120  1  0  0  0
 52121  1  0  0  0
 52122  1  0  0  0
 53 54  1  0  0  0
 54 55  2  0  0  0
 54123  1  0  0  0
 55 57  1  0  0  0
 55124  1  0  0  0
 56 69  2  0  0  0
 57 58  2  0  0  0
 57125  1  0  0  0
 58126  1  0  0  0
 59 60  1  0  0  0
 59 61  1  0  0  0
 59 62  1  0  0  0
 60127  1  0  0  0
 60128  1  0  0  0
 60129  1  0  0  0
 61130  1  0  0  0
 61131  1  0  0  0
 61132  1  0  0  0
 62133  1  0  0  0
 62134  1  0  0  0
 62135  1  0  0  0
 63 65  1  0  0  0
 63136  1  0  0  0
 63137  1  0  0  0
 63138  1  0  0  0
 64139  1  0  0  0
 65140  1  0  0  0
 68 77  1  0  0  0
 71 73  1  0  0  0
 71 75  1  0  0  0
 71141  1  0  0  0
 71142  1  0  0  0
 72 74  1  0  0  0
 72 75  1  0  0  0
 72143  1  0  0  0
 72144  1  0  0  0
 73 79  1  0  0  0
 73145  1  0  0  0
 73146  1  0  0  0
 74 79  1  0  0  0
 74147  1  0  0  0
 74148  1  0  0  0
 75 80  1  0  0  0
 75149  1  0  0  0
 76 78  1  0  0  0
 76 80  1  0  0  0
 76150  1  0  0  0
 76151  1  0  0  0
 77 78  1  0  0  0
 77152  1  0  0  0
 77153  1  0  0  0
 78 81  1  0  0  0
 78154  1  0  0  0
 80155  1  0  0  0
 80156  1  0  0  0
 81157  1  0  0  0
M  CHG  1  80   1
M  ISO  4   1 100  68 101  77 101  79 100
M  END
> <chiral flag>
0

> <version>
0

> <s_m_source_file>
/data/baiqing/PycharmProjects/Reinvent-master-3.2/result/LINK_invent/BTK/process_docking_weight1_custom_sum_contain_oxygen_bond_distance_aromatic_linkinvent_7_9_3/rearranged_h_0106.sdf

> <i_m_source_file_index>
3

> <r_mmod_Potential_Energy-OPLS-2005>
316.897064208984

> <r_mmod_Stretch_Energy-OPLS-2005>
169.17268371582

> <r_mmod_Bend_Energy-OPLS-2005>
223.774856567383

> <r_mmod_Torsional_Energy-OPLS-2005>
358.344787597656

> <r_mmod_Improper_Torsional_Energy-OPLS-2005>
2.26651310920715

> <r_mmod_Van_der_Waal_Energy-OPLS-2005>
117.970039367676

> <r_mmod_Electrostatic_Energy-OPLS-2005>
-199.771377563477

> <r_mmod_Solvation_Energy-OPLS-2005>
-483.075408935547

> <b_mmod_Minimization_Converged-OPLS-2005>
0

> <r_mmod_RMS_Derivative-OPLS-2005>
0.699395716190338

$$$$
3
                    3D
 Structure written by MMmdl.
168175  0  0  1  0            999 V2000
  -30.7207  -14.3912   20.6465 C   0  0  0  0  0  0
  -30.4233  -12.2848   19.3998 C   0  0  0  0  0  0
  -29.4903  -12.5231   18.1961 C   0  0  0  0  0  0
  -28.0115  -12.3836   18.6080 C   0  0  0  0  0  0
  -27.6675  -13.1981   19.8840 C   0  0  2  0  0  0
  -28.7040  -12.9183   20.9938 C   0  0  0  0  0  0
  -25.2618  -13.8135   20.5691 C   0  0  0  0  0  0
  -24.1853  -13.0430   20.9188 C   0  0  0  0  0  0
  -24.6387  -11.6889   20.8740 C   0  0  0  0  0  0
  -23.9049  -10.4282   21.0412 C   0  0  0  0  0  0
  -24.3599   -9.4199   21.9189 C   0  0  0  0  0  0
  -23.6280   -8.2231   22.0757 C   0  0  0  0  0  0
  -22.4264   -8.0273   21.3545 C   0  0  0  0  0  0
  -21.9894   -9.0251   20.4654 C   0  0  0  0  0  0
  -22.7223  -10.2130   20.3070 C   0  0  0  0  0  0
  -21.6847   -6.0736   22.5284 C   0  0  0  0  0  0
  -21.4009   -6.5645   23.8218 C   0  0  0  0  0  0
  -21.3663   -5.6798   24.9180 C   0  0  0  0  0  0
  -21.6044   -4.3062   24.7226 C   0  0  0  0  0  0
  -21.8819   -3.8152   23.4348 C   0  0  0  0  0  0
  -21.9195   -4.6966   22.3407 C   0  0  0  0  0  0
  -22.7886  -13.5258   21.1850 C   0  0  0  0  0  0
  -22.1671   -4.2149   21.0985 F   0  0  0  0  0  0
  -21.5620   -3.4552   25.7739 F   0  0  0  0  0  0
  -30.0440  -13.2292   20.4589 N   0  0  0  0  0  0
  -26.3048  -12.9295   20.3389 N   0  0  0  0  0  0
  -25.9307  -11.6461   20.5757 N   0  0  0  0  0  0
  -22.0503  -12.8274   22.0402 N   0  0  0  0  0  0
  -25.4358  -15.1844   20.4097 N   0  0  0  0  0  0
  -31.7838  -14.6639   20.0799 O   0  0  0  0  0  0
  -21.6637   -6.8870   21.4241 O   0  0  0  0  0  0
  -22.3593  -14.5571   20.6699 O   0  0  0  0  0  0
  -24.6116  -31.8694   23.2100 C   0  0  0  0  0  0
  -25.9023  -32.4824   23.8388 C   0  0  1  0  0  0
  -27.2438  -27.4578   20.0906 C   0  0  0  0  0  0
  -25.5889  -33.8622   24.2325 N   0  0  0  0  0  0
  -23.3973  -30.4902   21.5512 C   0  0  2  0  0  0
  -24.8419  -28.9496   20.1230 C   0  0  0  0  0  0
  -22.7384  -29.4663   22.5022 C   0  0  0  0  0  0
  -18.0266  -28.1379   22.8495 C   0  0  0  0  0  0
  -24.1483  -36.7312   23.2638 C   0  0  0  0  0  0
  -25.9208  -30.8409   21.3568 C   0  0  0  0  0  0
  -25.9984  -29.4732   20.7123 C   0  0  0  0  0  0
  -27.1985  -28.7342   20.6908 C   0  0  0  0  0  0
  -26.0666  -26.9342   19.5082 C   0  0  0  0  0  0
  -24.8695  -27.6773   19.5228 C   0  0  0  0  0  0
  -23.6033  -29.8150   20.1684 C   0  0  0  0  0  0
  -25.4105  -36.3110   24.0340 C   0  0  1  0  0  0
  -20.5851  -28.3656   23.1340 C   0  0  2  0  0  0
  -20.6757  -26.9400   22.5425 C   0  0  0  0  0  0
  -19.5737  -26.6394   21.5215 C   0  0  0  0  0  0
  -18.1916  -26.7929   22.1627 C   0  0  0  0  0  0
  -19.1514  -28.8837   23.2913 C   0  0  0  0  0  0
  -18.9445  -30.1445   23.8918 C   0  0  0  0  0  0
  -17.6447  -30.6586   24.0573 C   0  0  0  0  0  0
  -25.9030  -34.9475   23.5131 C   0  0  0  0  0  0
  -16.5339  -29.9091   23.6324 C   0  0  0  0  0  0
  -16.7257  -28.6510   23.0344 C   0  0  0  0  0  0
  -26.4469  -31.6597   25.0706 C   0  0  0  0  0  0
  -25.3752  -31.3690   26.1466 C   0  0  0  0  0  0
  -27.0296  -30.3047   24.6053 C   0  0  0  0  0  0
  -27.6052  -32.4313   25.7465 C   0  0  0  0  0  0
  -27.5578  -37.1808   24.8469 C   0  0  0  0  0  0
  -21.4120  -29.3025   22.3749 N   0  0  0  0  0  0
  -26.4289  -37.3794   23.9408 N   0  0  0  0  0  0
  -24.6617  -31.0812   22.0987 N   0  0  0  0  0  0
  -23.4168  -28.8220   23.3065 O   0  0  0  0  0  0
  -28.4677  -26.8318   20.0271 O   0  0  0  0  0  0
  -26.5595  -34.8929   22.4690 O   0  0  0  0  0  0
  -23.5318  -32.1435   23.7514 O   0  0  0  0  0  0
  -29.7515  -19.0504   22.0130 C   0  0  0  0  0  0
  -30.0206  -23.8340   23.4427 C   0  0  0  0  0  0
  -29.7794  -25.0932   19.1780 C   0  0  0  0  0  0
  -28.7348  -17.6184   20.1341 C   0  0  0  0  0  0
  -28.1439  -17.1921   22.5379 C   0  0  0  0  0  0
  -29.1100  -22.4784   21.4979 C   0  0  0  0  0  0
  -28.8248  -25.0673   21.5964 C   0  0  0  0  0  0
  -30.1989  -21.4011   21.3093 C   0  0  0  0  0  0
  -30.4861  -16.6538   21.7088 C   0  0  0  0  0  0
  -29.7071  -23.8380   21.9337 C   0  0  1  0  0  0
  -28.5940  -25.4121   20.1028 C   0  0  1  0  0  0
  -29.2797  -17.6319   21.5858 C   0  0  0  0  0  0
  -29.6482  -20.0578   21.1329 N   0  0  0  0  0  0
  -30.1065  -15.2603   21.4571 N   0  0  0  0  0  0
  -30.2258  -19.2211   23.1392 O   0  0  0  0  0  0
  -31.4666  -12.3925   19.0974 H   0  0  0  0  0  0
  -30.3274  -11.2615   19.7657 H   0  0  0  0  0  0
  -29.7247  -11.8255   17.3909 H   0  0  0  0  0  0
  -29.6618  -13.5227   17.7947 H   0  0  0  0  0  0
  -27.8122  -11.3255   18.7792 H   0  0  0  0  0  0
  -27.3635  -12.6841   17.7836 H   0  0  0  0  0  0
  -27.7317  -14.2551   19.6246 H   0  0  0  0  0  0
  -28.6656  -11.8664   21.2800 H   0  0  0  0  0  0
  -28.4555  -13.4628   21.9049 H   0  0  0  0  0  0
  -25.2732   -9.5692   22.4775 H   0  0  0  0  0  0
  -23.9995   -7.4622   22.7472 H   0  0  0  0  0  0
  -21.0828   -8.8781   19.8948 H   0  0  0  0  0  0
  -22.3682  -10.9679   19.6196 H   0  0  0  0  0  0
  -21.1997   -7.6151   23.9735 H   0  0  0  0  0  0
  -21.1493   -6.0518   25.9088 H   0  0  0  0  0  0
  -22.0597   -2.7614   23.2849 H   0  0  0  0  0  0
  -22.4093  -11.9914   22.4766 H   0  0  0  0  0  0
  -21.1135  -13.1335   22.2625 H   0  0  0  0  0  0
  -24.6700  -15.8395   20.5174 H   0  0  0  0  0  0
  -26.2944  -15.6225   20.1032 H   0  0  0  0  0  0
  -26.7093  -32.5544   23.1154 H   0  0  0  0  0  0
  -25.0051  -33.9783   25.0479 H   0  0  0  0  0  0
  -22.6843  -31.3054   21.4104 H   0  0  0  0  0  0
  -23.3741  -35.9650   23.3321 H   0  0  0  0  0  0
  -24.3571  -36.8903   22.2048 H   0  0  0  0  0  0
  -23.7247  -37.6528   23.6636 H   0  0  0  0  0  0
  -26.0253  -31.6042   20.5842 H   0  0  0  0  0  0
  -26.8123  -30.8996   21.9702 H   0  0  0  0  0  0
  -28.0988  -29.1462   21.1252 H   0  0  0  0  0  0
  -26.0640  -25.9777   19.0081 H   0  0  0  0  0  0
  -23.9808  -27.2705   19.0600 H   0  0  0  0  0  0
  -23.7079  -30.5846   19.4025 H   0  0  0  0  0  0
  -22.7282  -29.2306   19.8786 H   0  0  0  0  0  0
  -25.1283  -36.1976   25.0836 H   0  0  0  0  0  0
  -20.9939  -28.3219   24.1463 H   0  0  0  0  0  0
  -20.5669  -26.2261   23.3604 H   0  0  0  0  0  0
  -21.6629  -26.7458   22.1213 H   0  0  0  0  0  0
  -19.6899  -25.6313   21.1224 H   0  0  0  0  0  0
  -19.6678  -27.3224   20.6761 H   0  0  0  0  0  0
  -17.4187  -26.6681   21.4027 H   0  0  0  0  0  0
  -18.0315  -26.0071   22.9022 H   0  0  0  0  0  0
  -19.7921  -30.7255   24.2298 H   0  0  0  0  0  0
  -17.5005  -31.6268   24.5172 H   0  0  0  0  0  0
  -15.5342  -30.3001   23.7638 H   0  0  0  0  0  0
  -15.8657  -28.0839   22.7043 H   0  0  0  0  0  0
  -24.5921  -30.7038   25.7807 H   0  0  0  0  0  0
  -24.8950  -32.2841   26.4943 H   0  0  0  0  0  0
  -25.8126  -30.8844   27.0204 H   0  0  0  0  0  0
  -26.2820  -29.6804   24.1144 H   0  0  0  0  0  0
  -27.4124  -29.7286   25.4487 H   0  0  0  0  0  0
  -27.8628  -30.4380   23.9146 H   0  0  0  0  0  0
  -27.2674  -33.3598   26.2082 H   0  0  0  0  0  0
  -28.3841  -32.6899   25.0277 H   0  0  0  0  0  0
  -28.0745  -31.8415   26.5349 H   0  0  0  0  0  0
  -28.2614  -38.0086   24.7502 H   0  0  0  0  0  0
  -28.1052  -36.2621   24.6312 H   0  0  0  0  0  0
  -27.2291  -37.1484   25.8870 H   0  0  0  0  0  0
  -20.9279  -29.8733   21.6964 H   0  0  0  0  0  0
  -26.0184  -38.2872   24.1410 H   0  0  0  0  0  0
  -30.6811  -23.0151   23.7248 H   0  0  0  0  0  0
  -29.1108  -23.7396   24.0369 H   0  0  0  0  0  0
  -30.5160  -24.7568   23.7472 H   0  0  0  0  0  0
  -29.9562  -24.0206   19.1026 H   0  0  0  0  0  0
  -30.6978  -25.5647   19.5292 H   0  0  0  0  0  0
  -29.5898  -25.4573   18.1675 H   0  0  0  0  0  0
  -27.8612  -18.2630   20.0242 H   0  0  0  0  0  0
  -28.4262  -16.6192   19.8306 H   0  0  0  0  0  0
  -29.4875  -17.9453   19.4155 H   0  0  0  0  0  0
  -28.5042  -17.0703   23.5601 H   0  0  0  0  0  0
  -27.6975  -16.2447   22.2367 H   0  0  0  0  0  0
  -27.3396  -17.9284   22.5623 H   0  0  0  0  0  0
  -28.3739  -22.1497   22.2327 H   0  0  0  0  0  0
  -28.5670  -22.5867   20.5586 H   0  0  0  0  0  0
  -29.3048  -25.9335   22.0555 H   0  0  0  0  0  0
  -27.8577  -24.9817   22.0942 H   0  0  0  0  0  0
  -30.9022  -21.4171   22.1422 H   0  0  0  0  0  0
  -30.7930  -21.6399   20.4264 H   0  0  0  0  0  0
  -30.9147  -16.6984   22.7117 H   0  0  0  0  0  0
  -31.2822  -16.9700   21.0313 H   0  0  0  0  0  0
  -30.6612  -23.9717   21.4216 H   0  0  0  0  0  0
  -27.7241  -24.8734   19.7311 H   0  0  0  0  0  0
  -29.2346  -19.8359   20.2368 H   0  0  0  0  0  0
  -29.2528  -14.9375   21.8861 H   0  0  0  0  0  0
  1 25  1  0  0  0
  1 30  2  0  0  0
  1 84  1  0  0  0
  2  3  1  0  0  0
  2 25  1  0  0  0
  2 86  1  0  0  0
  2 87  1  0  0  0
  3  4  1  0  0  0
  3 88  1  0  0  0
  3 89  1  0  0  0
  4  5  1  0  0  0
  4 90  1  0  0  0
  4 91  1  0  0  0
  5  6  1  0  0  0
  5 26  1  0  0  0
  5 92  1  0  0  0
  6 25  1  0  0  0
  6 93  1  0  0  0
  6 94  1  0  0  0
  7  8  2  0  0  0
  7 26  1  0  0  0
  7 29  1  0  0  0
  8  9  1  0  0  0
  8 22  1  0  0  0
  9 10  1  0  0  0
  9 27  2  0  0  0
 10 11  2  0  0  0
 10 15  1  0  0  0
 11 12  1  0  0  0
 11 95  1  0  0  0
 12 13  2  0  0  0
 12 96  1  0  0  0
 13 14  1  0  0  0
 13 31  1  0  0  0
 14 15  2  0  0  0
 14 97  1  0  0  0
 15 98  1  0  0  0
 16 17  2  0  0  0
 16 21  1  0  0  0
 16 31  1  0  0  0
 17 18  1  0  0  0
 17 99  1  0  0  0
 18 19  2  0  0  0
 18100  1  0  0  0
 19 20  1  0  0  0
 19 24  1  0  0  0
 20 21  2  0  0  0
 20101  1  0  0  0
 21 23  1  0  0  0
 22 28  1  0  0  0
 22 32  2  0  0  0
 26 27  1  0  0  0
 28102  1  0  0  0
 28103  1  0  0  0
 29104  1  0  0  0
 29105  1  0  0  0
 33 34  1  0  0  0
 33 66  1  0  0  0
 33 70  2  0  0  0
 34 36  1  0  0  0
 34 59  1  0  0  0
 34106  1  0  0  0
 35 44  2  0  0  0
 35 45  1  0  0  0
 35 68  1  0  0  0
 36 56  1  0  0  0
 36107  1  0  0  0
 37 39  1  0  0  0
 37 47  1  0  0  0
 37 66  1  0  0  0
 37108  1  0  0  0
 38 43  2  0  0  0
 38 46  1  0  0  0
 38 47  1  0  0  0
 39 64  1  0  0  0
 39 67  2  0  0  0
 40 52  1  0  0  0
 40 53  2  0  0  0
 40 58  1  0  0  0
 41109  1  0  0  0
 41110  1  0  0  0
 41111  1  0  0  0
 41 48  1  0  0  0
 42 43  1  0  0  0
 42 66  1  0  0  0
 42112  1  0  0  0
 42113  1  0  0  0
 43 44  1  0  0  0
 44114  1  0  0  0
 45 46  2  0  0  0
 45115  1  0  0  0
 46116  1  0  0  0
 47117  1  0  0  0
 47118  1  0  0  0
 48 56  1  0  0  0
 48 65  1  0  0  0
 48119  1  0  0  0
 49 50  1  0  0  0
 49 53  1  0  0  0
 49 64  1  0  0  0
 49120  1  0  0  0
 50 51  1  0  0  0
 50121  1  0  0  0
 50122  1  0  0  0
 51 52  1  0  0  0
 51123  1  0  0  0
 51124  1  0  0  0
 52125  1  0  0  0
 52126  1  0  0  0
 53 54  1  0  0  0
 54 55  2  0  0  0
 54127  1  0  0  0
 55 57  1  0  0  0
 55128  1  0  0  0
 56 69  2  0  0  0
 57 58  2  0  0  0
 57129  1  0  0  0
 58130  1  0  0  0
 59 60  1  0  0  0
 59 61  1  0  0  0
 59 62  1  0  0  0
 60131  1  0  0  0
 60132  1  0  0  0
 60133  1  0  0  0
 61134  1  0  0  0
 61135  1  0  0  0
 61136  1  0  0  0
 62137  1  0  0  0
 62138  1  0  0  0
 62139  1  0  0  0
 63 65  1  0  0  0
 63140  1  0  0  0
 63141  1  0  0  0
 63142  1  0  0  0
 64143  1  0  0  0
 65144  1  0  0  0
 68 81  1  0  0  0
 71 82  1  0  0  0
 71 83  1  0  0  0
 71 85  2  0  0  0
 72145  1  0  0  0
 72146  1  0  0  0
 72147  1  0  0  0
 72 80  1  0  0  0
 73148  1  0  0  0
 73149  1  0  0  0
 73150  1  0  0  0
 73 81  1  0  0  0
 74151  1  0  0  0
 74152  1  0  0  0
 74153  1  0  0  0
 74 82  1  0  0  0
 75 82  1  0  0  0
 75154  1  0  0  0
 75155  1  0  0  0
 75156  1  0  0  0
 76 78  1  0  0  0
 76 80  1  0  0  0
 76157  1  0  0  0
 76158  1  0  0  0
 77 80  1  0  0  0
 77 81  1  0  0  0
 77159  1  0  0  0
 77160  1  0  0  0
 78 83  1  0  0  0
 78161  1  0  0  0
 78162  1  0  0  0
 79 82  1  0  0  0
 79 84  1  0  0  0
 79163  1  0  0  0
 79164  1  0  0  0
 80165  1  0  0  0
 81166  1  0  0  0
 83167  1  0  0  0
 84168  1  0  0  0
M  ISO  4   1 100  68 101  81 101  84 100
M  END
> <chiral flag>
0

> <version>
0

> <s_m_source_file>
/data/baiqing/PycharmProjects/Reinvent-master-3.2/result/LINK_invent/BTK/process_docking_weight1_custom_sum_contain_oxygen_bond_distance_aromatic_linkinvent_7_9_3/rearranged_h_0106.sdf

> <i_m_source_file_index>
4

> <r_mmod_Potential_Energy-OPLS-2005>
-123.679000854492

> <r_mmod_Stretch_Energy-OPLS-2005>
34.9557914733887

> <r_mmod_Bend_Energy-OPLS-2005>
111.225631713867

> <r_mmod_Torsional_Energy-OPLS-2005>
237.680709838867

> <r_mmod_Improper_Torsional_Energy-OPLS-2005>
2.50702810287476

> <r_mmod_Van_der_Waal_Energy-OPLS-2005>
140.186752319336

> <r_mmod_Electrostatic_Energy-OPLS-2005>
-441.654968261719

> <r_mmod_Solvation_Energy-OPLS-2005>
-216.920562744141

> <b_mmod_Minimization_Converged-OPLS-2005>
0

> <r_mmod_RMS_Derivative-OPLS-2005>
1.39796280860901

$$$$
4
                    3D
 Structure written by MMmdl.
156164  0  0  1  0            999 V2000
  -30.5393  -14.9718   20.4099 C   0  0  0  0  0  0
  -30.4380  -12.6038   19.4991 C   0  0  0  0  0  0
  -29.5209  -12.5295   18.2567 C   0  0  0  0  0  0
  -28.0557  -12.3110   18.6770 C   0  0  0  0  0  0
  -27.6267  -13.2500   19.8345 C   0  0  2  0  0  0
  -28.6690  -13.2959   20.9715 C   0  0  0  0  0  0
  -25.2451  -13.8215   20.5709 C   0  0  0  0  0  0
  -24.1774  -13.0438   20.9238 C   0  0  0  0  0  0
  -24.6393  -11.6923   20.8760 C   0  0  0  0  0  0
  -23.9078  -10.4293   21.0414 C   0  0  0  0  0  0
  -24.3624   -9.4205   21.9191 C   0  0  0  0  0  0
  -23.6295   -8.2243   22.0756 C   0  0  0  0  0  0
  -22.4278   -8.0284   21.3544 C   0  0  0  0  0  0
  -21.9916   -9.0260   20.4648 C   0  0  0  0  0  0
  -22.7249  -10.2137   20.3061 C   0  0  0  0  0  0
  -21.6854   -6.0738   22.5281 C   0  0  0  0  0  0
  -21.4015   -6.5640   23.8214 C   0  0  0  0  0  0
  -21.3658   -5.6793   24.9176 C   0  0  0  0  0  0
  -21.6045   -4.3054   24.7226 C   0  0  0  0  0  0
  -21.8818   -3.8147   23.4347 C   0  0  0  0  0  0
  -21.9192   -4.6964   22.3402 C   0  0  0  0  0  0
  -22.7794  -13.5211   21.1887 C   0  0  0  0  0  0
  -22.1660   -4.2149   21.0980 F   0  0  0  0  0  0
  -21.5626   -3.4539   25.7738 F   0  0  0  0  0  0
  -29.9402  -13.7113   20.3664 N   0  0  0  0  0  0
  -26.2873  -12.9449   20.3230 N   0  0  0  0  0  0
  -25.9323  -11.6578   20.5737 N   0  0  0  0  0  0
  -22.0439  -12.8203   22.0441 N   0  0  0  0  0  0
  -25.4110  -15.1943   20.4115 N   0  0  0  0  0  0
  -31.7484  -15.0199   20.1606 O   0  0  0  0  0  0
  -21.6639   -6.8882   21.4243 O   0  0  0  0  0  0
  -22.3478  -14.5514   20.6725 O   0  0  0  0  0  0
  -24.6457  -31.8416   23.1855 C   0  0  0  0  0  0
  -25.9218  -32.4681   23.8255 C   0  0  1  0  0  0
  -27.2169  -27.1130   20.1535 C   0  0  0  0  0  0
  -25.5956  -33.8487   24.2170 N   0  0  0  0  0  0
  -23.4505  -30.4600   21.5317 C   0  0  2  0  0  0
  -24.8998  -28.8812   20.1108 C   0  0  0  0  0  0
  -22.7580  -29.4534   22.4849 C   0  0  0  0  0  0
  -18.0308  -28.1396   22.8474 C   0  0  0  0  0  0
  -24.1492  -36.7250   23.2643 C   0  0  0  0  0  0
  -26.0081  -30.7077   21.3874 C   0  0  0  0  0  0
  -26.0786  -29.3166   20.7292 C   0  0  0  0  0  0
  -27.2381  -28.4498   20.7308 C   0  0  0  0  0  0
  -26.0102  -26.7826   19.4988 C   0  0  0  0  0  0
  -24.8798  -27.6285   19.4795 C   0  0  0  0  0  0
  -23.6781  -29.7868   20.1520 C   0  0  0  0  0  0
  -25.4126  -36.3024   24.0313 C   0  0  1  0  0  0
  -20.5922  -28.3725   23.1228 C   0  0  2  0  0  0
  -20.6791  -26.9425   22.5402 C   0  0  0  0  0  0
  -19.5764  -26.6379   21.5211 C   0  0  0  0  0  0
  -18.1947  -26.7932   22.1623 C   0  0  0  0  0  0
  -19.1566  -28.8879   23.2841 C   0  0  0  0  0  0
  -18.9482  -30.1474   23.8868 C   0  0  0  0  0  0
  -17.6477  -30.6590   24.0559 C   0  0  0  0  0  0
  -25.9079  -34.9399   23.5052 C   0  0  0  0  0  0
  -16.5368  -29.9083   23.6336 C   0  0  0  0  0  0
  -16.7293  -28.6503   23.0354 C   0  0  0  0  0  0
  -26.4528  -31.6560   25.0710 C   0  0  0  0  0  0
  -25.3704  -31.3760   26.1401 C   0  0  0  0  0  0
  -27.0401  -30.2954   24.6313 C   0  0  0  0  0  0
  -27.6048  -32.4336   25.7500 C   0  0  0  0  0  0
  -27.5574  -37.1783   24.8465 C   0  0  0  0  0  0
  -21.4269  -29.3047   22.3598 N   0  0  0  0  0  0
  -26.4286  -37.3740   23.9406 N   0  0  0  0  0  0
  -24.7215  -31.0250   22.0898 N   0  0  0  0  0  0
  -23.4211  -28.8087   23.3014 O   0  0  0  0  0  0
  -28.2668  -26.1184   20.2205 O   0  0  0  0  0  0
  -26.5670  -34.8903   22.4635 O   0  0  0  0  0  0
  -23.5570  -32.1302   23.7062 O   0  0  0  0  0  0
  -26.9591  -19.9557   19.8615 C   0  0  0  0  0  0
  -27.8424  -18.8599   20.0363 C   0  0  0  0  0  0
  -27.3660  -21.3109   19.9630 C   0  0  0  0  0  0
  -29.5920  -20.4860   20.4251 C   0  0  0  0  0  0
  -29.2095  -19.0449   20.3263 C   0  0  0  0  0  0
  -28.6986  -21.6733   20.2516 C   0  0  0  0  0  0
  -30.2402  -23.5342   19.3865 C   0  0  0  0  0  0
  -29.6027  -23.5014   21.7998 C   0  0  0  0  0  0
  -30.1845  -17.7077   20.4786 C   0  0  0  0  0  0
  -27.9937  -24.5763   20.0987 C   0  0  0  0  0  0
  -29.0823  -23.2926   20.3689 C   0  0  0  0  0  0
  -29.7744  -16.1728   20.5258 N   0  0  0  0  0  0
  -31.4709  -12.7630   19.1861 H   0  0  0  0  0  0
  -30.4345  -11.6576   20.0427 H   0  0  0  0  0  0
  -29.8443  -11.7270   17.5922 H   0  0  0  0  0  0
  -29.6039  -13.4544   17.6841 H   0  0  0  0  0  0
  -27.9582  -11.2716   18.9929 H   0  0  0  0  0  0
  -27.3915  -12.4323   17.8205 H   0  0  0  0  0  0
  -27.5842  -14.2479   19.3969 H   0  0  0  0  0  0
  -28.7622  -12.3259   21.4621 H   0  0  0  0  0  0
  -28.3649  -14.0065   21.7418 H   0  0  0  0  0  0
  -25.2769   -9.5678   22.4767 H   0  0  0  0  0  0
  -23.9999   -7.4634   22.7477 H   0  0  0  0  0  0
  -21.0846   -8.8786   19.8954 H   0  0  0  0  0  0
  -22.3712  -10.9679   19.6172 H   0  0  0  0  0  0
  -21.2009   -7.6150   23.9719 H   0  0  0  0  0  0
  -21.1480   -6.0522   25.9079 H   0  0  0  0  0  0
  -22.0597   -2.7609   23.2849 H   0  0  0  0  0  0
  -22.4054  -11.9869   22.4837 H   0  0  0  0  0  0
  -21.1056  -13.1229   22.2640 H   0  0  0  0  0  0
  -24.6389  -15.8432   20.5178 H   0  0  0  0  0  0
  -26.2456  -15.6294   20.0425 H   0  0  0  0  0  0
  -26.7284  -32.5276   23.0981 H   0  0  0  0  0  0
  -25.0077  -33.9597   25.0301 H   0  0  0  0  0  0
  -22.7544  -31.2865   21.3750 H   0  0  0  0  0  0
  -23.3759  -35.9578   23.3292 H   0  0  0  0  0  0
  -24.3573  -36.8899   22.2059 H   0  0  0  0  0  0
  -23.7245  -37.6441   23.6693 H   0  0  0  0  0  0
  -26.1672  -31.4604   20.6141 H   0  0  0  0  0  0
  -26.8769  -30.7582   22.0319 H   0  0  0  0  0  0
  -28.1361  -28.7787   21.2347 H   0  0  0  0  0  0
  -25.9064  -25.8247   19.0122 H   0  0  0  0  0  0
  -23.9801  -27.2895   18.9846 H   0  0  0  0  0  0
  -23.8181  -30.5600   19.3957 H   0  0  0  0  0  0
  -22.7920  -29.2310   19.8402 H   0  0  0  0  0  0
  -25.1317  -36.1846   25.0805 H   0  0  0  0  0  0
  -21.0013  -28.3318   24.1349 H   0  0  0  0  0  0
  -20.5681  -26.2341   23.3625 H   0  0  0  0  0  0
  -21.6657  -26.7425   22.1203 H   0  0  0  0  0  0
  -19.6927  -25.6284   21.1257 H   0  0  0  0  0  0
  -19.6700  -27.3176   20.6729 H   0  0  0  0  0  0
  -17.4215  -26.6674   21.4028 H   0  0  0  0  0  0
  -18.0348  -26.0080   22.9025 H   0  0  0  0  0  0
  -19.7959  -30.7298   24.2223 H   0  0  0  0  0  0
  -17.5031  -31.6266   24.5170 H   0  0  0  0  0  0
  -15.5368  -30.2976   23.7675 H   0  0  0  0  0  0
  -15.8693  -28.0812   22.7083 H   0  0  0  0  0  0
  -24.5887  -30.7105   25.7719 H   0  0  0  0  0  0
  -24.8891  -32.2948   26.4761 H   0  0  0  0  0  0
  -25.7979  -30.8972   27.0219 H   0  0  0  0  0  0
  -26.3028  -29.6667   24.1309 H   0  0  0  0  0  0
  -27.3994  -29.7265   25.4898 H   0  0  0  0  0  0
  -27.8941  -30.4184   23.9650 H   0  0  0  0  0  0
  -27.2631  -33.3656   26.2014 H   0  0  0  0  0  0
  -28.3892  -32.6867   25.0355 H   0  0  0  0  0  0
  -28.0681  -31.8506   26.5469 H   0  0  0  0  0  0
  -28.2585  -38.0085   24.7508 H   0  0  0  0  0  0
  -28.1077  -36.2614   24.6298 H   0  0  0  0  0  0
  -27.2290  -37.1435   25.8867 H   0  0  0  0  0  0
  -20.9487  -29.8757   21.6769 H   0  0  0  0  0  0
  -26.0150  -38.2808   24.1407 H   0  0  0  0  0  0
  -25.9219  -19.7481   19.6361 H   0  0  0  0  0  0
  -27.4529  -17.8569   19.9336 H   0  0  0  0  0  0
  -26.6259  -22.0845   19.8138 H   0  0  0  0  0  0
  -30.6303  -20.6921   20.6448 H   0  0  0  0  0  0
  -31.0901  -22.8826   19.5897 H   0  0  0  0  0  0
  -30.5979  -24.5631   19.4398 H   0  0  0  0  0  0
  -29.9238  -23.3508   18.3593 H   0  0  0  0  0  0
  -30.4446  -22.8462   22.0245 H   0  0  0  0  0  0
  -28.8209  -23.2946   22.5313 H   0  0  0  0  0  0
  -29.9354  -24.5281   21.9569 H   0  0  0  0  0  0
  -30.7713  -17.8776   21.3817 H   0  0  0  0  0  0
  -30.9086  -17.7901   19.6667 H   0  0  0  0  0  0
  -27.1388  -24.3889   20.7494 H   0  0  0  0  0  0
  -27.6160  -24.4260   19.0875 H   0  0  0  0  0  0
  -28.7908  -16.0119   20.6775 H   0  0  0  0  0  0
  1 25  1  0  0  0
  1 30  2  0  0  0
  1 82  1  0  0  0
  2  3  1  0  0  0
  2 25  1  0  0  0
  2 83  1  0  0  0
  2 84  1  0  0  0
  3  4  1  0  0  0
  3 85  1  0  0  0
  3 86  1  0  0  0
  4  5  1  0  0  0
  4 87  1  0  0  0
  4 88  1  0  0  0
  5  6  1  0  0  0
  5 26  1  0  0  0
  5 89  1  0  0  0
  6 25  1  0  0  0
  6 90  1  0  0  0
  6 91  1  0  0  0
  7  8  2  0  0  0
  7 26  1  0  0  0
  7 29  1  0  0  0
  8  9  1  0  0  0
  8 22  1  0  0  0
  9 10  1  0  0  0
  9 27  2  0  0  0
 10 11  2  0  0  0
 10 15  1  0  0  0
 11 12  1  0  0  0
 11 92  1  0  0  0
 12 13  2  0  0  0
 12 93  1  0  0  0
 13 14  1  0  0  0
 13 31  1  0  0  0
 14 15  2  0  0  0
 14 94  1  0  0  0
 15 95  1  0  0  0
 16 17  2  0  0  0
 16 21  1  0  0  0
 16 31  1  0  0  0
 17 18  1  0  0  0
 17 96  1  0  0  0
 18 19  2  0  0  0
 18 97  1  0  0  0
 19 20  1  0  0  0
 19 24  1  0  0  0
 20 21  2  0  0  0
 20 98  1  0  0  0
 21 23  1  0  0  0
 22 28  1  0  0  0
 22 32  2  0  0  0
 26 27  1  0  0  0
 28 99  1  0  0  0
 28100  1  0  0  0
 29101  1  0  0  0
 29102  1  0  0  0
 33 34  1  0  0  0
 33 66  1  0  0  0
 33 70  2  0  0  0
 34 36  1  0  0  0
 34 59  1  0  0  0
 34103  1  0  0  0
 35 44  2  0  0  0
 35 45  1  0  0  0
 35 68  1  0  0  0
 36 56  1  0  0  0
 36104  1  0  0  0
 37 39  1  0  0  0
 37 47  1  0  0  0
 37 66  1  0  0  0
 37105  1  0  0  0
 38 43  2  0  0  0
 38 46  1  0  0  0
 38 47  1  0  0  0
 39 64  1  0  0  0
 39 67  2  0  0  0
 40 52  1  0  0  0
 40 53  2  0  0  0
 40 58  1  0  0  0
 41106  1  0  0  0
 41107  1  0  0  0
 41108  1  0  0  0
 41 48  1  0  0  0
 42 43  1  0  0  0
 42 66  1  0  0  0
 42109  1  0  0  0
 42110  1  0  0  0
 43 44  1  0  0  0
 44111  1  0  0  0
 45 46  2  0  0  0
 45112  1  0  0  0
 46113  1  0  0  0
 47114  1  0  0  0
 47115  1  0  0  0
 48 56  1  0  0  0
 48 65  1  0  0  0
 48116  1  0  0  0
 49 50  1  0  0  0
 49 53  1  0  0  0
 49 64  1  0  0  0
 49117  1  0  0  0
 50 51  1  0  0  0
 50118  1  0  0  0
 50119  1  0  0  0
 51 52  1  0  0  0
 51120  1  0  0  0
 51121  1  0  0  0
 52122  1  0  0  0
 52123  1  0  0  0
 53 54  1  0  0  0
 54 55  2  0  0  0
 54124  1  0  0  0
 55 57  1  0  0  0
 55125  1  0  0  0
 56 69  2  0  0  0
 57 58  2  0  0  0
 57126  1  0  0  0
 58127  1  0  0  0
 59 60  1  0  0  0
 59 61  1  0  0  0
 59 62  1  0  0  0
 60128  1  0  0  0
 60129  1  0  0  0
 60130  1  0  0  0
 61131  1  0  0  0
 61132  1  0  0  0
 61133  1  0  0  0
 62134  1  0  0  0
 62135  1  0  0  0
 62136  1  0  0  0
 63 65  1  0  0  0
 63137  1  0  0  0
 63138  1  0  0  0
 63139  1  0  0  0
 64140  1  0  0  0
 65141  1  0  0  0
 68 80  1  0  0  0
 71 72  2  0  0  0
 71 73  1  0  0  0
 71142  1  0  0  0
 72 75  1  0  0  0
 72143  1  0  0  0
 73 76  2  0  0  0
 73144  1  0  0  0
 74 75  2  0  0  0
 74 76  1  0  0  0
 74145  1  0  0  0
 75 79  1  0  0  0
 76 81  1  0  0  0
 77146  1  0  0  0
 77147  1  0  0  0
 77148  1  0  0  0
 77 81  1  0  0  0
 78 81  1  0  0  0
 78149  1  0  0  0
 78150  1  0  0  0
 78151  1  0  0  0
 79 82  1  0  0  0
 79152  1  0  0  0
 79153  1  0  0  0
 80 81  1  0  0  0
 80154  1  0  0  0
 80155  1  0  0  0
 82156  1  0  0  0
M  ISO  4   1 100  68 101  80 101  82 100
M  END
> <chiral flag>
0

> <version>
0

> <s_m_source_file>
/data/baiqing/PycharmProjects/Reinvent-master-3.2/result/LINK_invent/BTK/process_docking_weight1_custom_sum_contain_oxygen_bond_distance_aromatic_linkinvent_7_9_3/rearranged_h_0106.sdf

> <i_m_source_file_index>
5

> <r_mmod_Potential_Energy-OPLS-2005>
461.494781494141

> <r_mmod_Stretch_Energy-OPLS-2005>
281.290100097656

> <r_mmod_Bend_Energy-OPLS-2005>
247.681045532227

> <r_mmod_Torsional_Energy-OPLS-2005>
204.906402587891

> <r_mmod_Improper_Torsional_Energy-OPLS-2005>
4.33588886260986

> <r_mmod_Van_der_Waal_Energy-OPLS-2005>
123.949592590332

> <r_mmod_Electrostatic_Energy-OPLS-2005>
-407.323455810547

> <r_mmod_Solvation_Energy-OPLS-2005>
-204.69807434082

> <b_mmod_Minimization_Converged-OPLS-2005>
0

> <r_mmod_RMS_Derivative-OPLS-2005>
0.492654830217361

$$$$
5
                    3D
 Structure written by MMmdl.
167174  0  0  1  0            999 V2000
  -30.5184  -14.9396   20.4349 C   0  0  0  0  0  0
  -30.4362  -12.5768   19.5273 C   0  0  0  0  0  0
  -29.5285  -12.5468   18.2734 C   0  0  0  0  0  0
  -28.0584  -12.3241   18.6762 C   0  0  0  0  0  0
  -27.6315  -13.2426   19.8508 C   0  0  2  0  0  0
  -28.6639  -13.2492   21.0004 C   0  0  0  0  0  0
  -25.2451  -13.8179   20.5708 C   0  0  0  0  0  0
  -24.1753  -13.0420   20.9221 C   0  0  0  0  0  0
  -24.6338  -11.6904   20.8699 C   0  0  0  0  0  0
  -23.9004  -10.4291   21.0363 C   0  0  0  0  0  0
  -24.3566   -9.4232   21.9159 C   0  0  0  0  0  0
  -23.6282   -8.2244   22.0720 C   0  0  0  0  0  0
  -22.4270   -8.0256   21.3517 C   0  0  0  0  0  0
  -21.9886   -9.0207   20.4614 C   0  0  0  0  0  0
  -22.7166  -10.2116   20.3028 C   0  0  0  0  0  0
  -21.6851   -6.0729   22.5280 C   0  0  0  0  0  0
  -21.4016   -6.5634   23.8215 C   0  0  0  0  0  0
  -21.3669   -5.6782   24.9179 C   0  0  0  0  0  0
  -21.6053   -4.3041   24.7225 C   0  0  0  0  0  0
  -21.8812   -3.8137   23.4346 C   0  0  0  0  0  0
  -21.9199   -4.6952   22.3402 C   0  0  0  0  0  0
  -22.7791  -13.5223   21.1905 C   0  0  0  0  0  0
  -22.1664   -4.2141   21.0982 F   0  0  0  0  0  0
  -21.5638   -3.4529   25.7742 F   0  0  0  0  0  0
  -29.9531  -13.6636   20.4296 N   0  0  0  0  0  0
  -26.2857  -12.9399   20.3237 N   0  0  0  0  0  0
  -25.9269  -11.6536   20.5694 N   0  0  0  0  0  0
  -22.0406  -12.8214   22.0446 N   0  0  0  0  0  0
  -25.4143  -15.1907   20.4150 N   0  0  0  0  0  0
  -31.6837  -15.0462   20.0404 O   0  0  0  0  0  0
  -21.6638   -6.8849   21.4230 O   0  0  0  0  0  0
  -22.3507  -14.5543   20.6768 O   0  0  0  0  0  0
  -24.6439  -31.8433   23.1862 C   0  0  0  0  0  0
  -25.9224  -32.4670   23.8236 C   0  0  1  0  0  0
  -27.2109  -27.1259   20.1443 C   0  0  0  0  0  0
  -25.5977  -33.8476   24.2154 N   0  0  0  0  0  0
  -23.4452  -30.4635   21.5322 C   0  0  2  0  0  0
  -24.8919  -28.8918   20.1033 C   0  0  0  0  0  0
  -22.7558  -29.4548   22.4848 C   0  0  0  0  0  0
  -18.0308  -28.1399   22.8466 C   0  0  0  0  0  0
  -24.1508  -36.7251   23.2639 C   0  0  0  0  0  0
  -26.0011  -30.7124   21.3871 C   0  0  0  0  0  0
  -26.0682  -29.3249   20.7256 C   0  0  0  0  0  0
  -27.2241  -28.4563   20.7329 C   0  0  0  0  0  0
  -26.0093  -26.8035   19.4735 C   0  0  0  0  0  0
  -24.8766  -27.6451   19.4616 C   0  0  0  0  0  0
  -23.6699  -29.7952   20.1496 C   0  0  0  0  0  0
  -25.4137  -36.3009   24.0303 C   0  0  1  0  0  0
  -20.5914  -28.3729   23.1229 C   0  0  2  0  0  0
  -20.6795  -26.9433   22.5400 C   0  0  0  0  0  0
  -19.5778  -26.6384   21.5204 C   0  0  0  0  0  0
  -18.1956  -26.7935   22.1612 C   0  0  0  0  0  0
  -19.1558  -28.8884   23.2839 C   0  0  0  0  0  0
  -18.9478  -30.1476   23.8868 C   0  0  0  0  0  0
  -17.6473  -30.6595   24.0559 C   0  0  0  0  0  0
  -25.9091  -34.9388   23.5034 C   0  0  0  0  0  0
  -16.5365  -29.9086   23.6334 C   0  0  0  0  0  0
  -16.7289  -28.6507   23.0350 C   0  0  0  0  0  0
  -26.4547  -31.6538   25.0681 C   0  0  0  0  0  0
  -25.3717  -31.3742   26.1362 C   0  0  0  0  0  0
  -27.0413  -30.2922   24.6290 C   0  0  0  0  0  0
  -27.6076  -32.4296   25.7475 C   0  0  0  0  0  0
  -27.5577  -37.1788   24.8462 C   0  0  0  0  0  0
  -21.4248  -29.3050   22.3598 N   0  0  0  0  0  0
  -26.4297  -37.3723   23.9394 N   0  0  0  0  0  0
  -24.7165  -31.0278   22.0901 N   0  0  0  0  0  0
  -23.4202  -28.8097   23.3003 O   0  0  0  0  0  0
  -28.2722  -26.1481   20.2608 O   0  0  0  0  0  0
  -26.5676  -34.8892   22.4615 O   0  0  0  0  0  0
  -23.5558  -32.1329   23.7082 O   0  0  0  0  0  0
  -28.5212  -25.6111   17.3743 C   0  0  0  0  0  0
  -30.5679  -24.9483   18.7095 C   0  0  0  0  0  0
  -26.7961  -18.9651   21.3424 C   0  0  0  0  0  0
  -26.3735  -20.9274   19.8576 C   0  0  0  0  0  0
  -28.6361  -23.2792   20.6765 C   0  0  0  0  0  0
  -29.6072  -17.5360   20.0520 C   0  0  0  0  0  0
  -29.3424  -21.7899   20.1974 C   0  0  0  0  0  0
  -29.6201  -19.0490   20.8176 C   0  0  0  0  0  0
  -29.0793  -24.6643   18.4530 C   0  0  0  0  0  0
  -27.3613  -20.3277   20.8794 C   0  0  0  0  0  0
  -28.2566  -24.6608   19.7650 C   0  0  2  0  0  0
  -29.7213  -16.0880   20.6941 N   0  0  0  0  0  0
  -28.7552  -20.3069   20.3274 N   0  3  1  0  0  0
  -31.4731  -12.7271   19.2275 H   0  0  0  0  0  0
  -30.4110  -11.6165   20.0461 H   0  0  0  0  0  0
  -29.8559  -11.7644   17.5880 H   0  0  0  0  0  0
  -29.6215  -13.4874   17.7282 H   0  0  0  0  0  0
  -27.9539  -11.2805   18.9718 H   0  0  0  0  0  0
  -27.3990  -12.4618   17.8182 H   0  0  0  0  0  0
  -27.6046  -14.2518   19.4415 H   0  0  0  0  0  0
  -28.7370  -12.2628   21.4615 H   0  0  0  0  0  0
  -28.3468  -13.9329   21.7894 H   0  0  0  0  0  0
  -25.2678   -9.5772   22.4760 H   0  0  0  0  0  0
  -24.0013   -7.4644   22.7439 H   0  0  0  0  0  0
  -21.0820   -8.8680   19.8926 H   0  0  0  0  0  0
  -22.3549  -10.9646   19.6165 H   0  0  0  0  0  0
  -21.1993   -7.6137   23.9721 H   0  0  0  0  0  0
  -21.1511   -6.0508   25.9086 H   0  0  0  0  0  0
  -22.0587   -2.7594   23.2839 H   0  0  0  0  0  0
  -22.3997  -11.9889   22.4888 H   0  0  0  0  0  0
  -21.1015  -13.1246   22.2585 H   0  0  0  0  0  0
  -24.6360  -15.8344   20.5035 H   0  0  0  0  0  0
  -26.2551  -15.6247   20.0581 H   0  0  0  0  0  0
  -26.7285  -32.5267   23.0952 H   0  0  0  0  0  0
  -25.0081  -33.9584   25.0272 H   0  0  0  0  0  0
  -22.7483  -31.2902   21.3796 H   0  0  0  0  0  0
  -23.3758  -35.9597   23.3291 H   0  0  0  0  0  0
  -24.3586  -36.8898   22.2055 H   0  0  0  0  0  0
  -23.7291  -37.6456   23.6686 H   0  0  0  0  0  0
  -26.1595  -31.4699   20.6181 H   0  0  0  0  0  0
  -26.8706  -30.7572   22.0312 H   0  0  0  0  0  0
  -28.1155  -28.7819   21.2486 H   0  0  0  0  0  0
  -25.8892  -25.8613   18.9662 H   0  0  0  0  0  0
  -23.9787  -27.3122   18.9587 H   0  0  0  0  0  0
  -23.8047  -30.5720   19.3961 H   0  0  0  0  0  0
  -22.7849  -29.2376   19.8379 H   0  0  0  0  0  0
  -25.1332  -36.1821   25.0795 H   0  0  0  0  0  0
  -20.9999  -28.3319   24.1352 H   0  0  0  0  0  0
  -20.5688  -26.2339   23.3617 H   0  0  0  0  0  0
  -21.6662  -26.7447   22.1198 H   0  0  0  0  0  0
  -19.6942  -25.6284   21.1263 H   0  0  0  0  0  0
  -19.6722  -27.3171   20.6717 H   0  0  0  0  0  0
  -17.4223  -26.6667   21.4020 H   0  0  0  0  0  0
  -18.0367  -26.0085   22.9019 H   0  0  0  0  0  0
  -19.7957  -30.7300   24.2217 H   0  0  0  0  0  0
  -17.5034  -31.6269   24.5172 H   0  0  0  0  0  0
  -15.5366  -30.2988   23.7678 H   0  0  0  0  0  0
  -15.8685  -28.0826   22.7076 H   0  0  0  0  0  0
  -24.5908  -30.7084   25.7668 H   0  0  0  0  0  0
  -24.8900  -32.2932   26.4707 H   0  0  0  0  0  0
  -25.7985  -30.8955   27.0184 H   0  0  0  0  0  0
  -26.3030  -29.6623   24.1314 H   0  0  0  0  0  0
  -27.4025  -29.7244   25.4878 H   0  0  0  0  0  0
  -27.8937  -30.4131   23.9600 H   0  0  0  0  0  0
  -27.2672  -33.3618   26.1994 H   0  0  0  0  0  0
  -28.3927  -32.6820   25.0331 H   0  0  0  0  0  0
  -28.0696  -31.8451   26.5445 H   0  0  0  0  0  0
  -28.2588  -38.0088   24.7481 H   0  0  0  0  0  0
  -28.1082  -36.2614   24.6324 H   0  0  0  0  0  0
  -27.2282  -37.1462   25.8862 H   0  0  0  0  0  0
  -20.9457  -29.8757   21.6771 H   0  0  0  0  0  0
  -26.0156  -38.2792   24.1377 H   0  0  0  0  0  0
  -29.0790  -25.5019   16.4435 H   0  0  0  0  0  0
  -28.5912  -26.6571   17.6724 H   0  0  0  0  0  0
  -27.4762  -25.3951   17.1499 H   0  0  0  0  0  0
  -31.1434  -24.8636   17.7876 H   0  0  0  0  0  0
  -30.9975  -24.2464   19.4247 H   0  0  0  0  0  0
  -30.7197  -25.9540   19.1030 H   0  0  0  0  0  0
  -25.7733  -19.0874   21.7012 H   0  0  0  0  0  0
  -27.3425  -18.5354   22.1803 H   0  0  0  0  0  0
  -26.7621  -18.2369   20.5335 H   0  0  0  0  0  0
  -25.3729  -20.9965   20.2844 H   0  0  0  0  0  0
  -26.2988  -20.3079   18.9640 H   0  0  0  0  0  0
  -26.6425  -21.9296   19.5327 H   0  0  0  0  0  0
  -29.3567  -23.6618   21.3992 H   0  0  0  0  0  0
  -27.7708  -23.0812   21.3054 H   0  0  0  0  0  0
  -28.6949  -17.4932   19.4580 H   0  0  0  0  0  0
  -30.3933  -17.5746   19.2971 H   0  0  0  0  0  0
  -30.2863  -21.7460   20.7403 H   0  0  0  0  0  0
  -29.6652  -21.8809   19.1614 H   0  0  0  0  0  0
  -30.6563  -19.3817   20.7567 H   0  0  0  0  0  0
  -29.4759  -18.9145   21.8896 H   0  0  0  0  0  0
  -29.0023  -23.6682   18.0200 H   0  0  0  0  0  0
  -27.3829  -20.9527   21.7719 H   0  0  0  0  0  0
  -27.2378  -24.4322   19.4668 H   0  0  0  0  0  0
  -28.8705  -15.8285   21.1723 H   0  0  0  0  0  0
  -28.6173  -20.0711   19.3552 H   0  0  0  0  0  0
  1 25  1  0  0  0
  1 30  2  0  0  0
  1 82  1  0  0  0
  2  3  1  0  0  0
  2 25  1  0  0  0
  2 84  1  0  0  0
  2 85  1  0  0  0
  3  4  1  0  0  0
  3 86  1  0  0  0
  3 87  1  0  0  0
  4  5  1  0  0  0
  4 88  1  0  0  0
  4 89  1  0  0  0
  5  6  1  0  0  0
  5 26  1  0  0  0
  5 90  1  0  0  0
  6 25  1  0  0  0
  6 91  1  0  0  0
  6 92  1  0  0  0
  7  8  2  0  0  0
  7 26  1  0  0  0
  7 29  1  0  0  0
  8  9  1  0  0  0
  8 22  1  0  0  0
  9 10  1  0  0  0
  9 27  2  0  0  0
 10 11  2  0  0  0
 10 15  1  0  0  0
 11 12  1  0  0  0
 11 93  1  0  0  0
 12 13  2  0  0  0
 12 94  1  0  0  0
 13 14  1  0  0  0
 13 31  1  0  0  0
 14 15  2  0  0  0
 14 95  1  0  0  0
 15 96  1  0  0  0
 16 17  2  0  0  0
 16 21  1  0  0  0
 16 31  1  0  0  0
 17 18  1  0  0  0
 17 97  1  0  0  0
 18 19  2  0  0  0
 18 98  1  0  0  0
 19 20  1  0  0  0
 19 24  1  0  0  0
 20 21  2  0  0  0
 20 99  1  0  0  0
 21 23  1  0  0  0
 22 28  1  0  0  0
 22 32  2  0  0  0
 26 27  1  0  0  0
 28100  1  0  0  0
 28101  1  0  0  0
 29102  1  0  0  0
 29103  1  0  0  0
 33 34  1  0  0  0
 33 66  1  0  0  0
 33 70  2  0  0  0
 34 36  1  0  0  0
 34 59  1  0  0  0
 34104  1  0  0  0
 35 44  2  0  0  0
 35 45  1  0  0  0
 35 68  1  0  0  0
 36 56  1  0  0  0
 36105  1  0  0  0
 37 39  1  0  0  0
 37 47  1  0  0  0
 37 66  1  0  0  0
 37106  1  0  0  0
 38 43  2  0  0  0
 38 46  1  0  0  0
 38 47  1  0  0  0
 39 64  1  0  0  0
 39 67  2  0  0  0
 40 52  1  0  0  0
 40 53  2  0  0  0
 40 58  1  0  0  0
 41107  1  0  0  0
 41108  1  0  0  0
 41109  1  0  0  0
 41 48  1  0  0  0
 42 43  1  0  0  0
 42 66  1  0  0  0
 42110  1  0  0  0
 42111  1  0  0  0
 43 44  1  0  0  0
 44112  1  0  0  0
 45 46  2  0  0  0
 45113  1  0  0  0
 46114  1  0  0  0
 47115  1  0  0  0
 47116  1  0  0  0
 48 56  1  0  0  0
 48 65  1  0  0  0
 48117  1  0  0  0
 49 50  1  0  0  0
 49 53  1  0  0  0
 49 64  1  0  0  0
 49118  1  0  0  0
 50 51  1  0  0  0
 50119  1  0  0  0
 50120  1  0  0  0
 51 52  1  0  0  0
 51121  1  0  0  0
 51122  1  0  0  0
 52123  1  0  0  0
 52124  1  0  0  0
 53 54  1  0  0  0
 54 55  2  0  0  0
 54125  1  0  0  0
 55 57  1  0  0  0
 55126  1  0  0  0
 56 69  2  0  0  0
 57 58  2  0  0  0
 57127  1  0  0  0
 58128  1  0  0  0
 59 60  1  0  0  0
 59 61  1  0  0  0
 59 62  1  0  0  0
 60129  1  0  0  0
 60130  1  0  0  0
 60131  1  0  0  0
 61132  1  0  0  0
 61133  1  0  0  0
 61134  1  0  0  0
 62135  1  0  0  0
 62136  1  0  0  0
 62137  1  0  0  0
 63 65  1  0  0  0
 63138  1  0  0  0
 63139  1  0  0  0
 63140  1  0  0  0
 64141  1  0  0  0
 65142  1  0  0  0
 68 81  1  0  0  0
 71143  1  0  0  0
 71144  1  0  0  0
 71145  1  0  0  0
 71 79  1  0  0  0
 72 79  1  0  0  0
 72146  1  0  0  0
 72147  1  0  0  0
 72148  1  0  0  0
 73149  1  0  0  0
 73150  1  0  0  0
 73151  1  0  0  0
 73 80  1  0  0  0
 74 80  1  0  0  0
 74152  1  0  0  0
 74153  1  0  0  0
 74154  1  0  0  0
 75 77  1  0  0  0
 75155  1  0  0  0
 75156  1  0  0  0
 75 81  1  0  0  0
 76 78  1  0  0  0
 76 82  1  0  0  0
 76157  1  0  0  0
 76158  1  0  0  0
 77159  1  0  0  0
 77160  1  0  0  0
 77 83  1  0  0  0
 78 83  1  0  0  0
 78161  1  0  0  0
 78162  1  0  0  0
 79 81  1  0  0  0
 79163  1  0  0  0
 80 83  1  0  0  0
 80164  1  0  0  0
 81165  1  0  0  0
 82166  1  0  0  0
 83167  1  0  0  0
M  CHG  1  83   1
M  ISO  4   1 100  68 101  81 101  82 100
M  END
> <chiral flag>
0

> <version>
0

> <s_m_source_file>
/data/baiqing/PycharmProjects/Reinvent-master-3.2/result/LINK_invent/BTK/process_docking_weight1_custom_sum_contain_oxygen_bond_distance_aromatic_linkinvent_7_9_3/rearranged_h_0106.sdf

> <i_m_source_file_index>
6

> <r_mmod_Potential_Energy-OPLS-2005>
515.434143066406

> <r_mmod_Stretch_Energy-OPLS-2005>
297.617248535156

> <r_mmod_Bend_Energy-OPLS-2005>
326.280548095703

> <r_mmod_Torsional_Energy-OPLS-2005>
287.196929931641

> <r_mmod_Improper_Torsional_Energy-OPLS-2005>
5.81982707977295

> <r_mmod_Van_der_Waal_Energy-OPLS-2005>
116.951988220215

> <r_mmod_Electrostatic_Energy-OPLS-2005>
-257.707305908203

> <r_mmod_Solvation_Energy-OPLS-2005>
-454.586120605469

> <b_mmod_Minimization_Converged-OPLS-2005>
0

> <r_mmod_RMS_Derivative-OPLS-2005>
2.4525773525238

$$$$
6
                    3D
 Structure written by MMmdl.
170177  0  0  1  0            999 V2000
  -30.6340  -14.6810   20.4681 C   0  0  0  0  0  0
  -30.4238  -12.4094   19.4762 C   0  0  0  0  0  0
  -29.5080  -12.5068   18.2360 C   0  0  0  0  0  0
  -28.0323  -12.3426   18.6452 C   0  0  0  0  0  0
  -27.6452  -13.2305   19.8580 C   0  0  2  0  0  0
  -28.6871  -13.1382   20.9962 C   0  0  0  0  0  0
  -25.2510  -13.8202   20.5690 C   0  0  0  0  0  0
  -24.1811  -13.0440   20.9222 C   0  0  0  0  0  0
  -24.6405  -11.6919   20.8757 C   0  0  0  0  0  0
  -23.9090  -10.4290   21.0409 C   0  0  0  0  0  0
  -24.3638   -9.4203   21.9179 C   0  0  0  0  0  0
  -23.6308   -8.2245   22.0752 C   0  0  0  0  0  0
  -22.4291   -8.0283   21.3546 C   0  0  0  0  0  0
  -21.9928   -9.0256   20.4645 C   0  0  0  0  0  0
  -22.7270  -10.2136   20.3047 C   0  0  0  0  0  0
  -21.6852   -6.0740   22.5278 C   0  0  0  0  0  0
  -21.4013   -6.5645   23.8213 C   0  0  0  0  0  0
  -21.3660   -5.6800   24.9173 C   0  0  0  0  0  0
  -21.6034   -4.3061   24.7227 C   0  0  0  0  0  0
  -21.8821   -3.8156   23.4349 C   0  0  0  0  0  0
  -21.9198   -4.6966   22.3406 C   0  0  0  0  0  0
  -22.7832  -13.5212   21.1888 C   0  0  0  0  0  0
  -22.1662   -4.2153   21.0981 F   0  0  0  0  0  0
  -21.5622   -3.4546   25.7735 F   0  0  0  0  0  0
  -30.0022  -13.4616   20.4272 N   0  0  0  0  0  0
  -26.2946  -12.9405   20.3299 N   0  0  0  0  0  0
  -25.9340  -11.6552   20.5767 N   0  0  0  0  0  0
  -22.0498  -12.8173   22.0436 N   0  0  0  0  0  0
  -25.4209  -15.1921   20.4082 N   0  0  0  0  0  0
  -31.8022  -14.7960   20.0901 O   0  0  0  0  0  0
  -21.6650   -6.8883   21.4241 O   0  0  0  0  0  0
  -22.3507  -14.5519   20.6745 O   0  0  0  0  0  0
  -24.6243  -31.8588   23.2011 C   0  0  0  0  0  0
  -25.9082  -32.4777   23.8346 C   0  0  1  0  0  0
  -27.2253  -27.3150   20.1370 C   0  0  0  0  0  0
  -25.5905  -33.8572   24.2289 N   0  0  0  0  0  0
  -23.4215  -30.4825   21.5404 C   0  0  2  0  0  0
  -24.8715  -28.9381   20.1068 C   0  0  0  0  0  0
  -22.7478  -29.4624   22.4900 C   0  0  0  0  0  0
  -18.0304  -28.1378   22.8496 C   0  0  0  0  0  0
  -24.1486  -36.7283   23.2646 C   0  0  0  0  0  0
  -25.9622  -30.7923   21.3713 C   0  0  0  0  0  0
  -26.0387  -29.4208   20.7124 C   0  0  0  0  0  0
  -27.2230  -28.6240   20.7108 C   0  0  0  0  0  0
  -26.0436  -26.8924   19.4909 C   0  0  0  0  0  0
  -24.8771  -27.6818   19.4813 C   0  0  0  0  0  0
  -23.6358  -29.8142   20.1563 C   0  0  0  0  0  0
  -25.4112  -36.3080   24.0342 C   0  0  1  0  0  0
  -20.5903  -28.3686   23.1271 C   0  0  2  0  0  0
  -20.6789  -26.9403   22.5406 C   0  0  0  0  0  0
  -19.5763  -26.6375   21.5210 C   0  0  0  0  0  0
  -18.1941  -26.7929   22.1615 C   0  0  0  0  0  0
  -19.1557  -28.8845   23.2887 C   0  0  0  0  0  0
  -18.9477  -30.1454   23.8894 C   0  0  0  0  0  0
  -17.6482  -30.6581   24.0571 C   0  0  0  0  0  0
  -25.9041  -34.9452   23.5119 C   0  0  0  0  0  0
  -16.5367  -29.9082   23.6328 C   0  0  0  0  0  0
  -16.7287  -28.6505   23.0349 C   0  0  0  0  0  0
  -26.4474  -31.6582   25.0712 C   0  0  0  0  0  0
  -25.3713  -31.3712   26.1451 C   0  0  0  0  0  0
  -27.0333  -30.3016   24.6150 C   0  0  0  0  0  0
  -27.6045  -32.4306   25.7473 C   0  0  0  0  0  0
  -27.5580  -37.1795   24.8472 C   0  0  0  0  0  0
  -21.4192  -29.3045   22.3650 N   0  0  0  0  0  0
  -26.4293  -37.3772   23.9414 N   0  0  0  0  0  0
  -24.6882  -31.0606   22.0952 N   0  0  0  0  0  0
  -23.4206  -28.8171   23.2980 O   0  0  0  0  0  0
  -28.3228  -26.4399   20.2070 O   0  0  0  0  0  0
  -26.5616  -34.8925   22.4689 O   0  0  0  0  0  0
  -23.5405  -32.1373   23.7340 O   0  0  0  0  0  0
  -29.4696  -25.7540   22.8253 C   0  0  0  0  0  0
  -26.9378  -25.7835   22.9630 C   0  0  0  0  0  0
  -27.9764  -21.9431   18.8360 C   0  0  0  0  0  0
  -28.4835  -20.8583   22.3462 C   0  0  0  0  0  0
  -30.7573  -20.0626   19.4096 C   0  0  0  0  0  0
  -29.0164  -23.8610   20.2205 C   0  0  0  0  0  0
  -30.0877  -17.2045   20.1534 C   0  0  0  0  0  0
  -29.5396  -18.4969   20.9500 C   0  0  0  0  0  0
  -28.1631  -25.1244   22.3039 C   0  0  0  0  0  0
  -28.4401  -22.3520   20.2481 C   0  0  2  0  0  0
  -29.2264  -21.1591   21.0242 C   0  0  2  0  0  0
  -28.0921  -25.0655   20.7476 C   0  0  1  0  0  0
  -29.8614  -15.7991   20.6939 N   0  0  0  0  0  0
  -29.5384  -19.8676   20.2338 N   0  3  1  0  0  0
  -31.4698  -12.5071   19.1804 H   0  0  0  0  0  0
  -30.3356  -11.4261   19.9418 H   0  0  0  0  0  0
  -29.7810  -11.7471   17.5031 H   0  0  0  0  0  0
  -29.6483  -13.4708   17.7460 H   0  0  0  0  0  0
  -27.8783  -11.2928   18.8941 H   0  0  0  0  0  0
  -27.3776  -12.5504   17.7977 H   0  0  0  0  0  0
  -27.6494  -14.2580   19.4945 H   0  0  0  0  0  0
  -28.6990  -12.1394   21.4338 H   0  0  0  0  0  0
  -28.4301  -13.8217   21.8070 H   0  0  0  0  0  0
  -25.2778   -9.5676   22.4766 H   0  0  0  0  0  0
  -24.0016   -7.4626   22.7462 H   0  0  0  0  0  0
  -21.0865   -8.8789   19.8946 H   0  0  0  0  0  0
  -22.3736  -10.9677   19.6163 H   0  0  0  0  0  0
  -21.2008   -7.6153   23.9718 H   0  0  0  0  0  0
  -21.1470   -6.0529   25.9076 H   0  0  0  0  0  0
  -22.0599   -2.7616   23.2855 H   0  0  0  0  0  0
  -22.4136  -11.9822   22.4776 H   0  0  0  0  0  0
  -21.1106  -13.1155   22.2651 H   0  0  0  0  0  0
  -24.6493  -15.8442   20.4995 H   0  0  0  0  0  0
  -26.2600  -15.6233   20.0428 H   0  0  0  0  0  0
  -26.7162  -32.5447   23.1107 H   0  0  0  0  0  0
  -25.0045  -33.9718   25.0432 H   0  0  0  0  0  0
  -22.7157  -31.3030   21.3948 H   0  0  0  0  0  0
  -23.3753  -35.9605   23.3306 H   0  0  0  0  0  0
  -24.3584  -36.8891   22.2058 H   0  0  0  0  0  0
  -23.7232  -37.6487   23.6662 H   0  0  0  0  0  0
  -26.0950  -31.5576   20.6047 H   0  0  0  0  0  0
  -26.8430  -30.8394   22.0017 H   0  0  0  0  0  0
  -28.1169  -28.9870   21.1970 H   0  0  0  0  0  0
  -26.0067  -25.9296   19.0025 H   0  0  0  0  0  0
  -23.9860  -27.3092   18.9946 H   0  0  0  0  0  0
  -23.7505  -30.5889   19.3968 H   0  0  0  0  0  0
  -22.7576  -29.2382   19.8564 H   0  0  0  0  0  0
  -25.1290  -36.1934   25.0833 H   0  0  0  0  0  0
  -21.0020  -28.3259   24.1382 H   0  0  0  0  0  0
  -20.5670  -26.2291   23.3605 H   0  0  0  0  0  0
  -21.6655  -26.7407   22.1204 H   0  0  0  0  0  0
  -19.6922  -25.6289   21.1227 H   0  0  0  0  0  0
  -19.6709  -27.3196   20.6752 H   0  0  0  0  0  0
  -17.4215  -26.6686   21.4015 H   0  0  0  0  0  0
  -18.0338  -26.0068   22.9001 H   0  0  0  0  0  0
  -19.7961  -30.7277   24.2231 H   0  0  0  0  0  0
  -17.5040  -31.6258   24.5180 H   0  0  0  0  0  0
  -15.5371  -30.2987   23.7663 H   0  0  0  0  0  0
  -15.8689  -28.0829   22.7044 H   0  0  0  0  0  0
  -24.5880  -30.7075   25.7784 H   0  0  0  0  0  0
  -24.8919  -32.2879   26.4894 H   0  0  0  0  0  0
  -25.8038  -30.8876   27.0219 H   0  0  0  0  0  0
  -26.2921  -29.6749   24.1180 H   0  0  0  0  0  0
  -27.4081  -29.7271   25.4630 H   0  0  0  0  0  0
  -27.8756  -30.4341   23.9354 H   0  0  0  0  0  0
  -27.2671  -33.3610   26.2055 H   0  0  0  0  0  0
  -28.3846  -32.6845   25.0282 H   0  0  0  0  0  0
  -28.0726  -31.8420   26.5381 H   0  0  0  0  0  0
  -28.2597  -38.0090   24.7508 H   0  0  0  0  0  0
  -28.1068  -36.2618   24.6299 H   0  0  0  0  0  0
  -27.2298  -37.1450   25.8875 H   0  0  0  0  0  0
  -20.9346  -29.8761   21.6874 H   0  0  0  0  0  0
  -26.0170  -38.2844   24.1411 H   0  0  0  0  0  0
  -29.4783  -25.8029   23.9146 H   0  0  0  0  0  0
  -29.5998  -26.7703   22.4520 H   0  0  0  0  0  0
  -30.3470  -25.1797   22.5265 H   0  0  0  0  0  0
  -26.9548  -25.6424   24.0443 H   0  0  0  0  0  0
  -26.0063  -25.3519   22.5959 H   0  0  0  0  0  0
  -26.9010  -26.8569   22.7885 H   0  0  0  0  0  0
  -27.2824  -22.6814   18.4308 H   0  0  0  0  0  0
  -27.4485  -20.9892   18.8411 H   0  0  0  0  0  0
  -28.8060  -21.8744   18.1328 H   0  0  0  0  0  0
  -28.2639  -21.7760   22.8916 H   0  0  0  0  0  0
  -29.0748  -20.2426   23.0223 H   0  0  0  0  0  0
  -27.5310  -20.3567   22.1670 H   0  0  0  0  0  0
  -30.7994  -19.3483   18.5867 H   0  0  0  0  0  0
  -31.6590  -19.9522   20.0121 H   0  0  0  0  0  0
  -30.7856  -21.0572   18.9649 H   0  0  0  0  0  0
  -29.2711  -24.0961   19.1862 H   0  0  0  0  0  0
  -29.9796  -23.8896   20.7275 H   0  0  0  0  0  0
  -31.1599  -17.3349   19.9971 H   0  0  0  0  0  0
  -29.6497  -17.2113   19.1550 H   0  0  0  0  0  0
  -30.1361  -18.5887   21.8589 H   0  0  0  0  0  0
  -28.5190  -18.2950   21.2758 H   0  0  0  0  0  0
  -28.1515  -24.0948   22.6620 H   0  0  0  0  0  0
  -27.4967  -22.4527   20.7856 H   0  0  0  0  0  0
  -30.1902  -21.5640   21.3385 H   0  0  0  0  0  0
  -27.0819  -24.7586   20.4838 H   0  0  0  0  0  0
  -28.9288  -15.6017   21.0241 H   0  0  0  0  0  0
  -28.7804  -19.8000   19.5705 H   0  0  0  0  0  0
  1 25  1  0  0  0
  1 30  2  0  0  0
  1 83  1  0  0  0
  2  3  1  0  0  0
  2 25  1  0  0  0
  2 85  1  0  0  0
  2 86  1  0  0  0
  3  4  1  0  0  0
  3 87  1  0  0  0
  3 88  1  0  0  0
  4  5  1  0  0  0
  4 89  1  0  0  0
  4 90  1  0  0  0
  5  6  1  0  0  0
  5 26  1  0  0  0
  5 91  1  0  0  0
  6 25  1  0  0  0
  6 92  1  0  0  0
  6 93  1  0  0  0
  7  8  2  0  0  0
  7 26  1  0  0  0
  7 29  1  0  0  0
  8  9  1  0  0  0
  8 22  1  0  0  0
  9 10  1  0  0  0
  9 27  2  0  0  0
 10 11  2  0  0  0
 10 15  1  0  0  0
 11 12  1  0  0  0
 11 94  1  0  0  0
 12 13  2  0  0  0
 12 95  1  0  0  0
 13 14  1  0  0  0
 13 31  1  0  0  0
 14 15  2  0  0  0
 14 96  1  0  0  0
 15 97  1  0  0  0
 16 17  2  0  0  0
 16 21  1  0  0  0
 16 31  1  0  0  0
 17 18  1  0  0  0
 17 98  1  0  0  0
 18 19  2  0  0  0
 18 99  1  0  0  0
 19 20  1  0  0  0
 19 24  1  0  0  0
 20 21  2  0  0  0
 20100  1  0  0  0
 21 23  1  0  0  0
 22 28  1  0  0  0
 22 32  2  0  0  0
 26 27  1  0  0  0
 28101  1  0  0  0
 28102  1  0  0  0
 29103  1  0  0  0
 29104  1  0  0  0
 33 34  1  0  0  0
 33 66  1  0  0  0
 33 70  2  0  0  0
 34 36  1  0  0  0
 34 59  1  0  0  0
 34105  1  0  0  0
 35 44  2  0  0  0
 35 45  1  0  0  0
 35 68  1  0  0  0
 36 56  1  0  0  0
 36106  1  0  0  0
 37 39  1  0  0  0
 37 47  1  0  0  0
 37 66  1  0  0  0
 37107  1  0  0  0
 38 43  2  0  0  0
 38 46  1  0  0  0
 38 47  1  0  0  0
 39 64  1  0  0  0
 39 67  2  0  0  0
 40 52  1  0  0  0
 40 53  2  0  0  0
 40 58  1  0  0  0
 41108  1  0  0  0
 41109  1  0  0  0
 41110  1  0  0  0
 41 48  1  0  0  0
 42 43  1  0  0  0
 42 66  1  0  0  0
 42111  1  0  0  0
 42112  1  0  0  0
 43 44  1  0  0  0
 44113  1  0  0  0
 45 46  2  0  0  0
 45114  1  0  0  0
 46115  1  0  0  0
 47116  1  0  0  0
 47117  1  0  0  0
 48 56  1  0  0  0
 48 65  1  0  0  0
 48118  1  0  0  0
 49 50  1  0  0  0
 49 53  1  0  0  0
 49 64  1  0  0  0
 49119  1  0  0  0
 50 51  1  0  0  0
 50120  1  0  0  0
 50121  1  0  0  0
 51 52  1  0  0  0
 51122  1  0  0  0
 51123  1  0  0  0
 52124  1  0  0  0
 52125  1  0  0  0
 53 54  1  0  0  0
 54 55  2  0  0  0
 54126  1  0  0  0
 55 57  1  0  0  0
 55127  1  0  0  0
 56 69  2  0  0  0
 57 58  2  0  0  0
 57128  1  0  0  0
 58129  1  0  0  0
 59 60  1  0  0  0
 59 61  1  0  0  0
 59 62  1  0  0  0
 60130  1  0  0  0
 60131  1  0  0  0
 60132  1  0  0  0
 61133  1  0  0  0
 61134  1  0  0  0
 61135  1  0  0  0
 62136  1  0  0  0
 62137  1  0  0  0
 62138  1  0  0  0
 63 65  1  0  0  0
 63139  1  0  0  0
 63140  1  0  0  0
 63141  1  0  0  0
 64142  1  0  0  0
 65143  1  0  0  0
 68 82  1  0  0  0
 71144  1  0  0  0
 71145  1  0  0  0
 71146  1  0  0  0
 71 79  1  0  0  0
 72 79  1  0  0  0
 72147  1  0  0  0
 72148  1  0  0  0
 72149  1  0  0  0
 73150  1  0  0  0
 73151  1  0  0  0
 73152  1  0  0  0
 73 80  1  0  0  0
 74153  1  0  0  0
 74154  1  0  0  0
 74155  1  0  0  0
 74 81  1  0  0  0
 75156  1  0  0  0
 75157  1  0  0  0
 75158  1  0  0  0
 75 84  1  0  0  0
 76 80  1  0  0  0
 76159  1  0  0  0
 76160  1  0  0  0
 76 82  1  0  0  0
 77 78  1  0  0  0
 77 83  1  0  0  0
 77161  1  0  0  0
 77162  1  0  0  0
 78 84  1  0  0  0
 78163  1  0  0  0
 78164  1  0  0  0
 79 82  1  0  0  0
 79165  1  0  0  0
 80 81  1  0  0  0
 80166  1  0  0  0
 81 84  1  0  0  0
 81167  1  0  0  0
 82168  1  0  0  0
 83169  1  0  0  0
 84170  1  0  0  0
M  CHG  1  84   1
M  ISO  4   1 100  68 101  82 101  83 100
M  END
> <chiral flag>
0

> <version>
0

> <s_m_source_file>
/data/baiqing/PycharmProjects/Reinvent-master-3.2/result/LINK_invent/BTK/process_docking_weight1_custom_sum_contain_oxygen_bond_distance_aromatic_linkinvent_7_9_3/rearranged_h_0106.sdf

> <i_m_source_file_index>
7

> <r_mmod_Potential_Energy-OPLS-2005>
38.093936920166

> <r_mmod_Stretch_Energy-OPLS-2005>
112.601936340332

> <r_mmod_Bend_Energy-OPLS-2005>
161.048355102539

> <r_mmod_Torsional_Energy-OPLS-2005>
292.585845947266

> <r_mmod_Improper_Torsional_Energy-OPLS-2005>
6.90304183959961

> <r_mmod_Van_der_Waal_Energy-OPLS-2005>
124.095306396484

> <r_mmod_Electrostatic_Energy-OPLS-2005>
-275.492858886719

> <r_mmod_Solvation_Energy-OPLS-2005>
-444.049163818359

> <b_mmod_Minimization_Converged-OPLS-2005>
0

> <r_mmod_RMS_Derivative-OPLS-2005>
2.10764122009277

$$$$
7
                    3D
 Structure written by MMmdl.
156164  0  0  1  0            999 V2000
  -30.5602  -14.9305   20.4432 C   0  0  0  0  0  0
  -30.4441  -12.5880   19.4791 C   0  0  0  0  0  0
  -29.5179  -12.5168   18.2462 C   0  0  0  0  0  0
  -28.0535  -12.3083   18.6748 C   0  0  0  0  0  0
  -27.6322  -13.2399   19.8401 C   0  0  2  0  0  0
  -28.6774  -13.2563   20.9736 C   0  0  0  0  0  0
  -25.2500  -13.8181   20.5740 C   0  0  0  0  0  0
  -24.1795  -13.0441   20.9229 C   0  0  0  0  0  0
  -24.6369  -11.6903   20.8702 C   0  0  0  0  0  0
  -23.9029  -10.4286   21.0364 C   0  0  0  0  0  0
  -24.3603   -9.4209   21.9151 C   0  0  0  0  0  0
  -23.6303   -8.2235   22.0719 C   0  0  0  0  0  0
  -22.4285   -8.0252   21.3515 C   0  0  0  0  0  0
  -21.9898   -9.0204   20.4613 C   0  0  0  0  0  0
  -22.7186  -10.2103   20.3025 C   0  0  0  0  0  0
  -21.6873   -6.0729   22.5265 C   0  0  0  0  0  0
  -21.4002   -6.5622   23.8192 C   0  0  0  0  0  0
  -21.3675   -5.6772   24.9155 C   0  0  0  0  0  0
  -21.6067   -4.3041   24.7207 C   0  0  0  0  0  0
  -21.8831   -3.8135   23.4325 C   0  0  0  0  0  0
  -21.9188   -4.6957   22.3377 C   0  0  0  0  0  0
  -22.7806  -13.5205   21.1893 C   0  0  0  0  0  0
  -22.1665   -4.2149   21.0957 F   0  0  0  0  0  0
  -21.5649   -3.4523   25.7717 F   0  0  0  0  0  0
  -29.9477  -13.6788   20.3687 N   0  0  0  0  0  0
  -26.2895  -12.9387   20.3240 N   0  0  0  0  0  0
  -25.9299  -11.6522   20.5704 N   0  0  0  0  0  0
  -22.0460  -12.8185   22.0432 N   0  0  0  0  0  0
  -25.4273  -15.1925   20.4254 N   0  0  0  0  0  0
  -31.7683  -14.9774   20.1872 O   0  0  0  0  0  0
  -21.6654   -6.8861   21.4215 O   0  0  0  0  0  0
  -22.3466  -14.5507   20.6732 O   0  0  0  0  0  0
  -24.6438  -31.8377   23.1847 C   0  0  0  0  0  0
  -25.9178  -32.4647   23.8277 C   0  0  1  0  0  0
  -27.2166  -27.0970   20.1542 C   0  0  0  0  0  0
  -25.5895  -33.8466   24.2137 N   0  0  0  0  0  0
  -23.4515  -30.4581   21.5285 C   0  0  2  0  0  0
  -24.9042  -28.8789   20.1058 C   0  0  0  0  0  0
  -22.7565  -29.4523   22.4845 C   0  0  0  0  0  0
  -18.0302  -28.1413   22.8485 C   0  0  0  0  0  0
  -24.1496  -36.7264   23.2647 C   0  0  0  0  0  0
  -26.0096  -30.7029   21.3871 C   0  0  0  0  0  0
  -26.0824  -29.3108   20.7245 C   0  0  0  0  0  0
  -27.2416  -28.4389   20.7245 C   0  0  0  0  0  0
  -26.0101  -26.7782   19.4909 C   0  0  0  0  0  0
  -24.8842  -27.6304   19.4673 C   0  0  0  0  0  0
  -23.6810  -29.7855   20.1470 C   0  0  0  0  0  0
  -25.4124  -36.3003   24.0309 C   0  0  1  0  0  0
  -20.5907  -28.3739   23.1264 C   0  0  2  0  0  0
  -20.6793  -26.9454   22.5412 C   0  0  0  0  0  0
  -19.5768  -26.6401   21.5215 C   0  0  0  0  0  0
  -18.1942  -26.7954   22.1622 C   0  0  0  0  0  0
  -19.1552  -28.8899   23.2858 C   0  0  0  0  0  0
  -18.9465  -30.1498   23.8903 C   0  0  0  0  0  0
  -17.6468  -30.6622   24.0574 C   0  0  0  0  0  0
  -25.9089  -34.9371   23.5039 C   0  0  0  0  0  0
  -16.5363  -29.9133   23.6323 C   0  0  0  0  0  0
  -16.7285  -28.6527   23.0366 C   0  0  0  0  0  0
  -26.4504  -31.6540   25.0732 C   0  0  0  0  0  0
  -25.3703  -31.3689   26.1432 C   0  0  0  0  0  0
  -27.0310  -30.2917   24.6300 C   0  0  0  0  0  0
  -27.6033  -32.4374   25.7470 C   0  0  0  0  0  0
  -27.5587  -37.1768   24.8464 C   0  0  0  0  0  0
  -21.4251  -29.3061   22.3627 N   0  0  0  0  0  0
  -26.4284  -37.3727   23.9436 N   0  0  0  0  0  0
  -24.7208  -31.0220   22.0876 N   0  0  0  0  0  0
  -23.4181  -28.8051   23.3000 O   0  0  0  0  0  0
  -28.2591  -26.0905   20.2372 O   0  0  0  0  0  0
  -26.5718  -34.8886   22.4659 O   0  0  0  0  0  0
  -23.5553  -32.1279   23.7056 O   0  0  0  0  0  0
  -30.8365  -20.4396   21.0900 C   0  0  0  0  0  0
  -31.3862  -18.0113   21.1473 C   0  0  0  0  0  0
  -29.2226  -18.7810   20.3775 C   0  0  0  0  0  0
  -31.7286  -19.3705   21.3748 C   0  0  0  0  0  0
  -29.5420  -20.2278   20.5712 C   0  0  0  0  0  0
  -30.1162  -17.6221   20.6552 C   0  0  0  0  0  0
  -33.0821  -19.6957   21.9923 C   0  0  0  0  0  0
  -27.7114  -21.3020   19.0753 C   0  0  0  0  0  0
  -28.9976  -23.1963   20.3963 C   0  0  0  0  0  0
  -27.9743  -24.5433   20.1354 C   0  0  0  0  0  0
  -28.5549  -21.5470   20.3329 C   0  0  2  0  0  0
  -29.7861  -16.1224   20.5579 N   0  0  0  0  0  0
  -31.4653  -12.7712   19.1479 H   0  0  0  0  0  0
  -30.4640  -11.6308   20.0013 H   0  0  0  0  0  0
  -29.8315  -11.7058   17.5877 H   0  0  0  0  0  0
  -29.6073  -13.4371   17.6679 H   0  0  0  0  0  0
  -27.9549  -11.2651   18.9795 H   0  0  0  0  0  0
  -27.3875  -12.4435   17.8204 H   0  0  0  0  0  0
  -27.6024  -14.2443   19.4193 H   0  0  0  0  0  0
  -28.7665  -12.2689   21.4294 H   0  0  0  0  0  0
  -28.3805  -13.9424   21.7692 H   0  0  0  0  0  0
  -25.2747   -9.5723   22.4722 H   0  0  0  0  0  0
  -24.0052   -7.4618   22.7412 H   0  0  0  0  0  0
  -21.0862   -8.8651   19.8899 H   0  0  0  0  0  0
  -22.3599  -10.9621   19.6143 H   0  0  0  0  0  0
  -21.1975   -7.6130   23.9690 H   0  0  0  0  0  0
  -21.1509   -6.0504   25.9060 H   0  0  0  0  0  0
  -22.0612   -2.7606   23.2798 H   0  0  0  0  0  0
  -22.4129  -11.9907   22.4882 H   0  0  0  0  0  0
  -21.1020  -13.1109   22.2552 H   0  0  0  0  0  0
  -24.6806  -15.8607   20.5877 H   0  0  0  0  0  0
  -26.2976  -15.6275   20.1441 H   0  0  0  0  0  0
  -26.7230  -32.5237   23.0999 H   0  0  0  0  0  0
  -24.9933  -33.9599   25.0197 H   0  0  0  0  0  0
  -22.7564  -31.2846   21.3698 H   0  0  0  0  0  0
  -23.3755  -35.9605   23.3267 H   0  0  0  0  0  0
  -24.3580  -36.8929   22.2066 H   0  0  0  0  0  0
  -23.7237  -37.6441   23.6733 H   0  0  0  0  0  0
  -26.1703  -31.4558   20.6155 H   0  0  0  0  0  0
  -26.8781  -30.7580   22.0320 H   0  0  0  0  0  0
  -28.1458  -28.7677   21.2171 H   0  0  0  0  0  0
  -25.9003  -25.8221   19.0014 H   0  0  0  0  0  0
  -23.9834  -27.3030   18.9664 H   0  0  0  0  0  0
  -23.8309  -30.5612   19.3943 H   0  0  0  0  0  0
  -22.7952  -29.2322   19.8296 H   0  0  0  0  0  0
  -25.1288  -36.1829   25.0796 H   0  0  0  0  0  0
  -20.9992  -28.3322   24.1389 H   0  0  0  0  0  0
  -20.5687  -26.2345   23.3608 H   0  0  0  0  0  0
  -21.6655  -26.7480   22.1192 H   0  0  0  0  0  0
  -19.6941  -25.6290   21.1277 H   0  0  0  0  0  0
  -19.6717  -27.3192   20.6718 H   0  0  0  0  0  0
  -17.4202  -26.6700   21.4036 H   0  0  0  0  0  0
  -18.0374  -26.0093   22.9016 H   0  0  0  0  0  0
  -19.7939  -30.7311   24.2275 H   0  0  0  0  0  0
  -17.5025  -31.6295   24.5195 H   0  0  0  0  0  0
  -15.5368  -30.3059   23.7654 H   0  0  0  0  0  0
  -15.8651  -28.0860   22.7128 H   0  0  0  0  0  0
  -24.5931  -30.6975   25.7746 H   0  0  0  0  0  0
  -24.8843  -32.2819   26.4877 H   0  0  0  0  0  0
  -25.8020  -30.8854   27.0193 H   0  0  0  0  0  0
  -26.2838  -29.6696   24.1341 H   0  0  0  0  0  0
  -27.3879  -29.7195   25.4865 H   0  0  0  0  0  0
  -27.8796  -30.4085   23.9567 H   0  0  0  0  0  0
  -27.2593  -33.3728   26.1912 H   0  0  0  0  0  0
  -28.3846  -32.6862   25.0272 H   0  0  0  0  0  0
  -28.0686  -31.8603   26.5464 H   0  0  0  0  0  0
  -28.2540  -38.0127   24.7564 H   0  0  0  0  0  0
  -28.1131  -36.2650   24.6199 H   0  0  0  0  0  0
  -27.2336  -37.1298   25.8872 H   0  0  0  0  0  0
  -20.9486  -29.8750   21.6762 H   0  0  0  0  0  0
  -26.0130  -38.2780   24.1493 H   0  0  0  0  0  0
  -31.1557  -21.4522   21.2976 H   0  0  0  0  0  0
  -32.1103  -17.2527   21.4104 H   0  0  0  0  0  0
  -28.2428  -18.5354   19.9971 H   0  0  0  0  0  0
  -33.6766  -18.7999   22.1723 H   0  0  0  0  0  0
  -32.9522  -20.1982   22.9516 H   0  0  0  0  0  0
  -33.6682  -20.3512   21.3493 H   0  0  0  0  0  0
  -28.3287  -21.2715   18.1768 H   0  0  0  0  0  0
  -26.9543  -22.0762   18.9463 H   0  0  0  0  0  0
  -27.1700  -20.3572   19.1432 H   0  0  0  0  0  0
  -29.4435  -23.3454   21.3820 H   0  0  0  0  0  0
  -29.8304  -23.3012   19.6984 H   0  0  0  0  0  0
  -27.5973  -24.3950   19.1240 H   0  0  0  0  0  0
  -27.1100  -24.3729   20.7776 H   0  0  0  0  0  0
  -27.8533  -21.4457   21.1605 H   0  0  0  0  0  0
  -28.7981  -15.9241   20.5980 H   0  0  0  0  0  0
  1 25  1  0  0  0
  1 30  2  0  0  0
  1 82  1  0  0  0
  2  3  1  0  0  0
  2 25  1  0  0  0
  2 83  1  0  0  0
  2 84  1  0  0  0
  3  4  1  0  0  0
  3 85  1  0  0  0
  3 86  1  0  0  0
  4  5  1  0  0  0
  4 87  1  0  0  0
  4 88  1  0  0  0
  5  6  1  0  0  0
  5 26  1  0  0  0
  5 89  1  0  0  0
  6 25  1  0  0  0
  6 90  1  0  0  0
  6 91  1  0  0  0
  7  8  2  0  0  0
  7 26  1  0  0  0
  7 29  1  0  0  0
  8  9  1  0  0  0
  8 22  1  0  0  0
  9 10  1  0  0  0
  9 27  2  0  0  0
 10 11  2  0  0  0
 10 15  1  0  0  0
 11 12  1  0  0  0
 11 92  1  0  0  0
 12 13  2  0  0  0
 12 93  1  0  0  0
 13 14  1  0  0  0
 13 31  1  0  0  0
 14 15  2  0  0  0
 14 94  1  0  0  0
 15 95  1  0  0  0
 16 17  2  0  0  0
 16 21  1  0  0  0
 16 31  1  0  0  0
 17 18  1  0  0  0
 17 96  1  0  0  0
 18 19  2  0  0  0
 18 97  1  0  0  0
 19 20  1  0  0  0
 19 24  1  0  0  0
 20 21  2  0  0  0
 20 98  1  0  0  0
 21 23  1  0  0  0
 22 28  1  0  0  0
 22 32  2  0  0  0
 26 27  1  0  0  0
 28 99  1  0  0  0
 28100  1  0  0  0
 29101  1  0  0  0
 29102  1  0  0  0
 33 34  1  0  0  0
 33 66  1  0  0  0
 33 70  2  0  0  0
 34 36  1  0  0  0
 34 59  1  0  0  0
 34103  1  0  0  0
 35 44  2  0  0  0
 35 45  1  0  0  0
 35 68  1  0  0  0
 36 56  1  0  0  0
 36104  1  0  0  0
 37 39  1  0  0  0
 37 47  1  0  0  0
 37 66  1  0  0  0
 37105  1  0  0  0
 38 43  2  0  0  0
 38 46  1  0  0  0
 38 47  1  0  0  0
 39 64  1  0  0  0
 39 67  2  0  0  0
 40 52  1  0  0  0
 40 53  2  0  0  0
 40 58  1  0  0  0
 41106  1  0  0  0
 41107  1  0  0  0
 41108  1  0  0  0
 41 48  1  0  0  0
 42 43  1  0  0  0
 42 66  1  0  0  0
 42109  1  0  0  0
 42110  1  0  0  0
 43 44  1  0  0  0
 44111  1  0  0  0
 45 46  2  0  0  0
 45112  1  0  0  0
 46113  1  0  0  0
 47114  1  0  0  0
 47115  1  0  0  0
 48 56  1  0  0  0
 48 65  1  0  0  0
 48116  1  0  0  0
 49 50  1  0  0  0
 49 53  1  0  0  0
 49 64  1  0  0  0
 49117  1  0  0  0
 50 51  1  0  0  0
 50118  1  0  0  0
 50119  1  0  0  0
 51 52  1  0  0  0
 51120  1  0  0  0
 51121  1  0  0  0
 52122  1  0  0  0
 52123  1  0  0  0
 53 54  1  0  0  0
 54 55  2  0  0  0
 54124  1  0  0  0
 55 57  1  0  0  0
 55125  1  0  0  0
 56 69  2  0  0  0
 57 58  2  0  0  0
 57126  1  0  0  0
 58127  1  0  0  0
 59 60  1  0  0  0
 59 61  1  0  0  0
 59 62  1  0  0  0
 60128  1  0  0  0
 60129  1  0  0  0
 60130  1  0  0  0
 61131  1  0  0  0
 61132  1  0  0  0
 61133  1  0  0  0
 62134  1  0  0  0
 62135  1  0  0  0
 62136  1  0  0  0
 63 65  1  0  0  0
 63137  1  0  0  0
 63138  1  0  0  0
 63139  1  0  0  0
 64140  1  0  0  0
 65141  1  0  0  0
 68 80  1  0  0  0
 71 74  2  0  0  0
 71 75  1  0  0  0
 71142  1  0  0  0
 72 74  1  0  0  0
 72 76  2  0  0  0
 72143  1  0  0  0
 73 75  2  0  0  0
 73 76  1  0  0  0
 73144  1  0  0  0
 74 77  1  0  0  0
 75 81  1  0  0  0
 76 82  1  0  0  0
 77145  1  0  0  0
 77146  1  0  0  0
 77147  1  0  0  0
 78148  1  0  0  0
 78149  1  0  0  0
 78150  1  0  0  0
 78 81  1  0  0  0
 79 80  1  0  0  0
 79 81  1  0  0  0
 79151  1  0  0  0
 79152  1  0  0  0
 80153  1  0  0  0
 80154  1  0  0  0
 81155  1  0  0  0
 82156  1  0  0  0
M  ISO  4   1 100  68 101  80 101  82 100
M  END
> <chiral flag>
0

> <version>
0

> <s_m_source_file>
/data/baiqing/PycharmProjects/Reinvent-master-3.2/result/LINK_invent/BTK/process_docking_weight1_custom_sum_contain_oxygen_bond_distance_aromatic_linkinvent_7_9_3/rearranged_h_0106.sdf

> <i_m_source_file_index>
8

> <r_mmod_Potential_Energy-OPLS-2005>
526.201782226562

> <r_mmod_Stretch_Energy-OPLS-2005>
290.675445556641

> <r_mmod_Bend_Energy-OPLS-2005>
251.91227722168

> <r_mmod_Torsional_Energy-OPLS-2005>
220.743423461914

> <r_mmod_Improper_Torsional_Energy-OPLS-2005>
5.56788539886475

> <r_mmod_Van_der_Waal_Energy-OPLS-2005>
127.233085632324

> <r_mmod_Electrostatic_Energy-OPLS-2005>
-366.482543945312

> <r_mmod_Solvation_Energy-OPLS-2005>
-204.910781860352

> <b_mmod_Minimization_Converged-OPLS-2005>
0

> <r_mmod_RMS_Derivative-OPLS-2005>
5.10705852508545

$$$$
8
                    3D
 Structure written by MMmdl.
178186  0  0  1  0            999 V2000
  -30.5492  -14.8137   20.4524 C   0  0  0  0  0  0
  -30.4481  -12.5060   19.4560 C   0  0  0  0  0  0
  -29.5096  -12.5038   18.2274 C   0  0  0  0  0  0
  -28.0389  -12.3119   18.6528 C   0  0  0  0  0  0
  -27.6367  -13.2240   19.8419 C   0  0  2  0  0  0
  -28.6865  -13.1728   20.9711 C   0  0  0  0  0  0
  -25.2504  -13.8165   20.5683 C   0  0  0  0  0  0
  -24.1799  -13.0426   20.9217 C   0  0  0  0  0  0
  -24.6379  -11.6899   20.8761 C   0  0  0  0  0  0
  -23.9058  -10.4287   21.0422 C   0  0  0  0  0  0
  -24.3608   -9.4199   21.9196 C   0  0  0  0  0  0
  -23.6282   -8.2235   22.0757 C   0  0  0  0  0  0
  -22.4269   -8.0275   21.3537 C   0  0  0  0  0  0
  -21.9904   -9.0252   20.4646 C   0  0  0  0  0  0
  -22.7232  -10.2138   20.3062 C   0  0  0  0  0  0
  -21.6854   -6.0734   22.5274 C   0  0  0  0  0  0
  -21.4014   -6.5640   23.8206 C   0  0  0  0  0  0
  -21.3656   -5.6792   24.9170 C   0  0  0  0  0  0
  -21.6044   -4.3052   24.7227 C   0  0  0  0  0  0
  -21.8819   -3.8143   23.4341 C   0  0  0  0  0  0
  -21.9196   -4.6958   22.3396 C   0  0  0  0  0  0
  -22.7823  -13.5219   21.1886 C   0  0  0  0  0  0
  -22.1667   -4.2142   21.0970 F   0  0  0  0  0  0
  -21.5632   -3.4532   25.7739 F   0  0  0  0  0  0
  -29.9716  -13.5634   20.3744 N   0  0  0  0  0  0
  -26.2913  -12.9357   20.3257 N   0  0  0  0  0  0
  -25.9302  -11.6514   20.5747 N   0  0  0  0  0  0
  -22.0471  -12.8209   22.0440 N   0  0  0  0  0  0
  -25.4189  -15.1888   20.4080 N   0  0  0  0  0  0
  -31.7576  -14.9476   20.2384 O   0  0  0  0  0  0
  -21.6636   -6.8870   21.4233 O   0  0  0  0  0  0
  -22.3527  -14.5540   20.6738 O   0  0  0  0  0  0
  -24.6317  -31.8521   23.1941 C   0  0  0  0  0  0
  -25.9132  -32.4741   23.8299 C   0  0  1  0  0  0
  -27.2337  -27.2287   20.1619 C   0  0  0  0  0  0
  -25.5896  -33.8544   24.2213 N   0  0  0  0  0  0
  -23.4314  -30.4676   21.5398 C   0  0  2  0  0  0
  -24.8819  -28.8944   20.1269 C   0  0  0  0  0  0
  -22.7504  -29.4575   22.4939 C   0  0  0  0  0  0
  -18.0299  -28.1367   22.8496 C   0  0  0  0  0  0
  -24.1493  -36.7282   23.2646 C   0  0  0  0  0  0
  -25.9763  -30.7551   21.3783 C   0  0  0  0  0  0
  -26.0521  -29.3693   20.7324 C   0  0  0  0  0  0
  -27.2306  -28.5532   20.7253 C   0  0  0  0  0  0
  -26.0394  -26.8163   19.5383 C   0  0  0  0  0  0
  -24.8812  -27.6268   19.5197 C   0  0  0  0  0  0
  -23.6530  -29.7872   20.1626 C   0  0  0  0  0  0
  -25.4131  -36.3069   24.0312 C   0  0  1  0  0  0
  -20.5901  -28.3687   23.1274 C   0  0  2  0  0  0
  -20.6787  -26.9406   22.5413 C   0  0  0  0  0  0
  -19.5770  -26.6372   21.5212 C   0  0  0  0  0  0
  -18.1949  -26.7915   22.1624 C   0  0  0  0  0  0
  -19.1550  -28.8847   23.2881 C   0  0  0  0  0  0
  -18.9466  -30.1443   23.8903 C   0  0  0  0  0  0
  -17.6462  -30.6569   24.0560 C   0  0  0  0  0  0
  -25.9059  -34.9436   23.5081 C   0  0  0  0  0  0
  -16.5355  -29.9064   23.6333 C   0  0  0  0  0  0
  -16.7282  -28.6474   23.0358 C   0  0  0  0  0  0
  -26.4497  -31.6575   25.0695 C   0  0  0  0  0  0
  -25.3690  -31.3720   26.1385 C   0  0  0  0  0  0
  -27.0363  -30.3000   24.6199 C   0  0  0  0  0  0
  -27.6056  -32.4337   25.7448 C   0  0  0  0  0  0
  -27.5588  -37.1791   24.8461 C   0  0  0  0  0  0
  -21.4212  -29.3031   22.3660 N   0  0  0  0  0  0
  -26.4313  -37.3752   23.9389 N   0  0  0  0  0  0
  -24.6988  -31.0454   22.0935 N   0  0  0  0  0  0
  -23.4194  -28.8147   23.3075 O   0  0  0  0  0  0
  -28.3919  -26.4188   20.0729 O   0  0  0  0  0  0
  -26.5666  -34.8923   22.4669 O   0  0  0  0  0  0
  -23.5456  -32.1371   23.7201 O   0  0  0  0  0  0
  -29.1804  -21.2474   20.5349 C   0  0  0  0  0  0
  -28.2678  -22.1324   19.9239 C   0  0  0  0  0  0
  -27.6695  -21.2894   18.9218 C   0  0  0  0  0  0
  -28.2189  -20.0209   18.9439 C   0  0  0  0  0  0
  -26.5853  -21.7451   17.9661 C   0  0  0  0  0  0
  -26.5401  -23.5973   21.1077 C   0  0  0  0  0  0
  -30.7023  -16.3103   14.7393 C   0  0  0  0  0  0
  -30.1676  -18.6608   14.0785 C   0  0  0  0  0  0
  -31.6468  -18.2041   16.0712 C   0  0  0  0  0  0
  -27.9591  -18.8574   18.0220 C   0  0  0  0  0  0
  -30.1095  -18.6988   20.1548 C   0  0  0  0  0  0
  -29.7616  -17.3747   21.0491 C   0  0  0  0  0  0
  -29.1657  -17.6504   16.2032 C   0  0  0  0  0  0
  -28.6019  -24.9767   20.5194 C   0  0  0  0  0  0
  -27.7308  -23.6630   20.1383 C   0  0  1  0  0  0
  -30.4107  -17.7247   15.2801 C   0  0  0  0  0  0
  -29.1769  -19.9297   19.9498 N   0  0  0  0  0  0
  -29.6845  -15.9060   20.5570 N   0  0  0  0  0  0
  -28.8452  -18.9445   16.8443 N   0  3  0  0  0  0
  -31.4784  -12.6790   19.1390 H   0  0  0  0  0  0
  -30.4413  -11.5350   19.9534 H   0  0  0  0  0  0
  -29.8003  -11.7137   17.5333 H   0  0  0  0  0  0
  -29.6130  -13.4430   17.6820 H   0  0  0  0  0  0
  -27.9149  -11.2659   18.9365 H   0  0  0  0  0  0
  -27.3722  -12.4760   17.8047 H   0  0  0  0  0  0
  -27.6212  -14.2396   19.4454 H   0  0  0  0  0  0
  -28.7477  -12.1726   21.4026 H   0  0  0  0  0  0
  -28.4107  -13.8427   21.7875 H   0  0  0  0  0  0
  -25.2750   -9.5688   22.4771 H   0  0  0  0  0  0
  -23.9997   -7.4632   22.7475 H   0  0  0  0  0  0
  -21.0838   -8.8766   19.8948 H   0  0  0  0  0  0
  -22.3682  -10.9675   19.6173 H   0  0  0  0  0  0
  -21.1999   -7.6150   23.9706 H   0  0  0  0  0  0
  -21.1483   -6.0523   25.9076 H   0  0  0  0  0  0
  -22.0602   -2.7603   23.2843 H   0  0  0  0  0  0
  -22.4093  -11.9861   22.4795 H   0  0  0  0  0  0
  -21.1089  -13.1234   22.2652 H   0  0  0  0  0  0
  -24.6460  -15.8352   20.5186 H   0  0  0  0  0  0
  -26.2538  -15.6317   20.0526 H   0  0  0  0  0  0
  -26.7199  -32.5397   23.1037 H   0  0  0  0  0  0
  -24.9942  -33.9659   25.0289 H   0  0  0  0  0  0
  -22.7283  -31.2895   21.3870 H   0  0  0  0  0  0
  -23.3759  -35.9604   23.3301 H   0  0  0  0  0  0
  -24.3571  -36.8928   22.2063 H   0  0  0  0  0  0
  -23.7257  -37.6472   23.6702 H   0  0  0  0  0  0
  -26.1144  -31.5113   20.6045 H   0  0  0  0  0  0
  -26.8506  -30.8115   22.0139 H   0  0  0  0  0  0
  -28.1384  -28.9307   21.1743 H   0  0  0  0  0  0
  -25.9994  -25.8542   19.0483 H   0  0  0  0  0  0
  -23.9860  -27.2581   19.0374 H   0  0  0  0  0  0
  -23.7811  -30.5543   19.3978 H   0  0  0  0  0  0
  -22.7712  -29.2161   19.8657 H   0  0  0  0  0  0
  -25.1326  -36.1905   25.0804 H   0  0  0  0  0  0
  -20.9999  -28.3279   24.1395 H   0  0  0  0  0  0
  -20.5694  -26.2288   23.3617 H   0  0  0  0  0  0
  -21.6654  -26.7431   22.1208 H   0  0  0  0  0  0
  -19.6909  -25.6280   21.1246 H   0  0  0  0  0  0
  -19.6695  -27.3186   20.6747 H   0  0  0  0  0  0
  -17.4221  -26.6675   21.4020 H   0  0  0  0  0  0
  -18.0329  -26.0033   22.8999 H   0  0  0  0  0  0
  -19.7943  -30.7257   24.2272 H   0  0  0  0  0  0
  -17.5019  -31.6256   24.5157 H   0  0  0  0  0  0
  -15.5359  -30.2959   23.7641 H   0  0  0  0  0  0
  -15.8686  -28.0786   22.7072 H   0  0  0  0  0  0
  -24.5879  -30.7076   25.7670 H   0  0  0  0  0  0
  -24.8844  -32.2879   26.4796 H   0  0  0  0  0  0
  -25.7961  -30.8887   27.0181 H   0  0  0  0  0  0
  -26.2948  -29.6698   24.1270 H   0  0  0  0  0  0
  -27.4106  -29.7328   25.4727 H   0  0  0  0  0  0
  -27.8800  -30.4278   23.9409 H   0  0  0  0  0  0
  -27.2697  -33.3690   26.1952 H   0  0  0  0  0  0
  -28.3881  -32.6812   25.0258 H   0  0  0  0  0  0
  -28.0701  -31.8498   26.5407 H   0  0  0  0  0  0
  -28.2610  -38.0087   24.7530 H   0  0  0  0  0  0
  -28.1098  -36.2627   24.6295 H   0  0  0  0  0  0
  -27.2291  -37.1430   25.8856 H   0  0  0  0  0  0
  -20.9407  -29.8711   21.6831 H   0  0  0  0  0  0
  -26.0196  -38.2824   24.1388 H   0  0  0  0  0  0
  -29.8643  -21.4441   21.3517 H   0  0  0  0  0  0
  -25.7564  -22.1966   18.5107 H   0  0  0  0  0  0
  -26.1703  -20.9282   17.3777 H   0  0  0  0  0  0
  -26.9780  -22.4883   17.2721 H   0  0  0  0  0  0
  -25.7843  -22.8901   20.7674 H   0  0  0  0  0  0
  -26.0573  -24.5676   21.2217 H   0  0  0  0  0  0
  -26.8672  -23.2772   22.0980 H   0  0  0  0  0  0
  -31.5865  -16.3013   14.0990 H   0  0  0  0  0  0
  -29.8701  -15.9269   14.1469 H   0  0  0  0  0  0
  -30.8837  -15.5987   15.5467 H   0  0  0  0  0  0
  -31.0033  -18.6257   13.3775 H   0  0  0  0  0  0
  -30.0540  -19.7021   14.3815 H   0  0  0  0  0  0
  -29.2718  -18.3786   13.5227 H   0  0  0  0  0  0
  -32.5522  -18.1475   15.4648 H   0  0  0  0  0  0
  -31.8186  -17.5928   16.9591 H   0  0  0  0  0  0
  -31.5526  -19.2407   16.3972 H   0  0  0  0  0  0
  -26.9178  -18.8305   17.6978 H   0  0  0  0  0  0
  -28.1117  -17.9190   18.5561 H   0  0  0  0  0  0
  -30.4385  -18.3563   19.1755 H   0  0  0  0  0  0
  -31.0236  -19.1119   20.5820 H   0  0  0  0  0  0
  -28.8086  -17.5708   21.5422 H   0  0  0  0  0  0
  -30.4793  -17.3589   21.8711 H   0  0  0  0  0  0
  -29.3547  -16.9056   16.9774 H   0  0  0  0  0  0
  -28.2912  -17.3002   15.6533 H   0  0  0  0  0  0
  -29.6050  -24.7619   20.1502 H   0  0  0  0  0  0
  -28.7229  -24.9953   21.6039 H   0  0  0  0  0  0
  -27.3327  -23.9343   19.1628 H   0  0  0  0  0  0
  -28.7295  -15.5831   20.5301 H   0  0  0  0  0  0
  -29.7035  -19.3687   17.1524 H   0  0  0  0  0  0
  -28.4299  -19.5633   16.1673 H   0  0  0  0  0  0
  1 25  1  0  0  0
  1 30  2  0  0  0
  1 88  1  0  0  0
  2  3  1  0  0  0
  2 25  1  0  0  0
  2 90  1  0  0  0
  2 91  1  0  0  0
  3  4  1  0  0  0
  3 92  1  0  0  0
  3 93  1  0  0  0
  4  5  1  0  0  0
  4 94  1  0  0  0
  4 95  1  0  0  0
  5  6  1  0  0  0
  5 26  1  0  0  0
  5 96  1  0  0  0
  6 25  1  0  0  0
  6 97  1  0  0  0
  6 98  1  0  0  0
  7  8  2  0  0  0
  7 26  1  0  0  0
  7 29  1  0  0  0
  8  9  1  0  0  0
  8 22  1  0  0  0
  9 10  1  0  0  0
  9 27  2  0  0  0
 10 11  2  0  0  0
 10 15  1  0  0  0
 11 12  1  0  0  0
 11 99  1  0  0  0
 12 13  2  0  0  0
 12100  1  0  0  0
 13 14  1  0  0  0
 13 31  1  0  0  0
 14 15  2  0  0  0
 14101  1  0  0  0
 15102  1  0  0  0
 16 17  2  0  0  0
 16 21  1  0  0  0
 16 31  1  0  0  0
 17 18  1  0  0  0
 17103  1  0  0  0
 18 19  2  0  0  0
 18104  1  0  0  0
 19 20  1  0  0  0
 19 24  1  0  0  0
 20 21  2  0  0  0
 20105  1  0  0  0
 21 23  1  0  0  0
 22 28  1  0  0  0
 22 32  2  0  0  0
 26 27  1  0  0  0
 28106  1  0  0  0
 28107  1  0  0  0
 29108  1  0  0  0
 29109  1  0  0  0
 33 34  1  0  0  0
 33 66  1  0  0  0
 33 70  2  0  0  0
 34 36  1  0  0  0
 34 59  1  0  0  0
 34110  1  0  0  0
 35 44  2  0  0  0
 35 45  1  0  0  0
 35 68  1  0  0  0
 36 56  1  0  0  0
 36111  1  0  0  0
 37 39  1  0  0  0
 37 47  1  0  0  0
 37 66  1  0  0  0
 37112  1  0  0  0
 38 43  2  0  0  0
 38 46  1  0  0  0
 38 47  1  0  0  0
 39 64  1  0  0  0
 39 67  2  0  0  0
 40 52  1  0  0  0
 40 53  2  0  0  0
 40 58  1  0  0  0
 41113  1  0  0  0
 41114  1  0  0  0
 41115  1  0  0  0
 41 48  1  0  0  0
 42 43  1  0  0  0
 42 66  1  0  0  0
 42116  1  0  0  0
 42117  1  0  0  0
 43 44  1  0  0  0
 44118  1  0  0  0
 45 46  2  0  0  0
 45119  1  0  0  0
 46120  1  0  0  0
 47121  1  0  0  0
 47122  1  0  0  0
 48 56  1  0  0  0
 48 65  1  0  0  0
 48123  1  0  0  0
 49 50  1  0  0  0
 49 53  1  0  0  0
 49 64  1  0  0  0
 49124  1  0  0  0
 50 51  1  0  0  0
 50125  1  0  0  0
 50126  1  0  0  0
 51 52  1  0  0  0
 51127  1  0  0  0
 51128  1  0  0  0
 52129  1  0  0  0
 52130  1  0  0  0
 53 54  1  0  0  0
 54 55  2  0  0  0
 54131  1  0  0  0
 55 57  1  0  0  0
 55132  1  0  0  0
 56 69  2  0  0  0
 57 58  2  0  0  0
 57133  1  0  0  0
 58134  1  0  0  0
 59 60  1  0  0  0
 59 61  1  0  0  0
 59 62  1  0  0  0
 60135  1  0  0  0
 60136  1  0  0  0
 60137  1  0  0  0
 61138  1  0  0  0
 61139  1  0  0  0
 61140  1  0  0  0
 62141  1  0  0  0
 62142  1  0  0  0
 62143  1  0  0  0
 63 65  1  0  0  0
 63144  1  0  0  0
 63145  1  0  0  0
 63146  1  0  0  0
 64147  1  0  0  0
 65148  1  0  0  0
 68 84  1  0  0  0
 71 72  2  0  0  0
 71 87  1  0  0  0
 71149  1  0  0  0
 72 73  1  0  0  0
 72 85  1  0  0  0
 73 74  2  0  0  0
 73 75  1  0  0  0
 74 80  1  0  0  0
 74 87  1  0  0  0
 75150  1  0  0  0
 75151  1  0  0  0
 75152  1  0  0  0
 76153  1  0  0  0
 76154  1  0  0  0
 76155  1  0  0  0
 76 85  1  0  0  0
 77156  1  0  0  0
 77157  1  0  0  0
 77158  1  0  0  0
 77 86  1  0  0  0
 78 86  1  0  0  0
 78159  1  0  0  0
 78160  1  0  0  0
 78161  1  0  0  0
 79 86  1  0  0  0
 79162  1  0  0  0
 79163  1  0  0  0
 79164  1  0  0  0
 80 89  1  0  0  0
 80165  1  0  0  0
 80166  1  0  0  0
 81 82  1  0  0  0
 81 87  1  0  0  0
 81167  1  0  0  0
 81168  1  0  0  0
 82 88  1  0  0  0
 82169  1  0  0  0
 82170  1  0  0  0
 83 86  1  0  0  0
 83 89  1  0  0  0
 83171  1  0  0  0
 83172  1  0  0  0
 84 85  1  0  0  0
 84173  1  0  0  0
 84174  1  0  0  0
 85175  1  0  0  0
 88176  1  0  0  0
 89177  1  0  0  0
 89178  1  0  0  0
M  CHG  1  89   1
M  ISO  4   1 100  68 101  84 101  88 100
M  END
> <chiral flag>
0

> <version>
0

> <s_m_source_file>
/data/baiqing/PycharmProjects/Reinvent-master-3.2/result/LINK_invent/BTK/process_docking_weight1_custom_sum_contain_oxygen_bond_distance_aromatic_linkinvent_7_9_3/rearranged_h_0106.sdf

> <i_m_source_file_index>
9

> <r_mmod_Potential_Energy-OPLS-2005>
145.61701965332

> <r_mmod_Stretch_Energy-OPLS-2005>
160.073944091797

> <r_mmod_Bend_Energy-OPLS-2005>
292.828674316406

> <r_mmod_Torsional_Energy-OPLS-2005>
275.575988769531

> <r_mmod_Improper_Torsional_Energy-OPLS-2005>
7.68410873413086

> <r_mmod_Van_der_Waal_Energy-OPLS-2005>
98.0998458862305

> <r_mmod_Electrostatic_Energy-OPLS-2005>
-344.434112548828

> <r_mmod_Solvation_Energy-OPLS-2005>
-450.469451904297

> <b_mmod_Minimization_Converged-OPLS-2005>
0

> <r_mmod_RMS_Derivative-OPLS-2005>
2.30909299850464

$$$$
9
                    3D
 Structure written by MMmdl.
166174  0  0  1  0            999 V2000
  -30.6245  -14.7909   20.5383 C   0  0  0  0  0  0
  -30.4406  -12.4989   19.4901 C   0  0  0  0  0  0
  -29.5157  -12.5336   18.2524 C   0  0  0  0  0  0
  -28.0453  -12.3374   18.6652 C   0  0  0  0  0  0
  -27.6465  -13.2378   19.8643 C   0  0  2  0  0  0
  -28.6923  -13.1677   21.0015 C   0  0  0  0  0  0
  -25.2445  -13.8130   20.5572 C   0  0  0  0  0  0
  -24.1773  -13.0373   20.9198 C   0  0  0  0  0  0
  -24.6417  -11.6882   20.8766 C   0  0  0  0  0  0
  -23.9091  -10.4254   21.0411 C   0  0  0  0  0  0
  -24.3622   -9.4174   21.9195 C   0  0  0  0  0  0
  -23.6275   -8.2226   22.0762 C   0  0  0  0  0  0
  -22.4264   -8.0274   21.3541 C   0  0  0  0  0  0
  -21.9920   -9.0249   20.4643 C   0  0  0  0  0  0
  -22.7265  -10.2116   20.3052 C   0  0  0  0  0  0
  -21.6833   -6.0735   22.5277 C   0  0  0  0  0  0
  -21.4008   -6.5639   23.8215 C   0  0  0  0  0  0
  -21.3657   -5.6786   24.9172 C   0  0  0  0  0  0
  -21.6037   -4.3050   24.7216 C   0  0  0  0  0  0
  -21.8821   -3.8150   23.4332 C   0  0  0  0  0  0
  -21.9191   -4.6968   22.3389 C   0  0  0  0  0  0
  -22.7804  -13.5162   21.1845 C   0  0  0  0  0  0
  -22.1659   -4.2155   21.0964 F   0  0  0  0  0  0
  -21.5627   -3.4535   25.7729 F   0  0  0  0  0  0
  -29.9937  -13.5568   20.4390 N   0  0  0  0  0  0
  -26.2950  -12.9401   20.3331 N   0  0  0  0  0  0
  -25.9361  -11.6536   20.5821 N   0  0  0  0  0  0
  -22.0440  -12.8157   22.0421 N   0  0  0  0  0  0
  -25.3940  -15.1793   20.3673 N   0  0  0  0  0  0
  -31.7464  -14.8937   20.0326 O   0  0  0  0  0  0
  -21.6617   -6.8876   21.4242 O   0  0  0  0  0  0
  -22.3494  -14.5464   20.6688 O   0  0  0  0  0  0
  -24.6339  -31.8529   23.1956 C   0  0  0  0  0  0
  -25.9168  -32.4722   23.8311 C   0  0  1  0  0  0
  -27.2231  -27.2328   20.1409 C   0  0  0  0  0  0
  -25.5953  -33.8529   24.2241 N   0  0  0  0  0  0
  -23.4307  -30.4740   21.5394 C   0  0  2  0  0  0
  -24.8782  -28.9176   20.1075 C   0  0  0  0  0  0
  -22.7522  -29.4578   22.4904 C   0  0  0  0  0  0
  -18.0308  -28.1368   22.8455 C   0  0  0  0  0  0
  -24.1506  -36.7282   23.2642 C   0  0  0  0  0  0
  -25.9763  -30.7561   21.3786 C   0  0  0  0  0  0
  -26.0510  -29.3749   20.7246 C   0  0  0  0  0  0
  -27.2213  -28.5437   20.7346 C   0  0  0  0  0  0
  -26.0265  -26.8583   19.4805 C   0  0  0  0  0  0
  -24.8719  -27.6645   19.4773 C   0  0  0  0  0  0
  -23.6492  -29.8066   20.1564 C   0  0  0  0  0  0
  -25.4114  -36.3034   24.0318 C   0  0  1  0  0  0
  -20.5905  -28.3690   23.1245 C   0  0  2  0  0  0
  -20.6793  -26.9408   22.5389 C   0  0  0  0  0  0
  -19.5769  -26.6377   21.5190 C   0  0  0  0  0  0
  -18.1950  -26.7911   22.1602 C   0  0  0  0  0  0
  -19.1556  -28.8850   23.2841 C   0  0  0  0  0  0
  -18.9491  -30.1454   23.8846 C   0  0  0  0  0  0
  -17.6488  -30.6570   24.0558 C   0  0  0  0  0  0
  -25.9057  -34.9418   23.5077 C   0  0  0  0  0  0
  -16.5375  -29.9058   23.6347 C   0  0  0  0  0  0
  -16.7299  -28.6486   23.0331 C   0  0  0  0  0  0
  -26.4525  -31.6550   25.0722 C   0  0  0  0  0  0
  -25.3741  -31.3698   26.1436 C   0  0  0  0  0  0
  -27.0424  -30.2974   24.6219 C   0  0  0  0  0  0
  -27.6054  -32.4311   25.7516 C   0  0  0  0  0  0
  -27.5567  -37.1781   24.8452 C   0  0  0  0  0  0
  -21.4229  -29.3035   22.3644 N   0  0  0  0  0  0
  -26.4283  -37.3726   23.9402 N   0  0  0  0  0  0
  -24.6986  -31.0469   22.0944 N   0  0  0  0  0  0
  -23.4232  -28.8124   23.3001 O   0  0  0  0  0  0
  -28.3092  -26.3149   20.2344 O   0  0  0  0  0  0
  -26.5651  -34.8897   22.4660 O   0  0  0  0  0  0
  -23.5484  -32.1368   23.7241 O   0  0  0  0  0  0
  -29.0565  -22.3812   19.2852 C   0  0  0  0  0  0
  -28.5170  -22.8252   21.6538 C   0  0  0  0  0  0
  -29.6550  -20.9359   19.6684 C   0  0  0  0  0  0
  -29.1371  -21.4048   21.9947 C   0  0  0  0  0  0
  -29.0056  -23.5537   20.3586 C   0  0  2  0  0  0
  -28.9748  -20.2631   20.9082 C   0  0  2  0  0  0
  -27.0229  -17.7194   21.6087 C   0  0  0  0  0  0
  -30.9807  -16.2694   22.5402 C   0  0  0  0  0  0
  -28.0844  -24.8491   19.9245 C   0  0  0  0  0  0
  -28.2266  -18.3562   22.3282 C   0  0  0  0  0  0
  -29.8768  -17.6091   20.5717 C   0  0  0  0  0  0
  -30.0571  -16.1163   21.3037 C   0  0  1  0  0  0
  -29.3313  -18.8116   21.4197 N   0  3  1  0  0  0
  -31.4772  -12.6275   19.1780 H   0  0  0  0  0  0
  -30.4046  -11.5185   19.9682 H   0  0  0  0  0  0
  -29.8091  -11.7645   17.5368 H   0  0  0  0  0  0
  -29.6317  -13.4890   17.7415 H   0  0  0  0  0  0
  -27.9175  -11.2898   18.9385 H   0  0  0  0  0  0
  -27.3848  -12.5124   17.8161 H   0  0  0  0  0  0
  -27.6423  -14.2618   19.4910 H   0  0  0  0  0  0
  -28.7431  -12.1569   21.4098 H   0  0  0  0  0  0
  -28.4042  -13.8032   21.8376 H   0  0  0  0  0  0
  -25.2759   -9.5647   22.4781 H   0  0  0  0  0  0
  -23.9962   -7.4624   22.7495 H   0  0  0  0  0  0
  -21.0854   -8.8774   19.8945 H   0  0  0  0  0  0
  -22.3727  -10.9650   19.6158 H   0  0  0  0  0  0
  -21.2001   -7.6151   23.9714 H   0  0  0  0  0  0
  -21.1472   -6.0517   25.9070 H   0  0  0  0  0  0
  -22.0601   -2.7613   23.2823 H   0  0  0  0  0  0
  -22.4030  -11.9803   22.4790 H   0  0  0  0  0  0
  -21.1077  -13.1224   22.2629 H   0  0  0  0  0  0
  -24.5886  -15.7938   20.3985 H   0  0  0  0  0  0
  -26.1877  -15.5935   19.8997 H   0  0  0  0  0  0
  -26.7244  -32.5380   23.1056 H   0  0  0  0  0  0
  -25.0080  -33.9635   25.0370 H   0  0  0  0  0  0
  -22.7281  -31.2971   21.3916 H   0  0  0  0  0  0
  -23.3743  -35.9642   23.3295 H   0  0  0  0  0  0
  -24.3592  -36.8931   22.2058 H   0  0  0  0  0  0
  -23.7298  -37.6487   23.6695 H   0  0  0  0  0  0
  -26.1095  -31.5103   20.6022 H   0  0  0  0  0  0
  -26.8550  -30.8112   22.0092 H   0  0  0  0  0  0
  -28.1131  -28.8795   21.2482 H   0  0  0  0  0  0
  -25.9422  -25.9069   18.9773 H   0  0  0  0  0  0
  -23.9731  -27.3058   18.9922 H   0  0  0  0  0  0
  -23.7708  -30.5802   19.3979 H   0  0  0  0  0  0
  -22.7659  -29.2390   19.8581 H   0  0  0  0  0  0
  -25.1288  -36.1867   25.0804 H   0  0  0  0  0  0
  -20.9983  -28.3280   24.1364 H   0  0  0  0  0  0
  -20.5702  -26.2302   23.3596 H   0  0  0  0  0  0
  -21.6664  -26.7439   22.1171 H   0  0  0  0  0  0
  -19.6955  -25.6292   21.1220 H   0  0  0  0  0  0
  -19.6705  -27.3199   20.6730 H   0  0  0  0  0  0
  -17.4216  -26.6666   21.4007 H   0  0  0  0  0  0
  -18.0333  -26.0049   22.8993 H   0  0  0  0  0  0
  -19.7991  -30.7265   24.2180 H   0  0  0  0  0  0
  -17.5068  -31.6251   24.5178 H   0  0  0  0  0  0
  -15.5380  -30.2939   23.7715 H   0  0  0  0  0  0
  -15.8708  -28.0829   22.7015 H   0  0  0  0  0  0
  -24.5922  -30.7034   25.7761 H   0  0  0  0  0  0
  -24.8923  -32.2873   26.4834 H   0  0  0  0  0  0
  -25.8042  -30.8902   27.0239 H   0  0  0  0  0  0
  -26.3051  -29.6654   24.1249 H   0  0  0  0  0  0
  -27.4135  -29.7277   25.4744 H   0  0  0  0  0  0
  -27.8894  -30.4254   23.9474 H   0  0  0  0  0  0
  -27.2646  -33.3635   26.2016 H   0  0  0  0  0  0
  -28.3904  -32.6811   25.0376 H   0  0  0  0  0  0
  -28.0666  -31.8487   26.5490 H   0  0  0  0  0  0
  -28.2522  -38.0131   24.7499 H   0  0  0  0  0  0
  -28.1124  -36.2648   24.6276 H   0  0  0  0  0  0
  -27.2289  -37.1404   25.8856 H   0  0  0  0  0  0
  -20.9440  -29.8778   21.6851 H   0  0  0  0  0  0
  -26.0164  -38.2795   24.1419 H   0  0  0  0  0  0
  -28.0336  -22.2282   18.9394 H   0  0  0  0  0  0
  -29.5921  -22.7526   18.4115 H   0  0  0  0  0  0
  -28.6765  -23.4933   22.5028 H   0  0  0  0  0  0
  -27.4356  -22.7031   21.5828 H   0  0  0  0  0  0
  -30.7306  -21.0172   19.8332 H   0  0  0  0  0  0
  -29.5377  -20.2817   18.8050 H   0  0  0  0  0  0
  -28.6910  -21.1025   22.9403 H   0  0  0  0  0  0
  -30.1968  -21.5349   22.2210 H   0  0  0  0  0  0
  -30.0277  -23.9038   20.5115 H   0  0  0  0  0  0
  -27.9154  -20.2177   20.6511 H   0  0  0  0  0  0
  -27.3166  -16.9755   20.8720 H   0  0  0  0  0  0
  -26.4072  -18.4614   21.1011 H   0  0  0  0  0  0
  -26.3895  -17.2084   22.3367 H   0  0  0  0  0  0
  -30.6730  -17.0593   23.2205 H   0  0  0  0  0  0
  -32.0081  -16.4885   22.2501 H   0  0  0  0  0  0
  -31.0031  -15.3502   23.1272 H   0  0  0  0  0  0
  -27.0867  -24.5984   20.2852 H   0  0  0  0  0  0
  -28.0063  -24.8188   18.8372 H   0  0  0  0  0  0
  -28.6068  -17.6521   23.0633 H   0  0  0  0  0  0
  -27.8408  -19.1741   22.9356 H   0  0  0  0  0  0
  -29.2278  -17.4933   19.7016 H   0  0  0  0  0  0
  -30.8382  -17.9138   20.1557 H   0  0  0  0  0  0
  -29.0786  -15.8349   21.6807 H   0  0  0  0  0  0
  -30.1089  -18.9908   22.0412 H   0  0  0  0  0  0
  1 25  1  0  0  0
  1 30  2  0  0  0
  1 82  1  0  0  0
  2  3  1  0  0  0
  2 25  1  0  0  0
  2 84  1  0  0  0
  2 85  1  0  0  0
  3  4  1  0  0  0
  3 86  1  0  0  0
  3 87  1  0  0  0
  4  5  1  0  0  0
  4 88  1  0  0  0
  4 89  1  0  0  0
  5  6  1  0  0  0
  5 26  1  0  0  0
  5 90  1  0  0  0
  6 25  1  0  0  0
  6 91  1  0  0  0
  6 92  1  0  0  0
  7  8  2  0  0  0
  7 26  1  0  0  0
  7 29  1  0  0  0
  8  9  1  0  0  0
  8 22  1  0  0  0
  9 10  1  0  0  0
  9 27  2  0  0  0
 10 11  2  0  0  0
 10 15  1  0  0  0
 11 12  1  0  0  0
 11 93  1  0  0  0
 12 13  2  0  0  0
 12 94  1  0  0  0
 13 14  1  0  0  0
 13 31  1  0  0  0
 14 15  2  0  0  0
 14 95  1  0  0  0
 15 96  1  0  0  0
 16 17  2  0  0  0
 16 21  1  0  0  0
 16 31  1  0  0  0
 17 18  1  0  0  0
 17 97  1  0  0  0
 18 19  2  0  0  0
 18 98  1  0  0  0
 19 20  1  0  0  0
 19 24  1  0  0  0
 20 21  2  0  0  0
 20 99  1  0  0  0
 21 23  1  0  0  0
 22 28  1  0  0  0
 22 32  2  0  0  0
 26 27  1  0  0  0
 28100  1  0  0  0
 28101  1  0  0  0
 29102  1  0  0  0
 29103  1  0  0  0
 33 34  1  0  0  0
 33 66  1  0  0  0
 33 70  2  0  0  0
 34 36  1  0  0  0
 34 59  1  0  0  0
 34104  1  0  0  0
 35 44  2  0  0  0
 35 45  1  0  0  0
 35 68  1  0  0  0
 36 56  1  0  0  0
 36105  1  0  0  0
 37 39  1  0  0  0
 37 47  1  0  0  0
 37 66  1  0  0  0
 37106  1  0  0  0
 38 43  2  0  0  0
 38 46  1  0  0  0
 38 47  1  0  0  0
 39 64  1  0  0  0
 39 67  2  0  0  0
 40 52  1  0  0  0
 40 53  2  0  0  0
 40 58  1  0  0  0
 41107  1  0  0  0
 41108  1  0  0  0
 41109  1  0  0  0
 41 48  1  0  0  0
 42 43  1  0  0  0
 42 66  1  0  0  0
 42110  1  0  0  0
 42111  1  0  0  0
 43 44  1  0  0  0
 44112  1  0  0  0
 45 46  2  0  0  0
 45113  1  0  0  0
 46114  1  0  0  0
 47115  1  0  0  0
 47116  1  0  0  0
 48 56  1  0  0  0
 48 65  1  0  0  0
 48117  1  0  0  0
 49 50  1  0  0  0
 49 53  1  0  0  0
 49 64  1  0  0  0
 49118  1  0  0  0
 50 51  1  0  0  0
 50119  1  0  0  0
 50120  1  0  0  0
 51 52  1  0  0  0
 51121  1  0  0  0
 51122  1  0  0  0
 52123  1  0  0  0
 52124  1  0  0  0
 53 54  1  0  0  0
 54 55  2  0  0  0
 54125  1  0  0  0
 55 57  1  0  0  0
 55126  1  0  0  0
 56 69  2  0  0  0
 57 58  2  0  0  0
 57127  1  0  0  0
 58128  1  0  0  0
 59 60  1  0  0  0
 59 61  1  0  0  0
 59 62  1  0  0  0
 60129  1  0  0  0
 60130  1  0  0  0
 60131  1  0  0  0
 61132  1  0  0  0
 61133  1  0  0  0
 61134  1  0  0  0
 62135  1  0  0  0
 62136  1  0  0  0
 62137  1  0  0  0
 63 65  1  0  0  0
 63138  1  0  0  0
 63139  1  0  0  0
 63140  1  0  0  0
 64141  1  0  0  0
 65142  1  0  0  0
 68 79  1  0  0  0
 71 73  1  0  0  0
 71 75  1  0  0  0
 71143  1  0  0  0
 71144  1  0  0  0
 72 74  1  0  0  0
 72 75  1  0  0  0
 72145  1  0  0  0
 72146  1  0  0  0
 73147  1  0  0  0
 73148  1  0  0  0
 73 76  1  0  0  0
 74 76  1  0  0  0
 74149  1  0  0  0
 74150  1  0  0  0
 75 79  1  0  0  0
 75151  1  0  0  0
 76 83  1  0  0  0
 76152  1  0  0  0
 77 80  1  0  0  0
 77153  1  0  0  0
 77154  1  0  0  0
 77155  1  0  0  0
 78156  1  0  0  0
 78157  1  0  0  0
 78158  1  0  0  0
 78 82  1  0  0  0
 79159  1  0  0  0
 79160  1  0  0  0
 80161  1  0  0  0
 80162  1  0  0  0
 80 83  1  0  0  0
 81 82  1  0  0  0
 81 83  1  0  0  0
 81163  1  0  0  0
 81164  1  0  0  0
 82165  1  0  0  0
 83166  1  0  0  0
M  CHG  1  83   1
M  ISO  4   1 100  68 101  79 101  82 100
M  END
> <chiral flag>
0

> <version>
0

> <s_m_source_file>
/data/baiqing/PycharmProjects/Reinvent-master-3.2/result/LINK_invent/BTK/process_docking_weight1_custom_sum_contain_oxygen_bond_distance_aromatic_linkinvent_7_9_3/rearranged_h_0106.sdf

> <i_m_source_file_index>
10

> <r_mmod_Potential_Energy-OPLS-2005>
303.543518066406

> <r_mmod_Stretch_Energy-OPLS-2005>
176.232025146484

> <r_mmod_Bend_Energy-OPLS-2005>
247.662673950195

> <r_mmod_Torsional_Energy-OPLS-2005>
232.19075012207

> <r_mmod_Improper_Torsional_Energy-OPLS-2005>
2.95443296432495

> <r_mmod_Van_der_Waal_Energy-OPLS-2005>
132.813552856445

> <r_mmod_Electrostatic_Energy-OPLS-2005>
-177.340209960938

> <r_mmod_Solvation_Energy-OPLS-2005>
-413.915863037109

> <b_mmod_Minimization_Converged-OPLS-2005>
0

> <r_mmod_RMS_Derivative-OPLS-2005>
3.65427231788635

$$$$
10
                    3D
 Structure written by MMmdl.
169177  0  0  1  0            999 V2000
  -30.5029  -14.9928   20.3810 C   0  0  0  0  0  0
  -30.4395  -12.6031   19.5275 C   0  0  0  0  0  0
  -29.5295  -12.5450   18.2750 C   0  0  0  0  0  0
  -28.0612  -12.3285   18.6784 C   0  0  0  0  0  0
  -27.6306  -13.2520   19.8500 C   0  0  2  0  0  0
  -28.6693  -13.2885   20.9936 C   0  0  0  0  0  0
  -25.2457  -13.8249   20.5725 C   0  0  0  0  0  0
  -24.1781  -13.0446   20.9228 C   0  0  0  0  0  0
  -24.6392  -11.6925   20.8749 C   0  0  0  0  0  0
  -23.9084  -10.4291   21.0397 C   0  0  0  0  0  0
  -24.3629   -9.4224   21.9196 C   0  0  0  0  0  0
  -23.6289   -8.2260   22.0789 C   0  0  0  0  0  0
  -22.4278   -8.0295   21.3562 C   0  0  0  0  0  0
  -21.9904   -9.0264   20.4672 C   0  0  0  0  0  0
  -22.7241  -10.2145   20.3065 C   0  0  0  0  0  0
  -21.6865   -6.0727   22.5270 C   0  0  0  0  0  0
  -21.4018   -6.5623   23.8199 C   0  0  0  0  0  0
  -21.3664   -5.6794   24.9165 C   0  0  0  0  0  0
  -21.6039   -4.3059   24.7223 C   0  0  0  0  0  0
  -21.8815   -3.8139   23.4345 C   0  0  0  0  0  0
  -21.9193   -4.6953   22.3402 C   0  0  0  0  0  0
  -22.7792  -13.5207   21.1850 C   0  0  0  0  0  0
  -22.1644   -4.2126   21.0974 F   0  0  0  0  0  0
  -21.5656   -3.4547   25.7740 F   0  0  0  0  0  0
  -29.9433  -13.7103   20.4014 N   0  0  0  0  0  0
  -26.2882  -12.9470   20.3291 N   0  0  0  0  0  0
  -25.9337  -11.6592   20.5779 N   0  0  0  0  0  0
  -22.0438  -12.8196   22.0429 N   0  0  0  0  0  0
  -25.4084  -15.1980   20.4150 N   0  0  0  0  0  0
  -31.6886  -15.0663   20.0372 O   0  0  0  0  0  0
  -21.6648   -6.8890   21.4251 O   0  0  0  0  0  0
  -22.3451  -14.5480   20.6682 O   0  0  0  0  0  0
  -24.6462  -31.8367   23.1758 C   0  0  0  0  0  0
  -25.9186  -32.4670   23.8193 C   0  0  1  0  0  0
  -27.2313  -27.0819   20.1476 C   0  0  0  0  0  0
  -25.5876  -33.8478   24.2132 N   0  0  0  0  0  0
  -23.4558  -30.4448   21.5255 C   0  0  2  0  0  0
  -24.9087  -28.8563   20.1016 C   0  0  0  0  0  0
  -22.7608  -29.4467   22.4853 C   0  0  0  0  0  0
  -18.0310  -28.1371   22.8483 C   0  0  0  0  0  0
  -24.1513  -36.7326   23.2648 C   0  0  0  0  0  0
  -26.0096  -30.6879   21.3826 C   0  0  0  0  0  0
  -26.0812  -29.2894   20.7314 C   0  0  0  0  0  0
  -27.2323  -28.4145   20.7459 C   0  0  0  0  0  0
  -26.0408  -26.7620   19.4597 C   0  0  0  0  0  0
  -24.9048  -27.6098   19.4484 C   0  0  0  0  0  0
  -23.6827  -29.7591   20.1487 C   0  0  0  0  0  0
  -25.4133  -36.3058   24.0316 C   0  0  1  0  0  0
  -20.5917  -28.3715   23.1253 C   0  0  2  0  0  0
  -20.6792  -26.9414   22.5436 C   0  0  0  0  0  0
  -19.5759  -26.6367   21.5248 C   0  0  0  0  0  0
  -18.1942  -26.7900   22.1660 C   0  0  0  0  0  0
  -19.1557  -28.8870   23.2847 C   0  0  0  0  0  0
  -18.9462  -30.1471   23.8867 C   0  0  0  0  0  0
  -17.6452  -30.6564   24.0562 C   0  0  0  0  0  0
  -25.9083  -34.9411   23.5068 C   0  0  0  0  0  0
  -16.5351  -29.9060   23.6313 C   0  0  0  0  0  0
  -16.7296  -28.6482   23.0324 C   0  0  0  0  0  0
  -26.4474  -31.6544   25.0650 C   0  0  0  0  0  0
  -25.3628  -31.3755   26.1345 C   0  0  0  0  0  0
  -27.0329  -30.2933   24.6223 C   0  0  0  0  0  0
  -27.6006  -32.4306   25.7410 C   0  0  0  0  0  0
  -27.5591  -37.1838   24.8434 C   0  0  0  0  0  0
  -21.4295  -29.3029   22.3624 N   0  0  0  0  0  0
  -26.4307  -37.3759   23.9370 N   0  0  0  0  0  0
  -24.7241  -31.0144   22.0826 N   0  0  0  0  0  0
  -23.4225  -28.8043   23.3043 O   0  0  0  0  0  0
  -28.2983  -26.1066   20.2748 O   0  0  0  0  0  0
  -26.5731  -34.8915   22.4692 O   0  0  0  0  0  0
  -23.5576  -32.1261   23.6952 O   0  0  0  0  0  0
  -28.6016  -20.2253   19.9139 C   0  0  0  0  0  0
  -30.1644  -21.2784   20.9796 C   0  0  0  0  0  0
  -28.9604  -21.6028   20.3833 C   0  0  0  0  0  0
  -29.5088  -19.1634   20.2333 C   0  0  0  0  0  0
  -27.0247  -22.2828   22.6657 C   0  0  0  0  0  0
  -30.0418  -18.8126   23.5139 C   0  0  0  0  0  0
  -32.2436  -17.6185   23.3451 C   0  0  0  0  0  0
  -32.1621  -20.0327   23.9728 C   0  0  0  0  0  0
  -29.7298  -17.5755   19.7632 C   0  0  0  0  0  0
  -27.9277  -23.3418   22.0008 C   0  0  0  0  0  0
  -31.6665  -19.3128   21.5656 C   0  0  0  0  0  0
  -28.4375  -24.6146   19.7551 C   0  0  0  0  0  0
  -28.1503  -23.0933   20.4996 C   0  0  1  0  0  0
  -31.5169  -18.9514   23.0816 C   0  0  0  0  0  0
  -30.4721  -19.8943   20.9429 N   0  0  0  0  0  0
  -29.7086  -16.1774   20.5279 N   0  0  0  0  0  0
  -31.4766  -12.7571   19.2229 H   0  0  0  0  0  0
  -30.4268  -11.6487   20.0537 H   0  0  0  0  0  0
  -29.8547  -11.7561   17.5953 H   0  0  0  0  0  0
  -29.6206  -13.4795   17.7194 H   0  0  0  0  0  0
  -27.9452  -11.2818   18.9664 H   0  0  0  0  0  0
  -27.4124  -12.4806   17.8145 H   0  0  0  0  0  0
  -27.5934  -14.2569   19.4275 H   0  0  0  0  0  0
  -28.7569  -12.3156   21.4790 H   0  0  0  0  0  0
  -28.3628  -13.9939   21.7674 H   0  0  0  0  0  0
  -25.2791   -9.5680   22.4757 H   0  0  0  0  0  0
  -24.0003   -7.4650   22.7515 H   0  0  0  0  0  0
  -21.0829   -8.8780   19.8969 H   0  0  0  0  0  0
  -22.3722  -10.9678   19.6156 H   0  0  0  0  0  0
  -21.2015   -7.6141   23.9694 H   0  0  0  0  0  0
  -21.1492   -6.0529   25.9069 H   0  0  0  0  0  0
  -22.0590   -2.7588   23.2851 H   0  0  0  0  0  0
  -22.4032  -11.9875   22.4860 H   0  0  0  0  0  0
  -21.1049  -13.1214   22.2616 H   0  0  0  0  0  0
  -24.6436  -15.8478   20.5651 H   0  0  0  0  0  0
  -26.2431  -15.6514   20.0643 H   0  0  0  0  0  0
  -26.7256  -32.5283   23.0938 H   0  0  0  0  0  0
  -24.9808  -33.9567   25.0130 H   0  0  0  0  0  0
  -22.7626  -31.2712   21.3625 H   0  0  0  0  0  0
  -23.3744  -35.9692   23.3272 H   0  0  0  0  0  0
  -24.3632  -36.9004   22.2074 H   0  0  0  0  0  0
  -23.7323  -37.6528   23.6722 H   0  0  0  0  0  0
  -26.1623  -31.4277   20.5948 H   0  0  0  0  0  0
  -26.8821  -30.7578   22.0199 H   0  0  0  0  0  0
  -28.1173  -28.7342   21.2762 H   0  0  0  0  0  0
  -25.9666  -25.8091   18.9523 H   0  0  0  0  0  0
  -24.0130  -27.2815   18.9316 H   0  0  0  0  0  0
  -23.8092  -30.5216   19.3792 H   0  0  0  0  0  0
  -22.7998  -29.1879   19.8549 H   0  0  0  0  0  0
  -25.1340  -36.1898   25.0814 H   0  0  0  0  0  0
  -20.9999  -28.3300   24.1379 H   0  0  0  0  0  0
  -20.5689  -26.2338   23.3657 H   0  0  0  0  0  0
  -21.6655  -26.7408   22.1232 H   0  0  0  0  0  0
  -19.6911  -25.6284   21.1261 H   0  0  0  0  0  0
  -19.6659  -27.3198   20.6776 H   0  0  0  0  0  0
  -17.4216  -26.6637   21.4054 H   0  0  0  0  0  0
  -18.0325  -26.0055   22.9064 H   0  0  0  0  0  0
  -19.7934  -30.7300   24.2209 H   0  0  0  0  0  0
  -17.4989  -31.6223   24.5198 H   0  0  0  0  0  0
  -15.5344  -30.2940   23.7623 H   0  0  0  0  0  0
  -15.8699  -28.0793   22.7009 H   0  0  0  0  0  0
  -24.5809  -30.7111   25.7649 H   0  0  0  0  0  0
  -24.8803  -32.2936   26.4684 H   0  0  0  0  0  0
  -25.7863  -30.8962   27.0183 H   0  0  0  0  0  0
  -26.2987  -29.6714   24.1091 H   0  0  0  0  0  0
  -27.3782  -29.7143   25.4796 H   0  0  0  0  0  0
  -27.8939  -30.4165   23.9657 H   0  0  0  0  0  0
  -27.2606  -33.3630   26.1929 H   0  0  0  0  0  0
  -28.3794  -32.6843   25.0206 H   0  0  0  0  0  0
  -28.0697  -31.8475   26.5342 H   0  0  0  0  0  0
  -28.2583  -38.0152   24.7477 H   0  0  0  0  0  0
  -28.1108  -36.2686   24.6257 H   0  0  0  0  0  0
  -27.2314  -37.1487   25.8833 H   0  0  0  0  0  0
  -20.9536  -29.8779   21.6819 H   0  0  0  0  0  0
  -26.0175  -38.2848   24.1268 H   0  0  0  0  0  0
  -27.6962  -20.0221   19.3581 H   0  0  0  0  0  0
  -30.8407  -21.9316   21.5159 H   0  0  0  0  0  0
  -27.3928  -21.2706   22.5058 H   0  0  0  0  0  0
  -26.0112  -22.3292   22.2649 H   0  0  0  0  0  0
  -26.9563  -22.4350   23.7416 H   0  0  0  0  0  0
  -29.9565  -18.4935   24.5535 H   0  0  0  0  0  0
  -29.5044  -18.0871   22.9027 H   0  0  0  0  0  0
  -29.5170  -19.7667   23.4332 H   0  0  0  0  0  0
  -32.1204  -17.2884   24.3770 H   0  0  0  0  0  0
  -33.3155  -17.7173   23.1593 H   0  0  0  0  0  0
  -31.8727  -16.8254   22.6942 H   0  0  0  0  0  0
  -31.9445  -19.8513   25.0275 H   0  0  0  0  0  0
  -31.7910  -21.0285   23.7280 H   0  0  0  0  0  0
  -33.2487  -20.0592   23.8793 H   0  0  0  0  0  0
  -28.9761  -17.4147   18.9920 H   0  0  0  0  0  0
  -30.6587  -17.5507   19.1905 H   0  0  0  0  0  0
  -28.8956  -23.3624   22.5037 H   0  0  0  0  0  0
  -27.4855  -24.3254   22.1555 H   0  0  0  0  0  0
  -31.9309  -18.4179   20.9994 H   0  0  0  0  0  0
  -32.5124  -19.9860   21.4140 H   0  0  0  0  0  0
  -27.9865  -24.5841   18.7622 H   0  0  0  0  0  0
  -29.5052  -24.5833   19.5396 H   0  0  0  0  0  0
  -27.1626  -22.8424   20.1052 H   0  0  0  0  0  0
  -28.8024  -15.9744   20.9202 H   0  0  0  0  0  0
  1 25  1  0  0  0
  1 30  2  0  0  0
  1 86  1  0  0  0
  2  3  1  0  0  0
  2 25  1  0  0  0
  2 87  1  0  0  0
  2 88  1  0  0  0
  3  4  1  0  0  0
  3 89  1  0  0  0
  3 90  1  0  0  0
  4  5  1  0  0  0
  4 91  1  0  0  0
  4 92  1  0  0  0
  5  6  1  0  0  0
  5 26  1  0  0  0
  5 93  1  0  0  0
  6 25  1  0  0  0
  6 94  1  0  0  0
  6 95  1  0  0  0
  7  8  2  0  0  0
  7 26  1  0  0  0
  7 29  1  0  0  0
  8  9  1  0  0  0
  8 22  1  0  0  0
  9 10  1  0  0  0
  9 27  2  0  0  0
 10 11  2  0  0  0
 10 15  1  0  0  0
 11 12  1  0  0  0
 11 96  1  0  0  0
 12 13  2  0  0  0
 12 97  1  0  0  0
 13 14  1  0  0  0
 13 31  1  0  0  0
 14 15  2  0  0  0
 14 98  1  0  0  0
 15 99  1  0  0  0
 16 17  2  0  0  0
 16 21  1  0  0  0
 16 31  1  0  0  0
 17 18  1  0  0  0
 17100  1  0  0  0
 18 19  2  0  0  0
 18101  1  0  0  0
 19 20  1  0  0  0
 19 24  1  0  0  0
 20 21  2  0  0  0
 20102  1  0  0  0
 21 23  1  0  0  0
 22 28  1  0  0  0
 22 32  2  0  0  0
 26 27  1  0  0  0
 28103  1  0  0  0
 28104  1  0  0  0
 29105  1  0  0  0
 29106  1  0  0  0
 33 34  1  0  0  0
 33 66  1  0  0  0
 33 70  2  0  0  0
 34 36  1  0  0  0
 34 59  1  0  0  0
 34107  1  0  0  0
 35 44  2  0  0  0
 35 45  1  0  0  0
 35 68  1  0  0  0
 36 56  1  0  0  0
 36108  1  0  0  0
 37 39  1  0  0  0
 37 47  1  0  0  0
 37 66  1  0  0  0
 37109  1  0  0  0
 38 43  2  0  0  0
 38 46  1  0  0  0
 38 47  1  0  0  0
 39 64  1  0  0  0
 39 67  2  0  0  0
 40 52  1  0  0  0
 40 53  2  0  0  0
 40 58  1  0  0  0
 41110  1  0  0  0
 41111  1  0  0  0
 41112  1  0  0  0
 41 48  1  0  0  0
 42 43  1  0  0  0
 42 66  1  0  0  0
 42113  1  0  0  0
 42114  1  0  0  0
 43 44  1  0  0  0
 44115  1  0  0  0
 45 46  2  0  0  0
 45116  1  0  0  0
 46117  1  0  0  0
 47118  1  0  0  0
 47119  1  0  0  0
 48 56  1  0  0  0
 48 65  1  0  0  0
 48120  1  0  0  0
 49 50  1  0  0  0
 49 53  1  0  0  0
 49 64  1  0  0  0
 49121  1  0  0  0
 50 51  1  0  0  0
 50122  1  0  0  0
 50123  1  0  0  0
 51 52  1  0  0  0
 51124  1  0  0  0
 51125  1  0  0  0
 52126  1  0  0  0
 52127  1  0  0  0
 53 54  1  0  0  0
 54 55  2  0  0  0
 54128  1  0  0  0
 55 57  1  0  0  0
 55129  1  0  0  0
 56 69  2  0  0  0
 57 58  2  0  0  0
 57130  1  0  0  0
 58131  1  0  0  0
 59 60  1  0  0  0
 59 61  1  0  0  0
 59 62  1  0  0  0
 60132  1  0  0  0
 60133  1  0  0  0
 60134  1  0  0  0
 61135  1  0  0  0
 61136  1  0  0  0
 61137  1  0  0  0
 62138  1  0  0  0
 62139  1  0  0  0
 62140  1  0  0  0
 63 65  1  0  0  0
 63141  1  0  0  0
 63142  1  0  0  0
 63143  1  0  0  0
 64144  1  0  0  0
 65145  1  0  0  0
 68 82  1  0  0  0
 71 73  1  0  0  0
 71 74  2  0  0  0
 71146  1  0  0  0
 72 73  2  0  0  0
 72 85  1  0  0  0
 72147  1  0  0  0
 73 83  1  0  0  0
 74 79  1  0  0  0
 74 85  1  0  0  0
 75 80  1  0  0  0
 75148  1  0  0  0
 75149  1  0  0  0
 75150  1  0  0  0
 76151  1  0  0  0
 76152  1  0  0  0
 76153  1  0  0  0
 76 84  1  0  0  0
 77 84  1  0  0  0
 77154  1  0  0  0
 77155  1  0  0  0
 77156  1  0  0  0
 78 84  1  0  0  0
 78157  1  0  0  0
 78158  1  0  0  0
 78159  1  0  0  0
 79 86  1  0  0  0
 79160  1  0  0  0
 79161  1  0  0  0
 80162  1  0  0  0
 80163  1  0  0  0
 80 83  1  0  0  0
 81 84  1  0  0  0
 81 85  1  0  0  0
 81164  1  0  0  0
 81165  1  0  0  0
 82 83  1  0  0  0
 82166  1  0  0  0
 82167  1  0  0  0
 83168  1  0  0  0
 86169  1  0  0  0
M  ISO  4   1 100  68 101  82 101  86 100
M  END
> <chiral flag>
0

> <version>
0

> <s_m_source_file>
/data/baiqing/PycharmProjects/Reinvent-master-3.2/result/LINK_invent/BTK/process_docking_weight1_custom_sum_contain_oxygen_bond_distance_aromatic_linkinvent_7_9_3/rearranged_h_0106.sdf

> <i_m_source_file_index>
11

> <r_mmod_Potential_Energy-OPLS-2005>
696.977783203125

> <r_mmod_Stretch_Energy-OPLS-2005>
316.008239746094

> <r_mmod_Bend_Energy-OPLS-2005>
358.070404052734

> <r_mmod_Torsional_Energy-OPLS-2005>
260.221374511719

> <r_mmod_Improper_Torsional_Energy-OPLS-2005>
9.35029220581055

> <r_mmod_Van_der_Waal_Energy-OPLS-2005>
102.31713104248

> <r_mmod_Electrostatic_Energy-OPLS-2005>
-384.315490722656

> <r_mmod_Solvation_Energy-OPLS-2005>
-197.208587646484

> <b_mmod_Minimization_Converged-OPLS-2005>
0

> <r_mmod_RMS_Derivative-OPLS-2005>
4.85701894760132

$$$$
11
                    3D
 Structure written by MMmdl.
167174  0  0  1  0            999 V2000
  -30.3137  -15.5669   20.3630 C   0  0  0  0  0  0
  -30.4262  -13.0371   19.5190 C   0  0  0  0  0  0
  -29.5347  -12.6320   18.3104 C   0  0  0  0  0  0
  -28.1087  -12.2873   18.7651 C   0  0  0  0  0  0
  -27.5978  -13.2916   19.8214 C   0  0  2  0  0  0
  -28.6253  -13.5875   20.9357 C   0  0  0  0  0  0
  -25.2342  -13.8243   20.5759 C   0  0  0  0  0  0
  -24.1719  -13.0410   20.9236 C   0  0  0  0  0  0
  -24.6392  -11.6924   20.8754 C   0  0  0  0  0  0
  -23.9080  -10.4288   21.0425 C   0  0  0  0  0  0
  -24.3622   -9.4198   21.9206 C   0  0  0  0  0  0
  -23.6289   -8.2238   22.0780 C   0  0  0  0  0  0
  -22.4284   -8.0270   21.3562 C   0  0  0  0  0  0
  -21.9924   -9.0237   20.4671 C   0  0  0  0  0  0
  -22.7238  -10.2114   20.3086 C   0  0  0  0  0  0
  -21.6869   -6.0728   22.5291 C   0  0  0  0  0  0
  -21.4032   -6.5628   23.8223 C   0  0  0  0  0  0
  -21.3642   -5.6787   24.9187 C   0  0  0  0  0  0
  -21.6054   -4.3048   24.7235 C   0  0  0  0  0  0
  -21.8813   -3.8131   23.4361 C   0  0  0  0  0  0
  -21.9198   -4.6954   22.3417 C   0  0  0  0  0  0
  -22.7725  -13.5132   21.1900 C   0  0  0  0  0  0
  -22.1674   -4.2123   21.0991 F   0  0  0  0  0  0
  -21.5610   -3.4532   25.7752 F   0  0  0  0  0  0
  -29.7913  -14.2090   20.2676 N   0  0  0  0  0  0
  -26.2786  -12.9545   20.3267 N   0  0  0  0  0  0
  -25.9344  -11.6631   20.5735 N   0  0  0  0  0  0
  -22.0453  -12.8114   22.0475 N   0  0  0  0  0  0
  -25.3956  -15.1980   20.4195 N   0  0  0  0  0  0
  -31.5513  -15.5242   20.2565 O   0  0  0  0  0  0
  -21.6646   -6.8876   21.4257 O   0  0  0  0  0  0
  -22.3389  -14.5428   20.6747 O   0  0  0  0  0  0
  -24.6756  -31.8054   23.1558 C   0  0  0  0  0  0
  -25.9380  -32.4492   23.8060 C   0  0  1  0  0  0
  -27.2235  -26.7581   20.2157 C   0  0  0  0  0  0
  -25.5989  -33.8306   24.1954 N   0  0  0  0  0  0
  -23.4966  -30.4106   21.5105 C   0  0  2  0  0  0
  -24.9521  -28.7605   20.1101 C   0  0  0  0  0  0
  -22.7694  -29.4336   22.4708 C   0  0  0  0  0  0
  -18.0334  -28.1408   22.8466 C   0  0  0  0  0  0
  -24.1483  -36.7145   23.2651 C   0  0  0  0  0  0
  -26.0733  -30.5537   21.4127 C   0  0  0  0  0  0
  -26.1380  -29.1259   20.7578 C   0  0  0  0  0  0
  -27.2566  -28.1520   20.7837 C   0  0  0  0  0  0
  -26.0144  -26.5885   19.4960 C   0  0  0  0  0  0
  -24.9277  -27.5148   19.4562 C   0  0  0  0  0  0
  -23.7410  -29.7082   20.1437 C   0  0  0  0  0  0
  -25.4125  -36.2901   24.0289 C   0  0  1  0  0  0
  -20.5967  -28.3761   23.1157 C   0  0  2  0  0  0
  -20.6787  -26.9409   22.5418 C   0  0  0  0  0  0
  -19.5764  -26.6365   21.5218 C   0  0  0  0  0  0
  -18.1953  -26.7946   22.1605 C   0  0  0  0  0  0
  -19.1605  -28.8902   23.2810 C   0  0  0  0  0  0
  -18.9500  -30.1506   23.8834 C   0  0  0  0  0  0
  -17.6497  -30.6607   24.0560 C   0  0  0  0  0  0
  -25.9115  -34.9295   23.4963 C   0  0  0  0  0  0
  -16.5390  -29.9076   23.6370 C   0  0  0  0  0  0
  -16.7319  -28.6488   23.0389 C   0  0  0  0  0  0
  -26.4595  -31.6495   25.0637 C   0  0  0  0  0  0
  -25.3679  -31.3815   26.1267 C   0  0  0  0  0  0
  -27.0536  -30.2831   24.6512 C   0  0  0  0  0  0
  -27.6035  -32.4372   25.7459 C   0  0  0  0  0  0
  -27.5558  -37.1718   24.8459 C   0  0  0  0  0  0
  -21.4345  -29.3027   22.3462 N   0  0  0  0  0  0
  -26.4264  -37.3637   23.9438 N   0  0  0  0  0  0
  -24.7720  -30.9533   22.0797 N   0  0  0  0  0  0
  -23.4154  -28.7942   23.3036 O   0  0  0  0  0  0
  -28.2009  -25.5746   20.3555 O   0  0  0  0  0  0
  -26.5744  -34.8871   22.4575 O   0  0  0  0  0  0
  -23.5794  -32.1129   23.6542 O   0  0  0  0  0  0
  -32.5002  -21.8283   18.4373 C   0  0  0  0  0  0
  -32.0822  -21.0440   20.7902 C   0  0  0  0  0  0
  -26.9807  -21.2357   18.5449 C   0  0  0  0  0  0
  -27.6370  -18.8652   18.2557 C   0  0  0  0  0  0
  -30.9182  -19.2850   18.3718 C   0  0  0  0  0  0
  -28.7194  -22.1475   20.6245 C   0  0  0  0  0  0
  -29.5239  -18.6445   20.7478 C   0  0  0  0  0  0
  -28.1379  -23.8769   20.0043 C   0  0  0  0  0  0
  -31.4169  -21.5222   19.4826 C   0  0  0  0  0  0
  -27.6830  -20.0472   19.2399 C   0  0  0  0  0  0
  -30.2701  -20.5837   18.9506 C   0  0  2  0  0  0
  -29.0595  -20.3532   19.9648 C   0  0  1  0  0  0
  -29.5251  -16.9042   20.3890 N   0  0  0  0  0  0
  -31.4197  -13.3070   19.1545 H   0  0  0  0  0  0
  -30.5845  -12.1861   20.1873 H   0  0  0  0  0  0
  -29.9638  -11.7880   17.7678 H   0  0  0  0  0  0
  -29.4940  -13.4658   17.6103 H   0  0  0  0  0  0
  -28.1321  -11.2830   19.1921 H   0  0  0  0  0  0
  -27.4263  -12.2493   17.9154 H   0  0  0  0  0  0
  -27.4693  -14.2186   19.2619 H   0  0  0  0  0  0
  -28.8842  -12.6857   21.4923 H   0  0  0  0  0  0
  -28.2057  -14.2837   21.6625 H   0  0  0  0  0  0
  -25.2761   -9.5624   22.4789 H   0  0  0  0  0  0
  -23.9974   -7.4607   22.7487 H   0  0  0  0  0  0
  -21.0884   -8.8750   19.8950 H   0  0  0  0  0  0
  -22.3708  -10.9667   19.6202 H   0  0  0  0  0  0
  -21.2063   -7.6157   23.9682 H   0  0  0  0  0  0
  -21.1467   -6.0559   25.9068 H   0  0  0  0  0  0
  -22.0613   -2.7605   23.2871 H   0  0  0  0  0  0
  -22.4131  -11.9725   22.4751 H   0  0  0  0  0  0
  -21.1096  -13.1117   22.2797 H   0  0  0  0  0  0
  -24.6141  -15.8352   20.5027 H   0  0  0  0  0  0
  -26.2287  -15.6387   20.0533 H   0  0  0  0  0  0
  -26.7423  -32.4960   23.0732 H   0  0  0  0  0  0
  -25.0133  -33.9342   25.0110 H   0  0  0  0  0  0
  -22.8194  -31.2486   21.3283 H   0  0  0  0  0  0
  -23.3784  -35.9434   23.3223 H   0  0  0  0  0  0
  -24.3574  -36.8900   22.2091 H   0  0  0  0  0  0
  -23.7184  -37.6272   23.6787 H   0  0  0  0  0  0
  -26.2678  -31.2843   20.6275 H   0  0  0  0  0  0
  -26.9293  -30.6136   22.0733 H   0  0  0  0  0  0
  -28.1418  -28.4350   21.3365 H   0  0  0  0  0  0
  -25.8654  -25.6431   18.9964 H   0  0  0  0  0  0
  -24.0281  -27.2175   18.9278 H   0  0  0  0  0  0
  -23.8951  -30.4761   19.3840 H   0  0  0  0  0  0
  -22.8453  -29.1698   19.8288 H   0  0  0  0  0  0
  -25.1321  -36.1669   25.0765 H   0  0  0  0  0  0
  -21.0082  -28.3401   24.1264 H   0  0  0  0  0  0
  -20.5628  -26.2366   23.3667 H   0  0  0  0  0  0
  -21.6649  -26.7340   22.1244 H   0  0  0  0  0  0
  -19.6934  -25.6256   21.1275 H   0  0  0  0  0  0
  -19.6762  -27.3135   20.6715 H   0  0  0  0  0  0
  -17.4235  -26.6746   21.3997 H   0  0  0  0  0  0
  -18.0338  -26.0092   22.8989 H   0  0  0  0  0  0
  -19.7986  -30.7370   24.2128 H   0  0  0  0  0  0
  -17.5047  -31.6274   24.5170 H   0  0  0  0  0  0
  -15.5377  -30.2962   23.7738 H   0  0  0  0  0  0
  -15.8716  -28.0803   22.7130 H   0  0  0  0  0  0
  -24.5900  -30.7106   25.7589 H   0  0  0  0  0  0
  -24.8823  -32.3048   26.4432 H   0  0  0  0  0  0
  -25.7884  -30.9171   27.0192 H   0  0  0  0  0  0
  -26.3264  -29.6449   24.1468 H   0  0  0  0  0  0
  -27.3952  -29.7251   25.5241 H   0  0  0  0  0  0
  -27.9237  -30.3956   24.0038 H   0  0  0  0  0  0
  -27.2535  -33.3734   26.1809 H   0  0  0  0  0  0
  -28.3945  -32.6837   25.0366 H   0  0  0  0  0  0
  -28.0576  -31.8655   26.5556 H   0  0  0  0  0  0
  -28.2516  -38.0070   24.7546 H   0  0  0  0  0  0
  -28.1136  -36.2602   24.6244 H   0  0  0  0  0  0
  -27.2314  -37.1281   25.8870 H   0  0  0  0  0  0
  -20.9583  -29.8655   21.6549 H   0  0  0  0  0  0
  -26.0100  -38.2687   24.1498 H   0  0  0  0  0  0
  -33.1488  -22.6388   18.7762 H   0  0  0  0  0  0
  -32.0642  -22.1211   17.4803 H   0  0  0  0  0  0
  -33.1402  -20.9657   18.2657 H   0  0  0  0  0  0
  -32.8258  -21.7563   21.1501 H   0  0  0  0  0  0
  -32.5985  -20.0929   20.6599 H   0  0  0  0  0  0
  -31.3500  -20.9195   21.5876 H   0  0  0  0  0  0
  -26.3810  -21.8014   19.2585 H   0  0  0  0  0  0
  -26.2707  -20.9015   17.7851 H   0  0  0  0  0  0
  -27.6709  -21.9085   18.0381 H   0  0  0  0  0  0
  -26.6110  -18.6789   17.9355 H   0  0  0  0  0  0
  -27.9762  -17.9320   18.6877 H   0  0  0  0  0  0
  -28.2081  -19.0601   17.3498 H   0  0  0  0  0  0
  -31.6226  -19.4947   17.5681 H   0  0  0  0  0  0
  -30.2059  -18.5756   17.9574 H   0  0  0  0  0  0
  -31.4965  -18.7431   19.1168 H   0  0  0  0  0  0
  -27.9910  -21.9629   21.4135 H   0  0  0  0  0  0
  -29.5893  -22.3942   21.2265 H   0  0  0  0  0  0
  -28.8725  -18.6448   21.6245 H   0  0  0  0  0  0
  -30.5035  -18.7896   21.2004 H   0  0  0  0  0  0
  -27.0601  -23.7476   19.9205 H   0  0  0  0  0  0
  -28.4846  -23.8919   18.9705 H   0  0  0  0  0  0
  -31.0024  -22.5120   19.6638 H   0  0  0  0  0  0
  -27.0144  -19.7638   20.0525 H   0  0  0  0  0  0
  -29.8508  -21.1190   18.0995 H   0  0  0  0  0  0
  -28.5588  -16.6411   20.2708 H   0  0  0  0  0  0
  1 25  1  0  0  0
  1 30  2  0  0  0
  1 83  1  0  0  0
  2  3  1  0  0  0
  2 25  1  0  0  0
  2 84  1  0  0  0
  2 85  1  0  0  0
  3  4  1  0  0  0
  3 86  1  0  0  0
  3 87  1  0  0  0
  4  5  1  0  0  0
  4 88  1  0  0  0
  4 89  1  0  0  0
  5  6  1  0  0  0
  5 26  1  0  0  0
  5 90  1  0  0  0
  6 25  1  0  0  0
  6 91  1  0  0  0
  6 92  1  0  0  0
  7  8  2  0  0  0
  7 26  1  0  0  0
  7 29  1  0  0  0
  8  9  1  0  0  0
  8 22  1  0  0  0
  9 10  1  0  0  0
  9 27  2  0  0  0
 10 11  2  0  0  0
 10 15  1  0  0  0
 11 12  1  0  0  0
 11 93  1  0  0  0
 12 13  2  0  0  0
 12 94  1  0  0  0
 13 14  1  0  0  0
 13 31  1  0  0  0
 14 15  2  0  0  0
 14 95  1  0  0  0
 15 96  1  0  0  0
 16 17  2  0  0  0
 16 21  1  0  0  0
 16 31  1  0  0  0
 17 18  1  0  0  0
 17 97  1  0  0  0
 18 19  2  0  0  0
 18 98  1  0  0  0
 19 20  1  0  0  0
 19 24  1  0  0  0
 20 21  2  0  0  0
 20 99  1  0  0  0
 21 23  1  0  0  0
 22 28  1  0  0  0
 22 32  2  0  0  0
 26 27  1  0  0  0
 28100  1  0  0  0
 28101  1  0  0  0
 29102  1  0  0  0
 29103  1  0  0  0
 33 34  1  0  0  0
 33 66  1  0  0  0
 33 70  2  0  0  0
 34 36  1  0  0  0
 34 59  1  0  0  0
 34104  1  0  0  0
 35 44  2  0  0  0
 35 45  1  0  0  0
 35 68  1  0  0  0
 36 56  1  0  0  0
 36105  1  0  0  0
 37 39  1  0  0  0
 37 47  1  0  0  0
 37 66  1  0  0  0
 37106  1  0  0  0
 38 43  2  0  0  0
 38 46  1  0  0  0
 38 47  1  0  0  0
 39 64  1  0  0  0
 39 67  2  0  0  0
 40 52  1  0  0  0
 40 53  2  0  0  0
 40 58  1  0  0  0
 41107  1  0  0  0
 41108  1  0  0  0
 41109  1  0  0  0
 41 48  1  0  0  0
 42 43  1  0  0  0
 42 66  1  0  0  0
 42110  1  0  0  0
 42111  1  0  0  0
 43 44  1  0  0  0
 44112  1  0  0  0
 45 46  2  0  0  0
 45113  1  0  0  0
 46114  1  0  0  0
 47115  1  0  0  0
 47116  1  0  0  0
 48 56  1  0  0  0
 48 65  1  0  0  0
 48117  1  0  0  0
 49 50  1  0  0  0
 49 53  1  0  0  0
 49 64  1  0  0  0
 49118  1  0  0  0
 50 51  1  0  0  0
 50119  1  0  0  0
 50120  1  0  0  0
 51 52  1  0  0  0
 51121  1  0  0  0
 51122  1  0  0  0
 52123  1  0  0  0
 52124  1  0  0  0
 53 54  1  0  0  0
 54 55  2  0  0  0
 54125  1  0  0  0
 55 57  1  0  0  0
 55126  1  0  0  0
 56 69  2  0  0  0
 57 58  2  0  0  0
 57127  1  0  0  0
 58128  1  0  0  0
 59 60  1  0  0  0
 59 61  1  0  0  0
 59 62  1  0  0  0
 60129  1  0  0  0
 60130  1  0  0  0
 60131  1  0  0  0
 61132  1  0  0  0
 61133  1  0  0  0
 61134  1  0  0  0
 62135  1  0  0  0
 62136  1  0  0  0
 62137  1  0  0  0
 63 65  1  0  0  0
 63138  1  0  0  0
 63139  1  0  0  0
 63140  1  0  0  0
 64141  1  0  0  0
 65142  1  0  0  0
 68 78  1  0  0  0
 71143  1  0  0  0
 71144  1  0  0  0
 71145  1  0  0  0
 71 79  1  0  0  0
 72 79  1  0  0  0
 72146  1  0  0  0
 72147  1  0  0  0
 72148  1  0  0  0
 73149  1  0  0  0
 73150  1  0  0  0
 73151  1  0  0  0
 73 80  1  0  0  0
 74 80  1  0  0  0
 74152  1  0  0  0
 74153  1  0  0  0
 74154  1  0  0  0
 75155  1  0  0  0
 75156  1  0  0  0
 75157  1  0  0  0
 75 81  1  0  0  0
 76 78  1  0  0  0
 76158  1  0  0  0
 76159  1  0  0  0
 76 82  1  0  0  0
 77 82  1  0  0  0
 77 83  1  0  0  0
 77160  1  0  0  0
 77161  1  0  0  0
 78162  1  0  0  0
 78163  1  0  0  0
 79 81  1  0  0  0
 79164  1  0  0  0
 80 82  1  0  0  0
 80165  1  0  0  0
 81 82  1  0  0  0
 81166  1  0  0  0
 83167  1  0  0  0
M  ISO  4   1 100  68 101  78 101  83 100
M  END
> <chiral flag>
0

> <version>
0

> <s_m_source_file>
/data/baiqing/PycharmProjects/Reinvent-master-3.2/result/LINK_invent/BTK/process_docking_weight1_custom_sum_contain_oxygen_bond_distance_aromatic_linkinvent_7_9_3/rearranged_h_0106.sdf

> <i_m_source_file_index>
12

> <r_mmod_Potential_Energy-OPLS-2005>
2440.02734375

> <r_mmod_Stretch_Energy-OPLS-2005>
1135.6572265625

> <r_mmod_Bend_Energy-OPLS-2005>
667.342041015625

> <r_mmod_Torsional_Energy-OPLS-2005>
284.126647949219

> <r_mmod_Improper_Torsional_Energy-OPLS-2005>
4.5467586517334

> <r_mmod_Van_der_Waal_Energy-OPLS-2005>
136.018371582031

> <r_mmod_Electrostatic_Energy-OPLS-2005>
-391.378295898438

> <r_mmod_Solvation_Energy-OPLS-2005>
-197.618194580078

> <b_mmod_Minimization_Converged-OPLS-2005>
0

> <r_mmod_RMS_Derivative-OPLS-2005>
5.53928995132446

$$$$
12
                    3D
 Structure written by MMmdl.
156164  0  0  1  0            999 V2000
  -30.6482  -14.7516   20.4625 C   0  0  0  0  0  0
  -30.4308  -12.4650   19.4693 C   0  0  0  0  0  0
  -29.5104  -12.5053   18.2311 C   0  0  0  0  0  0
  -28.0358  -12.3401   18.6464 C   0  0  0  0  0  0
  -27.6413  -13.2418   19.8472 C   0  0  2  0  0  0
  -28.6913  -13.1991   20.9784 C   0  0  0  0  0  0
  -25.2513  -13.8229   20.5743 C   0  0  0  0  0  0
  -24.1821  -13.0453   20.9239 C   0  0  0  0  0  0
  -24.6432  -11.6937   20.8763 C   0  0  0  0  0  0
  -23.9100  -10.4312   21.0416 C   0  0  0  0  0  0
  -24.3642   -9.4224   21.9193 C   0  0  0  0  0  0
  -23.6319   -8.2257   22.0758 C   0  0  0  0  0  0
  -22.4293   -8.0300   21.3556 C   0  0  0  0  0  0
  -21.9938   -9.0283   20.4655 C   0  0  0  0  0  0
  -22.7270  -10.2160   20.3067 C   0  0  0  0  0  0
  -21.6855   -6.0752   22.5292 C   0  0  0  0  0  0
  -21.4009   -6.5646   23.8226 C   0  0  0  0  0  0
  -21.3658   -5.6781   24.9177 C   0  0  0  0  0  0
  -21.6047   -4.3055   24.7224 C   0  0  0  0  0  0
  -21.8812   -3.8155   23.4349 C   0  0  0  0  0  0
  -21.9191   -4.6979   22.3405 C   0  0  0  0  0  0
  -22.7819  -13.5219   21.1873 C   0  0  0  0  0  0
  -22.1658   -4.2163   21.0980 F   0  0  0  0  0  0
  -21.5632   -3.4533   25.7736 F   0  0  0  0  0  0
  -29.9885  -13.5434   20.3838 N   0  0  0  0  0  0
  -26.2959  -12.9471   20.3298 N   0  0  0  0  0  0
  -25.9374  -11.6603   20.5772 N   0  0  0  0  0  0
  -22.0450  -12.8222   22.0430 N   0  0  0  0  0  0
  -25.4155  -15.1953   20.4178 N   0  0  0  0  0  0
  -31.8455  -14.8115   20.1738 O   0  0  0  0  0  0
  -21.6652   -6.8902   21.4260 O   0  0  0  0  0  0
  -22.3500  -14.5520   20.6697 O   0  0  0  0  0  0
  -24.6337  -31.8549   23.1973 C   0  0  0  0  0  0
  -25.9145  -32.4742   23.8329 C   0  0  1  0  0  0
  -27.2207  -27.2290   20.1188 C   0  0  0  0  0  0
  -25.5930  -33.8543   24.2251 N   0  0  0  0  0  0
  -23.4323  -30.4805   21.5416 C   0  0  2  0  0  0
  -24.8784  -28.9282   20.1101 C   0  0  0  0  0  0
  -22.7518  -29.4620   22.4897 C   0  0  0  0  0  0
  -18.0298  -28.1401   22.8488 C   0  0  0  0  0  0
  -24.1502  -36.7279   23.2641 C   0  0  0  0  0  0
  -25.9823  -30.7527   21.3906 C   0  0  0  0  0  0
  -26.0512  -29.3747   20.7292 C   0  0  0  0  0  0
  -27.2175  -28.5372   20.7286 C   0  0  0  0  0  0
  -26.0122  -26.8701   19.4722 C   0  0  0  0  0  0
  -24.8656  -27.6838   19.4732 C   0  0  0  0  0  0
  -23.6521  -29.8188   20.1580 C   0  0  0  0  0  0
  -25.4120  -36.3061   24.0330 C   0  0  1  0  0  0
  -20.5906  -28.3703   23.1251 C   0  0  2  0  0  0
  -20.6780  -26.9417   22.5399 C   0  0  0  0  0  0
  -19.5747  -26.6390   21.5211 C   0  0  0  0  0  0
  -18.1934  -26.7938   22.1636 C   0  0  0  0  0  0
  -19.1556  -28.8870   23.2869 C   0  0  0  0  0  0
  -18.9471  -30.1478   23.8881 C   0  0  0  0  0  0
  -17.6469  -30.6592   24.0570 C   0  0  0  0  0  0
  -25.9052  -34.9433   23.5096 C   0  0  0  0  0  0
  -16.5359  -29.9087   23.6347 C   0  0  0  0  0  0
  -16.7288  -28.6515   23.0344 C   0  0  0  0  0  0
  -26.4504  -31.6563   25.0720 C   0  0  0  0  0  0
  -25.3714  -31.3702   26.1425 C   0  0  0  0  0  0
  -27.0368  -30.2979   24.6230 C   0  0  0  0  0  0
  -27.6073  -32.4300   25.7477 C   0  0  0  0  0  0
  -27.5588  -37.1788   24.8459 C   0  0  0  0  0  0
  -21.4217  -29.3052   22.3633 N   0  0  0  0  0  0
  -26.4293  -37.3759   23.9412 N   0  0  0  0  0  0
  -24.7019  -31.0479   22.0982 N   0  0  0  0  0  0
  -23.4205  -28.8161   23.3008 O   0  0  0  0  0  0
  -28.3418  -26.3441   20.1689 O   0  0  0  0  0  0
  -26.5624  -34.8917   22.4668 O   0  0  0  0  0  0
  -23.5480  -32.1394   23.7250 O   0  0  0  0  0  0
  -28.2926  -22.1277   19.3690 C   0  0  0  0  0  0
  -27.6111  -23.1175   18.6385 C   0  0  0  0  0  0
  -29.1115  -22.5034   20.4418 C   0  0  0  0  0  0
  -29.1099  -23.9401   20.7441 C   0  0  0  0  0  0
  -28.3426  -24.9076   19.9738 C   0  0  0  0  0  0
  -29.9590  -21.4501   21.1904 C   0  0  0  0  0  0
  -30.1946  -20.0730   21.3355 C   0  0  0  0  0  0
  -29.9659  -24.4675   21.8858 C   0  0  0  0  0  0
  -31.2848  -19.7245   22.3492 C   0  0  0  0  0  0
  -29.5819  -18.7225   20.7230 C   0  0  0  0  0  0
  -30.4992  -17.3533   20.7288 C   0  0  0  0  0  0
  -27.6605  -24.4426   18.9055 N   0  0  0  0  0  0
  -29.9321  -15.9261   20.6585 N   0  0  0  0  0  0
  -31.4706  -12.5809   19.1597 H   0  0  0  0  0  0
  -30.3778  -11.4950   19.9664 H   0  0  0  0  0  0
  -29.7916  -11.7221   17.5256 H   0  0  0  0  0  0
  -29.6422  -13.4519   17.7049 H   0  0  0  0  0  0
  -27.8820  -11.2908   18.9032 H   0  0  0  0  0  0
  -27.3818  -12.5441   17.7973 H   0  0  0  0  0  0
  -27.6295  -14.2625   19.4618 H   0  0  0  0  0  0
  -28.7348  -12.2115   21.4379 H   0  0  0  0  0  0
  -28.4303  -13.8994   21.7744 H   0  0  0  0  0  0
  -25.2784   -9.5684   22.4776 H   0  0  0  0  0  0
  -24.0025   -7.4633   22.7460 H   0  0  0  0  0  0
  -21.0871   -8.8806   19.8954 H   0  0  0  0  0  0
  -22.3738  -10.9703   19.6179 H   0  0  0  0  0  0
  -21.2006   -7.6152   23.9739 H   0  0  0  0  0  0
  -21.1477   -6.0512   25.9085 H   0  0  0  0  0  0
  -22.0601   -2.7626   23.2837 H   0  0  0  0  0  0
  -22.4052  -11.9904   22.4852 H   0  0  0  0  0  0
  -21.1072  -13.1264   22.2617 H   0  0  0  0  0  0
  -24.6449  -15.8427   20.5457 H   0  0  0  0  0  0
  -26.2562  -15.6459   20.0806 H   0  0  0  0  0  0
  -26.7203  -32.5409   23.1064 H   0  0  0  0  0  0
  -25.0040  -33.9684   25.0369 H   0  0  0  0  0  0
  -22.7288  -31.3039   21.3955 H   0  0  0  0  0  0
  -23.3773  -35.9603   23.3276 H   0  0  0  0  0  0
  -24.3592  -36.8920   22.2060 H   0  0  0  0  0  0
  -23.7248  -37.6470   23.6675 H   0  0  0  0  0  0
  -26.1310  -31.5133   20.6248 H   0  0  0  0  0  0
  -26.8543  -30.7951   22.0292 H   0  0  0  0  0  0
  -28.1114  -28.8723   21.2366 H   0  0  0  0  0  0
  -25.8874  -25.9382   18.9532 H   0  0  0  0  0  0
  -23.9714  -27.3361   18.9735 H   0  0  0  0  0  0
  -23.7784  -30.5945   19.4020 H   0  0  0  0  0  0
  -22.7704  -29.2522   19.8550 H   0  0  0  0  0  0
  -25.1313  -36.1899   25.0819 H   0  0  0  0  0  0
  -21.0004  -28.3277   24.1368 H   0  0  0  0  0  0
  -20.5665  -26.2321   23.3612 H   0  0  0  0  0  0
  -21.6645  -26.7428   22.1199 H   0  0  0  0  0  0
  -19.6893  -25.6298   21.1240 H   0  0  0  0  0  0
  -19.6668  -27.3202   20.6743 H   0  0  0  0  0  0
  -17.4196  -26.6684   21.4049 H   0  0  0  0  0  0
  -18.0341  -26.0088   22.9044 H   0  0  0  0  0  0
  -19.7940  -30.7312   24.2225 H   0  0  0  0  0  0
  -17.5015  -31.6267   24.5181 H   0  0  0  0  0  0
  -15.5355  -30.2979   23.7676 H   0  0  0  0  0  0
  -15.8690  -28.0836   22.7037 H   0  0  0  0  0  0
  -24.5914  -30.7028   25.7724 H   0  0  0  0  0  0
  -24.8884  -32.2870   26.4824 H   0  0  0  0  0  0
  -25.8028  -30.8886   27.0210 H   0  0  0  0  0  0
  -26.2968  -29.6687   24.1268 H   0  0  0  0  0  0
  -27.4049  -29.7269   25.4758 H   0  0  0  0  0  0
  -27.8844  -30.4233   23.9490 H   0  0  0  0  0  0
  -27.2697  -33.3615   26.2030 H   0  0  0  0  0  0
  -28.3883  -32.6819   25.0289 H   0  0  0  0  0  0
  -28.0731  -31.8426   26.5397 H   0  0  0  0  0  0
  -28.2586  -38.0107   24.7543 H   0  0  0  0  0  0
  -28.1115  -36.2643   24.6252 H   0  0  0  0  0  0
  -27.2312  -37.1385   25.8861 H   0  0  0  0  0  0
  -20.9391  -29.8784   21.6850 H   0  0  0  0  0  0
  -26.0177  -38.2833   24.1416 H   0  0  0  0  0  0
  -28.2110  -21.0919   19.0713 H   0  0  0  0  0  0
  -27.0075  -22.8323   17.7887 H   0  0  0  0  0  0
  -30.6280  -22.0022   21.8284 H   0  0  0  0  0  0
  -29.7780  -23.9089   22.8023 H   0  0  0  0  0  0
  -29.7663  -25.5176   22.0977 H   0  0  0  0  0  0
  -31.0227  -24.3764   21.6314 H   0  0  0  0  0  0
  -31.6614  -20.5790   22.9135 H   0  0  0  0  0  0
  -32.1472  -19.2853   21.8448 H   0  0  0  0  0  0
  -30.9074  -19.0154   23.0862 H   0  0  0  0  0  0
  -29.2220  -18.9288   19.7155 H   0  0  0  0  0  0
  -28.6903  -18.5148   21.3139 H   0  0  0  0  0  0
  -31.2576  -17.4590   19.9513 H   0  0  0  0  0  0
  -31.0656  -17.3109   21.6561 H   0  0  0  0  0  0
  -28.9391  -15.8184   20.8047 H   0  0  0  0  0  0
  1 25  1  0  0  0
  1 30  2  0  0  0
  1 83  1  0  0  0
  2  3  1  0  0  0
  2 25  1  0  0  0
  2 84  1  0  0  0
  2 85  1  0  0  0
  3  4  1  0  0  0
  3 86  1  0  0  0
  3 87  1  0  0  0
  4  5  1  0  0  0
  4 88  1  0  0  0
  4 89  1  0  0  0
  5  6  1  0  0  0
  5 26  1  0  0  0
  5 90  1  0  0  0
  6 25  1  0  0  0
  6 91  1  0  0  0
  6 92  1  0  0  0
  7  8  2  0  0  0
  7 26  1  0  0  0
  7 29  1  0  0  0
  8  9  1  0  0  0
  8 22  1  0  0  0
  9 10  1  0  0  0
  9 27  2  0  0  0
 10 11  2  0  0  0
 10 15  1  0  0  0
 11 12  1  0  0  0
 11 93  1  0  0  0
 12 13  2  0  0  0
 12 94  1  0  0  0
 13 14  1  0  0  0
 13 31  1  0  0  0
 14 15  2  0  0  0
 14 95  1  0  0  0
 15 96  1  0  0  0
 16 17  2  0  0  0
 16 21  1  0  0  0
 16 31  1  0  0  0
 17 18  1  0  0  0
 17 97  1  0  0  0
 18 19  2  0  0  0
 18 98  1  0  0  0
 19 20  1  0  0  0
 19 24  1  0  0  0
 20 21  2  0  0  0
 20 99  1  0  0  0
 21 23  1  0  0  0
 22 28  1  0  0  0
 22 32  2  0  0  0
 26 27  1  0  0  0
 28100  1  0  0  0
 28101  1  0  0  0
 29102  1  0  0  0
 29103  1  0  0  0
 33 34  1  0  0  0
 33 66  1  0  0  0
 33 70  2  0  0  0
 34 36  1  0  0  0
 34 59  1  0  0  0
 34104  1  0  0  0
 35 44  2  0  0  0
 35 45  1  0  0  0
 35 68  1  0  0  0
 36 56  1  0  0  0
 36105  1  0  0  0
 37 39  1  0  0  0
 37 47  1  0  0  0
 37 66  1  0  0  0
 37106  1  0  0  0
 38 43  2  0  0  0
 38 46  1  0  0  0
 38 47  1  0  0  0
 39 64  1  0  0  0
 39 67  2  0  0  0
 40 52  1  0  0  0
 40 53  2  0  0  0
 40 58  1  0  0  0
 41107  1  0  0  0
 41108  1  0  0  0
 41109  1  0  0  0
 41 48  1  0  0  0
 42 43  1  0  0  0
 42 66  1  0  0  0
 42110  1  0  0  0
 42111  1  0  0  0
 43 44  1  0  0  0
 44112  1  0  0  0
 45 46  2  0  0  0
 45113  1  0  0  0
 46114  1  0  0  0
 47115  1  0  0  0
 47116  1  0  0  0
 48 56  1  0  0  0
 48 65  1  0  0  0
 48117  1  0  0  0
 49 50  1  0  0  0
 49 53  1  0  0  0
 49 64  1  0  0  0
 49118  1  0  0  0
 50 51  1  0  0  0
 50119  1  0  0  0
 50120  1  0  0  0
 51 52  1  0  0  0
 51121  1  0  0  0
 51122  1  0  0  0
 52123  1  0  0  0
 52124  1  0  0  0
 53 54  1  0  0  0
 54 55  2  0  0  0
 54125  1  0  0  0
 55 57  1  0  0  0
 55126  1  0  0  0
 56 69  2  0  0  0
 57 58  2  0  0  0
 57127  1  0  0  0
 58128  1  0  0  0
 59 60  1  0  0  0
 59 61  1  0  0  0
 59 62  1  0  0  0
 60129  1  0  0  0
 60130  1  0  0  0
 60131  1  0  0  0
 61132  1  0  0  0
 61133  1  0  0  0
 61134  1  0  0  0
 62135  1  0  0  0
 62136  1  0  0  0
 62137  1  0  0  0
 63 65  1  0  0  0
 63138  1  0  0  0
 63139  1  0  0  0
 63140  1  0  0  0
 64141  1  0  0  0
 65142  1  0  0  0
 68 75  1  0  0  0
 71 72  2  0  0  0
 71 73  1  0  0  0
 71143  1  0  0  0
 72 82  1  0  0  0
 72144  1  0  0  0
 73 74  2  0  0  0
 73 76  1  0  0  0
 74 75  1  0  0  0
 74 78  1  0  0  0
 75 82  2  0  0  0
 76 77  2  0  0  0
 76145  1  0  0  0
 77 79  1  0  0  0
 77 80  1  0  0  0
 78146  1  0  0  0
 78147  1  0  0  0
 78148  1  0  0  0
 79149  1  0  0  0
 79150  1  0  0  0
 79151  1  0  0  0
 80 81  1  0  0  0
 80152  1  0  0  0
 80153  1  0  0  0
 81 83  1  0  0  0
 81154  1  0  0  0
 81155  1  0  0  0
 83156  1  0  0  0
M  ISO  4   1 100  68 101  75 101  83 100
M  END
> <chiral flag>
0

> <version>
0

> <s_m_source_file>
/data/baiqing/PycharmProjects/Reinvent-master-3.2/result/LINK_invent/BTK/process_docking_weight1_custom_sum_contain_oxygen_bond_distance_aromatic_linkinvent_7_9_3/rearranged_h_0106.sdf

> <i_m_source_file_index>
13

> <r_mmod_Potential_Energy-OPLS-2005>
126.367851257324

> <r_mmod_Stretch_Energy-OPLS-2005>
142.262161254883

> <r_mmod_Bend_Energy-OPLS-2005>
228.783752441406

> <r_mmod_Torsional_Energy-OPLS-2005>
214.493362426758

> <r_mmod_Improper_Torsional_Energy-OPLS-2005>
4.75702095031738

> <r_mmod_Van_der_Waal_Energy-OPLS-2005>
161.305740356445

> <r_mmod_Electrostatic_Energy-OPLS-2005>
-505.879150390625

> <r_mmod_Solvation_Energy-OPLS-2005>
-213.477264404297

> <b_mmod_Minimization_Converged-OPLS-2005>
0

> <r_mmod_RMS_Derivative-OPLS-2005>
2.6217315196991

$$$$
13
                    3D
 Structure written by MMmdl.
170178  0  0  1  0            999 V2000
  -30.6155  -14.7596   20.4172 C   0  0  0  0  0  0
  -30.4299  -12.4549   19.4722 C   0  0  0  0  0  0
  -29.5078  -12.4913   18.2345 C   0  0  0  0  0  0
  -28.0363  -12.3163   18.6540 C   0  0  0  0  0  0
  -27.6419  -13.2307   19.8452 C   0  0  2  0  0  0
  -28.6878  -13.1848   20.9825 C   0  0  0  0  0  0
  -25.2491  -13.8196   20.5633 C   0  0  0  0  0  0
  -24.1781  -13.0453   20.9226 C   0  0  0  0  0  0
  -24.6370  -11.6921   20.8762 C   0  0  0  0  0  0
  -23.9035  -10.4289   21.0428 C   0  0  0  0  0  0
  -24.3599   -9.4207   21.9179 C   0  0  0  0  0  0
  -23.6296   -8.2237   22.0731 C   0  0  0  0  0  0
  -22.4280   -8.0274   21.3535 C   0  0  0  0  0  0
  -21.9894   -9.0247   20.4650 C   0  0  0  0  0  0
  -22.7206  -10.2147   20.3068 C   0  0  0  0  0  0
  -21.6853   -6.0744   22.5275 C   0  0  0  0  0  0
  -21.4015   -6.5649   23.8222 C   0  0  0  0  0  0
  -21.3648   -5.6796   24.9176 C   0  0  0  0  0  0
  -21.6038   -4.3064   24.7214 C   0  0  0  0  0  0
  -21.8825   -3.8149   23.4338 C   0  0  0  0  0  0
  -21.9191   -4.6965   22.3401 C   0  0  0  0  0  0
  -22.7801  -13.5241   21.1902 C   0  0  0  0  0  0
  -22.1673   -4.2155   21.0975 F   0  0  0  0  0  0
  -21.5608   -3.4545   25.7735 F   0  0  0  0  0  0
  -29.9839  -13.5325   20.3926 N   0  0  0  0  0  0
  -26.2929  -12.9404   20.3261 N   0  0  0  0  0  0
  -25.9307  -11.6557   20.5768 N   0  0  0  0  0  0
  -22.0455  -12.8223   22.0478 N   0  0  0  0  0  0
  -25.4162  -15.1912   20.3950 N   0  0  0  0  0  0
  -31.8232  -14.7893   20.1670 O   0  0  0  0  0  0
  -21.6630   -6.8881   21.4248 O   0  0  0  0  0  0
  -22.3474  -14.5535   20.6748 O   0  0  0  0  0  0
  -24.6308  -31.8513   23.1978 C   0  0  0  0  0  0
  -25.9131  -32.4732   23.8310 C   0  0  1  0  0  0
  -27.2050  -27.2385   20.1424 C   0  0  0  0  0  0
  -25.5937  -33.8538   24.2248 N   0  0  0  0  0  0
  -23.4251  -30.4741   21.5428 C   0  0  2  0  0  0
  -24.8697  -28.9131   20.1156 C   0  0  0  0  0  0
  -22.7476  -29.4569   22.4919 C   0  0  0  0  0  0
  -18.0264  -28.1357   22.8460 C   0  0  0  0  0  0
  -24.1489  -36.7265   23.2645 C   0  0  0  0  0  0
  -25.9731  -30.7601   21.3764 C   0  0  0  0  0  0
  -26.0430  -29.3788   20.7223 C   0  0  0  0  0  0
  -27.2164  -28.5563   20.7166 C   0  0  0  0  0  0
  -26.0101  -26.8401   19.5049 C   0  0  0  0  0  0
  -24.8603  -27.6537   19.4912 C   0  0  0  0  0  0
  -23.6434  -29.8055   20.1602 C   0  0  0  0  0  0
  -25.4113  -36.3045   24.0333 C   0  0  1  0  0  0
  -20.5869  -28.3641   23.1265 C   0  0  2  0  0  0
  -20.6743  -26.9352   22.5415 C   0  0  0  0  0  0
  -19.5755  -26.6339   21.5182 C   0  0  0  0  0  0
  -18.1913  -26.7899   22.1571 C   0  0  0  0  0  0
  -19.1516  -28.8813   23.2861 C   0  0  0  0  0  0
  -18.9459  -30.1411   23.8883 C   0  0  0  0  0  0
  -17.6469  -30.6565   24.0531 C   0  0  0  0  0  0
  -25.9053  -34.9422   23.5088 C   0  0  0  0  0  0
  -16.5354  -29.9059   23.6334 C   0  0  0  0  0  0
  -16.7251  -28.6470   23.0360 C   0  0  0  0  0  0
  -26.4515  -31.6570   25.0700 C   0  0  0  0  0  0
  -25.3779  -31.3769   26.1471 C   0  0  0  0  0  0
  -27.0319  -30.2960   24.6191 C   0  0  0  0  0  0
  -27.6076  -32.4320   25.7456 C   0  0  0  0  0  0
  -27.5587  -37.1758   24.8456 C   0  0  0  0  0  0
  -21.4171  -29.3000   22.3664 N   0  0  0  0  0  0
  -26.4281  -37.3748   23.9437 N   0  0  0  0  0  0
  -24.6957  -31.0476   22.0952 N   0  0  0  0  0  0
  -23.4191  -28.8113   23.2997 O   0  0  0  0  0  0
  -28.3018  -26.3461   20.1617 O   0  0  0  0  0  0
  -26.5612  -34.8893   22.4649 O   0  0  0  0  0  0
  -23.5464  -32.1326   23.7290 O   0  0  0  0  0  0
  -31.3245  -18.6735   18.4021 C   0  0  0  0  0  0
  -31.0713  -17.4518   19.0278 C   0  0  0  0  0  0
  -30.5712  -19.8130   18.7251 C   0  0  0  0  0  0
  -29.5733  -19.7332   19.7332 C   0  0  0  0  0  0
  -30.0796  -17.3142   20.0152 C   0  0  0  0  0  0
  -30.8663  -21.0624   17.9067 C   0  0  0  0  0  0
  -25.4028  -21.2221   19.3636 C   0  0  0  0  0  0
  -25.2493  -19.3775   21.0891 C   0  0  0  0  0  0
  -30.4102  -24.4032   19.5912 C   0  0  0  0  0  0
  -27.4003  -20.7231   20.8777 C   0  0  0  0  0  0
  -28.1161  -24.8821   20.5114 C   0  0  0  0  0  0
  -28.6370  -21.0331   19.9961 C   0  0  1  0  0  0
  -26.1844  -20.1312   20.1267 C   0  0  0  0  0  0
  -29.0350  -23.7426   19.7987 C   0  0  2  0  0  0
  -29.3583  -18.4790   20.3437 N   0  0  0  0  0  0
  -29.8568  -15.9318   20.5483 N   0  0  0  0  0  0
  -29.2783  -22.3526   20.4689 N   0  3  0  0  0  0
  -31.4698  -12.5698   19.1606 H   0  0  0  0  0  0
  -30.3757  -11.4796   19.9612 H   0  0  0  0  0  0
  -29.7904  -11.7086   17.5304 H   0  0  0  0  0  0
  -29.6348  -13.4362   17.7048 H   0  0  0  0  0  0
  -27.9015  -11.2711   18.9385 H   0  0  0  0  0  0
  -27.3707  -12.4878   17.8059 H   0  0  0  0  0  0
  -27.6384  -14.2463   19.4494 H   0  0  0  0  0  0
  -28.7305  -12.1956   21.4408 H   0  0  0  0  0  0
  -28.4226  -13.8813   21.7811 H   0  0  0  0  0  0
  -25.2753   -9.5690   22.4745 H   0  0  0  0  0  0
  -24.0025   -7.4611   22.7417 H   0  0  0  0  0  0
  -21.0829   -8.8749   19.8966 H   0  0  0  0  0  0
  -22.3633  -10.9677   19.6179 H   0  0  0  0  0  0
  -21.2031   -7.6168   23.9717 H   0  0  0  0  0  0
  -21.1467   -6.0538   25.9087 H   0  0  0  0  0  0
  -22.0623   -2.7615   23.2831 H   0  0  0  0  0  0
  -22.4105  -11.9926   22.4914 H   0  0  0  0  0  0
  -21.1049  -13.1208   22.2660 H   0  0  0  0  0  0
  -24.6428  -15.8385   20.4991 H   0  0  0  0  0  0
  -26.2483  -15.6250   20.0148 H   0  0  0  0  0  0
  -26.7181  -32.5364   23.1031 H   0  0  0  0  0  0
  -25.0113  -33.9685   25.0415 H   0  0  0  0  0  0
  -22.7198  -31.2954   21.3979 H   0  0  0  0  0  0
  -23.3761  -35.9587   23.3277 H   0  0  0  0  0  0
  -24.3583  -36.8925   22.2070 H   0  0  0  0  0  0
  -23.7246  -37.6452   23.6686 H   0  0  0  0  0  0
  -26.1088  -31.5144   20.6012 H   0  0  0  0  0  0
  -26.8550  -30.8125   22.0049 H   0  0  0  0  0  0
  -28.1194  -28.9079   21.1951 H   0  0  0  0  0  0
  -25.9485  -25.8753   19.0204 H   0  0  0  0  0  0
  -23.9619  -27.2964   19.0060 H   0  0  0  0  0  0
  -23.7693  -30.5818   19.4037 H   0  0  0  0  0  0
  -22.7590  -29.2409   19.8564 H   0  0  0  0  0  0
  -25.1294  -36.1853   25.0822 H   0  0  0  0  0  0
  -20.9954  -28.3209   24.1388 H   0  0  0  0  0  0
  -20.5533  -26.2264   23.3613 H   0  0  0  0  0  0
  -21.6628  -26.7309   22.1289 H   0  0  0  0  0  0
  -19.6914  -25.6240   21.1223 H   0  0  0  0  0  0
  -19.6743  -27.3129   20.6699 H   0  0  0  0  0  0
  -17.4192  -26.6634   21.3961 H   0  0  0  0  0  0
  -18.0313  -26.0030   22.8956 H   0  0  0  0  0  0
  -19.7945  -30.7188   24.2281 H   0  0  0  0  0  0
  -17.5039  -31.6252   24.5111 H   0  0  0  0  0  0
  -15.5351  -30.2964   23.7678 H   0  0  0  0  0  0
  -15.8640  -28.0775   22.7135 H   0  0  0  0  0  0
  -24.6016  -30.6980   25.7919 H   0  0  0  0  0  0
  -24.8889  -32.2946   26.4744 H   0  0  0  0  0  0
  -25.8181  -30.9155   27.0325 H   0  0  0  0  0  0
  -26.2865  -29.6725   24.1230 H   0  0  0  0  0  0
  -27.3990  -29.7204   25.4700 H   0  0  0  0  0  0
  -27.8761  -30.4206   23.9410 H   0  0  0  0  0  0
  -27.2671  -33.3618   26.2023 H   0  0  0  0  0  0
  -28.3877  -32.6894   25.0282 H   0  0  0  0  0  0
  -28.0740  -31.8451   26.5378 H   0  0  0  0  0  0
  -28.2581  -38.0061   24.7482 H   0  0  0  0  0  0
  -28.1078  -36.2594   24.6258 H   0  0  0  0  0  0
  -27.2307  -37.1406   25.8852 H   0  0  0  0  0  0
  -20.9323  -29.8778   21.6942 H   0  0  0  0  0  0
  -26.0135  -38.2796   24.1492 H   0  0  0  0  0  0
  -32.0869  -18.7137   17.6371 H   0  0  0  0  0  0
  -31.6630  -16.6176   18.6866 H   0  0  0  0  0  0
  -31.4625  -20.8116   17.0268 H   0  0  0  0  0  0
  -31.4674  -21.7530   18.4908 H   0  0  0  0  0  0
  -29.9676  -21.5606   17.5406 H   0  0  0  0  0  0
  -24.4566  -20.8368   18.9812 H   0  0  0  0  0  0
  -25.9559  -21.6025   18.5042 H   0  0  0  0  0  0
  -25.1678  -22.0714   20.0072 H   0  0  0  0  0  0
  -24.3603  -19.0250   20.5669 H   0  0  0  0  0  0
  -24.9179  -20.0006   21.9212 H   0  0  0  0  0  0
  -25.7370  -18.4965   21.5086 H   0  0  0  0  0  0
  -30.3107  -25.3467   19.0546 H   0  0  0  0  0  0
  -31.0865  -23.7949   18.9991 H   0  0  0  0  0  0
  -30.8938  -24.6203   20.5448 H   0  0  0  0  0  0
  -27.0511  -21.6365   21.3616 H   0  0  0  0  0  0
  -27.7089  -20.0763   21.6992 H   0  0  0  0  0  0
  -28.3187  -24.8282   21.5809 H   0  0  0  0  0  0
  -27.0710  -24.5838   20.4277 H   0  0  0  0  0  0
  -28.2455  -21.2693   19.0092 H   0  0  0  0  0  0
  -26.5423  -19.3977   19.3999 H   0  0  0  0  0  0
  -28.6268  -23.5700   18.8033 H   0  0  0  0  0  0
  -28.9461  -15.7901   20.9508 H   0  0  0  0  0  0
  -30.2604  -22.1681   20.3463 H   0  0  0  0  0  0
  -29.1584  -22.4125   21.4664 H   0  0  0  0  0  0
  1 25  1  0  0  0
  1 30  2  0  0  0
  1 86  1  0  0  0
  2  3  1  0  0  0
  2 25  1  0  0  0
  2 88  1  0  0  0
  2 89  1  0  0  0
  3  4  1  0  0  0
  3 90  1  0  0  0
  3 91  1  0  0  0
  4  5  1  0  0  0
  4 92  1  0  0  0
  4 93  1  0  0  0
  5  6  1  0  0  0
  5 26  1  0  0  0
  5 94  1  0  0  0
  6 25  1  0  0  0
  6 95  1  0  0  0
  6 96  1  0  0  0
  7  8  2  0  0  0
  7 26  1  0  0  0
  7 29  1  0  0  0
  8  9  1  0  0  0
  8 22  1  0  0  0
  9 10  1  0  0  0
  9 27  2  0  0  0
 10 11  2  0  0  0
 10 15  1  0  0  0
 11 12  1  0  0  0
 11 97  1  0  0  0
 12 13  2  0  0  0
 12 98  1  0  0  0
 13 14  1  0  0  0
 13 31  1  0  0  0
 14 15  2  0  0  0
 14 99  1  0  0  0
 15100  1  0  0  0
 16 17  2  0  0  0
 16 21  1  0  0  0
 16 31  1  0  0  0
 17 18  1  0  0  0
 17101  1  0  0  0
 18 19  2  0  0  0
 18102  1  0  0  0
 19 20  1  0  0  0
 19 24  1  0  0  0
 20 21  2  0  0  0
 20103  1  0  0  0
 21 23  1  0  0  0
 22 28  1  0  0  0
 22 32  2  0  0  0
 26 27  1  0  0  0
 28104  1  0  0  0
 28105  1  0  0  0
 29106  1  0  0  0
 29107  1  0  0  0
 33 34  1  0  0  0
 33 66  1  0  0  0
 33 70  2  0  0  0
 34 36  1  0  0  0
 34 59  1  0  0  0
 34108  1  0  0  0
 35 44  2  0  0  0
 35 45  1  0  0  0
 35 68  1  0  0  0
 36 56  1  0  0  0
 36109  1  0  0  0
 37 39  1  0  0  0
 37 47  1  0  0  0
 37 66  1  0  0  0
 37110  1  0  0  0
 38 43  2  0  0  0
 38 46  1  0  0  0
 38 47  1  0  0  0
 39 64  1  0  0  0
 39 67  2  0  0  0
 40 52  1  0  0  0
 40 53  2  0  0  0
 40 58  1  0  0  0
 41111  1  0  0  0
 41112  1  0  0  0
 41113  1  0  0  0
 41 48  1  0  0  0
 42 43  1  0  0  0
 42 66  1  0  0  0
 42114  1  0  0  0
 42115  1  0  0  0
 43 44  1  0  0  0
 44116  1  0  0  0
 45 46  2  0  0  0
 45117  1  0  0  0
 46118  1  0  0  0
 47119  1  0  0  0
 47120  1  0  0  0
 48 56  1  0  0  0
 48 65  1  0  0  0
 48121  1  0  0  0
 49 50  1  0  0  0
 49 53  1  0  0  0
 49 64  1  0  0  0
 49122  1  0  0  0
 50 51  1  0  0  0
 50123  1  0  0  0
 50124  1  0  0  0
 51 52  1  0  0  0
 51125  1  0  0  0
 51126  1  0  0  0
 52127  1  0  0  0
 52128  1  0  0  0
 53 54  1  0  0  0
 54 55  2  0  0  0
 54129  1  0  0  0
 55 57  1  0  0  0
 55130  1  0  0  0
 56 69  2  0  0  0
 57 58  2  0  0  0
 57131  1  0  0  0
 58132  1  0  0  0
 59 60  1  0  0  0
 59 61  1  0  0  0
 59 62  1  0  0  0
 60133  1  0  0  0
 60134  1  0  0  0
 60135  1  0  0  0
 61136  1  0  0  0
 61137  1  0  0  0
 61138  1  0  0  0
 62139  1  0  0  0
 62140  1  0  0  0
 62141  1  0  0  0
 63 65  1  0  0  0
 63142  1  0  0  0
 63143  1  0  0  0
 63144  1  0  0  0
 64145  1  0  0  0
 65146  1  0  0  0
 68 81  1  0  0  0
 71 72  2  0  0  0
 71 73  1  0  0  0
 71147  1  0  0  0
 72 75  1  0  0  0
 72148  1  0  0  0
 73 74  2  0  0  0
 73 76  1  0  0  0
 74 82  1  0  0  0
 74 85  1  0  0  0
 75 85  2  0  0  0
 75 86  1  0  0  0
 76149  1  0  0  0
 76150  1  0  0  0
 76151  1  0  0  0
 77152  1  0  0  0
 77153  1  0  0  0
 77154  1  0  0  0
 77 83  1  0  0  0
 78 83  1  0  0  0
 78155  1  0  0  0
 78156  1  0  0  0
 78157  1  0  0  0
 79158  1  0  0  0
 79159  1  0  0  0
 79160  1  0  0  0
 79 84  1  0  0  0
 80 83  1  0  0  0
 80161  1  0  0  0
 80162  1  0  0  0
 80 82  1  0  0  0
 81 84  1  0  0  0
 81163  1  0  0  0
 81164  1  0  0  0
 82 87  1  0  0  0
 82165  1  0  0  0
 83166  1  0  0  0
 84 87  1  0  0  0
 84167  1  0  0  0
 86168  1  0  0  0
 87169  1  0  0  0
 87170  1  0  0  0
M  CHG  1  87   1
M  ISO  4   1 100  68 101  81 101  86 100
M  END
> <chiral flag>
0

> <version>
0

> <s_m_source_file>
/data/baiqing/PycharmProjects/Reinvent-master-3.2/result/LINK_invent/BTK/process_docking_weight1_custom_sum_contain_oxygen_bond_distance_aromatic_linkinvent_7_9_3/rearranged_h_0106.sdf

> <i_m_source_file_index>
14

> <r_mmod_Potential_Energy-OPLS-2005>
-7.94892263412476

> <r_mmod_Stretch_Energy-OPLS-2005>
153.642517089844

> <r_mmod_Bend_Energy-OPLS-2005>
199.789916992188

> <r_mmod_Torsional_Energy-OPLS-2005>
278.999420166016

> <r_mmod_Improper_Torsional_Energy-OPLS-2005>
4.87439680099487

> <r_mmod_Van_der_Waal_Energy-OPLS-2005>
138.514862060547

> <r_mmod_Electrostatic_Energy-OPLS-2005>
-437.998901367188

> <r_mmod_Solvation_Energy-OPLS-2005>
-440.156585693359

> <b_mmod_Minimization_Converged-OPLS-2005>
0

> <r_mmod_RMS_Derivative-OPLS-2005>
4.10889720916748

$$$$
14
                    3D
 Structure written by MMmdl.
183191  0  0  1  0            999 V2000
  -30.7461  -14.3979   20.5685 C   0  0  0  0  0  0
  -30.4083  -12.2565   19.4250 C   0  0  0  0  0  0
  -29.4876  -12.4796   18.2095 C   0  0  0  0  0  0
  -28.0093  -12.3526   18.6221 C   0  0  0  0  0  0
  -27.6628  -13.1963   19.8782 C   0  0  2  0  0  0
  -28.7035  -12.9794   21.0020 C   0  0  0  0  0  0
  -25.2561  -13.8146   20.5685 C   0  0  0  0  0  0
  -24.1826  -13.0429   20.9203 C   0  0  0  0  0  0
  -24.6402  -11.6895   20.8802 C   0  0  0  0  0  0
  -23.9099  -10.4283   21.0471 C   0  0  0  0  0  0
  -24.3658   -9.4179   21.9229 C   0  0  0  0  0  0
  -23.6324   -8.2218   22.0775 C   0  0  0  0  0  0
  -22.4297   -8.0279   21.3560 C   0  0  0  0  0  0
  -21.9963   -9.0262   20.4658 C   0  0  0  0  0  0
  -22.7304  -10.2129   20.3082 C   0  0  0  0  0  0
  -21.6841   -6.0734   22.5285 C   0  0  0  0  0  0
  -21.4009   -6.5641   23.8218 C   0  0  0  0  0  0
  -21.3664   -5.6805   24.9191 C   0  0  0  0  0  0
  -21.6045   -4.3069   24.7249 C   0  0  0  0  0  0
  -21.8813   -3.8146   23.4372 C   0  0  0  0  0  0
  -21.9187   -4.6958   22.3420 C   0  0  0  0  0  0
  -22.7842  -13.5212   21.1861 C   0  0  0  0  0  0
  -22.1663   -4.2134   21.1001 F   0  0  0  0  0  0
  -21.5639   -3.4565   25.7777 F   0  0  0  0  0  0
  -30.0416  -13.2453   20.4496 N   0  0  0  0  0  0
  -26.3022  -12.9319   20.3411 N   0  0  0  0  0  0
  -25.9322  -11.6491   20.5843 N   0  0  0  0  0  0
  -22.0475  -12.8188   22.0395 N   0  0  0  0  0  0
  -25.4228  -15.1866   20.4025 N   0  0  0  0  0  0
  -31.8578  -14.5544   20.0616 O   0  0  0  0  0  0
  -21.6638   -6.8888   21.4253 O   0  0  0  0  0  0
  -22.3519  -14.5514   20.6697 O   0  0  0  0  0  0
  -24.6116  -31.8704   23.2124 C   0  0  0  0  0  0
  -25.9016  -32.4844   23.8415 C   0  0  1  0  0  0
  -27.2439  -27.4796   20.0733 C   0  0  0  0  0  0
  -25.5879  -33.8640   24.2346 N   0  0  0  0  0  0
  -23.3985  -30.4925   21.5525 C   0  0  2  0  0  0
  -24.8450  -28.9604   20.1142 C   0  0  0  0  0  0
  -22.7398  -29.4668   22.5013 C   0  0  0  0  0  0
  -18.0271  -28.1382   22.8499 C   0  0  0  0  0  0
  -24.1487  -36.7329   23.2643 C   0  0  0  0  0  0
  -25.9223  -30.8436   21.3616 C   0  0  0  0  0  0
  -26.0002  -29.4793   20.7129 C   0  0  0  0  0  0
  -27.1991  -28.7380   20.7042 C   0  0  0  0  0  0
  -26.0721  -26.9545   19.4875 C   0  0  0  0  0  0
  -24.8720  -27.6918   19.5053 C   0  0  0  0  0  0
  -23.6037  -29.8217   20.1670 C   0  0  0  0  0  0
  -25.4109  -36.3132   24.0346 C   0  0  1  0  0  0
  -20.5858  -28.3666   23.1327 C   0  0  2  0  0  0
  -20.6759  -26.9407   22.5422 C   0  0  0  0  0  0
  -19.5738  -26.6388   21.5221 C   0  0  0  0  0  0
  -18.1916  -26.7935   22.1622 C   0  0  0  0  0  0
  -19.1518  -28.8838   23.2912 C   0  0  0  0  0  0
  -18.9447  -30.1445   23.8923 C   0  0  0  0  0  0
  -17.6449  -30.6586   24.0572 C   0  0  0  0  0  0
  -25.9028  -34.9489   23.5144 C   0  0  0  0  0  0
  -16.5343  -29.9091   23.6323 C   0  0  0  0  0  0
  -16.7261  -28.6507   23.0349 C   0  0  0  0  0  0
  -26.4448  -31.6614   25.0734 C   0  0  0  0  0  0
  -25.3716  -31.3684   26.1481 C   0  0  0  0  0  0
  -27.0289  -30.3074   24.6075 C   0  0  0  0  0  0
  -27.6033  -32.4327   25.7486 C   0  0  0  0  0  0
  -27.5585  -37.1828   24.8468 C   0  0  0  0  0  0
  -21.4130  -29.3033   22.3737 N   0  0  0  0  0  0
  -26.4306  -37.3807   23.9404 N   0  0  0  0  0  0
  -24.6624  -31.0830   22.1012 N   0  0  0  0  0  0
  -23.4180  -28.8213   23.3049 O   0  0  0  0  0  0
  -28.4160  -26.7690   20.0797 O   0  0  0  0  0  0
  -26.5597  -34.8934   22.4707 O   0  0  0  0  0  0
  -23.5314  -32.1437   23.7532 O   0  0  0  0  0  0
  -29.5659  -22.7335   17.8227 C   0  0  0  0  0  0
  -29.0539  -24.0408   17.8762 C   0  0  0  0  0  0
  -30.9933  -23.2264   19.7291 C   0  0  0  0  0  0
  -30.5434  -22.3248   18.7479 C   0  0  0  0  0  0
  -29.5151  -24.9613   18.8429 C   0  0  0  0  0  0
  -30.5101  -24.5544   19.7781 C   0  0  0  0  0  0
  -33.3561  -25.7230   19.6392 C   0  0  0  0  0  0
  -30.4213  -25.2116   22.2097 C   0  0  0  0  0  0
  -28.4868  -17.3268   19.2875 C   0  0  0  0  0  0
  -31.1431  -20.9364   18.6528 C   0  0  0  0  0  0
  -28.9309  -26.3700   18.8135 C   0  0  0  0  0  0
  -32.6154  -25.4679   20.9617 C   0  0  0  0  0  0
  -30.2896  -19.8484   19.3223 C   0  0  0  0  0  0
  -30.7202  -18.4598   18.8232 C   0  0  0  0  0  0
  -31.8662  -17.2501   21.3190 C   0  0  0  0  0  0
  -32.3085  -16.7784   22.7202 C   0  0  0  0  0  0
  -31.0725  -25.4980   20.8480 C   0  0  1  0  0  0
  -30.0138  -17.2393   19.4495 C   0  0  1  0  0  0
  -30.4133  -16.8596   20.9129 C   0  0  1  0  0  0
  -30.0955  -15.4330   21.1272 N   0  0  0  0  0  0
  -33.7098  -17.1286   23.0098 N   0  3  0  0  0  0
  -31.4553  -12.3225   19.1233 H   0  0  0  0  0  0
  -30.2810  -11.2476   19.8222 H   0  0  0  0  0  0
  -29.7182  -11.7534   17.4275 H   0  0  0  0  0  0
  -29.6686  -13.4654   17.7781 H   0  0  0  0  0  0
  -27.8142  -11.2982   18.8200 H   0  0  0  0  0  0
  -27.3592  -12.6314   17.7926 H   0  0  0  0  0  0
  -27.7080  -14.2376   19.5713 H   0  0  0  0  0  0
  -28.6634  -11.9512   21.3638 H   0  0  0  0  0  0
  -28.4751  -13.6002   21.8694 H   0  0  0  0  0  0
  -25.2811   -9.5634   22.4804 H   0  0  0  0  0  0
  -24.0011   -7.4610   22.7506 H   0  0  0  0  0  0
  -21.0888   -8.8818   19.8970 H   0  0  0  0  0  0
  -22.3815  -10.9683   19.6185 H   0  0  0  0  0  0
  -21.1992   -7.6148   23.9723 H   0  0  0  0  0  0
  -21.1504   -6.0541   25.9094 H   0  0  0  0  0  0
  -22.0584   -2.7603   23.2894 H   0  0  0  0  0  0
  -22.4113  -11.9848   22.4769 H   0  0  0  0  0  0
  -21.1077  -13.1188   22.2600 H   0  0  0  0  0  0
  -24.6486  -15.8345   20.4913 H   0  0  0  0  0  0
  -26.2667  -15.6263   20.0610 H   0  0  0  0  0  0
  -26.7094  -32.5567   23.1190 H   0  0  0  0  0  0
  -25.0026  -33.9803   25.0488 H   0  0  0  0  0  0
  -22.6869  -31.3090   21.4145 H   0  0  0  0  0  0
  -23.3754  -35.9657   23.3310 H   0  0  0  0  0  0
  -24.3585  -36.8936   22.2057 H   0  0  0  0  0  0
  -23.7226  -37.6532   23.6649 H   0  0  0  0  0  0
  -26.0288  -31.6073   20.5903 H   0  0  0  0  0  0
  -26.8133  -30.9012   21.9745 H   0  0  0  0  0  0
  -28.0932  -29.1337   21.1648 H   0  0  0  0  0  0
  -26.0863  -25.9769   19.0258 H   0  0  0  0  0  0
  -23.9815  -27.2796   19.0508 H   0  0  0  0  0  0
  -23.7060  -30.5954   19.4055 H   0  0  0  0  0  0
  -22.7287  -29.2371   19.8756 H   0  0  0  0  0  0
  -25.1285  -36.2019   25.0842 H   0  0  0  0  0  0
  -20.9959  -28.3242   24.1446 H   0  0  0  0  0  0
  -20.5678  -26.2283   23.3613 H   0  0  0  0  0  0
  -21.6631  -26.7457   22.1214 H   0  0  0  0  0  0
  -19.6904  -25.6306   21.1235 H   0  0  0  0  0  0
  -19.6679  -27.3212   20.6765 H   0  0  0  0  0  0
  -17.4199  -26.6713   21.4008 H   0  0  0  0  0  0
  -18.0292  -26.0061   22.8996 H   0  0  0  0  0  0
  -19.7920  -30.7254   24.2314 H   0  0  0  0  0  0
  -17.5001  -31.6268   24.5170 H   0  0  0  0  0  0
  -15.5347  -30.3003   23.7616 H   0  0  0  0  0  0
  -15.8666  -28.0829   22.7051 H   0  0  0  0  0  0
  -24.5904  -30.7021   25.7799 H   0  0  0  0  0  0
  -24.8886  -32.2822   26.4953 H   0  0  0  0  0  0
  -25.8077  -30.8834   27.0223 H   0  0  0  0  0  0
  -26.2828  -29.6840   24.1136 H   0  0  0  0  0  0
  -27.4093  -29.7301   25.4511 H   0  0  0  0  0  0
  -27.8639  -30.4430   23.9197 H   0  0  0  0  0  0
  -27.2673  -33.3630   26.2074 H   0  0  0  0  0  0
  -28.3827  -32.6879   25.0295 H   0  0  0  0  0  0
  -28.0714  -31.8444   26.5384 H   0  0  0  0  0  0
  -28.2618  -38.0109   24.7509 H   0  0  0  0  0  0
  -28.1064  -36.2645   24.6310 H   0  0  0  0  0  0
  -27.2302  -37.1504   25.8869 H   0  0  0  0  0  0
  -20.9302  -29.8760   21.6953 H   0  0  0  0  0  0
  -26.0207  -38.2897   24.1377 H   0  0  0  0  0  0
  -29.2138  -22.0500   17.0626 H   0  0  0  0  0  0
  -28.3040  -24.3391   17.1569 H   0  0  0  0  0  0
  -31.7378  -22.8964   20.4384 H   0  0  0  0  0  0
  -34.4329  -25.7694   19.8069 H   0  0  0  0  0  0
  -33.0484  -26.6676   19.1895 H   0  0  0  0  0  0
  -33.1743  -24.9297   18.9132 H   0  0  0  0  0  0
  -29.3383  -25.3259   22.1599 H   0  0  0  0  0  0
  -30.7862  -25.8962   22.9754 H   0  0  0  0  0  0
  -30.6295  -24.1956   22.5461 H   0  0  0  0  0  0
  -28.2113  -17.5292   18.2527 H   0  0  0  0  0  0
  -28.0565  -18.1162   19.9045 H   0  0  0  0  0  0
  -28.0030  -16.3992   19.5764 H   0  0  0  0  0  0
  -32.1476  -20.9365   19.0801 H   0  0  0  0  0  0
  -31.2718  -20.7075   17.5936 H   0  0  0  0  0  0
  -28.1881  -26.4487   18.0179 H   0  0  0  0  0  0
  -29.7232  -27.0657   18.5339 H   0  0  0  0  0  0
  -32.9279  -26.2226   21.6855 H   0  0  0  0  0  0
  -32.9483  -24.5163   21.3776 H   0  0  0  0  0  0
  -29.2415  -20.0056   19.0648 H   0  0  0  0  0  0
  -30.3585  -19.9257   20.4079 H   0  0  0  0  0  0
  -31.8013  -18.3513   18.9103 H   0  0  0  0  0  0
  -30.5338  -18.4271   17.7485 H   0  0  0  0  0  0
  -32.5740  -16.8822   20.5763 H   0  0  0  0  0  0
  -31.9573  -18.3363   21.2894 H   0  0  0  0  0  0
  -32.2140  -15.6957   22.8092 H   0  0  0  0  0  0
  -31.6628  -17.2162   23.4828 H   0  0  0  0  0  0
  -30.8271  -26.5244   20.5803 H   0  0  0  0  0  0
  -30.3352  -16.4209   18.8028 H   0  0  0  0  0  0
  -29.7589  -17.4143   21.5878 H   0  0  0  0  0  0
  -29.1869  -15.2247   21.5165 H   0  0  0  0  0  0
  -33.8461  -18.1235   22.9838 H   0  0  0  0  0  0
  -34.3298  -16.6998   22.3454 H   0  0  0  0  0  0
  -33.9609  -16.7993   23.9257 H   0  0  0  0  0  0
  1 25  1  0  0  0
  1 30  2  0  0  0
  1 90  1  0  0  0
  2  3  1  0  0  0
  2 25  1  0  0  0
  2 92  1  0  0  0
  2 93  1  0  0  0
  3  4  1  0  0  0
  3 94  1  0  0  0
  3 95  1  0  0  0
  4  5  1  0  0  0
  4 96  1  0  0  0
  4 97  1  0  0  0
  5  6  1  0  0  0
  5 26  1  0  0  0
  5 98  1  0  0  0
  6 25  1  0  0  0
  6 99  1  0  0  0
  6100  1  0  0  0
  7  8  2  0  0  0
  7 26  1  0  0  0
  7 29  1  0  0  0
  8  9  1  0  0  0
  8 22  1  0  0  0
  9 10  1  0  0  0
  9 27  2  0  0  0
 10 11  2  0  0  0
 10 15  1  0  0  0
 11 12  1  0  0  0
 11101  1  0  0  0
 12 13  2  0  0  0
 12102  1  0  0  0
 13 14  1  0  0  0
 13 31  1  0  0  0
 14 15  2  0  0  0
 14103  1  0  0  0
 15104  1  0  0  0
 16 17  2  0  0  0
 16 21  1  0  0  0
 16 31  1  0  0  0
 17 18  1  0  0  0
 17105  1  0  0  0
 18 19  2  0  0  0
 18106  1  0  0  0
 19 20  1  0  0  0
 19 24  1  0  0  0
 20 21  2  0  0  0
 20107  1  0  0  0
 21 23  1  0  0  0
 22 28  1  0  0  0
 22 32  2  0  0  0
 26 27  1  0  0  0
 28108  1  0  0  0
 28109  1  0  0  0
 29110  1  0  0  0
 29111  1  0  0  0
 33 34  1  0  0  0
 33 66  1  0  0  0
 33 70  2  0  0  0
 34 36  1  0  0  0
 34 59  1  0  0  0
 34112  1  0  0  0
 35 44  2  0  0  0
 35 45  1  0  0  0
 35 68  1  0  0  0
 36 56  1  0  0  0
 36113  1  0  0  0
 37 39  1  0  0  0
 37 47  1  0  0  0
 37 66  1  0  0  0
 37114  1  0  0  0
 38 43  2  0  0  0
 38 46  1  0  0  0
 38 47  1  0  0  0
 39 64  1  0  0  0
 39 67  2  0  0  0
 40 52  1  0  0  0
 40 53  2  0  0  0
 40 58  1  0  0  0
 41115  1  0  0  0
 41116  1  0  0  0
 41117  1  0  0  0
 41 48  1  0  0  0
 42 43  1  0  0  0
 42 66  1  0  0  0
 42118  1  0  0  0
 42119  1  0  0  0
 43 44  1  0  0  0
 44120  1  0  0  0
 45 46  2  0  0  0
 45121  1  0  0  0
 46122  1  0  0  0
 47123  1  0  0  0
 47124  1  0  0  0
 48 56  1  0  0  0
 48 65  1  0  0  0
 48125  1  0  0  0
 49 50  1  0  0  0
 49 53  1  0  0  0
 49 64  1  0  0  0
 49126  1  0  0  0
 50 51  1  0  0  0
 50127  1  0  0  0
 50128  1  0  0  0
 51 52  1  0  0  0
 51129  1  0  0  0
 51130  1  0  0  0
 52131  1  0  0  0
 52132  1  0  0  0
 53 54  1  0  0  0
 54 55  2  0  0  0
 54133  1  0  0  0
 55 57  1  0  0  0
 55134  1  0  0  0
 56 69  2  0  0  0
 57 58  2  0  0  0
 57135  1  0  0  0
 58136  1  0  0  0
 59 60  1  0  0  0
 59 61  1  0  0  0
 59 62  1  0  0  0
 60137  1  0  0  0
 60138  1  0  0  0
 60139  1  0  0  0
 61140  1  0  0  0
 61141  1  0  0  0
 61142  1  0  0  0
 62143  1  0  0  0
 62144  1  0  0  0
 62145  1  0  0  0
 63 65  1  0  0  0
 63146  1  0  0  0
 63147  1  0  0  0
 63148  1  0  0  0
 64149  1  0  0  0
 65150  1  0  0  0
 68 81  1  0  0  0
 71 72  2  0  0  0
 71 74  1  0  0  0
 71151  1  0  0  0
 72 75  1  0  0  0
 72152  1  0  0  0
 73 74  2  0  0  0
 73 76  1  0  0  0
 73153  1  0  0  0
 74 80  1  0  0  0
 75 76  2  0  0  0
 75 81  1  0  0  0
 76 87  1  0  0  0
 77 82  1  0  0  0
 77154  1  0  0  0
 77155  1  0  0  0
 77156  1  0  0  0
 78157  1  0  0  0
 78158  1  0  0  0
 78159  1  0  0  0
 78 87  1  0  0  0
 79160  1  0  0  0
 79161  1  0  0  0
 79162  1  0  0  0
 79 88  1  0  0  0
 80 83  1  0  0  0
 80163  1  0  0  0
 80164  1  0  0  0
 81165  1  0  0  0
 81166  1  0  0  0
 82 87  1  0  0  0
 82167  1  0  0  0
 82168  1  0  0  0
 83 84  1  0  0  0
 83169  1  0  0  0
 83170  1  0  0  0
 84 88  1  0  0  0
 84171  1  0  0  0
 84172  1  0  0  0
 85 86  1  0  0  0
 85173  1  0  0  0
 85174  1  0  0  0
 85 89  1  0  0  0
 86 91  1  0  0  0
 86175  1  0  0  0
 86176  1  0  0  0
 87177  1  0  0  0
 88 89  1  0  0  0
 88178  1  0  0  0
 89 90  1  0  0  0
 89179  1  0  0  0
 90180  1  0  0  0
 91181  1  0  0  0
 91182  1  0  0  0
 91183  1  0  0  0
M  CHG  1  91   1
M  ISO  4   1 100  68 101  81 101  90 100
M  END
> <chiral flag>
0

> <version>
0

> <s_m_source_file>
/data/baiqing/PycharmProjects/Reinvent-master-3.2/result/LINK_invent/BTK/process_docking_weight1_custom_sum_contain_oxygen_bond_distance_aromatic_linkinvent_7_9_3/rearranged_h_0106.sdf

> <i_m_source_file_index>
15

> <r_mmod_Potential_Energy-OPLS-2005>
-243.987487792969

> <r_mmod_Stretch_Energy-OPLS-2005>
36.2263145446777

> <r_mmod_Bend_Energy-OPLS-2005>
106.812942504883

> <r_mmod_Torsional_Energy-OPLS-2005>
253.549530029297

> <r_mmod_Improper_Torsional_Energy-OPLS-2005>
4.57539987564087

> <r_mmod_Van_der_Waal_Energy-OPLS-2005>
154.370132446289

> <r_mmod_Electrostatic_Energy-OPLS-2005>
-345.142700195312

> <r_mmod_Solvation_Energy-OPLS-2005>
-464.714782714844

> <b_mmod_Minimization_Converged-OPLS-2005>
0

> <r_mmod_RMS_Derivative-OPLS-2005>
1.76966774463654

$$$$
15
                    3D
 Structure written by MMmdl.
158166  0  0  1  0            999 V2000
  -30.5191  -15.0195   20.3783 C   0  0  0  0  0  0
  -30.4316  -12.6240   19.4931 C   0  0  0  0  0  0
  -29.5228  -12.5315   18.2452 C   0  0  0  0  0  0
  -28.0499  -12.3330   18.6574 C   0  0  0  0  0  0
  -27.6211  -13.2622   19.8243 C   0  0  2  0  0  0
  -28.6663  -13.3197   20.9588 C   0  0  0  0  0  0
  -25.2397  -13.8263   20.5698 C   0  0  0  0  0  0
  -24.1785  -13.0451   20.9293 C   0  0  0  0  0  0
  -24.6399  -11.6956   20.8748 C   0  0  0  0  0  0
  -23.9083  -10.4315   21.0367 C   0  0  0  0  0  0
  -24.3661   -9.4230   21.9110 C   0  0  0  0  0  0
  -23.6359   -8.2255   22.0714 C   0  0  0  0  0  0
  -22.4326   -8.0281   21.3540 C   0  0  0  0  0  0
  -21.9936   -9.0250   20.4639 C   0  0  0  0  0  0
  -22.7248  -10.2127   20.3027 C   0  0  0  0  0  0
  -21.6897   -6.0752   22.5270 C   0  0  0  0  0  0
  -21.4066   -6.5667   23.8203 C   0  0  0  0  0  0
  -21.3691   -5.6825   24.9154 C   0  0  0  0  0  0
  -21.6038   -4.3078   24.7227 C   0  0  0  0  0  0
  -21.8821   -3.8162   23.4345 C   0  0  0  0  0  0
  -21.9202   -4.6968   22.3395 C   0  0  0  0  0  0
  -22.7792  -13.5169   21.2018 C   0  0  0  0  0  0
  -22.1669   -4.2166   21.0976 F   0  0  0  0  0  0
  -21.5621   -3.4557   25.7727 F   0  0  0  0  0  0
  -29.9355  -13.7447   20.3484 N   0  0  0  0  0  0
  -26.2840  -12.9519   20.3152 N   0  0  0  0  0  0
  -25.9319  -11.6626   20.5661 N   0  0  0  0  0  0
  -22.0520  -12.8055   22.0538 N   0  0  0  0  0  0
  -25.3893  -15.1996   20.3962 N   0  0  0  0  0  0
  -31.7271  -15.0755   20.1330 O   0  0  0  0  0  0
  -21.6703   -6.8881   21.4227 O   0  0  0  0  0  0
  -22.3450  -14.5499   20.6916 O   0  0  0  0  0  0
  -24.6481  -31.8388   23.1807 C   0  0  0  0  0  0
  -25.9217  -32.4677   23.8239 C   0  0  1  0  0  0
  -27.2370  -27.0882   20.1717 C   0  0  0  0  0  0
  -25.5938  -33.8479   24.2169 N   0  0  0  0  0  0
  -23.4557  -30.4516   21.5295 C   0  0  2  0  0  0
  -24.9099  -28.8572   20.1243 C   0  0  0  0  0  0
  -22.7590  -29.4500   22.4854 C   0  0  0  0  0  0
  -18.0312  -28.1388   22.8488 C   0  0  0  0  0  0
  -24.1490  -36.7233   23.2641 C   0  0  0  0  0  0
  -26.0133  -30.7005   21.3834 C   0  0  0  0  0  0
  -26.0899  -29.3007   20.7351 C   0  0  0  0  0  0
  -27.2556  -28.4375   20.7280 C   0  0  0  0  0  0
  -26.0248  -26.7463   19.5361 C   0  0  0  0  0  0
  -24.8903  -27.5925   19.5130 C   0  0  0  0  0  0
  -23.6893  -29.7678   20.1550 C   0  0  0  0  0  0
  -25.4125  -36.3015   24.0320 C   0  0  1  0  0  0
  -20.5921  -28.3716   23.1230 C   0  0  2  0  0  0
  -20.6791  -26.9415   22.5400 C   0  0  0  0  0  0
  -19.5760  -26.6385   21.5211 C   0  0  0  0  0  0
  -18.1943  -26.7932   22.1630 C   0  0  0  0  0  0
  -19.1566  -28.8874   23.2852 C   0  0  0  0  0  0
  -18.9481  -30.1474   23.8867 C   0  0  0  0  0  0
  -17.6473  -30.6585   24.0561 C   0  0  0  0  0  0
  -25.9080  -34.9389   23.5067 C   0  0  0  0  0  0
  -16.5365  -29.9072   23.6340 C   0  0  0  0  0  0
  -16.7296  -28.6494   23.0356 C   0  0  0  0  0  0
  -26.4534  -31.6538   25.0681 C   0  0  0  0  0  0
  -25.3708  -31.3704   26.1368 C   0  0  0  0  0  0
  -27.0411  -30.2941   24.6258 C   0  0  0  0  0  0
  -27.6071  -32.4297   25.7473 C   0  0  0  0  0  0
  -27.5574  -37.1768   24.8474 C   0  0  0  0  0  0
  -21.4269  -29.3038   22.3599 N   0  0  0  0  0  0
  -26.4285  -37.3734   23.9413 N   0  0  0  0  0  0
  -24.7260  -31.0193   22.0866 N   0  0  0  0  0  0
  -23.4207  -28.8083   23.3054 O   0  0  0  0  0  0
  -28.3154  -26.1134   20.1454 O   0  0  0  0  0  0
  -26.5666  -34.8889   22.4647 O   0  0  0  0  0  0
  -23.5586  -32.1277   23.7004 O   0  0  0  0  0  0
  -27.4394  -18.0869   20.5348 C   0  0  0  0  0  0
  -28.6015  -18.8980   20.5155 C   0  0  0  0  0  0
  -27.0199  -20.7247   21.1955 C   0  0  0  0  0  0
  -28.3284  -20.4233   20.6681 C   0  0  0  0  0  0
  -25.9673  -19.7812   21.1907 C   0  0  0  0  0  0
  -26.7017  -22.0383   21.9046 C   0  0  0  0  0  0
  -24.5357  -20.1134   21.5925 C   0  0  0  0  0  0
  -29.8751  -17.8195   20.3595 C   0  0  0  0  0  0
  -28.6152  -23.1143   19.8384 C   0  0  0  0  0  0
  -28.2232  -24.6075   20.6216 C   0  0  0  0  0  0
  -26.2153  -18.5270   20.8251 N   0  3  0  0  0  0
  -29.0870  -21.7010   20.4484 N   0  0  0  0  0  0
  -29.7095  -16.2052   20.4757 N   0  0  0  0  0  0
  -31.4685  -12.7651   19.1904 H   0  0  0  0  0  0
  -30.4109  -11.6784   20.0385 H   0  0  0  0  0  0
  -29.8478  -11.7067   17.6086 H   0  0  0  0  0  0
  -29.6194  -13.4362   17.6442 H   0  0  0  0  0  0
  -27.9283  -11.2899   18.9454 H   0  0  0  0  0  0
  -27.3927  -12.4755   17.7991 H   0  0  0  0  0  0
  -27.5671  -14.2617   19.3901 H   0  0  0  0  0  0
  -28.7660  -12.3545   21.4574 H   0  0  0  0  0  0
  -28.3521  -14.0309   21.7265 H   0  0  0  0  0  0
  -25.2825   -9.5749   22.4653 H   0  0  0  0  0  0
  -24.0158   -7.4656   22.7399 H   0  0  0  0  0  0
  -21.0867   -8.8723   19.8942 H   0  0  0  0  0  0
  -22.3643  -10.9646   19.6163 H   0  0  0  0  0  0
  -21.2113   -7.6193   23.9712 H   0  0  0  0  0  0
  -21.1511   -6.0564   25.9053 H   0  0  0  0  0  0
  -22.0584   -2.7634   23.2839 H   0  0  0  0  0  0
  -22.4264  -11.9730   22.4864 H   0  0  0  0  0  0
  -21.1080  -13.0850   22.2783 H   0  0  0  0  0  0
  -24.4832  -15.6565   20.3636 H   0  0  0  0  0  0
  -25.9423  -15.4324   19.5823 H   0  0  0  0  0  0
  -26.7276  -32.5291   23.0967 H   0  0  0  0  0  0
  -25.0087  -33.9593   25.0317 H   0  0  0  0  0  0
  -22.7613  -31.2768   21.3638 H   0  0  0  0  0  0
  -23.3776  -35.9544   23.3297 H   0  0  0  0  0  0
  -24.3582  -36.8877   22.2059 H   0  0  0  0  0  0
  -23.7224  -37.6414   23.6695 H   0  0  0  0  0  0
  -26.1637  -31.4499   20.6054 H   0  0  0  0  0  0
  -26.8850  -30.7641   22.0242 H   0  0  0  0  0  0
  -28.1659  -28.7860   21.1940 H   0  0  0  0  0  0
  -25.9455  -25.7805   19.0567 H   0  0  0  0  0  0
  -23.9869  -27.2479   19.0285 H   0  0  0  0  0  0
  -23.8338  -30.5351   19.3926 H   0  0  0  0  0  0
  -22.8043  -29.2100   19.8450 H   0  0  0  0  0  0
  -25.1317  -36.1851   25.0815 H   0  0  0  0  0  0
  -21.0024  -28.3303   24.1345 H   0  0  0  0  0  0
  -20.5685  -26.2317   23.3612 H   0  0  0  0  0  0
  -21.6653  -26.7418   22.1186 H   0  0  0  0  0  0
  -19.6914  -25.6296   21.1238 H   0  0  0  0  0  0
  -19.6689  -27.3199   20.6739 H   0  0  0  0  0  0
  -17.4207  -26.6682   21.4034 H   0  0  0  0  0  0
  -18.0344  -26.0068   22.9021 H   0  0  0  0  0  0
  -19.7953  -30.7309   24.2210 H   0  0  0  0  0  0
  -17.5017  -31.6263   24.5170 H   0  0  0  0  0  0
  -15.5359  -30.2959   23.7676 H   0  0  0  0  0  0
  -15.8698  -28.0804   22.7076 H   0  0  0  0  0  0
  -24.5916  -30.7034   25.7668 H   0  0  0  0  0  0
  -24.8857  -32.2869   26.4739 H   0  0  0  0  0  0
  -25.7983  -30.8903   27.0183 H   0  0  0  0  0  0
  -26.3035  -29.6650   24.1269 H   0  0  0  0  0  0
  -27.4047  -29.7250   25.4826 H   0  0  0  0  0  0
  -27.8927  -30.4202   23.9570 H   0  0  0  0  0  0
  -27.2692  -33.3644   26.1970 H   0  0  0  0  0  0
  -28.3928  -32.6779   25.0317 H   0  0  0  0  0  0
  -28.0690  -31.8453   26.5448 H   0  0  0  0  0  0
  -28.2585  -38.0066   24.7529 H   0  0  0  0  0  0
  -28.1068  -36.2600   24.6309 H   0  0  0  0  0  0
  -27.2278  -37.1421   25.8867 H   0  0  0  0  0  0
  -20.9484  -29.8709   21.6734 H   0  0  0  0  0  0
  -26.0155  -38.2801   24.1428 H   0  0  0  0  0  0
  -27.4364  -17.0286   20.3466 H   0  0  0  0  0  0
  -27.5897  -22.5565   22.2607 H   0  0  0  0  0  0
  -26.1403  -21.8597   22.8189 H   0  0  0  0  0  0
  -26.1025  -22.6861   21.2681 H   0  0  0  0  0  0
  -24.4787  -20.4977   22.6096 H   0  0  0  0  0  0
  -23.8846  -19.2404   21.5464 H   0  0  0  0  0  0
  -24.1281  -20.8686   20.9189 H   0  0  0  0  0  0
  -30.6172  -18.1032   21.1057 H   0  0  0  0  0  0
  -30.3521  -18.0323   19.4026 H   0  0  0  0  0  0
  -29.4374  -23.3800   19.1752 H   0  0  0  0  0  0
  -27.7956  -22.8961   19.1524 H   0  0  0  0  0  0
  -28.8504  -24.6140   21.5129 H   0  0  0  0  0  0
  -27.2123  -24.5187   21.0115 H   0  0  0  0  0  0
  -25.4504  -17.8474   20.8349 H   0  0  0  0  0  0
  -30.0783  -21.5280   20.3011 H   0  0  0  0  0  0
  -28.7532  -15.9278   20.6119 H   0  0  0  0  0  0
  1 25  1  0  0  0
  1 30  2  0  0  0
  1 83  1  0  0  0
  2  3  1  0  0  0
  2 25  1  0  0  0
  2 84  1  0  0  0
  2 85  1  0  0  0
  3  4  1  0  0  0
  3 86  1  0  0  0
  3 87  1  0  0  0
  4  5  1  0  0  0
  4 88  1  0  0  0
  4 89  1  0  0  0
  5  6  1  0  0  0
  5 26  1  0  0  0
  5 90  1  0  0  0
  6 25  1  0  0  0
  6 91  1  0  0  0
  6 92  1  0  0  0
  7  8  2  0  0  0
  7 26  1  0  0  0
  7 29  1  0  0  0
  8  9  1  0  0  0
  8 22  1  0  0  0
  9 10  1  0  0  0
  9 27  2  0  0  0
 10 11  2  0  0  0
 10 15  1  0  0  0
 11 12  1  0  0  0
 11 93  1  0  0  0
 12 13  2  0  0  0
 12 94  1  0  0  0
 13 14  1  0  0  0
 13 31  1  0  0  0
 14 15  2  0  0  0
 14 95  1  0  0  0
 15 96  1  0  0  0
 16 17  2  0  0  0
 16 21  1  0  0  0
 16 31  1  0  0  0
 17 18  1  0  0  0
 17 97  1  0  0  0
 18 19  2  0  0  0
 18 98  1  0  0  0
 19 20  1  0  0  0
 19 24  1  0  0  0
 20 21  2  0  0  0
 20 99  1  0  0  0
 21 23  1  0  0  0
 22 28  1  0  0  0
 22 32  2  0  0  0
 26 27  1  0  0  0
 28100  1  0  0  0
 28101  1  0  0  0
 29102  1  0  0  0
 29103  1  0  0  0
 33 34  1  0  0  0
 33 66  1  0  0  0
 33 70  2  0  0  0
 34 36  1  0  0  0
 34 59  1  0  0  0
 34104  1  0  0  0
 35 44  2  0  0  0
 35 45  1  0  0  0
 35 68  1  0  0  0
 36 56  1  0  0  0
 36105  1  0  0  0
 37 39  1  0  0  0
 37 47  1  0  0  0
 37 66  1  0  0  0
 37106  1  0  0  0
 38 43  2  0  0  0
 38 46  1  0  0  0
 38 47  1  0  0  0
 39 64  1  0  0  0
 39 67  2  0  0  0
 40 52  1  0  0  0
 40 53  2  0  0  0
 40 58  1  0  0  0
 41107  1  0  0  0
 41108  1  0  0  0
 41109  1  0  0  0
 41 48  1  0  0  0
 42 43  1  0  0  0
 42 66  1  0  0  0
 42110  1  0  0  0
 42111  1  0  0  0
 43 44  1  0  0  0
 44112  1  0  0  0
 45 46  2  0  0  0
 45113  1  0  0  0
 46114  1  0  0  0
 47115  1  0  0  0
 47116  1  0  0  0
 48 56  1  0  0  0
 48 65  1  0  0  0
 48117  1  0  0  0
 49 50  1  0  0  0
 49 53  1  0  0  0
 49 64  1  0  0  0
 49118  1  0  0  0
 50 51  1  0  0  0
 50119  1  0  0  0
 50120  1  0  0  0
 51 52  1  0  0  0
 51121  1  0  0  0
 51122  1  0  0  0
 52123  1  0  0  0
 52124  1  0  0  0
 53 54  1  0  0  0
 54 55  2  0  0  0
 54125  1  0  0  0
 55 57  1  0  0  0
 55126  1  0  0  0
 56 69  2  0  0  0
 57 58  2  0  0  0
 57127  1  0  0  0
 58128  1  0  0  0
 59 60  1  0  0  0
 59 61  1  0  0  0
 59 62  1  0  0  0
 60129  1  0  0  0
 60130  1  0  0  0
 60131  1  0  0  0
 61132  1  0  0  0
 61133  1  0  0  0
 61134  1  0  0  0
 62135  1  0  0  0
 62136  1  0  0  0
 62137  1  0  0  0
 63 65  1  0  0  0
 63138  1  0  0  0
 63139  1  0  0  0
 63140  1  0  0  0
 64141  1  0  0  0
 65142  1  0  0  0
 68 80  1  0  0  0
 71 72  2  0  0  0
 71 81  1  0  0  0
 71143  1  0  0  0
 72 74  1  0  0  0
 72 78  1  0  0  0
 73 74  2  0  0  0
 73 75  1  0  0  0
 73 76  1  0  0  0
 74 82  1  0  0  0
 75 77  1  0  0  0
 75 81  2  0  0  0
 76144  1  0  0  0
 76145  1  0  0  0
 76146  1  0  0  0
 77147  1  0  0  0
 77148  1  0  0  0
 77149  1  0  0  0
 78 83  1  0  0  0
 78150  1  0  0  0
 78151  1  0  0  0
 79 80  1  0  0  0
 79 82  1  0  0  0
 79152  1  0  0  0
 79153  1  0  0  0
 80154  1  0  0  0
 80155  1  0  0  0
 81156  1  0  0  0
 82157  1  0  0  0
 83158  1  0  0  0
M  CHG  1  81   1
M  ISO  4   1 100  68 101  80 101  83 100
M  END
> <chiral flag>
0

> <version>
0

> <s_m_source_file>
/data/baiqing/PycharmProjects/Reinvent-master-3.2/result/LINK_invent/BTK/process_docking_weight1_custom_sum_contain_oxygen_bond_distance_aromatic_linkinvent_7_9_3/rearranged_h_0106.sdf

> <i_m_source_file_index>
16

> <r_mmod_Potential_Energy-OPLS-2005>
748.194580078125

> <r_mmod_Stretch_Energy-OPLS-2005>
380.740692138672

> <r_mmod_Bend_Energy-OPLS-2005>
387.882843017578

> <r_mmod_Torsional_Energy-OPLS-2005>
263.727600097656

> <r_mmod_Improper_Torsional_Energy-OPLS-2005>
12.1630592346191

> <r_mmod_Van_der_Waal_Energy-OPLS-2005>
149.125534057617

> <r_mmod_Electrostatic_Energy-OPLS-2005>
-241.028884887695

> <r_mmod_Solvation_Energy-OPLS-2005>
-439.501525878906

> <b_mmod_Minimization_Converged-OPLS-2005>
0

> <r_mmod_RMS_Derivative-OPLS-2005>
4.48527383804321

$$$$
16
                    3D
 Structure written by MMmdl.
157165  0  0  1  0            999 V2000
  -30.3937  -15.5367   20.3715 C   0  0  0  0  0  0
  -30.4074  -13.0297   19.5222 C   0  0  0  0  0  0
  -29.5289  -12.6367   18.3052 C   0  0  0  0  0  0
  -28.1010  -12.2958   18.7544 C   0  0  0  0  0  0
  -27.5892  -13.3045   19.8096 C   0  0  2  0  0  0
  -28.6086  -13.6256   20.9260 C   0  0  0  0  0  0
  -25.2313  -13.8290   20.5808 C   0  0  0  0  0  0
  -24.1690  -13.0457   20.9303 C   0  0  0  0  0  0
  -24.6377  -11.6962   20.8789 C   0  0  0  0  0  0
  -23.9092  -10.4300   21.0410 C   0  0  0  0  0  0
  -24.3648   -9.4212   21.9179 C   0  0  0  0  0  0
  -23.6321   -8.2246   22.0744 C   0  0  0  0  0  0
  -22.4290   -8.0296   21.3553 C   0  0  0  0  0  0
  -21.9942   -9.0263   20.4637 C   0  0  0  0  0  0
  -22.7275  -10.2131   20.3049 C   0  0  0  0  0  0
  -21.6856   -6.0752   22.5279 C   0  0  0  0  0  0
  -21.4010   -6.5648   23.8212 C   0  0  0  0  0  0
  -21.3654   -5.6795   24.9174 C   0  0  0  0  0  0
  -21.6032   -4.3058   24.7220 C   0  0  0  0  0  0
  -21.8824   -3.8163   23.4334 C   0  0  0  0  0  0
  -21.9194   -4.6980   22.3398 C   0  0  0  0  0  0
  -22.7704  -13.5193   21.1924 C   0  0  0  0  0  0
  -22.1667   -4.2166   21.0975 F   0  0  0  0  0  0
  -21.5629   -3.4538   25.7731 F   0  0  0  0  0  0
  -29.7868  -14.2200   20.2586 N   0  0  0  0  0  0
  -26.2739  -12.9614   20.3240 N   0  0  0  0  0  0
  -25.9320  -11.6687   20.5713 N   0  0  0  0  0  0
  -22.0366  -12.8153   22.0469 N   0  0  0  0  0  0
  -25.3979  -15.2022   20.4270 N   0  0  0  0  0  0
  -31.6261  -15.3874   20.2583 O   0  0  0  0  0  0
  -21.6649   -6.8897   21.4243 O   0  0  0  0  0  0
  -22.3381  -14.5485   20.6753 O   0  0  0  0  0  0
  -24.6805  -31.8040   23.1538 C   0  0  0  0  0  0
  -25.9396  -32.4490   23.8082 C   0  0  1  0  0  0
  -27.2134  -26.7312   20.2386 C   0  0  0  0  0  0
  -25.6013  -33.8305   24.1999 N   0  0  0  0  0  0
  -23.5046  -30.4072   21.5061 C   0  0  2  0  0  0
  -24.9585  -28.7512   20.1219 C   0  0  0  0  0  0
  -22.7760  -29.4353   22.4717 C   0  0  0  0  0  0
  -18.0345  -28.1413   22.8474 C   0  0  0  0  0  0
  -24.1465  -36.7110   23.2654 C   0  0  0  0  0  0
  -26.0830  -30.5496   21.4107 C   0  0  0  0  0  0
  -26.1474  -29.1167   20.7673 C   0  0  0  0  0  0
  -27.2631  -28.1343   20.7919 C   0  0  0  0  0  0
  -25.9961  -26.5701   19.5311 C   0  0  0  0  0  0
  -24.9206  -27.5021   19.4791 C   0  0  0  0  0  0
  -23.7541  -29.7005   20.1425 C   0  0  0  0  0  0
  -25.4120  -36.2891   24.0298 C   0  0  1  0  0  0
  -20.5996  -28.3762   23.1159 C   0  0  2  0  0  0
  -20.6799  -26.9426   22.5408 C   0  0  0  0  0  0
  -19.5768  -26.6399   21.5213 C   0  0  0  0  0  0
  -18.1953  -26.7957   22.1615 C   0  0  0  0  0  0
  -19.1613  -28.8912   23.2808 C   0  0  0  0  0  0
  -18.9511  -30.1493   23.8845 C   0  0  0  0  0  0
  -17.6498  -30.6603   24.0562 C   0  0  0  0  0  0
  -25.9119  -34.9291   23.4978 C   0  0  0  0  0  0
  -16.5389  -29.9078   23.6368 C   0  0  0  0  0  0
  -16.7328  -28.6505   23.0399 C   0  0  0  0  0  0
  -26.4604  -31.6487   25.0661 C   0  0  0  0  0  0
  -25.3709  -31.3794   26.1305 C   0  0  0  0  0  0
  -27.0519  -30.2836   24.6497 C   0  0  0  0  0  0
  -27.6094  -32.4322   25.7450 C   0  0  0  0  0  0
  -27.5544  -37.1706   24.8475 C   0  0  0  0  0  0
  -21.4417  -29.3008   22.3467 N   0  0  0  0  0  0
  -26.4238  -37.3663   23.9436 N   0  0  0  0  0  0
  -24.7788  -30.9547   22.0743 N   0  0  0  0  0  0
  -23.4242  -28.7983   23.3066 O   0  0  0  0  0  0
  -28.1727  -25.5240   20.3157 O   0  0  0  0  0  0
  -26.5742  -34.8867   22.4587 O   0  0  0  0  0  0
  -23.5844  -32.1074   23.6552 O   0  0  0  0  0  0
  -29.0105  -22.3528   20.1880 C   0  0  0  0  0  0
  -30.1942  -19.8386   19.8161 C   0  0  0  0  0  0
  -28.2281  -19.5362   20.8060 C   0  0  0  0  0  0
  -30.6445  -18.3235   20.4821 C   0  0  0  0  0  0
  -28.4817  -17.8198   20.4364 C   0  0  0  0  0  0
  -28.2144  -23.8297   23.0313 C   0  0  0  0  0  0
  -25.9163  -24.3081   22.0673 C   0  0  0  0  0  0
  -27.9028  -23.8013   20.4656 C   0  0  1  0  0  0
  -27.2507  -23.5718   21.8605 C   0  0  0  0  0  0
  -29.0537  -20.7961   20.3135 N   0  0  0  0  0  0
  -29.8331  -16.9911   20.4047 N   0  0  0  0  0  0
  -30.0722  -22.7793   19.7272 O   0  0  0  0  0  0
  -31.4051  -13.2684   19.1481 H   0  0  0  0  0  0
  -30.5520  -12.1804   20.1930 H   0  0  0  0  0  0
  -29.9712  -11.7957   17.7688 H   0  0  0  0  0  0
  -29.4966  -13.4702   17.6011 H   0  0  0  0  0  0
  -28.1137  -11.2928   19.1819 H   0  0  0  0  0  0
  -27.4280  -12.2555   17.8971 H   0  0  0  0  0  0
  -27.4529  -14.2281   19.2451 H   0  0  0  0  0  0
  -28.8548  -12.7420   21.5176 H   0  0  0  0  0  0
  -28.1858  -14.3586   21.6172 H   0  0  0  0  0  0
  -25.2785   -9.5693   22.4762 H   0  0  0  0  0  0
  -24.0030   -7.4630   22.7461 H   0  0  0  0  0  0
  -21.0880   -8.8792   19.8936 H   0  0  0  0  0  0
  -22.3749  -10.9682   19.6162 H   0  0  0  0  0  0
  -21.2002   -7.6157   23.9720 H   0  0  0  0  0  0
  -21.1468   -6.0524   25.9071 H   0  0  0  0  0  0
  -22.0606   -2.7631   23.2819 H   0  0  0  0  0  0
  -22.4012  -11.9812   22.4829 H   0  0  0  0  0  0
  -21.0957  -13.1129   22.2657 H   0  0  0  0  0  0
  -24.6380  -15.8634   20.5374 H   0  0  0  0  0  0
  -26.2562  -15.6364   20.1158 H   0  0  0  0  0  0
  -26.7463  -32.4970   23.0798 H   0  0  0  0  0  0
  -25.0098  -33.9331   25.0113 H   0  0  0  0  0  0
  -22.8274  -31.2416   21.3187 H   0  0  0  0  0  0
  -23.3760  -35.9397   23.3269 H   0  0  0  0  0  0
  -24.3569  -36.8812   22.2081 H   0  0  0  0  0  0
  -23.7145  -37.6252   23.6741 H   0  0  0  0  0  0
  -26.2777  -31.2692   20.6146 H   0  0  0  0  0  0
  -26.9396  -30.6247   22.0687 H   0  0  0  0  0  0
  -28.1571  -28.4181   21.3287 H   0  0  0  0  0  0
  -25.8356  -25.6162   19.0491 H   0  0  0  0  0  0
  -24.0188  -27.2109   18.9569 H   0  0  0  0  0  0
  -23.9207  -30.4539   19.3727 H   0  0  0  0  0  0
  -22.8603  -29.1566   19.8286 H   0  0  0  0  0  0
  -25.1320  -36.1655   25.0782 H   0  0  0  0  0  0
  -21.0074  -28.3350   24.1289 H   0  0  0  0  0  0
  -20.5618  -26.2386   23.3662 H   0  0  0  0  0  0
  -21.6659  -26.7347   22.1225 H   0  0  0  0  0  0
  -19.6899  -25.6304   21.1243 H   0  0  0  0  0  0
  -19.6696  -27.3212   20.6746 H   0  0  0  0  0  0
  -17.4228  -26.6752   21.4010 H   0  0  0  0  0  0
  -18.0308  -26.0108   22.9013 H   0  0  0  0  0  0
  -19.7984  -30.7344   24.2171 H   0  0  0  0  0  0
  -17.5051  -31.6262   24.5176 H   0  0  0  0  0  0
  -15.5382  -30.2961   23.7721 H   0  0  0  0  0  0
  -15.8740  -28.0795   22.7150 H   0  0  0  0  0  0
  -24.5952  -30.7062   25.7645 H   0  0  0  0  0  0
  -24.8813  -32.2993   26.4495 H   0  0  0  0  0  0
  -25.7933  -30.9152   27.0226 H   0  0  0  0  0  0
  -26.3235  -29.6492   24.1433 H   0  0  0  0  0  0
  -27.3926  -29.7229   25.5209 H   0  0  0  0  0  0
  -27.9229  -30.3999   24.0050 H   0  0  0  0  0  0
  -27.2704  -33.3744   26.1776 H   0  0  0  0  0  0
  -28.4025  -32.6675   25.0340 H   0  0  0  0  0  0
  -28.0616  -31.8576   26.5544 H   0  0  0  0  0  0
  -28.2538  -38.0027   24.7564 H   0  0  0  0  0  0
  -28.1061  -36.2557   24.6252 H   0  0  0  0  0  0
  -27.2300  -37.1308   25.8892 H   0  0  0  0  0  0
  -20.9704  -29.8646   21.6524 H   0  0  0  0  0  0
  -26.0054  -38.2696   24.1504 H   0  0  0  0  0  0
  -30.0037  -19.6822   18.7522 H   0  0  0  0  0  0
  -31.1050  -20.4378   19.8379 H   0  0  0  0  0  0
  -28.2599  -19.6113   21.8941 H   0  0  0  0  0  0
  -27.1907  -19.7630   20.5568 H   0  0  0  0  0  0
  -30.8721  -18.4786   21.5386 H   0  0  0  0  0  0
  -31.6099  -18.0829   20.0350 H   0  0  0  0  0  0
  -28.0510  -17.6557   19.4479 H   0  0  0  0  0  0
  -27.8248  -17.2594   21.1027 H   0  0  0  0  0  0
  -27.7025  -23.7255   23.9892 H   0  0  0  0  0  0
  -28.6401  -24.8315   22.9891 H   0  0  0  0  0  0
  -29.0417  -23.1188   23.0353 H   0  0  0  0  0  0
  -25.4014  -23.9369   22.9538 H   0  0  0  0  0  0
  -25.2463  -24.1595   21.2203 H   0  0  0  0  0  0
  -26.0552  -25.3794   22.2106 H   0  0  0  0  0  0
  -27.1206  -23.6154   19.7300 H   0  0  0  0  0  0
  -26.9931  -22.5116   21.9160 H   0  0  0  0  0  0
  1 25  1  0  0  0
  1 30  2  0  0  0
  1 81  1  0  0  0
  2  3  1  0  0  0
  2 25  1  0  0  0
  2 83  1  0  0  0
  2 84  1  0  0  0
  3  4  1  0  0  0
  3 85  1  0  0  0
  3 86  1  0  0  0
  4  5  1  0  0  0
  4 87  1  0  0  0
  4 88  1  0  0  0
  5  6  1  0  0  0
  5 26  1  0  0  0
  5 89  1  0  0  0
  6 25  1  0  0  0
  6 90  1  0  0  0
  6 91  1  0  0  0
  7  8  2  0  0  0
  7 26  1  0  0  0
  7 29  1  0  0  0
  8  9  1  0  0  0
  8 22  1  0  0  0
  9 10  1  0  0  0
  9 27  2  0  0  0
 10 11  2  0  0  0
 10 15  1  0  0  0
 11 12  1  0  0  0
 11 92  1  0  0  0
 12 13  2  0  0  0
 12 93  1  0  0  0
 13 14  1  0  0  0
 13 31  1  0  0  0
 14 15  2  0  0  0
 14 94  1  0  0  0
 15 95  1  0  0  0
 16 17  2  0  0  0
 16 21  1  0  0  0
 16 31  1  0  0  0
 17 18  1  0  0  0
 17 96  1  0  0  0
 18 19  2  0  0  0
 18 97  1  0  0  0
 19 20  1  0  0  0
 19 24  1  0  0  0
 20 21  2  0  0  0
 20 98  1  0  0  0
 21 23  1  0  0  0
 22 28  1  0  0  0
 22 32  2  0  0  0
 26 27  1  0  0  0
 28 99  1  0  0  0
 28100  1  0  0  0
 29101  1  0  0  0
 29102  1  0  0  0
 33 34  1  0  0  0
 33 66  1  0  0  0
 33 70  2  0  0  0
 34 36  1  0  0  0
 34 59  1  0  0  0
 34103  1  0  0  0
 35 44  2  0  0  0
 35 45  1  0  0  0
 35 68  1  0  0  0
 36 56  1  0  0  0
 36104  1  0  0  0
 37 39  1  0  0  0
 37 47  1  0  0  0
 37 66  1  0  0  0
 37105  1  0  0  0
 38 43  2  0  0  0
 38 46  1  0  0  0
 38 47  1  0  0  0
 39 64  1  0  0  0
 39 67  2  0  0  0
 40 52  1  0  0  0
 40 53  2  0  0  0
 40 58  1  0  0  0
 41106  1  0  0  0
 41107  1  0  0  0
 41108  1  0  0  0
 41 48  1  0  0  0
 42 43  1  0  0  0
 42 66  1  0  0  0
 42109  1  0  0  0
 42110  1  0  0  0
 43 44  1  0  0  0
 44111  1  0  0  0
 45 46  2  0  0  0
 45112  1  0  0  0
 46113  1  0  0  0
 47114  1  0  0  0
 47115  1  0  0  0
 48 56  1  0  0  0
 48 65  1  0  0  0
 48116  1  0  0  0
 49 50  1  0  0  0
 49 53  1  0  0  0
 49 64  1  0  0  0
 49117  1  0  0  0
 50 51  1  0  0  0
 50118  1  0  0  0
 50119  1  0  0  0
 51 52  1  0  0  0
 51120  1  0  0  0
 51121  1  0  0  0
 52122  1  0  0  0
 52123  1  0  0  0
 53 54  1  0  0  0
 54 55  2  0  0  0
 54124  1  0  0  0
 55 57  1  0  0  0
 55125  1  0  0  0
 56 69  2  0  0  0
 57 58  2  0  0  0
 57126  1  0  0  0
 58127  1  0  0  0
 59 60  1  0  0  0
 59 61  1  0  0  0
 59 62  1  0  0  0
 60128  1  0  0  0
 60129  1  0  0  0
 60130  1  0  0  0
 61131  1  0  0  0
 61132  1  0  0  0
 61133  1  0  0  0
 62134  1  0  0  0
 62135  1  0  0  0
 62136  1  0  0  0
 63 65  1  0  0  0
 63137  1  0  0  0
 63138  1  0  0  0
 63139  1  0  0  0
 64140  1  0  0  0
 65141  1  0  0  0
 68 78  1  0  0  0
 71 78  1  0  0  0
 71 80  1  0  0  0
 71 82  2  0  0  0
 72 74  1  0  0  0
 72 80  1  0  0  0
 72142  1  0  0  0
 72143  1  0  0  0
 73 75  1  0  0  0
 73 80  1  0  0  0
 73144  1  0  0  0
 73145  1  0  0  0
 74 81  1  0  0  0
 74146  1  0  0  0
 74147  1  0  0  0
 75 81  1  0  0  0
 75148  1  0  0  0
 75149  1  0  0  0
 76150  1  0  0  0
 76151  1  0  0  0
 76152  1  0  0  0
 76 79  1  0  0  0
 77 79  1  0  0  0
 77153  1  0  0  0
 77154  1  0  0  0
 77155  1  0  0  0
 78 79  1  0  0  0
 78156  1  0  0  0
 79157  1  0  0  0
M  ISO  4   1 100  68 101  78 101  81 100
M  END
> <chiral flag>
0

> <version>
0

> <s_m_source_file>
/data/baiqing/PycharmProjects/Reinvent-master-3.2/result/LINK_invent/BTK/process_docking_weight1_custom_sum_contain_oxygen_bond_distance_aromatic_linkinvent_7_9_3/rearranged_h_0106.sdf

> <i_m_source_file_index>
17

> <r_mmod_Potential_Energy-OPLS-2005>
2433.5849609375

> <r_mmod_Stretch_Energy-OPLS-2005>
881.349304199219

> <r_mmod_Bend_Energy-OPLS-2005>
724.961364746094

> <r_mmod_Torsional_Energy-OPLS-2005>
373.602264404297

> <r_mmod_Improper_Torsional_Energy-OPLS-2005>
4.54862833023071

> <r_mmod_Van_der_Waal_Energy-OPLS-2005>
117.070678710938

> <r_mmod_Electrostatic_Energy-OPLS-2005>
-219.621307373047

> <r_mmod_Solvation_Energy-OPLS-2005>
-240.965835571289

> <b_mmod_Minimization_Converged-OPLS-2005>
0

> <r_mmod_RMS_Derivative-OPLS-2005>
3.33017516136169

$$$$
17
                    3D
 Structure written by MMmdl.
156164  0  0  1  0            999 V2000
  -30.6212  -14.6736   20.4822 C   0  0  0  0  0  0
  -30.4333  -12.4146   19.4542 C   0  0  0  0  0  0
  -29.5040  -12.4989   18.2230 C   0  0  0  0  0  0
  -28.0281  -12.3340   18.6373 C   0  0  0  0  0  0
  -27.6430  -13.2232   19.8488 C   0  0  2  0  0  0
  -28.6866  -13.1217   20.9829 C   0  0  0  0  0  0
  -25.2515  -13.8189   20.5677 C   0  0  0  0  0  0
  -24.1810  -13.0453   20.9223 C   0  0  0  0  0  0
  -24.6386  -11.6921   20.8766 C   0  0  0  0  0  0
  -23.9069  -10.4298   21.0420 C   0  0  0  0  0  0
  -24.3625   -9.4209   21.9194 C   0  0  0  0  0  0
  -23.6300   -8.2243   22.0749 C   0  0  0  0  0  0
  -22.4280   -8.0286   21.3541 C   0  0  0  0  0  0
  -21.9917   -9.0262   20.4646 C   0  0  0  0  0  0
  -22.7245  -10.2145   20.3065 C   0  0  0  0  0  0
  -21.6855   -6.0747   22.5282 C   0  0  0  0  0  0
  -21.4007   -6.5648   23.8219 C   0  0  0  0  0  0
  -21.3655   -5.6801   24.9185 C   0  0  0  0  0  0
  -21.6048   -4.3063   24.7226 C   0  0  0  0  0  0
  -21.8817   -3.8152   23.4347 C   0  0  0  0  0  0
  -21.9188   -4.6971   22.3406 C   0  0  0  0  0  0
  -22.7830  -13.5232   21.1888 C   0  0  0  0  0  0
  -22.1664   -4.2165   21.0982 F   0  0  0  0  0  0
  -21.5625   -3.4541   25.7733 F   0  0  0  0  0  0
  -29.9959  -13.4555   20.4080 N   0  0  0  0  0  0
  -26.2929  -12.9380   20.3248 N   0  0  0  0  0  0
  -25.9303  -11.6536   20.5749 N   0  0  0  0  0  0
  -22.0460  -12.8234   22.0437 N   0  0  0  0  0  0
  -25.4204  -15.1911   20.4066 N   0  0  0  0  0  0
  -31.8047  -14.7994   20.1580 O   0  0  0  0  0  0
  -21.6638   -6.8888   21.4245 O   0  0  0  0  0  0
  -22.3519  -14.5544   20.6734 O   0  0  0  0  0  0
  -24.6269  -31.8558   23.1989 C   0  0  0  0  0  0
  -25.9114  -32.4751   23.8326 C   0  0  1  0  0  0
  -27.2252  -27.3069   20.1281 C   0  0  0  0  0  0
  -25.5932  -33.8553   24.2258 N   0  0  0  0  0  0
  -23.4218  -30.4772   21.5405 C   0  0  2  0  0  0
  -24.8690  -28.9188   20.1177 C   0  0  0  0  0  0
  -22.7469  -29.4610   22.4913 C   0  0  0  0  0  0
  -18.0311  -28.1350   22.8486 C   0  0  0  0  0  0
  -24.1494  -36.7284   23.2635 C   0  0  0  0  0  0
  -25.9618  -30.7845   21.3677 C   0  0  0  0  0  0
  -26.0381  -29.4090   20.7143 C   0  0  0  0  0  0
  -27.2231  -28.6156   20.7029 C   0  0  0  0  0  0
  -26.0381  -26.8629   19.5132 C   0  0  0  0  0  0
  -24.8694  -27.6509   19.5114 C   0  0  0  0  0  0
  -23.6388  -29.8025   20.1596 C   0  0  0  0  0  0
  -25.4119  -36.3061   24.0319 C   0  0  1  0  0  0
  -20.5899  -28.3675   23.1267 C   0  0  2  0  0  0
  -20.6791  -26.9390   22.5431 C   0  0  0  0  0  0
  -19.5786  -26.6338   21.5222 C   0  0  0  0  0  0
  -18.1967  -26.7886   22.1639 C   0  0  0  0  0  0
  -19.1554  -28.8832   23.2868 C   0  0  0  0  0  0
  -18.9464  -30.1440   23.8885 C   0  0  0  0  0  0
  -17.6461  -30.6568   24.0533 C   0  0  0  0  0  0
  -25.9063  -34.9433   23.5095 C   0  0  0  0  0  0
  -16.5358  -29.9054   23.6300 C   0  0  0  0  0  0
  -16.7293  -28.6460   23.0351 C   0  0  0  0  0  0
  -26.4502  -31.6572   25.0705 C   0  0  0  0  0  0
  -25.3745  -31.3720   26.1443 C   0  0  0  0  0  0
  -27.0340  -30.2999   24.6154 C   0  0  0  0  0  0
  -27.6059  -32.4315   25.7480 C   0  0  0  0  0  0
  -27.5574  -37.1793   24.8464 C   0  0  0  0  0  0
  -21.4178  -29.3039   22.3664 N   0  0  0  0  0  0
  -26.4293  -37.3762   23.9407 N   0  0  0  0  0  0
  -24.6894  -31.0565   22.0935 N   0  0  0  0  0  0
  -23.4193  -28.8149   23.2995 O   0  0  0  0  0  0
  -28.3548  -26.4775   20.1275 O   0  0  0  0  0  0
  -26.5632  -34.8908   22.4662 O   0  0  0  0  0  0
  -23.5430  -32.1358   23.7312 O   0  0  0  0  0  0
  -27.7363  -21.4901   20.9518 C   0  0  0  0  0  0
  -28.8654  -22.4359   20.5744 C   0  0  1  0  0  0
  -28.7788  -20.9639   19.9905 C   0  0  1  0  0  0
  -27.2378  -24.9353   21.8053 C   0  0  0  0  0  0
  -28.5129  -23.8050   19.8434 C   0  0  0  0  0  0
  -30.2489  -17.2377   20.7992 C   0  0  0  0  0  0
  -29.2040  -18.3852   20.3703 C   0  0  0  0  0  0
  -28.3399  -25.1182   20.7443 C   0  0  1  0  0  0
  -29.8373  -15.7777   20.7293 N   0  0  0  0  0  0
  -29.6381  -19.8374   20.5711 N   0  3  0  0  0  0
  -31.4727  -12.5463   19.1467 H   0  0  0  0  0  0
  -30.3799  -11.4268   19.9144 H   0  0  0  0  0  0
  -29.7731  -11.7346   17.4925 H   0  0  0  0  0  0
  -29.6419  -13.4577   17.7215 H   0  0  0  0  0  0
  -27.8718  -11.2841   18.8870 H   0  0  0  0  0  0
  -27.3728  -12.5471   17.7907 H   0  0  0  0  0  0
  -27.6478  -14.2505   19.4824 H   0  0  0  0  0  0
  -28.7014  -12.1162   21.4071 H   0  0  0  0  0  0
  -28.4296  -13.7943   21.8037 H   0  0  0  0  0  0
  -25.2766   -9.5688   22.4780 H   0  0  0  0  0  0
  -24.0012   -7.4628   22.7456 H   0  0  0  0  0  0
  -21.0851   -8.8794   19.8943 H   0  0  0  0  0  0
  -22.3707  -10.9699   19.6182 H   0  0  0  0  0  0
  -21.1999   -7.6156   23.9735 H   0  0  0  0  0  0
  -21.1477   -6.0524   25.9095 H   0  0  0  0  0  0
  -22.0591   -2.7611   23.2844 H   0  0  0  0  0  0
  -22.4064  -11.9908   22.4862 H   0  0  0  0  0  0
  -21.1061  -13.1251   22.2598 H   0  0  0  0  0  0
  -24.6444  -15.8373   20.5016 H   0  0  0  0  0  0
  -26.2484  -15.6238   20.0197 H   0  0  0  0  0  0
  -26.7168  -32.5428   23.1059 H   0  0  0  0  0  0
  -25.0063  -33.9695   25.0388 H   0  0  0  0  0  0
  -22.7176  -31.2973   21.3886 H   0  0  0  0  0  0
  -23.3751  -35.9623   23.3308 H   0  0  0  0  0  0
  -24.3568  -36.8905   22.2045 H   0  0  0  0  0  0
  -23.7265  -37.6495   23.6659 H   0  0  0  0  0  0
  -26.0970  -31.5447   20.5973 H   0  0  0  0  0  0
  -26.8407  -30.8354   21.9982 H   0  0  0  0  0  0
  -28.1280  -28.9903   21.1603 H   0  0  0  0  0  0
  -26.0107  -25.8860   19.0508 H   0  0  0  0  0  0
  -23.9684  -27.2663   19.0539 H   0  0  0  0  0  0
  -23.7657  -30.5725   19.3979 H   0  0  0  0  0  0
  -22.7604  -29.2315   19.8547 H   0  0  0  0  0  0
  -25.1299  -36.1901   25.0809 H   0  0  0  0  0  0
  -20.9996  -28.3276   24.1384 H   0  0  0  0  0  0
  -20.5656  -26.2319   23.3659 H   0  0  0  0  0  0
  -21.6676  -26.7397   22.1279 H   0  0  0  0  0  0
  -19.6947  -25.6219   21.1317 H   0  0  0  0  0  0
  -19.6729  -27.3111   20.6717 H   0  0  0  0  0  0
  -17.4229  -26.6577   21.4056 H   0  0  0  0  0  0
  -18.0405  -26.0026   22.9049 H   0  0  0  0  0  0
  -19.7938  -30.7262   24.2259 H   0  0  0  0  0  0
  -17.5011  -31.6262   24.5092 H   0  0  0  0  0  0
  -15.5352  -30.2959   23.7603 H   0  0  0  0  0  0
  -15.8699  -28.0750   22.7097 H   0  0  0  0  0  0
  -24.5918  -30.7065   25.7788 H   0  0  0  0  0  0
  -24.8941  -32.2892   26.4865 H   0  0  0  0  0  0
  -25.8084  -30.8912   27.0221 H   0  0  0  0  0  0
  -26.2896  -29.6758   24.1192 H   0  0  0  0  0  0
  -27.4061  -29.7245   25.4642 H   0  0  0  0  0  0
  -27.8763  -30.4289   23.9351 H   0  0  0  0  0  0
  -27.2655  -33.3608   26.2061 H   0  0  0  0  0  0
  -28.3872  -32.6891   25.0316 H   0  0  0  0  0  0
  -28.0728  -31.8447   26.5402 H   0  0  0  0  0  0
  -28.2594  -38.0082   24.7494 H   0  0  0  0  0  0
  -28.1066  -36.2618   24.6313 H   0  0  0  0  0  0
  -27.2289  -37.1464   25.8864 H   0  0  0  0  0  0
  -20.9339  -29.8768   21.6886 H   0  0  0  0  0  0
  -26.0173  -38.2837   24.1418 H   0  0  0  0  0  0
  -26.7496  -21.6863   20.5356 H   0  0  0  0  0  0
  -27.7243  -21.1212   21.9761 H   0  0  0  0  0  0
  -29.6428  -22.5749   21.3235 H   0  0  0  0  0  0
  -28.5336  -20.8364   18.9378 H   0  0  0  0  0  0
  -27.1880  -25.7867   22.4844 H   0  0  0  0  0  0
  -27.4356  -24.0552   22.4178 H   0  0  0  0  0  0
  -26.2545  -24.8015   21.3566 H   0  0  0  0  0  0
  -27.6156  -23.6637   19.2401 H   0  0  0  0  0  0
  -29.3165  -23.9970   19.1313 H   0  0  0  0  0  0
  -30.5518  -17.4198   21.8310 H   0  0  0  0  0  0
  -31.1538  -17.3616   20.2026 H   0  0  0  0  0  0
  -28.2684  -18.2445   20.9122 H   0  0  0  0  0  0
  -28.9645  -18.2543   19.3144 H   0  0  0  0  0  0
  -29.2647  -25.1490   21.3212 H   0  0  0  0  0  0
  -28.8702  -15.5764   20.9362 H   0  0  0  0  0  0
  -29.7696  -19.9926   21.5568 H   0  0  0  0  0  0
  -30.5480  -19.9232   20.1494 H   0  0  0  0  0  0
  1 25  1  0  0  0
  1 30  2  0  0  0
  1 79  1  0  0  0
  2  3  1  0  0  0
  2 25  1  0  0  0
  2 81  1  0  0  0
  2 82  1  0  0  0
  3  4  1  0  0  0
  3 83  1  0  0  0
  3 84  1  0  0  0
  4  5  1  0  0  0
  4 85  1  0  0  0
  4 86  1  0  0  0
  5  6  1  0  0  0
  5 26  1  0  0  0
  5 87  1  0  0  0
  6 25  1  0  0  0
  6 88  1  0  0  0
  6 89  1  0  0  0
  7  8  2  0  0  0
  7 26  1  0  0  0
  7 29  1  0  0  0
  8  9  1  0  0  0
  8 22  1  0  0  0
  9 10  1  0  0  0
  9 27  2  0  0  0
 10 11  2  0  0  0
 10 15  1  0  0  0
 11 12  1  0  0  0
 11 90  1  0  0  0
 12 13  2  0  0  0
 12 91  1  0  0  0
 13 14  1  0  0  0
 13 31  1  0  0  0
 14 15  2  0  0  0
 14 92  1  0  0  0
 15 93  1  0  0  0
 16 17  2  0  0  0
 16 21  1  0  0  0
 16 31  1  0  0  0
 17 18  1  0  0  0
 17 94  1  0  0  0
 18 19  2  0  0  0
 18 95  1  0  0  0
 19 20  1  0  0  0
 19 24  1  0  0  0
 20 21  2  0  0  0
 20 96  1  0  0  0
 21 23  1  0  0  0
 22 28  1  0  0  0
 22 32  2  0  0  0
 26 27  1  0  0  0
 28 97  1  0  0  0
 28 98  1  0  0  0
 29 99  1  0  0  0
 29100  1  0  0  0
 33 34  1  0  0  0
 33 66  1  0  0  0
 33 70  2  0  0  0
 34 36  1  0  0  0
 34 59  1  0  0  0
 34101  1  0  0  0
 35 44  2  0  0  0
 35 45  1  0  0  0
 35 68  1  0  0  0
 36 56  1  0  0  0
 36102  1  0  0  0
 37 39  1  0  0  0
 37 47  1  0  0  0
 37 66  1  0  0  0
 37103  1  0  0  0
 38 43  2  0  0  0
 38 46  1  0  0  0
 38 47  1  0  0  0
 39 64  1  0  0  0
 39 67  2  0  0  0
 40 52  1  0  0  0
 40 53  2  0  0  0
 40 58  1  0  0  0
 41104  1  0  0  0
 41105  1  0  0  0
 41106  1  0  0  0
 41 48  1  0  0  0
 42 43  1  0  0  0
 42 66  1  0  0  0
 42107  1  0  0  0
 42108  1  0  0  0
 43 44  1  0  0  0
 44109  1  0  0  0
 45 46  2  0  0  0
 45110  1  0  0  0
 46111  1  0  0  0
 47112  1  0  0  0
 47113  1  0  0  0
 48 56  1  0  0  0
 48 65  1  0  0  0
 48114  1  0  0  0
 49 50  1  0  0  0
 49 53  1  0  0  0
 49 64  1  0  0  0
 49115  1  0  0  0
 50 51  1  0  0  0
 50116  1  0  0  0
 50117  1  0  0  0
 51 52  1  0  0  0
 51118  1  0  0  0
 51119  1  0  0  0
 52120  1  0  0  0
 52121  1  0  0  0
 53 54  1  0  0  0
 54 55  2  0  0  0
 54122  1  0  0  0
 55 57  1  0  0  0
 55123  1  0  0  0
 56 69  2  0  0  0
 57 58  2  0  0  0
 57124  1  0  0  0
 58125  1  0  0  0
 59 60  1  0  0  0
 59 61  1  0  0  0
 59 62  1  0  0  0
 60126  1  0  0  0
 60127  1  0  0  0
 60128  1  0  0  0
 61129  1  0  0  0
 61130  1  0  0  0
 61131  1  0  0  0
 62132  1  0  0  0
 62133  1  0  0  0
 62134  1  0  0  0
 63 65  1  0  0  0
 63135  1  0  0  0
 63136  1  0  0  0
 63137  1  0  0  0
 64138  1  0  0  0
 65139  1  0  0  0
 68 78  1  0  0  0
 71 72  1  0  0  0
 71 73  1  0  0  0
 71140  1  0  0  0
 71141  1  0  0  0
 72 73  1  0  0  0
 72 75  1  0  0  0
 72142  1  0  0  0
 73 80  1  0  0  0
 73143  1  0  0  0
 74144  1  0  0  0
 74145  1  0  0  0
 74146  1  0  0  0
 74 78  1  0  0  0
 75 78  1  0  0  0
 75147  1  0  0  0
 75148  1  0  0  0
 76 77  1  0  0  0
 76 79  1  0  0  0
 76149  1  0  0  0
 76150  1  0  0  0
 77 80  1  0  0  0
 77151  1  0  0  0
 77152  1  0  0  0
 78153  1  0  0  0
 79154  1  0  0  0
 80155  1  0  0  0
 80156  1  0  0  0
M  CHG  1  80   1
M  ISO  4   1 100  68 101  78 101  79 100
M  END
> <chiral flag>
0

> <version>
0

> <s_m_source_file>
/data/baiqing/PycharmProjects/Reinvent-master-3.2/result/LINK_invent/BTK/process_docking_weight1_custom_sum_contain_oxygen_bond_distance_aromatic_linkinvent_7_9_3/rearranged_h_0106.sdf

> <i_m_source_file_index>
18

> <r_mmod_Potential_Energy-OPLS-2005>
-93.3454818725586

> <r_mmod_Stretch_Energy-OPLS-2005>
95.0500259399414

> <r_mmod_Bend_Energy-OPLS-2005>
154.096481323242

> <r_mmod_Torsional_Energy-OPLS-2005>
273.184234619141

> <r_mmod_Improper_Torsional_Energy-OPLS-2005>
4.67086982727051

> <r_mmod_Van_der_Waal_Energy-OPLS-2005>
114.942794799805

> <r_mmod_Electrostatic_Energy-OPLS-2005>
-292.067749023438

> <r_mmod_Solvation_Energy-OPLS-2005>
-499.979339599609

> <b_mmod_Minimization_Converged-OPLS-2005>
0

> <r_mmod_RMS_Derivative-OPLS-2005>
2.11445903778076

$$$$
18
                    3D
 Structure written by MMmdl.
174182  0  0  1  0            999 V2000
  -30.6097  -14.8786   20.4597 C   0  0  0  0  0  0
  -30.4304  -12.5518   19.4982 C   0  0  0  0  0  0
  -29.5200  -12.5275   18.2516 C   0  0  0  0  0  0
  -28.0537  -12.3167   18.6713 C   0  0  0  0  0  0
  -27.6315  -13.2493   19.8377 C   0  0  2  0  0  0
  -28.6724  -13.2755   20.9770 C   0  0  0  0  0  0
  -25.2457  -13.8234   20.5674 C   0  0  0  0  0  0
  -24.1788  -13.0465   20.9213 C   0  0  0  0  0  0
  -24.6406  -11.6955   20.8734 C   0  0  0  0  0  0
  -23.9096  -10.4321   21.0383 C   0  0  0  0  0  0
  -24.3650   -9.4242   21.9170 C   0  0  0  0  0  0
  -23.6320   -8.2280   22.0765 C   0  0  0  0  0  0
  -22.4302   -8.0310   21.3553 C   0  0  0  0  0  0
  -21.9924   -9.0285   20.4664 C   0  0  0  0  0  0
  -22.7253  -10.2163   20.3045 C   0  0  0  0  0  0
  -21.6876   -6.0760   22.5267 C   0  0  0  0  0  0
  -21.4034   -6.5664   23.8199 C   0  0  0  0  0  0
  -21.3646   -5.6808   24.9154 C   0  0  0  0  0  0
  -21.6031   -4.3072   24.7197 C   0  0  0  0  0  0
  -21.8831   -3.8169   23.4322 C   0  0  0  0  0  0
  -21.9211   -4.6990   22.3383 C   0  0  0  0  0  0
  -22.7805  -13.5229   21.1863 C   0  0  0  0  0  0
  -22.1676   -4.2193   21.0960 F   0  0  0  0  0  0
  -21.5606   -3.4546   25.7704 F   0  0  0  0  0  0
  -29.9583  -13.6551   20.3770 N   0  0  0  0  0  0
  -26.2893  -12.9479   20.3219 N   0  0  0  0  0  0
  -25.9333  -11.6615   20.5713 N   0  0  0  0  0  0
  -22.0456  -12.8222   22.0413 N   0  0  0  0  0  0
  -25.4066  -15.1953   20.3987 N   0  0  0  0  0  0
  -31.8100  -14.8878   20.1661 O   0  0  0  0  0  0
  -21.6667   -6.8915   21.4237 O   0  0  0  0  0  0
  -22.3510  -14.5538   20.6720 O   0  0  0  0  0  0
  -24.6375  -31.8452   23.1888 C   0  0  0  0  0  0
  -25.9169  -32.4690   23.8281 C   0  0  1  0  0  0
  -27.2375  -27.1899   20.1401 C   0  0  0  0  0  0
  -25.5930  -33.8498   24.2205 N   0  0  0  0  0  0
  -23.4384  -30.4619   21.5334 C   0  0  2  0  0  0
  -24.8909  -28.8915   20.1104 C   0  0  0  0  0  0
  -22.7547  -29.4530   22.4895 C   0  0  0  0  0  0
  -18.0294  -28.1386   22.8461 C   0  0  0  0  0  0
  -24.1493  -36.7257   23.2640 C   0  0  0  0  0  0
  -25.9860  -30.7341   21.3818 C   0  0  0  0  0  0
  -26.0607  -29.3490   20.7283 C   0  0  0  0  0  0
  -27.2288  -28.5095   20.7327 C   0  0  0  0  0  0
  -26.0407  -26.8187   19.4831 C   0  0  0  0  0  0
  -24.8913  -27.6388   19.4747 C   0  0  0  0  0  0
  -23.6641  -29.7846   20.1535 C   0  0  0  0  0  0
  -25.4114  -36.3026   24.0324 C   0  0  1  0  0  0
  -20.5902  -28.3710   23.1234 C   0  0  2  0  0  0
  -20.6764  -26.9429   22.5398 C   0  0  0  0  0  0
  -19.5747  -26.6383   21.5187 C   0  0  0  0  0  0
  -18.1927  -26.7922   22.1605 C   0  0  0  0  0  0
  -19.1556  -28.8862   23.2827 C   0  0  0  0  0  0
  -18.9479  -30.1447   23.8867 C   0  0  0  0  0  0
  -17.6479  -30.6582   24.0568 C   0  0  0  0  0  0
  -25.9052  -34.9401   23.5066 C   0  0  0  0  0  0
  -16.5363  -29.9082   23.6330 C   0  0  0  0  0  0
  -16.7281  -28.6502   23.0338 C   0  0  0  0  0  0
  -26.4509  -31.6526   25.0700 C   0  0  0  0  0  0
  -25.3727  -31.3695   26.1423 C   0  0  0  0  0  0
  -27.0335  -30.2923   24.6211 C   0  0  0  0  0  0
  -27.6056  -32.4268   25.7481 C   0  0  0  0  0  0
  -27.5567  -37.1789   24.8462 C   0  0  0  0  0  0
  -21.4247  -29.3041   22.3640 N   0  0  0  0  0  0
  -26.4273  -37.3746   23.9404 N   0  0  0  0  0  0
  -24.7060  -31.0351   22.0904 N   0  0  0  0  0  0
  -23.4186  -28.8107   23.3079 O   0  0  0  0  0  0
  -28.3466  -26.2899   20.2329 O   0  0  0  0  0  0
  -26.5656  -34.8884   22.4658 O   0  0  0  0  0  0
  -23.5514  -32.1296   23.7160 O   0  0  0  0  0  0
  -28.1550  -20.9401   20.6336 C   0  0  0  0  0  0
  -30.4269  -21.4957   20.4596 C   0  0  0  0  0  0
  -29.1034  -22.0119   20.5627 C   0  0  0  0  0  0
  -28.4809  -19.5143   20.6836 C   0  0  0  0  0  0
  -29.8382  -19.0011   20.7380 C   0  0  0  0  0  0
  -30.7777  -20.0941   20.5254 C   0  0  0  0  0  0
  -29.7872  -18.6868   23.6405 C   0  0  0  0  0  0
  -30.1921  -16.2103   23.6637 C   0  0  0  0  0  0
  -23.6005  -19.4064   19.8105 C   0  0  0  0  0  0
  -31.8358  -17.4712   21.5000 C   0  0  0  0  0  0
  -28.7777  -23.5914   20.8692 C   0  0  0  0  0  0
  -27.3089  -18.5441   20.7967 C   0  0  0  0  0  0
  -26.0929  -18.8658   19.8991 C   0  0  0  0  0  0
  -28.3796  -24.8049   19.8229 C   0  0  0  0  0  0
  -29.6974  -17.3929   22.7917 C   0  0  0  0  0  0
  -24.8031  -19.0882   20.7023 C   0  0  1  0  0  0
  -30.2922  -17.4866   21.3207 C   0  0  2  0  0  0
  -29.9011  -16.0821   20.7086 N   0  0  0  0  0  0
  -32.1049  -19.8522   20.4126 F   0  0  0  0  0  0
  -24.9646  -20.1065   21.5489 F   0  0  0  0  0  0
  -31.4700  -12.6798   19.1929 H   0  0  0  0  0  0
  -30.3932  -11.5980   20.0262 H   0  0  0  0  0  0
  -29.8336  -11.7397   17.5650 H   0  0  0  0  0  0
  -29.6175  -13.4682   17.7068 H   0  0  0  0  0  0
  -27.9513  -11.2765   18.9806 H   0  0  0  0  0  0
  -27.3893  -12.4429   17.8157 H   0  0  0  0  0  0
  -27.5967  -14.2518   19.4124 H   0  0  0  0  0  0
  -28.7402  -12.3062   21.4714 H   0  0  0  0  0  0
  -28.3800  -13.9939   21.7437 H   0  0  0  0  0  0
  -25.2815   -9.5744   22.4722 H   0  0  0  0  0  0
  -24.0050   -7.4693   22.7504 H   0  0  0  0  0  0
  -21.0853   -8.8804   19.8975 H   0  0  0  0  0  0
  -22.3713  -10.9697   19.6150 H   0  0  0  0  0  0
  -21.2035   -7.6181   23.9709 H   0  0  0  0  0  0
  -21.1438   -6.0538   25.9060 H   0  0  0  0  0  0
  -22.0620   -2.7637   23.2792 H   0  0  0  0  0  0
  -22.4108  -11.9904   22.4804 H   0  0  0  0  0  0
  -21.1057  -13.1231   22.2595 H   0  0  0  0  0  0
  -24.6016  -15.8099   20.4419 H   0  0  0  0  0  0
  -26.2107  -15.6166   19.9545 H   0  0  0  0  0  0
  -26.7248  -32.5312   23.1034 H   0  0  0  0  0  0
  -25.0049  -33.9607   25.0335 H   0  0  0  0  0  0
  -22.7391  -31.2864   21.3769 H   0  0  0  0  0  0
  -23.3731  -35.9610   23.3295 H   0  0  0  0  0  0
  -24.3598  -36.8873   22.2045 H   0  0  0  0  0  0
  -23.7253  -37.6466   23.6677 H   0  0  0  0  0  0
  -26.1328  -31.4882   20.6091 H   0  0  0  0  0  0
  -26.8619  -30.7924   22.0141 H   0  0  0  0  0  0
  -28.1204  -28.8544   21.2376 H   0  0  0  0  0  0
  -25.9527  -25.8679   18.9806 H   0  0  0  0  0  0
  -23.9972  -27.2825   18.9783 H   0  0  0  0  0  0
  -23.7980  -30.5486   19.3873 H   0  0  0  0  0  0
  -22.7834  -29.2159   19.8526 H   0  0  0  0  0  0
  -25.1318  -36.1866   25.0823 H   0  0  0  0  0  0
  -20.9968  -28.3307   24.1366 H   0  0  0  0  0  0
  -20.5588  -26.2380   23.3632 H   0  0  0  0  0  0
  -21.6641  -26.7411   22.1254 H   0  0  0  0  0  0
  -19.6903  -25.6288   21.1223 H   0  0  0  0  0  0
  -19.6636  -27.3191   20.6700 H   0  0  0  0  0  0
  -17.4193  -26.6640   21.4011 H   0  0  0  0  0  0
  -18.0343  -26.0084   22.9023 H   0  0  0  0  0  0
  -19.7953  -30.7256   24.2232 H   0  0  0  0  0  0
  -17.5035  -31.6261   24.5189 H   0  0  0  0  0  0
  -15.5358  -30.2979   23.7648 H   0  0  0  0  0  0
  -15.8683  -28.0805   22.7057 H   0  0  0  0  0  0
  -24.5998  -30.6908   25.7801 H   0  0  0  0  0  0
  -24.8804  -32.2845   26.4729 H   0  0  0  0  0  0
  -25.8090  -30.9018   27.0260 H   0  0  0  0  0  0
  -26.2917  -29.6676   24.1217 H   0  0  0  0  0  0
  -27.3952  -29.7201   25.4755 H   0  0  0  0  0  0
  -27.8851  -30.4131   23.9511 H   0  0  0  0  0  0
  -27.2690  -33.3623   26.1963 H   0  0  0  0  0  0
  -28.3955  -32.6699   25.0367 H   0  0  0  0  0  0
  -28.0629  -31.8420   26.5463 H   0  0  0  0  0  0
  -28.2595  -38.0081   24.7520 H   0  0  0  0  0  0
  -28.1060  -36.2607   24.6299 H   0  0  0  0  0  0
  -27.2310  -37.1483   25.8877 H   0  0  0  0  0  0
  -20.9479  -29.8795   21.6843 H   0  0  0  0  0  0
  -26.0129  -38.2823   24.1389 H   0  0  0  0  0  0
  -27.1168  -21.2285   20.7276 H   0  0  0  0  0  0
  -31.2433  -22.2042   20.4020 H   0  0  0  0  0  0
  -29.4159  -18.5196   24.6518 H   0  0  0  0  0  0
  -29.1880  -19.5055   23.2433 H   0  0  0  0  0  0
  -30.8092  -19.0494   23.7311 H   0  0  0  0  0  0
  -29.5822  -16.1151   24.5628 H   0  0  0  0  0  0
  -31.2165  -16.3554   24.0036 H   0  0  0  0  0  0
  -30.1384  -15.2461   23.1647 H   0  0  0  0  0  0
  -23.5104  -18.6933   18.9911 H   0  0  0  0  0  0
  -23.6776  -20.4077   19.3833 H   0  0  0  0  0  0
  -22.6774  -19.3613   20.3863 H   0  0  0  0  0  0
  -32.2018  -16.5769   21.9986 H   0  0  0  0  0  0
  -32.1967  -18.2926   22.1165 H   0  0  0  0  0  0
  -32.3499  -17.5191   20.5389 H   0  0  0  0  0  0
  -29.6492  -23.9528   21.4146 H   0  0  0  0  0  0
  -27.9950  -23.5870   21.6278 H   0  0  0  0  0  0
  -27.0039  -18.5200   21.8433 H   0  0  0  0  0  0
  -27.6449  -17.5388   20.5489 H   0  0  0  0  0  0
  -25.9328  -18.0246   19.2237 H   0  0  0  0  0  0
  -26.2810  -19.7129   19.2405 H   0  0  0  0  0  0
  -27.4672  -24.5007   19.3188 H   0  0  0  0  0  0
  -29.1354  -24.7786   19.0371 H   0  0  0  0  0  0
  -28.6313  -17.2065   22.6796 H   0  0  0  0  0  0
  -24.5936  -18.2055   21.3088 H   0  0  0  0  0  0
  -28.9049  -15.9283   20.7213 H   0  0  0  0  0  0
  1 25  1  0  0  0
  1 30  2  0  0  0
  1 88  1  0  0  0
  2  3  1  0  0  0
  2 25  1  0  0  0
  2 91  1  0  0  0
  2 92  1  0  0  0
  3  4  1  0  0  0
  3 93  1  0  0  0
  3 94  1  0  0  0
  4  5  1  0  0  0
  4 95  1  0  0  0
  4 96  1  0  0  0
  5  6  1  0  0  0
  5 26  1  0  0  0
  5 97  1  0  0  0
  6 25  1  0  0  0
  6 98  1  0  0  0
  6 99  1  0  0  0
  7  8  2  0  0  0
  7 26  1  0  0  0
  7 29  1  0  0  0
  8  9  1  0  0  0
  8 22  1  0  0  0
  9 10  1  0  0  0
  9 27  2  0  0  0
 10 11  2  0  0  0
 10 15  1  0  0  0
 11 12  1  0  0  0
 11100  1  0  0  0
 12 13  2  0  0  0
 12101  1  0  0  0
 13 14  1  0  0  0
 13 31  1  0  0  0
 14 15  2  0  0  0
 14102  1  0  0  0
 15103  1  0  0  0
 16 17  2  0  0  0
 16 21  1  0  0  0
 16 31  1  0  0  0
 17 18  1  0  0  0
 17104  1  0  0  0
 18 19  2  0  0  0
 18105  1  0  0  0
 19 20  1  0  0  0
 19 24  1  0  0  0
 20 21  2  0  0  0
 20106  1  0  0  0
 21 23  1  0  0  0
 22 28  1  0  0  0
 22 32  2  0  0  0
 26 27  1  0  0  0
 28107  1  0  0  0
 28108  1  0  0  0
 29109  1  0  0  0
 29110  1  0  0  0
 33 34  1  0  0  0
 33 66  1  0  0  0
 33 70  2  0  0  0
 34 36  1  0  0  0
 34 59  1  0  0  0
 34111  1  0  0  0
 35 44  2  0  0  0
 35 45  1  0  0  0
 35 68  1  0  0  0
 36 56  1  0  0  0
 36112  1  0  0  0
 37 39  1  0  0  0
 37 47  1  0  0  0
 37 66  1  0  0  0
 37113  1  0  0  0
 38 43  2  0  0  0
 38 46  1  0  0  0
 38 47  1  0  0  0
 39 64  1  0  0  0
 39 67  2  0  0  0
 40 52  1  0  0  0
 40 53  2  0  0  0
 40 58  1  0  0  0
 41114  1  0  0  0
 41115  1  0  0  0
 41116  1  0  0  0
 41 48  1  0  0  0
 42 43  1  0  0  0
 42 66  1  0  0  0
 42117  1  0  0  0
 42118  1  0  0  0
 43 44  1  0  0  0
 44119  1  0  0  0
 45 46  2  0  0  0
 45120  1  0  0  0
 46121  1  0  0  0
 47122  1  0  0  0
 47123  1  0  0  0
 48 56  1  0  0  0
 48 65  1  0  0  0
 48124  1  0  0  0
 49 50  1  0  0  0
 49 53  1  0  0  0
 49 64  1  0  0  0
 49125  1  0  0  0
 50 51  1  0  0  0
 50126  1  0  0  0
 50127  1  0  0  0
 51 52  1  0  0  0
 51128  1  0  0  0
 51129  1  0  0  0
 52130  1  0  0  0
 52131  1  0  0  0
 53 54  1  0  0  0
 54 55  2  0  0  0
 54132  1  0  0  0
 55 57  1  0  0  0
 55133  1  0  0  0
 56 69  2  0  0  0
 57 58  2  0  0  0
 57134  1  0  0  0
 58135  1  0  0  0
 59 60  1  0  0  0
 59 61  1  0  0  0
 59 62  1  0  0  0
 60136  1  0  0  0
 60137  1  0  0  0
 60138  1  0  0  0
 61139  1  0  0  0
 61140  1  0  0  0
 61141  1  0  0  0
 62142  1  0  0  0
 62143  1  0  0  0
 62144  1  0  0  0
 63 65  1  0  0  0
 63145  1  0  0  0
 63146  1  0  0  0
 63147  1  0  0  0
 64148  1  0  0  0
 65149  1  0  0  0
 68 84  1  0  0  0
 71 73  2  0  0  0
 71 74  1  0  0  0
 71150  1  0  0  0
 72 73  1  0  0  0
 72 76  2  0  0  0
 72151  1  0  0  0
 73 81  1  0  0  0
 74 75  2  0  0  0
 74 82  1  0  0  0
 75 76  1  0  0  0
 75 87  1  0  0  0
 76 89  1  0  0  0
 77152  1  0  0  0
 77153  1  0  0  0
 77154  1  0  0  0
 77 85  1  0  0  0
 78 85  1  0  0  0
 78155  1  0  0  0
 78156  1  0  0  0
 78157  1  0  0  0
 79158  1  0  0  0
 79159  1  0  0  0
 79160  1  0  0  0
 79 86  1  0  0  0
 80161  1  0  0  0
 80162  1  0  0  0
 80163  1  0  0  0
 80 87  1  0  0  0
 81 84  1  0  0  0
 81164  1  0  0  0
 81165  1  0  0  0
 82 83  1  0  0  0
 82166  1  0  0  0
 82167  1  0  0  0
 83 86  1  0  0  0
 83168  1  0  0  0
 83169  1  0  0  0
 84170  1  0  0  0
 84171  1  0  0  0
 85 87  1  0  0  0
 85172  1  0  0  0
 86 90  1  0  0  0
 86173  1  0  0  0
 87 88  1  0  0  0
 88174  1  0  0  0
M  ISO  4   1 100  68 101  84 101  88 100
M  END
> <chiral flag>
0

> <version>
0

> <s_m_source_file>
/data/baiqing/PycharmProjects/Reinvent-master-3.2/result/LINK_invent/BTK/process_docking_weight1_custom_sum_contain_oxygen_bond_distance_aromatic_linkinvent_7_9_3/rearranged_h_0106.sdf

> <i_m_source_file_index>
19

> <r_mmod_Potential_Energy-OPLS-2005>
494.481140136719

> <r_mmod_Stretch_Energy-OPLS-2005>
228.866027832031

> <r_mmod_Bend_Energy-OPLS-2005>
277.160980224609

> <r_mmod_Torsional_Energy-OPLS-2005>
258.772613525391

> <r_mmod_Improper_Torsional_Energy-OPLS-2005>
9.43587779998779

> <r_mmod_Van_der_Waal_Energy-OPLS-2005>
158.266128540039

> <r_mmod_Electrostatic_Energy-OPLS-2005>
-388.843872070312

> <r_mmod_Solvation_Energy-OPLS-2005>
-192.478591918945

> <b_mmod_Minimization_Converged-OPLS-2005>
0

> <r_mmod_RMS_Derivative-OPLS-2005>
3.99379396438599

$$$$
19
                    3D
 Structure written by MMmdl.
164172  0  0  1  0            999 V2000
  -30.4714  -15.2052   20.3837 C   0  0  0  0  0  0
  -30.4396  -12.7706   19.5229 C   0  0  0  0  0  0
  -29.5283  -12.5584   18.2888 C   0  0  0  0  0  0
  -28.0789  -12.2850   18.7227 C   0  0  0  0  0  0
  -27.6134  -13.2666   19.8259 C   0  0  2  0  0  0
  -28.6481  -13.4259   20.9600 C   0  0  0  0  0  0
  -25.2391  -13.8240   20.5734 C   0  0  0  0  0  0
  -24.1717  -13.0441   20.9242 C   0  0  0  0  0  0
  -24.6370  -11.6941   20.8757 C   0  0  0  0  0  0
  -23.9071  -10.4295   21.0392 C   0  0  0  0  0  0
  -24.3614   -9.4209   21.9170 C   0  0  0  0  0  0
  -23.6277   -8.2248   22.0753 C   0  0  0  0  0  0
  -22.4260   -8.0279   21.3538 C   0  0  0  0  0  0
  -21.9898   -9.0259   20.4642 C   0  0  0  0  0  0
  -22.7242  -10.2131   20.3052 C   0  0  0  0  0  0
  -21.6855   -6.0714   22.5264 C   0  0  0  0  0  0
  -21.4012   -6.5616   23.8199 C   0  0  0  0  0  0
  -21.3665   -5.6773   24.9163 C   0  0  0  0  0  0
  -21.6048   -4.3038   24.7217 C   0  0  0  0  0  0
  -21.8822   -3.8124   23.4339 C   0  0  0  0  0  0
  -21.9191   -4.6938   22.3391 C   0  0  0  0  0  0
  -22.7747  -13.5213   21.1879 C   0  0  0  0  0  0
  -22.1657   -4.2124   21.0969 F   0  0  0  0  0  0
  -21.5640   -3.4531   25.7732 F   0  0  0  0  0  0
  -29.8888  -13.9124   20.3339 N   0  0  0  0  0  0
  -26.2813  -12.9498   20.3238 N   0  0  0  0  0  0
  -25.9312  -11.6617   20.5749 N   0  0  0  0  0  0
  -22.0400  -12.8208   22.0431 N   0  0  0  0  0  0
  -25.4073  -15.1979   20.4204 N   0  0  0  0  0  0
  -31.6905  -15.2019   20.1708 O   0  0  0  0  0  0
  -21.6641   -6.8870   21.4229 O   0  0  0  0  0  0
  -22.3429  -14.5503   20.6715 O   0  0  0  0  0  0
  -24.6611  -31.8318   23.1753 C   0  0  0  0  0  0
  -25.9305  -32.4632   23.8208 C   0  0  1  0  0  0
  -27.2109  -26.9740   20.1837 C   0  0  0  0  0  0
  -25.5983  -33.8445   24.2125 N   0  0  0  0  0  0
  -23.4734  -30.4467   21.5244 C   0  0  2  0  0  0
  -24.9242  -28.8518   20.1109 C   0  0  0  0  0  0
  -22.7677  -29.4471   22.4778 C   0  0  0  0  0  0
  -18.0333  -28.1421   22.8438 C   0  0  0  0  0  0
  -24.1482  -36.7222   23.2638 C   0  0  0  0  0  0
  -26.0403  -30.6522   21.4039 C   0  0  0  0  0  0
  -26.1086  -29.2475   20.7483 C   0  0  0  0  0  0
  -27.2466  -28.3285   20.7673 C   0  0  0  0  0  0
  -26.0027  -26.7350   19.4839 C   0  0  0  0  0  0
  -24.8943  -27.6104   19.4611 C   0  0  0  0  0  0
  -23.7112  -29.7744   20.1468 C   0  0  0  0  0  0
  -25.4118  -36.3004   24.0305 C   0  0  1  0  0  0
  -20.5975  -28.3765   23.1174 C   0  0  2  0  0  0
  -20.6832  -26.9443   22.5392 C   0  0  0  0  0  0
  -19.5798  -26.6379   21.5211 C   0  0  0  0  0  0
  -18.1970  -26.7950   22.1602 C   0  0  0  0  0  0
  -19.1603  -28.8898   23.2783 C   0  0  0  0  0  0
  -18.9529  -30.1486   23.8826 C   0  0  0  0  0  0
  -17.6520  -30.6596   24.0558 C   0  0  0  0  0  0
  -25.9095  -34.9373   23.5031 C   0  0  0  0  0  0
  -16.5405  -29.9090   23.6345 C   0  0  0  0  0  0
  -16.7327  -28.6521   23.0346 C   0  0  0  0  0  0
  -26.4558  -31.6582   25.0741 C   0  0  0  0  0  0
  -25.3674  -31.3829   26.1400 C   0  0  0  0  0  0
  -27.0460  -30.2944   24.6463 C   0  0  0  0  0  0
  -27.6059  -32.4380   25.7536 C   0  0  0  0  0  0
  -27.5569  -37.1731   24.8464 C   0  0  0  0  0  0
  -21.4343  -29.3054   22.3520 N   0  0  0  0  0  0
  -26.4277  -37.3728   23.9430 N   0  0  0  0  0  0
  -24.7456  -31.0018   22.0887 N   0  0  0  0  0  0
  -23.4240  -28.8022   23.2998 O   0  0  0  0  0  0
  -28.2055  -25.8742   20.2554 O   0  0  0  0  0  0
  -26.5703  -34.8901   22.4624 O   0  0  0  0  0  0
  -23.5684  -32.1276   23.6858 O   0  0  0  0  0  0
  -29.9985  -20.8476   21.0514 C   0  0  0  0  0  0
  -29.4268  -19.6511   20.4201 C   0  0  0  0  0  0
  -27.8353  -21.5650   19.5954 C   0  0  0  0  0  0
  -28.2893  -20.1431   19.6705 C   0  0  0  0  0  0
  -28.4746  -22.7207   20.2514 C   0  0  0  0  0  0
  -23.4872  -21.1160   18.1075 C   0  0  0  0  0  0
  -22.9702  -22.9692   19.7694 C   0  0  0  0  0  0
  -26.5739  -21.8570   18.7714 C   0  0  0  0  0  0
  -30.1651  -18.0726   20.4888 C   0  0  0  0  0  0
  -27.7630  -24.3134   20.3340 C   0  0  0  0  0  0
  -25.3144  -22.0135   19.6510 C   0  0  0  0  0  0
  -24.0389  -22.3491   18.8513 C   0  0  0  0  0  0
  -29.5482  -22.2000   20.9701 N   0  3  0  0  0  0
  -27.5783  -19.1654   18.9743 N   0  0  0  0  0  0
  -29.7311  -16.4784   20.4713 N   0  0  0  0  0  0
  -31.4556  -12.9707   19.1837 H   0  0  0  0  0  0
  -30.5069  -11.8629   20.1260 H   0  0  0  0  0  0
  -29.9009  -11.7373   17.6758 H   0  0  0  0  0  0
  -29.5555  -13.4523   17.6634 H   0  0  0  0  0  0
  -28.0398  -11.2650   19.1038 H   0  0  0  0  0  0
  -27.4063  -12.3190   17.8647 H   0  0  0  0  0  0
  -27.5353  -14.2341   19.3298 H   0  0  0  0  0  0
  -28.8017  -12.4865   21.4943 H   0  0  0  0  0  0
  -28.2971  -14.1510   21.6966 H   0  0  0  0  0  0
  -25.2753   -9.5683   22.4759 H   0  0  0  0  0  0
  -23.9968   -7.4650   22.7488 H   0  0  0  0  0  0
  -21.0826   -8.8797   19.8953 H   0  0  0  0  0  0
  -22.3694  -10.9681   19.6174 H   0  0  0  0  0  0
  -21.2000   -7.6125   23.9692 H   0  0  0  0  0  0
  -21.1489   -6.0502   25.9064 H   0  0  0  0  0  0
  -22.0597   -2.7586   23.2847 H   0  0  0  0  0  0
  -22.4015  -11.9868   22.4831 H   0  0  0  0  0  0
  -21.1022  -13.1266   22.2667 H   0  0  0  0  0  0
  -24.6447  -15.8546   20.5458 H   0  0  0  0  0  0
  -26.2570  -15.6431   20.0987 H   0  0  0  0  0  0
  -26.7383  -32.5200   23.0939 H   0  0  0  0  0  0
  -25.0090  -33.9544   25.0253 H   0  0  0  0  0  0
  -22.7849  -31.2771   21.3564 H   0  0  0  0  0  0
  -23.3777  -35.9522   23.3280 H   0  0  0  0  0  0
  -24.3550  -36.8908   22.2058 H   0  0  0  0  0  0
  -23.7237  -37.6379   23.6730 H   0  0  0  0  0  0
  -26.2175  -31.3950   20.6247 H   0  0  0  0  0  0
  -26.9016  -30.7071   22.0586 H   0  0  0  0  0  0
  -28.1338  -28.6179   21.3127 H   0  0  0  0  0  0
  -25.8559  -25.8128   18.9444 H   0  0  0  0  0  0
  -23.9968  -27.3030   18.9375 H   0  0  0  0  0  0
  -23.8568  -30.5457   19.3906 H   0  0  0  0  0  0
  -22.8230  -29.2207   19.8344 H   0  0  0  0  0  0
  -25.1300  -36.1781   25.0791 H   0  0  0  0  0  0
  -21.0055  -28.3400   24.1302 H   0  0  0  0  0  0
  -20.5748  -26.2383   23.3641 H   0  0  0  0  0  0
  -21.6691  -26.7433   22.1170 H   0  0  0  0  0  0
  -19.6980  -25.6280   21.1272 H   0  0  0  0  0  0
  -19.6769  -27.3161   20.6728 H   0  0  0  0  0  0
  -17.4255  -26.6716   21.3988 H   0  0  0  0  0  0
  -18.0306  -26.0109   22.9009 H   0  0  0  0  0  0
  -19.8022  -30.7288   24.2190 H   0  0  0  0  0  0
  -17.5099  -31.6277   24.5168 H   0  0  0  0  0  0
  -15.5409  -30.2973   23.7726 H   0  0  0  0  0  0
  -15.8739  -28.0828   22.7099 H   0  0  0  0  0  0
  -24.5910  -30.7141   25.7699 H   0  0  0  0  0  0
  -24.8811  -32.3020   26.4652 H   0  0  0  0  0  0
  -25.7875  -30.9123   27.0309 H   0  0  0  0  0  0
  -26.3150  -29.6595   24.1443 H   0  0  0  0  0  0
  -27.3996  -29.7319   25.5119 H   0  0  0  0  0  0
  -27.9082  -30.4134   23.9903 H   0  0  0  0  0  0
  -27.2674  -33.3765   26.1927 H   0  0  0  0  0  0
  -28.3933  -32.6798   25.0396 H   0  0  0  0  0  0
  -28.0647  -31.8643   26.5586 H   0  0  0  0  0  0
  -28.2533  -38.0070   24.7514 H   0  0  0  0  0  0
  -28.1117  -36.2588   24.6278 H   0  0  0  0  0  0
  -27.2286  -37.1365   25.8866 H   0  0  0  0  0  0
  -20.9613  -29.8773   21.6664 H   0  0  0  0  0  0
  -26.0134  -38.2789   24.1468 H   0  0  0  0  0  0
  -30.8799  -20.7416   21.6679 H   0  0  0  0  0  0
  -22.6440  -21.3834   17.4693 H   0  0  0  0  0  0
  -23.1451  -20.3499   18.8035 H   0  0  0  0  0  0
  -24.2349  -20.6552   17.4613 H   0  0  0  0  0  0
  -22.0449  -23.1635   19.2242 H   0  0  0  0  0  0
  -23.3081  -23.9220   20.1812 H   0  0  0  0  0  0
  -22.7367  -22.3152   20.6111 H   0  0  0  0  0  0
  -26.3968  -21.0930   18.0212 H   0  0  0  0  0  0
  -26.7398  -22.7414   18.1594 H   0  0  0  0  0  0
  -30.7496  -18.1322   21.4056 H   0  0  0  0  0  0
  -30.9177  -18.1364   19.7038 H   0  0  0  0  0  0
  -27.1539  -24.2663   21.2374 H   0  0  0  0  0  0
  -27.0428  -24.2730   19.5341 H   0  0  0  0  0  0
  -25.4811  -22.8009   20.3858 H   0  0  0  0  0  0
  -25.1597  -21.1053   20.2378 H   0  0  0  0  0  0
  -24.2852  -23.1051   18.1016 H   0  0  0  0  0  0
  -30.0739  -22.8783   21.5301 H   0  0  0  0  0  0
  -28.0956  -18.3476   18.6837 H   0  0  0  0  0  0
  -26.9659  -19.5023   18.2427 H   0  0  0  0  0  0
  -28.7368  -16.3415   20.5748 H   0  0  0  0  0  0
  1 25  1  0  0  0
  1 30  2  0  0  0
  1 85  1  0  0  0
  2  3  1  0  0  0
  2 25  1  0  0  0
  2 86  1  0  0  0
  2 87  1  0  0  0
  3  4  1  0  0  0
  3 88  1  0  0  0
  3 89  1  0  0  0
  4  5  1  0  0  0
  4 90  1  0  0  0
  4 91  1  0  0  0
  5  6  1  0  0  0
  5 26  1  0  0  0
  5 92  1  0  0  0
  6 25  1  0  0  0
  6 93  1  0  0  0
  6 94  1  0  0  0
  7  8  2  0  0  0
  7 26  1  0  0  0
  7 29  1  0  0  0
  8  9  1  0  0  0
  8 22  1  0  0  0
  9 10  1  0  0  0
  9 27  2  0  0  0
 10 11  2  0  0  0
 10 15  1  0  0  0
 11 12  1  0  0  0
 11 95  1  0  0  0
 12 13  2  0  0  0
 12 96  1  0  0  0
 13 14  1  0  0  0
 13 31  1  0  0  0
 14 15  2  0  0  0
 14 97  1  0  0  0
 15 98  1  0  0  0
 16 17  2  0  0  0
 16 21  1  0  0  0
 16 31  1  0  0  0
 17 18  1  0  0  0
 17 99  1  0  0  0
 18 19  2  0  0  0
 18100  1  0  0  0
 19 20  1  0  0  0
 19 24  1  0  0  0
 20 21  2  0  0  0
 20101  1  0  0  0
 21 23  1  0  0  0
 22 28  1  0  0  0
 22 32  2  0  0  0
 26 27  1  0  0  0
 28102  1  0  0  0
 28103  1  0  0  0
 29104  1  0  0  0
 29105  1  0  0  0
 33 34  1  0  0  0
 33 66  1  0  0  0
 33 70  2  0  0  0
 34 36  1  0  0  0
 34 59  1  0  0  0
 34106  1  0  0  0
 35 44  2  0  0  0
 35 45  1  0  0  0
 35 68  1  0  0  0
 36 56  1  0  0  0
 36107  1  0  0  0
 37 39  1  0  0  0
 37 47  1  0  0  0
 37 66  1  0  0  0
 37108  1  0  0  0
 38 43  2  0  0  0
 38 46  1  0  0  0
 38 47  1  0  0  0
 39 64  1  0  0  0
 39 67  2  0  0  0
 40 52  1  0  0  0
 40 53  2  0  0  0
 40 58  1  0  0  0
 41109  1  0  0  0
 41110  1  0  0  0
 41111  1  0  0  0
 41 48  1  0  0  0
 42 43  1  0  0  0
 42 66  1  0  0  0
 42112  1  0  0  0
 42113  1  0  0  0
 43 44  1  0  0  0
 44114  1  0  0  0
 45 46  2  0  0  0
 45115  1  0  0  0
 46116  1  0  0  0
 47117  1  0  0  0
 47118  1  0  0  0
 48 56  1  0  0  0
 48 65  1  0  0  0
 48119  1  0  0  0
 49 50  1  0  0  0
 49 53  1  0  0  0
 49 64  1  0  0  0
 49120  1  0  0  0
 50 51  1  0  0  0
 50121  1  0  0  0
 50122  1  0  0  0
 51 52  1  0  0  0
 51123  1  0  0  0
 51124  1  0  0  0
 52125  1  0  0  0
 52126  1  0  0  0
 53 54  1  0  0  0
 54 55  2  0  0  0
 54127  1  0  0  0
 55 57  1  0  0  0
 55128  1  0  0  0
 56 69  2  0  0  0
 57 58  2  0  0  0
 57129  1  0  0  0
 58130  1  0  0  0
 59 60  1  0  0  0
 59 61  1  0  0  0
 59 62  1  0  0  0
 60131  1  0  0  0
 60132  1  0  0  0
 60133  1  0  0  0
 61134  1  0  0  0
 61135  1  0  0  0
 61136  1  0  0  0
 62137  1  0  0  0
 62138  1  0  0  0
 62139  1  0  0  0
 63 65  1  0  0  0
 63140  1  0  0  0
 63141  1  0  0  0
 63142  1  0  0  0
 64143  1  0  0  0
 65144  1  0  0  0
 68 80  1  0  0  0
 71 72  2  0  0  0
 71 83  1  0  0  0
 71145  1  0  0  0
 72 74  1  0  0  0
 72 79  1  0  0  0
 73 74  2  0  0  0
 73 75  1  0  0  0
 73 78  1  0  0  0
 74 84  1  0  0  0
 75 80  1  0  0  0
 75 83  2  0  0  0
 76146  1  0  0  0
 76147  1  0  0  0
 76148  1  0  0  0
 76 82  1  0  0  0
 77 82  1  0  0  0
 77149  1  0  0  0
 77150  1  0  0  0
 77151  1  0  0  0
 78 81  1  0  0  0
 78152  1  0  0  0
 78153  1  0  0  0
 79 85  1  0  0  0
 79154  1  0  0  0
 79155  1  0  0  0
 80156  1  0  0  0
 80157  1  0  0  0
 81 82  1  0  0  0
 81158  1  0  0  0
 81159  1  0  0  0
 82160  1  0  0  0
 83161  1  0  0  0
 84162  1  0  0  0
 84163  1  0  0  0
 85164  1  0  0  0
M  CHG  1  83   1
M  ISO  4   1 100  68 101  80 101  85 100
M  END
> <chiral flag>
0

> <version>
0

> <s_m_source_file>
/data/baiqing/PycharmProjects/Reinvent-master-3.2/result/LINK_invent/BTK/process_docking_weight1_custom_sum_contain_oxygen_bond_distance_aromatic_linkinvent_7_9_3/rearranged_h_0106.sdf

> <i_m_source_file_index>
20

> <r_mmod_Potential_Energy-OPLS-2005>
996.53076171875

> <r_mmod_Stretch_Energy-OPLS-2005>
470.520172119141

> <r_mmod_Bend_Energy-OPLS-2005>
435.205657958984

> <r_mmod_Torsional_Energy-OPLS-2005>
226.835250854492

> <r_mmod_Improper_Torsional_Energy-OPLS-2005>
10.1213006973267

> <r_mmod_Van_der_Waal_Energy-OPLS-2005>
140.593597412109

> <r_mmod_Electrostatic_Energy-OPLS-2005>
-253.524139404297

> <r_mmod_Solvation_Energy-OPLS-2005>
-431.857055664062

> <b_mmod_Minimization_Converged-OPLS-2005>
0

> <r_mmod_RMS_Derivative-OPLS-2005>
3.76735639572144

$$$$
20
                    3D
 Structure written by MMmdl.
164171  0  0  1  0            999 V2000
  -30.3364  -15.5475   20.3392 C   0  0  0  0  0  0
  -30.4252  -13.0174   19.5407 C   0  0  0  0  0  0
  -29.5455  -12.6385   18.3170 C   0  0  0  0  0  0
  -28.1136  -12.2981   18.7571 C   0  0  0  0  0  0
  -27.5969  -13.3000   19.8155 C   0  0  2  0  0  0
  -28.6156  -13.6011   20.9392 C   0  0  0  0  0  0
  -25.2322  -13.8270   20.5783 C   0  0  0  0  0  0
  -24.1705  -13.0428   20.9278 C   0  0  0  0  0  0
  -24.6395  -11.6938   20.8761 C   0  0  0  0  0  0
  -23.9098  -10.4290   21.0394 C   0  0  0  0  0  0
  -24.3637   -9.4207   21.9177 C   0  0  0  0  0  0
  -23.6304   -8.2247   22.0752 C   0  0  0  0  0  0
  -22.4289   -8.0281   21.3541 C   0  0  0  0  0  0
  -21.9924   -9.0253   20.4643 C   0  0  0  0  0  0
  -22.7262  -10.2129   20.3050 C   0  0  0  0  0  0
  -21.6856   -6.0735   22.5277 C   0  0  0  0  0  0
  -21.4015   -6.5636   23.8206 C   0  0  0  0  0  0
  -21.3661   -5.6792   24.9170 C   0  0  0  0  0  0
  -21.6043   -4.3052   24.7221 C   0  0  0  0  0  0
  -21.8820   -3.8145   23.4343 C   0  0  0  0  0  0
  -21.9195   -4.6961   22.3398 C   0  0  0  0  0  0
  -22.7723  -13.5171   21.1914 C   0  0  0  0  0  0
  -22.1664   -4.2147   21.0979 F   0  0  0  0  0  0
  -21.5630   -3.4539   25.7735 F   0  0  0  0  0  0
  -29.8040  -14.1955   20.2904 N   0  0  0  0  0  0
  -26.2763  -12.9588   20.3233 N   0  0  0  0  0  0
  -25.9341  -11.6667   20.5703 N   0  0  0  0  0  0
  -22.0385  -12.8151   22.0466 N   0  0  0  0  0  0
  -25.3927  -15.2011   20.4230 N   0  0  0  0  0  0
  -31.5643  -15.4979   20.1528 O   0  0  0  0  0  0
  -21.6647   -6.8879   21.4239 O   0  0  0  0  0  0
  -22.3404  -14.5474   20.6757 O   0  0  0  0  0  0
  -24.6802  -31.8035   23.1545 C   0  0  0  0  0  0
  -25.9400  -32.4480   23.8073 C   0  0  1  0  0  0
  -27.2222  -26.7416   20.2115 C   0  0  0  0  0  0
  -25.5991  -33.8304   24.1959 N   0  0  0  0  0  0
  -23.5040  -30.4079   21.5077 C   0  0  2  0  0  0
  -24.9590  -28.7560   20.1178 C   0  0  0  0  0  0
  -22.7748  -29.4333   22.4723 C   0  0  0  0  0  0
  -18.0335  -28.1422   22.8451 C   0  0  0  0  0  0
  -24.1493  -36.7155   23.2654 C   0  0  0  0  0  0
  -26.0826  -30.5501   21.4121 C   0  0  0  0  0  0
  -26.1483  -29.1195   20.7612 C   0  0  0  0  0  0
  -27.2676  -28.1401   20.7737 C   0  0  0  0  0  0
  -25.9999  -26.5750   19.5153 C   0  0  0  0  0  0
  -24.9214  -27.5082   19.4716 C   0  0  0  0  0  0
  -23.7550  -29.7085   20.1415 C   0  0  0  0  0  0
  -25.4143  -36.2899   24.0285 C   0  0  1  0  0  0
  -20.5967  -28.3775   23.1150 C   0  0  2  0  0  0
  -20.6807  -26.9438   22.5406 C   0  0  0  0  0  0
  -19.5784  -26.6368   21.5219 C   0  0  0  0  0  0
  -18.1960  -26.7948   22.1615 C   0  0  0  0  0  0
  -19.1600  -28.8922   23.2780 C   0  0  0  0  0  0
  -18.9512  -30.1505   23.8824 C   0  0  0  0  0  0
  -17.6503  -30.6603   24.0551 C   0  0  0  0  0  0
  -25.9127  -34.9291   23.4957 C   0  0  0  0  0  0
  -16.5390  -29.9086   23.6356 C   0  0  0  0  0  0
  -16.7316  -28.6511   23.0365 C   0  0  0  0  0  0
  -26.4597  -31.6503   25.0681 C   0  0  0  0  0  0
  -25.3673  -31.3809   26.1300 C   0  0  0  0  0  0
  -27.0526  -30.2842   24.6557 C   0  0  0  0  0  0
  -27.6046  -32.4365   25.7495 C   0  0  0  0  0  0
  -27.5563  -37.1729   24.8470 C   0  0  0  0  0  0
  -21.4397  -29.3023   22.3468 N   0  0  0  0  0  0
  -26.4268  -37.3660   23.9415 N   0  0  0  0  0  0
  -24.7786  -30.9523   22.0775 N   0  0  0  0  0  0
  -23.4208  -28.7930   23.3053 O   0  0  0  0  0  0
  -28.2011  -25.5504   20.2745 O   0  0  0  0  0  0
  -26.5764  -34.8866   22.4571 O   0  0  0  0  0  0
  -23.5830  -32.1089   23.6530 O   0  0  0  0  0  0
  -31.5874  -20.1571   21.6074 C   0  0  0  0  0  0
  -30.1493  -18.5213   22.8646 C   0  0  0  0  0  0
  -28.7399  -18.4544   17.4098 C   0  0  0  0  0  0
  -31.0340  -17.9544   16.6967 C   0  0  0  0  0  0
  -29.0022  -22.1806   20.2807 C   0  0  0  0  0  0
  -28.7883  -20.2620   20.3448 C   0  0  0  0  0  0
  -30.6493  -18.8169   18.9742 C   0  0  0  0  0  0
  -27.9966  -23.8190   20.2161 C   0  0  0  0  0  0
  -30.8370  -18.8163   21.5178 C   0  0  0  0  0  0
  -29.8612  -18.6509   20.3079 C   0  0  1  0  0  0
  -29.5867  -16.9038   20.3751 N   0  0  0  0  0  0
  -30.0941  -18.0338   17.8379 N   0  3  0  0  0  0
  -31.4272  -13.2618   19.1861 H   0  0  0  0  0  0
  -30.5602  -12.1588   20.2011 H   0  0  0  0  0  0
  -29.9840  -11.7999   17.7742 H   0  0  0  0  0  0
  -29.5203  -13.4770   17.6194 H   0  0  0  0  0  0
  -28.1273  -11.2940   19.1835 H   0  0  0  0  0  0
  -27.4433  -12.2591   17.8977 H   0  0  0  0  0  0
  -27.4698  -14.2305   19.2609 H   0  0  0  0  0  0
  -28.8538  -12.7086   21.5202 H   0  0  0  0  0  0
  -28.1973  -14.3236   21.6422 H   0  0  0  0  0  0
  -25.2774   -9.5688   22.4762 H   0  0  0  0  0  0
  -24.0006   -7.4641   22.7482 H   0  0  0  0  0  0
  -21.0853   -8.8775   19.8953 H   0  0  0  0  0  0
  -22.3709  -10.9669   19.6166 H   0  0  0  0  0  0
  -21.2004   -7.6145   23.9709 H   0  0  0  0  0  0
  -21.1483   -6.0521   25.9072 H   0  0  0  0  0  0
  -22.0597   -2.7606   23.2843 H   0  0  0  0  0  0
  -22.4022  -11.9823   22.4859 H   0  0  0  0  0  0
  -21.0995  -13.1154   22.2672 H   0  0  0  0  0  0
  -24.6187  -15.8469   20.5357 H   0  0  0  0  0  0
  -26.2314  -15.6453   20.0762 H   0  0  0  0  0  0
  -26.7473  -32.4960   23.0781 H   0  0  0  0  0  0
  -25.0060  -33.9350   25.0057 H   0  0  0  0  0  0
  -22.8273  -31.2445   21.3213 H   0  0  0  0  0  0
  -23.3777  -35.9462   23.3269 H   0  0  0  0  0  0
  -24.3561  -36.8865   22.2079 H   0  0  0  0  0  0
  -23.7236  -37.6314   23.6762 H   0  0  0  0  0  0
  -26.2832  -31.2796   20.6264 H   0  0  0  0  0  0
  -26.9343  -30.6134   22.0768 H   0  0  0  0  0  0
  -28.1650  -28.4255   21.3043 H   0  0  0  0  0  0
  -25.8404  -25.6285   19.0188 H   0  0  0  0  0  0
  -24.0229  -27.2217   18.9424 H   0  0  0  0  0  0
  -23.9278  -30.4708   19.3808 H   0  0  0  0  0  0
  -22.8601  -29.1752   19.8172 H   0  0  0  0  0  0
  -25.1350  -36.1661   25.0775 H   0  0  0  0  0  0
  -21.0049  -28.3401   24.1277 H   0  0  0  0  0  0
  -20.5685  -26.2395   23.3662 H   0  0  0  0  0  0
  -21.6666  -26.7395   22.1211 H   0  0  0  0  0  0
  -19.6948  -25.6266   21.1286 H   0  0  0  0  0  0
  -19.6732  -27.3148   20.6724 H   0  0  0  0  0  0
  -17.4233  -26.6695   21.4013 H   0  0  0  0  0  0
  -18.0342  -26.0108   22.9028 H   0  0  0  0  0  0
  -19.7991  -30.7336   24.2157 H   0  0  0  0  0  0
  -17.5058  -31.6276   24.5169 H   0  0  0  0  0  0
  -15.5389  -30.2966   23.7726 H   0  0  0  0  0  0
  -15.8714  -28.0807   22.7122 H   0  0  0  0  0  0
  -24.5881  -30.7140   25.7594 H   0  0  0  0  0  0
  -24.8842  -32.3027   26.4544 H   0  0  0  0  0  0
  -25.7850  -30.9085   27.0198 H   0  0  0  0  0  0
  -26.3237  -29.6459   24.1552 H   0  0  0  0  0  0
  -27.3976  -29.7281   25.5285 H   0  0  0  0  0  0
  -27.9206  -30.3978   24.0061 H   0  0  0  0  0  0
  -27.2588  -33.3741   26.1863 H   0  0  0  0  0  0
  -28.3957  -32.6809   25.0395 H   0  0  0  0  0  0
  -28.0604  -31.8641   26.5586 H   0  0  0  0  0  0
  -28.2540  -38.0058   24.7513 H   0  0  0  0  0  0
  -28.1091  -36.2577   24.6292 H   0  0  0  0  0  0
  -27.2274  -37.1364   25.8870 H   0  0  0  0  0  0
  -20.9698  -29.8679   21.6536 H   0  0  0  0  0  0
  -26.0094  -38.2705   24.1436 H   0  0  0  0  0  0
  -32.4317  -20.0709   22.2923 H   0  0  0  0  0  0
  -30.9564  -20.9464   22.0063 H   0  0  0  0  0  0
  -31.9910  -20.4864   20.6504 H   0  0  0  0  0  0
  -30.8648  -18.5802   23.6853 H   0  0  0  0  0  0
  -29.7116  -17.5240   22.9004 H   0  0  0  0  0  0
  -29.3544  -19.2366   23.0758 H   0  0  0  0  0  0
  -28.4009  -17.8678   16.5553 H   0  0  0  0  0  0
  -28.7214  -19.5064   17.1230 H   0  0  0  0  0  0
  -28.0095  -18.2965   18.2025 H   0  0  0  0  0  0
  -30.6410  -17.3084   15.9107 H   0  0  0  0  0  0
  -31.9941  -17.5390   17.0051 H   0  0  0  0  0  0
  -31.2137  -18.9402   16.2662 H   0  0  0  0  0  0
  -29.6835  -22.3038   19.4393 H   0  0  0  0  0  0
  -29.6305  -22.3790   21.1448 H   0  0  0  0  0  0
  -28.0558  -20.0986   19.5578 H   0  0  0  0  0  0
  -28.1906  -20.1291   21.2459 H   0  0  0  0  0  0
  -31.6731  -18.4717   19.1276 H   0  0  0  0  0  0
  -30.7338  -19.8680   18.6944 H   0  0  0  0  0  0
  -27.2634  -23.6759   21.0102 H   0  0  0  0  0  0
  -27.4077  -23.7034   19.3061 H   0  0  0  0  0  0
  -31.6179  -18.0620   21.4064 H   0  0  0  0  0  0
  -28.6031  -16.7185   20.5157 H   0  0  0  0  0  0
  -29.9982  -17.0938   18.1890 H   0  0  0  0  0  0
  1 25  1  0  0  0
  1 30  2  0  0  0
  1 81  1  0  0  0
  2  3  1  0  0  0
  2 25  1  0  0  0
  2 83  1  0  0  0
  2 84  1  0  0  0
  3  4  1  0  0  0
  3 85  1  0  0  0
  3 86  1  0  0  0
  4  5  1  0  0  0
  4 87  1  0  0  0
  4 88  1  0  0  0
  5  6  1  0  0  0
  5 26  1  0  0  0
  5 89  1  0  0  0
  6 25  1  0  0  0
  6 90  1  0  0  0
  6 91  1  0  0  0
  7  8  2  0  0  0
  7 26  1  0  0  0
  7 29  1  0  0  0
  8  9  1  0  0  0
  8 22  1  0  0  0
  9 10  1  0  0  0
  9 27  2  0  0  0
 10 11  2  0  0  0
 10 15  1  0  0  0
 11 12  1  0  0  0
 11 92  1  0  0  0
 12 13  2  0  0  0
 12 93  1  0  0  0
 13 14  1  0  0  0
 13 31  1  0  0  0
 14 15  2  0  0  0
 14 94  1  0  0  0
 15 95  1  0  0  0
 16 17  2  0  0  0
 16 21  1  0  0  0
 16 31  1  0  0  0
 17 18  1  0  0  0
 17 96  1  0  0  0
 18 19  2  0  0  0
 18 97  1  0  0  0
 19 20  1  0  0  0
 19 24  1  0  0  0
 20 21  2  0  0  0
 20 98  1  0  0  0
 21 23  1  0  0  0
 22 28  1  0  0  0
 22 32  2  0  0  0
 26 27  1  0  0  0
 28 99  1  0  0  0
 28100  1  0  0  0
 29101  1  0  0  0
 29102  1  0  0  0
 33 34  1  0  0  0
 33 66  1  0  0  0
 33 70  2  0  0  0
 34 36  1  0  0  0
 34 59  1  0  0  0
 34103  1  0  0  0
 35 44  2  0  0  0
 35 45  1  0  0  0
 35 68  1  0  0  0
 36 56  1  0  0  0
 36104  1  0  0  0
 37 39  1  0  0  0
 37 47  1  0  0  0
 37 66  1  0  0  0
 37105  1  0  0  0
 38 43  2  0  0  0
 38 46  1  0  0  0
 38 47  1  0  0  0
 39 64  1  0  0  0
 39 67  2  0  0  0
 40 52  1  0  0  0
 40 53  2  0  0  0
 40 58  1  0  0  0
 41106  1  0  0  0
 41107  1  0  0  0
 41108  1  0  0  0
 41 48  1  0  0  0
 42 43  1  0  0  0
 42 66  1  0  0  0
 42109  1  0  0  0
 42110  1  0  0  0
 43 44  1  0  0  0
 44111  1  0  0  0
 45 46  2  0  0  0
 45112  1  0  0  0
 46113  1  0  0  0
 47114  1  0  0  0
 47115  1  0  0  0
 48 56  1  0  0  0
 48 65  1  0  0  0
 48116  1  0  0  0
 49 50  1  0  0  0
 49 53  1  0  0  0
 49 64  1  0  0  0
 49117  1  0  0  0
 50 51  1  0  0  0
 50118  1  0  0  0
 50119  1  0  0  0
 51 52  1  0  0  0
 51120  1  0  0  0
 51121  1  0  0  0
 52122  1  0  0  0
 52123  1  0  0  0
 53 54  1  0  0  0
 54 55  2  0  0  0
 54124  1  0  0  0
 55 57  1  0  0  0
 55125  1  0  0  0
 56 69  2  0  0  0
 57 58  2  0  0  0
 57126  1  0  0  0
 58127  1  0  0  0
 59 60  1  0  0  0
 59 61  1  0  0  0
 59 62  1  0  0  0
 60128  1  0  0  0
 60129  1  0  0  0
 60130  1  0  0  0
 61131  1  0  0  0
 61132  1  0  0  0
 61133  1  0  0  0
 62134  1  0  0  0
 62135  1  0  0  0
 62136  1  0  0  0
 63 65  1  0  0  0
 63137  1  0  0  0
 63138  1  0  0  0
 63139  1  0  0  0
 64140  1  0  0  0
 65141  1  0  0  0
 68 78  1  0  0  0
 71142  1  0  0  0
 71143  1  0  0  0
 71144  1  0  0  0
 71 79  1  0  0  0
 72 79  1  0  0  0
 72145  1  0  0  0
 72146  1  0  0  0
 72147  1  0  0  0
 73148  1  0  0  0
 73149  1  0  0  0
 73150  1  0  0  0
 73 82  1  0  0  0
 74 82  1  0  0  0
 74151  1  0  0  0
 74152  1  0  0  0
 74153  1  0  0  0
 75 76  1  0  0  0
 75 78  1  0  0  0
 75154  1  0  0  0
 75155  1  0  0  0
 76156  1  0  0  0
 76157  1  0  0  0
 76 80  1  0  0  0
 77 80  1  0  0  0
 77 82  1  0  0  0
 77158  1  0  0  0
 77159  1  0  0  0
 78160  1  0  0  0
 78161  1  0  0  0
 79 80  1  0  0  0
 79162  1  0  0  0
 80 81  1  0  0  0
 81163  1  0  0  0
 82164  1  0  0  0
M  CHG  1  82   1
M  ISO  4   1 100  68 101  78 101  81 100
M  END
> <chiral flag>
0

> <version>
0

> <s_m_source_file>
/data/baiqing/PycharmProjects/Reinvent-master-3.2/result/LINK_invent/BTK/process_docking_weight1_custom_sum_contain_oxygen_bond_distance_aromatic_linkinvent_7_9_3/rearranged_h_0106.sdf

> <i_m_source_file_index>
21

> <r_mmod_Potential_Energy-OPLS-2005>
2168.22631835938

> <r_mmod_Stretch_Energy-OPLS-2005>
1115.09020996094

> <r_mmod_Bend_Energy-OPLS-2005>
614.741149902344

> <r_mmod_Torsional_Energy-OPLS-2005>
270.628082275391

> <r_mmod_Improper_Torsional_Energy-OPLS-2005>
4.46370410919189

> <r_mmod_Van_der_Waal_Energy-OPLS-2005>
112.241508483887

> <r_mmod_Electrostatic_Energy-OPLS-2005>
-305.548889160156

> <r_mmod_Solvation_Energy-OPLS-2005>
-435.967834472656

> <b_mmod_Minimization_Converged-OPLS-2005>
0

> <r_mmod_RMS_Derivative-OPLS-2005>
0.8153315782547

$$$$
21
                    3D
 Structure written by MMmdl.
174182  0  0  1  0            999 V2000
  -30.6942  -14.4986   20.5405 C   0  0  0  0  0  0
  -30.4197  -12.3151   19.4328 C   0  0  0  0  0  0
  -29.4972  -12.4873   18.2096 C   0  0  0  0  0  0
  -28.0169  -12.3553   18.6225 C   0  0  0  0  0  0
  -27.6572  -13.2128   19.8706 C   0  0  2  0  0  0
  -28.6991  -13.0182   20.9947 C   0  0  0  0  0  0
  -25.2535  -13.8173   20.5684 C   0  0  0  0  0  0
  -24.1812  -13.0437   20.9210 C   0  0  0  0  0  0
  -24.6402  -11.6929   20.8725 C   0  0  0  0  0  0
  -23.9066  -10.4304   21.0373 C   0  0  0  0  0  0
  -24.3619   -9.4225   21.9145 C   0  0  0  0  0  0
  -23.6322   -8.2245   22.0726 C   0  0  0  0  0  0
  -22.4286   -8.0278   21.3529 C   0  0  0  0  0  0
  -21.9920   -9.0242   20.4616 C   0  0  0  0  0  0
  -22.7243  -10.2134   20.3028 C   0  0  0  0  0  0
  -21.6853   -6.0742   22.5295 C   0  0  0  0  0  0
  -21.3999   -6.5660   23.8234 C   0  0  0  0  0  0
  -21.3660   -5.6792   24.9199 C   0  0  0  0  0  0
  -21.6051   -4.3055   24.7242 C   0  0  0  0  0  0
  -21.8812   -3.8160   23.4349 C   0  0  0  0  0  0
  -21.9200   -4.6979   22.3406 C   0  0  0  0  0  0
  -22.7840  -13.5228   21.1892 C   0  0  0  0  0  0
  -22.1655   -4.2190   21.0968 F   0  0  0  0  0  0
  -21.5626   -3.4515   25.7730 F   0  0  0  0  0  0
  -30.0234  -13.3187   20.4342 N   0  0  0  0  0  0
  -26.2979  -12.9372   20.3350 N   0  0  0  0  0  0
  -25.9327  -11.6529   20.5791 N   0  0  0  0  0  0
  -22.0490  -12.8153   22.0426 N   0  0  0  0  0  0
  -25.4127  -15.1894   20.4106 N   0  0  0  0  0  0
  -31.8406  -14.6446   20.1047 O   0  0  0  0  0  0
  -21.6651   -6.8871   21.4239 O   0  0  0  0  0  0
  -22.3512  -14.5530   20.6773 O   0  0  0  0  0  0
  -24.6196  -31.8657   23.2036 C   0  0  0  0  0  0
  -25.9061  -32.4811   23.8359 C   0  0  1  0  0  0
  -27.2408  -27.3938   20.0929 C   0  0  0  0  0  0
  -25.5910  -33.8615   24.2274 N   0  0  0  0  0  0
  -23.4101  -30.4874   21.5470 C   0  0  2  0  0  0
  -24.8575  -28.9487   20.1148 C   0  0  0  0  0  0
  -22.7440  -29.4642   22.4965 C   0  0  0  0  0  0
  -18.0277  -28.1385   22.8490 C   0  0  0  0  0  0
  -24.1490  -36.7297   23.2637 C   0  0  0  0  0  0
  -25.9443  -30.8206   21.3621 C   0  0  0  0  0  0
  -26.0241  -29.4531   20.7045 C   0  0  0  0  0  0
  -27.2187  -28.6870   20.6817 C   0  0  0  0  0  0
  -26.0480  -26.9157   19.5035 C   0  0  0  0  0  0
  -24.8674  -27.6816   19.5113 C   0  0  0  0  0  0
  -23.6217  -29.8200   20.1632 C   0  0  0  0  0  0
  -25.4114  -36.3097   24.0325 C   0  0  1  0  0  0
  -20.5878  -28.3669   23.1314 C   0  0  2  0  0  0
  -20.6788  -26.9408   22.5411 C   0  0  0  0  0  0
  -19.5760  -26.6391   21.5214 C   0  0  0  0  0  0
  -18.1931  -26.7934   22.1615 C   0  0  0  0  0  0
  -19.1531  -28.8837   23.2900 C   0  0  0  0  0  0
  -18.9461  -30.1444   23.8908 C   0  0  0  0  0  0
  -17.6469  -30.6595   24.0564 C   0  0  0  0  0  0
  -25.9056  -34.9475   23.5095 C   0  0  0  0  0  0
  -16.5359  -29.9090   23.6338 C   0  0  0  0  0  0
  -16.7266  -28.6507   23.0356 C   0  0  0  0  0  0
  -26.4479  -31.6617   25.0708 C   0  0  0  0  0  0
  -25.3734  -31.3743   26.1448 C   0  0  0  0  0  0
  -27.0303  -30.3055   24.6094 C   0  0  0  0  0  0
  -27.6057  -32.4339   25.7471 C   0  0  0  0  0  0
  -27.5578  -37.1796   24.8462 C   0  0  0  0  0  0
  -21.4162  -29.3033   22.3711 N   0  0  0  0  0  0
  -26.4285  -37.3790   23.9422 N   0  0  0  0  0  0
  -24.6768  -31.0723   22.0951 N   0  0  0  0  0  0
  -23.4193  -28.8189   23.3033 O   0  0  0  0  0  0
  -28.4079  -26.6377   20.0979 O   0  0  0  0  0  0
  -26.5611  -34.8935   22.4651 O   0  0  0  0  0  0
  -23.5374  -32.1418   23.7402 O   0  0  0  0  0  0
  -29.4845  -21.9107   19.8214 C   0  0  0  0  0  0
  -29.5759  -20.7427   20.5497 C   0  0  0  0  0  0
  -29.6097  -21.1928   21.9054 C   0  0  0  0  0  0
  -29.5644  -22.5643   21.9640 C   0  0  0  0  0  0
  -29.5662  -23.5026   23.1361 C   0  0  0  0  0  0
  -32.0211  -24.0522   19.1663 C   0  0  0  0  0  0
  -32.0102  -19.6269   23.3986 C   0  0  0  0  0  0
  -30.4966  -20.1860   25.3355 C   0  0  0  0  0  0
  -29.7101  -19.3335   19.9275 C   0  0  0  0  0  0
  -30.6048  -24.6372   18.9993 C   0  0  0  0  0  0
  -29.3077  -18.0346   20.7095 C   0  0  0  0  0  0
  -30.4452  -16.9702   20.8486 C   0  0  0  0  0  0
  -28.3014  -25.1893   20.0104 C   0  0  0  0  0  0
  -29.6674  -24.4592   20.2238 C   0  0  1  0  0  0
  -30.8541  -20.5095   23.8802 C   0  0  0  0  0  0
  -29.5632  -23.0327   20.6516 N   0  0  0  0  0  0
  -29.6829  -20.3532   23.0223 N   0  0  0  0  0  0
  -29.9812  -15.5670   20.9643 N   0  0  0  0  0  0
  -31.4676  -12.3989   19.1386 H   0  0  0  0  0  0
  -30.3169  -11.3107   19.8456 H   0  0  0  0  0  0
  -29.7411  -11.7358   17.4558 H   0  0  0  0  0  0
  -29.6679  -13.4582   17.7414 H   0  0  0  0  0  0
  -27.8189  -11.3001   18.8230 H   0  0  0  0  0  0
  -27.3673  -12.6194   17.7864 H   0  0  0  0  0  0
  -27.6920  -14.2577   19.5636 H   0  0  0  0  0  0
  -28.6884  -11.9900   21.3578 H   0  0  0  0  0  0
  -28.4665  -13.6406   21.8607 H   0  0  0  0  0  0
  -25.2758   -9.5713   22.4724 H   0  0  0  0  0  0
  -24.0083   -7.4600   22.7393 H   0  0  0  0  0  0
  -21.0889   -8.8728   19.8867 H   0  0  0  0  0  0
  -22.3701  -10.9661   19.6126 H   0  0  0  0  0  0
  -21.1970   -7.6159   23.9766 H   0  0  0  0  0  0
  -21.1476   -6.0508   25.9111 H   0  0  0  0  0  0
  -22.0598   -2.7637   23.2847 H   0  0  0  0  0  0
  -22.4242  -11.9948   22.4920 H   0  0  0  0  0  0
  -21.1018  -13.1005   22.2485 H   0  0  0  0  0  0
  -24.6292  -15.8241   20.5320 H   0  0  0  0  0  0
  -26.2382  -15.6468   20.0443 H   0  0  0  0  0  0
  -26.7130  -32.5507   23.1129 H   0  0  0  0  0  0
  -25.0115  -33.9784   25.0452 H   0  0  0  0  0  0
  -22.7015  -31.3037   21.4029 H   0  0  0  0  0  0
  -23.3765  -35.9620   23.3301 H   0  0  0  0  0  0
  -24.3584  -36.8907   22.2050 H   0  0  0  0  0  0
  -23.7234  -37.6496   23.6658 H   0  0  0  0  0  0
  -26.0650  -31.5902   20.5988 H   0  0  0  0  0  0
  -26.8285  -30.8720   21.9857 H   0  0  0  0  0  0
  -28.1224  -29.0803   21.1284 H   0  0  0  0  0  0
  -26.0031  -25.9497   19.0255 H   0  0  0  0  0  0
  -23.9715  -27.2869   19.0509 H   0  0  0  0  0  0
  -23.7366  -30.5948   19.4037 H   0  0  0  0  0  0
  -22.7455  -29.2423   19.8624 H   0  0  0  0  0  0
  -25.1298  -36.1956   25.0816 H   0  0  0  0  0  0
  -20.9963  -28.3240   24.1441 H   0  0  0  0  0  0
  -20.5724  -26.2274   23.3592 H   0  0  0  0  0  0
  -21.6657  -26.7483   22.1186 H   0  0  0  0  0  0
  -19.6950  -25.6301   21.1237 H   0  0  0  0  0  0
  -19.6730  -27.3210   20.6747 H   0  0  0  0  0  0
  -17.4226  -26.6685   21.4000 H   0  0  0  0  0  0
  -18.0334  -26.0064   22.8990 H   0  0  0  0  0  0
  -19.7937  -30.7247   24.2304 H   0  0  0  0  0  0
  -17.5027  -31.6286   24.5143 H   0  0  0  0  0  0
  -15.5358  -30.3002   23.7667 H   0  0  0  0  0  0
  -15.8660  -28.0832   22.7076 H   0  0  0  0  0  0
  -24.5906  -30.7091   25.7779 H   0  0  0  0  0  0
  -24.8930  -32.2909   26.4879 H   0  0  0  0  0  0
  -25.8073  -30.8923   27.0214 H   0  0  0  0  0  0
  -26.2835  -29.6825   24.1151 H   0  0  0  0  0  0
  -27.4080  -29.7292   25.4549 H   0  0  0  0  0  0
  -27.8677  -30.4370   23.9237 H   0  0  0  0  0  0
  -27.2685  -33.3649   26.2041 H   0  0  0  0  0  0
  -28.3873  -32.6880   25.0299 H   0  0  0  0  0  0
  -28.0719  -31.8469   26.5392 H   0  0  0  0  0  0
  -28.2593  -38.0092   24.7525 H   0  0  0  0  0  0
  -28.1072  -36.2631   24.6276 H   0  0  0  0  0  0
  -27.2300  -37.1424   25.8860 H   0  0  0  0  0  0
  -20.9336  -29.8738   21.6916 H   0  0  0  0  0  0
  -26.0173  -38.2866   24.1437 H   0  0  0  0  0  0
  -29.4501  -22.0465   18.7480 H   0  0  0  0  0  0
  -29.3415  -22.9764   24.0653 H   0  0  0  0  0  0
  -28.8169  -24.2895   23.0290 H   0  0  0  0  0  0
  -30.5422  -23.9743   23.2445 H   0  0  0  0  0  0
  -32.6424  -24.2837   18.3000 H   0  0  0  0  0  0
  -32.0095  -22.9664   19.2704 H   0  0  0  0  0  0
  -32.5208  -24.4630   20.0444 H   0  0  0  0  0  0
  -32.9169  -19.8374   23.9641 H   0  0  0  0  0  0
  -32.2384  -19.7901   22.3441 H   0  0  0  0  0  0
  -31.7872  -18.5687   23.5308 H   0  0  0  0  0  0
  -31.3562  -20.3551   25.9852 H   0  0  0  0  0  0
  -30.1903  -19.1469   25.4573 H   0  0  0  0  0  0
  -29.6862  -20.8173   25.7016 H   0  0  0  0  0  0
  -30.7428  -19.2492   19.5860 H   0  0  0  0  0  0
  -29.1255  -19.3431   19.0045 H   0  0  0  0  0  0
  -30.1431  -24.1978   18.1148 H   0  0  0  0  0  0
  -30.6929  -25.7013   18.7735 H   0  0  0  0  0  0
  -28.4886  -17.5723   20.1557 H   0  0  0  0  0  0
  -28.8776  -18.2621   21.6808 H   0  0  0  0  0  0
  -31.0709  -17.1916   21.7133 H   0  0  0  0  0  0
  -31.1097  -17.0532   19.9857 H   0  0  0  0  0  0
  -27.5911  -24.8463   20.7665 H   0  0  0  0  0  0
  -27.8981  -24.8932   19.0414 H   0  0  0  0  0  0
  -30.1578  -24.9832   21.0435 H   0  0  0  0  0  0
  -31.2056  -21.5402   23.8425 H   0  0  0  0  0  0
  -29.4678  -19.3849   22.8116 H   0  0  0  0  0  0
  -29.0366  -15.3980   21.2803 H   0  0  0  0  0  0
  1 25  1  0  0  0
  1 30  2  0  0  0
  1 88  1  0  0  0
  2  3  1  0  0  0
  2 25  1  0  0  0
  2 89  1  0  0  0
  2 90  1  0  0  0
  3  4  1  0  0  0
  3 91  1  0  0  0
  3 92  1  0  0  0
  4  5  1  0  0  0
  4 93  1  0  0  0
  4 94  1  0  0  0
  5  6  1  0  0  0
  5 26  1  0  0  0
  5 95  1  0  0  0
  6 25  1  0  0  0
  6 96  1  0  0  0
  6 97  1  0  0  0
  7  8  2  0  0  0
  7 26  1  0  0  0
  7 29  1  0  0  0
  8  9  1  0  0  0
  8 22  1  0  0  0
  9 10  1  0  0  0
  9 27  2  0  0  0
 10 11  2  0  0  0
 10 15  1  0  0  0
 11 12  1  0  0  0
 11 98  1  0  0  0
 12 13  2  0  0  0
 12 99  1  0  0  0
 13 14  1  0  0  0
 13 31  1  0  0  0
 14 15  2  0  0  0
 14100  1  0  0  0
 15101  1  0  0  0
 16 17  2  0  0  0
 16 21  1  0  0  0
 16 31  1  0  0  0
 17 18  1  0  0  0
 17102  1  0  0  0
 18 19  2  0  0  0
 18103  1  0  0  0
 19 20  1  0  0  0
 19 24  1  0  0  0
 20 21  2  0  0  0
 20104  1  0  0  0
 21 23  1  0  0  0
 22 28  1  0  0  0
 22 32  2  0  0  0
 26 27  1  0  0  0
 28105  1  0  0  0
 28106  1  0  0  0
 29107  1  0  0  0
 29108  1  0  0  0
 33 34  1  0  0  0
 33 66  1  0  0  0
 33 70  2  0  0  0
 34 36  1  0  0  0
 34 59  1  0  0  0
 34109  1  0  0  0
 35 44  2  0  0  0
 35 45  1  0  0  0
 35 68  1  0  0  0
 36 56  1  0  0  0
 36110  1  0  0  0
 37 39  1  0  0  0
 37 47  1  0  0  0
 37 66  1  0  0  0
 37111  1  0  0  0
 38 43  2  0  0  0
 38 46  1  0  0  0
 38 47  1  0  0  0
 39 64  1  0  0  0
 39 67  2  0  0  0
 40 52  1  0  0  0
 40 53  2  0  0  0
 40 58  1  0  0  0
 41112  1  0  0  0
 41113  1  0  0  0
 41114  1  0  0  0
 41 48  1  0  0  0
 42 43  1  0  0  0
 42 66  1  0  0  0
 42115  1  0  0  0
 42116  1  0  0  0
 43 44  1  0  0  0
 44117  1  0  0  0
 45 46  2  0  0  0
 45118  1  0  0  0
 46119  1  0  0  0
 47120  1  0  0  0
 47121  1  0  0  0
 48 56  1  0  0  0
 48 65  1  0  0  0
 48122  1  0  0  0
 49 50  1  0  0  0
 49 53  1  0  0  0
 49 64  1  0  0  0
 49123  1  0  0  0
 50 51  1  0  0  0
 50124  1  0  0  0
 50125  1  0  0  0
 51 52  1  0  0  0
 51126  1  0  0  0
 51127  1  0  0  0
 52128  1  0  0  0
 52129  1  0  0  0
 53 54  1  0  0  0
 54 55  2  0  0  0
 54130  1  0  0  0
 55 57  1  0  0  0
 55131  1  0  0  0
 56 69  2  0  0  0
 57 58  2  0  0  0
 57132  1  0  0  0
 58133  1  0  0  0
 59 60  1  0  0  0
 59 61  1  0  0  0
 59 62  1  0  0  0
 60134  1  0  0  0
 60135  1  0  0  0
 60136  1  0  0  0
 61137  1  0  0  0
 61138  1  0  0  0
 61139  1  0  0  0
 62140  1  0  0  0
 62141  1  0  0  0
 62142  1  0  0  0
 63 65  1  0  0  0
 63143  1  0  0  0
 63144  1  0  0  0
 63145  1  0  0  0
 64146  1  0  0  0
 65147  1  0  0  0
 68 83  1  0  0  0
 71 72  2  0  0  0
 71 86  1  0  0  0
 71148  1  0  0  0
 72 73  1  0  0  0
 72 79  1  0  0  0
 73 74  2  0  0  0
 73 87  1  0  0  0
 74 75  1  0  0  0
 74 86  1  0  0  0
 75149  1  0  0  0
 75150  1  0  0  0
 75151  1  0  0  0
 76 80  1  0  0  0
 76152  1  0  0  0
 76153  1  0  0  0
 76154  1  0  0  0
 77155  1  0  0  0
 77156  1  0  0  0
 77157  1  0  0  0
 77 85  1  0  0  0
 78 85  1  0  0  0
 78158  1  0  0  0
 78159  1  0  0  0
 78160  1  0  0  0
 79 81  1  0  0  0
 79161  1  0  0  0
 79162  1  0  0  0
 80163  1  0  0  0
 80164  1  0  0  0
 80 84  1  0  0  0
 81 82  1  0  0  0
 81165  1  0  0  0
 81166  1  0  0  0
 82 88  1  0  0  0
 82167  1  0  0  0
 82168  1  0  0  0
 83 84  1  0  0  0
 83169  1  0  0  0
 83170  1  0  0  0
 84 86  1  0  0  0
 84171  1  0  0  0
 85 87  1  0  0  0
 85172  1  0  0  0
 87173  1  0  0  0
 88174  1  0  0  0
M  ISO  4   1 100  68 101  83 101  88 100
M  END
> <chiral flag>
0

> <version>
0

> <s_m_source_file>
/data/baiqing/PycharmProjects/Reinvent-master-3.2/result/LINK_invent/BTK/process_docking_weight1_custom_sum_contain_oxygen_bond_distance_aromatic_linkinvent_7_9_3/rearranged_h_0106.sdf

> <i_m_source_file_index>
22

> <r_mmod_Potential_Energy-OPLS-2005>
-81.3754653930664

> <r_mmod_Stretch_Energy-OPLS-2005>
49.8560104370117

> <r_mmod_Bend_Energy-OPLS-2005>
124.507217407227

> <r_mmod_Torsional_Energy-OPLS-2005>
257.938110351562

> <r_mmod_Improper_Torsional_Energy-OPLS-2005>
9.18732738494873

> <r_mmod_Van_der_Waal_Energy-OPLS-2005>
123.056694030762

> <r_mmod_Electrostatic_Energy-OPLS-2005>
-456.247161865234

> <r_mmod_Solvation_Energy-OPLS-2005>
-208.139846801758

> <b_mmod_Minimization_Converged-OPLS-2005>
0

> <r_mmod_RMS_Derivative-OPLS-2005>
4.18338298797607

$$$$
22
                    3D
 Structure written by MMmdl.
165173  0  0  1  0            999 V2000
  -30.5724  -14.8349   20.4357 C   0  0  0  0  0  0
  -30.4357  -12.5113   19.4878 C   0  0  0  0  0  0
  -29.5154  -12.5158   18.2461 C   0  0  0  0  0  0
  -28.0439  -12.3231   18.6602 C   0  0  0  0  0  0
  -27.6357  -13.2375   19.8456 C   0  0  2  0  0  0
  -28.6787  -13.2108   20.9837 C   0  0  0  0  0  0
  -25.2486  -13.8205   20.5698 C   0  0  0  0  0  0
  -24.1788  -13.0444   20.9223 C   0  0  0  0  0  0
  -24.6386  -11.6922   20.8756 C   0  0  0  0  0  0
  -23.9071  -10.4291   21.0409 C   0  0  0  0  0  0
  -24.3623   -9.4205   21.9184 C   0  0  0  0  0  0
  -23.6297   -8.2242   22.0751 C   0  0  0  0  0  0
  -22.4279   -8.0279   21.3543 C   0  0  0  0  0  0
  -21.9918   -9.0253   20.4644 C   0  0  0  0  0  0
  -22.7245  -10.2132   20.3055 C   0  0  0  0  0  0
  -21.6853   -6.0738   22.5280 C   0  0  0  0  0  0
  -21.4013   -6.5643   23.8213 C   0  0  0  0  0  0
  -21.3657   -5.6796   24.9176 C   0  0  0  0  0  0
  -21.6044   -4.3059   24.7227 C   0  0  0  0  0  0
  -21.8819   -3.8149   23.4348 C   0  0  0  0  0  0
  -21.9193   -4.6967   22.3402 C   0  0  0  0  0  0
  -22.7810  -13.5220   21.1886 C   0  0  0  0  0  0
  -22.1662   -4.2153   21.0981 F   0  0  0  0  0  0
  -21.5626   -3.4540   25.7739 F   0  0  0  0  0  0
  -29.9693  -13.5900   20.3965 N   0  0  0  0  0  0
  -26.2906  -12.9418   20.3259 N   0  0  0  0  0  0
  -25.9315  -11.6557   20.5744 N   0  0  0  0  0  0
  -22.0459  -12.8198   22.0432 N   0  0  0  0  0  0
  -25.4172  -15.1929   20.4098 N   0  0  0  0  0  0
  -31.7651  -14.9265   20.1311 O   0  0  0  0  0  0
  -21.6641   -6.8878   21.4239 O   0  0  0  0  0  0
  -22.3491  -14.5525   20.6729 O   0  0  0  0  0  0
  -24.6361  -31.8487   23.1916 C   0  0  0  0  0  0
  -25.9159  -32.4715   23.8289 C   0  0  1  0  0  0
  -27.2277  -27.2084   20.1269 C   0  0  0  0  0  0
  -25.5929  -33.8521   24.2211 N   0  0  0  0  0  0
  -23.4361  -30.4680   21.5356 C   0  0  2  0  0  0
  -24.8845  -28.9020   20.1067 C   0  0  0  0  0  0
  -22.7523  -29.4574   22.4889 C   0  0  0  0  0  0
  -18.0314  -28.1387   22.8480 C   0  0  0  0  0  0
  -24.1488  -36.7271   23.2643 C   0  0  0  0  0  0
  -25.9851  -30.7436   21.3785 C   0  0  0  0  0  0
  -26.0562  -29.3610   20.7196 C   0  0  0  0  0  0
  -27.2244  -28.5256   20.7185 C   0  0  0  0  0  0
  -26.0265  -26.8228   19.4920 C   0  0  0  0  0  0
  -24.8779  -27.6438   19.4823 C   0  0  0  0  0  0
  -23.6564  -29.7945   20.1541 C   0  0  0  0  0  0
  -25.4118  -36.3047   24.0320 C   0  0  1  0  0  0
  -20.5909  -28.3721   23.1272 C   0  0  2  0  0  0
  -20.6790  -26.9427   22.5448 C   0  0  0  0  0  0
  -19.5791  -26.6384   21.5232 C   0  0  0  0  0  0
  -18.1964  -26.7932   22.1618 C   0  0  0  0  0  0
  -19.1559  -28.8869   23.2867 C   0  0  0  0  0  0
  -18.9472  -30.1471   23.8880 C   0  0  0  0  0  0
  -17.6470  -30.6589   24.0546 C   0  0  0  0  0  0
  -25.9064  -34.9418   23.5074 C   0  0  0  0  0  0
  -16.5368  -29.9072   23.6308 C   0  0  0  0  0  0
  -16.7299  -28.6489   23.0341 C   0  0  0  0  0  0
  -26.4504  -31.6568   25.0710 C   0  0  0  0  0  0
  -25.3705  -31.3741   26.1415 C   0  0  0  0  0  0
  -27.0364  -30.2976   24.6246 C   0  0  0  0  0  0
  -27.6039  -32.4331   25.7496 C   0  0  0  0  0  0
  -27.5574  -37.1790   24.8465 C   0  0  0  0  0  0
  -21.4224  -29.3057   22.3645 N   0  0  0  0  0  0
  -26.4288  -37.3753   23.9404 N   0  0  0  0  0  0
  -24.7052  -31.0403   22.0910 N   0  0  0  0  0  0
  -23.4200  -28.8120   23.3013 O   0  0  0  0  0  0
  -28.3288  -26.3079   20.2273 O   0  0  0  0  0  0
  -26.5653  -34.8909   22.4655 O   0  0  0  0  0  0
  -23.5500  -32.1330   23.7182 O   0  0  0  0  0  0
  -28.0547  -22.2481   19.1288 C   0  0  0  0  0  0
  -29.3631  -22.7848   21.1260 C   0  0  0  0  0  0
  -28.9291  -20.8888   19.1223 C   0  0  0  0  0  0
  -28.2879  -23.4214   20.1800 C   0  0  1  0  0  0
  -29.1371  -21.2444   21.5537 C   0  0  1  0  0  0
  -26.5268  -20.8461   21.7126 C   0  0  0  0  0  0
  -27.7320  -22.0308   23.5843 C   0  0  0  0  0  0
  -28.4506  -24.9479   19.5512 C   0  0  0  0  0  0
  -30.1296  -17.4942   20.3771 C   0  0  0  0  0  0
  -29.0266  -18.6978   20.6436 C   0  0  0  0  0  0
  -27.8725  -20.9982   22.4504 C   0  0  0  0  0  0
  -29.7886  -15.9878   20.5984 N   0  0  0  0  0  0
  -29.3367  -20.2333   20.4282 N   0  3  1  0  0  0
  -31.4742  -12.6504   19.1830 H   0  0  0  0  0  0
  -30.4002  -11.5446   19.9933 H   0  0  0  0  0  0
  -29.8146  -11.7305   17.5509 H   0  0  0  0  0  0
  -29.6255  -13.4597   17.7091 H   0  0  0  0  0  0
  -27.9174  -11.2772   18.9425 H   0  0  0  0  0  0
  -27.3848  -12.4894   17.8070 H   0  0  0  0  0  0
  -27.6180  -14.2511   19.4448 H   0  0  0  0  0  0
  -28.7357  -12.2212   21.4396 H   0  0  0  0  0  0
  -28.3970  -13.9007   21.7812 H   0  0  0  0  0  0
  -25.2764   -9.5686   22.4765 H   0  0  0  0  0  0
  -24.0010   -7.4630   22.7465 H   0  0  0  0  0  0
  -21.0852   -8.8772   19.8944 H   0  0  0  0  0  0
  -22.3703  -10.9675   19.6168 H   0  0  0  0  0  0
  -21.2006   -7.6151   23.9721 H   0  0  0  0  0  0
  -21.1479   -6.0524   25.9081 H   0  0  0  0  0  0
  -22.0598   -2.7611   23.2848 H   0  0  0  0  0  0
  -22.4083  -11.9861   22.4819 H   0  0  0  0  0  0
  -21.1069  -13.1202   22.2634 H   0  0  0  0  0  0
  -24.6428  -15.8406   20.5048 H   0  0  0  0  0  0
  -26.2511  -15.6268   20.0367 H   0  0  0  0  0  0
  -26.7224  -32.5346   23.1023 H   0  0  0  0  0  0
  -25.0037  -33.9645   25.0330 H   0  0  0  0  0  0
  -22.7356  -31.2916   21.3829 H   0  0  0  0  0  0
  -23.3748  -35.9604   23.3299 H   0  0  0  0  0  0
  -24.3575  -36.8908   22.2059 H   0  0  0  0  0  0
  -23.7245  -37.6469   23.6682 H   0  0  0  0  0  0
  -26.1308  -31.5009   20.6071 H   0  0  0  0  0  0
  -26.8599  -30.7937   22.0157 H   0  0  0  0  0  0
  -28.1196  -28.8705   21.2166 H   0  0  0  0  0  0
  -25.9323  -25.8501   19.0342 H   0  0  0  0  0  0
  -23.9773  -27.2829   19.0046 H   0  0  0  0  0  0
  -23.7818  -30.5663   19.3940 H   0  0  0  0  0  0
  -22.7739  -29.2274   19.8526 H   0  0  0  0  0  0
  -25.1302  -36.1884   25.0813 H   0  0  0  0  0  0
  -21.0006  -28.3323   24.1399 H   0  0  0  0  0  0
  -20.5653  -26.2357   23.3684 H   0  0  0  0  0  0
  -21.6668  -26.7430   22.1274 H   0  0  0  0  0  0
  -19.6957  -25.6287   21.1274 H   0  0  0  0  0  0
  -19.6743  -27.3190   20.6762 H   0  0  0  0  0  0
  -17.4245  -26.6676   21.4004 H   0  0  0  0  0  0
  -18.0350  -26.0069   22.9000 H   0  0  0  0  0  0
  -19.7937  -30.7298   24.2261 H   0  0  0  0  0  0
  -17.5013  -31.6267   24.5147 H   0  0  0  0  0  0
  -15.5368  -30.2971   23.7626 H   0  0  0  0  0  0
  -15.8703  -28.0794   22.7067 H   0  0  0  0  0  0
  -24.5890  -30.7078   25.7745 H   0  0  0  0  0  0
  -24.8882  -32.2920   26.4791 H   0  0  0  0  0  0
  -25.8000  -30.8956   27.0225 H   0  0  0  0  0  0
  -26.2969  -29.6711   24.1243 H   0  0  0  0  0  0
  -27.3993  -29.7255   25.4794 H   0  0  0  0  0  0
  -27.8866  -30.4231   23.9536 H   0  0  0  0  0  0
  -27.2624  -33.3641   26.2034 H   0  0  0  0  0  0
  -28.3870  -32.6876   25.0342 H   0  0  0  0  0  0
  -28.0683  -31.8485   26.5449 H   0  0  0  0  0  0
  -28.2586  -38.0091   24.7503 H   0  0  0  0  0  0
  -28.1074  -36.2618   24.6298 H   0  0  0  0  0  0
  -27.2293  -37.1448   25.8870 H   0  0  0  0  0  0
  -20.9420  -29.8777   21.6844 H   0  0  0  0  0  0
  -26.0159  -38.2825   24.1398 H   0  0  0  0  0  0
  -27.0064  -21.9582   19.1871 H   0  0  0  0  0  0
  -28.1394  -22.6740   18.1288 H   0  0  0  0  0  0
  -29.4562  -23.4074   22.0155 H   0  0  0  0  0  0
  -30.3369  -22.8666   20.6414 H   0  0  0  0  0  0
  -29.8668  -21.1141   18.6135 H   0  0  0  0  0  0
  -28.4420  -20.1529   18.4819 H   0  0  0  0  0  0
  -27.3746  -23.4948   20.7670 H   0  0  0  0  0  0
  -29.9777  -21.0287   22.2151 H   0  0  0  0  0  0
  -26.5835  -20.1586   20.8702 H   0  0  0  0  0  0
  -26.1424  -21.7951   21.3452 H   0  0  0  0  0  0
  -25.7672  -20.4504   22.3878 H   0  0  0  0  0  0
  -28.6599  -22.1319   24.1486 H   0  0  0  0  0  0
  -26.9542  -21.7326   24.2888 H   0  0  0  0  0  0
  -27.4613  -23.0175   23.2073 H   0  0  0  0  0  0
  -27.8312  -24.9846   18.6566 H   0  0  0  0  0  0
  -29.4568  -24.9664   19.1322 H   0  0  0  0  0  0
  -31.0046  -17.7054   20.9932 H   0  0  0  0  0  0
  -30.4778  -17.5841   19.3472 H   0  0  0  0  0  0
  -28.7258  -18.5561   21.6775 H   0  0  0  0  0  0
  -28.1289  -18.4650   20.0709 H   0  0  0  0  0  0
  -28.0352  -20.0573   22.9732 H   0  0  0  0  0  0
  -28.8244  -15.7979   20.8277 H   0  0  0  0  0  0
  -30.3428  -20.2222   20.3435 H   0  0  0  0  0  0
  1 25  1  0  0  0
  1 30  2  0  0  0
  1 82  1  0  0  0
  2  3  1  0  0  0
  2 25  1  0  0  0
  2 84  1  0  0  0
  2 85  1  0  0  0
  3  4  1  0  0  0
  3 86  1  0  0  0
  3 87  1  0  0  0
  4  5  1  0  0  0
  4 88  1  0  0  0
  4 89  1  0  0  0
  5  6  1  0  0  0
  5 26  1  0  0  0
  5 90  1  0  0  0
  6 25  1  0  0  0
  6 91  1  0  0  0
  6 92  1  0  0  0
  7  8  2  0  0  0
  7 26  1  0  0  0
  7 29  1  0  0  0
  8  9  1  0  0  0
  8 22  1  0  0  0
  9 10  1  0  0  0
  9 27  2  0  0  0
 10 11  2  0  0  0
 10 15  1  0  0  0
 11 12  1  0  0  0
 11 93  1  0  0  0
 12 13  2  0  0  0
 12 94  1  0  0  0
 13 14  1  0  0  0
 13 31  1  0  0  0
 14 15  2  0  0  0
 14 95  1  0  0  0
 15 96  1  0  0  0
 16 17  2  0  0  0
 16 21  1  0  0  0
 16 31  1  0  0  0
 17 18  1  0  0  0
 17 97  1  0  0  0
 18 19  2  0  0  0
 18 98  1  0  0  0
 19 20  1  0  0  0
 19 24  1  0  0  0
 20 21  2  0  0  0
 20 99  1  0  0  0
 21 23  1  0  0  0
 22 28  1  0  0  0
 22 32  2  0  0  0
 26 27  1  0  0  0
 28100  1  0  0  0
 28101  1  0  0  0
 29102  1  0  0  0
 29103  1  0  0  0
 33 34  1  0  0  0
 33 66  1  0  0  0
 33 70  2  0  0  0
 34 36  1  0  0  0
 34 59  1  0  0  0
 34104  1  0  0  0
 35 44  2  0  0  0
 35 45  1  0  0  0
 35 68  1  0  0  0
 36 56  1  0  0  0
 36105  1  0  0  0
 37 39  1  0  0  0
 37 47  1  0  0  0
 37 66  1  0  0  0
 37106  1  0  0  0
 38 43  2  0  0  0
 38 46  1  0  0  0
 38 47  1  0  0  0
 39 64  1  0  0  0
 39 67  2  0  0  0
 40 52  1  0  0  0
 40 53  2  0  0  0
 40 58  1  0  0  0
 41107  1  0  0  0
 41108  1  0  0  0
 41109  1  0  0  0
 41 48  1  0  0  0
 42 43  1  0  0  0
 42 66  1  0  0  0
 42110  1  0  0  0
 42111  1  0  0  0
 43 44  1  0  0  0
 44112  1  0  0  0
 45 46  2  0  0  0
 45113  1  0  0  0
 46114  1  0  0  0
 47115  1  0  0  0
 47116  1  0  0  0
 48 56  1  0  0  0
 48 65  1  0  0  0
 48117  1  0  0  0
 49 50  1  0  0  0
 49 53  1  0  0  0
 49 64  1  0  0  0
 49118  1  0  0  0
 50 51  1  0  0  0
 50119  1  0  0  0
 50120  1  0  0  0
 51 52  1  0  0  0
 51121  1  0  0  0
 51122  1  0  0  0
 52123  1  0  0  0
 52124  1  0  0  0
 53 54  1  0  0  0
 54 55  2  0  0  0
 54125  1  0  0  0
 55 57  1  0  0  0
 55126  1  0  0  0
 56 69  2  0  0  0
 57 58  2  0  0  0
 57127  1  0  0  0
 58128  1  0  0  0
 59 60  1  0  0  0
 59 61  1  0  0  0
 59 62  1  0  0  0
 60129  1  0  0  0
 60130  1  0  0  0
 60131  1  0  0  0
 61132  1  0  0  0
 61133  1  0  0  0
 61134  1  0  0  0
 62135  1  0  0  0
 62136  1  0  0  0
 62137  1  0  0  0
 63 65  1  0  0  0
 63138  1  0  0  0
 63139  1  0  0  0
 63140  1  0  0  0
 64141  1  0  0  0
 65142  1  0  0  0
 68 78  1  0  0  0
 71 73  1  0  0  0
 71 74  1  0  0  0
 71143  1  0  0  0
 71144  1  0  0  0
 72 74  1  0  0  0
 72145  1  0  0  0
 72146  1  0  0  0
 72 75  1  0  0  0
 73 83  1  0  0  0
 73147  1  0  0  0
 73148  1  0  0  0
 74 78  1  0  0  0
 74149  1  0  0  0
 75 81  1  0  0  0
 75 83  1  0  0  0
 75150  1  0  0  0
 76151  1  0  0  0
 76152  1  0  0  0
 76153  1  0  0  0
 76 81  1  0  0  0
 77 81  1  0  0  0
 77154  1  0  0  0
 77155  1  0  0  0
 77156  1  0  0  0
 78157  1  0  0  0
 78158  1  0  0  0
 79 80  1  0  0  0
 79 82  1  0  0  0
 79159  1  0  0  0
 79160  1  0  0  0
 80161  1  0  0  0
 80162  1  0  0  0
 80 83  1  0  0  0
 81163  1  0  0  0
 82164  1  0  0  0
 83165  1  0  0  0
M  CHG  1  83   1
M  ISO  4   1 100  68 101  78 101  82 100
M  END
> <chiral flag>
0

> <version>
0

> <s_m_source_file>
/data/baiqing/PycharmProjects/Reinvent-master-3.2/result/LINK_invent/BTK/process_docking_weight1_custom_sum_contain_oxygen_bond_distance_aromatic_linkinvent_7_9_3/rearranged_h_0106.sdf

> <i_m_source_file_index>
23

> <r_mmod_Potential_Energy-OPLS-2005>
286.713287353516

> <r_mmod_Stretch_Energy-OPLS-2005>
182.075088500977

> <r_mmod_Bend_Energy-OPLS-2005>
270.519348144531

> <r_mmod_Torsional_Energy-OPLS-2005>
292.238830566406

> <r_mmod_Improper_Torsional_Energy-OPLS-2005>
5.15500640869141

> <r_mmod_Van_der_Waal_Energy-OPLS-2005>
125.032875061035

> <r_mmod_Electrostatic_Energy-OPLS-2005>
-256.709869384766

> <r_mmod_Solvation_Energy-OPLS-2005>
-456.384582519531

> <b_mmod_Minimization_Converged-OPLS-2005>
0

> <r_mmod_RMS_Derivative-OPLS-2005>
0.920305073261261

$$$$
23
                    3D
 Structure written by MMmdl.
153161  0  0  1  0            999 V2000
  -30.4808  -15.1923   20.3760 C   0  0  0  0  0  0
  -30.4383  -12.7583   19.5201 C   0  0  0  0  0  0
  -29.5312  -12.5553   18.2814 C   0  0  0  0  0  0
  -28.0763  -12.2971   18.7092 C   0  0  0  0  0  0
  -27.6130  -13.2711   19.8225 C   0  0  2  0  0  0
  -28.6508  -13.4253   20.9554 C   0  0  0  0  0  0
  -25.2393  -13.8249   20.5739 C   0  0  0  0  0  0
  -24.1739  -13.0440   20.9251 C   0  0  0  0  0  0
  -24.6398  -11.6937   20.8760 C   0  0  0  0  0  0
  -23.9106  -10.4293   21.0407 C   0  0  0  0  0  0
  -24.3646   -9.4197   21.9184 C   0  0  0  0  0  0
  -23.6303   -8.2242   22.0761 C   0  0  0  0  0  0
  -22.4281   -8.0284   21.3551 C   0  0  0  0  0  0
  -21.9932   -9.0260   20.4646 C   0  0  0  0  0  0
  -22.7278  -10.2129   20.3053 C   0  0  0  0  0  0
  -21.6853   -6.0735   22.5274 C   0  0  0  0  0  0
  -21.4017   -6.5640   23.8203 C   0  0  0  0  0  0
  -21.3658   -5.6784   24.9164 C   0  0  0  0  0  0
  -21.6045   -4.3050   24.7209 C   0  0  0  0  0  0
  -21.8819   -3.8145   23.4329 C   0  0  0  0  0  0
  -21.9195   -4.6968   22.3386 C   0  0  0  0  0  0
  -22.7754  -13.5189   21.1875 C   0  0  0  0  0  0
  -22.1658   -4.2152   21.0965 F   0  0  0  0  0  0
  -21.5629   -3.4532   25.7723 F   0  0  0  0  0  0
  -29.8929  -13.9034   20.3287 N   0  0  0  0  0  0
  -26.2824  -12.9519   20.3223 N   0  0  0  0  0  0
  -25.9337  -11.6632   20.5734 N   0  0  0  0  0  0
  -22.0423  -12.8171   22.0438 N   0  0  0  0  0  0
  -25.4032  -15.1982   20.4164 N   0  0  0  0  0  0
  -31.7013  -15.1848   20.1701 O   0  0  0  0  0  0
  -21.6644   -6.8882   21.4236 O   0  0  0  0  0  0
  -22.3427  -14.5483   20.6705 O   0  0  0  0  0  0
  -24.6591  -31.8288   23.1751 C   0  0  0  0  0  0
  -25.9287  -32.4612   23.8205 C   0  0  1  0  0  0
  -27.2185  -26.9804   20.1588 C   0  0  0  0  0  0
  -25.5990  -33.8437   24.2118 N   0  0  0  0  0  0
  -23.4711  -30.4438   21.5242 C   0  0  2  0  0  0
  -24.9236  -28.8459   20.1091 C   0  0  0  0  0  0
  -22.7646  -29.4473   22.4810 C   0  0  0  0  0  0
  -18.0314  -28.1421   22.8465 C   0  0  0  0  0  0
  -24.1488  -36.7211   23.2645 C   0  0  0  0  0  0
  -26.0394  -30.6520   21.3970 C   0  0  0  0  0  0
  -26.1087  -29.2481   20.7393 C   0  0  0  0  0  0
  -27.2507  -28.3343   20.7453 C   0  0  0  0  0  0
  -26.0042  -26.7269   19.4786 C   0  0  0  0  0  0
  -24.8940  -27.6030   19.4622 C   0  0  0  0  0  0
  -23.7067  -29.7653   20.1488 C   0  0  0  0  0  0
  -25.4125  -36.2985   24.0308 C   0  0  1  0  0  0
  -20.5937  -28.3744   23.1218 C   0  0  2  0  0  0
  -20.6797  -26.9440   22.5424 C   0  0  0  0  0  0
  -19.5771  -26.6385   21.5229 C   0  0  0  0  0  0
  -18.1947  -26.7959   22.1619 C   0  0  0  0  0  0
  -19.1577  -28.8902   23.2834 C   0  0  0  0  0  0
  -18.9489  -30.1490   23.8867 C   0  0  0  0  0  0
  -17.6481  -30.6612   24.0552 C   0  0  0  0  0  0
  -25.9099  -34.9364   23.5026 C   0  0  0  0  0  0
  -16.5372  -29.9098   23.6348 C   0  0  0  0  0  0
  -16.7296  -28.6516   23.0362 C   0  0  0  0  0  0
  -26.4569  -31.6535   25.0688 C   0  0  0  0  0  0
  -25.3713  -31.3763   26.1351 C   0  0  0  0  0  0
  -27.0447  -30.2919   24.6345 C   0  0  0  0  0  0
  -27.6110  -32.4310   25.7469 C   0  0  0  0  0  0
  -27.5584  -37.1736   24.8448 C   0  0  0  0  0  0
  -21.4317  -29.3047   22.3564 N   0  0  0  0  0  0
  -26.4258  -37.3730   23.9440 N   0  0  0  0  0  0
  -24.7446  -30.9990   22.0865 N   0  0  0  0  0  0
  -23.4206  -28.8036   23.3038 O   0  0  0  0  0  0
  -28.2121  -25.8799   20.2318 O   0  0  0  0  0  0
  -26.5700  -34.8877   22.4616 O   0  0  0  0  0  0
  -23.5666  -32.1247   23.6859 O   0  0  0  0  0  0
  -29.5179  -20.5094   19.1564 C   0  0  0  0  0  0
  -28.5276  -21.8826   21.2913 C   0  0  0  0  0  0
  -29.1268  -21.9398   19.0614 C   0  0  0  0  0  0
  -28.9206  -20.4485   21.3844 C   0  0  0  0  0  0
  -29.4454  -19.6169   20.3036 C   0  0  0  0  0  0
  -28.5985  -22.7722   20.1401 C   0  0  0  0  0  0
  -29.2615  -22.5816   17.6885 C   0  0  0  0  0  0
  -28.7790  -19.7983   22.7491 C   0  0  0  0  0  0
  -30.1903  -18.0464   20.3866 C   0  0  0  0  0  0
  -27.8317  -24.3230   19.9721 C   0  0  0  0  0  0
  -29.7453  -16.4638   20.4484 N   0  0  0  0  0  0
  -31.4603  -12.9488   19.1889 H   0  0  0  0  0  0
  -30.4900  -11.8490   20.1207 H   0  0  0  0  0  0
  -29.8976  -11.7262   17.6759 H   0  0  0  0  0  0
  -29.5751  -13.4422   17.6467 H   0  0  0  0  0  0
  -28.0187  -11.2708   19.0757 H   0  0  0  0  0  0
  -27.4064  -12.3509   17.8502 H   0  0  0  0  0  0
  -27.5356  -14.2416   19.3342 H   0  0  0  0  0  0
  -28.7989  -12.4872   21.4902 H   0  0  0  0  0  0
  -28.3026  -14.1520   21.6906 H   0  0  0  0  0  0
  -25.2796   -9.5660   22.4754 H   0  0  0  0  0  0
  -23.9996   -7.4635   22.7487 H   0  0  0  0  0  0
  -21.0866   -8.8787   19.8949 H   0  0  0  0  0  0
  -22.3751  -10.9666   19.6147 H   0  0  0  0  0  0
  -21.2018   -7.6146   23.9708 H   0  0  0  0  0  0
  -21.1480   -6.0514   25.9062 H   0  0  0  0  0  0
  -22.0609   -2.7611   23.2821 H   0  0  0  0  0  0
  -22.4058  -11.9832   22.4820 H   0  0  0  0  0  0
  -21.1035  -13.1166   22.2661 H   0  0  0  0  0  0
  -24.6354  -15.8500   20.5377 H   0  0  0  0  0  0
  -26.2447  -15.6409   20.0721 H   0  0  0  0  0  0
  -26.7338  -32.5160   23.0906 H   0  0  0  0  0  0
  -25.0127  -33.9548   25.0251 H   0  0  0  0  0  0
  -22.7828  -31.2747   21.3560 H   0  0  0  0  0  0
  -23.3781  -35.9516   23.3239 H   0  0  0  0  0  0
  -24.3598  -36.8914   22.2079 H   0  0  0  0  0  0
  -23.7193  -37.6362   23.6730 H   0  0  0  0  0  0
  -26.2081  -31.3949   20.6156 H   0  0  0  0  0  0
  -26.9062  -30.7132   22.0435 H   0  0  0  0  0  0
  -28.1429  -28.6359   21.2743 H   0  0  0  0  0  0
  -25.8673  -25.7840   18.9714 H   0  0  0  0  0  0
  -23.9946  -27.2887   18.9525 H   0  0  0  0  0  0
  -23.8527  -30.5348   19.3905 H   0  0  0  0  0  0
  -22.8188  -29.2161   19.8335 H   0  0  0  0  0  0
  -25.1308  -36.1791   25.0800 H   0  0  0  0  0  0
  -21.0013  -28.3329   24.1346 H   0  0  0  0  0  0
  -20.5694  -26.2366   23.3646 H   0  0  0  0  0  0
  -21.6660  -26.7441   22.1217 H   0  0  0  0  0  0
  -19.6952  -25.6295   21.1277 H   0  0  0  0  0  0
  -19.6726  -27.3176   20.6747 H   0  0  0  0  0  0
  -17.4231  -26.6714   21.3994 H   0  0  0  0  0  0
  -18.0309  -26.0117   22.9020 H   0  0  0  0  0  0
  -19.7964  -30.7315   24.2219 H   0  0  0  0  0  0
  -17.5035  -31.6283   24.5164 H   0  0  0  0  0  0
  -15.5370  -30.2988   23.7702 H   0  0  0  0  0  0
  -15.8683  -28.0820   22.7118 H   0  0  0  0  0  0
  -24.5966  -30.7021   25.7663 H   0  0  0  0  0  0
  -24.8812  -32.2948   26.4608 H   0  0  0  0  0  0
  -25.7964  -30.9074   27.0227 H   0  0  0  0  0  0
  -26.3091  -29.6617   24.1325 H   0  0  0  0  0  0
  -27.4006  -29.7257   25.4961 H   0  0  0  0  0  0
  -27.9015  -30.4146   23.9713 H   0  0  0  0  0  0
  -27.2754  -33.3698   26.1890 H   0  0  0  0  0  0
  -28.3988  -32.6716   25.0308 H   0  0  0  0  0  0
  -28.0679  -31.8509   26.5491 H   0  0  0  0  0  0
  -28.2510  -38.0121   24.7627 H   0  0  0  0  0  0
  -28.1166  -36.2667   24.6094 H   0  0  0  0  0  0
  -27.2334  -37.1144   25.8849 H   0  0  0  0  0  0
  -20.9558  -29.8730   21.6692 H   0  0  0  0  0  0
  -26.0103  -38.2766   24.1553 H   0  0  0  0  0  0
  -29.9305  -20.0651   18.2612 H   0  0  0  0  0  0
  -28.1096  -22.3284   22.1837 H   0  0  0  0  0  0
  -29.8614  -21.9713   17.0113 H   0  0  0  0  0  0
  -29.7451  -23.5565   17.7593 H   0  0  0  0  0  0
  -28.2818  -22.7153   17.2286 H   0  0  0  0  0  0
  -28.0560  -20.3323   23.3679 H   0  0  0  0  0  0
  -29.7343  -19.8018   23.2750 H   0  0  0  0  0  0
  -28.4380  -18.7665   22.6599 H   0  0  0  0  0  0
  -30.8378  -18.1411   21.2581 H   0  0  0  0  0  0
  -30.8933  -18.0654   19.5527 H   0  0  0  0  0  0
  -26.8997  -24.1905   20.5228 H   0  0  0  0  0  0
  -27.5208  -24.3213   18.9286 H   0  0  0  0  0  0
  -28.7500  -16.3314   20.5552 H   0  0  0  0  0  0
  1 25  1  0  0  0
  1 30  2  0  0  0
  1 81  1  0  0  0
  2  3  1  0  0  0
  2 25  1  0  0  0
  2 82  1  0  0  0
  2 83  1  0  0  0
  3  4  1  0  0  0
  3 84  1  0  0  0
  3 85  1  0  0  0
  4  5  1  0  0  0
  4 86  1  0  0  0
  4 87  1  0  0  0
  5  6  1  0  0  0
  5 26  1  0  0  0
  5 88  1  0  0  0
  6 25  1  0  0  0
  6 89  1  0  0  0
  6 90  1  0  0  0
  7  8  2  0  0  0
  7 26  1  0  0  0
  7 29  1  0  0  0
  8  9  1  0  0  0
  8 22  1  0  0  0
  9 10  1  0  0  0
  9 27  2  0  0  0
 10 11  2  0  0  0
 10 15  1  0  0  0
 11 12  1  0  0  0
 11 91  1  0  0  0
 12 13  2  0  0  0
 12 92  1  0  0  0
 13 14  1  0  0  0
 13 31  1  0  0  0
 14 15  2  0  0  0
 14 93  1  0  0  0
 15 94  1  0  0  0
 16 17  2  0  0  0
 16 21  1  0  0  0
 16 31  1  0  0  0
 17 18  1  0  0  0
 17 95  1  0  0  0
 18 19  2  0  0  0
 18 96  1  0  0  0
 19 20  1  0  0  0
 19 24  1  0  0  0
 20 21  2  0  0  0
 20 97  1  0  0  0
 21 23  1  0  0  0
 22 28  1  0  0  0
 22 32  2  0  0  0
 26 27  1  0  0  0
 28 98  1  0  0  0
 28 99  1  0  0  0
 29100  1  0  0  0
 29101  1  0  0  0
 33 34  1  0  0  0
 33 66  1  0  0  0
 33 70  2  0  0  0
 34 36  1  0  0  0
 34 59  1  0  0  0
 34102  1  0  0  0
 35 44  2  0  0  0
 35 45  1  0  0  0
 35 68  1  0  0  0
 36 56  1  0  0  0
 36103  1  0  0  0
 37 39  1  0  0  0
 37 47  1  0  0  0
 37 66  1  0  0  0
 37104  1  0  0  0
 38 43  2  0  0  0
 38 46  1  0  0  0
 38 47  1  0  0  0
 39 64  1  0  0  0
 39 67  2  0  0  0
 40 52  1  0  0  0
 40 53  2  0  0  0
 40 58  1  0  0  0
 41105  1  0  0  0
 41106  1  0  0  0
 41107  1  0  0  0
 41 48  1  0  0  0
 42 43  1  0  0  0
 42 66  1  0  0  0
 42108  1  0  0  0
 42109  1  0  0  0
 43 44  1  0  0  0
 44110  1  0  0  0
 45 46  2  0  0  0
 45111  1  0  0  0
 46112  1  0  0  0
 47113  1  0  0  0
 47114  1  0  0  0
 48 56  1  0  0  0
 48 65  1  0  0  0
 48115  1  0  0  0
 49 50  1  0  0  0
 49 53  1  0  0  0
 49 64  1  0  0  0
 49116  1  0  0  0
 50 51  1  0  0  0
 50117  1  0  0  0
 50118  1  0  0  0
 51 52  1  0  0  0
 51119  1  0  0  0
 51120  1  0  0  0
 52121  1  0  0  0
 52122  1  0  0  0
 53 54  1  0  0  0
 54 55  2  0  0  0
 54123  1  0  0  0
 55 57  1  0  0  0
 55124  1  0  0  0
 56 69  2  0  0  0
 57 58  2  0  0  0
 57125  1  0  0  0
 58126  1  0  0  0
 59 60  1  0  0  0
 59 61  1  0  0  0
 59 62  1  0  0  0
 60127  1  0  0  0
 60128  1  0  0  0
 60129  1  0  0  0
 61130  1  0  0  0
 61131  1  0  0  0
 61132  1  0  0  0
 62133  1  0  0  0
 62134  1  0  0  0
 62135  1  0  0  0
 63 65  1  0  0  0
 63136  1  0  0  0
 63137  1  0  0  0
 63138  1  0  0  0
 64139  1  0  0  0
 65140  1  0  0  0
 68 80  1  0  0  0
 71 73  2  0  0  0
 71 75  1  0  0  0
 71141  1  0  0  0
 72 74  1  0  0  0
 72 76  2  0  0  0
 72142  1  0  0  0
 73 76  1  0  0  0
 73 77  1  0  0  0
 74 75  2  0  0  0
 74 78  1  0  0  0
 75 79  1  0  0  0
 76 80  1  0  0  0
 77143  1  0  0  0
 77144  1  0  0  0
 77145  1  0  0  0
 78146  1  0  0  0
 78147  1  0  0  0
 78148  1  0  0  0
 79 81  1  0  0  0
 79149  1  0  0  0
 79150  1  0  0  0
 80151  1  0  0  0
 80152  1  0  0  0
 81153  1  0  0  0
M  ISO  4   1 100  68 101  80 101  81 100
M  END
> <chiral flag>
0

> <version>
0

> <s_m_source_file>
/data/baiqing/PycharmProjects/Reinvent-master-3.2/result/LINK_invent/BTK/process_docking_weight1_custom_sum_contain_oxygen_bond_distance_aromatic_linkinvent_7_9_3/rearranged_h_0106.sdf

> <i_m_source_file_index>
24

> <r_mmod_Potential_Energy-OPLS-2005>
1016.04241943359

> <r_mmod_Stretch_Energy-OPLS-2005>
449.231567382812

> <r_mmod_Bend_Energy-OPLS-2005>
407.587249755859

> <r_mmod_Torsional_Energy-OPLS-2005>
228.287170410156

> <r_mmod_Improper_Torsional_Energy-OPLS-2005>
9.82418441772461

> <r_mmod_Van_der_Waal_Energy-OPLS-2005>
132.39518737793

> <r_mmod_Electrostatic_Energy-OPLS-2005>
-387.583984375

> <r_mmod_Solvation_Energy-OPLS-2005>
-210.972778320312

> <b_mmod_Minimization_Converged-OPLS-2005>
0

> <r_mmod_RMS_Derivative-OPLS-2005>
2.38308024406433

$$$$
24
                    3D
 Structure written by MMmdl.
183191  0  0  1  0            999 V2000
  -30.7321  -14.4619   20.3939 C   0  0  0  0  0  0
  -30.4257  -12.2566   19.4109 C   0  0  0  0  0  0
  -29.4864  -12.3881   18.1962 C   0  0  0  0  0  0
  -28.0095  -12.2965   18.6350 C   0  0  0  0  0  0
  -27.6556  -13.2019   19.8488 C   0  0  2  0  0  0
  -28.7175  -13.0680   20.9637 C   0  0  0  0  0  0
  -25.2606  -13.8158   20.5715 C   0  0  0  0  0  0
  -24.1845  -13.0455   20.9173 C   0  0  0  0  0  0
  -24.6368  -11.6910   20.8745 C   0  0  0  0  0  0
  -23.9027  -10.4303   21.0403 C   0  0  0  0  0  0
  -24.3595   -9.4218   21.9176 C   0  0  0  0  0  0
  -23.6290   -8.2243   22.0733 C   0  0  0  0  0  0
  -22.4267   -8.0269   21.3524 C   0  0  0  0  0  0
  -21.9886   -9.0248   20.4639 C   0  0  0  0  0  0
  -22.7197  -10.2139   20.3056 C   0  0  0  0  0  0
  -21.6859   -6.0729   22.5270 C   0  0  0  0  0  0
  -21.4027   -6.5633   23.8208 C   0  0  0  0  0  0
  -21.3673   -5.6786   24.9167 C   0  0  0  0  0  0
  -21.6055   -4.3048   24.7211 C   0  0  0  0  0  0
  -21.8829   -3.8138   23.4330 C   0  0  0  0  0  0
  -21.9185   -4.6958   22.3384 C   0  0  0  0  0  0
  -22.7873  -13.5265   21.1807 C   0  0  0  0  0  0
  -22.1645   -4.2153   21.0961 F   0  0  0  0  0  0
  -21.5634   -3.4518   25.7715 F   0  0  0  0  0  0
  -30.0386  -13.2996   20.3634 N   0  0  0  0  0  0
  -26.3036  -12.9324   20.3370 N   0  0  0  0  0  0
  -25.9304  -11.6490   20.5812 N   0  0  0  0  0  0
  -22.0479  -12.8308   22.0357 N   0  0  0  0  0  0
  -25.4343  -15.1872   20.4194 N   0  0  0  0  0  0
  -31.9600  -14.5110   20.2970 O   0  0  0  0  0  0
  -21.6637   -6.8860   21.4225 O   0  0  0  0  0  0
  -22.3575  -14.5555   20.6600 O   0  0  0  0  0  0
  -24.6091  -31.8705   23.2131 C   0  0  0  0  0  0
  -25.8996  -32.4843   23.8426 C   0  0  1  0  0  0
  -27.2323  -27.4679   20.0954 C   0  0  0  0  0  0
  -25.5878  -33.8643   24.2359 N   0  0  0  0  0  0
  -23.3961  -30.4936   21.5519 C   0  0  2  0  0  0
  -24.8435  -28.9601   20.1182 C   0  0  0  0  0  0
  -22.7383  -29.4663   22.5013 C   0  0  0  0  0  0
  -18.0287  -28.1367   22.8473 C   0  0  0  0  0  0
  -24.1493  -36.7317   23.2631 C   0  0  0  0  0  0
  -25.9205  -30.8449   21.3618 C   0  0  0  0  0  0
  -25.9992  -29.4773   20.7181 C   0  0  0  0  0  0
  -27.1986  -28.7352   20.7093 C   0  0  0  0  0  0
  -26.0709  -26.9610   19.4778 C   0  0  0  0  0  0
  -24.8720  -27.6994   19.4963 C   0  0  0  0  0  0
  -23.6055  -29.8250   20.1666 C   0  0  0  0  0  0
  -25.4104  -36.3126   24.0346 C   0  0  1  0  0  0
  -20.5866  -28.3643   23.1325 C   0  0  2  0  0  0
  -20.6760  -26.9401   22.5379 C   0  0  0  0  0  0
  -19.5762  -26.6446   21.5129 C   0  0  0  0  0  0
  -18.1925  -26.7955   22.1516 C   0  0  0  0  0  0
  -19.1525  -28.8812   23.2920 C   0  0  0  0  0  0
  -18.9451  -30.1414   23.8962 C   0  0  0  0  0  0
  -17.6448  -30.6555   24.0592 C   0  0  0  0  0  0
  -25.9012  -34.9480   23.5151 C   0  0  0  0  0  0
  -16.5341  -29.9078   23.6321 C   0  0  0  0  0  0
  -16.7270  -28.6495   23.0323 C   0  0  0  0  0  0
  -26.4445  -31.6598   25.0729 C   0  0  0  0  0  0
  -25.3738  -31.3676   26.1502 C   0  0  0  0  0  0
  -27.0255  -30.3059   24.6020 C   0  0  0  0  0  0
  -27.6041  -32.4305   25.7469 C   0  0  0  0  0  0
  -27.5584  -37.1826   24.8464 C   0  0  0  0  0  0
  -21.4124  -29.3028   22.3759 N   0  0  0  0  0  0
  -26.4297  -37.3802   23.9409 N   0  0  0  0  0  0
  -24.6595  -31.0838   22.1020 N   0  0  0  0  0  0
  -23.4180  -28.8190   23.3020 O   0  0  0  0  0  0
  -28.4024  -26.7529   20.0588 O   0  0  0  0  0  0
  -26.5574  -34.8926   22.4706 O   0  0  0  0  0  0
  -23.5292  -32.1443   23.7547 O   0  0  0  0  0  0
  -26.5845  -19.7084   19.4255 C   0  0  0  0  0  0
  -25.1030  -21.5804   18.3902 C   0  0  0  0  0  0
  -25.5164  -22.8965   19.0950 C   0  0  0  0  0  0
  -25.2173  -21.9071   21.3490 C   0  0  0  0  0  0
  -25.1675  -20.3237   19.2999 C   0  0  2  0  0  0
  -24.5099  -20.7008   20.6630 C   0  0  2  0  0  0
  -27.3499  -19.5942   18.1101 C   0  0  0  0  0  0
  -22.9913  -20.9528   20.5339 C   0  0  0  0  0  0
  -31.2388  -17.3061   18.5164 C   0  0  0  0  0  0
  -29.2493  -16.0265   17.5472 C   0  0  0  0  0  0
  -28.2803  -17.2050   20.6485 C   0  0  0  0  0  0
  -28.0006  -24.3587   20.4679 C   0  0  0  0  0  0
  -28.3385  -18.7424   20.7613 C   0  0  0  0  0  0
  -29.6550  -16.5515   20.9067 C   0  0  0  0  0  0
  -26.6483  -23.9126   21.0666 C   0  0  0  0  0  0
  -28.4985  -25.7075   21.0248 C   0  0  0  0  0  0
  -30.4182  -15.9990   18.5506 C   0  0  0  0  0  0
  -27.0277  -19.3458   20.5704 N   0  0  0  0  0  0
  -30.0267  -15.5201   19.9185 N   0  0  0  0  0  0
  -26.1159  -22.6737   20.4402 N   0  3  2  0  0  0
  -30.3277  -11.2714   19.8698 H   0  0  0  0  0  0
  -31.4668  -12.3448   19.0873 H   0  0  0  0  0  0
  -29.6968  -11.5931   17.4779 H   0  0  0  0  0  0
  -29.6830  -13.3121   17.6614 H   0  0  0  0  0  0
  -27.8355  -11.2538   18.9044 H   0  0  0  0  0  0
  -27.3422  -12.4985   17.7956 H   0  0  0  0  0  0
  -27.6690  -14.2296   19.4900 H   0  0  0  0  0  0
  -28.6812  -12.0751   21.4138 H   0  0  0  0  0  0
  -28.5313  -13.7819   21.7670 H   0  0  0  0  0  0
  -25.2741   -9.5724   22.4751 H   0  0  0  0  0  0
  -24.0001   -7.4649   22.7462 H   0  0  0  0  0  0
  -21.0796   -8.8771   19.8970 H   0  0  0  0  0  0
  -22.3627  -10.9675   19.6177 H   0  0  0  0  0  0
  -21.2028   -7.6147   23.9727 H   0  0  0  0  0  0
  -21.1486   -6.0495   25.9079 H   0  0  0  0  0  0
  -22.0587   -2.7595   23.2810 H   0  0  0  0  0  0
  -22.4044  -11.9988   22.4836 H   0  0  0  0  0  0
  -21.1094  -13.1401   22.2471 H   0  0  0  0  0  0
  -24.6894  -15.8508   20.5941 H   0  0  0  0  0  0
  -26.3192  -15.6270   20.2074 H   0  0  0  0  0  0
  -26.7056  -32.5584   23.1191 H   0  0  0  0  0  0
  -25.0054  -33.9825   25.0519 H   0  0  0  0  0  0
  -22.6856  -31.3107   21.4120 H   0  0  0  0  0  0
  -23.3750  -35.9655   23.3297 H   0  0  0  0  0  0
  -24.3580  -36.8915   22.2044 H   0  0  0  0  0  0
  -23.7253  -37.6537   23.6622 H   0  0  0  0  0  0
  -26.0169  -31.6059   20.5873 H   0  0  0  0  0  0
  -26.8168  -30.9100   21.9688 H   0  0  0  0  0  0
  -28.0944  -29.1321   21.1682 H   0  0  0  0  0  0
  -26.0935  -26.0089   18.9701 H   0  0  0  0  0  0
  -23.9873  -27.3030   19.0149 H   0  0  0  0  0  0
  -22.7313  -29.2407   19.8725 H   0  0  0  0  0  0
  -23.7142  -30.5996   19.4064 H   0  0  0  0  0  0
  -25.1279  -36.2002   25.0844 H   0  0  0  0  0  0
  -20.9951  -28.3138   24.1441 H   0  0  0  0  0  0
  -20.5615  -26.2231   23.3526 H   0  0  0  0  0  0
  -21.6644  -26.7439   22.1195 H   0  0  0  0  0  0
  -19.6928  -25.6398   21.1065 H   0  0  0  0  0  0
  -19.6721  -27.3338   20.6720 H   0  0  0  0  0  0
  -17.4231  -26.6808   21.3875 H   0  0  0  0  0  0
  -18.0288  -26.0030   22.8832 H   0  0  0  0  0  0
  -19.7911  -30.7223   24.2364 H   0  0  0  0  0  0
  -17.4985  -31.6227   24.5222 H   0  0  0  0  0  0
  -15.5335  -30.2986   23.7602 H   0  0  0  0  0  0
  -15.8673  -28.0832   22.6984 H   0  0  0  0  0  0
  -24.5872  -30.7065   25.7829 H   0  0  0  0  0  0
  -24.8966  -32.2832   26.5020 H   0  0  0  0  0  0
  -25.8119  -30.8786   27.0209 H   0  0  0  0  0  0
  -26.2758  -29.6849   24.1107 H   0  0  0  0  0  0
  -27.4099  -29.7268   25.4421 H   0  0  0  0  0  0
  -27.8564  -30.4419   23.9090 H   0  0  0  0  0  0
  -27.2662  -33.3578   26.2106 H   0  0  0  0  0  0
  -28.3811  -32.6899   25.0265 H   0  0  0  0  0  0
  -28.0746  -31.8389   26.5333 H   0  0  0  0  0  0
  -28.2607  -38.0119   24.7495 H   0  0  0  0  0  0
  -28.1085  -36.2656   24.6304 H   0  0  0  0  0  0
  -27.2309  -37.1487   25.8871 H   0  0  0  0  0  0
  -20.9260  -29.8749   21.6998 H   0  0  0  0  0  0
  -26.0192  -38.2879   24.1425 H   0  0  0  0  0  0
  -25.6647  -21.4549   17.4647 H   0  0  0  0  0  0
  -24.0762  -21.7004   18.0389 H   0  0  0  0  0  0
  -24.6489  -23.5506   19.1982 H   0  0  0  0  0  0
  -26.2140  -23.4279   18.4502 H   0  0  0  0  0  0
  -25.8211  -21.5381   22.1799 H   0  0  0  0  0  0
  -24.4803  -22.5818   21.7897 H   0  0  0  0  0  0
  -24.5642  -19.5401   18.8384 H   0  0  0  0  0  0
  -24.5889  -19.8433   21.3344 H   0  0  0  0  0  0
  -26.6953  -19.2299   17.3178 H   0  0  0  0  0  0
  -28.1950  -18.9168   18.1606 H   0  0  0  0  0  0
  -27.7399  -20.5671   17.8107 H   0  0  0  0  0  0
  -22.5219  -21.0294   21.5165 H   0  0  0  0  0  0
  -22.4952  -20.1437   19.9982 H   0  0  0  0  0  0
  -22.7711  -21.8791   20.0024 H   0  0  0  0  0  0
  -32.1397  -17.2336   19.1293 H   0  0  0  0  0  0
  -31.5595  -17.5283   17.4978 H   0  0  0  0  0  0
  -30.6707  -18.1711   18.8529 H   0  0  0  0  0  0
  -28.5882  -15.1688   17.6365 H   0  0  0  0  0  0
  -29.6319  -16.0266   16.5246 H   0  0  0  0  0  0
  -28.6302  -16.9083   17.6431 H   0  0  0  0  0  0
  -27.5676  -16.8188   21.3768 H   0  0  0  0  0  0
  -27.8834  -16.9146   19.6797 H   0  0  0  0  0  0
  -27.9694  -24.4130   19.3788 H   0  0  0  0  0  0
  -28.7466  -23.5954   20.6945 H   0  0  0  0  0  0
  -29.0885  -19.1582   20.0876 H   0  0  0  0  0  0
  -28.6989  -19.0007   21.7568 H   0  0  0  0  0  0
  -30.4411  -17.3027   20.9762 H   0  0  0  0  0  0
  -29.6279  -16.1175   21.9093 H   0  0  0  0  0  0
  -25.9039  -24.7049   21.0042 H   0  0  0  0  0  0
  -26.8033  -23.7410   22.1335 H   0  0  0  0  0  0
  -29.5532  -25.6102   21.2850 H   0  0  0  0  0  0
  -27.9884  -25.9734   21.9530 H   0  0  0  0  0  0
  -31.0896  -15.2553   18.1103 H   0  0  0  0  0  0
  -26.9141  -22.0697   20.3104 H   0  0  0  0  0  0
  1 25  1  0  0  0
  1 30  2  0  0  0
  1 89  1  0  0  0
  2  3  1  0  0  0
  2 25  1  0  0  0
  2 91  1  0  0  0
  2 92  1  0  0  0
  3  4  1  0  0  0
  3 93  1  0  0  0
  3 94  1  0  0  0
  4  5  1  0  0  0
  4 95  1  0  0  0
  4 96  1  0  0  0
  5  6  1  0  0  0
  5 26  1  0  0  0
  5 97  1  0  0  0
  6 25  1  0  0  0
  6 98  1  0  0  0
  6 99  1  0  0  0
  7  8  2  0  0  0
  7 26  1  0  0  0
  7 29  1  0  0  0
  8  9  1  0  0  0
  8 22  1  0  0  0
  9 10  1  0  0  0
  9 27  2  0  0  0
 10 11  2  0  0  0
 10 15  1  0  0  0
 11 12  1  0  0  0
 11100  1  0  0  0
 12 13  2  0  0  0
 12101  1  0  0  0
 13 14  1  0  0  0
 13 31  1  0  0  0
 14 15  2  0  0  0
 14102  1  0  0  0
 15103  1  0  0  0
 16 17  2  0  0  0
 16 21  1  0  0  0
 16 31  1  0  0  0
 17 18  1  0  0  0
 17104  1  0  0  0
 18 19  2  0  0  0
 18105  1  0  0  0
 19 20  1  0  0  0
 19 24  1  0  0  0
 20 21  2  0  0  0
 20106  1  0  0  0
 21 23  1  0  0  0
 22 28  1  0  0  0
 22 32  2  0  0  0
 26 27  1  0  0  0
 28107  1  0  0  0
 28108  1  0  0  0
 29109  1  0  0  0
 29110  1  0  0  0
 33 34  1  0  0  0
 33 66  1  0  0  0
 33 70  2  0  0  0
 34 36  1  0  0  0
 34 59  1  0  0  0
 34111  1  0  0  0
 35 44  2  0  0  0
 35 45  1  0  0  0
 35 68  1  0  0  0
 36 56  1  0  0  0
 36112  1  0  0  0
 37 39  1  0  0  0
 37 47  1  0  0  0
 37 66  1  0  0  0
 37113  1  0  0  0
 38 43  2  0  0  0
 38 46  1  0  0  0
 38 47  1  0  0  0
 39 64  1  0  0  0
 39 67  2  0  0  0
 40 52  1  0  0  0
 40 53  2  0  0  0
 40 58  1  0  0  0
 41114  1  0  0  0
 41115  1  0  0  0
 41116  1  0  0  0
 41 48  1  0  0  0
 42 43  1  0  0  0
 42 66  1  0  0  0
 42117  1  0  0  0
 42118  1  0  0  0
 43 44  1  0  0  0
 44119  1  0  0  0
 45 46  2  0  0  0
 45120  1  0  0  0
 46121  1  0  0  0
 47122  1  0  0  0
 47123  1  0  0  0
 48 56  1  0  0  0
 48 65  1  0  0  0
 48124  1  0  0  0
 49 50  1  0  0  0
 49 53  1  0  0  0
 49 64  1  0  0  0
 49125  1  0  0  0
 50 51  1  0  0  0
 50126  1  0  0  0
 50127  1  0  0  0
 51 52  1  0  0  0
 51128  1  0  0  0
 51129  1  0  0  0
 52130  1  0  0  0
 52131  1  0  0  0
 53 54  1  0  0  0
 54 55  2  0  0  0
 54132  1  0  0  0
 55 57  1  0  0  0
 55133  1  0  0  0
 56 69  2  0  0  0
 57 58  2  0  0  0
 57134  1  0  0  0
 58135  1  0  0  0
 59 60  1  0  0  0
 59 61  1  0  0  0
 59 62  1  0  0  0
 60136  1  0  0  0
 60137  1  0  0  0
 60138  1  0  0  0
 61139  1  0  0  0
 61140  1  0  0  0
 61141  1  0  0  0
 62142  1  0  0  0
 62143  1  0  0  0
 62144  1  0  0  0
 63 65  1  0  0  0
 63145  1  0  0  0
 63146  1  0  0  0
 63147  1  0  0  0
 64148  1  0  0  0
 65149  1  0  0  0
 68 86  1  0  0  0
 71 77  1  0  0  0
 71 88  2  0  0  0
 71 75  1  0  0  0
 72 73  1  0  0  0
 72 75  1  0  0  0
 72150  1  0  0  0
 72151  1  0  0  0
 73 90  1  0  0  0
 73152  1  0  0  0
 73153  1  0  0  0
 74 76  1  0  0  0
 74 90  1  0  0  0
 74154  1  0  0  0
 74155  1  0  0  0
 75 76  1  0  0  0
 75156  1  0  0  0
 76 78  1  0  0  0
 76157  1  0  0  0
 77158  1  0  0  0
 77159  1  0  0  0
 77160  1  0  0  0
 78161  1  0  0  0
 78162  1  0  0  0
 78163  1  0  0  0
 79164  1  0  0  0
 79165  1  0  0  0
 79166  1  0  0  0
 79 87  1  0  0  0
 80 87  1  0  0  0
 80167  1  0  0  0
 80168  1  0  0  0
 80169  1  0  0  0
 81 83  1  0  0  0
 81 84  1  0  0  0
 81170  1  0  0  0
 81171  1  0  0  0
 82 85  1  0  0  0
 82 86  1  0  0  0
 82172  1  0  0  0
 82173  1  0  0  0
 83 88  1  0  0  0
 83174  1  0  0  0
 83175  1  0  0  0
 84 89  1  0  0  0
 84176  1  0  0  0
 84177  1  0  0  0
 85178  1  0  0  0
 85179  1  0  0  0
 85 90  1  0  0  0
 86180  1  0  0  0
 86181  1  0  0  0
 87 89  1  0  0  0
 87182  1  0  0  0
 90183  1  0  0  0
M  CHG  1  90   1
M  ISO  4   1 100  68 101  86 101  89 100
M  END
> <chiral flag>
0

> <version>
0

> <s_m_source_file>
/data/baiqing/PycharmProjects/Reinvent-master-3.2/result/LINK_invent/BTK/process_docking_weight1_custom_sum_contain_oxygen_bond_distance_aromatic_linkinvent_7_9_3/rearranged_h_0106.sdf

> <i_m_source_file_index>
25

> <r_mmod_Potential_Energy-OPLS-2005>
220.142547607422

> <r_mmod_Stretch_Energy-OPLS-2005>
44.0018157958984

> <r_mmod_Bend_Energy-OPLS-2005>
125.637428283691

> <r_mmod_Torsional_Energy-OPLS-2005>
450.470947265625

> <r_mmod_Improper_Torsional_Energy-OPLS-2005>
23.6574382781982

> <r_mmod_Van_der_Waal_Energy-OPLS-2005>
147.401351928711

> <r_mmod_Electrostatic_Energy-OPLS-2005>
-208.262649536133

> <r_mmod_Solvation_Energy-OPLS-2005>
-395.621154785156

> <b_mmod_Minimization_Converged-OPLS-2005>
0

> <r_mmod_RMS_Derivative-OPLS-2005>
3.56182765960693

$$$$
25
                    3D
 Structure written by MMmdl.
168176  0  0  1  0            999 V2000
  -30.6688  -14.5413   20.5345 C   0  0  0  0  0  0
  -30.4216  -12.3375   19.4322 C   0  0  0  0  0  0
  -29.4972  -12.4840   18.2056 C   0  0  0  0  0  0
  -28.0184  -12.3395   18.6148 C   0  0  0  0  0  0
  -27.6524  -13.2011   19.8518 C   0  0  2  0  0  0
  -28.6933  -13.0437   20.9832 C   0  0  0  0  0  0
  -25.2599  -13.8117   20.5557 C   0  0  0  0  0  0
  -24.1873  -13.0436   20.9084 C   0  0  0  0  0  0
  -24.6397  -11.6891   20.8754 C   0  0  0  0  0  0
  -23.9054  -10.4293   21.0440 C   0  0  0  0  0  0
  -24.3623   -9.4212   21.9230 C   0  0  0  0  0  0
  -23.6316   -8.2245   22.0795 C   0  0  0  0  0  0
  -22.4310   -8.0263   21.3564 C   0  0  0  0  0  0
  -21.9929   -9.0248   20.4683 C   0  0  0  0  0  0
  -22.7225  -10.2135   20.3085 C   0  0  0  0  0  0
  -21.6845   -6.0743   22.5272 C   0  0  0  0  0  0
  -21.4006   -6.5650   23.8196 C   0  0  0  0  0  0
  -21.3655   -5.6804   24.9163 C   0  0  0  0  0  0
  -21.6047   -4.3068   24.7217 C   0  0  0  0  0  0
  -21.8813   -3.8149   23.4340 C   0  0  0  0  0  0
  -21.9192   -4.6976   22.3395 C   0  0  0  0  0  0
  -22.7918  -13.5277   21.1692 C   0  0  0  0  0  0
  -22.1655   -4.2156   21.0978 F   0  0  0  0  0  0
  -21.5672   -3.4556   25.7746 F   0  0  0  0  0  0
  -30.0113  -13.3539   20.4162 N   0  0  0  0  0  0
  -26.3016  -12.9267   20.3283 N   0  0  0  0  0  0
  -25.9335  -11.6458   20.5836 N   0  0  0  0  0  0
  -22.0552  -12.8300   22.0225 N   0  0  0  0  0  0
  -25.4336  -15.1823   20.3815 N   0  0  0  0  0  0
  -31.8392  -14.6871   20.1772 O   0  0  0  0  0  0
  -21.6637   -6.8893   21.4232 O   0  0  0  0  0  0
  -22.3653  -14.5590   20.6527 O   0  0  0  0  0  0
  -24.6190  -31.8663   23.2121 C   0  0  0  0  0  0
  -25.9080  -32.4809   23.8407 C   0  0  1  0  0  0
  -27.2151  -27.3701   20.1017 C   0  0  0  0  0  0
  -25.5922  -33.8599   24.2323 N   0  0  0  0  0  0
  -23.4105  -30.4928   21.5515 C   0  0  2  0  0  0
  -24.8532  -28.9584   20.1061 C   0  0  0  0  0  0
  -22.7453  -29.4668   22.4975 C   0  0  0  0  0  0
  -18.0321  -28.1404   22.8443 C   0  0  0  0  0  0
  -24.1480  -36.7295   23.2642 C   0  0  0  0  0  0
  -25.9481  -30.8027   21.3861 C   0  0  0  0  0  0
  -26.0122  -29.4342   20.7319 C   0  0  0  0  0  0
  -27.1868  -28.6358   20.7440 C   0  0  0  0  0  0
  -26.0610  -26.9703   19.3976 C   0  0  0  0  0  0
  -24.8759  -27.7266   19.4347 C   0  0  0  0  0  0
  -23.6181  -29.8319   20.1621 C   0  0  0  0  0  0
  -25.4106  -36.3091   24.0333 C   0  0  1  0  0  0
  -20.5896  -28.3701   23.1329 C   0  0  2  0  0  0
  -20.6802  -26.9416   22.5479 C   0  0  0  0  0  0
  -19.5826  -26.6411   21.5207 C   0  0  0  0  0  0
  -18.1974  -26.7984   22.1517 C   0  0  0  0  0  0
  -19.1555  -28.8868   23.2888 C   0  0  0  0  0  0
  -18.9480  -30.1470   23.8918 C   0  0  0  0  0  0
  -17.6490  -30.6595   24.0588 C   0  0  0  0  0  0
  -25.9043  -34.9461   23.5137 C   0  0  0  0  0  0
  -16.5385  -29.9097   23.6309 C   0  0  0  0  0  0
  -16.7306  -28.6520   23.0316 C   0  0  0  0  0  0
  -26.4468  -31.6609   25.0769 C   0  0  0  0  0  0
  -25.3696  -31.3742   26.1488 C   0  0  0  0  0  0
  -27.0300  -30.3034   24.6227 C   0  0  0  0  0  0
  -27.6050  -32.4333   25.7510 C   0  0  0  0  0  0
  -27.5571  -37.1808   24.8462 C   0  0  0  0  0  0
  -21.4178  -29.3063   22.3712 N   0  0  0  0  0  0
  -26.4292  -37.3792   23.9393 N   0  0  0  0  0  0
  -24.6773  -31.0714   22.1062 N   0  0  0  0  0  0
  -23.4213  -28.8227   23.3043 O   0  0  0  0  0  0
  -28.3543  -26.5746   20.1868 O   0  0  0  0  0  0
  -26.5612  -34.8936   22.4695 O   0  0  0  0  0  0
  -23.5370  -32.1488   23.7462 O   0  0  0  0  0  0
  -25.9606  -22.5370   20.7678 C   0  0  0  0  0  0
  -26.8056  -21.5305   21.2522 C   0  0  0  0  0  0
  -26.4932  -23.7453   20.2841 C   0  0  0  0  0  0
  -28.7352  -22.9481   20.7761 C   0  0  0  0  0  0
  -28.2032  -21.7094   21.2669 C   0  0  0  0  0  0
  -27.8861  -23.9867   20.2643 C   0  0  0  0  0  0
  -31.3324  -19.6247   21.9856 C   0  0  0  0  0  0
  -27.5886  -18.5380   19.2277 C   0  0  0  0  0  0
  -29.8842  -18.5128   18.3234 C   0  0  0  0  0  0
  -29.0373  -20.6128   21.9696 C   0  0  0  0  0  0
  -28.4508  -25.2599   19.5547 C   0  0  0  0  0  0
  -30.4281  -16.9882   21.1539 C   0  0  0  0  0  0
  -30.0225  -19.6877   21.1589 C   0  0  2  0  0  0
  -29.4888  -18.2127   20.8064 C   0  0  2  0  0  0
  -29.9115  -15.6140   20.8879 N   0  0  0  0  0  0
  -28.9781  -18.0649   19.4114 N   0  3  0  0  0  0
  -31.4692  -12.4378   19.1418 H   0  0  0  0  0  0
  -30.3209  -11.3427   19.8663 H   0  0  0  0  0  0
  -29.7509  -11.7451   17.4437 H   0  0  0  0  0  0
  -29.6505  -13.4611   17.7449 H   0  0  0  0  0  0
  -27.8334  -11.2834   18.8139 H   0  0  0  0  0  0
  -27.3669  -12.5979   17.7794 H   0  0  0  0  0  0
  -27.6774  -14.2328   19.5063 H   0  0  0  0  0  0
  -28.6872  -12.0214   21.3602 H   0  0  0  0  0  0
  -28.4534  -13.6757   21.8398 H   0  0  0  0  0  0
  -25.2823   -9.5699   22.4743 H   0  0  0  0  0  0
  -24.0034   -7.4647   22.7530 H   0  0  0  0  0  0
  -21.0841   -8.8705   19.9056 H   0  0  0  0  0  0
  -22.3665  -10.9629   19.6160 H   0  0  0  0  0  0
  -21.1972   -7.6157   23.9675 H   0  0  0  0  0  0
  -21.1504   -6.0556   25.9063 H   0  0  0  0  0  0
  -22.0606   -2.7616   23.2808 H   0  0  0  0  0  0
  -22.4134  -11.9873   22.4488 H   0  0  0  0  0  0
  -21.1236  -13.1448   22.2566 H   0  0  0  0  0  0
  -24.6202  -15.7851   20.3078 H   0  0  0  0  0  0
  -26.2641  -15.5792   19.9678 H   0  0  0  0  0  0
  -26.7155  -32.5471   23.1153 H   0  0  0  0  0  0
  -25.0006  -33.9743   25.0427 H   0  0  0  0  0  0
  -22.7050  -31.3138   21.4146 H   0  0  0  0  0  0
  -23.3740  -35.9627   23.3324 H   0  0  0  0  0  0
  -24.3567  -36.8888   22.2051 H   0  0  0  0  0  0
  -23.7229  -37.6510   23.6649 H   0  0  0  0  0  0
  -26.0918  -31.5697   20.6229 H   0  0  0  0  0  0
  -26.8276  -30.8428   22.0164 H   0  0  0  0  0  0
  -28.0717  -28.9794   21.2615 H   0  0  0  0  0  0
  -26.0515  -26.0894   18.7798 H   0  0  0  0  0  0
  -24.0015  -27.3782   18.9020 H   0  0  0  0  0  0
  -23.7270  -30.6134   19.4084 H   0  0  0  0  0  0
  -22.7392  -29.2569   19.8605 H   0  0  0  0  0  0
  -25.1280  -36.1972   25.0830 H   0  0  0  0  0  0
  -21.0004  -28.3309   24.1445 H   0  0  0  0  0  0
  -20.5617  -26.2320   23.3677 H   0  0  0  0  0  0
  -21.6692  -26.7431   22.1348 H   0  0  0  0  0  0
  -19.7014  -25.6329   21.1234 H   0  0  0  0  0  0
  -19.6883  -27.3207   20.6749 H   0  0  0  0  0  0
  -17.4335  -26.6905   21.3808 H   0  0  0  0  0  0
  -18.0243  -26.0046   22.8812 H   0  0  0  0  0  0
  -19.7962  -30.7258   24.2331 H   0  0  0  0  0  0
  -17.5038  -31.6269   24.5207 H   0  0  0  0  0  0
  -15.5384  -30.3012   23.7644 H   0  0  0  0  0  0
  -15.8688  -28.0863   22.7026 H   0  0  0  0  0  0
  -24.5864  -30.7103   25.7815 H   0  0  0  0  0  0
  -24.8872  -32.2892   26.4943 H   0  0  0  0  0  0
  -25.7991  -30.8899   27.0261 H   0  0  0  0  0  0
  -26.2874  -29.6811   24.1221 H   0  0  0  0  0  0
  -27.3951  -29.7279   25.4748 H   0  0  0  0  0  0
  -27.8775  -30.4313   23.9487 H   0  0  0  0  0  0
  -27.2697  -33.3655   26.2069 H   0  0  0  0  0  0
  -28.3851  -32.6851   25.0313 H   0  0  0  0  0  0
  -28.0723  -31.8460   26.5427 H   0  0  0  0  0  0
  -28.2618  -38.0092   24.7499 H   0  0  0  0  0  0
  -28.1050  -36.2613   24.6298 H   0  0  0  0  0  0
  -27.2287  -37.1465   25.8878 H   0  0  0  0  0  0
  -20.9379  -29.8743   21.6862 H   0  0  0  0  0  0
  -26.0179  -38.2875   24.1389 H   0  0  0  0  0  0
  -24.8917  -22.3750   20.7646 H   0  0  0  0  0  0
  -26.3647  -20.6212   21.6371 H   0  0  0  0  0  0
  -25.7879  -24.4543   19.8977 H   0  0  0  0  0  0
  -29.8061  -23.0993   20.7948 H   0  0  0  0  0  0
  -32.0967  -18.9983   21.5281 H   0  0  0  0  0  0
  -31.1456  -19.2397   22.9909 H   0  0  0  0  0  0
  -31.7883  -20.6071   22.1096 H   0  0  0  0  0  0
  -27.2282  -18.3270   18.2193 H   0  0  0  0  0  0
  -27.5257  -19.6118   19.3860 H   0  0  0  0  0  0
  -26.9041  -18.0492   19.9246 H   0  0  0  0  0  0
  -29.4921  -18.1885   17.3597 H   0  0  0  0  0  0
  -30.8809  -18.0793   18.4165 H   0  0  0  0  0  0
  -29.9868  -19.5978   18.2564 H   0  0  0  0  0  0
  -28.3736  -19.9829   22.5640 H   0  0  0  0  0  0
  -29.5990  -21.1610   22.7275 H   0  0  0  0  0  0
  -28.0680  -25.3060   18.5339 H   0  0  0  0  0  0
  -29.5162  -25.0836   19.4162 H   0  0  0  0  0  0
  -31.4005  -17.1173   20.6754 H   0  0  0  0  0  0
  -30.6173  -17.0121   22.2258 H   0  0  0  0  0  0
  -30.2962  -20.2381   20.2641 H   0  0  0  0  0  0
  -28.6268  -18.0448   21.4495 H   0  0  0  0  0  0
  -28.9507  -15.4177   21.1272 H   0  0  0  0  0  0
  -28.9269  -17.0638   19.2995 H   0  0  0  0  0  0
  1 25  1  0  0  0
  1 30  2  0  0  0
  1 85  1  0  0  0
  2  3  1  0  0  0
  2 25  1  0  0  0
  2 87  1  0  0  0
  2 88  1  0  0  0
  3  4  1  0  0  0
  3 89  1  0  0  0
  3 90  1  0  0  0
  4  5  1  0  0  0
  4 91  1  0  0  0
  4 92  1  0  0  0
  5  6  1  0  0  0
  5 26  1  0  0  0
  5 93  1  0  0  0
  6 25  1  0  0  0
  6 94  1  0  0  0
  6 95  1  0  0  0
  7  8  2  0  0  0
  7 26  1  0  0  0
  7 29  1  0  0  0
  8  9  1  0  0  0
  8 22  1  0  0  0
  9 10  1  0  0  0
  9 27  2  0  0  0
 10 11  2  0  0  0
 10 15  1  0  0  0
 11 12  1  0  0  0
 11 96  1  0  0  0
 12 13  2  0  0  0
 12 97  1  0  0  0
 13 14  1  0  0  0
 13 31  1  0  0  0
 14 15  2  0  0  0
 14 98  1  0  0  0
 15 99  1  0  0  0
 16 17  2  0  0  0
 16 21  1  0  0  0
 16 31  1  0  0  0
 17 18  1  0  0  0
 17100  1  0  0  0
 18 19  2  0  0  0
 18101  1  0  0  0
 19 20  1  0  0  0
 19 24  1  0  0  0
 20 21  2  0  0  0
 20102  1  0  0  0
 21 23  1  0  0  0
 22 28  1  0  0  0
 22 32  2  0  0  0
 26 27  1  0  0  0
 28103  1  0  0  0
 28104  1  0  0  0
 29105  1  0  0  0
 29106  1  0  0  0
 33 34  1  0  0  0
 33 66  1  0  0  0
 33 70  2  0  0  0
 34 36  1  0  0  0
 34 59  1  0  0  0
 34107  1  0  0  0
 35 44  2  0  0  0
 35 45  1  0  0  0
 35 68  1  0  0  0
 36 56  1  0  0  0
 36108  1  0  0  0
 37 39  1  0  0  0
 37 47  1  0  0  0
 37 66  1  0  0  0
 37109  1  0  0  0
 38 43  2  0  0  0
 38 46  1  0  0  0
 38 47  1  0  0  0
 39 64  1  0  0  0
 39 67  2  0  0  0
 40 52  1  0  0  0
 40 53  2  0  0  0
 40 58  1  0  0  0
 41110  1  0  0  0
 41111  1  0  0  0
 41112  1  0  0  0
 41 48  1  0  0  0
 42 43  1  0  0  0
 42 66  1  0  0  0
 42113  1  0  0  0
 42114  1  0  0  0
 43 44  1  0  0  0
 44115  1  0  0  0
 45 46  2  0  0  0
 45116  1  0  0  0
 46117  1  0  0  0
 47118  1  0  0  0
 47119  1  0  0  0
 48 56  1  0  0  0
 48 65  1  0  0  0
 48120  1  0  0  0
 49 50  1  0  0  0
 49 53  1  0  0  0
 49 64  1  0  0  0
 49121  1  0  0  0
 50 51  1  0  0  0
 50122  1  0  0  0
 50123  1  0  0  0
 51 52  1  0  0  0
 51124  1  0  0  0
 51125  1  0  0  0
 52126  1  0  0  0
 52127  1  0  0  0
 53 54  1  0  0  0
 54 55  2  0  0  0
 54128  1  0  0  0
 55 57  1  0  0  0
 55129  1  0  0  0
 56 69  2  0  0  0
 57 58  2  0  0  0
 57130  1  0  0  0
 58131  1  0  0  0
 59 60  1  0  0  0
 59 61  1  0  0  0
 59 62  1  0  0  0
 60132  1  0  0  0
 60133  1  0  0  0
 60134  1  0  0  0
 61135  1  0  0  0
 61136  1  0  0  0
 61137  1  0  0  0
 62138  1  0  0  0
 62139  1  0  0  0
 62140  1  0  0  0
 63 65  1  0  0  0
 63141  1  0  0  0
 63142  1  0  0  0
 63143  1  0  0  0
 64144  1  0  0  0
 65145  1  0  0  0
 68 81  1  0  0  0
 71 72  2  0  0  0
 71 73  1  0  0  0
 71146  1  0  0  0
 72 75  1  0  0  0
 72147  1  0  0  0
 73 76  2  0  0  0
 73148  1  0  0  0
 74 75  2  0  0  0
 74 76  1  0  0  0
 74149  1  0  0  0
 75 80  1  0  0  0
 76 81  1  0  0  0
 77150  1  0  0  0
 77151  1  0  0  0
 77152  1  0  0  0
 77 83  1  0  0  0
 78153  1  0  0  0
 78154  1  0  0  0
 78155  1  0  0  0
 78 86  1  0  0  0
 79 86  1  0  0  0
 79156  1  0  0  0
 79157  1  0  0  0
 79158  1  0  0  0
 80 83  1  0  0  0
 80159  1  0  0  0
 80160  1  0  0  0
 81161  1  0  0  0
 81162  1  0  0  0
 82 85  1  0  0  0
 82163  1  0  0  0
 82164  1  0  0  0
 82 84  1  0  0  0
 83 84  1  0  0  0
 83165  1  0  0  0
 84 86  1  0  0  0
 84166  1  0  0  0
 85167  1  0  0  0
 86168  1  0  0  0
M  CHG  1  86   1
M  ISO  4   1 100  68 101  81 101  85 100
M  END
> <chiral flag>
0

> <version>
0

> <s_m_source_file>
/data/baiqing/PycharmProjects/Reinvent-master-3.2/result/LINK_invent/BTK/process_docking_weight1_custom_sum_contain_oxygen_bond_distance_aromatic_linkinvent_7_9_3/rearranged_h_0106.sdf

> <i_m_source_file_index>
26

> <r_mmod_Potential_Energy-OPLS-2005>
-37.2126617431641

> <r_mmod_Stretch_Energy-OPLS-2005>
64.2977828979492

> <r_mmod_Bend_Energy-OPLS-2005>
147.342956542969

> <r_mmod_Torsional_Energy-OPLS-2005>
278.430511474609

> <r_mmod_Improper_Torsional_Energy-OPLS-2005>
6.76059675216675

> <r_mmod_Van_der_Waal_Energy-OPLS-2005>
152.206802368164

> <r_mmod_Electrostatic_Energy-OPLS-2005>
-267.792633056641

> <r_mmod_Solvation_Energy-OPLS-2005>
-450.365417480469

> <b_mmod_Minimization_Converged-OPLS-2005>
0

> <r_mmod_RMS_Derivative-OPLS-2005>
5.57944345474243

$$$$
26
                    3D
 Structure written by MMmdl.
162169  0  0  1  0            999 V2000
  -30.6704  -14.5415   20.5119 C   0  0  0  0  0  0
  -30.4192  -12.3248   19.4547 C   0  0  0  0  0  0
  -29.5015  -12.4937   18.2254 C   0  0  0  0  0  0
  -28.0187  -12.3608   18.6249 C   0  0  0  0  0  0
  -27.6559  -13.2138   19.8707 C   0  0  2  0  0  0
  -28.6963  -13.0383   21.0013 C   0  0  0  0  0  0
  -25.2555  -13.8181   20.5676 C   0  0  0  0  0  0
  -24.1809  -13.0459   20.9185 C   0  0  0  0  0  0
  -24.6356  -11.6925   20.8754 C   0  0  0  0  0  0
  -23.9031  -10.4302   21.0415 C   0  0  0  0  0  0
  -24.3592   -9.4222   21.9196 C   0  0  0  0  0  0
  -23.6276   -8.2256   22.0768 C   0  0  0  0  0  0
  -22.4269   -8.0283   21.3540 C   0  0  0  0  0  0
  -21.9887   -9.0255   20.4650 C   0  0  0  0  0  0
  -22.7206  -10.2137   20.3064 C   0  0  0  0  0  0
  -21.6852   -6.0727   22.5275 C   0  0  0  0  0  0
  -21.4022   -6.5632   23.8210 C   0  0  0  0  0  0
  -21.3664   -5.6788   24.9175 C   0  0  0  0  0  0
  -21.6053   -4.3049   24.7233 C   0  0  0  0  0  0
  -21.8821   -3.8133   23.4352 C   0  0  0  0  0  0
  -21.9194   -4.6948   22.3402 C   0  0  0  0  0  0
  -22.7836  -13.5268   21.1838 C   0  0  0  0  0  0
  -22.1654   -4.2139   21.0973 F   0  0  0  0  0  0
  -21.5628   -3.4529   25.7739 F   0  0  0  0  0  0
  -30.0240  -13.3423   20.4464 N   0  0  0  0  0  0
  -26.2980  -12.9349   20.3346 N   0  0  0  0  0  0
  -25.9289  -11.6504   20.5796 N   0  0  0  0  0  0
  -22.0455  -12.8300   22.0405 N   0  0  0  0  0  0
  -25.4317  -15.1897   20.4040 N   0  0  0  0  0  0
  -31.8212  -14.6738   20.0898 O   0  0  0  0  0  0
  -21.6629   -6.8879   21.4245 O   0  0  0  0  0  0
  -22.3543  -14.5573   20.6672 O   0  0  0  0  0  0
  -24.6198  -31.8661   23.2095 C   0  0  0  0  0  0
  -25.9087  -32.4808   23.8388 C   0  0  1  0  0  0
  -27.2302  -27.3901   20.1112 C   0  0  0  0  0  0
  -25.5933  -33.8606   24.2319 N   0  0  0  0  0  0
  -23.4105  -30.4899   21.5493 C   0  0  2  0  0  0
  -24.8586  -28.9478   20.1203 C   0  0  0  0  0  0
  -22.7425  -29.4650   22.4960 C   0  0  0  0  0  0
  -18.0269  -28.1369   22.8496 C   0  0  0  0  0  0
  -24.1488  -36.7309   23.2632 C   0  0  0  0  0  0
  -25.9448  -30.8129   21.3760 C   0  0  0  0  0  0
  -26.0202  -29.4419   20.7315 C   0  0  0  0  0  0
  -27.2085  -28.6654   20.7342 C   0  0  0  0  0  0
  -26.0632  -26.9430   19.4597 C   0  0  0  0  0  0
  -24.8766  -27.6972   19.4826 C   0  0  0  0  0  0
  -23.6249  -29.8217   20.1650 C   0  0  0  0  0  0
  -25.4108  -36.3109   24.0336 C   0  0  1  0  0  0
  -20.5855  -28.3695   23.1278 C   0  0  2  0  0  0
  -20.6751  -26.9422   22.5388 C   0  0  0  0  0  0
  -19.5705  -26.6376   21.5218 C   0  0  0  0  0  0
  -18.1902  -26.7909   22.1655 C   0  0  0  0  0  0
  -19.1511  -28.8855   23.2881 C   0  0  0  0  0  0
  -18.9427  -30.1459   23.8881 C   0  0  0  0  0  0
  -17.6422  -30.6574   24.0554 C   0  0  0  0  0  0
  -25.9038  -34.9469   23.5124 C   0  0  0  0  0  0
  -16.5320  -29.9064   23.6318 C   0  0  0  0  0  0
  -16.7253  -28.6485   23.0340 C   0  0  0  0  0  0
  -26.4510  -31.6602   25.0725 C   0  0  0  0  0  0
  -25.3771  -31.3705   26.1463 C   0  0  0  0  0  0
  -27.0339  -30.3039   24.6136 C   0  0  0  0  0  0
  -27.6107  -32.4297   25.7482 C   0  0  0  0  0  0
  -27.5579  -37.1807   24.8466 C   0  0  0  0  0  0
  -21.4141  -29.3056   22.3694 N   0  0  0  0  0  0
  -26.4295  -37.3792   23.9406 N   0  0  0  0  0  0
  -24.6757  -31.0726   22.1025 N   0  0  0  0  0  0
  -23.4170  -28.8199   23.3028 O   0  0  0  0  0  0
  -28.3528  -26.5791   20.0598 O   0  0  0  0  0  0
  -26.5590  -34.8926   22.4670 O   0  0  0  0  0  0
  -23.5383  -32.1444   23.7467 O   0  0  0  0  0  0
  -29.0900  -23.1354   20.8641 C   0  0  0  0  0  0
  -29.4107  -17.1040   18.9665 C   0  0  0  0  0  0
  -31.4107  -17.6051   20.4155 C   0  0  0  0  0  0
  -28.6420  -19.4002   20.9429 C   0  0  0  0  0  0
  -29.0972  -17.9459   21.3594 C   0  0  0  0  0  0
  -29.5862  -20.6295   21.1598 C   0  0  0  0  0  0
  -28.6454  -25.7809   21.2366 C   0  0  0  0  0  0
  -28.1383  -24.2836   21.3153 C   0  0  1  0  0  0
  -29.9706  -17.0499   20.4046 C   0  0  0  0  0  0
  -28.8344  -21.8964   21.3550 N   0  0  0  0  0  0
  -29.8974  -15.6142   20.8431 N   0  0  0  0  0  0
  -26.8085  -24.0977   20.7077 N   0  3  0  0  0  0
  -30.0005  -23.3482   20.0644 O   0  0  0  0  0  0
  -31.4674  -12.4102   19.1584 H   0  0  0  0  0  0
  -30.3126  -11.3245   19.8800 H   0  0  0  0  0  0
  -29.7481  -11.7491   17.4672 H   0  0  0  0  0  0
  -29.6760  -13.4724   17.7716 H   0  0  0  0  0  0
  -27.8222  -11.3070   18.8253 H   0  0  0  0  0  0
  -27.3779  -12.6304   17.7831 H   0  0  0  0  0  0
  -27.6885  -14.2558   19.5495 H   0  0  0  0  0  0
  -28.6770  -12.0170   21.3840 H   0  0  0  0  0  0
  -28.4573  -13.6781   21.8516 H   0  0  0  0  0  0
  -25.2731   -9.5714   22.4786 H   0  0  0  0  0  0
  -23.9976   -7.4660   22.7505 H   0  0  0  0  0  0
  -21.0808   -8.8775   19.8970 H   0  0  0  0  0  0
  -22.3650  -10.9680   19.6185 H   0  0  0  0  0  0
  -21.2017   -7.6142   23.9720 H   0  0  0  0  0  0
  -21.1492   -6.0508   25.9080 H   0  0  0  0  0  0
  -22.0597   -2.7596   23.2851 H   0  0  0  0  0  0
  -22.3973  -11.9911   22.4774 H   0  0  0  0  0  0
  -21.1108  -13.1429   22.2628 H   0  0  0  0  0  0
  -24.6670  -15.8495   20.4927 H   0  0  0  0  0  0
  -26.2803  -15.6168   20.0548 H   0  0  0  0  0  0
  -26.7151  -32.5532   23.1143 H   0  0  0  0  0  0
  -25.0123  -33.9760   25.0498 H   0  0  0  0  0  0
  -22.7020  -31.3094   21.4048 H   0  0  0  0  0  0
  -23.3737  -35.9650   23.3308 H   0  0  0  0  0  0
  -24.3591  -36.8912   22.2044 H   0  0  0  0  0  0
  -23.7242  -37.6519   23.6631 H   0  0  0  0  0  0
  -26.0677  -31.5705   20.6017 H   0  0  0  0  0  0
  -26.8281  -30.8661   22.0006 H   0  0  0  0  0  0
  -28.1034  -29.0414   21.2109 H   0  0  0  0  0  0
  -26.0684  -26.0099   18.9164 H   0  0  0  0  0  0
  -23.9921  -27.3192   18.9881 H   0  0  0  0  0  0
  -23.7437  -30.5948   19.4054 H   0  0  0  0  0  0
  -22.7477  -29.2463   19.8630 H   0  0  0  0  0  0
  -25.1285  -36.1980   25.0830 H   0  0  0  0  0  0
  -20.9945  -28.3269   24.1400 H   0  0  0  0  0  0
  -20.5690  -26.2302   23.3582 H   0  0  0  0  0  0
  -21.6614  -26.7473   22.1151 H   0  0  0  0  0  0
  -19.6857  -25.6278   21.1270 H   0  0  0  0  0  0
  -19.6611  -27.3185   20.6746 H   0  0  0  0  0  0
  -17.4145  -26.6633   21.4085 H   0  0  0  0  0  0
  -18.0325  -26.0056   22.9070 H   0  0  0  0  0  0
  -19.7890  -30.7299   24.2222 H   0  0  0  0  0  0
  -17.4950  -31.6252   24.5156 H   0  0  0  0  0  0
  -15.5304  -30.2951   23.7638 H   0  0  0  0  0  0
  -15.8651  -28.0817   22.7023 H   0  0  0  0  0  0
  -24.5981  -30.7016   25.7795 H   0  0  0  0  0  0
  -24.8918  -32.2845   26.4902 H   0  0  0  0  0  0
  -25.8134  -30.8900   27.0232 H   0  0  0  0  0  0
  -26.2902  -29.6809   24.1149 H   0  0  0  0  0  0
  -27.4040  -29.7284   25.4634 H   0  0  0  0  0  0
  -27.8783  -30.4340   23.9353 H   0  0  0  0  0  0
  -27.2775  -33.3601   26.2092 H   0  0  0  0  0  0
  -28.3911  -32.6833   25.0292 H   0  0  0  0  0  0
  -28.0775  -31.8379   26.5370 H   0  0  0  0  0  0
  -28.2609  -38.0097   24.7507 H   0  0  0  0  0  0
  -28.1061  -36.2622   24.6295 H   0  0  0  0  0  0
  -27.2297  -37.1477   25.8873 H   0  0  0  0  0  0
  -20.9312  -29.8745   21.6875 H   0  0  0  0  0  0
  -26.0189  -38.2881   24.1376 H   0  0  0  0  0  0
  -29.4713  -18.1055   18.5408 H   0  0  0  0  0  0
  -28.3657  -16.7957   18.9261 H   0  0  0  0  0  0
  -29.9678  -16.4515   18.2939 H   0  0  0  0  0  0
  -31.4262  -18.6656   20.1732 H   0  0  0  0  0  0
  -32.0414  -17.1252   19.6673 H   0  0  0  0  0  0
  -31.8856  -17.4848   21.3882 H   0  0  0  0  0  0
  -27.7561  -19.5955   21.5480 H   0  0  0  0  0  0
  -28.2706  -19.4106   19.9190 H   0  0  0  0  0  0
  -28.1681  -17.3983   21.5314 H   0  0  0  0  0  0
  -29.5644  -17.9947   22.3447 H   0  0  0  0  0  0
  -30.2848  -20.7192   20.3270 H   0  0  0  0  0  0
  -30.1897  -20.4727   22.0552 H   0  0  0  0  0  0
  -29.7281  -25.7930   21.3670 H   0  0  0  0  0  0
  -28.2625  -26.3154   22.1072 H   0  0  0  0  0  0
  -28.0029  -24.0997   22.3828 H   0  0  0  0  0  0
  -28.0865  -21.8344   22.0330 H   0  0  0  0  0  0
  -29.0067  -15.3419   21.2322 H   0  0  0  0  0  0
  -26.8832  -24.1904   19.7090 H   0  0  0  0  0  0
  -26.1477  -24.7670   21.0630 H   0  0  0  0  0  0
  -26.4610  -23.1751   20.9022 H   0  0  0  0  0  0
  1 25  1  0  0  0
  1 30  2  0  0  0
  1 81  1  0  0  0
  2  3  1  0  0  0
  2 25  1  0  0  0
  2 84  1  0  0  0
  2 85  1  0  0  0
  3  4  1  0  0  0
  3 86  1  0  0  0
  3 87  1  0  0  0
  4  5  1  0  0  0
  4 88  1  0  0  0
  4 89  1  0  0  0
  5  6  1  0  0  0
  5 26  1  0  0  0
  5 90  1  0  0  0
  6 25  1  0  0  0
  6 91  1  0  0  0
  6 92  1  0  0  0
  7  8  2  0  0  0
  7 26  1  0  0  0
  7 29  1  0  0  0
  8  9  1  0  0  0
  8 22  1  0  0  0
  9 10  1  0  0  0
  9 27  2  0  0  0
 10 11  2  0  0  0
 10 15  1  0  0  0
 11 12  1  0  0  0
 11 93  1  0  0  0
 12 13  2  0  0  0
 12 94  1  0  0  0
 13 14  1  0  0  0
 13 31  1  0  0  0
 14 15  2  0  0  0
 14 95  1  0  0  0
 15 96  1  0  0  0
 16 17  2  0  0  0
 16 21  1  0  0  0
 16 31  1  0  0  0
 17 18  1  0  0  0
 17 97  1  0  0  0
 18 19  2  0  0  0
 18 98  1  0  0  0
 19 20  1  0  0  0
 19 24  1  0  0  0
 20 21  2  0  0  0
 20 99  1  0  0  0
 21 23  1  0  0  0
 22 28  1  0  0  0
 22 32  2  0  0  0
 26 27  1  0  0  0
 28100  1  0  0  0
 28101  1  0  0  0
 29102  1  0  0  0
 29103  1  0  0  0
 33 34  1  0  0  0
 33 66  1  0  0  0
 33 70  2  0  0  0
 34 36  1  0  0  0
 34 59  1  0  0  0
 34104  1  0  0  0
 35 44  2  0  0  0
 35 45  1  0  0  0
 35 68  1  0  0  0
 36 56  1  0  0  0
 36105  1  0  0  0
 37 39  1  0  0  0
 37 47  1  0  0  0
 37 66  1  0  0  0
 37106  1  0  0  0
 38 43  2  0  0  0
 38 46  1  0  0  0
 38 47  1  0  0  0
 39 64  1  0  0  0
 39 67  2  0  0  0
 40 52  1  0  0  0
 40 53  2  0  0  0
 40 58  1  0  0  0
 41107  1  0  0  0
 41108  1  0  0  0
 41109  1  0  0  0
 41 48  1  0  0  0
 42 43  1  0  0  0
 42 66  1  0  0  0
 42110  1  0  0  0
 42111  1  0  0  0
 43 44  1  0  0  0
 44112  1  0  0  0
 45 46  2  0  0  0
 45113  1  0  0  0
 46114  1  0  0  0
 47115  1  0  0  0
 47116  1  0  0  0
 48 56  1  0  0  0
 48 65  1  0  0  0
 48117  1  0  0  0
 49 50  1  0  0  0
 49 53  1  0  0  0
 49 64  1  0  0  0
 49118  1  0  0  0
 50 51  1  0  0  0
 50119  1  0  0  0
 50120  1  0  0  0
 51 52  1  0  0  0
 51121  1  0  0  0
 51122  1  0  0  0
 52123  1  0  0  0
 52124  1  0  0  0
 53 54  1  0  0  0
 54 55  2  0  0  0
 54125  1  0  0  0
 55 57  1  0  0  0
 55126  1  0  0  0
 56 69  2  0  0  0
 57 58  2  0  0  0
 57127  1  0  0  0
 58128  1  0  0  0
 59 60  1  0  0  0
 59 61  1  0  0  0
 59 62  1  0  0  0
 60129  1  0  0  0
 60130  1  0  0  0
 60131  1  0  0  0
 61132  1  0  0  0
 61133  1  0  0  0
 61134  1  0  0  0
 62135  1  0  0  0
 62136  1  0  0  0
 62137  1  0  0  0
 63 65  1  0  0  0
 63138  1  0  0  0
 63139  1  0  0  0
 63140  1  0  0  0
 64141  1  0  0  0
 65142  1  0  0  0
 68 77  1  0  0  0
 71 78  1  0  0  0
 71 80  1  0  0  0
 71 83  2  0  0  0
 72143  1  0  0  0
 72144  1  0  0  0
 72145  1  0  0  0
 72 79  1  0  0  0
 73 79  1  0  0  0
 73146  1  0  0  0
 73147  1  0  0  0
 73148  1  0  0  0
 74 75  1  0  0  0
 74 76  1  0  0  0
 74149  1  0  0  0
 74150  1  0  0  0
 75 79  1  0  0  0
 75151  1  0  0  0
 75152  1  0  0  0
 76 80  1  0  0  0
 76153  1  0  0  0
 76154  1  0  0  0
 77 78  1  0  0  0
 77155  1  0  0  0
 77156  1  0  0  0
 78 82  1  0  0  0
 78157  1  0  0  0
 79 81  1  0  0  0
 80158  1  0  0  0
 81159  1  0  0  0
 82160  1  0  0  0
 82161  1  0  0  0
 82162  1  0  0  0
M  CHG  1  82   1
M  ISO  4   1 100  68 101  77 101  81 100
M  END
> <chiral flag>
0

> <version>
0

> <s_m_source_file>
/data/baiqing/PycharmProjects/Reinvent-master-3.2/result/LINK_invent/BTK/process_docking_weight1_custom_sum_contain_oxygen_bond_distance_aromatic_linkinvent_7_9_3/rearranged_h_0106.sdf

> <i_m_source_file_index>
27

> <r_mmod_Potential_Energy-OPLS-2005>
-328.177459716797

> <r_mmod_Stretch_Energy-OPLS-2005>
54.7328605651855

> <r_mmod_Bend_Energy-OPLS-2005>
137.877105712891

> <r_mmod_Torsional_Energy-OPLS-2005>
259.429779052734

> <r_mmod_Improper_Torsional_Energy-OPLS-2005>
6.75710678100586

> <r_mmod_Van_der_Waal_Energy-OPLS-2005>
122.96598815918

> <r_mmod_Electrostatic_Energy-OPLS-2005>
-429.869018554688

> <r_mmod_Solvation_Energy-OPLS-2005>
-503.436920166016

> <b_mmod_Minimization_Converged-OPLS-2005>
0

> <r_mmod_RMS_Derivative-OPLS-2005>
2.70170617103577

$$$$
27
                    3D
 Structure written by MMmdl.
179188  0  0  1  0            999 V2000
  -30.7119  -14.7141   20.4575 C   0  0  0  0  0  0
  -30.3987  -12.4470   19.4700 C   0  0  0  0  0  0
  -29.4909  -12.5044   18.2274 C   0  0  0  0  0  0
  -28.0255  -12.3253   18.6587 C   0  0  0  0  0  0
  -27.6319  -13.2459   19.8460 C   0  0  2  0  0  0
  -28.6827  -13.2302   20.9781 C   0  0  0  0  0  0
  -25.2464  -13.8243   20.5728 C   0  0  0  0  0  0
  -24.1764  -13.0448   20.9209 C   0  0  0  0  0  0
  -24.6379  -11.6938   20.8749 C   0  0  0  0  0  0
  -23.9058  -10.4301   21.0390 C   0  0  0  0  0  0
  -24.3609   -9.4224   21.9176 C   0  0  0  0  0  0
  -23.6300   -8.2253   22.0749 C   0  0  0  0  0  0
  -22.4290   -8.0269   21.3545 C   0  0  0  0  0  0
  -21.9912   -9.0229   20.4652 C   0  0  0  0  0  0
  -22.7215  -10.2122   20.3062 C   0  0  0  0  0  0
  -21.6868   -6.0723   22.5268 C   0  0  0  0  0  0
  -21.4028   -6.5634   23.8194 C   0  0  0  0  0  0
  -21.3672   -5.6789   24.9159 C   0  0  0  0  0  0
  -21.6065   -4.3050   24.7223 C   0  0  0  0  0  0
  -21.8827   -3.8138   23.4342 C   0  0  0  0  0  0
  -21.9210   -4.6949   22.3395 C   0  0  0  0  0  0
  -22.7785  -13.5191   21.1857 C   0  0  0  0  0  0
  -22.1670   -4.2137   21.0960 F   0  0  0  0  0  0
  -21.5623   -3.4544   25.7725 F   0  0  0  0  0  0
  -29.9760  -13.5520   20.3707 N   0  0  0  0  0  0
  -26.2895  -12.9472   20.3306 N   0  0  0  0  0  0
  -25.9315  -11.6600   20.5765 N   0  0  0  0  0  0
  -22.0441  -12.8173   22.0411 N   0  0  0  0  0  0
  -25.4187  -15.1968   20.4145 N   0  0  0  0  0  0
  -31.9033  -14.6335   20.1690 O   0  0  0  0  0  0
  -21.6673   -6.8861   21.4223 O   0  0  0  0  0  0
  -22.3482  -14.5486   20.6690 O   0  0  0  0  0  0
  -24.6299  -31.8589   23.1985 C   0  0  0  0  0  0
  -25.9136  -32.4762   23.8351 C   0  0  1  0  0  0
  -27.2145  -27.2688   20.1023 C   0  0  0  0  0  0
  -25.5935  -33.8557   24.2308 N   0  0  0  0  0  0
  -23.4252  -30.4782   21.5462 C   0  0  2  0  0  0
  -24.8703  -28.9326   20.1058 C   0  0  0  0  0  0
  -22.7524  -29.4577   22.4976 C   0  0  0  0  0  0
  -18.0303  -28.1363   22.8503 C   0  0  0  0  0  0
  -24.1478  -36.7256   23.2638 C   0  0  0  0  0  0
  -25.9706  -30.7742   21.3732 C   0  0  0  0  0  0
  -26.0431  -29.3978   20.7112 C   0  0  0  0  0  0
  -27.2154  -28.5770   20.6969 C   0  0  0  0  0  0
  -26.0061  -26.8612   19.4930 C   0  0  0  0  0  0
  -24.8566  -27.6732   19.4880 C   0  0  0  0  0  0
  -23.6395  -29.8151   20.1606 C   0  0  0  0  0  0
  -25.4100  -36.3059   24.0347 C   0  0  1  0  0  0
  -20.5906  -28.3624   23.1321 C   0  0  2  0  0  0
  -20.6768  -26.9350   22.5414 C   0  0  0  0  0  0
  -19.5719  -26.6382   21.5219 C   0  0  0  0  0  0
  -18.1912  -26.7911   22.1646 C   0  0  0  0  0  0
  -19.1557  -28.8828   23.2891 C   0  0  0  0  0  0
  -18.9462  -30.1451   23.8882 C   0  0  0  0  0  0
  -17.6452  -30.6560   24.0566 C   0  0  0  0  0  0
  -25.9058  -34.9441   23.5118 C   0  0  0  0  0  0
  -16.5351  -29.9046   23.6340 C   0  0  0  0  0  0
  -16.7291  -28.6472   23.0351 C   0  0  0  0  0  0
  -26.4503  -31.6534   25.0710 C   0  0  0  0  0  0
  -25.3741  -31.3606   26.1431 C   0  0  0  0  0  0
  -27.0345  -30.2978   24.6098 C   0  0  0  0  0  0
  -27.6099  -32.4222   25.7466 C   0  0  0  0  0  0
  -27.5575  -37.1774   24.8492 C   0  0  0  0  0  0
  -21.4231  -29.2985   22.3750 N   0  0  0  0  0  0
  -26.4288  -37.3747   23.9436 N   0  0  0  0  0  0
  -24.6970  -31.0525   22.0961 N   0  0  0  0  0  0
  -23.4260  -28.8166   23.3079 O   0  0  0  0  0  0
  -28.3420  -26.4185   20.1504 O   0  0  0  0  0  0
  -26.5598  -34.8924   22.4686 O   0  0  0  0  0  0
  -23.5467  -32.1415   23.7284 O   0  0  0  0  0  0
  -30.9616  -19.8517   21.5465 C   0  0  0  0  0  0
  -29.3032  -19.6068   20.1593 C   0  0  0  0  0  0
  -30.2859  -18.8325   20.7985 C   0  0  0  0  0  0
  -30.5677  -21.1145   21.1989 C   0  0  0  0  0  0
  -26.0554  -22.9855   20.8676 C   0  0  0  0  0  0
  -27.3372  -23.6074   21.4500 C   0  0  0  0  0  0
  -26.1507  -22.6224   19.3808 C   0  0  0  0  0  0
  -28.5034  -23.6902   20.4506 C   0  0  1  0  0  0
  -27.3832  -21.7591   19.0133 C   0  0  2  0  0  0
  -28.7192  -22.2384   19.7019 C   0  0  2  0  0  0
  -31.2892  -22.3763   21.5565 C   0  0  0  0  0  0
  -28.6652  -20.7155   16.9812 C   0  0  0  0  0  0
  -26.1949  -21.0538   16.8486 C   0  0  0  0  0  0
  -31.9785  -17.2043   21.7981 C   0  0  0  0  0  0
  -31.6681  -17.4505   19.3089 C   0  0  0  0  0  0
  -28.3976  -25.0401   19.5512 C   0  0  0  0  0  0
  -27.4971  -21.6031   17.4622 C   0  0  0  0  0  0
  -30.9103  -17.3297   20.6626 C   0  0  0  0  0  0
  -29.4444  -21.0346   20.3827 N   0  0  0  0  0  0
  -30.1386  -15.9799   20.6662 N   0  0  0  0  0  0
  -31.4465  -12.4968   19.1647 H   0  0  0  0  0  0
  -30.2896  -11.4886   19.9773 H   0  0  0  0  0  0
  -29.7625  -11.7250   17.5157 H   0  0  0  0  0  0
  -29.6213  -13.4548   17.7091 H   0  0  0  0  0  0
  -27.8907  -11.2801   18.9376 H   0  0  0  0  0  0
  -27.3569  -12.5020   17.8161 H   0  0  0  0  0  0
  -27.6084  -14.2559   19.4391 H   0  0  0  0  0  0
  -28.7219  -12.2530   21.4612 H   0  0  0  0  0  0
  -28.4353  -13.9519   21.7561 H   0  0  0  0  0  0
  -25.2746   -9.5702   22.4737 H   0  0  0  0  0  0
  -24.0035   -7.4655   22.7449 H   0  0  0  0  0  0
  -21.0857   -8.8719   19.8942 H   0  0  0  0  0  0
  -22.3660  -10.9647   19.6176 H   0  0  0  0  0  0
  -21.2019   -7.6141   23.9674 H   0  0  0  0  0  0
  -21.1490   -6.0520   25.9039 H   0  0  0  0  0  0
  -22.0608   -2.7607   23.2835 H   0  0  0  0  0  0
  -22.4126  -11.9863   22.4821 H   0  0  0  0  0  0
  -21.1037  -13.1146   22.2562 H   0  0  0  0  0  0
  -24.6510  -15.8522   20.5148 H   0  0  0  0  0  0
  -26.2704  -15.6333   20.0863 H   0  0  0  0  0  0
  -26.7205  -32.5443   23.1113 H   0  0  0  0  0  0
  -25.0145  -33.9672   25.0494 H   0  0  0  0  0  0
  -22.7184  -31.2990   21.4028 H   0  0  0  0  0  0
  -23.3752  -35.9567   23.3294 H   0  0  0  0  0  0
  -24.3587  -36.8874   22.2052 H   0  0  0  0  0  0
  -23.7217  -37.6461   23.6658 H   0  0  0  0  0  0
  -26.0972  -31.5373   20.6060 H   0  0  0  0  0  0
  -26.8535  -30.8324   21.9967 H   0  0  0  0  0  0
  -28.1223  -28.9254   21.1687 H   0  0  0  0  0  0
  -25.9062  -25.8910   19.0345 H   0  0  0  0  0  0
  -23.9511  -27.3158   19.0148 H   0  0  0  0  0  0
  -23.7515  -30.5918   19.4035 H   0  0  0  0  0  0
  -22.7585  -29.2440   19.8636 H   0  0  0  0  0  0
  -25.1254  -36.1906   25.0826 H   0  0  0  0  0  0
  -20.9987  -28.3134   24.1439 H   0  0  0  0  0  0
  -20.5668  -26.2193   23.3579 H   0  0  0  0  0  0
  -21.6624  -26.7364   22.1184 H   0  0  0  0  0  0
  -19.6861  -25.6307   21.1199 H   0  0  0  0  0  0
  -19.6670  -27.3245   20.6787 H   0  0  0  0  0  0
  -17.4187  -26.6734   21.4039 H   0  0  0  0  0  0
  -18.0267  -26.0024   22.8995 H   0  0  0  0  0  0
  -19.7927  -30.7285   24.2231 H   0  0  0  0  0  0
  -17.4981  -31.6235   24.5169 H   0  0  0  0  0  0
  -15.5332  -30.2917   23.7648 H   0  0  0  0  0  0
  -15.8709  -28.0784   22.7038 H   0  0  0  0  0  0
  -24.5988  -30.6882   25.7736 H   0  0  0  0  0  0
  -24.8849  -32.2728   26.4854 H   0  0  0  0  0  0
  -25.8079  -30.8807   27.0220 H   0  0  0  0  0  0
  -26.2940  -29.6761   24.1065 H   0  0  0  0  0  0
  -27.4043  -29.7163   25.4557 H   0  0  0  0  0  0
  -27.8783  -30.4293   23.9321 H   0  0  0  0  0  0
  -27.2789  -33.3572   26.1984 H   0  0  0  0  0  0
  -28.3912  -32.6674   25.0256 H   0  0  0  0  0  0
  -28.0750  -31.8370   26.5410 H   0  0  0  0  0  0
  -28.2597  -38.0060   24.7523 H   0  0  0  0  0  0
  -28.1069  -36.2607   24.6333 H   0  0  0  0  0  0
  -27.2306  -37.1414   25.8897 H   0  0  0  0  0  0
  -20.9425  -29.8745   21.6984 H   0  0  0  0  0  0
  -26.0175  -38.2823   24.1436 H   0  0  0  0  0  0
  -31.8239  -19.7143   22.1807 H   0  0  0  0  0  0
  -28.5611  -19.2547   19.4580 H   0  0  0  0  0  0
  -25.2203  -23.6719   21.0035 H   0  0  0  0  0  0
  -25.7887  -22.0897   21.4330 H   0  0  0  0  0  0
  -27.6474  -23.0178   22.3138 H   0  0  0  0  0  0
  -27.1258  -24.6048   21.8398 H   0  0  0  0  0  0
  -26.0939  -23.5151   18.7637 H   0  0  0  0  0  0
  -25.2373  -22.0825   19.1350 H   0  0  0  0  0  0
  -29.3748  -23.9103   21.0505 H   0  0  0  0  0  0
  -27.1123  -20.7893   19.4275 H   0  0  0  0  0  0
  -29.4113  -22.5189   18.9095 H   0  0  0  0  0  0
  -32.3006  -22.1646   21.9086 H   0  0  0  0  0  0
  -30.7857  -22.9127   22.3603 H   0  0  0  0  0  0
  -31.3972  -23.0270   20.6861 H   0  0  0  0  0  0
  -29.6385  -21.0603   17.3251 H   0  0  0  0  0  0
  -28.7146  -20.7074   15.8917 H   0  0  0  0  0  0
  -28.5495  -19.6787   17.2925 H   0  0  0  0  0  0
  -25.3726  -21.7671   16.9155 H   0  0  0  0  0  0
  -25.8843  -20.1370   17.3520 H   0  0  0  0  0  0
  -26.3104  -20.8233   15.7899 H   0  0  0  0  0  0
  -32.8329  -17.8611   21.6191 H   0  0  0  0  0  0
  -32.4152  -16.2150   21.9237 H   0  0  0  0  0  0
  -31.5673  -17.4530   22.7776 H   0  0  0  0  0  0
  -30.9862  -17.4041   18.4592 H   0  0  0  0  0  0
  -32.4351  -16.6950   19.1552 H   0  0  0  0  0  0
  -32.2067  -18.3971   19.2308 H   0  0  0  0  0  0
  -27.6752  -24.9230   18.7515 H   0  0  0  0  0  0
  -29.3317  -25.0490   18.9898 H   0  0  0  0  0  0
  -27.6655  -22.5986   17.0430 H   0  0  0  0  0  0
  -29.1458  -16.0049   20.8433 H   0  0  0  0  0  0
  1 25  1  0  0  0
  1 30  2  0  0  0
  1 90  1  0  0  0
  2  3  1  0  0  0
  2 25  1  0  0  0
  2 91  1  0  0  0
  2 92  1  0  0  0
  3  4  1  0  0  0
  3 93  1  0  0  0
  3 94  1  0  0  0
  4  5  1  0  0  0
  4 95  1  0  0  0
  4 96  1  0  0  0
  5  6  1  0  0  0
  5 26  1  0  0  0
  5 97  1  0  0  0
  6 25  1  0  0  0
  6 98  1  0  0  0
  6 99  1  0  0  0
  7  8  2  0  0  0
  7 26  1  0  0  0
  7 29  1  0  0  0
  8  9  1  0  0  0
  8 22  1  0  0  0
  9 10  1  0  0  0
  9 27  2  0  0  0
 10 11  2  0  0  0
 10 15  1  0  0  0
 11 12  1  0  0  0
 11100  1  0  0  0
 12 13  2  0  0  0
 12101  1  0  0  0
 13 14  1  0  0  0
 13 31  1  0  0  0
 14 15  2  0  0  0
 14102  1  0  0  0
 15103  1  0  0  0
 16 17  2  0  0  0
 16 21  1  0  0  0
 16 31  1  0  0  0
 17 18  1  0  0  0
 17104  1  0  0  0
 18 19  2  0  0  0
 18105  1  0  0  0
 19 20  1  0  0  0
 19 24  1  0  0  0
 20 21  2  0  0  0
 20106  1  0  0  0
 21 23  1  0  0  0
 22 28  1  0  0  0
 22 32  2  0  0  0
 26 27  1  0  0  0
 28107  1  0  0  0
 28108  1  0  0  0
 29109  1  0  0  0
 29110  1  0  0  0
 33 34  1  0  0  0
 33 66  1  0  0  0
 33 70  2  0  0  0
 34 36  1  0  0  0
 34 59  1  0  0  0
 34111  1  0  0  0
 35 44  2  0  0  0
 35 45  1  0  0  0
 35 68  1  0  0  0
 36 56  1  0  0  0
 36112  1  0  0  0
 37 39  1  0  0  0
 37 47  1  0  0  0
 37 66  1  0  0  0
 37113  1  0  0  0
 38 43  2  0  0  0
 38 46  1  0  0  0
 38 47  1  0  0  0
 39 64  1  0  0  0
 39 67  2  0  0  0
 40 52  1  0  0  0
 40 53  2  0  0  0
 40 58  1  0  0  0
 41114  1  0  0  0
 41115  1  0  0  0
 41116  1  0  0  0
 41 48  1  0  0  0
 42 43  1  0  0  0
 42 66  1  0  0  0
 42117  1  0  0  0
 42118  1  0  0  0
 43 44  1  0  0  0
 44119  1  0  0  0
 45 46  2  0  0  0
 45120  1  0  0  0
 46121  1  0  0  0
 47122  1  0  0  0
 47123  1  0  0  0
 48 56  1  0  0  0
 48 65  1  0  0  0
 48124  1  0  0  0
 49 50  1  0  0  0
 49 53  1  0  0  0
 49 64  1  0  0  0
 49125  1  0  0  0
 50 51  1  0  0  0
 50126  1  0  0  0
 50127  1  0  0  0
 51 52  1  0  0  0
 51128  1  0  0  0
 51129  1  0  0  0
 52130  1  0  0  0
 52131  1  0  0  0
 53 54  1  0  0  0
 54 55  2  0  0  0
 54132  1  0  0  0
 55 57  1  0  0  0
 55133  1  0  0  0
 56 69  2  0  0  0
 57 58  2  0  0  0
 57134  1  0  0  0
 58135  1  0  0  0
 59 60  1  0  0  0
 59 61  1  0  0  0
 59 62  1  0  0  0
 60136  1  0  0  0
 60137  1  0  0  0
 60138  1  0  0  0
 61139  1  0  0  0
 61140  1  0  0  0
 61141  1  0  0  0
 62142  1  0  0  0
 62143  1  0  0  0
 62144  1  0  0  0
 63 65  1  0  0  0
 63145  1  0  0  0
 63146  1  0  0  0
 63147  1  0  0  0
 64148  1  0  0  0
 65149  1  0  0  0
 68 86  1  0  0  0
 71 73  1  0  0  0
 71 74  2  0  0  0
 71150  1  0  0  0
 72 73  2  0  0  0
 72 89  1  0  0  0
 72151  1  0  0  0
 73 88  1  0  0  0
 74 81  1  0  0  0
 74 89  1  0  0  0
 75 76  1  0  0  0
 75 77  1  0  0  0
 75152  1  0  0  0
 75153  1  0  0  0
 76 78  1  0  0  0
 76154  1  0  0  0
 76155  1  0  0  0
 77156  1  0  0  0
 77157  1  0  0  0
 77 79  1  0  0  0
 78 80  1  0  0  0
 78 86  1  0  0  0
 78158  1  0  0  0
 79 80  1  0  0  0
 79 87  1  0  0  0
 79159  1  0  0  0
 80 89  1  0  0  0
 80160  1  0  0  0
 81161  1  0  0  0
 81162  1  0  0  0
 81163  1  0  0  0
 82164  1  0  0  0
 82165  1  0  0  0
 82166  1  0  0  0
 82 87  1  0  0  0
 83 87  1  0  0  0
 83167  1  0  0  0
 83168  1  0  0  0
 83169  1  0  0  0
 84170  1  0  0  0
 84171  1  0  0  0
 84172  1  0  0  0
 84 88  1  0  0  0
 85 88  1  0  0  0
 85173  1  0  0  0
 85174  1  0  0  0
 85175  1  0  0  0
 86176  1  0  0  0
 86177  1  0  0  0
 87178  1  0  0  0
 88 90  1  0  0  0
 90179  1  0  0  0
M  ISO  4   1 100  68 101  86 101  90 100
M  END
> <chiral flag>
0

> <version>
0

> <s_m_source_file>
/data/baiqing/PycharmProjects/Reinvent-master-3.2/result/LINK_invent/BTK/process_docking_weight1_custom_sum_contain_oxygen_bond_distance_aromatic_linkinvent_7_9_3/rearranged_h_0106.sdf

> <i_m_source_file_index>
28

> <r_mmod_Potential_Energy-OPLS-2005>
399.322479248047

> <r_mmod_Stretch_Energy-OPLS-2005>
166.340209960938

> <r_mmod_Bend_Energy-OPLS-2005>
265.430236816406

> <r_mmod_Torsional_Energy-OPLS-2005>
305.691436767578

> <r_mmod_Improper_Torsional_Energy-OPLS-2005>
8.5378475189209

> <r_mmod_Van_der_Waal_Energy-OPLS-2005>
157.075088500977

> <r_mmod_Electrostatic_Energy-OPLS-2005>
-396.406097412109

> <r_mmod_Solvation_Energy-OPLS-2005>
-187.97492980957

> <b_mmod_Minimization_Converged-OPLS-2005>
0

> <r_mmod_RMS_Derivative-OPLS-2005>
5.17309379577637

$$$$
28
                    3D
 Structure written by MMmdl.
160168  0  0  1  0            999 V2000
  -30.4518  -15.2383   20.3701 C   0  0  0  0  0  0
  -30.4417  -12.7872   19.5192 C   0  0  0  0  0  0
  -29.5352  -12.5725   18.2810 C   0  0  0  0  0  0
  -28.0766  -12.3150   18.7008 C   0  0  0  0  0  0
  -27.6137  -13.2769   19.8237 C   0  0  2  0  0  0
  -28.6525  -13.4317   20.9544 C   0  0  0  0  0  0
  -25.2394  -13.8265   20.5750 C   0  0  0  0  0  0
  -24.1755  -13.0445   20.9268 C   0  0  0  0  0  0
  -24.6414  -11.6944   20.8769 C   0  0  0  0  0  0
  -23.9121  -10.4300   21.0409 C   0  0  0  0  0  0
  -24.3658   -9.4215   21.9187 C   0  0  0  0  0  0
  -23.6323   -8.2253   22.0745 C   0  0  0  0  0  0
  -22.4300   -8.0303   21.3543 C   0  0  0  0  0  0
  -21.9953   -9.0280   20.4641 C   0  0  0  0  0  0
  -22.7293  -10.2151   20.3059 C   0  0  0  0  0  0
  -21.6860   -6.0752   22.5283 C   0  0  0  0  0  0
  -21.4022   -6.5653   23.8218 C   0  0  0  0  0  0
  -21.3661   -5.6798   24.9176 C   0  0  0  0  0  0
  -21.6047   -4.3063   24.7216 C   0  0  0  0  0  0
  -21.8816   -3.8156   23.4337 C   0  0  0  0  0  0
  -21.9198   -4.6980   22.3399 C   0  0  0  0  0  0
  -22.7769  -13.5191   21.1916 C   0  0  0  0  0  0
  -22.1663   -4.2170   21.0974 F   0  0  0  0  0  0
  -21.5629   -3.4538   25.7721 F   0  0  0  0  0  0
  -29.8856  -13.9337   20.3255 N   0  0  0  0  0  0
  -26.2832  -12.9540   20.3233 N   0  0  0  0  0  0
  -25.9349  -11.6643   20.5721 N   0  0  0  0  0  0
  -22.0428  -12.8163   22.0470 N   0  0  0  0  0  0
  -25.4003  -15.2003   20.4175 N   0  0  0  0  0  0
  -31.6755  -15.2432   20.1785 O   0  0  0  0  0  0
  -21.6657   -6.8903   21.4247 O   0  0  0  0  0  0
  -22.3451  -14.5488   20.6752 O   0  0  0  0  0  0
  -24.6615  -31.8243   23.1703 C   0  0  0  0  0  0
  -25.9299  -32.4598   23.8160 C   0  0  1  0  0  0
  -27.2222  -26.9403   20.1783 C   0  0  0  0  0  0
  -25.5961  -33.8410   24.2064 N   0  0  0  0  0  0
  -23.4761  -30.4354   21.5208 C   0  0  2  0  0  0
  -24.9305  -28.8273   20.1115 C   0  0  0  0  0  0
  -22.7668  -29.4439   22.4799 C   0  0  0  0  0  0
  -18.0320  -28.1420   22.8467 C   0  0  0  0  0  0
  -24.1486  -36.7213   23.2650 C   0  0  0  0  0  0
  -26.0448  -30.6355   21.3989 C   0  0  0  0  0  0
  -26.1148  -29.2271   20.7422 C   0  0  0  0  0  0
  -27.2560  -28.3050   20.7515 C   0  0  0  0  0  0
  -26.0126  -26.6987   19.4864 C   0  0  0  0  0  0
  -24.9046  -27.5826   19.4642 C   0  0  0  0  0  0
  -23.7139  -29.7505   20.1476 C   0  0  0  0  0  0
  -25.4131  -36.2975   24.0298 C   0  0  1  0  0  0
  -20.5944  -28.3756   23.1198 C   0  0  2  0  0  0
  -20.6802  -26.9438   22.5414 C   0  0  0  0  0  0
  -19.5772  -26.6376   21.5226 C   0  0  0  0  0  0
  -18.1954  -26.7946   22.1628 C   0  0  0  0  0  0
  -19.1584  -28.8908   23.2817 C   0  0  0  0  0  0
  -18.9494  -30.1495   23.8852 C   0  0  0  0  0  0
  -17.6490  -30.6611   24.0553 C   0  0  0  0  0  0
  -25.9100  -34.9361   23.5004 C   0  0  0  0  0  0
  -16.5380  -29.9096   23.6347 C   0  0  0  0  0  0
  -16.7301  -28.6519   23.0361 C   0  0  0  0  0  0
  -26.4540  -31.6551   25.0695 C   0  0  0  0  0  0
  -25.3657  -31.3817   26.1342 C   0  0  0  0  0  0
  -27.0432  -30.2914   24.6438 C   0  0  0  0  0  0
  -27.6017  -32.4366   25.7513 C   0  0  0  0  0  0
  -27.5568  -37.1761   24.8463 C   0  0  0  0  0  0
  -21.4340  -29.3032   22.3542 N   0  0  0  0  0  0
  -26.4275  -37.3714   23.9406 N   0  0  0  0  0  0
  -24.7484  -30.9912   22.0835 N   0  0  0  0  0  0
  -23.4216  -28.8022   23.3052 O   0  0  0  0  0  0
  -28.2228  -25.8331   20.2612 O   0  0  0  0  0  0
  -26.5723  -34.8894   22.4614 O   0  0  0  0  0  0
  -23.5686  -32.1206   23.6807 O   0  0  0  0  0  0
  -27.2508  -21.0424   19.4221 C   0  0  0  0  0  0
  -27.7168  -18.8754   19.5072 C   0  0  0  0  0  0
  -28.4893  -21.0279   20.0109 C   0  0  0  0  0  0
  -28.8268  -19.4523   20.0667 C   0  0  0  0  0  0
  -25.2022  -20.3992   17.2856 C   0  0  0  0  0  0
  -24.3877  -19.4778   19.5170 C   0  0  0  0  0  0
  -26.8785  -24.0070   21.2967 C   0  0  0  0  0  0
  -28.9529  -22.6976   20.2986 C   0  0  0  0  0  0
  -29.9244  -18.1529   20.4696 C   0  0  0  0  0  0
  -25.5124  -19.4720   18.4736 C   0  0  0  0  0  0
  -27.9439  -24.2027   20.2042 C   0  0  2  0  0  0
  -26.7905  -19.7935   19.0987 N   0  0  0  0  0  0
  -29.6766  -16.4986   20.4353 N   0  0  0  0  0  0
  -31.4606  -12.9911   19.1894 H   0  0  0  0  0  0
  -30.5032  -11.8756   20.1164 H   0  0  0  0  0  0
  -29.9017  -11.7408   17.6783 H   0  0  0  0  0  0
  -29.5815  -13.4582   17.6450 H   0  0  0  0  0  0
  -28.0102  -11.2831   19.0485 H   0  0  0  0  0  0
  -27.4123  -12.3910   17.8383 H   0  0  0  0  0  0
  -27.5328  -14.2516   19.3400 H   0  0  0  0  0  0
  -28.8138  -12.4885   21.4780 H   0  0  0  0  0  0
  -28.3011  -14.1451   21.7017 H   0  0  0  0  0  0
  -25.2794   -9.5691   22.4773 H   0  0  0  0  0  0
  -24.0028   -7.4640   22.7459 H   0  0  0  0  0  0
  -21.0885   -8.8815   19.8941 H   0  0  0  0  0  0
  -22.3759  -10.9699   19.6177 H   0  0  0  0  0  0
  -21.2015   -7.6162   23.9734 H   0  0  0  0  0  0
  -21.1487   -6.0521   25.9084 H   0  0  0  0  0  0
  -22.0592   -2.7617   23.2825 H   0  0  0  0  0  0
  -22.4048  -11.9825   22.4866 H   0  0  0  0  0  0
  -21.1034  -13.1169   22.2653 H   0  0  0  0  0  0
  -24.6275  -15.8447   20.5405 H   0  0  0  0  0  0
  -26.2347  -15.6459   20.0629 H   0  0  0  0  0  0
  -26.7378  -32.5124   23.0884 H   0  0  0  0  0  0
  -24.9997  -33.9489   25.0133 H   0  0  0  0  0  0
  -22.7886  -31.2670   21.3523 H   0  0  0  0  0  0
  -23.3764  -35.9527   23.3272 H   0  0  0  0  0  0
  -24.3561  -36.8902   22.2072 H   0  0  0  0  0  0
  -23.7230  -37.6385   23.6731 H   0  0  0  0  0  0
  -26.2214  -31.3789   20.6199 H   0  0  0  0  0  0
  -26.9047  -30.6911   22.0544 H   0  0  0  0  0  0
  -28.1517  -28.6096   21.2744 H   0  0  0  0  0  0
  -25.8850  -25.7501   18.9864 H   0  0  0  0  0  0
  -24.0065  -27.2708   18.9482 H   0  0  0  0  0  0
  -23.8623  -30.5181   19.3870 H   0  0  0  0  0  0
  -22.8243  -29.2012   19.8332 H   0  0  0  0  0  0
  -25.1331  -36.1768   25.0787 H   0  0  0  0  0  0
  -21.0018  -28.3365   24.1322 H   0  0  0  0  0  0
  -20.5692  -26.2372   23.3660 H   0  0  0  0  0  0
  -21.6666  -26.7420   22.1211 H   0  0  0  0  0  0
  -19.6927  -25.6270   21.1287 H   0  0  0  0  0  0
  -19.6707  -27.3163   20.6742 H   0  0  0  0  0  0
  -17.4217  -26.6692   21.4034 H   0  0  0  0  0  0
  -18.0349  -26.0106   22.9042 H   0  0  0  0  0  0
  -19.7971  -30.7322   24.2207 H   0  0  0  0  0  0
  -17.5039  -31.6279   24.5170 H   0  0  0  0  0  0
  -15.5379  -30.2979   23.7698 H   0  0  0  0  0  0
  -15.8703  -28.0822   22.7100 H   0  0  0  0  0  0
  -24.5840  -30.7181   25.7630 H   0  0  0  0  0  0
  -24.8858  -32.3037   26.4635 H   0  0  0  0  0  0
  -25.7859  -30.9051   27.0207 H   0  0  0  0  0  0
  -26.3091  -29.6603   24.1420 H   0  0  0  0  0  0
  -27.3925  -29.7276   25.5099 H   0  0  0  0  0  0
  -27.9047  -30.4087   23.9864 H   0  0  0  0  0  0
  -27.2553  -33.3691   26.1980 H   0  0  0  0  0  0
  -28.3885  -32.6893   25.0394 H   0  0  0  0  0  0
  -28.0618  -31.8577   26.5532 H   0  0  0  0  0  0
  -28.2556  -38.0082   24.7515 H   0  0  0  0  0  0
  -28.1085  -36.2608   24.6272 H   0  0  0  0  0  0
  -27.2283  -37.1385   25.8864 H   0  0  0  0  0  0
  -20.9607  -29.8714   21.6655 H   0  0  0  0  0  0
  -26.0121  -38.2765   24.1438 H   0  0  0  0  0  0
  -26.6282  -21.8908   19.1769 H   0  0  0  0  0  0
  -27.5069  -17.8276   19.3384 H   0  0  0  0  0  0
  -24.2911  -20.0843   16.7785 H   0  0  0  0  0  0
  -26.0067  -20.3781   16.5496 H   0  0  0  0  0  0
  -25.0589  -21.4335   17.5969 H   0  0  0  0  0  0
  -23.4439  -19.1665   19.0691 H   0  0  0  0  0  0
  -24.2406  -20.4680   19.9486 H   0  0  0  0  0  0
  -24.6051  -18.7862   20.3322 H   0  0  0  0  0  0
  -26.5356  -22.9742   21.3422 H   0  0  0  0  0  0
  -25.9932  -24.6202   21.1401 H   0  0  0  0  0  0
  -27.2853  -24.2597   22.2761 H   0  0  0  0  0  0
  -29.7816  -22.8628   19.6101 H   0  0  0  0  0  0
  -29.4237  -22.6983   21.2822 H   0  0  0  0  0  0
  -30.2471  -18.3689   21.4888 H   0  0  0  0  0  0
  -30.8156  -18.3233   19.8653 H   0  0  0  0  0  0
  -25.5911  -18.4575   18.0794 H   0  0  0  0  0  0
  -27.4508  -24.0965   19.2373 H   0  0  0  0  0  0
  -28.6958  -16.2835   20.5260 H   0  0  0  0  0  0
  1 25  1  0  0  0
  1 30  2  0  0  0
  1 83  1  0  0  0
  2  3  1  0  0  0
  2 25  1  0  0  0
  2 84  1  0  0  0
  2 85  1  0  0  0
  3  4  1  0  0  0
  3 86  1  0  0  0
  3 87  1  0  0  0
  4  5  1  0  0  0
  4 88  1  0  0  0
  4 89  1  0  0  0
  5  6  1  0  0  0
  5 26  1  0  0  0
  5 90  1  0  0  0
  6 25  1  0  0  0
  6 91  1  0  0  0
  6 92  1  0  0  0
  7  8  2  0  0  0
  7 26  1  0  0  0
  7 29  1  0  0  0
  8  9  1  0  0  0
  8 22  1  0  0  0
  9 10  1  0  0  0
  9 27  2  0  0  0
 10 11  2  0  0  0
 10 15  1  0  0  0
 11 12  1  0  0  0
 11 93  1  0  0  0
 12 13  2  0  0  0
 12 94  1  0  0  0
 13 14  1  0  0  0
 13 31  1  0  0  0
 14 15  2  0  0  0
 14 95  1  0  0  0
 15 96  1  0  0  0
 16 17  2  0  0  0
 16 21  1  0  0  0
 16 31  1  0  0  0
 17 18  1  0  0  0
 17 97  1  0  0  0
 18 19  2  0  0  0
 18 98  1  0  0  0
 19 20  1  0  0  0
 19 24  1  0  0  0
 20 21  2  0  0  0
 20 99  1  0  0  0
 21 23  1  0  0  0
 22 28  1  0  0  0
 22 32  2  0  0  0
 26 27  1  0  0  0
 28100  1  0  0  0
 28101  1  0  0  0
 29102  1  0  0  0
 29103  1  0  0  0
 33 34  1  0  0  0
 33 66  1  0  0  0
 33 70  2  0  0  0
 34 36  1  0  0  0
 34 59  1  0  0  0
 34104  1  0  0  0
 35 44  2  0  0  0
 35 45  1  0  0  0
 35 68  1  0  0  0
 36 56  1  0  0  0
 36105  1  0  0  0
 37 39  1  0  0  0
 37 47  1  0  0  0
 37 66  1  0  0  0
 37106  1  0  0  0
 38 43  2  0  0  0
 38 46  1  0  0  0
 38 47  1  0  0  0
 39 64  1  0  0  0
 39 67  2  0  0  0
 40 52  1  0  0  0
 40 53  2  0  0  0
 40 58  1  0  0  0
 41107  1  0  0  0
 41108  1  0  0  0
 41109  1  0  0  0
 41 48  1  0  0  0
 42 43  1  0  0  0
 42 66  1  0  0  0
 42110  1  0  0  0
 42111  1  0  0  0
 43 44  1  0  0  0
 44112  1  0  0  0
 45 46  2  0  0  0
 45113  1  0  0  0
 46114  1  0  0  0
 47115  1  0  0  0
 47116  1  0  0  0
 48 56  1  0  0  0
 48 65  1  0  0  0
 48117  1  0  0  0
 49 50  1  0  0  0
 49 53  1  0  0  0
 49 64  1  0  0  0
 49118  1  0  0  0
 50 51  1  0  0  0
 50119  1  0  0  0
 50120  1  0  0  0
 51 52  1  0  0  0
 51121  1  0  0  0
 51122  1  0  0  0
 52123  1  0  0  0
 52124  1  0  0  0
 53 54  1  0  0  0
 54 55  2  0  0  0
 54125  1  0  0  0
 55 57  1  0  0  0
 55126  1  0  0  0
 56 69  2  0  0  0
 57 58  2  0  0  0
 57127  1  0  0  0
 58128  1  0  0  0
 59 60  1  0  0  0
 59 61  1  0  0  0
 59 62  1  0  0  0
 60129  1  0  0  0
 60130  1  0  0  0
 60131  1  0  0  0
 61132  1  0  0  0
 61133  1  0  0  0
 61134  1  0  0  0
 62135  1  0  0  0
 62136  1  0  0  0
 62137  1  0  0  0
 63 65  1  0  0  0
 63138  1  0  0  0
 63139  1  0  0  0
 63140  1  0  0  0
 64141  1  0  0  0
 65142  1  0  0  0
 68 81  1  0  0  0
 71 73  2  0  0  0
 71 82  1  0  0  0
 71143  1  0  0  0
 72 74  2  0  0  0
 72 82  1  0  0  0
 72144  1  0  0  0
 73 74  1  0  0  0
 73 78  1  0  0  0
 74 79  1  0  0  0
 75145  1  0  0  0
 75146  1  0  0  0
 75147  1  0  0  0
 75 80  1  0  0  0
 76 80  1  0  0  0
 76148  1  0  0  0
 76149  1  0  0  0
 76150  1  0  0  0
 77151  1  0  0  0
 77152  1  0  0  0
 77153  1  0  0  0
 77 81  1  0  0  0
 78 81  1  0  0  0
 78154  1  0  0  0
 78155  1  0  0  0
 79 83  1  0  0  0
 79156  1  0  0  0
 79157  1  0  0  0
 80 82  1  0  0  0
 80158  1  0  0  0
 81159  1  0  0  0
 83160  1  0  0  0
M  ISO  4   1 100  68 101  81 101  83 100
M  END
> <chiral flag>
0

> <version>
0

> <s_m_source_file>
/data/baiqing/PycharmProjects/Reinvent-master-3.2/result/LINK_invent/BTK/process_docking_weight1_custom_sum_contain_oxygen_bond_distance_aromatic_linkinvent_7_9_3/rearranged_h_0106.sdf

> <i_m_source_file_index>
29

> <r_mmod_Potential_Energy-OPLS-2005>
1236.12036132812

> <r_mmod_Stretch_Energy-OPLS-2005>
616.790832519531

> <r_mmod_Bend_Energy-OPLS-2005>
477.162139892578

> <r_mmod_Torsional_Energy-OPLS-2005>
229.019454956055

> <r_mmod_Improper_Torsional_Energy-OPLS-2005>
3.98430466651917

> <r_mmod_Van_der_Waal_Energy-OPLS-2005>
104.155364990234

> <r_mmod_Electrostatic_Energy-OPLS-2005>
-416.931915283203

> <r_mmod_Solvation_Energy-OPLS-2005>
-212.424560546875

> <b_mmod_Minimization_Converged-OPLS-2005>
0

> <r_mmod_RMS_Derivative-OPLS-2005>
1.86052620410919

$$$$
29
                    3D
 Structure written by MMmdl.
160168  0  0  1  0            999 V2000
  -30.6168  -14.7388   20.4883 C   0  0  0  0  0  0
  -30.4389  -12.4596   19.4615 C   0  0  0  0  0  0
  -29.5104  -12.5153   18.2283 C   0  0  0  0  0  0
  -28.0369  -12.3288   18.6438 C   0  0  0  0  0  0
  -27.6411  -13.2270   19.8453 C   0  0  2  0  0  0
  -28.6911  -13.1596   20.9764 C   0  0  0  0  0  0
  -25.2525  -13.8197   20.5680 C   0  0  0  0  0  0
  -24.1796  -13.0441   20.9186 C   0  0  0  0  0  0
  -24.6384  -11.6919   20.8713 C   0  0  0  0  0  0
  -23.9049  -10.4293   21.0377 C   0  0  0  0  0  0
  -24.3606   -9.4222   21.9161 C   0  0  0  0  0  0
  -23.6296   -8.2243   22.0742 C   0  0  0  0  0  0
  -22.4281   -8.0266   21.3534 C   0  0  0  0  0  0
  -21.9891   -9.0231   20.4627 C   0  0  0  0  0  0
  -22.7204  -10.2129   20.3037 C   0  0  0  0  0  0
  -21.6859   -6.0718   22.5266 C   0  0  0  0  0  0
  -21.4017   -6.5628   23.8205 C   0  0  0  0  0  0
  -21.3679   -5.6782   24.9170 C   0  0  0  0  0  0
  -21.6056   -4.3039   24.7219 C   0  0  0  0  0  0
  -21.8830   -3.8132   23.4336 C   0  0  0  0  0  0
  -21.9206   -4.6944   22.3390 C   0  0  0  0  0  0
  -22.7813  -13.5215   21.1847 C   0  0  0  0  0  0
  -22.1663   -4.2134   21.0962 F   0  0  0  0  0  0
  -21.5639   -3.4523   25.7733 F   0  0  0  0  0  0
  -29.9874  -13.5185   20.3874 N   0  0  0  0  0  0
  -26.2935  -12.9377   20.3264 N   0  0  0  0  0  0
  -25.9312  -11.6522   20.5713 N   0  0  0  0  0  0
  -22.0473  -12.8196   22.0413 N   0  0  0  0  0  0
  -25.4253  -15.1928   20.4146 N   0  0  0  0  0  0
  -31.8204  -14.8373   20.2411 O   0  0  0  0  0  0
  -21.6656   -6.8860   21.4229 O   0  0  0  0  0  0
  -22.3474  -14.5503   20.6692 O   0  0  0  0  0  0
  -24.6269  -31.8524   23.1963 C   0  0  0  0  0  0
  -25.9088  -32.4730   23.8321 C   0  0  1  0  0  0
  -27.2472  -27.2680   20.1609 C   0  0  0  0  0  0
  -25.5874  -33.8536   24.2229 N   0  0  0  0  0  0
  -23.4276  -30.4701   21.5342 C   0  0  2  0  0  0
  -24.8876  -28.9054   20.1224 C   0  0  0  0  0  0
  -22.7464  -29.4598   22.4883 C   0  0  0  0  0  0
  -18.0290  -28.1384   22.8488 C   0  0  0  0  0  0
  -24.1499  -36.7302   23.2644 C   0  0  0  0  0  0
  -25.9734  -30.7729   21.3742 C   0  0  0  0  0  0
  -26.0559  -29.3923   20.7229 C   0  0  0  0  0  0
  -27.2408  -28.5891   20.7219 C   0  0  0  0  0  0
  -26.0561  -26.8380   19.5410 C   0  0  0  0  0  0
  -24.8911  -27.6326   19.5235 C   0  0  0  0  0  0
  -23.6519  -29.7847   20.1590 C   0  0  0  0  0  0
  -25.4122  -36.3051   24.0314 C   0  0  1  0  0  0
  -20.5881  -28.3689   23.1263 C   0  0  2  0  0  0
  -20.6769  -26.9401   22.5398 C   0  0  0  0  0  0
  -19.5752  -26.6377   21.5184 C   0  0  0  0  0  0
  -18.1936  -26.7942   22.1611 C   0  0  0  0  0  0
  -19.1537  -28.8857   23.2882 C   0  0  0  0  0  0
  -18.9451  -30.1463   23.8900 C   0  0  0  0  0  0
  -17.6451  -30.6589   24.0551 C   0  0  0  0  0  0
  -25.9034  -34.9416   23.5088 C   0  0  0  0  0  0
  -16.5348  -29.9078   23.6346 C   0  0  0  0  0  0
  -16.7268  -28.6492   23.0376 C   0  0  0  0  0  0
  -26.4472  -31.6581   25.0722 C   0  0  0  0  0  0
  -25.3708  -31.3714   26.1452 C   0  0  0  0  0  0
  -27.0319  -30.2977   24.6259 C   0  0  0  0  0  0
  -27.6023  -32.4353   25.7480 C   0  0  0  0  0  0
  -27.5586  -37.1790   24.8454 C   0  0  0  0  0  0
  -21.4171  -29.3032   22.3625 N   0  0  0  0  0  0
  -26.4303  -37.3735   23.9399 N   0  0  0  0  0  0
  -24.6951  -31.0497   22.0918 N   0  0  0  0  0  0
  -23.4162  -28.8160   23.3001 O   0  0  0  0  0  0
  -28.3608  -26.4002   20.1610 O   0  0  0  0  0  0
  -26.5616  -34.8891   22.4660 O   0  0  0  0  0  0
  -23.5415  -32.1327   23.7259 O   0  0  0  0  0  0
  -30.8104  -17.4733   22.1586 C   0  0  0  0  0  0
  -30.4323  -19.9081   22.0682 C   0  0  0  0  0  0
  -29.5243  -18.4575   20.3467 C   0  0  0  0  0  0
  -30.9746  -18.7653   22.7107 C   0  0  0  0  0  0
  -30.0794  -17.2628   20.9712 C   0  0  0  0  0  0
  -29.6862  -19.8102   20.8681 C   0  0  0  0  0  0
  -30.7676  -19.4147   25.1477 C   0  0  0  0  0  0
  -32.9638  -19.7847   23.9372 C   0  0  0  0  0  0
  -28.8019  -23.6698   20.0663 C   0  0  0  0  0  0
  -28.2456  -25.0283   20.7696 C   0  0  0  0  0  0
  -28.8388  -22.2675   20.8925 C   0  0  0  0  0  0
  -31.7072  -18.9093   24.0427 C   0  0  0  0  0  0
  -29.8082  -15.8664   20.5530 N   0  0  0  0  0  0
  -29.1807  -20.9760   20.2071 O   0  0  0  0  0  0
  -31.4788  -12.5956   19.1588 H   0  0  0  0  0  0
  -30.3896  -11.4828   19.9452 H   0  0  0  0  0  0
  -29.7932  -11.7540   17.5002 H   0  0  0  0  0  0
  -29.6323  -13.4789   17.7309 H   0  0  0  0  0  0
  -27.8964  -11.2790   18.9038 H   0  0  0  0  0  0
  -27.3779  -12.5250   17.7975 H   0  0  0  0  0  0
  -27.6325  -14.2460   19.4596 H   0  0  0  0  0  0
  -28.7333  -12.1616   21.4141 H   0  0  0  0  0  0
  -28.4302  -13.8406   21.7889 H   0  0  0  0  0  0
  -25.2763   -9.5715   22.4722 H   0  0  0  0  0  0
  -24.0028   -7.4644   22.7463 H   0  0  0  0  0  0
  -21.0823   -8.8726   19.8929 H   0  0  0  0  0  0
  -22.3645  -10.9651   19.6138 H   0  0  0  0  0  0
  -21.2009   -7.6140   23.9696 H   0  0  0  0  0  0
  -21.1485   -6.0508   25.9071 H   0  0  0  0  0  0
  -22.0600   -2.7589   23.2839 H   0  0  0  0  0  0
  -22.4116  -11.9879   22.4821 H   0  0  0  0  0  0
  -21.1077  -13.1176   22.2622 H   0  0  0  0  0  0
  -24.6620  -15.8489   20.5405 H   0  0  0  0  0  0
  -26.2786  -15.6381   20.1027 H   0  0  0  0  0  0
  -26.7159  -32.5391   23.1075 H   0  0  0  0  0  0
  -24.9988  -33.9680   25.0349 H   0  0  0  0  0  0
  -22.7238  -31.2898   21.3721 H   0  0  0  0  0  0
  -23.3725  -35.9661   23.3295 H   0  0  0  0  0  0
  -24.3593  -36.8945   22.2059 H   0  0  0  0  0  0
  -23.7295  -37.6515   23.6693 H   0  0  0  0  0  0
  -26.1099  -31.5328   20.6032 H   0  0  0  0  0  0
  -26.8494  -30.8280   22.0097 H   0  0  0  0  0  0
  -28.1452  -28.9659   21.1808 H   0  0  0  0  0  0
  -26.0282  -25.8592   19.0832 H   0  0  0  0  0  0
  -23.9921  -27.2465   19.0631 H   0  0  0  0  0  0
  -23.7647  -30.5469   19.3876 H   0  0  0  0  0  0
  -22.7796  -29.1972   19.8667 H   0  0  0  0  0  0
  -25.1304  -36.1889   25.0799 H   0  0  0  0  0  0
  -20.9986  -28.3274   24.1374 H   0  0  0  0  0  0
  -20.5646  -26.2284   23.3595 H   0  0  0  0  0  0
  -21.6650  -26.7419   22.1200 H   0  0  0  0  0  0
  -19.6914  -25.6273   21.1257 H   0  0  0  0  0  0
  -19.6727  -27.3154   20.6692 H   0  0  0  0  0  0
  -17.4199  -26.6672   21.4019 H   0  0  0  0  0  0
  -18.0363  -26.0068   22.9000 H   0  0  0  0  0  0
  -19.7913  -30.7277   24.2273 H   0  0  0  0  0  0
  -17.4996  -31.6274   24.5135 H   0  0  0  0  0  0
  -15.5353  -30.2971   23.7677 H   0  0  0  0  0  0
  -15.8668  -28.0800   22.7126 H   0  0  0  0  0  0
  -24.5880  -30.7067   25.7786 H   0  0  0  0  0  0
  -24.8900  -32.2870   26.4914 H   0  0  0  0  0  0
  -25.8040  -30.8873   27.0217 H   0  0  0  0  0  0
  -26.2904  -29.6705   24.1299 H   0  0  0  0  0  0
  -27.3958  -29.7278   25.4826 H   0  0  0  0  0  0
  -27.8808  -30.4203   23.9528 H   0  0  0  0  0  0
  -27.2620  -33.3669   26.2029 H   0  0  0  0  0  0
  -28.3836  -32.6911   25.0306 H   0  0  0  0  0  0
  -28.0688  -31.8506   26.5419 H   0  0  0  0  0  0
  -28.2567  -38.0110   24.7490 H   0  0  0  0  0  0
  -28.1122  -36.2643   24.6299 H   0  0  0  0  0  0
  -27.2310  -37.1454   25.8852 H   0  0  0  0  0  0
  -20.9340  -29.8712   21.6803 H   0  0  0  0  0  0
  -26.0177  -38.2813   24.1360 H   0  0  0  0  0  0
  -31.2150  -16.6196   22.6858 H   0  0  0  0  0  0
  -30.6183  -20.8685   22.5231 H   0  0  0  0  0  0
  -28.9515  -18.3423   19.4376 H   0  0  0  0  0  0
  -29.9174  -18.7451   25.2777 H   0  0  0  0  0  0
  -30.3767  -20.4088   24.9280 H   0  0  0  0  0  0
  -31.2867  -19.4684   26.1050 H   0  0  0  0  0  0
  -33.6575  -19.3888   23.1971 H   0  0  0  0  0  0
  -33.4942  -19.8133   24.8886 H   0  0  0  0  0  0
  -32.7287  -20.8145   23.6682 H   0  0  0  0  0  0
  -29.8126  -23.8627   19.7050 H   0  0  0  0  0  0
  -28.2107  -23.5007   19.1668 H   0  0  0  0  0  0
  -28.7765  -25.1204   21.7183 H   0  0  0  0  0  0
  -27.2111  -24.8495   21.0640 H   0  0  0  0  0  0
  -27.8303  -22.1177   21.2782 H   0  0  0  0  0  0
  -29.4505  -22.4231   21.7777 H   0  0  0  0  0  0
  -32.0447  -17.9170   24.3469 H   0  0  0  0  0  0
  -28.8352  -15.6635   20.3919 H   0  0  0  0  0  0
  1 25  1  0  0  0
  1 30  2  0  0  0
  1 83  1  0  0  0
  2  3  1  0  0  0
  2 25  1  0  0  0
  2 85  1  0  0  0
  2 86  1  0  0  0
  3  4  1  0  0  0
  3 87  1  0  0  0
  3 88  1  0  0  0
  4  5  1  0  0  0
  4 89  1  0  0  0
  4 90  1  0  0  0
  5  6  1  0  0  0
  5 26  1  0  0  0
  5 91  1  0  0  0
  6 25  1  0  0  0
  6 92  1  0  0  0
  6 93  1  0  0  0
  7  8  2  0  0  0
  7 26  1  0  0  0
  7 29  1  0  0  0
  8  9  1  0  0  0
  8 22  1  0  0  0
  9 10  1  0  0  0
  9 27  2  0  0  0
 10 11  2  0  0  0
 10 15  1  0  0  0
 11 12  1  0  0  0
 11 94  1  0  0  0
 12 13  2  0  0  0
 12 95  1  0  0  0
 13 14  1  0  0  0
 13 31  1  0  0  0
 14 15  2  0  0  0
 14 96  1  0  0  0
 15 97  1  0  0  0
 16 17  2  0  0  0
 16 21  1  0  0  0
 16 31  1  0  0  0
 17 18  1  0  0  0
 17 98  1  0  0  0
 18 19  2  0  0  0
 18 99  1  0  0  0
 19 20  1  0  0  0
 19 24  1  0  0  0
 20 21  2  0  0  0
 20100  1  0  0  0
 21 23  1  0  0  0
 22 28  1  0  0  0
 22 32  2  0  0  0
 26 27  1  0  0  0
 28101  1  0  0  0
 28102  1  0  0  0
 29103  1  0  0  0
 29104  1  0  0  0
 33 34  1  0  0  0
 33 66  1  0  0  0
 33 70  2  0  0  0
 34 36  1  0  0  0
 34 59  1  0  0  0
 34105  1  0  0  0
 35 44  2  0  0  0
 35 45  1  0  0  0
 35 68  1  0  0  0
 36 56  1  0  0  0
 36106  1  0  0  0
 37 39  1  0  0  0
 37 47  1  0  0  0
 37 66  1  0  0  0
 37107  1  0  0  0
 38 43  2  0  0  0
 38 46  1  0  0  0
 38 47  1  0  0  0
 39 64  1  0  0  0
 39 67  2  0  0  0
 40 52  1  0  0  0
 40 53  2  0  0  0
 40 58  1  0  0  0
 41108  1  0  0  0
 41109  1  0  0  0
 41110  1  0  0  0
 41 48  1  0  0  0
 42 43  1  0  0  0
 42 66  1  0  0  0
 42111  1  0  0  0
 42112  1  0  0  0
 43 44  1  0  0  0
 44113  1  0  0  0
 45 46  2  0  0  0
 45114  1  0  0  0
 46115  1  0  0  0
 47116  1  0  0  0
 47117  1  0  0  0
 48 56  1  0  0  0
 48 65  1  0  0  0
 48118  1  0  0  0
 49 50  1  0  0  0
 49 53  1  0  0  0
 49 64  1  0  0  0
 49119  1  0  0  0
 50 51  1  0  0  0
 50120  1  0  0  0
 50121  1  0  0  0
 51 52  1  0  0  0
 51122  1  0  0  0
 51123  1  0  0  0
 52124  1  0  0  0
 52125  1  0  0  0
 53 54  1  0  0  0
 54 55  2  0  0  0
 54126  1  0  0  0
 55 57  1  0  0  0
 55127  1  0  0  0
 56 69  2  0  0  0
 57 58  2  0  0  0
 57128  1  0  0  0
 58129  1  0  0  0
 59 60  1  0  0  0
 59 61  1  0  0  0
 59 62  1  0  0  0
 60130  1  0  0  0
 60131  1  0  0  0
 60132  1  0  0  0
 61133  1  0  0  0
 61134  1  0  0  0
 61135  1  0  0  0
 62136  1  0  0  0
 62137  1  0  0  0
 62138  1  0  0  0
 63 65  1  0  0  0
 63139  1  0  0  0
 63140  1  0  0  0
 63141  1  0  0  0
 64142  1  0  0  0
 65143  1  0  0  0
 68 80  1  0  0  0
 71 74  2  0  0  0
 71 75  1  0  0  0
 71144  1  0  0  0
 72 74  1  0  0  0
 72 76  2  0  0  0
 72145  1  0  0  0
 73 75  2  0  0  0
 73 76  1  0  0  0
 73146  1  0  0  0
 74 82  1  0  0  0
 75 83  1  0  0  0
 76 84  1  0  0  0
 77147  1  0  0  0
 77148  1  0  0  0
 77149  1  0  0  0
 77 82  1  0  0  0
 78 82  1  0  0  0
 78150  1  0  0  0
 78151  1  0  0  0
 78152  1  0  0  0
 79 80  1  0  0  0
 79 81  1  0  0  0
 79153  1  0  0  0
 79154  1  0  0  0
 80155  1  0  0  0
 80156  1  0  0  0
 81 84  1  0  0  0
 81157  1  0  0  0
 81158  1  0  0  0
 82159  1  0  0  0
 83160  1  0  0  0
M  ISO  4   1 100  68 101  80 101  83 100
M  END
> <chiral flag>
0

> <version>
0

> <s_m_source_file>
/data/baiqing/PycharmProjects/Reinvent-master-3.2/result/LINK_invent/BTK/process_docking_weight1_custom_sum_contain_oxygen_bond_distance_aromatic_linkinvent_7_9_3/rearranged_h_0106.sdf

> <i_m_source_file_index>
30

> <r_mmod_Potential_Energy-OPLS-2005>
195.013824462891

> <r_mmod_Stretch_Energy-OPLS-2005>
127.276878356934

> <r_mmod_Bend_Energy-OPLS-2005>
170.795013427734

> <r_mmod_Torsional_Energy-OPLS-2005>
258.32177734375

> <r_mmod_Improper_Torsional_Energy-OPLS-2005>
8.47677612304688

> <r_mmod_Van_der_Waal_Energy-OPLS-2005>
132.982009887695

> <r_mmod_Electrostatic_Energy-OPLS-2005>
-375.505004882812

> <r_mmod_Solvation_Energy-OPLS-2005>
-209.992294311523

> <b_mmod_Minimization_Converged-OPLS-2005>
0

> <r_mmod_RMS_Derivative-OPLS-2005>
3.42318654060364

$$$$
30
                    3D
 Structure written by MMmdl.
173180  0  0  1  0            999 V2000
  -30.6134  -14.6678   20.4880 C   0  0  0  0  0  0
  -30.4369  -12.4070   19.4661 C   0  0  0  0  0  0
  -29.5119  -12.5096   18.2327 C   0  0  0  0  0  0
  -28.0340  -12.3461   18.6410 C   0  0  0  0  0  0
  -27.6518  -13.2217   19.8638 C   0  0  2  0  0  0
  -28.6939  -13.0950   20.9986 C   0  0  0  0  0  0
  -25.2553  -13.8184   20.5688 C   0  0  0  0  0  0
  -24.1827  -13.0442   20.9189 C   0  0  0  0  0  0
  -24.6400  -11.6913   20.8735 C   0  0  0  0  0  0
  -23.9073  -10.4294   21.0404 C   0  0  0  0  0  0
  -24.3623   -9.4207   21.9182 C   0  0  0  0  0  0
  -23.6293   -8.2243   22.0756 C   0  0  0  0  0  0
  -22.4275   -8.0280   21.3537 C   0  0  0  0  0  0
  -21.9910   -9.0263   20.4648 C   0  0  0  0  0  0
  -22.7241  -10.2144   20.3056 C   0  0  0  0  0  0
  -21.6850   -6.0735   22.5277 C   0  0  0  0  0  0
  -21.4015   -6.5638   23.8213 C   0  0  0  0  0  0
  -21.3657   -5.6792   24.9174 C   0  0  0  0  0  0
  -21.6041   -4.3056   24.7226 C   0  0  0  0  0  0
  -21.8822   -3.8146   23.4351 C   0  0  0  0  0  0
  -21.9190   -4.6961   22.3403 C   0  0  0  0  0  0
  -22.7853  -13.5233   21.1852 C   0  0  0  0  0  0
  -22.1656   -4.2143   21.0981 F   0  0  0  0  0  0
  -21.5624   -3.4541   25.7745 F   0  0  0  0  0  0
  -30.0092  -13.4373   20.4368 N   0  0  0  0  0  0
  -26.2976  -12.9368   20.3311 N   0  0  0  0  0  0
  -25.9326  -11.6518   20.5746 N   0  0  0  0  0  0
  -22.0488  -12.8231   22.0408 N   0  0  0  0  0  0
  -25.4265  -15.1906   20.4116 N   0  0  0  0  0  0
  -31.7653  -14.8327   20.0821 O   0  0  0  0  0  0
  -21.6631   -6.8883   21.4240 O   0  0  0  0  0  0
  -22.3544  -14.5540   20.6697 O   0  0  0  0  0  0
  -24.6280  -31.8581   23.1997 C   0  0  0  0  0  0
  -25.9128  -32.4775   23.8329 C   0  0  1  0  0  0
  -27.2209  -27.2947   20.1408 C   0  0  0  0  0  0
  -25.5941  -33.8570   24.2266 N   0  0  0  0  0  0
  -23.4229  -30.4796   21.5404 C   0  0  2  0  0  0
  -24.8716  -28.9279   20.1094 C   0  0  0  0  0  0
  -22.7487  -29.4618   22.4914 C   0  0  0  0  0  0
  -18.0289  -28.1391   22.8494 C   0  0  0  0  0  0
  -24.1476  -36.7273   23.2637 C   0  0  0  0  0  0
  -25.9637  -30.7822   21.3730 C   0  0  0  0  0  0
  -26.0379  -29.4045   20.7219 C   0  0  0  0  0  0
  -27.2179  -28.6002   20.7256 C   0  0  0  0  0  0
  -26.0440  -26.8829   19.4812 C   0  0  0  0  0  0
  -24.8775  -27.6736   19.4772 C   0  0  0  0  0  0
  -23.6402  -29.8109   20.1566 C   0  0  0  0  0  0
  -25.4110  -36.3079   24.0329 C   0  0  1  0  0  0
  -20.5893  -28.3700   23.1280 C   0  0  2  0  0  0
  -20.6780  -26.9423   22.5411 C   0  0  0  0  0  0
  -19.5743  -26.6391   21.5223 C   0  0  0  0  0  0
  -18.1924  -26.7934   22.1634 C   0  0  0  0  0  0
  -19.1545  -28.8861   23.2884 C   0  0  0  0  0  0
  -18.9467  -30.1463   23.8897 C   0  0  0  0  0  0
  -17.6467  -30.6596   24.0569 C   0  0  0  0  0  0
  -25.9053  -34.9450   23.5100 C   0  0  0  0  0  0
  -16.5358  -29.9099   23.6330 C   0  0  0  0  0  0
  -16.7278  -28.6516   23.0356 C   0  0  0  0  0  0
  -26.4509  -31.6588   25.0705 C   0  0  0  0  0  0
  -25.3741  -31.3737   26.1433 C   0  0  0  0  0  0
  -27.0349  -30.3006   24.6176 C   0  0  0  0  0  0
  -27.6062  -32.4316   25.7490 C   0  0  0  0  0  0
  -27.5572  -37.1800   24.8472 C   0  0  0  0  0  0
  -21.4196  -29.3046   22.3661 N   0  0  0  0  0  0
  -26.4283  -37.3785   23.9416 N   0  0  0  0  0  0
  -24.6901  -31.0574   22.0949 N   0  0  0  0  0  0
  -23.4202  -28.8180   23.3020 O   0  0  0  0  0  0
  -28.3256  -26.4242   20.1779 O   0  0  0  0  0  0
  -26.5622  -34.8925   22.4667 O   0  0  0  0  0  0
  -23.5442  -32.1388   23.7315 O   0  0  0  0  0  0
  -27.6299  -19.3323   20.6961 C   0  0  0  0  0  0
  -27.8604  -23.6036   18.7448 C   0  0  0  0  0  0
  -26.9391  -24.8422   21.6318 C   0  0  0  0  0  0
  -31.5061  -18.9852   20.8580 C   0  0  0  0  0  0
  -30.9674  -16.5027   24.4234 C   0  0  0  0  0  0
  -29.8241  -17.1655   20.2737 C   0  0  0  0  0  0
  -29.4119  -21.1694   20.3192 C   0  0  0  0  0  0
  -30.0686  -18.0643   22.7091 C   0  0  0  0  0  0
  -29.0583  -19.7741   21.0699 C   0  0  2  0  0  0
  -28.6962  -23.7467   20.0303 C   0  0  1  0  0  0
  -28.2464  -25.0754   20.8407 C   0  0  1  0  0  0
  -30.0830  -18.4838   21.1997 C   0  0  1  0  0  0
  -29.8230  -15.7430   20.8282 N   0  0  0  0  0  0
  -31.1185  -17.0875   23.0764 N   0  3  0  0  0  0
  -28.6856  -22.4251   20.8248 N   0  3  0  0  0  0
  -31.4787  -12.5292   19.1652 H   0  0  0  0  0  0
  -30.3719  -11.4134   19.9136 H   0  0  0  0  0  0
  -29.7799  -11.7521   17.4957 H   0  0  0  0  0  0
  -29.6544  -13.4746   17.7439 H   0  0  0  0  0  0
  -27.8723  -11.2933   18.8754 H   0  0  0  0  0  0
  -27.3825  -12.5722   17.7959 H   0  0  0  0  0  0
  -27.6653  -14.2540   19.5141 H   0  0  0  0  0  0
  -28.7073  -12.0783   21.3956 H   0  0  0  0  0  0
  -28.4353  -13.7406   21.8389 H   0  0  0  0  0  0
  -25.2778   -9.5670   22.4745 H   0  0  0  0  0  0
  -23.9994   -7.4637   22.7481 H   0  0  0  0  0  0
  -21.0839   -8.8786   19.8964 H   0  0  0  0  0  0
  -22.3701  -10.9680   19.6165 H   0  0  0  0  0  0
  -21.2009   -7.6149   23.9708 H   0  0  0  0  0  0
  -21.1475   -6.0530   25.9075 H   0  0  0  0  0  0
  -22.0606   -2.7607   23.2857 H   0  0  0  0  0  0
  -22.4101  -11.9890   22.4791 H   0  0  0  0  0  0
  -21.1096  -13.1248   22.2597 H   0  0  0  0  0  0
  -24.6541  -15.8403   20.5118 H   0  0  0  0  0  0
  -26.2654  -15.6269   20.0530 H   0  0  0  0  0  0
  -26.7200  -32.5451   23.1077 H   0  0  0  0  0  0
  -25.0131  -33.9708   25.0441 H   0  0  0  0  0  0
  -22.7184  -31.3007   21.3956 H   0  0  0  0  0  0
  -23.3749  -35.9593   23.3313 H   0  0  0  0  0  0
  -24.3558  -36.8876   22.2047 H   0  0  0  0  0  0
  -23.7204  -37.6474   23.6640 H   0  0  0  0  0  0
  -26.0951  -31.5400   20.5995 H   0  0  0  0  0  0
  -26.8441  -30.8349   22.0019 H   0  0  0  0  0  0
  -28.1122  -28.9625   21.2132 H   0  0  0  0  0  0
  -26.0168  -25.9230   18.9870 H   0  0  0  0  0  0
  -23.9867  -27.3072   18.9850 H   0  0  0  0  0  0
  -23.7620  -30.5856   19.3988 H   0  0  0  0  0  0
  -22.7592  -29.2423   19.8525 H   0  0  0  0  0  0
  -25.1288  -36.1929   25.0822 H   0  0  0  0  0  0
  -20.9989  -28.3273   24.1400 H   0  0  0  0  0  0
  -20.5679  -26.2316   23.3618 H   0  0  0  0  0  0
  -21.6650  -26.7437   22.1211 H   0  0  0  0  0  0
  -19.6895  -25.6303   21.1245 H   0  0  0  0  0  0
  -19.6673  -27.3204   20.6756 H   0  0  0  0  0  0
  -17.4201  -26.6696   21.4031 H   0  0  0  0  0  0
  -18.0314  -26.0071   22.9022 H   0  0  0  0  0  0
  -19.7945  -30.7288   24.2252 H   0  0  0  0  0  0
  -17.5025  -31.6272   24.5184 H   0  0  0  0  0  0
  -15.5360  -30.3011   23.7648 H   0  0  0  0  0  0
  -15.8679  -28.0839   22.7067 H   0  0  0  0  0  0
  -24.5904  -30.7098   25.7771 H   0  0  0  0  0  0
  -24.8955  -32.2914   26.4857 H   0  0  0  0  0  0
  -25.8070  -30.8914   27.0203 H   0  0  0  0  0  0
  -26.2927  -29.6762   24.1193 H   0  0  0  0  0  0
  -27.4028  -29.7258   25.4686 H   0  0  0  0  0  0
  -27.8804  -30.4293   23.9416 H   0  0  0  0  0  0
  -27.2671  -33.3610   26.2075 H   0  0  0  0  0  0
  -28.3892  -32.6881   25.0342 H   0  0  0  0  0  0
  -28.0715  -31.8432   26.5411 H   0  0  0  0  0  0
  -28.2618  -38.0075   24.7523 H   0  0  0  0  0  0
  -28.1035  -36.2608   24.6295 H   0  0  0  0  0  0
  -27.2289  -37.1468   25.8876 H   0  0  0  0  0  0
  -20.9372  -29.8756   21.6859 H   0  0  0  0  0  0
  -26.0156  -38.2852   24.1431 H   0  0  0  0  0  0
  -26.9017  -20.1236   20.8741 H   0  0  0  0  0  0
  -27.3107  -18.4725   21.2866 H   0  0  0  0  0  0
  -27.5536  -19.0641   19.6418 H   0  0  0  0  0  0
  -27.8777  -24.5276   18.1658 H   0  0  0  0  0  0
  -26.8172  -23.3760   18.9663 H   0  0  0  0  0  0
  -28.2416  -22.8171   18.0952 H   0  0  0  0  0  0
  -27.0303  -24.0012   22.3171 H   0  0  0  0  0  0
  -26.0922  -24.6339   20.9799 H   0  0  0  0  0  0
  -26.6885  -25.7071   22.2458 H   0  0  0  0  0  0
  -32.2513  -18.1911   20.9172 H   0  0  0  0  0  0
  -31.8292  -19.7855   21.5244 H   0  0  0  0  0  0
  -31.5558  -19.3642   19.8367 H   0  0  0  0  0  0
  -31.7623  -15.7814   24.6133 H   0  0  0  0  0  0
  -30.0138  -15.9827   24.5221 H   0  0  0  0  0  0
  -31.0216  -17.2728   25.1931 H   0  0  0  0  0  0
  -28.8537  -17.2541   19.7920 H   0  0  0  0  0  0
  -30.5101  -17.1871   19.4249 H   0  0  0  0  0  0
  -29.2222  -21.0466   19.2529 H   0  0  0  0  0  0
  -30.4749  -21.3887   20.4029 H   0  0  0  0  0  0
  -29.0884  -17.6554   22.9578 H   0  0  0  0  0  0
  -30.2124  -18.9295   23.3587 H   0  0  0  0  0  0
  -28.9531  -20.1305   22.0945 H   0  0  0  0  0  0
  -29.7318  -23.9133   19.7290 H   0  0  0  0  0  0
  -29.0067  -25.1781   21.6155 H   0  0  0  0  0  0
  -28.9219  -15.4484   21.1804 H   0  0  0  0  0  0
  -31.0918  -16.3436   22.3961 H   0  0  0  0  0  0
  -32.0221  -17.5290   23.0161 H   0  0  0  0  0  0
  -29.0745  -22.6194   21.7354 H   0  0  0  0  0  0
  -27.7218  -22.1736   20.9773 H   0  0  0  0  0  0
  1 25  1  0  0  0
  1 30  2  0  0  0
  1 83  1  0  0  0
  2  3  1  0  0  0
  2 25  1  0  0  0
  2 86  1  0  0  0
  2 87  1  0  0  0
  3  4  1  0  0  0
  3 88  1  0  0  0
  3 89  1  0  0  0
  4  5  1  0  0  0
  4 90  1  0  0  0
  4 91  1  0  0  0
  5  6  1  0  0  0
  5 26  1  0  0  0
  5 92  1  0  0  0
  6 25  1  0  0  0
  6 93  1  0  0  0
  6 94  1  0  0  0
  7  8  2  0  0  0
  7 26  1  0  0  0
  7 29  1  0  0  0
  8  9  1  0  0  0
  8 22  1  0  0  0
  9 10  1  0  0  0
  9 27  2  0  0  0
 10 11  2  0  0  0
 10 15  1  0  0  0
 11 12  1  0  0  0
 11 95  1  0  0  0
 12 13  2  0  0  0
 12 96  1  0  0  0
 13 14  1  0  0  0
 13 31  1  0  0  0
 14 15  2  0  0  0
 14 97  1  0  0  0
 15 98  1  0  0  0
 16 17  2  0  0  0
 16 21  1  0  0  0
 16 31  1  0  0  0
 17 18  1  0  0  0
 17 99  1  0  0  0
 18 19  2  0  0  0
 18100  1  0  0  0
 19 20  1  0  0  0
 19 24  1  0  0  0
 20 21  2  0  0  0
 20101  1  0  0  0
 21 23  1  0  0  0
 22 28  1  0  0  0
 22 32  2  0  0  0
 26 27  1  0  0  0
 28102  1  0  0  0
 28103  1  0  0  0
 29104  1  0  0  0
 29105  1  0  0  0
 33 34  1  0  0  0
 33 66  1  0  0  0
 33 70  2  0  0  0
 34 36  1  0  0  0
 34 59  1  0  0  0
 34106  1  0  0  0
 35 44  2  0  0  0
 35 45  1  0  0  0
 35 68  1  0  0  0
 36 56  1  0  0  0
 36107  1  0  0  0
 37 39  1  0  0  0
 37 47  1  0  0  0
 37 66  1  0  0  0
 37108  1  0  0  0
 38 43  2  0  0  0
 38 46  1  0  0  0
 38 47  1  0  0  0
 39 64  1  0  0  0
 39 67  2  0  0  0
 40 52  1  0  0  0
 40 53  2  0  0  0
 40 58  1  0  0  0
 41109  1  0  0  0
 41110  1  0  0  0
 41111  1  0  0  0
 41 48  1  0  0  0
 42 43  1  0  0  0
 42 66  1  0  0  0
 42112  1  0  0  0
 42113  1  0  0  0
 43 44  1  0  0  0
 44114  1  0  0  0
 45 46  2  0  0  0
 45115  1  0  0  0
 46116  1  0  0  0
 47117  1  0  0  0
 47118  1  0  0  0
 48 56  1  0  0  0
 48 65  1  0  0  0
 48119  1  0  0  0
 49 50  1  0  0  0
 49 53  1  0  0  0
 49 64  1  0  0  0
 49120  1  0  0  0
 50 51  1  0  0  0
 50121  1  0  0  0
 50122  1  0  0  0
 51 52  1  0  0  0
 51123  1  0  0  0
 51124  1  0  0  0
 52125  1  0  0  0
 52126  1  0  0  0
 53 54  1  0  0  0
 54 55  2  0  0  0
 54127  1  0  0  0
 55 57  1  0  0  0
 55128  1  0  0  0
 56 69  2  0  0  0
 57 58  2  0  0  0
 57129  1  0  0  0
 58130  1  0  0  0
 59 60  1  0  0  0
 59 61  1  0  0  0
 59 62  1  0  0  0
 60131  1  0  0  0
 60132  1  0  0  0
 60133  1  0  0  0
 61134  1  0  0  0
 61135  1  0  0  0
 61136  1  0  0  0
 62137  1  0  0  0
 62138  1  0  0  0
 62139  1  0  0  0
 63 65  1  0  0  0
 63140  1  0  0  0
 63141  1  0  0  0
 63142  1  0  0  0
 64143  1  0  0  0
 65144  1  0  0  0
 68 81  1  0  0  0
 71145  1  0  0  0
 71146  1  0  0  0
 71147  1  0  0  0
 71 79  1  0  0  0
 72148  1  0  0  0
 72149  1  0  0  0
 72150  1  0  0  0
 72 80  1  0  0  0
 73151  1  0  0  0
 73152  1  0  0  0
 73153  1  0  0  0
 73 81  1  0  0  0
 74154  1  0  0  0
 74155  1  0  0  0
 74156  1  0  0  0
 74 82  1  0  0  0
 75 84  1  0  0  0
 75157  1  0  0  0
 75158  1  0  0  0
 75159  1  0  0  0
 76 82  1  0  0  0
 76 83  1  0  0  0
 76160  1  0  0  0
 76161  1  0  0  0
 77 79  1  0  0  0
 77 85  1  0  0  0
 77162  1  0  0  0
 77163  1  0  0  0
 78 82  1  0  0  0
 78 84  1  0  0  0
 78164  1  0  0  0
 78165  1  0  0  0
 79 82  1  0  0  0
 79166  1  0  0  0
 80 81  1  0  0  0
 80 85  1  0  0  0
 80167  1  0  0  0
 81168  1  0  0  0
 83169  1  0  0  0
 84170  1  0  0  0
 84171  1  0  0  0
 85172  1  0  0  0
 85173  1  0  0  0
M  CHG  2  84   1  85   1
M  ISO  4   1 100  68 101  81 101  83 100
M  END
> <chiral flag>
0

> <version>
0

> <s_m_source_file>
/data/baiqing/PycharmProjects/Reinvent-master-3.2/result/LINK_invent/BTK/process_docking_weight1_custom_sum_contain_oxygen_bond_distance_aromatic_linkinvent_7_9_3/rearranged_h_0106.sdf

> <i_m_source_file_index>
31

> <r_mmod_Potential_Energy-OPLS-2005>
-49.838737487793

> <r_mmod_Stretch_Energy-OPLS-2005>
128.40950012207

> <r_mmod_Bend_Energy-OPLS-2005>
190.659240722656

> <r_mmod_Torsional_Energy-OPLS-2005>
322.142822265625

> <r_mmod_Improper_Torsional_Energy-OPLS-2005>
6.13382005691528

> <r_mmod_Van_der_Waal_Energy-OPLS-2005>
127.668067932129

> <r_mmod_Electrostatic_Energy-OPLS-2005>
11.6625747680664

> <r_mmod_Solvation_Energy-OPLS-2005>
-896.214111328125

> <b_mmod_Minimization_Converged-OPLS-2005>
0

> <r_mmod_RMS_Derivative-OPLS-2005>
1.4251229763031

$$$$
31
                    3D
 Structure written by MMmdl.
165173  0  0  1  0            999 V2000
  -30.4440  -15.1651   20.4173 C   0  0  0  0  0  0
  -30.4398  -12.7514   19.5053 C   0  0  0  0  0  0
  -29.5264  -12.5792   18.2672 C   0  0  0  0  0  0
  -28.0709  -12.3084   18.6923 C   0  0  0  0  0  0
  -27.6144  -13.2611   19.8268 C   0  0  2  0  0  0
  -28.6499  -13.3697   20.9625 C   0  0  0  0  0  0
  -25.2384  -13.8217   20.5694 C   0  0  0  0  0  0
  -24.1718  -13.0422   20.9229 C   0  0  0  0  0  0
  -24.6359  -11.6926   20.8740 C   0  0  0  0  0  0
  -23.9051  -10.4288   21.0397 C   0  0  0  0  0  0
  -24.3604   -9.4213   21.9184 C   0  0  0  0  0  0
  -23.6289   -8.2243   22.0764 C   0  0  0  0  0  0
  -22.4274   -8.0263   21.3550 C   0  0  0  0  0  0
  -21.9912   -9.0228   20.4639 C   0  0  0  0  0  0
  -22.7225  -10.2121   20.3050 C   0  0  0  0  0  0
  -21.6848   -6.0719   22.5268 C   0  0  0  0  0  0
  -21.4016   -6.5628   23.8194 C   0  0  0  0  0  0
  -21.3672   -5.6781   24.9162 C   0  0  0  0  0  0
  -21.6051   -4.3047   24.7214 C   0  0  0  0  0  0
  -21.8824   -3.8133   23.4335 C   0  0  0  0  0  0
  -21.9196   -4.6946   22.3393 C   0  0  0  0  0  0
  -22.7739  -13.5217   21.1856 C   0  0  0  0  0  0
  -22.1665   -4.2138   21.0968 F   0  0  0  0  0  0
  -21.5639   -3.4530   25.7726 F   0  0  0  0  0  0
  -29.8884  -13.8669   20.3465 N   0  0  0  0  0  0
  -26.2804  -12.9474   20.3199 N   0  0  0  0  0  0
  -25.9295  -11.6599   20.5706 N   0  0  0  0  0  0
  -22.0387  -12.8217   22.0430 N   0  0  0  0  0  0
  -25.4030  -15.1925   20.4073 N   0  0  0  0  0  0
  -31.6663  -15.2043   20.2255 O   0  0  0  0  0  0
  -21.6651   -6.8858   21.4230 O   0  0  0  0  0  0
  -22.3434  -14.5506   20.6672 O   0  0  0  0  0  0
  -24.6599  -31.8274   23.1715 C   0  0  0  0  0  0
  -25.9296  -32.4603   23.8173 C   0  0  1  0  0  0
  -27.2132  -26.9568   20.1987 C   0  0  0  0  0  0
  -25.5984  -33.8417   24.2096 N   0  0  0  0  0  0
  -23.4716  -30.4388   21.5218 C   0  0  2  0  0  0
  -24.9234  -28.8283   20.1135 C   0  0  0  0  0  0
  -22.7639  -29.4464   22.4809 C   0  0  0  0  0  0
  -18.0319  -28.1402   22.8459 C   0  0  0  0  0  0
  -24.1501  -36.7205   23.2643 C   0  0  0  0  0  0
  -26.0377  -30.6467   21.3928 C   0  0  0  0  0  0
  -26.1063  -29.2380   20.7403 C   0  0  0  0  0  0
  -27.2487  -28.3249   20.7528 C   0  0  0  0  0  0
  -26.0026  -26.6890   19.5218 C   0  0  0  0  0  0
  -24.8951  -27.5747   19.4805 C   0  0  0  0  0  0
  -23.7067  -29.7503   20.1488 C   0  0  0  0  0  0
  -25.4142  -36.2974   24.0303 C   0  0  1  0  0  0
  -20.5934  -28.3748   23.1190 C   0  0  2  0  0  0
  -20.6790  -26.9435   22.5394 C   0  0  0  0  0  0
  -19.5765  -26.6377   21.5199 C   0  0  0  0  0  0
  -18.1949  -26.7938   22.1606 C   0  0  0  0  0  0
  -19.1576  -28.8897   23.2808 C   0  0  0  0  0  0
  -18.9483  -30.1490   23.8837 C   0  0  0  0  0  0
  -17.6474  -30.6590   24.0549 C   0  0  0  0  0  0
  -25.9108  -34.9354   23.5022 C   0  0  0  0  0  0
  -16.5369  -29.9071   23.6346 C   0  0  0  0  0  0
  -16.7298  -28.6493   23.0357 C   0  0  0  0  0  0
  -26.4567  -31.6519   25.0681 C   0  0  0  0  0  0
  -25.3694  -31.3732   26.1328 C   0  0  0  0  0  0
  -27.0465  -30.2894   24.6372 C   0  0  0  0  0  0
  -27.6081  -32.4309   25.7476 C   0  0  0  0  0  0
  -27.5581  -37.1755   24.8464 C   0  0  0  0  0  0
  -21.4313  -29.3049   22.3550 N   0  0  0  0  0  0
  -26.4290  -37.3706   23.9407 N   0  0  0  0  0  0
  -24.7447  -30.9973   22.0829 N   0  0  0  0  0  0
  -23.4206  -28.8046   23.3044 O   0  0  0  0  0  0
  -28.2316  -25.8806   20.2760 O   0  0  0  0  0  0
  -26.5705  -34.8887   22.4610 O   0  0  0  0  0  0
  -23.5686  -32.1230   23.6841 O   0  0  0  0  0  0
  -31.1041  -20.4092   19.1121 C   0  0  0  0  0  0
  -30.9498  -20.9830   20.5249 C   0  0  0  0  0  0
  -29.8154  -19.6447   18.8104 C   0  0  0  0  0  0
  -29.4290  -21.1586   20.7867 C   0  0  2  0  0  0
  -29.1280  -19.5082   20.1697 C   0  0  2  0  0  0
  -29.9233  -23.6064   21.6734 C   0  0  0  0  0  0
  -27.1481  -18.2416   19.0299 C   0  0  0  0  0  0
  -26.9009  -19.1157   21.3844 C   0  0  0  0  0  0
  -29.8594  -17.9978   20.8112 C   0  0  0  0  0  0
  -28.0024  -24.2539   20.2919 C   0  0  0  0  0  0
  -29.2021  -22.9495   20.4604 C   0  0  2  0  0  0
  -27.5880  -19.3323   20.0268 C   0  0  0  0  0  0
  -29.6413  -16.3889   20.5132 N   0  0  0  0  0  0
  -31.4568  -12.9681   19.1782 H   0  0  0  0  0  0
  -30.5018  -11.8233   20.0758 H   0  0  0  0  0  0
  -29.8928  -11.7761   17.6273 H   0  0  0  0  0  0
  -29.5558  -13.4884   17.6642 H   0  0  0  0  0  0
  -28.0119  -11.2719   19.0294 H   0  0  0  0  0  0
  -27.4016  -12.3888   17.8349 H   0  0  0  0  0  0
  -27.5488  -14.2448   19.3605 H   0  0  0  0  0  0
  -28.7984  -12.4090   21.4573 H   0  0  0  0  0  0
  -28.3053  -14.0600   21.7336 H   0  0  0  0  0  0
  -25.2756   -9.5698   22.4752 H   0  0  0  0  0  0
  -23.9991   -7.4650   22.7491 H   0  0  0  0  0  0
  -21.0851   -8.8732   19.8931 H   0  0  0  0  0  0
  -22.3688  -10.9638   19.6141 H   0  0  0  0  0  0
  -21.2019   -7.6134   23.9687 H   0  0  0  0  0  0
  -21.1493   -6.0522   25.9062 H   0  0  0  0  0  0
  -22.0602   -2.7596   23.2831 H   0  0  0  0  0  0
  -22.4036  -11.9928   22.4874 H   0  0  0  0  0  0
  -21.0977  -13.1203   22.2560 H   0  0  0  0  0  0
  -24.6256  -15.8365   20.5016 H   0  0  0  0  0  0
  -26.2326  -15.6259   20.0291 H   0  0  0  0  0  0
  -26.7367  -32.5161   23.0894 H   0  0  0  0  0  0
  -25.0088  -33.9499   25.0215 H   0  0  0  0  0  0
  -22.7839  -31.2708   21.3525 H   0  0  0  0  0  0
  -23.3784  -35.9512   23.3266 H   0  0  0  0  0  0
  -24.3583  -36.8887   22.2064 H   0  0  0  0  0  0
  -23.7235  -37.6375   23.6721 H   0  0  0  0  0  0
  -26.2114  -31.3890   20.6131 H   0  0  0  0  0  0
  -26.9003  -30.7060   22.0442 H   0  0  0  0  0  0
  -28.1496  -28.6407   21.2594 H   0  0  0  0  0  0
  -25.8844  -25.7288   19.0409 H   0  0  0  0  0  0
  -23.9941  -27.2575   18.9732 H   0  0  0  0  0  0
  -23.8500  -30.5159   19.3858 H   0  0  0  0  0  0
  -22.8174  -29.1968   19.8405 H   0  0  0  0  0  0
  -25.1339  -36.1773   25.0795 H   0  0  0  0  0  0
  -21.0022  -28.3348   24.1310 H   0  0  0  0  0  0
  -20.5658  -26.2369   23.3633 H   0  0  0  0  0  0
  -21.6658  -26.7406   22.1209 H   0  0  0  0  0  0
  -19.6929  -25.6274   21.1263 H   0  0  0  0  0  0
  -19.6707  -27.3158   20.6704 H   0  0  0  0  0  0
  -17.4223  -26.6682   21.4009 H   0  0  0  0  0  0
  -18.0343  -26.0087   22.9007 H   0  0  0  0  0  0
  -19.7957  -30.7323   24.2176 H   0  0  0  0  0  0
  -17.5022  -31.6262   24.5158 H   0  0  0  0  0  0
  -15.5362  -30.2945   23.7705 H   0  0  0  0  0  0
  -15.8698  -28.0790   22.7102 H   0  0  0  0  0  0
  -24.5930  -30.7037   25.7611 H   0  0  0  0  0  0
  -24.8820  -32.2908   26.4622 H   0  0  0  0  0  0
  -25.7927  -30.8982   27.0181 H   0  0  0  0  0  0
  -26.3122  -29.6565   24.1380 H   0  0  0  0  0  0
  -27.4024  -29.7264   25.5008 H   0  0  0  0  0  0
  -27.9049  -30.4099   23.9763 H   0  0  0  0  0  0
  -27.2683  -33.3660   26.1930 H   0  0  0  0  0  0
  -28.3944  -32.6769   25.0331 H   0  0  0  0  0  0
  -28.0679  -31.8498   26.5473 H   0  0  0  0  0  0
  -28.2567  -38.0082   24.7539 H   0  0  0  0  0  0
  -28.1113  -36.2610   24.6268 H   0  0  0  0  0  0
  -27.2295  -37.1360   25.8864 H   0  0  0  0  0  0
  -20.9570  -29.8732   21.6669 H   0  0  0  0  0  0
  -26.0143  -38.2769   24.1408 H   0  0  0  0  0  0
  -31.9832  -19.7654   19.0598 H   0  0  0  0  0  0
  -31.2426  -21.2132   18.3880 H   0  0  0  0  0  0
  -31.5673  -21.8741   20.5899 H   0  0  0  0  0  0
  -31.3674  -20.2899   21.2580 H   0  0  0  0  0  0
  -30.0188  -18.6790   18.3448 H   0  0  0  0  0  0
  -29.1970  -20.2148   18.1172 H   0  0  0  0  0  0
  -29.2353  -21.0729   21.8563 H   0  0  0  0  0  0
  -30.8187  -23.1089   22.0345 H   0  0  0  0  0  0
  -29.2566  -23.6500   22.5349 H   0  0  0  0  0  0
  -30.2205  -24.6315   21.4525 H   0  0  0  0  0  0
  -27.5086  -17.2562   19.3106 H   0  0  0  0  0  0
  -27.5006  -18.4426   18.0183 H   0  0  0  0  0  0
  -26.0607  -18.1761   18.9748 H   0  0  0  0  0  0
  -27.1977  -19.8701   22.1115 H   0  0  0  0  0  0
  -27.1368  -18.1356   21.8000 H   0  0  0  0  0  0
  -25.8154  -19.1731   21.2890 H   0  0  0  0  0  0
  -29.6716  -18.0527   21.8844 H   0  0  0  0  0  0
  -30.9410  -18.1150   20.7434 H   0  0  0  0  0  0
  -27.2822  -24.0995   21.0975 H   0  0  0  0  0  0
  -27.4382  -24.0205   19.3880 H   0  0  0  0  0  0
  -29.8120  -23.1040   19.5696 H   0  0  0  0  0  0
  -27.2065  -20.2733   19.6297 H   0  0  0  0  0  0
  -28.6622  -16.1474   20.5401 H   0  0  0  0  0  0
  1 25  1  0  0  0
  1 30  2  0  0  0
  1 83  1  0  0  0
  2  3  1  0  0  0
  2 25  1  0  0  0
  2 84  1  0  0  0
  2 85  1  0  0  0
  3  4  1  0  0  0
  3 86  1  0  0  0
  3 87  1  0  0  0
  4  5  1  0  0  0
  4 88  1  0  0  0
  4 89  1  0  0  0
  5  6  1  0  0  0
  5 26  1  0  0  0
  5 90  1  0  0  0
  6 25  1  0  0  0
  6 91  1  0  0  0
  6 92  1  0  0  0
  7  8  2  0  0  0
  7 26  1  0  0  0
  7 29  1  0  0  0
  8  9  1  0  0  0
  8 22  1  0  0  0
  9 10  1  0  0  0
  9 27  2  0  0  0
 10 11  2  0  0  0
 10 15  1  0  0  0
 11 12  1  0  0  0
 11 93  1  0  0  0
 12 13  2  0  0  0
 12 94  1  0  0  0
 13 14  1  0  0  0
 13 31  1  0  0  0
 14 15  2  0  0  0
 14 95  1  0  0  0
 15 96  1  0  0  0
 16 17  2  0  0  0
 16 21  1  0  0  0
 16 31  1  0  0  0
 17 18  1  0  0  0
 17 97  1  0  0  0
 18 19  2  0  0  0
 18 98  1  0  0  0
 19 20  1  0  0  0
 19 24  1  0  0  0
 20 21  2  0  0  0
 20 99  1  0  0  0
 21 23  1  0  0  0
 22 28  1  0  0  0
 22 32  2  0  0  0
 26 27  1  0  0  0
 28100  1  0  0  0
 28101  1  0  0  0
 29102  1  0  0  0
 29103  1  0  0  0
 33 34  1  0  0  0
 33 66  1  0  0  0
 33 70  2  0  0  0
 34 36  1  0  0  0
 34 59  1  0  0  0
 34104  1  0  0  0
 35 44  2  0  0  0
 35 45  1  0  0  0
 35 68  1  0  0  0
 36 56  1  0  0  0
 36105  1  0  0  0
 37 39  1  0  0  0
 37 47  1  0  0  0
 37 66  1  0  0  0
 37106  1  0  0  0
 38 43  2  0  0  0
 38 46  1  0  0  0
 38 47  1  0  0  0
 39 64  1  0  0  0
 39 67  2  0  0  0
 40 52  1  0  0  0
 40 53  2  0  0  0
 40 58  1  0  0  0
 41107  1  0  0  0
 41108  1  0  0  0
 41109  1  0  0  0
 41 48  1  0  0  0
 42 43  1  0  0  0
 42 66  1  0  0  0
 42110  1  0  0  0
 42111  1  0  0  0
 43 44  1  0  0  0
 44112  1  0  0  0
 45 46  2  0  0  0
 45113  1  0  0  0
 46114  1  0  0  0
 47115  1  0  0  0
 47116  1  0  0  0
 48 56  1  0  0  0
 48 65  1  0  0  0
 48117  1  0  0  0
 49 50  1  0  0  0
 49 53  1  0  0  0
 49 64  1  0  0  0
 49118  1  0  0  0
 50 51  1  0  0  0
 50119  1  0  0  0
 50120  1  0  0  0
 51 52  1  0  0  0
 51121  1  0  0  0
 51122  1  0  0  0
 52123  1  0  0  0
 52124  1  0  0  0
 53 54  1  0  0  0
 54 55  2  0  0  0
 54125  1  0  0  0
 55 57  1  0  0  0
 55126  1  0  0  0
 56 69  2  0  0  0
 57 58  2  0  0  0
 57127  1  0  0  0
 58128  1  0  0  0
 59 60  1  0  0  0
 59 61  1  0  0  0
 59 62  1  0  0  0
 60129  1  0  0  0
 60130  1  0  0  0
 60131  1  0  0  0
 61132  1  0  0  0
 61133  1  0  0  0
 61134  1  0  0  0
 62135  1  0  0  0
 62136  1  0  0  0
 62137  1  0  0  0
 63 65  1  0  0  0
 63138  1  0  0  0
 63139  1  0  0  0
 63140  1  0  0  0
 64141  1  0  0  0
 65142  1  0  0  0
 68 80  1  0  0  0
 71 72  1  0  0  0
 71 73  1  0  0  0
 71143  1  0  0  0
 71144  1  0  0  0
 72145  1  0  0  0
 72146  1  0  0  0
 72 74  1  0  0  0
 73 75  1  0  0  0
 73147  1  0  0  0
 73148  1  0  0  0
 74 75  1  0  0  0
 74 81  1  0  0  0
 74149  1  0  0  0
 75 79  1  0  0  0
 75 82  1  0  0  0
 76150  1  0  0  0
 76151  1  0  0  0
 76152  1  0  0  0
 76 81  1  0  0  0
 77153  1  0  0  0
 77154  1  0  0  0
 77155  1  0  0  0
 77 82  1  0  0  0
 78 82  1  0  0  0
 78156  1  0  0  0
 78157  1  0  0  0
 78158  1  0  0  0
 79 83  1  0  0  0
 79159  1  0  0  0
 79160  1  0  0  0
 80 81  1  0  0  0
 80161  1  0  0  0
 80162  1  0  0  0
 81163  1  0  0  0
 82164  1  0  0  0
 83165  1  0  0  0
M  ISO  4   1 100  68 101  80 101  83 100
M  END
> <chiral flag>
0

> <version>
0

> <s_m_source_file>
/data/baiqing/PycharmProjects/Reinvent-master-3.2/result/LINK_invent/BTK/process_docking_weight1_custom_sum_contain_oxygen_bond_distance_aromatic_linkinvent_7_9_3/rearranged_h_0106.sdf

> <i_m_source_file_index>
32

> <r_mmod_Potential_Energy-OPLS-2005>
1404.64294433594

> <r_mmod_Stretch_Energy-OPLS-2005>
596.709716796875

> <r_mmod_Bend_Energy-OPLS-2005>
576.713684082031

> <r_mmod_Torsional_Energy-OPLS-2005>
305.316467285156

> <r_mmod_Improper_Torsional_Energy-OPLS-2005>
4.18157911300659

> <r_mmod_Van_der_Waal_Energy-OPLS-2005>
113.470924377441

> <r_mmod_Electrostatic_Energy-OPLS-2005>
-382.889862060547

> <r_mmod_Solvation_Energy-OPLS-2005>
-192.727203369141

> <b_mmod_Minimization_Converged-OPLS-2005>
0

> <r_mmod_RMS_Derivative-OPLS-2005>
2.75907754898071

$$$$
32
                    3D
 Structure written by MMmdl.
169177  0  0  1  0            999 V2000
  -30.6564  -14.7484   20.5157 C   0  0  0  0  0  0
  -30.4349  -12.4708   19.4774 C   0  0  0  0  0  0
  -29.5120  -12.5219   18.2403 C   0  0  0  0  0  0
  -28.0393  -12.3525   18.6551 C   0  0  0  0  0  0
  -27.6504  -13.2393   19.8647 C   0  0  2  0  0  0
  -28.6971  -13.1452   20.9960 C   0  0  0  0  0  0
  -25.2544  -13.8199   20.5714 C   0  0  0  0  0  0
  -24.1844  -13.0445   20.9176 C   0  0  0  0  0  0
  -24.6463  -11.6917   20.8773 C   0  0  0  0  0  0
  -23.9154  -10.4285   21.0453 C   0  0  0  0  0  0
  -24.3686   -9.4186   21.9218 C   0  0  0  0  0  0
  -23.6332   -8.2238   22.0792 C   0  0  0  0  0  0
  -22.4320   -8.0279   21.3568 C   0  0  0  0  0  0
  -21.9963   -9.0268   20.4671 C   0  0  0  0  0  0
  -22.7325  -10.2126   20.3092 C   0  0  0  0  0  0
  -21.6848   -6.0745   22.5285 C   0  0  0  0  0  0
  -21.3998   -6.5661   23.8206 C   0  0  0  0  0  0
  -21.3650   -5.6823   24.9171 C   0  0  0  0  0  0
  -21.6034   -4.3086   24.7229 C   0  0  0  0  0  0
  -21.8828   -3.8162   23.4354 C   0  0  0  0  0  0
  -21.9185   -4.6969   22.3410 C   0  0  0  0  0  0
  -22.7845  -13.5182   21.1792 C   0  0  0  0  0  0
  -22.1658   -4.2153   21.0987 F   0  0  0  0  0  0
  -21.5632   -3.4572   25.7752 F   0  0  0  0  0  0
  -30.0011  -13.5290   20.4297 N   0  0  0  0  0  0
  -26.3021  -12.9448   20.3400 N   0  0  0  0  0  0
  -25.9417  -11.6573   20.5852 N   0  0  0  0  0  0
  -22.0490  -12.8189   22.0338 N   0  0  0  0  0  0
  -25.4230  -15.1932   20.4127 N   0  0  0  0  0  0
  -31.7907  -14.8369   20.0356 O   0  0  0  0  0  0
  -21.6663   -6.8890   21.4252 O   0  0  0  0  0  0
  -22.3551  -14.5473   20.6581 O   0  0  0  0  0  0
  -24.6299  -31.8562   23.1995 C   0  0  0  0  0  0
  -25.9130  -32.4752   23.8364 C   0  0  1  0  0  0
  -27.2265  -27.2815   20.1336 C   0  0  0  0  0  0
  -25.5934  -33.8560   24.2286 N   0  0  0  0  0  0
  -23.4286  -30.4781   21.5395 C   0  0  2  0  0  0
  -24.8825  -28.9341   20.1000 C   0  0  0  0  0  0
  -22.7505  -29.4598   22.4881 C   0  0  0  0  0  0
  -18.0305  -28.1396   22.8476 C   0  0  0  0  0  0
  -24.1488  -36.7303   23.2638 C   0  0  0  0  0  0
  -25.9709  -30.7747   21.3778 C   0  0  0  0  0  0
  -26.0479  -29.3979   20.7242 C   0  0  0  0  0  0
  -27.2234  -28.5809   20.7403 C   0  0  0  0  0  0
  -26.0585  -26.9056   19.4370 C   0  0  0  0  0  0
  -24.8930  -27.6963   19.4385 C   0  0  0  0  0  0
  -23.6463  -29.8104   20.1546 C   0  0  0  0  0  0
  -25.4111  -36.3080   24.0338 C   0  0  1  0  0  0
  -20.5914  -28.3660   23.1218 C   0  0  2  0  0  0
  -20.6782  -26.9398   22.5291 C   0  0  0  0  0  0
  -19.5696  -26.6306   21.5167 C   0  0  0  0  0  0
  -18.1898  -26.7947   22.1571 C   0  0  0  0  0  0
  -19.1571  -28.8822   23.2878 C   0  0  0  0  0  0
  -18.9516  -30.1404   23.8960 C   0  0  0  0  0  0
  -17.6528  -30.6539   24.0673 C   0  0  0  0  0  0
  -25.9060  -34.9444   23.5122 C   0  0  0  0  0  0
  -16.5409  -29.9090   23.6386 C   0  0  0  0  0  0
  -16.7300  -28.6533   23.0333 C   0  0  0  0  0  0
  -26.4533  -31.6543   25.0721 C   0  0  0  0  0  0
  -25.3782  -31.3631   26.1444 C   0  0  0  0  0  0
  -27.0405  -30.2973   24.6183 C   0  0  0  0  0  0
  -27.6083  -32.4276   25.7496 C   0  0  0  0  0  0
  -27.5577  -37.1799   24.8476 C   0  0  0  0  0  0
  -21.4211  -29.3043   22.3634 N   0  0  0  0  0  0
  -26.4292  -37.3779   23.9423 N   0  0  0  0  0  0
  -24.6958  -31.0543   22.0949 N   0  0  0  0  0  0
  -23.4219  -28.8131   23.2956 O   0  0  0  0  0  0
  -28.2733  -26.3328   20.1938 O   0  0  0  0  0  0
  -26.5614  -34.8926   22.4688 O   0  0  0  0  0  0
  -23.5449  -32.1366   23.7311 O   0  0  0  0  0  0
  -29.8132  -23.3221   21.9570 C   0  0  0  0  0  0
  -28.8865  -23.7624   20.9698 C   0  0  0  0  0  0
  -30.1476  -22.0029   21.7802 C   0  0  0  0  0  0
  -28.7622  -22.6401   20.1364 C   0  0  0  0  0  0
  -31.0428  -21.1823   22.6516 C   0  0  0  0  0  0
  -26.6395  -24.7973   21.4850 C   0  0  0  0  0  0
  -26.6941  -21.6831   19.0113 C   0  0  0  0  0  0
  -28.7520  -22.2980   17.6139 C   0  0  0  0  0  0
  -29.4629  -16.0092   22.2599 C   0  0  0  0  0  0
  -29.6740  -18.7092   20.9107 C   0  0  0  0  0  0
  -29.7239  -20.0943   20.0487 C   0  0  0  0  0  0
  -30.1153  -17.2984   20.2052 C   0  0  0  0  0  0
  -28.0937  -25.1490   21.1106 C   0  0  2  0  0  0
  -27.9307  -22.5867   18.8813 C   0  0  0  0  0  0
  -29.5040  -21.5053   20.6469 N   0  0  0  0  0  0
  -29.9756  -15.9181   20.8905 N   0  0  0  0  0  0
  -31.4760  -12.5794   19.1666 H   0  0  0  0  0  0
  -30.3777  -11.4909   19.9497 H   0  0  0  0  0  0
  -29.7912  -11.7401   17.5322 H   0  0  0  0  0  0
  -29.6415  -13.4718   17.7200 H   0  0  0  0  0  0
  -27.8853  -11.3022   18.9103 H   0  0  0  0  0  0
  -27.3801  -12.5644   17.8118 H   0  0  0  0  0  0
  -27.6503  -14.2696   19.5087 H   0  0  0  0  0  0
  -28.7464  -12.1358   21.4065 H   0  0  0  0  0  0
  -28.3834  -13.7740   21.8251 H   0  0  0  0  0  0
  -25.2825   -9.5621   22.4817 H   0  0  0  0  0  0
  -23.9977   -7.4638   22.7555 H   0  0  0  0  0  0
  -21.0868   -8.8825   19.9010 H   0  0  0  0  0  0
  -22.3804  -10.9682   19.6213 H   0  0  0  0  0  0
  -21.1998   -7.6175   23.9703 H   0  0  0  0  0  0
  -21.1471   -6.0560   25.9066 H   0  0  0  0  0  0
  -22.0620   -2.7629   23.2863 H   0  0  0  0  0  0
  -22.4088  -11.9883   22.4815 H   0  0  0  0  0  0
  -21.1144  -13.1267   22.2573 H   0  0  0  0  0  0
  -24.6548  -15.8453   20.5184 H   0  0  0  0  0  0
  -26.2900  -15.6407   20.1381 H   0  0  0  0  0  0
  -26.7186  -32.5423   23.1095 H   0  0  0  0  0  0
  -25.0063  -33.9745   25.0413 H   0  0  0  0  0  0
  -22.7225  -31.3002   21.3914 H   0  0  0  0  0  0
  -23.3773  -35.9618   23.3302 H   0  0  0  0  0  0
  -24.3565  -36.8945   22.2055 H   0  0  0  0  0  0
  -23.7236  -37.6490   23.6677 H   0  0  0  0  0  0
  -26.1110  -31.5312   20.6052 H   0  0  0  0  0  0
  -26.8476  -30.8275   22.0102 H   0  0  0  0  0  0
  -28.1106  -28.9249   21.2554 H   0  0  0  0  0  0
  -26.0339  -25.9540   18.9272 H   0  0  0  0  0  0
  -24.0087  -27.3463   18.9222 H   0  0  0  0  0  0
  -23.7550  -30.5849   19.3940 H   0  0  0  0  0  0
  -22.7682  -29.2318   19.8580 H   0  0  0  0  0  0
  -25.1286  -36.1915   25.0825 H   0  0  0  0  0  0
  -21.0040  -28.3186   24.1314 H   0  0  0  0  0  0
  -20.5760  -26.2271   23.3489 H   0  0  0  0  0  0
  -21.6607  -26.7440   22.0991 H   0  0  0  0  0  0
  -19.6813  -25.6187   21.1287 H   0  0  0  0  0  0
  -19.6625  -27.3019   20.6619 H   0  0  0  0  0  0
  -17.4174  -26.6793   21.3947 H   0  0  0  0  0  0
  -18.0197  -26.0086   22.8948 H   0  0  0  0  0  0
  -19.8016  -30.7172   24.2337 H   0  0  0  0  0  0
  -17.5124  -31.6168   24.5379 H   0  0  0  0  0  0
  -15.5417  -30.3008   23.7754 H   0  0  0  0  0  0
  -15.8694  -28.0906   22.6980 H   0  0  0  0  0  0
  -24.6012  -30.6906   25.7775 H   0  0  0  0  0  0
  -24.8909  -32.2755   26.4868 H   0  0  0  0  0  0
  -25.8150  -30.8824   27.0206 H   0  0  0  0  0  0
  -26.2977  -29.6678   24.1250 H   0  0  0  0  0  0
  -27.4153  -29.7261   25.4690 H   0  0  0  0  0  0
  -27.8842  -30.4283   23.9407 H   0  0  0  0  0  0
  -27.2693  -33.3613   26.1996 H   0  0  0  0  0  0
  -28.3918  -32.6748   25.0317 H   0  0  0  0  0  0
  -28.0708  -31.8423   26.5448 H   0  0  0  0  0  0
  -28.2568  -38.0117   24.7525 H   0  0  0  0  0  0
  -28.1091  -36.2644   24.6284 H   0  0  0  0  0  0
  -27.2298  -37.1416   25.8878 H   0  0  0  0  0  0
  -20.9393  -29.8847   21.6888 H   0  0  0  0  0  0
  -26.0188  -38.2860   24.1398 H   0  0  0  0  0  0
  -30.1571  -23.9186   22.7909 H   0  0  0  0  0  0
  -31.5845  -21.8145   23.3563 H   0  0  0  0  0  0
  -31.7799  -20.6321   22.0652 H   0  0  0  0  0  0
  -30.4640  -20.4758   23.2460 H   0  0  0  0  0  0
  -26.6214  -24.0623   22.2885 H   0  0  0  0  0  0
  -26.0990  -24.3626   20.6452 H   0  0  0  0  0  0
  -26.0816  -25.6579   21.8529 H   0  0  0  0  0  0
  -26.0564  -22.0055   19.8367 H   0  0  0  0  0  0
  -26.9541  -20.6410   19.1886 H   0  0  0  0  0  0
  -26.0907  -21.7230   18.1034 H   0  0  0  0  0  0
  -29.5472  -23.0328   17.4935 H   0  0  0  0  0  0
  -28.1268  -22.3440   16.7227 H   0  0  0  0  0  0
  -29.2234  -21.3200   17.6214 H   0  0  0  0  0  0
  -29.8804  -16.8643   22.7873 H   0  0  0  0  0  0
  -29.7347  -15.1419   22.8615 H   0  0  0  0  0  0
  -28.3769  -16.0902   22.2536 H   0  0  0  0  0  0
  -28.6586  -18.6039   21.2976 H   0  0  0  0  0  0
  -30.3087  -18.8209   21.7849 H   0  0  0  0  0  0
  -29.0209  -19.9547   19.2337 H   0  0  0  0  0  0
  -30.6979  -20.1451   19.5588 H   0  0  0  0  0  0
  -31.1556  -17.4090   19.8942 H   0  0  0  0  0  0
  -29.5573  -17.2212   19.2711 H   0  0  0  0  0  0
  -28.5032  -25.5638   22.0348 H   0  0  0  0  0  0
  -27.5303  -23.5911   18.7241 H   0  0  0  0  0  0
  1 25  1  0  0  0
  1 30  2  0  0  0
  1 86  1  0  0  0
  2  3  1  0  0  0
  2 25  1  0  0  0
  2 87  1  0  0  0
  2 88  1  0  0  0
  3  4  1  0  0  0
  3 89  1  0  0  0
  3 90  1  0  0  0
  4  5  1  0  0  0
  4 91  1  0  0  0
  4 92  1  0  0  0
  5  6  1  0  0  0
  5 26  1  0  0  0
  5 93  1  0  0  0
  6 25  1  0  0  0
  6 94  1  0  0  0
  6 95  1  0  0  0
  7  8  2  0  0  0
  7 26  1  0  0  0
  7 29  1  0  0  0
  8  9  1  0  0  0
  8 22  1  0  0  0
  9 10  1  0  0  0
  9 27  2  0  0  0
 10 11  2  0  0  0
 10 15  1  0  0  0
 11 12  1  0  0  0
 11 96  1  0  0  0
 12 13  2  0  0  0
 12 97  1  0  0  0
 13 14  1  0  0  0
 13 31  1  0  0  0
 14 15  2  0  0  0
 14 98  1  0  0  0
 15 99  1  0  0  0
 16 17  2  0  0  0
 16 21  1  0  0  0
 16 31  1  0  0  0
 17 18  1  0  0  0
 17100  1  0  0  0
 18 19  2  0  0  0
 18101  1  0  0  0
 19 20  1  0  0  0
 19 24  1  0  0  0
 20 21  2  0  0  0
 20102  1  0  0  0
 21 23  1  0  0  0
 22 28  1  0  0  0
 22 32  2  0  0  0
 26 27  1  0  0  0
 28103  1  0  0  0
 28104  1  0  0  0
 29105  1  0  0  0
 29106  1  0  0  0
 33 34  1  0  0  0
 33 66  1  0  0  0
 33 70  2  0  0  0
 34 36  1  0  0  0
 34 59  1  0  0  0
 34107  1  0  0  0
 35 44  2  0  0  0
 35 45  1  0  0  0
 35 68  1  0  0  0
 36 56  1  0  0  0
 36108  1  0  0  0
 37 39  1  0  0  0
 37 47  1  0  0  0
 37 66  1  0  0  0
 37109  1  0  0  0
 38 43  2  0  0  0
 38 46  1  0  0  0
 38 47  1  0  0  0
 39 64  1  0  0  0
 39 67  2  0  0  0
 40 52  1  0  0  0
 40 53  2  0  0  0
 40 58  1  0  0  0
 41110  1  0  0  0
 41111  1  0  0  0
 41112  1  0  0  0
 41 48  1  0  0  0
 42 43  1  0  0  0
 42 66  1  0  0  0
 42113  1  0  0  0
 42114  1  0  0  0
 43 44  1  0  0  0
 44115  1  0  0  0
 45 46  2  0  0  0
 45116  1  0  0  0
 46117  1  0  0  0
 47118  1  0  0  0
 47119  1  0  0  0
 48 56  1  0  0  0
 48 65  1  0  0  0
 48120  1  0  0  0
 49 50  1  0  0  0
 49 53  1  0  0  0
 49 64  1  0  0  0
 49121  1  0  0  0
 50 51  1  0  0  0
 50122  1  0  0  0
 50123  1  0  0  0
 51 52  1  0  0  0
 51124  1  0  0  0
 51125  1  0  0  0
 52126  1  0  0  0
 52127  1  0  0  0
 53 54  1  0  0  0
 54 55  2  0  0  0
 54128  1  0  0  0
 55 57  1  0  0  0
 55129  1  0  0  0
 56 69  2  0  0  0
 57 58  2  0  0  0
 57130  1  0  0  0
 58131  1  0  0  0
 59 60  1  0  0  0
 59 61  1  0  0  0
 59 62  1  0  0  0
 60132  1  0  0  0
 60133  1  0  0  0
 60134  1  0  0  0
 61135  1  0  0  0
 61136  1  0  0  0
 61137  1  0  0  0
 62138  1  0  0  0
 62139  1  0  0  0
 62140  1  0  0  0
 63 65  1  0  0  0
 63141  1  0  0  0
 63142  1  0  0  0
 63143  1  0  0  0
 64144  1  0  0  0
 65145  1  0  0  0
 68 83  1  0  0  0
 71 72  1  0  0  0
 71 73  2  0  0  0
 71146  1  0  0  0
 72 74  2  0  0  0
 72 83  1  0  0  0
 73 75  1  0  0  0
 73 85  1  0  0  0
 74 84  1  0  0  0
 74 85  1  0  0  0
 75147  1  0  0  0
 75148  1  0  0  0
 75149  1  0  0  0
 76150  1  0  0  0
 76151  1  0  0  0
 76152  1  0  0  0
 76 83  1  0  0  0
 77153  1  0  0  0
 77154  1  0  0  0
 77155  1  0  0  0
 77 84  1  0  0  0
 78 84  1  0  0  0
 78156  1  0  0  0
 78157  1  0  0  0
 78158  1  0  0  0
 79 86  1  0  0  0
 79159  1  0  0  0
 79160  1  0  0  0
 79161  1  0  0  0
 80 81  1  0  0  0
 80 82  1  0  0  0
 80162  1  0  0  0
 80163  1  0  0  0
 81 85  1  0  0  0
 81164  1  0  0  0
 81165  1  0  0  0
 82 86  1  0  0  0
 82166  1  0  0  0
 82167  1  0  0  0
 83168  1  0  0  0
 84169  1  0  0  0
M  ISO  4   1 100  68 101  83 101  86 100
M  END
> <chiral flag>
0

> <version>
0

> <s_m_source_file>
/data/baiqing/PycharmProjects/Reinvent-master-3.2/result/LINK_invent/BTK/process_docking_weight1_custom_sum_contain_oxygen_bond_distance_aromatic_linkinvent_7_9_3/rearranged_h_0106.sdf

> <i_m_source_file_index>
33

> <r_mmod_Potential_Energy-OPLS-2005>
385.631408691406

> <r_mmod_Stretch_Energy-OPLS-2005>
146.432632446289

> <r_mmod_Bend_Energy-OPLS-2005>
211.955978393555

> <r_mmod_Torsional_Energy-OPLS-2005>
333.281219482422

> <r_mmod_Improper_Torsional_Energy-OPLS-2005>
9.2849235534668

> <r_mmod_Van_der_Waal_Energy-OPLS-2005>
124.415145874023

> <r_mmod_Electrostatic_Energy-OPLS-2005>
-329.602630615234

> <r_mmod_Solvation_Energy-OPLS-2005>
-193.622802734375

> <b_mmod_Minimization_Converged-OPLS-2005>
0

> <r_mmod_RMS_Derivative-OPLS-2005>
4.89104557037354

$$$$
33
                    3D
 Structure written by MMmdl.
169177  0  0  1  0            999 V2000
  -30.5494  -14.7660   20.5041 C   0  0  0  0  0  0
  -30.4380  -12.4651   19.5000 C   0  0  0  0  0  0
  -29.5341  -12.5299   18.2529 C   0  0  0  0  0  0
  -28.0414  -12.3906   18.6158 C   0  0  0  0  0  0
  -27.6432  -13.2375   19.8559 C   0  0  2  0  0  0
  -28.6770  -13.1287   21.0038 C   0  0  0  0  0  0
  -25.2475  -13.8241   20.5697 C   0  0  0  0  0  0
  -24.1758  -13.0480   20.9220 C   0  0  0  0  0  0
  -24.6338  -11.6956   20.8685 C   0  0  0  0  0  0
  -23.9021  -10.4331   21.0401 C   0  0  0  0  0  0
  -24.3568   -9.4245   21.9169 C   0  0  0  0  0  0
  -23.6315   -8.2218   22.0744 C   0  0  0  0  0  0
  -22.4282   -8.0246   21.3497 C   0  0  0  0  0  0
  -21.9930   -9.0189   20.4639 C   0  0  0  0  0  0
  -22.7186  -10.2141   20.3058 C   0  0  0  0  0  0
  -21.6882   -6.0722   22.5268 C   0  0  0  0  0  0
  -21.4011   -6.5615   23.8195 C   0  0  0  0  0  0
  -21.3612   -5.6755   24.9159 C   0  0  0  0  0  0
  -21.6043   -4.3027   24.7217 C   0  0  0  0  0  0
  -21.8785   -3.8116   23.4311 C   0  0  0  0  0  0
  -21.9184   -4.6934   22.3399 C   0  0  0  0  0  0
  -22.7830  -13.5310   21.1815 C   0  0  0  0  0  0
  -22.1685   -4.2125   21.0980 F   0  0  0  0  0  0
  -21.5569   -3.4492   25.7710 F   0  0  0  0  0  0
  -29.9743  -13.5147   20.4473 N   0  0  0  0  0  0
  -26.2900  -12.9455   20.3203 N   0  0  0  0  0  0
  -25.9250  -11.6591   20.5597 N   0  0  0  0  0  0
  -22.0426  -12.8323   22.0371 N   0  0  0  0  0  0
  -25.4228  -15.1945   20.3994 N   0  0  0  0  0  0
  -31.7138  -14.9219   20.1262 O   0  0  0  0  0  0
  -21.6625   -6.8875   21.4231 O   0  0  0  0  0  0
  -22.3590  -14.5600   20.6584 O   0  0  0  0  0  0
  -24.6247  -31.8645   23.2062 C   0  0  0  0  0  0
  -25.9121  -32.4812   23.8348 C   0  0  1  0  0  0
  -27.1872  -27.2938   20.0867 C   0  0  0  0  0  0
  -25.5936  -33.8610   24.2279 N   0  0  0  0  0  0
  -23.4149  -30.4889   21.5535 C   0  0  2  0  0  0
  -24.8467  -28.9353   20.1027 C   0  0  0  0  0  0
  -22.7428  -29.4684   22.5023 C   0  0  0  0  0  0
  -18.0280  -28.1400   22.8480 C   0  0  0  0  0  0
  -24.1486  -36.7252   23.2640 C   0  0  0  0  0  0
  -25.9539  -30.7799   21.3835 C   0  0  0  0  0  0
  -26.0192  -29.4054   20.7119 C   0  0  0  0  0  0
  -27.1895  -28.5839   20.7081 C   0  0  0  0  0  0
  -26.0248  -26.9145   19.3978 C   0  0  0  0  0  0
  -24.8510  -27.6939   19.4422 C   0  0  0  0  0  0
  -23.6197  -29.8255   20.1675 C   0  0  0  0  0  0
  -25.4126  -36.3090   24.0328 C   0  0  1  0  0  0
  -20.5877  -28.3715   23.1273 C   0  0  2  0  0  0
  -20.6799  -26.9459   22.5398 C   0  0  0  0  0  0
  -19.5771  -26.6402   21.5204 C   0  0  0  0  0  0
  -18.1942  -26.7952   22.1604 C   0  0  0  0  0  0
  -19.1535  -28.8875   23.2886 C   0  0  0  0  0  0
  -18.9458  -30.1461   23.8910 C   0  0  0  0  0  0
  -17.6459  -30.6617   24.0559 C   0  0  0  0  0  0
  -25.9075  -34.9475   23.5116 C   0  0  0  0  0  0
  -16.5355  -29.9104   23.6345 C   0  0  0  0  0  0
  -16.7266  -28.6531   23.0375 C   0  0  0  0  0  0
  -26.4498  -31.6603   25.0706 C   0  0  0  0  0  0
  -25.3690  -31.3680   26.1387 C   0  0  0  0  0  0
  -27.0367  -30.3029   24.6175 C   0  0  0  0  0  0
  -27.6079  -32.4330   25.7445 C   0  0  0  0  0  0
  -27.5585  -37.1773   24.8452 C   0  0  0  0  0  0
  -21.4173  -29.3061   22.3663 N   0  0  0  0  0  0
  -26.4281  -37.3811   23.9418 N   0  0  0  0  0  0
  -24.6832  -31.0574   22.1063 N   0  0  0  0  0  0
  -23.4151  -28.8320   23.3164 O   0  0  0  0  0  0
  -28.2678  -26.4010   20.1785 O   0  0  0  0  0  0
  -26.5658  -34.8942   22.4689 O   0  0  0  0  0  0
  -23.5415  -32.1499   23.7401 O   0  0  0  0  0  0
  -28.0657  -20.9895   20.2857 C   0  0  0  0  0  0
  -29.3178  -22.2589   21.5576 C   0  0  0  0  0  0
  -28.2536  -22.3747   20.7260 C   0  0  0  0  0  0
  -28.8590  -20.0660   20.9957 C   0  0  0  0  0  0
  -29.8528  -21.2058   24.2500 C   0  0  0  0  0  0
  -31.8790  -21.1582   22.6913 C   0  0  0  0  0  0
  -27.0918  -24.2803   21.9500 C   0  0  0  0  0  0
  -26.1267  -23.3376   19.8455 C   0  0  0  0  0  0
  -29.9606  -17.3878   20.6685 C   0  0  0  0  0  0
  -28.2456  -24.9503   19.7842 C   0  0  0  0  0  0
  -28.8107  -18.4639   21.1482 C   0  0  2  0  0  0
  -30.4699  -20.6054   22.9623 C   0  0  0  0  0  0
  -27.4524  -23.7420   20.5366 C   0  0  0  0  0  0
  -29.5929  -20.9222   21.8404 N   0  0  0  0  0  0
  -29.7276  -15.8579   20.8079 N   0  0  0  0  0  0
  -27.4866  -18.0078   20.7046 N   0  3  0  0  0  0
  -31.4783  -12.6145   19.2081 H   0  0  0  0  0  0
  -30.3898  -11.4797   19.9613 H   0  0  0  0  0  0
  -29.8279  -11.7490   17.5528 H   0  0  0  0  0  0
  -29.7073  -13.4829   17.7455 H   0  0  0  0  0  0
  -27.8369  -11.3407   18.8166 H   0  0  0  0  0  0
  -27.4270  -12.6653   17.7535 H   0  0  0  0  0  0
  -27.6504  -14.2772   19.5197 H   0  0  0  0  0  0
  -28.7283  -12.1107   21.4029 H   0  0  0  0  0  0
  -28.3956  -13.7761   21.8399 H   0  0  0  0  0  0
  -25.2671   -9.5706   22.4790 H   0  0  0  0  0  0
  -23.9997   -7.4603   22.7423 H   0  0  0  0  0  0
  -21.0847   -8.8622   19.8972 H   0  0  0  0  0  0
  -22.3561  -10.9624   19.6163 H   0  0  0  0  0  0
  -21.2044   -7.6141   23.9722 H   0  0  0  0  0  0
  -21.1512   -6.0503   25.9090 H   0  0  0  0  0  0
  -22.0666   -2.7585   23.2810 H   0  0  0  0  0  0
  -22.4073  -12.0039   22.4859 H   0  0  0  0  0  0
  -21.1002  -13.1325   22.2417 H   0  0  0  0  0  0
  -24.5475  -15.6964   20.2883 H   0  0  0  0  0  0
  -26.0579  -15.4137   19.6448 H   0  0  0  0  0  0
  -26.7198  -32.5507   23.1087 H   0  0  0  0  0  0
  -24.9965  -33.9778   25.0339 H   0  0  0  0  0  0
  -22.7121  -31.3154   21.4213 H   0  0  0  0  0  0
  -23.3821  -35.9512   23.3256 H   0  0  0  0  0  0
  -24.3572  -36.8925   22.2062 H   0  0  0  0  0  0
  -23.7155  -37.6400   23.6699 H   0  0  0  0  0  0
  -26.0981  -31.5666   20.6428 H   0  0  0  0  0  0
  -26.8266  -30.8131   22.0259 H   0  0  0  0  0  0
  -28.0781  -28.9323   21.2192 H   0  0  0  0  0  0
  -26.0262  -26.0046   18.8234 H   0  0  0  0  0  0
  -23.9638  -27.3161   18.9501 H   0  0  0  0  0  0
  -23.7524  -30.6096   19.4197 H   0  0  0  0  0  0
  -22.7269  -29.2711   19.8669 H   0  0  0  0  0  0
  -25.1318  -36.1933   25.0824 H   0  0  0  0  0  0
  -20.9976  -28.3321   24.1392 H   0  0  0  0  0  0
  -20.5719  -26.2357   23.3609 H   0  0  0  0  0  0
  -21.6680  -26.7542   22.1197 H   0  0  0  0  0  0
  -19.6963  -25.6313   21.1245 H   0  0  0  0  0  0
  -19.6713  -27.3189   20.6708 H   0  0  0  0  0  0
  -17.4243  -26.6695   21.3994 H   0  0  0  0  0  0
  -18.0348  -26.0083   22.8993 H   0  0  0  0  0  0
  -19.7946  -30.7255   24.2308 H   0  0  0  0  0  0
  -17.5044  -31.6299   24.5145 H   0  0  0  0  0  0
  -15.5368  -30.3020   23.7678 H   0  0  0  0  0  0
  -15.8664  -28.0841   22.7104 H   0  0  0  0  0  0
  -24.5858  -30.7120   25.7567 H   0  0  0  0  0  0
  -24.8888  -32.2825   26.4867 H   0  0  0  0  0  0
  -25.7928  -30.8705   27.0122 H   0  0  0  0  0  0
  -26.2950  -29.6739   24.1245 H   0  0  0  0  0  0
  -27.4100  -29.7317   25.4680 H   0  0  0  0  0  0
  -27.8792  -30.4285   23.9385 H   0  0  0  0  0  0
  -27.2742  -33.3653   26.1998 H   0  0  0  0  0  0
  -28.3857  -32.6868   25.0236 H   0  0  0  0  0  0
  -28.0796  -31.8478   26.5348 H   0  0  0  0  0  0
  -28.2581  -38.0095   24.7635 H   0  0  0  0  0  0
  -28.1110  -36.2652   24.6147 H   0  0  0  0  0  0
  -27.2308  -37.1245   25.8847 H   0  0  0  0  0  0
  -20.9385  -29.8660   21.6763 H   0  0  0  0  0  0
  -26.0163  -38.2875   24.1491 H   0  0  0  0  0  0
  -27.2966  -20.6861   19.5880 H   0  0  0  0  0  0
  -29.8092  -23.0547   22.1035 H   0  0  0  0  0  0
  -30.3560  -20.8652   25.1540 H   0  0  0  0  0  0
  -28.8007  -20.9203   24.3358 H   0  0  0  0  0  0
  -29.8829  -22.2957   24.2596 H   0  0  0  0  0  0
  -32.5695  -20.9627   23.5133 H   0  0  0  0  0  0
  -31.8707  -22.2341   22.5222 H   0  0  0  0  0  0
  -32.2904  -20.6989   21.7922 H   0  0  0  0  0  0
  -26.4783  -23.5852   22.5256 H   0  0  0  0  0  0
  -26.5426  -25.2223   21.8973 H   0  0  0  0  0  0
  -27.9951  -24.4727   22.5315 H   0  0  0  0  0  0
  -25.6273  -22.5553   20.4258 H   0  0  0  0  0  0
  -26.3191  -22.9171   18.8551 H   0  0  0  0  0  0
  -25.4045  -24.1417   19.7479 H   0  0  0  0  0  0
  -30.8831  -17.6307   21.1986 H   0  0  0  0  0  0
  -30.1898  -17.5730   19.6173 H   0  0  0  0  0  0
  -28.1971  -24.8465   18.6965 H   0  0  0  0  0  0
  -29.2912  -24.7208   19.9989 H   0  0  0  0  0  0
  -28.7652  -18.3189   22.2298 H   0  0  0  0  0  0
  -30.5293  -19.5240   23.0788 H   0  0  0  0  0  0
  -28.8131  -15.5598   21.1180 H   0  0  0  0  0  0
  -27.4556  -17.9201   19.7040 H   0  0  0  0  0  0
  -26.7936  -18.6735   20.9980 H   0  0  0  0  0  0
  -27.2479  -17.1350   21.1358 H   0  0  0  0  0  0
  1 25  1  0  0  0
  1 30  2  0  0  0
  1 85  1  0  0  0
  2  3  1  0  0  0
  2 25  1  0  0  0
  2 87  1  0  0  0
  2 88  1  0  0  0
  3  4  1  0  0  0
  3 89  1  0  0  0
  3 90  1  0  0  0
  4  5  1  0  0  0
  4 91  1  0  0  0
  4 92  1  0  0  0
  5  6  1  0  0  0
  5 26  1  0  0  0
  5 93  1  0  0  0
  6 25  1  0  0  0
  6 94  1  0  0  0
  6 95  1  0  0  0
  7  8  2  0  0  0
  7 26  1  0  0  0
  7 29  1  0  0  0
  8  9  1  0  0  0
  8 22  1  0  0  0
  9 10  1  0  0  0
  9 27  2  0  0  0
 10 11  2  0  0  0
 10 15  1  0  0  0
 11 12  1  0  0  0
 11 96  1  0  0  0
 12 13  2  0  0  0
 12 97  1  0  0  0
 13 14  1  0  0  0
 13 31  1  0  0  0
 14 15  2  0  0  0
 14 98  1  0  0  0
 15 99  1  0  0  0
 16 17  2  0  0  0
 16 21  1  0  0  0
 16 31  1  0  0  0
 17 18  1  0  0  0
 17100  1  0  0  0
 18 19  2  0  0  0
 18101  1  0  0  0
 19 20  1  0  0  0
 19 24  1  0  0  0
 20 21  2  0  0  0
 20102  1  0  0  0
 21 23  1  0  0  0
 22 28  1  0  0  0
 22 32  2  0  0  0
 26 27  1  0  0  0
 28103  1  0  0  0
 28104  1  0  0  0
 29105  1  0  0  0
 29106  1  0  0  0
 33 34  1  0  0  0
 33 66  1  0  0  0
 33 70  2  0  0  0
 34 36  1  0  0  0
 34 59  1  0  0  0
 34107  1  0  0  0
 35 44  2  0  0  0
 35 45  1  0  0  0
 35 68  1  0  0  0
 36 56  1  0  0  0
 36108  1  0  0  0
 37 39  1  0  0  0
 37 47  1  0  0  0
 37 66  1  0  0  0
 37109  1  0  0  0
 38 43  2  0  0  0
 38 46  1  0  0  0
 38 47  1  0  0  0
 39 64  1  0  0  0
 39 67  2  0  0  0
 40 52  1  0  0  0
 40 53  2  0  0  0
 40 58  1  0  0  0
 41110  1  0  0  0
 41111  1  0  0  0
 41112  1  0  0  0
 41 48  1  0  0  0
 42 43  1  0  0  0
 42 66  1  0  0  0
 42113  1  0  0  0
 42114  1  0  0  0
 43 44  1  0  0  0
 44115  1  0  0  0
 45 46  2  0  0  0
 45116  1  0  0  0
 46117  1  0  0  0
 47118  1  0  0  0
 47119  1  0  0  0
 48 56  1  0  0  0
 48 65  1  0  0  0
 48120  1  0  0  0
 49 50  1  0  0  0
 49 53  1  0  0  0
 49 64  1  0  0  0
 49121  1  0  0  0
 50 51  1  0  0  0
 50122  1  0  0  0
 50123  1  0  0  0
 51 52  1  0  0  0
 51124  1  0  0  0
 51125  1  0  0  0
 52126  1  0  0  0
 52127  1  0  0  0
 53 54  1  0  0  0
 54 55  2  0  0  0
 54128  1  0  0  0
 55 57  1  0  0  0
 55129  1  0  0  0
 56 69  2  0  0  0
 57 58  2  0  0  0
 57130  1  0  0  0
 58131  1  0  0  0
 59 60  1  0  0  0
 59 61  1  0  0  0
 59 62  1  0  0  0
 60132  1  0  0  0
 60133  1  0  0  0
 60134  1  0  0  0
 61135  1  0  0  0
 61136  1  0  0  0
 61137  1  0  0  0
 62138  1  0  0  0
 62139  1  0  0  0
 62140  1  0  0  0
 63 65  1  0  0  0
 63141  1  0  0  0
 63142  1  0  0  0
 63143  1  0  0  0
 64144  1  0  0  0
 65145  1  0  0  0
 68 80  1  0  0  0
 71 73  1  0  0  0
 71 74  2  0  0  0
 71146  1  0  0  0
 72 73  2  0  0  0
 72 84  1  0  0  0
 72147  1  0  0  0
 73 83  1  0  0  0
 74 81  1  0  0  0
 74 84  1  0  0  0
 75148  1  0  0  0
 75149  1  0  0  0
 75150  1  0  0  0
 75 82  1  0  0  0
 76 82  1  0  0  0
 76151  1  0  0  0
 76152  1  0  0  0
 76153  1  0  0  0
 77154  1  0  0  0
 77155  1  0  0  0
 77156  1  0  0  0
 77 83  1  0  0  0
 78 83  1  0  0  0
 78157  1  0  0  0
 78158  1  0  0  0
 78159  1  0  0  0
 79 81  1  0  0  0
 79 85  1  0  0  0
 79160  1  0  0  0
 79161  1  0  0  0
 80 83  1  0  0  0
 80162  1  0  0  0
 80163  1  0  0  0
 81 86  1  0  0  0
 81164  1  0  0  0
 82 84  1  0  0  0
 82165  1  0  0  0
 85166  1  0  0  0
 86167  1  0  0  0
 86168  1  0  0  0
 86169  1  0  0  0
M  CHG  1  86   1
M  ISO  4   1 100  68 101  80 101  85 100
M  END
> <chiral flag>
0

> <version>
0

> <s_m_source_file>
/data/baiqing/PycharmProjects/Reinvent-master-3.2/result/LINK_invent/BTK/process_docking_weight1_custom_sum_contain_oxygen_bond_distance_aromatic_linkinvent_7_9_3/rearranged_h_0106.sdf

> <i_m_source_file_index>
34

> <r_mmod_Potential_Energy-OPLS-2005>
-86.3106536865234

> <r_mmod_Stretch_Energy-OPLS-2005>
143.174591064453

> <r_mmod_Bend_Energy-OPLS-2005>
218.550750732422

> <r_mmod_Torsional_Energy-OPLS-2005>
296.855926513672

> <r_mmod_Improper_Torsional_Energy-OPLS-2005>
12.5693435668945

> <r_mmod_Van_der_Waal_Energy-OPLS-2005>
114.777740478516

> <r_mmod_Electrostatic_Energy-OPLS-2005>
-458.992279052734

> <r_mmod_Solvation_Energy-OPLS-2005>
-499.896148681641

> <b_mmod_Minimization_Converged-OPLS-2005>
0

> <r_mmod_RMS_Derivative-OPLS-2005>
9.82366275787354

$$$$
34
                    3D
 Structure written by MMmdl.
168176  0  0  1  0            999 V2000
  -30.4798  -15.2296   20.4124 C   0  0  0  0  0  0
  -30.4160  -12.7876   19.5468 C   0  0  0  0  0  0
  -29.5202  -12.5841   18.2999 C   0  0  0  0  0  0
  -28.0657  -12.3187   18.7159 C   0  0  0  0  0  0
  -27.6047  -13.2843   19.8385 C   0  0  2  0  0  0
  -28.6314  -13.4566   20.9787 C   0  0  0  0  0  0
  -25.2289  -13.8267   20.5773 C   0  0  0  0  0  0
  -24.1666  -13.0439   20.9298 C   0  0  0  0  0  0
  -24.6332  -11.6952   20.8816 C   0  0  0  0  0  0
  -23.9033  -10.4292   21.0435 C   0  0  0  0  0  0
  -24.3589   -9.4197   21.9182 C   0  0  0  0  0  0
  -23.6275   -8.2233   22.0740 C   0  0  0  0  0  0
  -22.4279   -8.0257   21.3538 C   0  0  0  0  0  0
  -21.9901   -9.0237   20.4640 C   0  0  0  0  0  0
  -22.7222  -10.2117   20.3059 C   0  0  0  0  0  0
  -21.6841   -6.0739   22.5289 C   0  0  0  0  0  0
  -21.4011   -6.5636   23.8218 C   0  0  0  0  0  0
  -21.3656   -5.6785   24.9179 C   0  0  0  0  0  0
  -21.6040   -4.3042   24.7218 C   0  0  0  0  0  0
  -21.8811   -3.8147   23.4338 C   0  0  0  0  0  0
  -21.9180   -4.6962   22.3401 C   0  0  0  0  0  0
  -22.7688  -13.5217   21.1902 C   0  0  0  0  0  0
  -22.1637   -4.2155   21.0974 F   0  0  0  0  0  0
  -21.5643   -3.4527   25.7725 F   0  0  0  0  0  0
  -29.8787  -13.9406   20.3683 N   0  0  0  0  0  0
  -26.2751  -12.9568   20.3328 N   0  0  0  0  0  0
  -25.9276  -11.6662   20.5802 N   0  0  0  0  0  0
  -22.0338  -12.8221   22.0454 N   0  0  0  0  0  0
  -25.3852  -15.1967   20.4098 N   0  0  0  0  0  0
  -31.6740  -15.2030   20.0872 O   0  0  0  0  0  0
  -21.6636   -6.8859   21.4241 O   0  0  0  0  0  0
  -22.3366  -14.5493   20.6688 O   0  0  0  0  0  0
  -24.6624  -31.8294   23.1724 C   0  0  0  0  0  0
  -25.9338  -32.4619   23.8164 C   0  0  1  0  0  0
  -27.2257  -26.9618   20.1850 C   0  0  0  0  0  0
  -25.6056  -33.8429   24.2088 N   0  0  0  0  0  0
  -23.4699  -30.4390   21.5231 C   0  0  2  0  0  0
  -24.9239  -28.8244   20.1106 C   0  0  0  0  0  0
  -22.7658  -29.4454   22.4823 C   0  0  0  0  0  0
  -18.0322  -28.1382   22.8474 C   0  0  0  0  0  0
  -24.1462  -36.7182   23.2638 C   0  0  0  0  0  0
  -26.0338  -30.6451   21.3931 C   0  0  0  0  0  0
  -26.1046  -29.2357   20.7419 C   0  0  0  0  0  0
  -27.2472  -28.3251   20.7532 C   0  0  0  0  0  0
  -26.0198  -26.6908   19.5004 C   0  0  0  0  0  0
  -24.9071  -27.5724   19.4684 C   0  0  0  0  0  0
  -23.7050  -29.7471   20.1490 C   0  0  0  0  0  0
  -25.4105  -36.2961   24.0293 C   0  0  1  0  0  0
  -20.5946  -28.3727   23.1205 C   0  0  2  0  0  0
  -20.6811  -26.9426   22.5396 C   0  0  0  0  0  0
  -19.5778  -26.6364   21.5213 C   0  0  0  0  0  0
  -18.1952  -26.7928   22.1603 C   0  0  0  0  0  0
  -19.1577  -28.8886   23.2818 C   0  0  0  0  0  0
  -18.9480  -30.1488   23.8848 C   0  0  0  0  0  0
  -17.6467  -30.6595   24.0549 C   0  0  0  0  0  0
  -25.9082  -34.9366   23.4986 C   0  0  0  0  0  0
  -16.5362  -29.9068   23.6360 C   0  0  0  0  0  0
  -16.7306  -28.6478   23.0406 C   0  0  0  0  0  0
  -26.4593  -31.6568   25.0698 C   0  0  0  0  0  0
  -25.3737  -31.3860   26.1388 C   0  0  0  0  0  0
  -27.0490  -30.2939   24.6396 C   0  0  0  0  0  0
  -27.6053  -32.4395   25.7536 C   0  0  0  0  0  0
  -27.5535  -37.1753   24.8470 C   0  0  0  0  0  0
  -21.4334  -29.3017   22.3564 N   0  0  0  0  0  0
  -26.4233  -37.3710   23.9429 N   0  0  0  0  0  0
  -24.7426  -30.9961   22.0852 N   0  0  0  0  0  0
  -23.4249  -28.8077   23.3073 O   0  0  0  0  0  0
  -28.2608  -25.9075   20.3176 O   0  0  0  0  0  0
  -26.5615  -34.8920   22.4528 O   0  0  0  0  0  0
  -23.5718  -32.1252   23.6856 O   0  0  0  0  0  0
  -27.6729  -17.8272   20.5151 C   0  0  0  0  0  0
  -29.6316  -19.6658   20.5002 C   0  0  0  0  0  0
  -26.8370  -19.1122   20.8637 C   0  0  0  0  0  0
  -29.2172  -17.9426   20.2443 C   0  0  1  0  0  0
  -28.4705  -20.9929   20.5736 C   0  0  2  0  0  0
  -26.9779  -23.0952   21.5056 C   0  0  0  0  0  0
  -28.7688  -21.2392   23.5992 C   0  0  0  0  0  0
  -26.3773  -20.4190   23.7242 C   0  0  0  0  0  0
  -28.2745  -18.8164   23.5514 C   0  0  0  0  0  0
  -28.3129  -24.3152   19.9173 C   0  0  0  0  0  0
  -28.3659  -22.8103   20.8712 C   0  0  2  0  0  0
  -27.7601  -20.1911   23.0507 C   0  0  0  0  0  0
  -29.8824  -16.5244   20.8189 N   0  0  0  0  0  0
  -27.6612  -20.1614   21.5303 N   0  3  1  0  0  0
  -31.4398  -12.9677   19.2145 H   0  0  0  0  0  0
  -30.4558  -11.8765   20.1466 H   0  0  0  0  0  0
  -29.8881  -11.7595   17.6887 H   0  0  0  0  0  0
  -29.5584  -13.4773   17.6743 H   0  0  0  0  0  0
  -28.0024  -11.2885   19.0659 H   0  0  0  0  0  0
  -27.4055  -12.3919   17.8507 H   0  0  0  0  0  0
  -27.5230  -14.2588   19.3537 H   0  0  0  0  0  0
  -28.7782  -12.5270   21.5325 H   0  0  0  0  0  0
  -28.2704  -14.1906   21.7005 H   0  0  0  0  0  0
  -25.2693   -9.5712   22.4798 H   0  0  0  0  0  0
  -24.0018   -7.4612   22.7440 H   0  0  0  0  0  0
  -21.0847   -8.8719   19.8935 H   0  0  0  0  0  0
  -22.3625  -10.9664   19.6193 H   0  0  0  0  0  0
  -21.2011   -7.6144   23.9724 H   0  0  0  0  0  0
  -21.1485   -6.0517   25.9080 H   0  0  0  0  0  0
  -22.0596   -2.7614   23.2835 H   0  0  0  0  0  0
  -22.4011  -11.9948   22.4906 H   0  0  0  0  0  0
  -21.0923  -13.1179   22.2571 H   0  0  0  0  0  0
  -24.5959  -15.8323   20.4741 H   0  0  0  0  0  0
  -26.2161  -15.6177   20.0192 H   0  0  0  0  0  0
  -26.7432  -32.5175   23.0906 H   0  0  0  0  0  0
  -25.0396  -33.9494   25.0370 H   0  0  0  0  0  0
  -22.7765  -31.2663   21.3574 H   0  0  0  0  0  0
  -23.3745  -35.9490   23.3285 H   0  0  0  0  0  0
  -24.3536  -36.8843   22.2056 H   0  0  0  0  0  0
  -23.7193  -37.6365   23.6688 H   0  0  0  0  0  0
  -26.1947  -31.3797   20.6038 H   0  0  0  0  0  0
  -26.9007  -30.7144   22.0386 H   0  0  0  0  0  0
  -28.1433  -28.6388   21.2731 H   0  0  0  0  0  0
  -25.9016  -25.7290   19.0218 H   0  0  0  0  0  0
  -24.0106  -27.2503   18.9555 H   0  0  0  0  0  0
  -23.8497  -30.5135   19.3871 H   0  0  0  0  0  0
  -22.8133  -29.1980   19.8386 H   0  0  0  0  0  0
  -25.1303  -36.1738   25.0779 H   0  0  0  0  0  0
  -21.0000  -28.3325   24.1335 H   0  0  0  0  0  0
  -20.5700  -26.2354   23.3625 H   0  0  0  0  0  0
  -21.6681  -26.7424   22.1201 H   0  0  0  0  0  0
  -19.6933  -25.6261   21.1287 H   0  0  0  0  0  0
  -19.6725  -27.3131   20.6718 H   0  0  0  0  0  0
  -17.4250  -26.6715   21.3979 H   0  0  0  0  0  0
  -18.0324  -26.0036   22.8959 H   0  0  0  0  0  0
  -19.7951  -30.7332   24.2169 H   0  0  0  0  0  0
  -17.5021  -31.6283   24.5138 H   0  0  0  0  0  0
  -15.5358  -30.2971   23.7700 H   0  0  0  0  0  0
  -15.8694  -28.0778   22.7171 H   0  0  0  0  0  0
  -24.5896  -30.7199   25.7774 H   0  0  0  0  0  0
  -24.8963  -32.3107   26.4654 H   0  0  0  0  0  0
  -25.8014  -30.9188   27.0270 H   0  0  0  0  0  0
  -26.3183  -29.6663   24.1301 H   0  0  0  0  0  0
  -27.3950  -29.7259   25.5042 H   0  0  0  0  0  0
  -27.9147  -30.4154   23.9877 H   0  0  0  0  0  0
  -27.2562  -33.3737   26.1957 H   0  0  0  0  0  0
  -28.3976  -32.6912   25.0469 H   0  0  0  0  0  0
  -28.0604  -31.8649   26.5615 H   0  0  0  0  0  0
  -28.2566  -38.0040   24.7513 H   0  0  0  0  0  0
  -28.1016  -36.2578   24.6289 H   0  0  0  0  0  0
  -27.2272  -37.1414   25.8880 H   0  0  0  0  0  0
  -20.9586  -29.8648   21.6636 H   0  0  0  0  0  0
  -26.0080  -38.2764   24.1453 H   0  0  0  0  0  0
  -27.2046  -17.3353   19.6600 H   0  0  0  0  0  0
  -27.5221  -17.1222   21.3331 H   0  0  0  0  0  0
  -30.3826  -19.9310   19.7526 H   0  0  0  0  0  0
  -30.2089  -19.7079   21.4257 H   0  0  0  0  0  0
  -25.9799  -18.8335   21.4791 H   0  0  0  0  0  0
  -26.3956  -19.5251   19.9543 H   0  0  0  0  0  0
  -29.3272  -17.8293   19.1665 H   0  0  0  0  0  0
  -28.0016  -20.9367   19.5908 H   0  0  0  0  0  0
  -26.6532  -22.4304   22.2873 H   0  0  0  0  0  0
  -26.1892  -23.0695   20.7517 H   0  0  0  0  0  0
  -26.9534  -24.0880   21.9576 H   0  0  0  0  0  0
  -28.9747  -21.0717   24.6574 H   0  0  0  0  0  0
  -28.3986  -22.2609   23.5583 H   0  0  0  0  0  0
  -29.7292  -21.2174   23.0860 H   0  0  0  0  0  0
  -26.3674  -21.3168   24.3439 H   0  0  0  0  0  0
  -26.0968  -19.5996   24.3898 H   0  0  0  0  0  0
  -25.5658  -20.5267   23.0048 H   0  0  0  0  0  0
  -28.4477  -18.8339   24.6285 H   0  0  0  0  0  0
  -29.2168  -18.5166   23.0951 H   0  0  0  0  0  0
  -27.5506  -18.0188   23.3795 H   0  0  0  0  0  0
  -27.5420  -24.1769   19.1601 H   0  0  0  0  0  0
  -29.2305  -24.2724   19.3304 H   0  0  0  0  0  0
  -29.1389  -23.0146   21.6120 H   0  0  0  0  0  0
  -30.4899  -16.8113   21.5763 H   0  0  0  0  0  0
  -28.4412  -19.5213   21.5346 H   0  0  0  0  0  0
  1 25  1  0  0  0
  1 30  2  0  0  0
  1 83  1  0  0  0
  2  3  1  0  0  0
  2 25  1  0  0  0
  2 85  1  0  0  0
  2 86  1  0  0  0
  3  4  1  0  0  0
  3 87  1  0  0  0
  3 88  1  0  0  0
  4  5  1  0  0  0
  4 89  1  0  0  0
  4 90  1  0  0  0
  5  6  1  0  0  0
  5 26  1  0  0  0
  5 91  1  0  0  0
  6 25  1  0  0  0
  6 92  1  0  0  0
  6 93  1  0  0  0
  7  8  2  0  0  0
  7 26  1  0  0  0
  7 29  1  0  0  0
  8  9  1  0  0  0
  8 22  1  0  0  0
  9 10  1  0  0  0
  9 27  2  0  0  0
 10 11  2  0  0  0
 10 15  1  0  0  0
 11 12  1  0  0  0
 11 94  1  0  0  0
 12 13  2  0  0  0
 12 95  1  0  0  0
 13 14  1  0  0  0
 13 31  1  0  0  0
 14 15  2  0  0  0
 14 96  1  0  0  0
 15 97  1  0  0  0
 16 17  2  0  0  0
 16 21  1  0  0  0
 16 31  1  0  0  0
 17 18  1  0  0  0
 17 98  1  0  0  0
 18 19  2  0  0  0
 18 99  1  0  0  0
 19 20  1  0  0  0
 19 24  1  0  0  0
 20 21  2  0  0  0
 20100  1  0  0  0
 21 23  1  0  0  0
 22 28  1  0  0  0
 22 32  2  0  0  0
 26 27  1  0  0  0
 28101  1  0  0  0
 28102  1  0  0  0
 29103  1  0  0  0
 29104  1  0  0  0
 33 34  1  0  0  0
 33 66  1  0  0  0
 33 70  2  0  0  0
 34 36  1  0  0  0
 34 59  1  0  0  0
 34105  1  0  0  0
 35 44  2  0  0  0
 35 45  1  0  0  0
 35 68  1  0  0  0
 36 56  1  0  0  0
 36106  1  0  0  0
 37 39  1  0  0  0
 37 47  1  0  0  0
 37 66  1  0  0  0
 37107  1  0  0  0
 38 43  2  0  0  0
 38 46  1  0  0  0
 38 47  1  0  0  0
 39 64  1  0  0  0
 39 67  2  0  0  0
 40 52  1  0  0  0
 40 53  2  0  0  0
 40 58  1  0  0  0
 41108  1  0  0  0
 41109  1  0  0  0
 41110  1  0  0  0
 41 48  1  0  0  0
 42 43  1  0  0  0
 42 66  1  0  0  0
 42111  1  0  0  0
 42112  1  0  0  0
 43 44  1  0  0  0
 44113  1  0  0  0
 45 46  2  0  0  0
 45114  1  0  0  0
 46115  1  0  0  0
 47116  1  0  0  0
 47117  1  0  0  0
 48 56  1  0  0  0
 48 65  1  0  0  0
 48118  1  0  0  0
 49 50  1  0  0  0
 49 53  1  0  0  0
 49 64  1  0  0  0
 49119  1  0  0  0
 50 51  1  0  0  0
 50120  1  0  0  0
 50121  1  0  0  0
 51 52  1  0  0  0
 51122  1  0  0  0
 51123  1  0  0  0
 52124  1  0  0  0
 52125  1  0  0  0
 53 54  1  0  0  0
 54 55  2  0  0  0
 54126  1  0  0  0
 55 57  1  0  0  0
 55127  1  0  0  0
 56 69  2  0  0  0
 57 58  2  0  0  0
 57128  1  0  0  0
 58129  1  0  0  0
 59 60  1  0  0  0
 59 61  1  0  0  0
 59 62  1  0  0  0
 60130  1  0  0  0
 60131  1  0  0  0
 60132  1  0  0  0
 61133  1  0  0  0
 61134  1  0  0  0
 61135  1  0  0  0
 62136  1  0  0  0
 62137  1  0  0  0
 62138  1  0  0  0
 63 65  1  0  0  0
 63139  1  0  0  0
 63140  1  0  0  0
 63141  1  0  0  0
 64142  1  0  0  0
 65143  1  0  0  0
 68 80  1  0  0  0
 71 73  1  0  0  0
 71 74  1  0  0  0
 71144  1  0  0  0
 71145  1  0  0  0
 72 74  1  0  0  0
 72146  1  0  0  0
 72147  1  0  0  0
 72 75  1  0  0  0
 73148  1  0  0  0
 73149  1  0  0  0
 73 84  1  0  0  0
 74 83  1  0  0  0
 74150  1  0  0  0
 75 81  1  0  0  0
 75 84  1  0  0  0
 75151  1  0  0  0
 76152  1  0  0  0
 76153  1  0  0  0
 76154  1  0  0  0
 76 81  1  0  0  0
 77155  1  0  0  0
 77156  1  0  0  0
 77157  1  0  0  0
 77 82  1  0  0  0
 78 82  1  0  0  0
 78158  1  0  0  0
 78159  1  0  0  0
 78160  1  0  0  0
 79 82  1  0  0  0
 79161  1  0  0  0
 79162  1  0  0  0
 79163  1  0  0  0
 80 81  1  0  0  0
 80164  1  0  0  0
 80165  1  0  0  0
 81166  1  0  0  0
 82 84  1  0  0  0
 83167  1  0  0  0
 84168  1  0  0  0
M  CHG  1  84   1
M  ISO  4   1 100  68 101  80 101  83 100
M  END
> <chiral flag>
0

> <version>
0

> <s_m_source_file>
/data/baiqing/PycharmProjects/Reinvent-master-3.2/result/LINK_invent/BTK/process_docking_weight1_custom_sum_contain_oxygen_bond_distance_aromatic_linkinvent_7_9_3/rearranged_h_0106.sdf

> <i_m_source_file_index>
35

> <r_mmod_Potential_Energy-OPLS-2005>
1612.33959960938

> <r_mmod_Stretch_Energy-OPLS-2005>
625.065368652344

> <r_mmod_Bend_Energy-OPLS-2005>
691.665588378906

> <r_mmod_Torsional_Energy-OPLS-2005>
382.718536376953

> <r_mmod_Improper_Torsional_Energy-OPLS-2005>
5.71751594543457

> <r_mmod_Van_der_Waal_Energy-OPLS-2005>
133.234420776367

> <r_mmod_Electrostatic_Energy-OPLS-2005>
-196.78385925293

> <r_mmod_Solvation_Energy-OPLS-2005>
-439.823425292969

> <b_mmod_Minimization_Converged-OPLS-2005>
0

> <r_mmod_RMS_Derivative-OPLS-2005>
4.40008497238159

$$$$
35
                    3D
 Structure written by MMmdl.
158166  0  0  1  0            999 V2000
  -30.4221  -15.2777   20.3708 C   0  0  0  0  0  0
  -30.4409  -12.8222   19.5073 C   0  0  0  0  0  0
  -29.5330  -12.5694   18.2777 C   0  0  0  0  0  0
  -28.0835  -12.2898   18.7145 C   0  0  0  0  0  0
  -27.6086  -13.2713   19.8147 C   0  0  2  0  0  0
  -28.6454  -13.4536   20.9415 C   0  0  0  0  0  0
  -25.2392  -13.8231   20.5742 C   0  0  0  0  0  0
  -24.1746  -13.0428   20.9274 C   0  0  0  0  0  0
  -24.6397  -11.6924   20.8766 C   0  0  0  0  0  0
  -23.9092  -10.4290   21.0416 C   0  0  0  0  0  0
  -24.3635   -9.4204   21.9193 C   0  0  0  0  0  0
  -23.6297   -8.2245   22.0758 C   0  0  0  0  0  0
  -22.4278   -8.0286   21.3552 C   0  0  0  0  0  0
  -21.9924   -9.0265   20.4656 C   0  0  0  0  0  0
  -22.7264  -10.2138   20.3065 C   0  0  0  0  0  0
  -21.6853   -6.0744   22.5289 C   0  0  0  0  0  0
  -21.4018   -6.5645   23.8224 C   0  0  0  0  0  0
  -21.3653   -5.6797   24.9181 C   0  0  0  0  0  0
  -21.6041   -4.3058   24.7233 C   0  0  0  0  0  0
  -21.8811   -3.8155   23.4353 C   0  0  0  0  0  0
  -21.9192   -4.6972   22.3411 C   0  0  0  0  0  0
  -22.7767  -13.5191   21.1919 C   0  0  0  0  0  0
  -22.1661   -4.2158   21.0988 F   0  0  0  0  0  0
  -21.5626   -3.4537   25.7745 F   0  0  0  0  0  0
  -29.8666  -13.9692   20.2999 N   0  0  0  0  0  0
  -26.2810  -12.9503   20.3188 N   0  0  0  0  0  0
  -25.9329  -11.6612   20.5714 N   0  0  0  0  0  0
  -22.0412  -12.8175   22.0463 N   0  0  0  0  0  0
  -25.3998  -15.1971   20.4186 N   0  0  0  0  0  0
  -31.6548  -15.2814   20.2380 O   0  0  0  0  0  0
  -21.6632   -6.8885   21.4252 O   0  0  0  0  0  0
  -22.3451  -14.5494   20.6756 O   0  0  0  0  0  0
  -24.6627  -31.8234   23.1696 C   0  0  0  0  0  0
  -25.9311  -32.4586   23.8165 C   0  0  1  0  0  0
  -27.2189  -26.9241   20.1959 C   0  0  0  0  0  0
  -25.5979  -33.8400   24.2080 N   0  0  0  0  0  0
  -23.4769  -30.4336   21.5202 C   0  0  2  0  0  0
  -24.9286  -28.8116   20.1238 C   0  0  0  0  0  0
  -22.7661  -29.4444   22.4799 C   0  0  0  0  0  0
  -18.0317  -28.1406   22.8464 C   0  0  0  0  0  0
  -24.1495  -36.7206   23.2648 C   0  0  0  0  0  0
  -26.0457  -30.6304   21.3967 C   0  0  0  0  0  0
  -26.1143  -29.2160   20.7497 C   0  0  0  0  0  0
  -27.2582  -28.2970   20.7506 C   0  0  0  0  0  0
  -25.9992  -26.6637   19.5351 C   0  0  0  0  0  0
  -24.8949  -27.5549   19.4976 C   0  0  0  0  0  0
  -23.7173  -29.7436   20.1495 C   0  0  0  0  0  0
  -25.4134  -36.2962   24.0302 C   0  0  1  0  0  0
  -20.5941  -28.3751   23.1193 C   0  0  2  0  0  0
  -20.6796  -26.9434   22.5402 C   0  0  0  0  0  0
  -19.5770  -26.6376   21.5213 C   0  0  0  0  0  0
  -18.1952  -26.7942   22.1622 C   0  0  0  0  0  0
  -19.1579  -28.8900   23.2817 C   0  0  0  0  0  0
  -18.9491  -30.1492   23.8852 C   0  0  0  0  0  0
  -17.6483  -30.6598   24.0555 C   0  0  0  0  0  0
  -25.9095  -34.9347   23.5012 C   0  0  0  0  0  0
  -16.5373  -29.9084   23.6340 C   0  0  0  0  0  0
  -16.7299  -28.6504   23.0358 C   0  0  0  0  0  0
  -26.4563  -31.6520   25.0686 C   0  0  0  0  0  0
  -25.3696  -31.3774   26.1348 C   0  0  0  0  0  0
  -27.0458  -30.2884   24.6407 C   0  0  0  0  0  0
  -27.6061  -32.4322   25.7489 C   0  0  0  0  0  0
  -27.5568  -37.1761   24.8467 C   0  0  0  0  0  0
  -21.4335  -29.3045   22.3548 N   0  0  0  0  0  0
  -26.4281  -37.3699   23.9406 N   0  0  0  0  0  0
  -24.7499  -30.9898   22.0827 N   0  0  0  0  0  0
  -23.4204  -28.8012   23.3041 O   0  0  0  0  0  0
  -28.2642  -25.8628   20.1488 O   0  0  0  0  0  0
  -26.5709  -34.8884   22.4609 O   0  0  0  0  0  0
  -23.5698  -32.1206   23.6790 O   0  0  0  0  0  0
  -30.6423  -21.5199   20.3642 C   0  0  0  0  0  0
  -30.7758  -20.0673   18.4206 C   0  0  0  0  0  0
  -31.3984  -21.0019   19.2848 C   0  0  0  0  0  0
  -29.2841  -21.1561   20.3876 C   0  0  0  0  0  0
  -29.1941  -19.6415   19.9860 C   0  0  0  0  0  0
  -33.6741  -21.7327   20.1661 C   0  0  0  0  0  0
  -32.6320  -22.8892   18.1606 C   0  0  0  0  0  0
  -28.4276  -22.6163   19.9253 C   0  0  0  0  0  0
  -29.8232  -18.1726   20.7003 C   0  0  0  0  0  0
  -28.2673  -24.2778   20.6272 C   0  0  0  0  0  0
  -32.7680  -21.5694   18.9341 C   0  0  0  0  0  0
  -29.5951  -19.4723   18.7130 N   0  0  0  0  0  0
  -29.6364  -16.5365   20.3958 N   0  0  0  0  0  0
  -31.4535  -13.0447   19.1688 H   0  0  0  0  0  0
  -30.5259  -11.9244   20.1220 H   0  0  0  0  0  0
  -29.9146  -11.7358   17.6858 H   0  0  0  0  0  0
  -29.5563  -13.4441   17.6265 H   0  0  0  0  0  0
  -28.0488  -11.2691   19.0973 H   0  0  0  0  0  0
  -27.4095  -12.3181   17.8573 H   0  0  0  0  0  0
  -27.5177  -14.2341   19.3105 H   0  0  0  0  0  0
  -28.8243  -12.5201   21.4767 H   0  0  0  0  0  0
  -28.2846  -14.1722   21.6796 H   0  0  0  0  0  0
  -25.2780   -9.5672   22.4772 H   0  0  0  0  0  0
  -24.0006   -7.4627   22.7471 H   0  0  0  0  0  0
  -21.0858   -8.8795   19.8956 H   0  0  0  0  0  0
  -22.3730  -10.9682   19.6176 H   0  0  0  0  0  0
  -21.2009   -7.6153   23.9732 H   0  0  0  0  0  0
  -21.1480   -6.0524   25.9084 H   0  0  0  0  0  0
  -22.0589   -2.7618   23.2856 H   0  0  0  0  0  0
  -22.4034  -11.9847   22.4871 H   0  0  0  0  0  0
  -21.1025  -13.1204   22.2653 H   0  0  0  0  0  0
  -24.6225  -15.8395   20.5290 H   0  0  0  0  0  0
  -26.2307  -15.6436   20.0545 H   0  0  0  0  0  0
  -26.7381  -32.5127   23.0880 H   0  0  0  0  0  0
  -25.0072  -33.9476   25.0193 H   0  0  0  0  0  0
  -22.7894  -31.2640   21.3460 H   0  0  0  0  0  0
  -23.3763  -35.9529   23.3288 H   0  0  0  0  0  0
  -24.3566  -36.8870   22.2064 H   0  0  0  0  0  0
  -23.7249  -37.6388   23.6718 H   0  0  0  0  0  0
  -26.2206  -31.3683   20.6119 H   0  0  0  0  0  0
  -26.9079  -30.6931   22.0490 H   0  0  0  0  0  0
  -28.1685  -28.6173   21.2375 H   0  0  0  0  0  0
  -25.8828  -25.7064   19.0472 H   0  0  0  0  0  0
  -23.9932  -27.2374   18.9921 H   0  0  0  0  0  0
  -23.8783  -30.5088   19.3888 H   0  0  0  0  0  0
  -22.8259  -29.1999   19.8308 H   0  0  0  0  0  0
  -25.1331  -36.1761   25.0793 H   0  0  0  0  0  0
  -21.0022  -28.3361   24.1318 H   0  0  0  0  0  0
  -20.5674  -26.2371   23.3641 H   0  0  0  0  0  0
  -21.6659  -26.7409   22.1210 H   0  0  0  0  0  0
  -19.6933  -25.6276   21.1270 H   0  0  0  0  0  0
  -19.6713  -27.3160   20.6722 H   0  0  0  0  0  0
  -17.4222  -26.6680   21.4028 H   0  0  0  0  0  0
  -18.0352  -26.0100   22.9033 H   0  0  0  0  0  0
  -19.7965  -30.7323   24.2197 H   0  0  0  0  0  0
  -17.5032  -31.6268   24.5171 H   0  0  0  0  0  0
  -15.5372  -30.2970   23.7687 H   0  0  0  0  0  0
  -15.8701  -28.0807   22.7095 H   0  0  0  0  0  0
  -24.5889  -30.7109   25.7665 H   0  0  0  0  0  0
  -24.8872  -32.2974   26.4651 H   0  0  0  0  0  0
  -25.7925  -30.9022   27.0204 H   0  0  0  0  0  0
  -26.3117  -29.6566   24.1394 H   0  0  0  0  0  0
  -27.3971  -29.7241   25.5055 H   0  0  0  0  0  0
  -27.9065  -30.4067   23.9826 H   0  0  0  0  0  0
  -27.2634  -33.3668   26.1938 H   0  0  0  0  0  0
  -28.3938  -32.6805   25.0366 H   0  0  0  0  0  0
  -28.0656  -31.8534   26.5507 H   0  0  0  0  0  0
  -28.2570  -38.0072   24.7496 H   0  0  0  0  0  0
  -28.1079  -36.2592   24.6312 H   0  0  0  0  0  0
  -27.2282  -37.1421   25.8871 H   0  0  0  0  0  0
  -20.9596  -29.8718   21.6662 H   0  0  0  0  0  0
  -26.0130  -38.2757   24.1407 H   0  0  0  0  0  0
  -30.9700  -22.4569   20.7916 H   0  0  0  0  0  0
  -31.2373  -19.7791   17.4877 H   0  0  0  0  0  0
  -33.7876  -20.7892   20.7006 H   0  0  0  0  0  0
  -33.2847  -22.4715   20.8677 H   0  0  0  0  0  0
  -34.6720  -22.0607   19.8738 H   0  0  0  0  0  0
  -32.0554  -22.7504   17.2457 H   0  0  0  0  0  0
  -33.6090  -23.2774   17.8711 H   0  0  0  0  0  0
  -32.1338  -23.6563   18.7546 H   0  0  0  0  0  0
  -27.4077  -22.2857   19.7298 H   0  0  0  0  0  0
  -28.8157  -22.8039   18.9230 H   0  0  0  0  0  0
  -29.5440  -18.2675   21.7494 H   0  0  0  0  0  0
  -30.9052  -18.3108   20.7198 H   0  0  0  0  0  0
  -29.1334  -24.3091   21.2879 H   0  0  0  0  0  0
  -27.4344  -24.2104   21.3274 H   0  0  0  0  0  0
  -33.2554  -20.8486   18.2746 H   0  0  0  0  0  0
  -28.6545  -16.3231   20.3156 H   0  0  0  0  0  0
  1 25  1  0  0  0
  1 30  2  0  0  0
  1 83  1  0  0  0
  2  3  1  0  0  0
  2 25  1  0  0  0
  2 84  1  0  0  0
  2 85  1  0  0  0
  3  4  1  0  0  0
  3 86  1  0  0  0
  3 87  1  0  0  0
  4  5  1  0  0  0
  4 88  1  0  0  0
  4 89  1  0  0  0
  5  6  1  0  0  0
  5 26  1  0  0  0
  5 90  1  0  0  0
  6 25  1  0  0  0
  6 91  1  0  0  0
  6 92  1  0  0  0
  7  8  2  0  0  0
  7 26  1  0  0  0
  7 29  1  0  0  0
  8  9  1  0  0  0
  8 22  1  0  0  0
  9 10  1  0  0  0
  9 27  2  0  0  0
 10 11  2  0  0  0
 10 15  1  0  0  0
 11 12  1  0  0  0
 11 93  1  0  0  0
 12 13  2  0  0  0
 12 94  1  0  0  0
 13 14  1  0  0  0
 13 31  1  0  0  0
 14 15  2  0  0  0
 14 95  1  0  0  0
 15 96  1  0  0  0
 16 17  2  0  0  0
 16 21  1  0  0  0
 16 31  1  0  0  0
 17 18  1  0  0  0
 17 97  1  0  0  0
 18 19  2  0  0  0
 18 98  1  0  0  0
 19 20  1  0  0  0
 19 24  1  0  0  0
 20 21  2  0  0  0
 20 99  1  0  0  0
 21 23  1  0  0  0
 22 28  1  0  0  0
 22 32  2  0  0  0
 26 27  1  0  0  0
 28100  1  0  0  0
 28101  1  0  0  0
 29102  1  0  0  0
 29103  1  0  0  0
 33 34  1  0  0  0
 33 66  1  0  0  0
 33 70  2  0  0  0
 34 36  1  0  0  0
 34 59  1  0  0  0
 34104  1  0  0  0
 35 44  2  0  0  0
 35 45  1  0  0  0
 35 68  1  0  0  0
 36 56  1  0  0  0
 36105  1  0  0  0
 37 39  1  0  0  0
 37 47  1  0  0  0
 37 66  1  0  0  0
 37106  1  0  0  0
 38 43  2  0  0  0
 38 46  1  0  0  0
 38 47  1  0  0  0
 39 64  1  0  0  0
 39 67  2  0  0  0
 40 52  1  0  0  0
 40 53  2  0  0  0
 40 58  1  0  0  0
 41107  1  0  0  0
 41108  1  0  0  0
 41109  1  0  0  0
 41 48  1  0  0  0
 42 43  1  0  0  0
 42 66  1  0  0  0
 42110  1  0  0  0
 42111  1  0  0  0
 43 44  1  0  0  0
 44112  1  0  0  0
 45 46  2  0  0  0
 45113  1  0  0  0
 46114  1  0  0  0
 47115  1  0  0  0
 47116  1  0  0  0
 48 56  1  0  0  0
 48 65  1  0  0  0
 48117  1  0  0  0
 49 50  1  0  0  0
 49 53  1  0  0  0
 49 64  1  0  0  0
 49118  1  0  0  0
 50 51  1  0  0  0
 50119  1  0  0  0
 50120  1  0  0  0
 51 52  1  0  0  0
 51121  1  0  0  0
 51122  1  0  0  0
 52123  1  0  0  0
 52124  1  0  0  0
 53 54  1  0  0  0
 54 55  2  0  0  0
 54125  1  0  0  0
 55 57  1  0  0  0
 55126  1  0  0  0
 56 69  2  0  0  0
 57 58  2  0  0  0
 57127  1  0  0  0
 58128  1  0  0  0
 59 60  1  0  0  0
 59 61  1  0  0  0
 59 62  1  0  0  0
 60129  1  0  0  0
 60130  1  0  0  0
 60131  1  0  0  0
 61132  1  0  0  0
 61133  1  0  0  0
 61134  1  0  0  0
 62135  1  0  0  0
 62136  1  0  0  0
 62137  1  0  0  0
 63 65  1  0  0  0
 63138  1  0  0  0
 63139  1  0  0  0
 63140  1  0  0  0
 64141  1  0  0  0
 65142  1  0  0  0
 68 80  1  0  0  0
 71 73  2  0  0  0
 71 74  1  0  0  0
 71143  1  0  0  0
 72 73  1  0  0  0
 72 82  2  0  0  0
 72144  1  0  0  0
 73 81  1  0  0  0
 74 75  2  0  0  0
 74 78  1  0  0  0
 75 79  1  0  0  0
 75 82  1  0  0  0
 76145  1  0  0  0
 76146  1  0  0  0
 76147  1  0  0  0
 76 81  1  0  0  0
 77 81  1  0  0  0
 77148  1  0  0  0
 77149  1  0  0  0
 77150  1  0  0  0
 78 80  1  0  0  0
 78151  1  0  0  0
 78152  1  0  0  0
 79 83  1  0  0  0
 79153  1  0  0  0
 79154  1  0  0  0
 80155  1  0  0  0
 80156  1  0  0  0
 81157  1  0  0  0
 83158  1  0  0  0
M  ISO  4   1 100  68 101  80 101  83 100
M  END
> <chiral flag>
0

> <version>
0

> <s_m_source_file>
/data/baiqing/PycharmProjects/Reinvent-master-3.2/result/LINK_invent/BTK/process_docking_weight1_custom_sum_contain_oxygen_bond_distance_aromatic_linkinvent_7_9_3/rearranged_h_0106.sdf

> <i_m_source_file_index>
36

> <r_mmod_Potential_Energy-OPLS-2005>
1354.74365234375

> <r_mmod_Stretch_Energy-OPLS-2005>
610.888854980469

> <r_mmod_Bend_Energy-OPLS-2005>
516.940856933594

> <r_mmod_Torsional_Energy-OPLS-2005>
429.818969726562

> <r_mmod_Improper_Torsional_Energy-OPLS-2005>
36.0614929199219

> <r_mmod_Van_der_Waal_Energy-OPLS-2005>
134.317092895508

> <r_mmod_Electrostatic_Energy-OPLS-2005>
-605.787109375

> <r_mmod_Solvation_Energy-OPLS-2005>
-227.322845458984

> <b_mmod_Minimization_Converged-OPLS-2005>
0

> <r_mmod_RMS_Derivative-OPLS-2005>
1.37972497940063

$$$$
36
                    3D
 Structure written by MMmdl.
160169  0  0  1  0            999 V2000
  -30.6115  -14.7282   20.4080 C   0  0  0  0  0  0
  -30.4459  -12.4294   19.4530 C   0  0  0  0  0  0
  -29.5103  -12.4156   18.2241 C   0  0  0  0  0  0
  -28.0307  -12.2902   18.6468 C   0  0  0  0  0  0
  -27.6380  -13.2083   19.8365 C   0  0  2  0  0  0
  -28.6935  -13.1626   20.9604 C   0  0  0  0  0  0
  -25.2541  -13.8129   20.5705 C   0  0  0  0  0  0
  -24.1804  -13.0411   20.9206 C   0  0  0  0  0  0
  -24.6374  -11.6877   20.8771 C   0  0  0  0  0  0
  -23.9046  -10.4263   21.0431 C   0  0  0  0  0  0
  -24.3609   -9.4166   21.9187 C   0  0  0  0  0  0
  -23.6285   -8.2199   22.0742 C   0  0  0  0  0  0
  -22.4259   -8.0263   21.3532 C   0  0  0  0  0  0
  -21.9896   -9.0244   20.4639 C   0  0  0  0  0  0
  -22.7233  -10.2117   20.3065 C   0  0  0  0  0  0
  -21.6842   -6.0731   22.5277 C   0  0  0  0  0  0
  -21.4013   -6.5626   23.8217 C   0  0  0  0  0  0
  -21.3666   -5.6771   24.9172 C   0  0  0  0  0  0
  -21.6050   -4.3036   24.7218 C   0  0  0  0  0  0
  -21.8817   -3.8137   23.4333 C   0  0  0  0  0  0
  -21.9185   -4.6960   22.3395 C   0  0  0  0  0  0
  -22.7825  -13.5223   21.1845 C   0  0  0  0  0  0
  -22.1647   -4.2147   21.0971 F   0  0  0  0  0  0
  -21.5635   -3.4526   25.7734 F   0  0  0  0  0  0
  -29.9864  -13.5045   20.3558 N   0  0  0  0  0  0
  -26.2936  -12.9282   20.3268 N   0  0  0  0  0  0
  -25.9292  -11.6455   20.5772 N   0  0  0  0  0  0
  -22.0445  -12.8255   22.0414 N   0  0  0  0  0  0
  -25.4267  -15.1861   20.4167 N   0  0  0  0  0  0
  -31.8337  -14.8095   20.2554 O   0  0  0  0  0  0
  -21.6612   -6.8876   21.4236 O   0  0  0  0  0  0
  -22.3519  -14.5521   20.6676 O   0  0  0  0  0  0
  -24.6275  -31.8590   23.1998 C   0  0  0  0  0  0
  -25.9115  -32.4775   23.8340 C   0  0  1  0  0  0
  -27.2262  -27.3070   20.1430 C   0  0  0  0  0  0
  -25.5913  -33.8573   24.2257 N   0  0  0  0  0  0
  -23.4223  -30.4804   21.5426 C   0  0  2  0  0  0
  -24.8703  -28.9275   20.1143 C   0  0  0  0  0  0
  -22.7484  -29.4621   22.4932 C   0  0  0  0  0  0
  -18.0286  -28.1384   22.8481 C   0  0  0  0  0  0
  -24.1482  -36.7293   23.2639 C   0  0  0  0  0  0
  -25.9632  -30.7883   21.3705 C   0  0  0  0  0  0
  -26.0388  -29.4124   20.7171 C   0  0  0  0  0  0
  -27.2235  -28.6169   20.7138 C   0  0  0  0  0  0
  -26.0396  -26.8725   19.5150 C   0  0  0  0  0  0
  -24.8730  -27.6634   19.5021 C   0  0  0  0  0  0
  -23.6385  -29.8105   20.1594 C   0  0  0  0  0  0
  -25.4107  -36.3077   24.0327 C   0  0  1  0  0  0
  -20.5886  -28.3687   23.1281 C   0  0  2  0  0  0
  -20.6770  -26.9407   22.5411 C   0  0  0  0  0  0
  -19.5746  -26.6375   21.5213 C   0  0  0  0  0  0
  -18.1928  -26.7927   22.1625 C   0  0  0  0  0  0
  -19.1541  -28.8856   23.2876 C   0  0  0  0  0  0
  -18.9466  -30.1452   23.8893 C   0  0  0  0  0  0
  -17.6469  -30.6590   24.0558 C   0  0  0  0  0  0
  -25.9050  -34.9450   23.5101 C   0  0  0  0  0  0
  -16.5357  -29.9089   23.6324 C   0  0  0  0  0  0
  -16.7275  -28.6508   23.0344 C   0  0  0  0  0  0
  -26.4478  -31.6597   25.0726 C   0  0  0  0  0  0
  -25.3712  -31.3754   26.1463 C   0  0  0  0  0  0
  -27.0321  -30.3020   24.6183 C   0  0  0  0  0  0
  -27.6031  -32.4341   25.7497 C   0  0  0  0  0  0
  -27.5573  -37.1797   24.8464 C   0  0  0  0  0  0
  -21.4199  -29.3042   22.3677 N   0  0  0  0  0  0
  -26.4281  -37.3778   23.9413 N   0  0  0  0  0  0
  -24.6899  -31.0594   22.0944 N   0  0  0  0  0  0
  -23.4209  -28.8175   23.3025 O   0  0  0  0  0  0
  -28.3384  -26.4515   20.1631 O   0  0  0  0  0  0
  -26.5635  -34.8926   22.4675 O   0  0  0  0  0  0
  -23.5437  -32.1380   23.7318 O   0  0  0  0  0  0
  -29.7934  -19.7697   18.1891 C   0  0  0  0  0  0
  -29.4716  -20.9883   18.8209 C   0  0  0  0  0  0
  -29.4083  -19.8129   20.9497 C   0  0  0  0  0  0
  -29.9001  -18.5673   18.9199 C   0  0  0  0  0  0
  -29.7366  -18.5526   20.3181 C   0  0  0  0  0  0
  -29.2497  -21.0534   20.2138 C   0  0  0  0  0  0
  -30.1162  -17.2498   18.2071 C   0  0  0  0  0  0
  -29.9186  -17.1619   21.0627 C   0  0  0  0  0  0
  -29.3135  -16.1418   18.9114 C   0  0  0  0  0  0
  -28.7842  -22.4151   20.8780 C   0  0  0  0  0  0
  -28.1688  -25.0989   20.7640 C   0  0  0  0  0  0
  -28.9110  -23.8347   20.1116 C   0  0  1  0  0  0
  -29.8175  -15.8633   20.2708 N   0  0  0  0  0  0
  -30.3337  -24.1736   19.8873 N   0  3  0  0  0  0
  -31.4797  -12.5761   19.1320 H   0  0  0  0  0  0
  -30.4226  -11.4693   19.9692 H   0  0  0  0  0  0
  -29.7769  -11.5766   17.5781 H   0  0  0  0  0  0
  -29.6612  -13.2981   17.6073 H   0  0  0  0  0  0
  -27.8701  -11.2490   18.9284 H   0  0  0  0  0  0
  -27.3760  -12.4740   17.7939 H   0  0  0  0  0  0
  -27.6095  -14.2165   19.4368 H   0  0  0  0  0  0
  -28.7317  -12.1719   21.4161 H   0  0  0  0  0  0
  -28.4404  -13.8654   21.7572 H   0  0  0  0  0  0
  -25.2765   -9.5630   22.4740 H   0  0  0  0  0  0
  -23.9995   -7.4583   22.7456 H   0  0  0  0  0  0
  -21.0820   -8.8794   19.8948 H   0  0  0  0  0  0
  -22.3723  -10.9665   19.6173 H   0  0  0  0  0  0
  -21.2003   -7.6135   23.9734 H   0  0  0  0  0  0
  -21.1495   -6.0486   25.9081 H   0  0  0  0  0  0
  -22.0597   -2.7601   23.2828 H   0  0  0  0  0  0
  -22.4062  -11.9966   22.4890 H   0  0  0  0  0  0
  -21.1062  -13.1299   22.2570 H   0  0  0  0  0  0
  -24.6649  -15.8438   20.5439 H   0  0  0  0  0  0
  -26.2912  -15.6302   20.1339 H   0  0  0  0  0  0
  -26.7194  -32.5433   23.1098 H   0  0  0  0  0  0
  -25.0019  -33.9705   25.0372 H   0  0  0  0  0  0
  -22.7166  -31.3014   21.3973 H   0  0  0  0  0  0
  -23.3742  -35.9629   23.3295 H   0  0  0  0  0  0
  -24.3585  -36.8917   22.2057 H   0  0  0  0  0  0
  -23.7233  -37.6493   23.6663 H   0  0  0  0  0  0
  -26.0949  -31.5492   20.5996 H   0  0  0  0  0  0
  -26.8447  -30.8389   21.9992 H   0  0  0  0  0  0
  -28.1233  -28.9886   21.1827 H   0  0  0  0  0  0
  -26.0042  -25.9016   19.0409 H   0  0  0  0  0  0
  -23.9782  -27.2845   19.0267 H   0  0  0  0  0  0
  -23.7619  -30.5858   19.4023 H   0  0  0  0  0  0
  -22.7572  -29.2431   19.8554 H   0  0  0  0  0  0
  -25.1281  -36.1925   25.0820 H   0  0  0  0  0  0
  -20.9974  -28.3264   24.1402 H   0  0  0  0  0  0
  -20.5658  -26.2304   23.3617 H   0  0  0  0  0  0
  -21.6641  -26.7429   22.1220 H   0  0  0  0  0  0
  -19.6904  -25.6283   21.1250 H   0  0  0  0  0  0
  -19.6678  -27.3180   20.6739 H   0  0  0  0  0  0
  -17.4192  -26.6666   21.4030 H   0  0  0  0  0  0
  -18.0330  -26.0077   22.9032 H   0  0  0  0  0  0
  -19.7947  -30.7261   24.2268 H   0  0  0  0  0  0
  -17.5029  -31.6272   24.5156 H   0  0  0  0  0  0
  -15.5357  -30.2993   23.7646 H   0  0  0  0  0  0
  -15.8676  -28.0827   22.7051 H   0  0  0  0  0  0
  -24.5861  -30.7125   25.7806 H   0  0  0  0  0  0
  -24.8933  -32.2934   26.4902 H   0  0  0  0  0  0
  -25.8039  -30.8924   27.0236 H   0  0  0  0  0  0
  -26.2903  -29.6792   24.1173 H   0  0  0  0  0  0
  -27.3979  -29.7259   25.4691 H   0  0  0  0  0  0
  -27.8787  -30.4312   23.9438 H   0  0  0  0  0  0
  -27.2623  -33.3629   26.2091 H   0  0  0  0  0  0
  -28.3831  -32.6933   25.0324 H   0  0  0  0  0  0
  -28.0720  -31.8469   26.5404 H   0  0  0  0  0  0
  -28.2589  -38.0094   24.7513 H   0  0  0  0  0  0
  -28.1060  -36.2626   24.6272 H   0  0  0  0  0  0
  -27.2305  -37.1443   25.8871 H   0  0  0  0  0  0
  -20.9382  -29.8764   21.6880 H   0  0  0  0  0  0
  -26.0155  -38.2849   24.1420 H   0  0  0  0  0  0
  -29.9281  -19.7545   17.1165 H   0  0  0  0  0  0
  -29.3639  -21.8666   18.2011 H   0  0  0  0  0  0
  -29.2490  -19.8218   22.0194 H   0  0  0  0  0  0
  -31.1805  -17.0109   18.1921 H   0  0  0  0  0  0
  -29.7993  -17.3354   17.1663 H   0  0  0  0  0  0
  -29.1771  -17.1149   21.8600 H   0  0  0  0  0  0
  -30.8900  -17.1838   21.5572 H   0  0  0  0  0  0
  -29.3305  -15.2588   18.2817 H   0  0  0  0  0  0
  -28.2653  -16.4358   18.9741 H   0  0  0  0  0  0
  -29.2876  -22.4923   21.8430 H   0  0  0  0  0  0
  -27.7313  -22.2729   21.1252 H   0  0  0  0  0  0
  -28.5139  -25.1922   21.7943 H   0  0  0  0  0  0
  -27.1105  -24.8539   20.8586 H   0  0  0  0  0  0
  -28.4529  -23.7167   19.1299 H   0  0  0  0  0  0
  -30.8216  -24.3131   20.7552 H   0  0  0  0  0  0
  -30.4033  -25.0268   19.3589 H   0  0  0  0  0  0
  -30.8074  -23.4505   19.3756 H   0  0  0  0  0  0
  1 25  1  0  0  0
  1 30  2  0  0  0
  1 83  1  0  0  0
  2  3  1  0  0  0
  2 25  1  0  0  0
  2 85  1  0  0  0
  2 86  1  0  0  0
  3  4  1  0  0  0
  3 87  1  0  0  0
  3 88  1  0  0  0
  4  5  1  0  0  0
  4 89  1  0  0  0
  4 90  1  0  0  0
  5  6  1  0  0  0
  5 26  1  0  0  0
  5 91  1  0  0  0
  6 25  1  0  0  0
  6 92  1  0  0  0
  6 93  1  0  0  0
  7  8  2  0  0  0
  7 26  1  0  0  0
  7 29  1  0  0  0
  8  9  1  0  0  0
  8 22  1  0  0  0
  9 10  1  0  0  0
  9 27  2  0  0  0
 10 11  2  0  0  0
 10 15  1  0  0  0
 11 12  1  0  0  0
 11 94  1  0  0  0
 12 13  2  0  0  0
 12 95  1  0  0  0
 13 14  1  0  0  0
 13 31  1  0  0  0
 14 15  2  0  0  0
 14 96  1  0  0  0
 15 97  1  0  0  0
 16 17  2  0  0  0
 16 21  1  0  0  0
 16 31  1  0  0  0
 17 18  1  0  0  0
 17 98  1  0  0  0
 18 19  2  0  0  0
 18 99  1  0  0  0
 19 20  1  0  0  0
 19 24  1  0  0  0
 20 21  2  0  0  0
 20100  1  0  0  0
 21 23  1  0  0  0
 22 28  1  0  0  0
 22 32  2  0  0  0
 26 27  1  0  0  0
 28101  1  0  0  0
 28102  1  0  0  0
 29103  1  0  0  0
 29104  1  0  0  0
 33 34  1  0  0  0
 33 66  1  0  0  0
 33 70  2  0  0  0
 34 36  1  0  0  0
 34 59  1  0  0  0
 34105  1  0  0  0
 35 44  2  0  0  0
 35 45  1  0  0  0
 35 68  1  0  0  0
 36 56  1  0  0  0
 36106  1  0  0  0
 37 39  1  0  0  0
 37 47  1  0  0  0
 37 66  1  0  0  0
 37107  1  0  0  0
 38 43  2  0  0  0
 38 46  1  0  0  0
 38 47  1  0  0  0
 39 64  1  0  0  0
 39 67  2  0  0  0
 40 52  1  0  0  0
 40 53  2  0  0  0
 40 58  1  0  0  0
 41108  1  0  0  0
 41109  1  0  0  0
 41110  1  0  0  0
 41 48  1  0  0  0
 42 43  1  0  0  0
 42 66  1  0  0  0
 42111  1  0  0  0
 42112  1  0  0  0
 43 44  1  0  0  0
 44113  1  0  0  0
 45 46  2  0  0  0
 45114  1  0  0  0
 46115  1  0  0  0
 47116  1  0  0  0
 47117  1  0  0  0
 48 56  1  0  0  0
 48 65  1  0  0  0
 48118  1  0  0  0
 49 50  1  0  0  0
 49 53  1  0  0  0
 49 64  1  0  0  0
 49119  1  0  0  0
 50 51  1  0  0  0
 50120  1  0  0  0
 50121  1  0  0  0
 51 52  1  0  0  0
 51122  1  0  0  0
 51123  1  0  0  0
 52124  1  0  0  0
 52125  1  0  0  0
 53 54  1  0  0  0
 54 55  2  0  0  0
 54126  1  0  0  0
 55 57  1  0  0  0
 55127  1  0  0  0
 56 69  2  0  0  0
 57 58  2  0  0  0
 57128  1  0  0  0
 58129  1  0  0  0
 59 60  1  0  0  0
 59 61  1  0  0  0
 59 62  1  0  0  0
 60130  1  0  0  0
 60131  1  0  0  0
 60132  1  0  0  0
 61133  1  0  0  0
 61134  1  0  0  0
 61135  1  0  0  0
 62136  1  0  0  0
 62137  1  0  0  0
 62138  1  0  0  0
 63 65  1  0  0  0
 63139  1  0  0  0
 63140  1  0  0  0
 63141  1  0  0  0
 64142  1  0  0  0
 65143  1  0  0  0
 68 81  1  0  0  0
 71 72  2  0  0  0
 71 74  1  0  0  0
 71144  1  0  0  0
 72 76  1  0  0  0
 72145  1  0  0  0
 73 75  1  0  0  0
 73 76  2  0  0  0
 73146  1  0  0  0
 74 75  2  0  0  0
 74 77  1  0  0  0
 75 78  1  0  0  0
 76 80  1  0  0  0
 77 79  1  0  0  0
 77147  1  0  0  0
 77148  1  0  0  0
 78 83  1  0  0  0
 78149  1  0  0  0
 78150  1  0  0  0
 79 83  1  0  0  0
 79151  1  0  0  0
 79152  1  0  0  0
 80 82  1  0  0  0
 80153  1  0  0  0
 80154  1  0  0  0
 81 82  1  0  0  0
 81155  1  0  0  0
 81156  1  0  0  0
 82 84  1  0  0  0
 82157  1  0  0  0
 84158  1  0  0  0
 84159  1  0  0  0
 84160  1  0  0  0
M  CHG  1  84   1
M  ISO  4   1 100  68 101  81 101  83 100
M  END
> <chiral flag>
0

> <version>
0

> <s_m_source_file>
/data/baiqing/PycharmProjects/Reinvent-master-3.2/result/LINK_invent/BTK/process_docking_weight1_custom_sum_contain_oxygen_bond_distance_aromatic_linkinvent_7_9_3/rearranged_h_0106.sdf

> <i_m_source_file_index>
37

> <r_mmod_Potential_Energy-OPLS-2005>
83.1424331665039

> <r_mmod_Stretch_Energy-OPLS-2005>
103.754364013672

> <r_mmod_Bend_Energy-OPLS-2005>
138.597869873047

> <r_mmod_Torsional_Energy-OPLS-2005>
345.615997314453

> <r_mmod_Improper_Torsional_Energy-OPLS-2005>
11.5799970626831

> <r_mmod_Van_der_Waal_Energy-OPLS-2005>
141.599975585938

> <r_mmod_Electrostatic_Energy-OPLS-2005>
-281.203918457031

> <r_mmod_Solvation_Energy-OPLS-2005>
-454.448852539062

> <b_mmod_Minimization_Converged-OPLS-2005>
0

> <r_mmod_RMS_Derivative-OPLS-2005>
2.05699777603149

$$$$
37
                    3D
 Structure written by MMmdl.
168176  0  0  1  0            999 V2000
  -30.7117  -14.6634   20.4703 C   0  0  0  0  0  0
  -30.4570  -12.4245   19.4371 C   0  0  0  0  0  0
  -29.5266  -12.5898   18.2192 C   0  0  0  0  0  0
  -28.0492  -12.3906   18.6265 C   0  0  0  0  0  0
  -27.6610  -13.2320   19.8813 C   0  0  2  0  0  0
  -28.7346  -13.1232   21.0011 C   0  0  0  0  0  0
  -25.2495  -13.8253   20.5697 C   0  0  0  0  0  0
  -24.1788  -13.0407   20.9218 C   0  0  0  0  0  0
  -24.6427  -11.6939   20.8693 C   0  0  0  0  0  0
  -23.9076  -10.4313   21.0263 C   0  0  0  0  0  0
  -24.3654   -9.4266   21.9023 C   0  0  0  0  0  0
  -23.6343   -8.2319   22.0687 C   0  0  0  0  0  0
  -22.4324   -8.0325   21.3515 C   0  0  0  0  0  0
  -21.9915   -9.0254   20.4611 C   0  0  0  0  0  0
  -22.7233  -10.2142   20.2921 C   0  0  0  0  0  0
  -21.6922   -6.0701   22.5257 C   0  0  0  0  0  0
  -21.4039   -6.5592   23.8184 C   0  0  0  0  0  0
  -21.3679   -5.6779   24.9140 C   0  0  0  0  0  0
  -21.6067   -4.3046   24.7230 C   0  0  0  0  0  0
  -21.8838   -3.8107   23.4363 C   0  0  0  0  0  0
  -21.9243   -4.6917   22.3402 C   0  0  0  0  0  0
  -22.7781  -13.5106   21.1958 C   0  0  0  0  0  0
  -22.1677   -4.2056   21.0997 F   0  0  0  0  0  0
  -21.5661   -3.4565   25.7773 F   0  0  0  0  0  0
  -30.0425  -13.4619   20.4102 N   0  0  0  0  0  0
  -26.3018  -12.9405   20.3437 N   0  0  0  0  0  0
  -25.9364  -11.6524   20.5767 N   0  0  0  0  0  0
  -22.0585  -12.7871   22.0586 N   0  0  0  0  0  0
  -25.3860  -15.1974   20.4105 N   0  0  0  0  0  0
  -31.8796  -14.7486   20.0963 O   0  0  0  0  0  0
  -21.6721   -6.8857   21.4228 O   0  0  0  0  0  0
  -22.3310  -14.5377   20.6949 O   0  0  0  0  0  0
  -24.6246  -31.8690   23.2056 C   0  0  0  0  0  0
  -25.9119  -32.4862   23.8445 C   0  0  1  0  0  0
  -27.2400  -27.3391   20.0721 C   0  0  0  0  0  0
  -25.5902  -33.8658   24.2341 N   0  0  0  0  0  0
  -23.4198  -30.4968   21.5409 C   0  0  2  0  0  0
  -24.8757  -28.9474   20.1307 C   0  0  0  0  0  0
  -22.7450  -29.4697   22.4847 C   0  0  0  0  0  0
  -18.0351  -28.1518   22.8350 C   0  0  0  0  0  0
  -24.1486  -36.7294   23.2624 C   0  0  0  0  0  0
  -25.9663  -30.7971   21.3953 C   0  0  0  0  0  0
  -26.0485  -29.4269   20.7235 C   0  0  0  0  0  0
  -27.2352  -28.6273   20.6994 C   0  0  0  0  0  0
  -26.0348  -26.9358   19.4563 C   0  0  0  0  0  0
  -24.8600  -27.6947   19.5099 C   0  0  0  0  0  0
  -23.6603  -29.8389   20.1553 C   0  0  0  0  0  0
  -25.4133  -36.3108   24.0317 C   0  0  1  0  0  0
  -20.5872  -28.3974   23.1570 C   0  0  2  0  0  0
  -20.6477  -26.9556   22.6179 C   0  0  0  0  0  0
  -19.6333  -26.7017   21.4965 C   0  0  0  0  0  0
  -18.2205  -26.8315   22.0931 C   0  0  0  0  0  0
  -19.1507  -28.9017   23.2918 C   0  0  0  0  0  0
  -18.9401  -30.1597   23.8837 C   0  0  0  0  0  0
  -17.6398  -30.6701   24.0370 C   0  0  0  0  0  0
  -25.9094  -34.9485   23.5110 C   0  0  0  0  0  0
  -16.5325  -29.9115   23.6186 C   0  0  0  0  0  0
  -16.7308  -28.6571   23.0191 C   0  0  0  0  0  0
  -26.4529  -31.6640   25.0800 C   0  0  0  0  0  0
  -25.3738  -31.3725   26.1488 C   0  0  0  0  0  0
  -27.0333  -30.3047   24.6258 C   0  0  0  0  0  0
  -27.6128  -32.4300   25.7533 C   0  0  0  0  0  0
  -27.5577  -37.1807   24.8451 C   0  0  0  0  0  0
  -21.4125  -29.3185   22.3713 N   0  0  0  0  0  0
  -26.4291  -37.3821   23.9414 N   0  0  0  0  0  0
  -24.6843  -31.0704   22.0991 N   0  0  0  0  0  0
  -23.4161  -28.8249   23.2947 O   0  0  0  0  0  0
  -28.3473  -26.4659   20.0620 O   0  0  0  0  0  0
  -26.5710  -34.8899   22.4691 O   0  0  0  0  0  0
  -23.5412  -32.1404   23.7357 O   0  0  0  0  0  0
  -27.8033  -20.2283   21.8391 C   0  0  0  0  0  0
  -27.5501  -19.5738   20.4863 C   0  0  0  0  0  0
  -28.6656  -21.4524   21.5153 C   0  0  0  0  0  0
  -28.9008  -19.7580   19.7740 C   0  0  2  0  0  0
  -30.8640  -18.7372   21.3211 C   0  0  0  0  0  0
  -30.1856  -24.5218   18.5906 C   0  0  0  0  0  0
  -29.3680  -16.5457   18.4954 C   0  0  0  0  0  0
  -28.8447  -22.3853   19.2344 C   0  0  0  0  0  0
  -28.0813  -25.0185   19.7965 C   0  0  0  0  0  0
  -29.9575  -18.5153   20.0969 C   0  0  1  0  0  0
  -29.2433  -23.9191   19.6467 C   0  0  2  0  0  0
  -29.4528  -16.9586   19.9739 C   0  0  1  0  0  0
  -30.0361  -15.8168   20.8133 N   0  0  0  0  0  0
  -29.2727  -21.2234   20.1631 N   0  3  1  0  0  0
  -31.5047  -12.5348   19.1363 H   0  0  0  0  0  0
  -30.3851  -11.4175   19.8471 H   0  0  0  0  0  0
  -29.8091  -11.9097   17.4144 H   0  0  0  0  0  0
  -29.6564  -13.5942   17.8161 H   0  0  0  0  0  0
  -27.9127  -11.3308   18.8184 H   0  0  0  0  0  0
  -27.3958  -12.6223   17.7851 H   0  0  0  0  0  0
  -27.6486  -14.2675   19.5690 H   0  0  0  0  0  0
  -28.7711  -12.1172   21.4248 H   0  0  0  0  0  0
  -28.5182  -13.7987   21.8276 H   0  0  0  0  0  0
  -25.2840   -9.5811   22.4456 H   0  0  0  0  0  0
  -24.0144   -7.4757   22.7385 H   0  0  0  0  0  0
  -21.0840   -8.8720   19.8919 H   0  0  0  0  0  0
  -22.3657  -10.9595   19.5973 H   0  0  0  0  0  0
  -21.1989   -7.6101   23.9616 H   0  0  0  0  0  0
  -21.1462   -6.0528   25.9038 H   0  0  0  0  0  0
  -22.0606   -2.7551   23.2920 H   0  0  0  0  0  0
  -22.4464  -11.9556   22.4719 H   0  0  0  0  0  0
  -21.1135  -13.0565   22.2928 H   0  0  0  0  0  0
  -24.5829  -15.8091   20.5095 H   0  0  0  0  0  0
  -26.2226  -15.7015   20.1372 H   0  0  0  0  0  0
  -26.7205  -32.5571   23.1233 H   0  0  0  0  0  0
  -24.9933  -33.9838   25.0402 H   0  0  0  0  0  0
  -22.7152  -31.3190   21.3887 H   0  0  0  0  0  0
  -23.3772  -35.9587   23.3317 H   0  0  0  0  0  0
  -24.3542  -36.8911   22.2006 H   0  0  0  0  0  0
  -23.7195  -37.6481   23.6680 H   0  0  0  0  0  0
  -26.1286  -31.5739   20.6468 H   0  0  0  0  0  0
  -26.8251  -30.8257   22.0484 H   0  0  0  0  0  0
  -28.1364  -28.9957   21.1762 H   0  0  0  0  0  0
  -25.9411  -26.0234   18.9002 H   0  0  0  0  0  0
  -23.9549  -27.3100   19.0579 H   0  0  0  0  0  0
  -23.8475  -30.6127   19.4082 H   0  0  0  0  0  0
  -22.7809  -29.2897   19.8297 H   0  0  0  0  0  0
  -25.1310  -36.1995   25.0821 H   0  0  0  0  0  0
  -20.9955  -28.3960   24.1725 H   0  0  0  0  0  0
  -20.3664  -26.3001   23.4470 H   0  0  0  0  0  0
  -21.6573  -26.6586   22.3400 H   0  0  0  0  0  0
  -19.8030  -25.7226   21.0532 H   0  0  0  0  0  0
  -19.7823  -27.4249   20.6902 H   0  0  0  0  0  0
  -17.4630  -26.7464   21.3114 H   0  0  0  0  0  0
  -18.0657  -26.0070   22.7826 H   0  0  0  0  0  0
  -19.7871  -30.7502   24.2037 H   0  0  0  0  0  0
  -17.4985  -31.6445   24.4753 H   0  0  0  0  0  0
  -15.5307  -30.3057   23.7410 H   0  0  0  0  0  0
  -15.8729  -28.0994   22.6769 H   0  0  0  0  0  0
  -24.5911  -30.7163   25.7735 H   0  0  0  0  0  0
  -24.8936  -32.2828   26.5035 H   0  0  0  0  0  0
  -25.7971  -30.8736   27.0207 H   0  0  0  0  0  0
  -26.2893  -29.6806   24.1308 H   0  0  0  0  0  0
  -27.4016  -29.7371   25.4823 H   0  0  0  0  0  0
  -27.8809  -30.4337   23.9526 H   0  0  0  0  0  0
  -27.2903  -33.3579   26.2258 H   0  0  0  0  0  0
  -28.3881  -32.6882   25.0318 H   0  0  0  0  0  0
  -28.0940  -31.8349   26.5295 H   0  0  0  0  0  0
  -28.2613  -38.0093   24.7535 H   0  0  0  0  0  0
  -28.1073  -36.2625   24.6306 H   0  0  0  0  0  0
  -27.2283  -37.1477   25.8849 H   0  0  0  0  0  0
  -20.9118  -29.9391   21.7468 H   0  0  0  0  0  0
  -26.0183  -38.2885   24.1482 H   0  0  0  0  0  0
  -28.3738  -19.5597   22.4691 H   0  0  0  0  0  0
  -26.8873  -20.4718   22.3787 H   0  0  0  0  0  0
  -26.7579  -20.1201   19.9698 H   0  0  0  0  0  0
  -27.1899  -18.5520   20.5553 H   0  0  0  0  0  0
  -29.3947  -21.6158   22.3157 H   0  0  0  0  0  0
  -27.9999  -22.3242   21.5010 H   0  0  0  0  0  0
  -28.6974  -19.6977   18.7012 H   0  0  0  0  0  0
  -31.4159  -19.6826   21.2895 H   0  0  0  0  0  0
  -31.6263  -17.9617   21.3092 H   0  0  0  0  0  0
  -30.3231  -18.6906   22.2622 H   0  0  0  0  0  0
  -30.9615  -23.8341   18.2607 H   0  0  0  0  0  0
  -30.6564  -25.4356   18.9591 H   0  0  0  0  0  0
  -29.6425  -24.8017   17.6902 H   0  0  0  0  0  0
  -28.9918  -17.3468   17.8660 H   0  0  0  0  0  0
  -28.7055  -15.6983   18.3562 H   0  0  0  0  0  0
  -30.3459  -16.2621   18.1014 H   0  0  0  0  0  0
  -29.2396  -22.1943   18.2323 H   0  0  0  0  0  0
  -27.7626  -22.3541   19.1004 H   0  0  0  0  0  0
  -27.3401  -24.6936   20.5288 H   0  0  0  0  0  0
  -27.5957  -24.9581   18.8304 H   0  0  0  0  0  0
  -30.6899  -18.5701   19.2874 H   0  0  0  0  0  0
  -29.7872  -23.8644   20.5888 H   0  0  0  0  0  0
  -28.4362  -16.9414   20.3428 H   0  0  0  0  0  0
  -30.3428  -16.1278   21.7251 H   0  0  0  0  0  0
  -30.2829  -21.2907   20.2118 H   0  0  0  0  0  0
  1 25  1  0  0  0
  1 30  2  0  0  0
  1 83  1  0  0  0
  2  3  1  0  0  0
  2 25  1  0  0  0
  2 85  1  0  0  0
  2 86  1  0  0  0
  3  4  1  0  0  0
  3 87  1  0  0  0
  3 88  1  0  0  0
  4  5  1  0  0  0
  4 89  1  0  0  0
  4 90  1  0  0  0
  5  6  1  0  0  0
  5 26  1  0  0  0
  5 91  1  0  0  0
  6 25  1  0  0  0
  6 92  1  0  0  0
  6 93  1  0  0  0
  7  8  2  0  0  0
  7 26  1  0  0  0
  7 29  1  0  0  0
  8  9  1  0  0  0
  8 22  1  0  0  0
  9 10  1  0  0  0
  9 27  2  0  0  0
 10 11  2  0  0  0
 10 15  1  0  0  0
 11 12  1  0  0  0
 11 94  1  0  0  0
 12 13  2  0  0  0
 12 95  1  0  0  0
 13 14  1  0  0  0
 13 31  1  0  0  0
 14 15  2  0  0  0
 14 96  1  0  0  0
 15 97  1  0  0  0
 16 17  2  0  0  0
 16 21  1  0  0  0
 16 31  1  0  0  0
 17 18  1  0  0  0
 17 98  1  0  0  0
 18 19  2  0  0  0
 18 99  1  0  0  0
 19 20  1  0  0  0
 19 24  1  0  0  0
 20 21  2  0  0  0
 20100  1  0  0  0
 21 23  1  0  0  0
 22 28  1  0  0  0
 22 32  2  0  0  0
 26 27  1  0  0  0
 28101  1  0  0  0
 28102  1  0  0  0
 29103  1  0  0  0
 29104  1  0  0  0
 33 34  1  0  0  0
 33 66  1  0  0  0
 33 70  2  0  0  0
 34 36  1  0  0  0
 34 59  1  0  0  0
 34105  1  0  0  0
 35 44  2  0  0  0
 35 45  1  0  0  0
 35 68  1  0  0  0
 36 56  1  0  0  0
 36106  1  0  0  0
 37 39  1  0  0  0
 37 47  1  0  0  0
 37 66  1  0  0  0
 37107  1  0  0  0
 38 43  2  0  0  0
 38 46  1  0  0  0
 38 47  1  0  0  0
 39 64  1  0  0  0
 39 67  2  0  0  0
 40 52  1  0  0  0
 40 53  2  0  0  0
 40 58  1  0  0  0
 41108  1  0  0  0
 41109  1  0  0  0
 41110  1  0  0  0
 41 48  1  0  0  0
 42 43  1  0  0  0
 42 66  1  0  0  0
 42111  1  0  0  0
 42112  1  0  0  0
 43 44  1  0  0  0
 44113  1  0  0  0
 45 46  2  0  0  0
 45114  1  0  0  0
 46115  1  0  0  0
 47116  1  0  0  0
 47117  1  0  0  0
 48 56  1  0  0  0
 48 65  1  0  0  0
 48118  1  0  0  0
 49 50  1  0  0  0
 49 53  1  0  0  0
 49 64  1  0  0  0
 49119  1  0  0  0
 50 51  1  0  0  0
 50120  1  0  0  0
 50121  1  0  0  0
 51 52  1  0  0  0
 51122  1  0  0  0
 51123  1  0  0  0
 52124  1  0  0  0
 52125  1  0  0  0
 53 54  1  0  0  0
 54 55  2  0  0  0
 54126  1  0  0  0
 55 57  1  0  0  0
 55127  1  0  0  0
 56 69  2  0  0  0
 57 58  2  0  0  0
 57128  1  0  0  0
 58129  1  0  0  0
 59 60  1  0  0  0
 59 61  1  0  0  0
 59 62  1  0  0  0
 60130  1  0  0  0
 60131  1  0  0  0
 60132  1  0  0  0
 61133  1  0  0  0
 61134  1  0  0  0
 61135  1  0  0  0
 62136  1  0  0  0
 62137  1  0  0  0
 62138  1  0  0  0
 63 65  1  0  0  0
 63139  1  0  0  0
 63140  1  0  0  0
 63141  1  0  0  0
 64142  1  0  0  0
 65143  1  0  0  0
 68 79  1  0  0  0
 71 72  1  0  0  0
 71 73  1  0  0  0
 71144  1  0  0  0
 71145  1  0  0  0
 72146  1  0  0  0
 72147  1  0  0  0
 72 74  1  0  0  0
 73 84  1  0  0  0
 73148  1  0  0  0
 73149  1  0  0  0
 74 80  1  0  0  0
 74 84  1  0  0  0
 74150  1  0  0  0
 75151  1  0  0  0
 75152  1  0  0  0
 75153  1  0  0  0
 75 80  1  0  0  0
 76154  1  0  0  0
 76155  1  0  0  0
 76156  1  0  0  0
 76 81  1  0  0  0
 77157  1  0  0  0
 77158  1  0  0  0
 77159  1  0  0  0
 77 82  1  0  0  0
 78 81  1  0  0  0
 78160  1  0  0  0
 78161  1  0  0  0
 78 84  1  0  0  0
 79 81  1  0  0  0
 79162  1  0  0  0
 79163  1  0  0  0
 80 82  1  0  0  0
 80164  1  0  0  0
 81165  1  0  0  0
 82 83  1  0  0  0
 82166  1  0  0  0
 83167  1  0  0  0
 84168  1  0  0  0
M  CHG  1  84   1
M  ISO  4   1 100  68 101  79 101  83 100
M  END
> <chiral flag>
0

> <version>
0

> <s_m_source_file>
/data/baiqing/PycharmProjects/Reinvent-master-3.2/result/LINK_invent/BTK/process_docking_weight1_custom_sum_contain_oxygen_bond_distance_aromatic_linkinvent_7_9_3/rearranged_h_0106.sdf

> <i_m_source_file_index>
38

> <r_mmod_Potential_Energy-OPLS-2005>
305.271301269531

> <r_mmod_Stretch_Energy-OPLS-2005>
144.30094909668

> <r_mmod_Bend_Energy-OPLS-2005>
240.404998779297

> <r_mmod_Torsional_Energy-OPLS-2005>
395.8447265625

> <r_mmod_Improper_Torsional_Energy-OPLS-2005>
5.24651575088501

> <r_mmod_Van_der_Waal_Energy-OPLS-2005>
133.117568969727

> <r_mmod_Electrostatic_Energy-OPLS-2005>
-228.713485717773

> <r_mmod_Solvation_Energy-OPLS-2005>
-440.313720703125

> <b_mmod_Minimization_Converged-OPLS-2005>
0

> <r_mmod_RMS_Derivative-OPLS-2005>
14.4996786117554

$$$$
38
                    3D
 Structure written by MMmdl.
152159  0  0  1  0            999 V2000
  -30.4448  -15.2000   20.3780 C   0  0  0  0  0  0
  -30.4425  -12.7621   19.5290 C   0  0  0  0  0  0
  -29.5363  -12.5591   18.2887 C   0  0  0  0  0  0
  -28.0816  -12.2931   18.7134 C   0  0  0  0  0  0
  -27.6168  -13.2633   19.8258 C   0  0  2  0  0  0
  -28.6471  -13.4068   20.9659 C   0  0  0  0  0  0
  -25.2432  -13.8225   20.5744 C   0  0  0  0  0  0
  -24.1763  -13.0449   20.9254 C   0  0  0  0  0  0
  -24.6384  -11.6933   20.8758 C   0  0  0  0  0  0
  -23.9071  -10.4301   21.0422 C   0  0  0  0  0  0
  -24.3617   -9.4215   21.9200 C   0  0  0  0  0  0
  -23.6296   -8.2243   22.0762 C   0  0  0  0  0  0
  -22.4284   -8.0267   21.3546 C   0  0  0  0  0  0
  -21.9914   -9.0250   20.4659 C   0  0  0  0  0  0
  -22.7234  -10.2136   20.3079 C   0  0  0  0  0  0
  -21.6853   -6.0741   22.5288 C   0  0  0  0  0  0
  -21.4014   -6.5650   23.8217 C   0  0  0  0  0  0
  -21.3665   -5.6801   24.9180 C   0  0  0  0  0  0
  -21.6050   -4.3063   24.7233 C   0  0  0  0  0  0
  -21.8818   -3.8152   23.4352 C   0  0  0  0  0  0
  -21.9202   -4.6973   22.3413 C   0  0  0  0  0  0
  -22.7789  -13.5221   21.1900 C   0  0  0  0  0  0
  -22.1665   -4.2157   21.0990 F   0  0  0  0  0  0
  -21.5633   -3.4546   25.7748 F   0  0  0  0  0  0
  -29.8913  -13.8959   20.3530 N   0  0  0  0  0  0
  -26.2826  -12.9475   20.3180 N   0  0  0  0  0  0
  -25.9303  -11.6598   20.5682 N   0  0  0  0  0  0
  -22.0427  -12.8220   22.0450 N   0  0  0  0  0  0
  -25.4144  -15.1944   20.4217 N   0  0  0  0  0  0
  -31.6561  -15.2257   20.1210 O   0  0  0  0  0  0
  -21.6637   -6.8870   21.4243 O   0  0  0  0  0  0
  -22.3489  -14.5530   20.6735 O   0  0  0  0  0  0
  -24.6579  -31.8279   23.1738 C   0  0  0  0  0  0
  -25.9290  -32.4595   23.8188 C   0  0  1  0  0  0
  -27.2139  -26.9719   20.1673 C   0  0  0  0  0  0
  -25.5985  -33.8409   24.2102 N   0  0  0  0  0  0
  -23.4696  -30.4400   21.5203 C   0  0  2  0  0  0
  -24.9226  -28.8373   20.1057 C   0  0  0  0  0  0
  -22.7653  -29.4455   22.4791 C   0  0  0  0  0  0
  -18.0346  -28.1362   22.8427 C   0  0  0  0  0  0
  -24.1496  -36.7208   23.2639 C   0  0  0  0  0  0
  -26.0354  -30.6453   21.3988 C   0  0  0  0  0  0
  -26.1016  -29.2411   20.7407 C   0  0  0  0  0  0
  -27.2393  -28.3249   20.7558 C   0  0  0  0  0  0
  -26.0116  -26.7145   19.4714 C   0  0  0  0  0  0
  -24.9009  -27.5947   19.4520 C   0  0  0  0  0  0
  -23.7060  -29.7585   20.1444 C   0  0  0  0  0  0
  -25.4133  -36.2965   24.0295 C   0  0  1  0  0  0
  -20.5951  -28.3716   23.1198 C   0  0  2  0  0  0
  -20.6813  -26.9412   22.5404 C   0  0  0  0  0  0
  -19.5818  -26.6340   21.5194 C   0  0  0  0  0  0
  -18.1982  -26.7908   22.1555 C   0  0  0  0  0  0
  -19.1589  -28.8863   23.2800 C   0  0  0  0  0  0
  -18.9490  -30.1434   23.8866 C   0  0  0  0  0  0
  -17.6476  -30.6545   24.0556 C   0  0  0  0  0  0
  -25.9099  -34.9343   23.5016 C   0  0  0  0  0  0
  -16.5380  -29.9033   23.6310 C   0  0  0  0  0  0
  -16.7324  -28.6454   23.0324 C   0  0  0  0  0  0
  -26.4570  -31.6523   25.0691 C   0  0  0  0  0  0
  -25.3714  -31.3767   26.1362 C   0  0  0  0  0  0
  -27.0461  -30.2896   24.6386 C   0  0  0  0  0  0
  -27.6069  -32.4331   25.7494 C   0  0  0  0  0  0
  -27.5574  -37.1760   24.8466 C   0  0  0  0  0  0
  -21.4325  -29.3007   22.3543 N   0  0  0  0  0  0
  -26.4284  -37.3698   23.9404 N   0  0  0  0  0  0
  -24.7420  -30.9989   22.0842 N   0  0  0  0  0  0
  -23.4241  -28.8055   23.3038 O   0  0  0  0  0  0
  -28.2269  -25.8993   20.2983 O   0  0  0  0  0  0
  -26.5696  -34.8875   22.4608 O   0  0  0  0  0  0
  -23.5658  -32.1226   23.6853 O   0  0  0  0  0  0
  -27.4982  -19.1065   20.3396 C   0  0  0  0  0  0
  -29.1270  -19.6445   22.1289 C   0  0  0  0  0  0
  -28.4842  -22.7518   20.5856 C   0  0  0  0  0  0
  -29.0779  -21.1771   19.9906 C   0  0  0  0  0  0
  -29.8973  -18.0550   20.1696 C   0  0  0  0  0  0
  -28.2213  -24.3377   19.8153 C   0  0  0  0  0  0
  -28.9581  -19.5056   20.6081 C   0  0  0  0  0  0
  -29.6666  -16.4457   20.4877 N   0  0  0  0  0  0
  -31.4635  -12.9612   19.2004 H   0  0  0  0  0  0
  -30.5034  -11.8488   20.1228 H   0  0  0  0  0  0
  -29.9032  -11.7302   17.6810 H   0  0  0  0  0  0
  -29.5784  -13.4479   17.6575 H   0  0  0  0  0  0
  -28.0296  -11.2661   19.0774 H   0  0  0  0  0  0
  -27.4141  -12.3424   17.8523 H   0  0  0  0  0  0
  -27.5467  -14.2359   19.3353 H   0  0  0  0  0  0
  -28.7940  -12.4628   21.4925 H   0  0  0  0  0  0
  -28.2964  -14.1267   21.7063 H   0  0  0  0  0  0
  -25.2762   -9.5704   22.4777 H   0  0  0  0  0  0
  -24.0012   -7.4645   22.7483 H   0  0  0  0  0  0
  -21.0841   -8.8775   19.8966 H   0  0  0  0  0  0
  -22.3681  -10.9683   19.6195 H   0  0  0  0  0  0
  -21.1984   -7.6155   23.9724 H   0  0  0  0  0  0
  -21.1482   -6.0528   25.9081 H   0  0  0  0  0  0
  -22.0581   -2.7611   23.2855 H   0  0  0  0  0  0
  -22.4032  -11.9872   22.4841 H   0  0  0  0  0  0
  -21.1040  -13.1234   22.2647 H   0  0  0  0  0  0
  -24.6496  -15.8456   20.5534 H   0  0  0  0  0  0
  -26.2516  -15.6338   20.0637 H   0  0  0  0  0  0
  -26.7337  -32.5141   23.0880 H   0  0  0  0  0  0
  -25.0109  -33.9487   25.0239 H   0  0  0  0  0  0
  -22.7783  -31.2689   21.3495 H   0  0  0  0  0  0
  -23.3765  -35.9537   23.3281 H   0  0  0  0  0  0
  -24.3574  -36.8883   22.2061 H   0  0  0  0  0  0
  -23.7252  -37.6386   23.6714 H   0  0  0  0  0  0
  -26.2122  -31.3891   20.6203 H   0  0  0  0  0  0
  -26.8964  -30.7016   22.0530 H   0  0  0  0  0  0
  -28.1286  -28.6229   21.2939 H   0  0  0  0  0  0
  -25.8810  -25.7701   18.9668 H   0  0  0  0  0  0
  -24.0047  -27.2828   18.9331 H   0  0  0  0  0  0
  -23.8546  -30.5270   19.3854 H   0  0  0  0  0  0
  -22.8174  -29.2083   19.8299 H   0  0  0  0  0  0
  -25.1330  -36.1765   25.0784 H   0  0  0  0  0  0
  -21.0028  -28.3329   24.1315 H   0  0  0  0  0  0
  -20.5687  -26.2357   23.3650 H   0  0  0  0  0  0
  -21.6680  -26.7385   22.1220 H   0  0  0  0  0  0
  -19.7005  -25.6241   21.1254 H   0  0  0  0  0  0
  -19.6787  -27.3111   20.6699 H   0  0  0  0  0  0
  -17.4284  -26.6675   21.3923 H   0  0  0  0  0  0
  -18.0353  -26.0043   22.8943 H   0  0  0  0  0  0
  -19.7960  -30.7241   24.2260 H   0  0  0  0  0  0
  -17.4997  -31.6200   24.5176 H   0  0  0  0  0  0
  -15.5359  -30.2902   23.7621 H   0  0  0  0  0  0
  -15.8745  -28.0738   22.7043 H   0  0  0  0  0  0
  -24.5893  -30.7118   25.7687 H   0  0  0  0  0  0
  -24.8904  -32.2962   26.4702 H   0  0  0  0  0  0
  -25.7962  -30.8991   27.0197 H   0  0  0  0  0  0
  -26.3113  -29.6575   24.1380 H   0  0  0  0  0  0
  -27.4006  -29.7255   25.5027 H   0  0  0  0  0  0
  -27.9053  -30.4101   23.9782 H   0  0  0  0  0  0
  -27.2636  -33.3659   26.1978 H   0  0  0  0  0  0
  -28.3930  -32.6851   25.0365 H   0  0  0  0  0  0
  -28.0677  -31.8517   26.5490 H   0  0  0  0  0  0
  -28.2566  -38.0077   24.7496 H   0  0  0  0  0  0
  -28.1086  -36.2596   24.6308 H   0  0  0  0  0  0
  -27.2276  -37.1417   25.8864 H   0  0  0  0  0  0
  -20.9535  -29.8655   21.6670 H   0  0  0  0  0  0
  -26.0132  -38.2755   24.1428 H   0  0  0  0  0  0
  -26.8086  -19.8897   20.6574 H   0  0  0  0  0  0
  -27.2222  -18.1917   20.8656 H   0  0  0  0  0  0
  -27.3296  -18.9363   19.2760 H   0  0  0  0  0  0
  -28.4172  -20.3603   22.5471 H   0  0  0  0  0  0
  -30.1274  -19.9936   22.3858 H   0  0  0  0  0  0
  -28.9713  -18.6946   22.6410 H   0  0  0  0  0  0
  -29.1198  -22.9712   21.4434 H   0  0  0  0  0  0
  -27.5207  -22.5218   21.0410 H   0  0  0  0  0  0
  -30.1467  -21.3369   19.8454 H   0  0  0  0  0  0
  -28.7007  -21.1156   18.9680 H   0  0  0  0  0  0
  -29.9719  -18.0891   19.0814 H   0  0  0  0  0  0
  -30.9156  -18.2516   20.5067 H   0  0  0  0  0  0
  -27.3060  -24.2051   19.2422 H   0  0  0  0  0  0
  -28.9886  -24.3605   19.0407 H   0  0  0  0  0  0
  -28.7066  -16.2492   20.7298 H   0  0  0  0  0  0
  1 25  1  0  0  0
  1 30  2  0  0  0
  1 78  1  0  0  0
  2  3  1  0  0  0
  2 25  1  0  0  0
  2 79  1  0  0  0
  2 80  1  0  0  0
  3  4  1  0  0  0
  3 81  1  0  0  0
  3 82  1  0  0  0
  4  5  1  0  0  0
  4 83  1  0  0  0
  4 84  1  0  0  0
  5  6  1  0  0  0
  5 26  1  0  0  0
  5 85  1  0  0  0
  6 25  1  0  0  0
  6 86  1  0  0  0
  6 87  1  0  0  0
  7  8  2  0  0  0
  7 26  1  0  0  0
  7 29  1  0  0  0
  8  9  1  0  0  0
  8 22  1  0  0  0
  9 10  1  0  0  0
  9 27  2  0  0  0
 10 11  2  0  0  0
 10 15  1  0  0  0
 11 12  1  0  0  0
 11 88  1  0  0  0
 12 13  2  0  0  0
 12 89  1  0  0  0
 13 14  1  0  0  0
 13 31  1  0  0  0
 14 15  2  0  0  0
 14 90  1  0  0  0
 15 91  1  0  0  0
 16 17  2  0  0  0
 16 21  1  0  0  0
 16 31  1  0  0  0
 17 18  1  0  0  0
 17 92  1  0  0  0
 18 19  2  0  0  0
 18 93  1  0  0  0
 19 20  1  0  0  0
 19 24  1  0  0  0
 20 21  2  0  0  0
 20 94  1  0  0  0
 21 23  1  0  0  0
 22 28  1  0  0  0
 22 32  2  0  0  0
 26 27  1  0  0  0
 28 95  1  0  0  0
 28 96  1  0  0  0
 29 97  1  0  0  0
 29 98  1  0  0  0
 33 34  1  0  0  0
 33 66  1  0  0  0
 33 70  2  0  0  0
 34 36  1  0  0  0
 34 59  1  0  0  0
 34 99  1  0  0  0
 35 44  2  0  0  0
 35 45  1  0  0  0
 35 68  1  0  0  0
 36 56  1  0  0  0
 36100  1  0  0  0
 37 39  1  0  0  0
 37 47  1  0  0  0
 37 66  1  0  0  0
 37101  1  0  0  0
 38 43  2  0  0  0
 38 46  1  0  0  0
 38 47  1  0  0  0
 39 64  1  0  0  0
 39 67  2  0  0  0
 40 52  1  0  0  0
 40 53  2  0  0  0
 40 58  1  0  0  0
 41102  1  0  0  0
 41103  1  0  0  0
 41104  1  0  0  0
 41 48  1  0  0  0
 42 43  1  0  0  0
 42 66  1  0  0  0
 42105  1  0  0  0
 42106  1  0  0  0
 43 44  1  0  0  0
 44107  1  0  0  0
 45 46  2  0  0  0
 45108  1  0  0  0
 46109  1  0  0  0
 47110  1  0  0  0
 47111  1  0  0  0
 48 56  1  0  0  0
 48 65  1  0  0  0
 48112  1  0  0  0
 49 50  1  0  0  0
 49 53  1  0  0  0
 49 64  1  0  0  0
 49113  1  0  0  0
 50 51  1  0  0  0
 50114  1  0  0  0
 50115  1  0  0  0
 51 52  1  0  0  0
 51116  1  0  0  0
 51117  1  0  0  0
 52118  1  0  0  0
 52119  1  0  0  0
 53 54  1  0  0  0
 54 55  2  0  0  0
 54120  1  0  0  0
 55 57  1  0  0  0
 55121  1  0  0  0
 56 69  2  0  0  0
 57 58  2  0  0  0
 57122  1  0  0  0
 58123  1  0  0  0
 59 60  1  0  0  0
 59 61  1  0  0  0
 59 62  1  0  0  0
 60124  1  0  0  0
 60125  1  0  0  0
 60126  1  0  0  0
 61127  1  0  0  0
 61128  1  0  0  0
 61129  1  0  0  0
 62130  1  0  0  0
 62131  1  0  0  0
 62132  1  0  0  0
 63 65  1  0  0  0
 63133  1  0  0  0
 63134  1  0  0  0
 63135  1  0  0  0
 64136  1  0  0  0
 65137  1  0  0  0
 68 76  1  0  0  0
 71138  1  0  0  0
 71139  1  0  0  0
 71140  1  0  0  0
 71 77  1  0  0  0
 72 77  1  0  0  0
 72141  1  0  0  0
 72142  1  0  0  0
 72143  1  0  0  0
 73 74  1  0  0  0
 73 76  1  0  0  0
 73144  1  0  0  0
 73145  1  0  0  0
 74 77  1  0  0  0
 74146  1  0  0  0
 74147  1  0  0  0
 75 77  1  0  0  0
 75 78  1  0  0  0
 75148  1  0  0  0
 75149  1  0  0  0
 76150  1  0  0  0
 76151  1  0  0  0
 78152  1  0  0  0
M  ISO  4   1 100  68 101  76 101  78 100
M  END
> <chiral flag>
0

> <version>
0

> <s_m_source_file>
/data/baiqing/PycharmProjects/Reinvent-master-3.2/result/LINK_invent/BTK/process_docking_weight1_custom_sum_contain_oxygen_bond_distance_aromatic_linkinvent_7_9_3/rearranged_h_0106.sdf

> <i_m_source_file_index>
39

> <r_mmod_Potential_Energy-OPLS-2005>
1110.20471191406

> <r_mmod_Stretch_Energy-OPLS-2005>
556.68115234375

> <r_mmod_Bend_Energy-OPLS-2005>
422.959045410156

> <r_mmod_Torsional_Energy-OPLS-2005>
230.776428222656

> <r_mmod_Improper_Torsional_Energy-OPLS-2005>
4.29207897186279

> <r_mmod_Van_der_Waal_Energy-OPLS-2005>
106.733596801758

> <r_mmod_Electrostatic_Energy-OPLS-2005>
-403.880706787109

> <r_mmod_Solvation_Energy-OPLS-2005>
-203.002014160156

> <b_mmod_Minimization_Converged-OPLS-2005>
0

> <r_mmod_RMS_Derivative-OPLS-2005>
2.36118316650391

$$$$
39
                    3D
 Structure written by MMmdl.
161168  0  0  1  0            999 V2000
  -30.5098  -14.8887   20.4231 C   0  0  0  0  0  0
  -30.4306  -12.5436   19.5039 C   0  0  0  0  0  0
  -29.5063  -12.5256   18.2622 C   0  0  0  0  0  0
  -28.0309  -12.3318   18.6608 C   0  0  0  0  0  0
  -27.6253  -13.2387   19.8534 C   0  0  2  0  0  0
  -28.6649  -13.2045   20.9935 C   0  0  0  0  0  0
  -25.2436  -13.8210   20.5777 C   0  0  0  0  0  0
  -24.1754  -13.0458   20.9269 C   0  0  0  0  0  0
  -24.6347  -11.6930   20.8792 C   0  0  0  0  0  0
  -23.9041  -10.4297   21.0412 C   0  0  0  0  0  0
  -24.3605   -9.4197   21.9174 C   0  0  0  0  0  0
  -23.6302   -8.2211   22.0715 C   0  0  0  0  0  0
  -22.4274   -8.0256   21.3512 C   0  0  0  0  0  0
  -21.9906   -9.0224   20.4622 C   0  0  0  0  0  0
  -22.7216  -10.2120   20.3041 C   0  0  0  0  0  0
  -21.6843   -6.0727   22.5257 C   0  0  0  0  0  0
  -21.4046   -6.5632   23.8198 C   0  0  0  0  0  0
  -21.3652   -5.6774   24.9149 C   0  0  0  0  0  0
  -21.6018   -4.3036   24.7193 C   0  0  0  0  0  0
  -21.8834   -3.8141   23.4319 C   0  0  0  0  0  0
  -21.9200   -4.6962   22.3380 C   0  0  0  0  0  0
  -22.7746  -13.5181   21.1890 C   0  0  0  0  0  0
  -22.1658   -4.2147   21.0955 F   0  0  0  0  0  0
  -21.5610   -3.4523   25.7714 F   0  0  0  0  0  0
  -29.9468  -13.6194   20.4108 N   0  0  0  0  0  0
  -26.2836  -12.9430   20.3326 N   0  0  0  0  0  0
  -25.9265  -11.6571   20.5812 N   0  0  0  0  0  0
  -22.0407  -12.8189   22.0470 N   0  0  0  0  0  0
  -25.4210  -15.1947   20.4175 N   0  0  0  0  0  0
  -31.7028  -14.9920   20.1051 O   0  0  0  0  0  0
  -21.6622   -6.8867   21.4218 O   0  0  0  0  0  0
  -22.3400  -14.5420   20.6636 O   0  0  0  0  0  0
  -24.6326  -31.8501   23.1893 C   0  0  0  0  0  0
  -25.9126  -32.4702   23.8271 C   0  0  1  0  0  0
  -27.2016  -27.1510   20.1300 C   0  0  0  0  0  0
  -25.5960  -33.8517   24.2190 N   0  0  0  0  0  0
  -23.4365  -30.4662   21.5338 C   0  0  2  0  0  0
  -24.8862  -28.8954   20.1024 C   0  0  0  0  0  0
  -22.7513  -29.4581   22.4875 C   0  0  0  0  0  0
  -18.0325  -28.1433   22.8424 C   0  0  0  0  0  0
  -24.1512  -36.7253   23.2622 C   0  0  0  0  0  0
  -25.9908  -30.7202   21.3897 C   0  0  0  0  0  0
  -26.0601  -29.3303   20.7317 C   0  0  0  0  0  0
  -27.2230  -28.4734   20.7254 C   0  0  0  0  0  0
  -26.0082  -26.8157   19.4621 C   0  0  0  0  0  0
  -24.8744  -27.6563   19.4407 C   0  0  0  0  0  0
  -23.6593  -29.7896   20.1544 C   0  0  0  0  0  0
  -25.4141  -36.2992   24.0278 C   0  0  1  0  0  0
  -20.5910  -28.3725   23.1256 C   0  0  2  0  0  0
  -20.6811  -26.9442   22.5384 C   0  0  0  0  0  0
  -19.5761  -26.6374   21.5221 C   0  0  0  0  0  0
  -18.1911  -26.8031   22.1486 C   0  0  0  0  0  0
  -19.1570  -28.8876   23.2878 C   0  0  0  0  0  0
  -18.9468  -30.1481   23.8915 C   0  0  0  0  0  0
  -17.6440  -30.6534   24.0695 C   0  0  0  0  0  0
  -25.9089  -34.9390   23.5015 C   0  0  0  0  0  0
  -16.5352  -29.9085   23.6339 C   0  0  0  0  0  0
  -16.7323  -28.6594   23.0208 C   0  0  0  0  0  0
  -26.4487  -31.6505   25.0656 C   0  0  0  0  0  0
  -25.3706  -31.3643   26.1364 C   0  0  0  0  0  0
  -27.0342  -30.2898   24.6172 C   0  0  0  0  0  0
  -27.6052  -32.4251   25.7425 C   0  0  0  0  0  0
  -27.5587  -37.1783   24.8461 C   0  0  0  0  0  0
  -21.4203  -29.3090   22.3629 N   0  0  0  0  0  0
  -26.4306  -37.3694   23.9381 N   0  0  0  0  0  0
  -24.7071  -31.0329   22.0940 N   0  0  0  0  0  0
  -23.4188  -28.8114   23.3006 O   0  0  0  0  0  0
  -28.2655  -26.1866   20.1241 O   0  0  0  0  0  0
  -26.5652  -34.8865   22.4579 O   0  0  0  0  0  0
  -23.5456  -32.1402   23.7126 O   0  0  0  0  0  0
  -27.9828  -24.1697   17.3255 C   0  0  0  0  0  0
  -27.6491  -18.5202   21.0402 C   0  0  0  0  0  0
  -30.0839  -23.5571   19.3515 C   0  0  0  0  0  0
  -27.7641  -23.1192   18.4363 C   0  0  0  0  0  0
  -29.0968  -20.3457   19.8959 C   0  0  0  0  0  0
  -28.5853  -21.8161   20.5191 C   0  0  0  0  0  0
  -29.8665  -17.5134   20.0604 C   0  0  0  0  0  0
  -28.0493  -24.6957   20.4967 C   0  0  0  0  0  0
  -29.1040  -18.8680   20.6903 C   0  0  2  0  0  0
  -28.6124  -23.3066   19.7288 C   0  0  1  0  0  0
  -29.6906  -16.0343   20.5583 N   0  0  0  0  0  0
  -31.4605  -12.7134   19.1895 H   0  0  0  0  0  0
  -30.4363  -11.5822   20.0180 H   0  0  0  0  0  0
  -29.8164  -11.7381   17.5752 H   0  0  0  0  0  0
  -29.6056  -13.4697   17.7266 H   0  0  0  0  0  0
  -27.8928  -11.2824   18.9269 H   0  0  0  0  0  0
  -27.3733  -12.5125   17.8070 H   0  0  0  0  0  0
  -27.6062  -14.2542   19.4591 H   0  0  0  0  0  0
  -28.7326  -12.1996   21.4173 H   0  0  0  0  0  0
  -28.3748  -13.8621   21.8141 H   0  0  0  0  0  0
  -25.2724   -9.5677   22.4787 H   0  0  0  0  0  0
  -24.0001   -7.4580   22.7401 H   0  0  0  0  0  0
  -21.0835   -8.8718   19.8933 H   0  0  0  0  0  0
  -22.3627  -10.9656   19.6171 H   0  0  0  0  0  0
  -21.2082   -7.6145   23.9729 H   0  0  0  0  0  0
  -21.1454   -6.0486   25.9059 H   0  0  0  0  0  0
  -22.0654   -2.7612   23.2787 H   0  0  0  0  0  0
  -22.4044  -11.9855   22.4849 H   0  0  0  0  0  0
  -21.1032  -13.1206   22.2698 H   0  0  0  0  0  0
  -24.6750  -15.8670   20.5589 H   0  0  0  0  0  0
  -26.2617  -15.6177   20.0463 H   0  0  0  0  0  0
  -26.7156  -32.5333   23.0985 H   0  0  0  0  0  0
  -25.0143  -33.9686   25.0355 H   0  0  0  0  0  0
  -22.7322  -31.2877   21.3744 H   0  0  0  0  0  0
  -23.3752  -35.9616   23.3257 H   0  0  0  0  0  0
  -24.3571  -36.8940   22.2042 H   0  0  0  0  0  0
  -23.7316  -37.6442   23.6704 H   0  0  0  0  0  0
  -26.1302  -31.4738   20.6131 H   0  0  0  0  0  0
  -26.8717  -30.7837   22.0178 H   0  0  0  0  0  0
  -28.1229  -28.8009   21.2223 H   0  0  0  0  0  0
  -25.9406  -25.8703   18.9417 H   0  0  0  0  0  0
  -23.9925  -27.3392   18.8988 H   0  0  0  0  0  0
  -23.7704  -30.5617   19.3934 H   0  0  0  0  0  0
  -22.7770  -29.2151   19.8611 H   0  0  0  0  0  0
  -25.1327  -36.1787   25.0768 H   0  0  0  0  0  0
  -21.0041  -28.3314   24.1361 H   0  0  0  0  0  0
  -20.5910  -26.2306   23.3582 H   0  0  0  0  0  0
  -21.6650  -26.7591   22.1026 H   0  0  0  0  0  0
  -19.6901  -25.6273   21.1269 H   0  0  0  0  0  0
  -19.6716  -27.3182   20.6739 H   0  0  0  0  0  0
  -17.4302  -26.7084   21.3724 H   0  0  0  0  0  0
  -17.9983  -26.0082   22.8697 H   0  0  0  0  0  0
  -19.7948  -30.7353   24.2219 H   0  0  0  0  0  0
  -17.4927  -31.6139   24.5448 H   0  0  0  0  0  0
  -15.5333  -30.2936   23.7625 H   0  0  0  0  0  0
  -15.8764  -28.1046   22.6655 H   0  0  0  0  0  0
  -24.5931  -30.6930   25.7670 H   0  0  0  0  0  0
  -24.8845  -32.2816   26.4696 H   0  0  0  0  0  0
  -25.8017  -30.8866   27.0186 H   0  0  0  0  0  0
  -26.2942  -29.6584   24.1248 H   0  0  0  0  0  0
  -27.4055  -29.7129   25.4653 H   0  0  0  0  0  0
  -27.8776  -30.4077   23.9377 H   0  0  0  0  0  0
  -27.2670  -33.3584   26.1917 H   0  0  0  0  0  0
  -28.3886  -32.6795   25.0274 H   0  0  0  0  0  0
  -28.0694  -31.8453   26.5398 H   0  0  0  0  0  0
  -28.2564  -38.0118   24.7491 H   0  0  0  0  0  0
  -28.1149  -36.2640   24.6322 H   0  0  0  0  0  0
  -27.2305  -37.1426   25.8868 H   0  0  0  0  0  0
  -20.9340  -29.8799   21.6862 H   0  0  0  0  0  0
  -26.0138  -38.2749   24.1376 H   0  0  0  0  0  0
  -27.2161  -24.0969   16.5542 H   0  0  0  0  0  0
  -28.9394  -24.0128   16.8259 H   0  0  0  0  0  0
  -27.9741  -25.1918   17.7045 H   0  0  0  0  0  0
  -27.5753  -17.6392   21.6792 H   0  0  0  0  0  0
  -27.0797  -18.3129   20.1371 H   0  0  0  0  0  0
  -27.1554  -19.3481   21.5519 H   0  0  0  0  0  0
  -30.4622  -22.7875   18.6762 H   0  0  0  0  0  0
  -30.7422  -23.5787   20.2211 H   0  0  0  0  0  0
  -30.1927  -24.5189   18.8493 H   0  0  0  0  0  0
  -27.9700  -22.1393   18.0001 H   0  0  0  0  0  0
  -26.7036  -23.1034   18.6963 H   0  0  0  0  0  0
  -30.1009  -20.4956   19.4973 H   0  0  0  0  0  0
  -28.4755  -20.1756   19.0156 H   0  0  0  0  0  0
  -29.1402  -21.9398   21.4482 H   0  0  0  0  0  0
  -27.5542  -21.6649   20.8406 H   0  0  0  0  0  0
  -30.9383  -17.7202   20.0285 H   0  0  0  0  0  0
  -29.5641  -17.4611   19.0117 H   0  0  0  0  0  0
  -28.4831  -24.6448   21.4947 H   0  0  0  0  0  0
  -26.9861  -24.5394   20.6791 H   0  0  0  0  0  0
  -29.5991  -19.0501   21.6452 H   0  0  0  0  0  0
  -28.7464  -15.8131   20.8384 H   0  0  0  0  0  0
  1 25  1  0  0  0
  1 30  2  0  0  0
  1 81  1  0  0  0
  2  3  1  0  0  0
  2 25  1  0  0  0
  2 82  1  0  0  0
  2 83  1  0  0  0
  3  4  1  0  0  0
  3 84  1  0  0  0
  3 85  1  0  0  0
  4  5  1  0  0  0
  4 86  1  0  0  0
  4 87  1  0  0  0
  5  6  1  0  0  0
  5 26  1  0  0  0
  5 88  1  0  0  0
  6 25  1  0  0  0
  6 89  1  0  0  0
  6 90  1  0  0  0
  7  8  2  0  0  0
  7 26  1  0  0  0
  7 29  1  0  0  0
  8  9  1  0  0  0
  8 22  1  0  0  0
  9 10  1  0  0  0
  9 27  2  0  0  0
 10 11  2  0  0  0
 10 15  1  0  0  0
 11 12  1  0  0  0
 11 91  1  0  0  0
 12 13  2  0  0  0
 12 92  1  0  0  0
 13 14  1  0  0  0
 13 31  1  0  0  0
 14 15  2  0  0  0
 14 93  1  0  0  0
 15 94  1  0  0  0
 16 17  2  0  0  0
 16 21  1  0  0  0
 16 31  1  0  0  0
 17 18  1  0  0  0
 17 95  1  0  0  0
 18 19  2  0  0  0
 18 96  1  0  0  0
 19 20  1  0  0  0
 19 24  1  0  0  0
 20 21  2  0  0  0
 20 97  1  0  0  0
 21 23  1  0  0  0
 22 28  1  0  0  0
 22 32  2  0  0  0
 26 27  1  0  0  0
 28 98  1  0  0  0
 28 99  1  0  0  0
 29100  1  0  0  0
 29101  1  0  0  0
 33 34  1  0  0  0
 33 66  1  0  0  0
 33 70  2  0  0  0
 34 36  1  0  0  0
 34 59  1  0  0  0
 34102  1  0  0  0
 35 44  2  0  0  0
 35 45  1  0  0  0
 35 68  1  0  0  0
 36 56  1  0  0  0
 36103  1  0  0  0
 37 39  1  0  0  0
 37 47  1  0  0  0
 37 66  1  0  0  0
 37104  1  0  0  0
 38 43  2  0  0  0
 38 46  1  0  0  0
 38 47  1  0  0  0
 39 64  1  0  0  0
 39 67  2  0  0  0
 40 52  1  0  0  0
 40 53  2  0  0  0
 40 58  1  0  0  0
 41105  1  0  0  0
 41106  1  0  0  0
 41107  1  0  0  0
 41 48  1  0  0  0
 42 43  1  0  0  0
 42 66  1  0  0  0
 42108  1  0  0  0
 42109  1  0  0  0
 43 44  1  0  0  0
 44110  1  0  0  0
 45 46  2  0  0  0
 45111  1  0  0  0
 46112  1  0  0  0
 47113  1  0  0  0
 47114  1  0  0  0
 48 56  1  0  0  0
 48 65  1  0  0  0
 48115  1  0  0  0
 49 50  1  0  0  0
 49 53  1  0  0  0
 49 64  1  0  0  0
 49116  1  0  0  0
 50 51  1  0  0  0
 50117  1  0  0  0
 50118  1  0  0  0
 51 52  1  0  0  0
 51119  1  0  0  0
 51120  1  0  0  0
 52121  1  0  0  0
 52122  1  0  0  0
 53 54  1  0  0  0
 54 55  2  0  0  0
 54123  1  0  0  0
 55 57  1  0  0  0
 55124  1  0  0  0
 56 69  2  0  0  0
 57 58  2  0  0  0
 57125  1  0  0  0
 58126  1  0  0  0
 59 60  1  0  0  0
 59 61  1  0  0  0
 59 62  1  0  0  0
 60127  1  0  0  0
 60128  1  0  0  0
 60129  1  0  0  0
 61130  1  0  0  0
 61131  1  0  0  0
 61132  1  0  0  0
 62133  1  0  0  0
 62134  1  0  0  0
 62135  1  0  0  0
 63 65  1  0  0  0
 63136  1  0  0  0
 63137  1  0  0  0
 63138  1  0  0  0
 64139  1  0  0  0
 65140  1  0  0  0
 68 78  1  0  0  0
 71 74  1  0  0  0
 71141  1  0  0  0
 71142  1  0  0  0
 71143  1  0  0  0
 72144  1  0  0  0
 72145  1  0  0  0
 72146  1  0  0  0
 72 79  1  0  0  0
 73147  1  0  0  0
 73148  1  0  0  0
 73149  1  0  0  0
 73 80  1  0  0  0
 74 80  1  0  0  0
 74150  1  0  0  0
 74151  1  0  0  0
 75 76  1  0  0  0
 75 79  1  0  0  0
 75152  1  0  0  0
 75153  1  0  0  0
 76 80  1  0  0  0
 76154  1  0  0  0
 76155  1  0  0  0
 77 79  1  0  0  0
 77 81  1  0  0  0
 77156  1  0  0  0
 77157  1  0  0  0
 78 80  1  0  0  0
 78158  1  0  0  0
 78159  1  0  0  0
 79160  1  0  0  0
 81161  1  0  0  0
M  ISO  4   1 100  68 101  78 101  81 100
M  END
> <chiral flag>
0

> <version>
0

> <s_m_source_file>
/data/baiqing/PycharmProjects/Reinvent-master-3.2/result/LINK_invent/BTK/process_docking_weight1_custom_sum_contain_oxygen_bond_distance_aromatic_linkinvent_7_9_3/rearranged_h_0106.sdf

> <i_m_source_file_index>
40

> <r_mmod_Potential_Energy-OPLS-2005>
446.938995361328

> <r_mmod_Stretch_Energy-OPLS-2005>
248.120513916016

> <r_mmod_Bend_Energy-OPLS-2005>
251.929931640625

> <r_mmod_Torsional_Energy-OPLS-2005>
253.016128540039

> <r_mmod_Improper_Torsional_Energy-OPLS-2005>
5.91143655776978

> <r_mmod_Van_der_Waal_Energy-OPLS-2005>
105.78458404541

> <r_mmod_Electrostatic_Energy-OPLS-2005>
-385.990234375

> <r_mmod_Solvation_Energy-OPLS-2005>
-193.902252197266

> <b_mmod_Minimization_Converged-OPLS-2005>
0

> <r_mmod_RMS_Derivative-OPLS-2005>
6.30418014526367

$$$$
40
                    3D
 Structure written by MMmdl.
163171  0  0  1  0            999 V2000
  -30.6109  -14.7311   20.4700 C   0  0  0  0  0  0
  -30.4421  -12.4501   19.4554 C   0  0  0  0  0  0
  -29.5074  -12.5007   18.2259 C   0  0  0  0  0  0
  -28.0344  -12.3247   18.6472 C   0  0  0  0  0  0
  -27.6443  -13.2264   19.8482 C   0  0  2  0  0  0
  -28.6954  -13.1477   20.9780 C   0  0  0  0  0  0
  -25.2527  -13.8195   20.5700 C   0  0  0  0  0  0
  -24.1815  -13.0436   20.9222 C   0  0  0  0  0  0
  -24.6408  -11.6917   20.8764 C   0  0  0  0  0  0
  -23.9081  -10.4289   21.0415 C   0  0  0  0  0  0
  -24.3632   -9.4201   21.9186 C   0  0  0  0  0  0
  -23.6300   -8.2237   22.0756 C   0  0  0  0  0  0
  -22.4275   -8.0287   21.3553 C   0  0  0  0  0  0
  -21.9918   -9.0259   20.4647 C   0  0  0  0  0  0
  -22.7257  -10.2135   20.3056 C   0  0  0  0  0  0
  -21.6851   -6.0745   22.5286 C   0  0  0  0  0  0
  -21.4009   -6.5645   23.8224 C   0  0  0  0  0  0
  -21.3654   -5.6793   24.9186 C   0  0  0  0  0  0
  -21.6043   -4.3057   24.7229 C   0  0  0  0  0  0
  -21.8818   -3.8151   23.4349 C   0  0  0  0  0  0
  -21.9189   -4.6971   22.3406 C   0  0  0  0  0  0
  -22.7836  -13.5218   21.1875 C   0  0  0  0  0  0
  -22.1660   -4.2155   21.0987 F   0  0  0  0  0  0
  -21.5624   -3.4541   25.7744 F   0  0  0  0  0  0
  -29.9966  -13.5029   20.3929 N   0  0  0  0  0  0
  -26.2955  -12.9387   20.3287 N   0  0  0  0  0  0
  -25.9338  -11.6536   20.5762 N   0  0  0  0  0  0
  -22.0487  -12.8196   22.0431 N   0  0  0  0  0  0
  -25.4196  -15.1923   20.4133 N   0  0  0  0  0  0
  -31.7986  -14.8633   20.1672 O   0  0  0  0  0  0
  -21.6639   -6.8887   21.4245 O   0  0  0  0  0  0
  -22.3517  -14.5521   20.6728 O   0  0  0  0  0  0
  -24.6271  -31.8563   23.1975 C   0  0  0  0  0  0
  -25.9099  -32.4759   23.8327 C   0  0  1  0  0  0
  -27.2288  -27.2753   20.1409 C   0  0  0  0  0  0
  -25.5896  -33.8557   24.2246 N   0  0  0  0  0  0
  -23.4267  -30.4733   21.5420 C   0  0  2  0  0  0
  -24.8775  -28.9198   20.1153 C   0  0  0  0  0  0
  -22.7496  -29.4572   22.4932 C   0  0  0  0  0  0
  -18.0283  -28.1394   22.8487 C   0  0  0  0  0  0
  -24.1488  -36.7301   23.2638 C   0  0  0  0  0  0
  -25.9686  -30.7745   21.3765 C   0  0  0  0  0  0
  -26.0470  -29.3955   20.7231 C   0  0  0  0  0  0
  -27.2281  -28.5876   20.7202 C   0  0  0  0  0  0
  -26.0389  -26.8595   19.5092 C   0  0  0  0  0  0
  -24.8769  -27.6587   19.4980 C   0  0  0  0  0  0
  -23.6471  -29.8058   20.1591 C   0  0  0  0  0  0
  -25.4120  -36.3064   24.0310 C   0  0  1  0  0  0
  -20.5885  -28.3695   23.1288 C   0  0  2  0  0  0
  -20.6783  -26.9421   22.5421 C   0  0  0  0  0  0
  -19.5767  -26.6386   21.5214 C   0  0  0  0  0  0
  -18.1938  -26.7932   22.1624 C   0  0  0  0  0  0
  -19.1535  -28.8862   23.2877 C   0  0  0  0  0  0
  -18.9457  -30.1459   23.8903 C   0  0  0  0  0  0
  -17.6458  -30.6599   24.0556 C   0  0  0  0  0  0
  -25.9055  -34.9436   23.5089 C   0  0  0  0  0  0
  -16.5344  -29.9100   23.6326 C   0  0  0  0  0  0
  -16.7267  -28.6514   23.0348 C   0  0  0  0  0  0
  -26.4473  -31.6573   25.0715 C   0  0  0  0  0  0
  -25.3684  -31.3727   26.1423 C   0  0  0  0  0  0
  -27.0309  -30.2982   24.6201 C   0  0  0  0  0  0
  -27.6036  -32.4304   25.7478 C   0  0  0  0  0  0
  -27.5589  -37.1789   24.8462 C   0  0  0  0  0  0
  -21.4203  -29.3035   22.3676 N   0  0  0  0  0  0
  -26.4299  -37.3760   23.9407 N   0  0  0  0  0  0
  -24.6925  -31.0526   22.0954 N   0  0  0  0  0  0
  -23.4189  -28.8116   23.3043 O   0  0  0  0  0  0
  -28.3357  -26.4005   20.1537 O   0  0  0  0  0  0
  -26.5650  -34.8917   22.4670 O   0  0  0  0  0  0
  -23.5415  -32.1377   23.7265 O   0  0  0  0  0  0
  -28.0515  -20.2271   21.1247 C   0  0  0  0  0  0
  -29.5451  -21.1881   19.8465 C   0  0  0  0  0  0
  -29.1605  -19.9136   20.2884 C   0  0  0  0  0  0
  -27.7286  -21.5689   21.0725 C   0  0  0  0  0  0
  -26.8344  -22.7903   23.0855 C   0  0  0  0  0  0
  -25.3224  -21.2717   21.7796 C   0  0  0  0  0  0
  -28.7330  -23.7107   19.8123 C   0  0  0  0  0  0
  -30.0807  -17.3145   20.9542 C   0  0  0  0  0  0
  -28.1580  -24.9876   20.6383 C   0  0  0  0  0  0
  -29.6089  -18.4225   19.8782 C   0  0  2  0  0  0
  -26.5254  -22.2239   21.6935 C   0  0  0  0  0  0
  -28.6812  -22.2383   20.2895 N   0  0  0  0  0  0
  -29.8044  -15.8303   20.6928 N   0  0  0  0  0  0
  -30.5590  -18.4579   18.7604 N   0  3  0  0  0  0
  -31.4787  -12.5895   19.1446 H   0  0  0  0  0  0
  -30.4016  -11.4702   19.9357 H   0  0  0  0  0  0
  -29.7846  -11.7269   17.5086 H   0  0  0  0  0  0
  -29.6291  -13.4549   17.7106 H   0  0  0  0  0  0
  -27.8931  -11.2771   18.9149 H   0  0  0  0  0  0
  -27.3727  -12.5136   17.8009 H   0  0  0  0  0  0
  -27.6395  -14.2478   19.4664 H   0  0  0  0  0  0
  -28.7313  -12.1443   21.4055 H   0  0  0  0  0  0
  -28.4346  -13.8190   21.7982 H   0  0  0  0  0  0
  -25.2780   -9.5668   22.4765 H   0  0  0  0  0  0
  -24.0007   -7.4624   22.7474 H   0  0  0  0  0  0
  -21.0849   -8.8789   19.8953 H   0  0  0  0  0  0
  -22.3725  -10.9681   19.6165 H   0  0  0  0  0  0
  -21.2002   -7.6156   23.9728 H   0  0  0  0  0  0
  -21.1474   -6.0529   25.9093 H   0  0  0  0  0  0
  -22.0599   -2.7612   23.2856 H   0  0  0  0  0  0
  -22.4105  -11.9851   22.4800 H   0  0  0  0  0  0
  -21.1107  -13.1219   22.2656 H   0  0  0  0  0  0
  -24.6465  -15.8394   20.5257 H   0  0  0  0  0  0
  -26.2565  -15.6373   20.0612 H   0  0  0  0  0  0
  -26.7156  -32.5424   23.1061 H   0  0  0  0  0  0
  -24.9936  -33.9683   25.0319 H   0  0  0  0  0  0
  -22.7209  -31.2929   21.3954 H   0  0  0  0  0  0
  -23.3740  -35.9643   23.3292 H   0  0  0  0  0  0
  -24.3574  -36.8958   22.2057 H   0  0  0  0  0  0
  -23.7255  -37.6500   23.6683 H   0  0  0  0  0  0
  -26.0983  -31.5348   20.6047 H   0  0  0  0  0  0
  -26.8464  -30.8293   22.0084 H   0  0  0  0  0  0
  -28.1257  -28.9497   21.2020 H   0  0  0  0  0  0
  -25.9983  -25.8921   19.0300 H   0  0  0  0  0  0
  -23.9804  -27.2897   19.0190 H   0  0  0  0  0  0
  -23.7706  -30.5821   19.4018 H   0  0  0  0  0  0
  -22.7652  -29.2387   19.8556 H   0  0  0  0  0  0
  -25.1292  -36.1904   25.0795 H   0  0  0  0  0  0
  -20.9958  -28.3274   24.1413 H   0  0  0  0  0  0
  -20.5708  -26.2301   23.3616 H   0  0  0  0  0  0
  -21.6646  -26.7472   22.1207 H   0  0  0  0  0  0
  -19.6936  -25.6290   21.1257 H   0  0  0  0  0  0
  -19.6711  -27.3193   20.6736 H   0  0  0  0  0  0
  -17.4217  -26.6661   21.4026 H   0  0  0  0  0  0
  -18.0346  -26.0074   22.9024 H   0  0  0  0  0  0
  -19.7928  -30.7265   24.2297 H   0  0  0  0  0  0
  -17.5011  -31.6275   24.5156 H   0  0  0  0  0  0
  -15.5348  -30.3002   23.7663 H   0  0  0  0  0  0
  -15.8657  -28.0831   22.7079 H   0  0  0  0  0  0
  -24.5896  -30.7031   25.7753 H   0  0  0  0  0  0
  -24.8814  -32.2890   26.4766 H   0  0  0  0  0  0
  -25.7987  -30.8970   27.0246 H   0  0  0  0  0  0
  -26.2887  -29.6731   24.1227 H   0  0  0  0  0  0
  -27.3981  -29.7243   25.4719 H   0  0  0  0  0  0
  -27.8768  -30.4251   23.9447 H   0  0  0  0  0  0
  -27.2667  -33.3635   26.2011 H   0  0  0  0  0  0
  -28.3863  -32.6818   25.0304 H   0  0  0  0  0  0
  -28.0682  -31.8455   26.5424 H   0  0  0  0  0  0
  -28.2580  -38.0112   24.7507 H   0  0  0  0  0  0
  -28.1106  -36.2629   24.6276 H   0  0  0  0  0  0
  -27.2298  -37.1437   25.8865 H   0  0  0  0  0  0
  -20.9390  -29.8744   21.6865 H   0  0  0  0  0  0
  -26.0174  -38.2836   24.1405 H   0  0  0  0  0  0
  -27.4574  -19.4898   21.6464 H   0  0  0  0  0  0
  -30.3403  -21.4504   19.1609 H   0  0  0  0  0  0
  -27.6629  -23.4952   23.0649 H   0  0  0  0  0  0
  -27.1028  -21.9946   23.7818 H   0  0  0  0  0  0
  -25.9674  -23.3092   23.4951 H   0  0  0  0  0  0
  -25.0725  -20.8721   20.7964 H   0  0  0  0  0  0
  -24.4408  -21.7916   22.1562 H   0  0  0  0  0  0
  -25.5135  -20.4297   22.4449 H   0  0  0  0  0  0
  -29.7814  -23.9256   19.6046 H   0  0  0  0  0  0
  -28.2481  -23.7266   18.8363 H   0  0  0  0  0  0
  -29.5448  -17.5344   21.8783 H   0  0  0  0  0  0
  -31.1333  -17.4550   21.2040 H   0  0  0  0  0  0
  -28.6317  -24.9694   21.6191 H   0  0  0  0  0  0
  -27.1029  -24.8481   20.8454 H   0  0  0  0  0  0
  -28.6918  -18.0136   19.4535 H   0  0  0  0  0  0
  -26.1854  -23.0227   21.0424 H   0  0  0  0  0  0
  -28.8392  -15.5736   20.8336 H   0  0  0  0  0  0
  -31.4141  -18.9035   19.0380 H   0  0  0  0  0  0
  -30.1633  -18.9598   17.9864 H   0  0  0  0  0  0
  -30.7651  -17.5227   18.4615 H   0  0  0  0  0  0
  1 25  1  0  0  0
  1 30  2  0  0  0
  1 83  1  0  0  0
  2  3  1  0  0  0
  2 25  1  0  0  0
  2 85  1  0  0  0
  2 86  1  0  0  0
  3  4  1  0  0  0
  3 87  1  0  0  0
  3 88  1  0  0  0
  4  5  1  0  0  0
  4 89  1  0  0  0
  4 90  1  0  0  0
  5  6  1  0  0  0
  5 26  1  0  0  0
  5 91  1  0  0  0
  6 25  1  0  0  0
  6 92  1  0  0  0
  6 93  1  0  0  0
  7  8  2  0  0  0
  7 26  1  0  0  0
  7 29  1  0  0  0
  8  9  1  0  0  0
  8 22  1  0  0  0
  9 10  1  0  0  0
  9 27  2  0  0  0
 10 11  2  0  0  0
 10 15  1  0  0  0
 11 12  1  0  0  0
 11 94  1  0  0  0
 12 13  2  0  0  0
 12 95  1  0  0  0
 13 14  1  0  0  0
 13 31  1  0  0  0
 14 15  2  0  0  0
 14 96  1  0  0  0
 15 97  1  0  0  0
 16 17  2  0  0  0
 16 21  1  0  0  0
 16 31  1  0  0  0
 17 18  1  0  0  0
 17 98  1  0  0  0
 18 19  2  0  0  0
 18 99  1  0  0  0
 19 20  1  0  0  0
 19 24  1  0  0  0
 20 21  2  0  0  0
 20100  1  0  0  0
 21 23  1  0  0  0
 22 28  1  0  0  0
 22 32  2  0  0  0
 26 27  1  0  0  0
 28101  1  0  0  0
 28102  1  0  0  0
 29103  1  0  0  0
 29104  1  0  0  0
 33 34  1  0  0  0
 33 66  1  0  0  0
 33 70  2  0  0  0
 34 36  1  0  0  0
 34 59  1  0  0  0
 34105  1  0  0  0
 35 44  2  0  0  0
 35 45  1  0  0  0
 35 68  1  0  0  0
 36 56  1  0  0  0
 36106  1  0  0  0
 37 39  1  0  0  0
 37 47  1  0  0  0
 37 66  1  0  0  0
 37107  1  0  0  0
 38 43  2  0  0  0
 38 46  1  0  0  0
 38 47  1  0  0  0
 39 64  1  0  0  0
 39 67  2  0  0  0
 40 52  1  0  0  0
 40 53  2  0  0  0
 40 58  1  0  0  0
 41108  1  0  0  0
 41109  1  0  0  0
 41110  1  0  0  0
 41 48  1  0  0  0
 42 43  1  0  0  0
 42 66  1  0  0  0
 42111  1  0  0  0
 42112  1  0  0  0
 43 44  1  0  0  0
 44113  1  0  0  0
 45 46  2  0  0  0
 45114  1  0  0  0
 46115  1  0  0  0
 47116  1  0  0  0
 47117  1  0  0  0
 48 56  1  0  0  0
 48 65  1  0  0  0
 48118  1  0  0  0
 49 50  1  0  0  0
 49 53  1  0  0  0
 49 64  1  0  0  0
 49119  1  0  0  0
 50 51  1  0  0  0
 50120  1  0  0  0
 50121  1  0  0  0
 51 52  1  0  0  0
 51122  1  0  0  0
 51123  1  0  0  0
 52124  1  0  0  0
 52125  1  0  0  0
 53 54  1  0  0  0
 54 55  2  0  0  0
 54126  1  0  0  0
 55 57  1  0  0  0
 55127  1  0  0  0
 56 69  2  0  0  0
 57 58  2  0  0  0
 57128  1  0  0  0
 58129  1  0  0  0
 59 60  1  0  0  0
 59 61  1  0  0  0
 59 62  1  0  0  0
 60130  1  0  0  0
 60131  1  0  0  0
 60132  1  0  0  0
 61133  1  0  0  0
 61134  1  0  0  0
 61135  1  0  0  0
 62136  1  0  0  0
 62137  1  0  0  0
 62138  1  0  0  0
 63 65  1  0  0  0
 63139  1  0  0  0
 63140  1  0  0  0
 63141  1  0  0  0
 64142  1  0  0  0
 65143  1  0  0  0
 68 79  1  0  0  0
 71 73  1  0  0  0
 71 74  2  0  0  0
 71144  1  0  0  0
 72 73  2  0  0  0
 72 82  1  0  0  0
 72145  1  0  0  0
 73 80  1  0  0  0
 74 81  1  0  0  0
 74 82  1  0  0  0
 75146  1  0  0  0
 75147  1  0  0  0
 75148  1  0  0  0
 75 81  1  0  0  0
 76 81  1  0  0  0
 76149  1  0  0  0
 76150  1  0  0  0
 76151  1  0  0  0
 77 79  1  0  0  0
 77 82  1  0  0  0
 77152  1  0  0  0
 77153  1  0  0  0
 78 80  1  0  0  0
 78 83  1  0  0  0
 78154  1  0  0  0
 78155  1  0  0  0
 79156  1  0  0  0
 79157  1  0  0  0
 80 84  1  0  0  0
 80158  1  0  0  0
 81159  1  0  0  0
 83160  1  0  0  0
 84161  1  0  0  0
 84162  1  0  0  0
 84163  1  0  0  0
M  CHG  1  84   1
M  ISO  4   1 100  68 101  79 101  83 100
M  END
> <chiral flag>
0

> <version>
0

> <s_m_source_file>
/data/baiqing/PycharmProjects/Reinvent-master-3.2/result/LINK_invent/BTK/process_docking_weight1_custom_sum_contain_oxygen_bond_distance_aromatic_linkinvent_7_9_3/rearranged_h_0106.sdf

> <i_m_source_file_index>
41

> <r_mmod_Potential_Energy-OPLS-2005>
-147.397277832031

> <r_mmod_Stretch_Energy-OPLS-2005>
123.978881835938

> <r_mmod_Bend_Energy-OPLS-2005>
188.606048583984

> <r_mmod_Torsional_Energy-OPLS-2005>
281.563507080078

> <r_mmod_Improper_Torsional_Energy-OPLS-2005>
6.92915725708008

> <r_mmod_Van_der_Waal_Energy-OPLS-2005>
112.589347839355

> <r_mmod_Electrostatic_Energy-OPLS-2005>
-453.233856201172

> <r_mmod_Solvation_Energy-OPLS-2005>
-485.563232421875

> <b_mmod_Minimization_Converged-OPLS-2005>
0

> <r_mmod_RMS_Derivative-OPLS-2005>
1.82767748832703

$$$$
41
                    3D
 Structure written by MMmdl.
159167  0  0  1  0            999 V2000
  -30.3501  -15.4382   20.3071 C   0  0  0  0  0  0
  -30.4155  -12.8973   19.6072 C   0  0  0  0  0  0
  -29.5889  -12.6071   18.3271 C   0  0  0  0  0  0
  -28.1193  -12.3252   18.6888 C   0  0  0  0  0  0
  -27.6029  -13.2940   19.7824 C   0  0  2  0  0  0
  -28.5925  -13.5494   20.9360 C   0  0  0  0  0  0
  -25.2358  -13.8225   20.5556 C   0  0  0  0  0  0
  -24.1743  -13.0442   20.9097 C   0  0  0  0  0  0
  -24.6414  -11.6921   20.8601 C   0  0  0  0  0  0
  -23.9150  -10.4249   21.0303 C   0  0  0  0  0  0
  -24.3689   -9.4195   21.9130 C   0  0  0  0  0  0
  -23.6310   -8.2259   22.0766 C   0  0  0  0  0  0
  -22.4285   -8.0266   21.3579 C   0  0  0  0  0  0
  -21.9919   -9.0249   20.4679 C   0  0  0  0  0  0
  -22.7275  -10.2090   20.3015 C   0  0  0  0  0  0
  -21.6832   -6.0687   22.5269 C   0  0  0  0  0  0
  -21.4011   -6.5619   23.8205 C   0  0  0  0  0  0
  -21.3705   -5.6789   24.9165 C   0  0  0  0  0  0
  -21.6053   -4.3043   24.7220 C   0  0  0  0  0  0
  -21.8832   -3.8127   23.4352 C   0  0  0  0  0  0
  -21.9200   -4.6926   22.3400 C   0  0  0  0  0  0
  -22.7762  -13.5177   21.1774 C   0  0  0  0  0  0
  -22.1670   -4.2099   21.0970 F   0  0  0  0  0  0
  -21.5658   -3.4564   25.7767 F   0  0  0  0  0  0
  -29.8256  -14.0917   20.3388 N   0  0  0  0  0  0
  -26.2758  -12.9539   20.2798 N   0  0  0  0  0  0
  -25.9312  -11.6653   20.5362 N   0  0  0  0  0  0
  -22.0534  -12.8204   22.0367 N   0  0  0  0  0  0
  -25.4056  -15.1985   20.4207 N   0  0  0  0  0  0
  -31.5662  -15.4110   20.0541 O   0  0  0  0  0  0
  -21.6670   -6.8843   21.4228 O   0  0  0  0  0  0
  -22.3475  -14.5533   20.6639 O   0  0  0  0  0  0
  -24.6686  -31.8152   23.1615 C   0  0  0  0  0  0
  -25.9358  -32.4559   23.8062 C   0  0  1  0  0  0
  -27.2035  -26.8104   20.1917 C   0  0  0  0  0  0
  -25.6026  -33.8367   24.2042 N   0  0  0  0  0  0
  -23.4822  -30.4260   21.5155 C   0  0  2  0  0  0
  -24.9305  -28.7820   20.1209 C   0  0  0  0  0  0
  -22.7660  -29.4394   22.4745 C   0  0  0  0  0  0
  -18.0333  -28.1413   22.8422 C   0  0  0  0  0  0
  -24.1469  -36.7143   23.2646 C   0  0  0  0  0  0
  -26.0559  -30.5911   21.3956 C   0  0  0  0  0  0
  -26.1218  -29.1598   20.7535 C   0  0  0  0  0  0
  -27.2502  -28.2051   20.7467 C   0  0  0  0  0  0
  -25.9704  -26.6033   19.5343 C   0  0  0  0  0  0
  -24.8881  -27.5265   19.4897 C   0  0  0  0  0  0
  -23.7229  -29.7272   20.1505 C   0  0  0  0  0  0
  -25.4134  -36.2949   24.0308 C   0  0  1  0  0  0
  -20.5935  -28.3767   23.1166 C   0  0  2  0  0  0
  -20.6788  -26.9447   22.5400 C   0  0  0  0  0  0
  -19.5785  -26.6387   21.5190 C   0  0  0  0  0  0
  -18.1968  -26.7946   22.1599 C   0  0  0  0  0  0
  -19.1570  -28.8913   23.2793 C   0  0  0  0  0  0
  -18.9489  -30.1474   23.8885 C   0  0  0  0  0  0
  -17.6479  -30.6627   24.0529 C   0  0  0  0  0  0
  -25.9087  -34.9338   23.4974 C   0  0  0  0  0  0
  -16.5380  -29.9084   23.6342 C   0  0  0  0  0  0
  -16.7301  -28.6484   23.0405 C   0  0  0  0  0  0
  -26.4601  -31.6520   25.0595 C   0  0  0  0  0  0
  -25.3685  -31.3811   26.1231 C   0  0  0  0  0  0
  -27.0479  -30.2883   24.6321 C   0  0  0  0  0  0
  -27.6127  -32.4270   25.7414 C   0  0  0  0  0  0
  -27.5558  -37.1743   24.8499 C   0  0  0  0  0  0
  -21.4344  -29.3050   22.3533 N   0  0  0  0  0  0
  -26.4275  -37.3713   23.9399 N   0  0  0  0  0  0
  -24.7597  -30.9678   22.0812 N   0  0  0  0  0  0
  -23.4183  -28.8041   23.3091 O   0  0  0  0  0  0
  -28.2349  -25.6951   20.1248 O   0  0  0  0  0  0
  -26.5707  -34.8923   22.4576 O   0  0  0  0  0  0
  -23.5750  -32.1198   23.6675 O   0  0  0  0  0  0
  -27.7035  -21.0108   20.2709 C   0  0  0  0  0  0
  -30.0068  -21.5016   20.3722 C   0  0  0  0  0  0
  -27.3809  -22.6793   19.9206 C   0  0  0  0  0  0
  -29.6348  -23.1112   19.9312 C   0  0  0  0  0  0
  -29.1086  -20.1728   19.9219 C   0  0  1  0  0  0
  -28.3032  -24.0017   20.3868 C   0  0  1  0  0  0
  -27.5408  -17.7472   18.2308 C   0  0  0  0  0  0
  -29.5805  -18.7005   17.0090 C   0  0  0  0  0  0
  -29.6217  -18.3332   19.6660 C   0  0  1  0  0  0
  -29.0764  -17.9181   18.2427 C   0  0  0  0  0  0
  -29.5811  -16.7574   20.3705 N   0  0  0  0  0  0
  -31.4621  -13.0567   19.3669 H   0  0  0  0  0  0
  -30.4154  -12.0147   20.2557 H   0  0  0  0  0  0
  -30.0121  -11.7589   17.7876 H   0  0  0  0  0  0
  -29.6595  -13.4624   17.6513 H   0  0  0  0  0  0
  -28.0451  -11.2884   19.0272 H   0  0  0  0  0  0
  -27.5006  -12.3972   17.7900 H   0  0  0  0  0  0
  -27.4883  -14.2436   19.2553 H   0  0  0  0  0  0
  -28.7518  -12.6444   21.5242 H   0  0  0  0  0  0
  -28.1615  -14.2758   21.6251 H   0  0  0  0  0  0
  -25.2837   -9.5675   22.4706 H   0  0  0  0  0  0
  -24.0016   -7.4669   22.7525 H   0  0  0  0  0  0
  -21.0822   -8.8755   19.9025 H   0  0  0  0  0  0
  -22.3701  -10.9624   19.6133 H   0  0  0  0  0  0
  -21.1959   -7.6128   23.9668 H   0  0  0  0  0  0
  -21.1548   -6.0528   25.9062 H   0  0  0  0  0  0
  -22.0563   -2.7577   23.2870 H   0  0  0  0  0  0
  -22.4265  -11.9868   22.4710 H   0  0  0  0  0  0
  -21.1186  -13.1260   22.2711 H   0  0  0  0  0  0
  -24.6438  -15.8486   20.5767 H   0  0  0  0  0  0
  -26.2467  -15.6420   20.0857 H   0  0  0  0  0  0
  -26.7400  -32.5116   23.0755 H   0  0  0  0  0  0
  -25.0191  -33.9432   25.0204 H   0  0  0  0  0  0
  -22.7989  -31.2588   21.3375 H   0  0  0  0  0  0
  -23.3775  -35.9413   23.3307 H   0  0  0  0  0  0
  -24.3532  -36.8770   22.2044 H   0  0  0  0  0  0
  -23.7145  -37.6316   23.6666 H   0  0  0  0  0  0
  -26.2221  -31.3219   20.5985 H   0  0  0  0  0  0
  -26.9225  -30.6747   22.0397 H   0  0  0  0  0  0
  -28.1599  -28.5155   21.2417 H   0  0  0  0  0  0
  -25.8244  -25.6507   19.0445 H   0  0  0  0  0  0
  -23.9830  -27.2291   18.9824 H   0  0  0  0  0  0
  -23.8787  -30.4820   19.3823 H   0  0  0  0  0  0
  -22.8296  -29.1852   19.8395 H   0  0  0  0  0  0
  -25.1309  -36.1756   25.0792 H   0  0  0  0  0  0
  -21.0008  -28.3376   24.1288 H   0  0  0  0  0  0
  -20.5631  -26.2388   23.3645 H   0  0  0  0  0  0
  -21.6662  -26.7421   22.1236 H   0  0  0  0  0  0
  -19.6964  -25.6278   21.1266 H   0  0  0  0  0  0
  -19.6742  -27.3145   20.6669 H   0  0  0  0  0  0
  -17.4234  -26.6652   21.4017 H   0  0  0  0  0  0
  -18.0397  -26.0109   22.9012 H   0  0  0  0  0  0
  -19.7975  -30.7270   24.2256 H   0  0  0  0  0  0
  -17.5070  -31.6332   24.5114 H   0  0  0  0  0  0
  -15.5389  -30.3023   23.7698 H   0  0  0  0  0  0
  -15.8681  -28.0818   22.7183 H   0  0  0  0  0  0
  -24.5965  -30.7061   25.7541 H   0  0  0  0  0  0
  -24.8785  -32.3004   26.4387 H   0  0  0  0  0  0
  -25.7902  -30.9189   27.0152 H   0  0  0  0  0  0
  -26.3154  -29.6577   24.1288 H   0  0  0  0  0  0
  -27.3959  -29.7238   25.4969 H   0  0  0  0  0  0
  -27.9093  -30.4066   23.9764 H   0  0  0  0  0  0
  -27.2810  -33.3685   26.1788 H   0  0  0  0  0  0
  -28.4086  -32.6606   25.0328 H   0  0  0  0  0  0
  -28.0598  -31.8470   26.5496 H   0  0  0  0  0  0
  -28.2629  -38.0003   24.7510 H   0  0  0  0  0  0
  -28.1019  -36.2524   24.6384 H   0  0  0  0  0  0
  -27.2271  -37.1461   25.8920 H   0  0  0  0  0  0
  -20.9607  -29.8687   21.6604 H   0  0  0  0  0  0
  -26.0131  -38.2757   24.1450 H   0  0  0  0  0  0
  -26.8824  -20.4440   19.8311 H   0  0  0  0  0  0
  -27.5514  -20.9037   21.3447 H   0  0  0  0  0  0
  -30.0825  -21.5009   21.4628 H   0  0  0  0  0  0
  -31.0316  -21.3349   20.0343 H   0  0  0  0  0  0
  -26.3714  -22.8677   20.2944 H   0  0  0  0  0  0
  -27.2699  -22.7514   18.8358 H   0  0  0  0  0  0
  -29.6040  -23.1040   18.8360 H   0  0  0  0  0  0
  -30.5120  -23.7243   20.1379 H   0  0  0  0  0  0
  -29.1300  -20.4092   18.8619 H   0  0  0  0  0  0
  -28.2919  -23.9720   21.4820 H   0  0  0  0  0  0
  -27.2159  -17.0676   17.4420 H   0  0  0  0  0  0
  -27.0145  -18.6877   18.0725 H   0  0  0  0  0  0
  -27.1746  -17.3307   19.1673 H   0  0  0  0  0  0
  -29.4041  -18.1226   16.0933 H   0  0  0  0  0  0
  -30.6551  -18.8741   17.0717 H   0  0  0  0  0  0
  -29.0773  -19.6568   16.8631 H   0  0  0  0  0  0
  -30.6996  -18.4405   19.5511 H   0  0  0  0  0  0
  -29.4833  -16.9261   18.0192 H   0  0  0  0  0  0
  -28.6417  -16.5636   20.6878 H   0  0  0  0  0  0
  1 25  1  0  0  0
  1 30  2  0  0  0
  1 81  1  0  0  0
  2  3  1  0  0  0
  2 25  1  0  0  0
  2 82  1  0  0  0
  2 83  1  0  0  0
  3  4  1  0  0  0
  3 84  1  0  0  0
  3 85  1  0  0  0
  4  5  1  0  0  0
  4 86  1  0  0  0
  4 87  1  0  0  0
  5  6  1  0  0  0
  5 26  1  0  0  0
  5 88  1  0  0  0
  6 25  1  0  0  0
  6 89  1  0  0  0
  6 90  1  0  0  0
  7  8  2  0  0  0
  7 26  1  0  0  0
  7 29  1  0  0  0
  8  9  1  0  0  0
  8 22  1  0  0  0
  9 10  1  0  0  0
  9 27  2  0  0  0
 10 11  2  0  0  0
 10 15  1  0  0  0
 11 12  1  0  0  0
 11 91  1  0  0  0
 12 13  2  0  0  0
 12 92  1  0  0  0
 13 14  1  0  0  0
 13 31  1  0  0  0
 14 15  2  0  0  0
 14 93  1  0  0  0
 15 94  1  0  0  0
 16 17  2  0  0  0
 16 21  1  0  0  0
 16 31  1  0  0  0
 17 18  1  0  0  0
 17 95  1  0  0  0
 18 19  2  0  0  0
 18 96  1  0  0  0
 19 20  1  0  0  0
 19 24  1  0  0  0
 20 21  2  0  0  0
 20 97  1  0  0  0
 21 23  1  0  0  0
 22 28  1  0  0  0
 22 32  2  0  0  0
 26 27  1  0  0  0
 28 98  1  0  0  0
 28 99  1  0  0  0
 29100  1  0  0  0
 29101  1  0  0  0
 33 34  1  0  0  0
 33 66  1  0  0  0
 33 70  2  0  0  0
 34 36  1  0  0  0
 34 59  1  0  0  0
 34102  1  0  0  0
 35 44  2  0  0  0
 35 45  1  0  0  0
 35 68  1  0  0  0
 36 56  1  0  0  0
 36103  1  0  0  0
 37 39  1  0  0  0
 37 47  1  0  0  0
 37 66  1  0  0  0
 37104  1  0  0  0
 38 43  2  0  0  0
 38 46  1  0  0  0
 38 47  1  0  0  0
 39 64  1  0  0  0
 39 67  2  0  0  0
 40 52  1  0  0  0
 40 53  2  0  0  0
 40 58  1  0  0  0
 41105  1  0  0  0
 41106  1  0  0  0
 41107  1  0  0  0
 41 48  1  0  0  0
 42 43  1  0  0  0
 42 66  1  0  0  0
 42108  1  0  0  0
 42109  1  0  0  0
 43 44  1  0  0  0
 44110  1  0  0  0
 45 46  2  0  0  0
 45111  1  0  0  0
 46112  1  0  0  0
 47113  1  0  0  0
 47114  1  0  0  0
 48 56  1  0  0  0
 48 65  1  0  0  0
 48115  1  0  0  0
 49 50  1  0  0  0
 49 53  1  0  0  0
 49 64  1  0  0  0
 49116  1  0  0  0
 50 51  1  0  0  0
 50117  1  0  0  0
 50118  1  0  0  0
 51 52  1  0  0  0
 51119  1  0  0  0
 51120  1  0  0  0
 52121  1  0  0  0
 52122  1  0  0  0
 53 54  1  0  0  0
 54 55  2  0  0  0
 54123  1  0  0  0
 55 57  1  0  0  0
 55124  1  0  0  0
 56 69  2  0  0  0
 57 58  2  0  0  0
 57125  1  0  0  0
 58126  1  0  0  0
 59 60  1  0  0  0
 59 61  1  0  0  0
 59 62  1  0  0  0
 60127  1  0  0  0
 60128  1  0  0  0
 60129  1  0  0  0
 61130  1  0  0  0
 61131  1  0  0  0
 61132  1  0  0  0
 62133  1  0  0  0
 62134  1  0  0  0
 62135  1  0  0  0
 63 65  1  0  0  0
 63136  1  0  0  0
 63137  1  0  0  0
 63138  1  0  0  0
 64139  1  0  0  0
 65140  1  0  0  0
 68 76  1  0  0  0
 71 73  1  0  0  0
 71141  1  0  0  0
 71142  1  0  0  0
 71 75  1  0  0  0
 72 74  1  0  0  0
 72 75  1  0  0  0
 72143  1  0  0  0
 72144  1  0  0  0
 73 76  1  0  0  0
 73145  1  0  0  0
 73146  1  0  0  0
 74 76  1  0  0  0
 74147  1  0  0  0
 74148  1  0  0  0
 75 79  1  0  0  0
 75149  1  0  0  0
 76150  1  0  0  0
 77151  1  0  0  0
 77152  1  0  0  0
 77153  1  0  0  0
 77 80  1  0  0  0
 78 80  1  0  0  0
 78154  1  0  0  0
 78155  1  0  0  0
 78156  1  0  0  0
 79 80  1  0  0  0
 79 81  1  0  0  0
 79157  1  0  0  0
 80158  1  0  0  0
 81159  1  0  0  0
M  ISO  4   1 100  68 101  76 101  81 100
M  END
> <chiral flag>
0

> <version>
0

> <s_m_source_file>
/data/baiqing/PycharmProjects/Reinvent-master-3.2/result/LINK_invent/BTK/process_docking_weight1_custom_sum_contain_oxygen_bond_distance_aromatic_linkinvent_7_9_3/rearranged_h_0106.sdf

> <i_m_source_file_index>
42

> <r_mmod_Potential_Energy-OPLS-2005>
2017.01330566406

> <r_mmod_Stretch_Energy-OPLS-2005>
817.625427246094

> <r_mmod_Bend_Energy-OPLS-2005>
749.81982421875

> <r_mmod_Torsional_Energy-OPLS-2005>
287.012115478516

> <r_mmod_Improper_Torsional_Energy-OPLS-2005>
5.23901557922363

> <r_mmod_Van_der_Waal_Energy-OPLS-2005>
113.987007141113

> <r_mmod_Electrostatic_Energy-OPLS-2005>
-392.180603027344

> <r_mmod_Solvation_Energy-OPLS-2005>
-202.694107055664

> <b_mmod_Minimization_Converged-OPLS-2005>
0

> <r_mmod_RMS_Derivative-OPLS-2005>
9.60859107971191

$$$$
42
                    3D
 Structure written by MMmdl.
165173  0  0  1  0            999 V2000
  -30.5765  -15.0690   20.4203 C   0  0  0  0  0  0
  -30.4134  -12.6856   19.5078 C   0  0  0  0  0  0
  -29.5064  -12.5327   18.2675 C   0  0  0  0  0  0
  -28.0524  -12.2938   18.7044 C   0  0  0  0  0  0
  -27.6099  -13.2660   19.8277 C   0  0  2  0  0  0
  -28.6517  -13.3968   20.9593 C   0  0  0  0  0  0
  -25.2361  -13.8257   20.5751 C   0  0  0  0  0  0
  -24.1716  -13.0451   20.9270 C   0  0  0  0  0  0
  -24.6377  -11.6950   20.8804 C   0  0  0  0  0  0
  -23.9093  -10.4307   21.0437 C   0  0  0  0  0  0
  -24.3646   -9.4210   21.9195 C   0  0  0  0  0  0
  -23.6312   -8.2250   22.0760 C   0  0  0  0  0  0
  -22.4290   -8.0292   21.3553 C   0  0  0  0  0  0
  -21.9940   -9.0272   20.4651 C   0  0  0  0  0  0
  -22.7281  -10.2146   20.3067 C   0  0  0  0  0  0
  -21.6850   -6.0760   22.5291 C   0  0  0  0  0  0
  -21.4014   -6.5656   23.8230 C   0  0  0  0  0  0
  -21.3653   -5.6803   24.9189 C   0  0  0  0  0  0
  -21.6040   -4.3067   24.7231 C   0  0  0  0  0  0
  -21.8820   -3.8166   23.4350 C   0  0  0  0  0  0
  -21.9189   -4.6987   22.3407 C   0  0  0  0  0  0
  -22.7736  -13.5195   21.1926 C   0  0  0  0  0  0
  -22.1651   -4.2170   21.0986 F   0  0  0  0  0  0
  -21.5627   -3.4547   25.7744 F   0  0  0  0  0  0
  -29.8972  -13.8403   20.3205 N   0  0  0  0  0  0
  -26.2794  -12.9527   20.3282 N   0  0  0  0  0  0
  -25.9317  -11.6637   20.5809 N   0  0  0  0  0  0
  -22.0401  -12.8157   22.0469 N   0  0  0  0  0  0
  -25.4016  -15.1981   20.4133 N   0  0  0  0  0  0
  -31.7950  -14.9639   20.2258 O   0  0  0  0  0  0
  -21.6642   -6.8901   21.4255 O   0  0  0  0  0  0
  -22.3410  -14.5499   20.6770 O   0  0  0  0  0  0
  -24.6471  -31.8366   23.1806 C   0  0  0  0  0  0
  -25.9214  -32.4652   23.8229 C   0  0  1  0  0  0
  -27.2062  -27.0493   20.1650 C   0  0  0  0  0  0
  -25.5922  -33.8464   24.2124 N   0  0  0  0  0  0
  -23.4561  -30.4502   21.5297 C   0  0  2  0  0  0
  -24.9041  -28.8610   20.1078 C   0  0  0  0  0  0
  -22.7590  -29.4493   22.4856 C   0  0  0  0  0  0
  -18.0300  -28.1395   22.8471 C   0  0  0  0  0  0
  -24.1497  -36.7250   23.2643 C   0  0  0  0  0  0
  -26.0154  -30.6798   21.3938 C   0  0  0  0  0  0
  -26.0821  -29.2827   20.7366 C   0  0  0  0  0  0
  -27.2281  -28.3909   20.7501 C   0  0  0  0  0  0
  -26.0067  -26.7518   19.4830 C   0  0  0  0  0  0
  -24.8836  -27.6141   19.4640 C   0  0  0  0  0  0
  -23.6855  -29.7748   20.1517 C   0  0  0  0  0  0
  -25.4129  -36.3012   24.0297 C   0  0  1  0  0  0
  -20.5913  -28.3728   23.1232 C   0  0  2  0  0  0
  -20.6787  -26.9428   22.5421 C   0  0  0  0  0  0
  -19.5762  -26.6380   21.5230 C   0  0  0  0  0  0
  -18.1940  -26.7933   22.1632 C   0  0  0  0  0  0
  -19.1555  -28.8879   23.2834 C   0  0  0  0  0  0
  -18.9484  -30.1478   23.8857 C   0  0  0  0  0  0
  -17.6481  -30.6596   24.0567 C   0  0  0  0  0  0
  -25.9079  -34.9388   23.5034 C   0  0  0  0  0  0
  -16.5367  -29.9090   23.6348 C   0  0  0  0  0  0
  -16.7283  -28.6512   23.0350 C   0  0  0  0  0  0
  -26.4509  -31.6552   25.0709 C   0  0  0  0  0  0
  -25.3663  -31.3754   26.1384 C   0  0  0  0  0  0
  -27.0385  -30.2932   24.6349 C   0  0  0  0  0  0
  -27.6015  -32.4358   25.7489 C   0  0  0  0  0  0
  -27.5585  -37.1758   24.8450 C   0  0  0  0  0  0
  -21.4279  -29.3043   22.3603 N   0  0  0  0  0  0
  -26.4289  -37.3733   23.9400 N   0  0  0  0  0  0
  -24.7266  -31.0135   22.0894 N   0  0  0  0  0  0
  -23.4194  -28.8056   23.3045 O   0  0  0  0  0  0
  -28.2449  -26.0318   20.2941 O   0  0  0  0  0  0
  -26.5725  -34.8909   22.4655 O   0  0  0  0  0  0
  -23.5569  -32.1302   23.6976 O   0  0  0  0  0  0
  -30.3919  -19.1068   19.7451 C   0  0  0  0  0  0
  -28.2765  -18.6140   20.5732 C   0  0  0  0  0  0
  -30.9216  -17.6328   20.2023 C   0  0  0  0  0  0
  -28.7613  -17.0739   20.9774 C   0  0  0  0  0  0
  -29.2667  -19.8910   20.5518 C   0  0  0  0  0  0
  -30.7212  -22.8236   23.9721 C   0  0  0  0  0  0
  -27.1129  -22.8355   21.4023 C   0  0  0  0  0  0
  -28.8229  -21.4769   19.9566 C   0  0  0  0  0  0
  -29.4646  -22.6566   23.1116 C   0  0  0  0  0  0
  -29.6045  -23.3074   21.7176 C   0  0  0  0  0  0
  -28.2459  -24.5059   19.8261 C   0  0  0  0  0  0
  -28.4701  -23.0164   20.6944 C   0  0  2  0  0  0
  -30.0102  -16.4251   20.3934 N   0  0  0  0  0  0
  -31.4418  -12.8303   19.1767 H   0  0  0  0  0  0
  -30.4251  -11.7684   20.0993 H   0  0  0  0  0  0
  -29.8508  -11.7071   17.6430 H   0  0  0  0  0  0
  -29.5642  -13.4327   17.6530 H   0  0  0  0  0  0
  -27.9886  -11.2662   19.0646 H   0  0  0  0  0  0
  -27.3778  -12.3594   17.8500 H   0  0  0  0  0  0
  -27.5427  -14.2430   19.3476 H   0  0  0  0  0  0
  -28.7820  -12.4544   21.4936 H   0  0  0  0  0  0
  -28.3262  -14.1318   21.6965 H   0  0  0  0  0  0
  -25.2780   -9.5681   22.4779 H   0  0  0  0  0  0
  -24.0017   -7.4642   22.7474 H   0  0  0  0  0  0
  -21.0878   -8.8810   19.8945 H   0  0  0  0  0  0
  -22.3748  -10.9700   19.6187 H   0  0  0  0  0  0
  -21.2010   -7.6163   23.9742 H   0  0  0  0  0  0
  -21.1463   -6.0529   25.9090 H   0  0  0  0  0  0
  -22.0600   -2.7628   23.2850 H   0  0  0  0  0  0
  -22.4029  -11.9805   22.4814 H   0  0  0  0  0  0
  -21.1032  -13.1184   22.2736 H   0  0  0  0  0  0
  -24.6376  -15.8546   20.5324 H   0  0  0  0  0  0
  -26.2515  -15.6353   20.0822 H   0  0  0  0  0  0
  -26.7269  -32.5225   23.0935 H   0  0  0  0  0  0
  -24.9930  -33.9545   25.0173 H   0  0  0  0  0  0
  -22.7642  -31.2795   21.3699 H   0  0  0  0  0  0
  -23.3772  -35.9574   23.3269 H   0  0  0  0  0  0
  -24.3573  -36.8949   22.2071 H   0  0  0  0  0  0
  -23.7256  -37.6417   23.6735 H   0  0  0  0  0  0
  -26.1814  -31.4294   20.6192 H   0  0  0  0  0  0
  -26.8811  -30.7317   22.0426 H   0  0  0  0  0  0
  -28.1193  -28.6982   21.2795 H   0  0  0  0  0  0
  -25.8857  -25.7999   18.9911 H   0  0  0  0  0  0
  -23.9835  -27.2872   18.9604 H   0  0  0  0  0  0
  -23.8285  -30.5484   19.3965 H   0  0  0  0  0  0
  -22.7975  -29.2217   19.8403 H   0  0  0  0  0  0
  -25.1325  -36.1830   25.0790 H   0  0  0  0  0  0
  -20.9978  -28.3346   24.1359 H   0  0  0  0  0  0
  -20.5705  -26.2346   23.3645 H   0  0  0  0  0  0
  -21.6651  -26.7456   22.1206 H   0  0  0  0  0  0
  -19.6942  -25.6288   21.1267 H   0  0  0  0  0  0
  -19.6695  -27.3194   20.6764 H   0  0  0  0  0  0
  -17.4213  -26.6678   21.4033 H   0  0  0  0  0  0
  -18.0318  -26.0091   22.9040 H   0  0  0  0  0  0
  -19.7969  -30.7297   24.2207 H   0  0  0  0  0  0
  -17.5044  -31.6270   24.5187 H   0  0  0  0  0  0
  -15.5364  -30.2977   23.7699 H   0  0  0  0  0  0
  -15.8689  -28.0832   22.7061 H   0  0  0  0  0  0
  -24.5853  -30.7099   25.7683 H   0  0  0  0  0  0
  -24.8819  -32.2925   26.4741 H   0  0  0  0  0  0
  -25.7900  -30.8959   27.0218 H   0  0  0  0  0  0
  -26.3017  -29.6616   24.1358 H   0  0  0  0  0  0
  -27.3956  -29.7275   25.4962 H   0  0  0  0  0  0
  -27.8953  -30.4125   23.9714 H   0  0  0  0  0  0
  -27.2592  -33.3702   26.1955 H   0  0  0  0  0  0
  -28.3857  -32.6853   25.0332 H   0  0  0  0  0  0
  -28.0649  -31.8570   26.5483 H   0  0  0  0  0  0
  -28.2543  -38.0112   24.7557 H   0  0  0  0  0  0
  -28.1142  -36.2629   24.6213 H   0  0  0  0  0  0
  -27.2295  -37.1342   25.8851 H   0  0  0  0  0  0
  -20.9509  -29.8741   21.6753 H   0  0  0  0  0  0
  -26.0149  -38.2792   24.1450 H   0  0  0  0  0  0
  -30.0671  -19.0295   18.7071 H   0  0  0  0  0  0
  -31.2669  -19.7566   19.7023 H   0  0  0  0  0  0
  -27.4353  -18.8698   21.2179 H   0  0  0  0  0  0
  -27.8340  -18.5435   19.5789 H   0  0  0  0  0  0
  -31.4605  -17.7553   21.1432 H   0  0  0  0  0  0
  -31.6847  -17.3533   19.4742 H   0  0  0  0  0  0
  -27.9292  -16.3977   20.7888 H   0  0  0  0  0  0
  -28.9001  -17.0511   22.0594 H   0  0  0  0  0  0
  -29.6554  -20.0239   21.5598 H   0  0  0  0  0  0
  -30.5463  -22.4494   24.9817 H   0  0  0  0  0  0
  -31.0136  -23.8708   24.0528 H   0  0  0  0  0  0
  -31.5625  -22.2689   23.5564 H   0  0  0  0  0  0
  -27.0822  -21.9395   22.0230 H   0  0  0  0  0  0
  -26.3080  -22.7400   20.6733 H   0  0  0  0  0  0
  -26.8749  -23.6933   22.0335 H   0  0  0  0  0  0
  -28.0110  -21.2980   19.2516 H   0  0  0  0  0  0
  -29.6566  -21.7261   19.3003 H   0  0  0  0  0  0
  -28.6258  -23.1098   23.6425 H   0  0  0  0  0  0
  -29.2300  -21.5971   23.0257 H   0  0  0  0  0  0
  -30.5592  -23.0244   21.2729 H   0  0  0  0  0  0
  -29.6772  -24.3839   21.8794 H   0  0  0  0  0  0
  -27.3833  -24.3478   19.1845 H   0  0  0  0  0  0
  -29.0725  -24.5109   19.1164 H   0  0  0  0  0  0
  1 25  1  0  0  0
  1 30  2  0  0  0
  1 83  1  0  0  0
  2  3  1  0  0  0
  2 25  1  0  0  0
  2 84  1  0  0  0
  2 85  1  0  0  0
  3  4  1  0  0  0
  3 86  1  0  0  0
  3 87  1  0  0  0
  4  5  1  0  0  0
  4 88  1  0  0  0
  4 89  1  0  0  0
  5  6  1  0  0  0
  5 26  1  0  0  0
  5 90  1  0  0  0
  6 25  1  0  0  0
  6 91  1  0  0  0
  6 92  1  0  0  0
  7  8  2  0  0  0
  7 26  1  0  0  0
  7 29  1  0  0  0
  8  9  1  0  0  0
  8 22  1  0  0  0
  9 10  1  0  0  0
  9 27  2  0  0  0
 10 11  2  0  0  0
 10 15  1  0  0  0
 11 12  1  0  0  0
 11 93  1  0  0  0
 12 13  2  0  0  0
 12 94  1  0  0  0
 13 14  1  0  0  0
 13 31  1  0  0  0
 14 15  2  0  0  0
 14 95  1  0  0  0
 15 96  1  0  0  0
 16 17  2  0  0  0
 16 21  1  0  0  0
 16 31  1  0  0  0
 17 18  1  0  0  0
 17 97  1  0  0  0
 18 19  2  0  0  0
 18 98  1  0  0  0
 19 20  1  0  0  0
 19 24  1  0  0  0
 20 21  2  0  0  0
 20 99  1  0  0  0
 21 23  1  0  0  0
 22 28  1  0  0  0
 22 32  2  0  0  0
 26 27  1  0  0  0
 28100  1  0  0  0
 28101  1  0  0  0
 29102  1  0  0  0
 29103  1  0  0  0
 33 34  1  0  0  0
 33 66  1  0  0  0
 33 70  2  0  0  0
 34 36  1  0  0  0
 34 59  1  0  0  0
 34104  1  0  0  0
 35 44  2  0  0  0
 35 45  1  0  0  0
 35 68  1  0  0  0
 36 56  1  0  0  0
 36105  1  0  0  0
 37 39  1  0  0  0
 37 47  1  0  0  0
 37 66  1  0  0  0
 37106  1  0  0  0
 38 43  2  0  0  0
 38 46  1  0  0  0
 38 47  1  0  0  0
 39 64  1  0  0  0
 39 67  2  0  0  0
 40 52  1  0  0  0
 40 53  2  0  0  0
 40 58  1  0  0  0
 41107  1  0  0  0
 41108  1  0  0  0
 41109  1  0  0  0
 41 48  1  0  0  0
 42 43  1  0  0  0
 42 66  1  0  0  0
 42110  1  0  0  0
 42111  1  0  0  0
 43 44  1  0  0  0
 44112  1  0  0  0
 45 46  2  0  0  0
 45113  1  0  0  0
 46114  1  0  0  0
 47115  1  0  0  0
 47116  1  0  0  0
 48 56  1  0  0  0
 48 65  1  0  0  0
 48117  1  0  0  0
 49 50  1  0  0  0
 49 53  1  0  0  0
 49 64  1  0  0  0
 49118  1  0  0  0
 50 51  1  0  0  0
 50119  1  0  0  0
 50120  1  0  0  0
 51 52  1  0  0  0
 51121  1  0  0  0
 51122  1  0  0  0
 52123  1  0  0  0
 52124  1  0  0  0
 53 54  1  0  0  0
 54 55  2  0  0  0
 54125  1  0  0  0
 55 57  1  0  0  0
 55126  1  0  0  0
 56 69  2  0  0  0
 57 58  2  0  0  0
 57127  1  0  0  0
 58128  1  0  0  0
 59 60  1  0  0  0
 59 61  1  0  0  0
 59 62  1  0  0  0
 60129  1  0  0  0
 60130  1  0  0  0
 60131  1  0  0  0
 61132  1  0  0  0
 61133  1  0  0  0
 61134  1  0  0  0
 62135  1  0  0  0
 62136  1  0  0  0
 62137  1  0  0  0
 63 65  1  0  0  0
 63138  1  0  0  0
 63139  1  0  0  0
 63140  1  0  0  0
 64141  1  0  0  0
 65142  1  0  0  0
 68 81  1  0  0  0
 71 73  1  0  0  0
 71 75  1  0  0  0
 71143  1  0  0  0
 71144  1  0  0  0
 72 74  1  0  0  0
 72 75  1  0  0  0
 72145  1  0  0  0
 72146  1  0  0  0
 73 83  1  0  0  0
 73147  1  0  0  0
 73148  1  0  0  0
 74 83  1  0  0  0
 74149  1  0  0  0
 74150  1  0  0  0
 75 78  1  0  0  0
 75151  1  0  0  0
 76 79  1  0  0  0
 76152  1  0  0  0
 76153  1  0  0  0
 76154  1  0  0  0
 77155  1  0  0  0
 77156  1  0  0  0
 77157  1  0  0  0
 77 82  1  0  0  0
 78 82  1  0  0  0
 78158  1  0  0  0
 78159  1  0  0  0
 79 80  1  0  0  0
 79160  1  0  0  0
 79161  1  0  0  0
 80 82  1  0  0  0
 80162  1  0  0  0
 80163  1  0  0  0
 81 82  1  0  0  0
 81164  1  0  0  0
 81165  1  0  0  0
M  ISO  4   1 100  68 101  81 101  83 100
M  END
> <chiral flag>
0

> <version>
0

> <s_m_source_file>
/data/baiqing/PycharmProjects/Reinvent-master-3.2/result/LINK_invent/BTK/process_docking_weight1_custom_sum_contain_oxygen_bond_distance_aromatic_linkinvent_7_9_3/rearranged_h_0106.sdf

> <i_m_source_file_index>
43

> <r_mmod_Potential_Energy-OPLS-2005>
1087.63122558594

> <r_mmod_Stretch_Energy-OPLS-2005>
379.553039550781

> <r_mmod_Bend_Energy-OPLS-2005>
422.743408203125

> <r_mmod_Torsional_Energy-OPLS-2005>
330.413238525391

> <r_mmod_Improper_Torsional_Energy-OPLS-2005>
10.3421001434326

> <r_mmod_Van_der_Waal_Energy-OPLS-2005>
118.937461853027

> <r_mmod_Electrostatic_Energy-OPLS-2005>
-271.212341308594

> <r_mmod_Solvation_Energy-OPLS-2005>
-187.530838012695

> <b_mmod_Minimization_Converged-OPLS-2005>
0

> <r_mmod_RMS_Derivative-OPLS-2005>
2.06906342506409

$$$$
43
                    3D
 Structure written by MMmdl.
157165  0  0  1  0            999 V2000
  -30.3875  -15.3737   20.3714 C   0  0  0  0  0  0
  -30.4531  -12.8927   19.5310 C   0  0  0  0  0  0
  -29.5612  -12.5853   18.2994 C   0  0  0  0  0  0
  -28.1174  -12.2779   18.7384 C   0  0  0  0  0  0
  -27.6179  -13.2702   19.8179 C   0  0  2  0  0  0
  -28.6408  -13.4910   20.9527 C   0  0  0  0  0  0
  -25.2487  -13.8247   20.5720 C   0  0  0  0  0  0
  -24.1801  -13.0480   20.9222 C   0  0  0  0  0  0
  -24.6413  -11.6963   20.8755 C   0  0  0  0  0  0
  -23.9088  -10.4346   21.0439 C   0  0  0  0  0  0
  -24.3620   -9.4283   21.9237 C   0  0  0  0  0  0
  -23.6278   -8.2308   22.0853 C   0  0  0  0  0  0
  -22.4238   -8.0360   21.3645 C   0  0  0  0  0  0
  -21.9863   -9.0327   20.4727 C   0  0  0  0  0  0
  -22.7251  -10.2187   20.3117 C   0  0  0  0  0  0
  -21.6849   -6.0754   22.5294 C   0  0  0  0  0  0
  -21.4033   -6.5660   23.8242 C   0  0  0  0  0  0
  -21.3656   -5.6800   24.9192 C   0  0  0  0  0  0
  -21.6019   -4.3068   24.7249 C   0  0  0  0  0  0
  -21.8793   -3.8163   23.4361 C   0  0  0  0  0  0
  -21.9176   -4.6978   22.3407 C   0  0  0  0  0  0
  -22.7817  -13.5312   21.1792 C   0  0  0  0  0  0
  -22.1651   -4.2163   21.0984 F   0  0  0  0  0  0
  -21.5623   -3.4544   25.7764 F   0  0  0  0  0  0
  -29.8517  -14.0424   20.3207 N   0  0  0  0  0  0
  -26.2864  -12.9470   20.3131 N   0  0  0  0  0  0
  -25.9357  -11.6611   20.5689 N   0  0  0  0  0  0
  -22.0277  -12.8472   22.0308 N   0  0  0  0  0  0
  -25.4222  -15.1989   20.4209 N   0  0  0  0  0  0
  -31.6089  -15.3670   20.1680 O   0  0  0  0  0  0
  -21.6660   -6.8927   21.4267 O   0  0  0  0  0  0
  -22.3547  -14.5585   20.6558 O   0  0  0  0  0  0
  -24.6744  -31.8152   23.1635 C   0  0  0  0  0  0
  -25.9386  -32.4508   23.8128 C   0  0  1  0  0  0
  -27.2246  -26.8760   20.1861 C   0  0  0  0  0  0
  -25.6027  -33.8298   24.2007 N   0  0  0  0  0  0
  -23.4946  -30.4268   21.5127 C   0  0  2  0  0  0
  -24.9476  -28.8058   20.1182 C   0  0  0  0  0  0
  -22.7721  -29.4415   22.4706 C   0  0  0  0  0  0
  -18.0324  -28.1436   22.8413 C   0  0  0  0  0  0
  -24.1570  -36.7191   23.2654 C   0  0  0  0  0  0
  -26.0671  -30.6064   21.4043 C   0  0  0  0  0  0
  -26.1348  -29.1881   20.7515 C   0  0  0  0  0  0
  -27.2718  -28.2493   20.7577 C   0  0  0  0  0  0
  -26.0057  -26.6615   19.5075 C   0  0  0  0  0  0
  -24.9084  -27.5595   19.4725 C   0  0  0  0  0  0
  -23.7419  -29.7425   20.1412 C   0  0  0  0  0  0
  -25.4186  -36.2892   24.0277 C   0  0  1  0  0  0
  -20.5960  -28.3813   23.1109 C   0  0  2  0  0  0
  -20.6832  -26.9479   22.5384 C   0  0  0  0  0  0
  -19.5826  -26.6394   21.5190 C   0  0  0  0  0  0
  -18.1986  -26.7953   22.1578 C   0  0  0  0  0  0
  -19.1586  -28.8938   23.2757 C   0  0  0  0  0  0
  -18.9515  -30.1493   23.8840 C   0  0  0  0  0  0
  -17.6516  -30.6608   24.0559 C   0  0  0  0  0  0
  -25.9139  -34.9272   23.4965 C   0  0  0  0  0  0
  -16.5391  -29.9106   23.6327 C   0  0  0  0  0  0
  -16.7305  -28.6529   23.0317 C   0  0  0  0  0  0
  -26.4620  -31.6429   25.0651 C   0  0  0  0  0  0
  -25.3747  -31.3724   26.1326 C   0  0  0  0  0  0
  -27.0451  -30.2744   24.6449 C   0  0  0  0  0  0
  -27.6171  -32.4162   25.7448 C   0  0  0  0  0  0
  -27.5597  -37.1735   24.8421 C   0  0  0  0  0  0
  -21.4370  -29.3065   22.3441 N   0  0  0  0  0  0
  -26.4314  -37.3635   23.9368 N   0  0  0  0  0  0
  -24.7659  -30.9795   22.0780 N   0  0  0  0  0  0
  -23.4177  -28.7983   23.3024 O   0  0  0  0  0  0
  -28.1941  -25.7159   20.1762 O   0  0  0  0  0  0
  -26.5759  -34.8820   22.4570 O   0  0  0  0  0  0
  -23.5780  -32.1132   23.6686 O   0  0  0  0  0  0
  -29.2782  -21.4339   20.2904 C   0  0  0  0  0  0
  -27.6622  -20.1365   20.8021 C   0  0  0  0  0  0
  -28.9772  -19.9111   20.4510 C   0  0  0  0  0  0
  -28.2535  -22.4711   20.5284 C   0  0  0  0  0  0
  -28.0798  -24.4933   22.2838 C   0  0  0  0  0  0
  -25.8707  -21.5095   23.0141 C   0  0  0  0  0  0
  -24.7340  -21.1822   20.7728 C   0  0  0  0  0  0
  -29.8956  -18.3446   20.3489 C   0  0  0  0  0  0
  -27.8538  -24.2157   20.7941 C   0  0  1  0  0  0
  -25.9255  -21.8293   21.5071 C   0  0  0  0  0  0
  -27.2564  -21.5115   20.9174 N   0  0  0  0  0  0
  -29.6134  -16.6680   20.4549 N   0  0  0  0  0  0
  -31.4624  -13.1207   19.1883 H   0  0  0  0  0  0
  -30.5653  -12.0080   20.1581 H   0  0  0  0  0  0
  -29.9681  -11.7471   17.7290 H   0  0  0  0  0  0
  -29.5688  -13.4407   17.6197 H   0  0  0  0  0  0
  -28.1154  -11.2670   19.1459 H   0  0  0  0  0  0
  -27.4457  -12.2692   17.8783 H   0  0  0  0  0  0
  -27.5255  -14.2197   19.2899 H   0  0  0  0  0  0
  -28.8435  -12.5678   21.4987 H   0  0  0  0  0  0
  -28.2554  -14.2083   21.6795 H   0  0  0  0  0  0
  -25.2753   -9.5744   22.4853 H   0  0  0  0  0  0
  -23.9955   -7.4696   22.7608 H   0  0  0  0  0  0
  -21.0795   -8.8882   19.9046 H   0  0  0  0  0  0
  -22.3747  -10.9728   19.6243 H   0  0  0  0  0  0
  -21.2069   -7.6168   23.9724 H   0  0  0  0  0  0
  -21.1488   -6.0565   25.9090 H   0  0  0  0  0  0
  -22.0552   -2.7620   23.2859 H   0  0  0  0  0  0
  -22.3677  -12.0238   22.5031 H   0  0  0  0  0  0
  -21.0902  -13.1733   22.2238 H   0  0  0  0  0  0
  -24.6719  -15.8621   20.5755 H   0  0  0  0  0  0
  -26.2637  -15.6321   20.0670 H   0  0  0  0  0  0
  -26.7471  -32.5042   23.0845 H   0  0  0  0  0  0
  -24.9990  -33.9325   25.0040 H   0  0  0  0  0  0
  -22.8140  -31.2620   21.3300 H   0  0  0  0  0  0
  -23.3784  -35.9570   23.3246 H   0  0  0  0  0  0
  -24.3705  -36.8901   22.2085 H   0  0  0  0  0  0
  -23.7395  -37.6392   23.6747 H   0  0  0  0  0  0
  -26.2530  -31.3400   20.6194 H   0  0  0  0  0  0
  -26.9249  -30.6631   22.0613 H   0  0  0  0  0  0
  -28.1743  -28.5436   21.2733 H   0  0  0  0  0  0
  -25.8718  -25.7138   19.0090 H   0  0  0  0  0  0
  -24.0140  -27.2585   18.9438 H   0  0  0  0  0  0
  -23.9051  -30.5051   19.3773 H   0  0  0  0  0  0
  -22.8538  -29.1986   19.8243 H   0  0  0  0  0  0
  -25.1403  -36.1669   25.0777 H   0  0  0  0  0  0
  -21.0012  -28.3488   24.1239 H   0  0  0  0  0  0
  -20.5716  -26.2454   23.3649 H   0  0  0  0  0  0
  -21.6715  -26.7473   22.1220 H   0  0  0  0  0  0
  -19.7027  -25.6288   21.1269 H   0  0  0  0  0  0
  -19.6777  -27.3161   20.6682 H   0  0  0  0  0  0
  -17.4268  -26.6620   21.3982 H   0  0  0  0  0  0
  -18.0412  -26.0121   22.9003 H   0  0  0  0  0  0
  -19.7991  -30.7312   24.2208 H   0  0  0  0  0  0
  -17.5069  -31.6265   24.5207 H   0  0  0  0  0  0
  -15.5406  -30.3021   23.7677 H   0  0  0  0  0  0
  -15.8676  -28.0862   22.7046 H   0  0  0  0  0  0
  -24.5884  -30.7132   25.7636 H   0  0  0  0  0  0
  -24.9014  -32.2931   26.4726 H   0  0  0  0  0  0
  -25.7978  -30.8875   27.0123 H   0  0  0  0  0  0
  -26.3062  -29.6390   24.1546 H   0  0  0  0  0  0
  -27.3979  -29.7183   25.5145 H   0  0  0  0  0  0
  -27.9048  -30.3826   23.9834 H   0  0  0  0  0  0
  -27.2811  -33.3478   26.2012 H   0  0  0  0  0  0
  -28.4022  -32.6647   25.0282 H   0  0  0  0  0  0
  -28.0787  -31.8249   26.5369 H   0  0  0  0  0  0
  -28.2543  -38.0096   24.7483 H   0  0  0  0  0  0
  -28.1154  -36.2602   24.6204 H   0  0  0  0  0  0
  -27.2296  -37.1332   25.8820 H   0  0  0  0  0  0
  -20.9644  -29.8763   21.6554 H   0  0  0  0  0  0
  -26.0126  -38.2692   24.1330 H   0  0  0  0  0  0
  -30.2806  -21.7506   20.0432 H   0  0  0  0  0  0
  -26.9304  -19.3855   21.0685 H   0  0  0  0  0  0
  -27.4915  -23.8223   22.8999 H   0  0  0  0  0  0
  -27.8118  -25.5154   22.5584 H   0  0  0  0  0  0
  -29.1300  -24.3432   22.5385 H   0  0  0  0  0  0
  -25.0311  -22.0257   23.4864 H   0  0  0  0  0  0
  -26.7727  -21.8244   23.5384 H   0  0  0  0  0  0
  -25.7405  -20.4422   23.1894 H   0  0  0  0  0  0
  -23.7936  -21.5229   21.2151 H   0  0  0  0  0  0
  -24.7336  -20.0943   20.8323 H   0  0  0  0  0  0
  -24.7038  -21.4541   19.7185 H   0  0  0  0  0  0
  -30.6532  -18.4747   21.1205 H   0  0  0  0  0  0
  -30.4605  -18.4352   19.4185 H   0  0  0  0  0  0
  -26.7994  -24.2831   20.5680 H   0  0  0  0  0  0
  -25.7244  -22.8882   21.4464 H   0  0  0  0  0  0
  -28.6326  -16.4735   20.5775 H   0  0  0  0  0  0
  1 25  1  0  0  0
  1 30  2  0  0  0
  1 82  1  0  0  0
  2  3  1  0  0  0
  2 25  1  0  0  0
  2 83  1  0  0  0
  2 84  1  0  0  0
  3  4  1  0  0  0
  3 85  1  0  0  0
  3 86  1  0  0  0
  4  5  1  0  0  0
  4 87  1  0  0  0
  4 88  1  0  0  0
  5  6  1  0  0  0
  5 26  1  0  0  0
  5 89  1  0  0  0
  6 25  1  0  0  0
  6 90  1  0  0  0
  6 91  1  0  0  0
  7  8  2  0  0  0
  7 26  1  0  0  0
  7 29  1  0  0  0
  8  9  1  0  0  0
  8 22  1  0  0  0
  9 10  1  0  0  0
  9 27  2  0  0  0
 10 11  2  0  0  0
 10 15  1  0  0  0
 11 12  1  0  0  0
 11 92  1  0  0  0
 12 13  2  0  0  0
 12 93  1  0  0  0
 13 14  1  0  0  0
 13 31  1  0  0  0
 14 15  2  0  0  0
 14 94  1  0  0  0
 15 95  1  0  0  0
 16 17  2  0  0  0
 16 21  1  0  0  0
 16 31  1  0  0  0
 17 18  1  0  0  0
 17 96  1  0  0  0
 18 19  2  0  0  0
 18 97  1  0  0  0
 19 20  1  0  0  0
 19 24  1  0  0  0
 20 21  2  0  0  0
 20 98  1  0  0  0
 21 23  1  0  0  0
 22 28  1  0  0  0
 22 32  2  0  0  0
 26 27  1  0  0  0
 28 99  1  0  0  0
 28100  1  0  0  0
 29101  1  0  0  0
 29102  1  0  0  0
 33 34  1  0  0  0
 33 66  1  0  0  0
 33 70  2  0  0  0
 34 36  1  0  0  0
 34 59  1  0  0  0
 34103  1  0  0  0
 35 44  2  0  0  0
 35 45  1  0  0  0
 35 68  1  0  0  0
 36 56  1  0  0  0
 36104  1  0  0  0
 37 39  1  0  0  0
 37 47  1  0  0  0
 37 66  1  0  0  0
 37105  1  0  0  0
 38 43  2  0  0  0
 38 46  1  0  0  0
 38 47  1  0  0  0
 39 64  1  0  0  0
 39 67  2  0  0  0
 40 52  1  0  0  0
 40 53  2  0  0  0
 40 58  1  0  0  0
 41106  1  0  0  0
 41107  1  0  0  0
 41108  1  0  0  0
 41 48  1  0  0  0
 42 43  1  0  0  0
 42 66  1  0  0  0
 42109  1  0  0  0
 42110  1  0  0  0
 43 44  1  0  0  0
 44111  1  0  0  0
 45 46  2  0  0  0
 45112  1  0  0  0
 46113  1  0  0  0
 47114  1  0  0  0
 47115  1  0  0  0
 48 56  1  0  0  0
 48 65  1  0  0  0
 48116  1  0  0  0
 49 50  1  0  0  0
 49 53  1  0  0  0
 49 64  1  0  0  0
 49117  1  0  0  0
 50 51  1  0  0  0
 50118  1  0  0  0
 50119  1  0  0  0
 51 52  1  0  0  0
 51120  1  0  0  0
 51121  1  0  0  0
 52122  1  0  0  0
 52123  1  0  0  0
 53 54  1  0  0  0
 54 55  2  0  0  0
 54124  1  0  0  0
 55 57  1  0  0  0
 55125  1  0  0  0
 56 69  2  0  0  0
 57 58  2  0  0  0
 57126  1  0  0  0
 58127  1  0  0  0
 59 60  1  0  0  0
 59 61  1  0  0  0
 59 62  1  0  0  0
 60128  1  0  0  0
 60129  1  0  0  0
 60130  1  0  0  0
 61131  1  0  0  0
 61132  1  0  0  0
 61133  1  0  0  0
 62134  1  0  0  0
 62135  1  0  0  0
 62136  1  0  0  0
 63 65  1  0  0  0
 63137  1  0  0  0
 63138  1  0  0  0
 63139  1  0  0  0
 64140  1  0  0  0
 65141  1  0  0  0
 68 79  1  0  0  0
 71 73  1  0  0  0
 71 74  2  0  0  0
 71142  1  0  0  0
 72 73  2  0  0  0
 72 81  1  0  0  0
 72143  1  0  0  0
 73 78  1  0  0  0
 74 79  1  0  0  0
 74 81  1  0  0  0
 75144  1  0  0  0
 75145  1  0  0  0
 75146  1  0  0  0
 75 79  1  0  0  0
 76147  1  0  0  0
 76148  1  0  0  0
 76149  1  0  0  0
 76 80  1  0  0  0
 77 80  1  0  0  0
 77150  1  0  0  0
 77151  1  0  0  0
 77152  1  0  0  0
 78 82  1  0  0  0
 78153  1  0  0  0
 78154  1  0  0  0
 79155  1  0  0  0
 80 81  1  0  0  0
 80156  1  0  0  0
 82157  1  0  0  0
M  ISO  4   1 100  68 101  79 101  82 100
M  END
> <chiral flag>
0

> <version>
0

> <s_m_source_file>
/data/baiqing/PycharmProjects/Reinvent-master-3.2/result/LINK_invent/BTK/process_docking_weight1_custom_sum_contain_oxygen_bond_distance_aromatic_linkinvent_7_9_3/rearranged_h_0106.sdf

> <i_m_source_file_index>
44

> <r_mmod_Potential_Energy-OPLS-2005>
1570.74792480469

> <r_mmod_Stretch_Energy-OPLS-2005>
695.888488769531

> <r_mmod_Bend_Energy-OPLS-2005>
557.691589355469

> <r_mmod_Torsional_Energy-OPLS-2005>
262.16455078125

> <r_mmod_Improper_Torsional_Energy-OPLS-2005>
5.04380798339844

> <r_mmod_Van_der_Waal_Energy-OPLS-2005>
112.951988220215

> <r_mmod_Electrostatic_Energy-OPLS-2005>
-419.464172363281

> <r_mmod_Solvation_Energy-OPLS-2005>
-211.486282348633

> <b_mmod_Minimization_Converged-OPLS-2005>
0

> <r_mmod_RMS_Derivative-OPLS-2005>
7.29595565795898

$$$$
44
                    3D
 Structure written by MMmdl.
165173  0  0  1  0            999 V2000
  -30.5586  -15.0461   20.4392 C   0  0  0  0  0  0
  -30.4560  -12.6605   19.5202 C   0  0  0  0  0  0
  -29.5360  -12.5671   18.2753 C   0  0  0  0  0  0
  -28.0743  -12.3380   18.6957 C   0  0  0  0  0  0
  -27.6469  -13.2465   19.8733 C   0  0  2  0  0  0
  -28.6906  -13.3306   21.0077 C   0  0  0  0  0  0
  -25.2602  -13.8172   20.5976 C   0  0  0  0  0  0
  -24.1918  -13.0393   20.9221 C   0  0  0  0  0  0
  -24.6542  -11.6875   20.8787 C   0  0  0  0  0  0
  -23.9180  -10.4344   21.0436 C   0  0  0  0  0  0
  -24.3704   -9.4254   21.9206 C   0  0  0  0  0  0
  -23.6365   -8.2310   22.0783 C   0  0  0  0  0  0
  -22.4343   -8.0383   21.3571 C   0  0  0  0  0  0
  -21.9987   -9.0387   20.4673 C   0  0  0  0  0  0
  -22.7368  -10.2240   20.3057 C   0  0  0  0  0  0
  -21.6900   -6.0849   22.5304 C   0  0  0  0  0  0
  -21.4089   -6.5707   23.8259 C   0  0  0  0  0  0
  -21.3608   -5.6808   24.9186 C   0  0  0  0  0  0
  -21.5981   -4.3075   24.7221 C   0  0  0  0  0  0
  -21.8835   -3.8222   23.4339 C   0  0  0  0  0  0
  -21.9210   -4.7071   22.3399 C   0  0  0  0  0  0
  -22.7930  -13.5155   21.1817 C   0  0  0  0  0  0
  -22.1677   -4.2245   21.0983 F   0  0  0  0  0  0
  -21.5565   -3.4538   25.7723 F   0  0  0  0  0  0
  -29.9568  -13.7750   20.3984 N   0  0  0  0  0  0
  -26.3078  -12.9427   20.3548 N   0  0  0  0  0  0
  -25.9476  -11.6534   20.5832 N   0  0  0  0  0  0
  -22.0527  -12.8199   22.0340 N   0  0  0  0  0  0
  -25.4056  -15.1976   20.4725 N   0  0  0  0  0  0
  -31.7506  -15.0874   20.1248 O   0  0  0  0  0  0
  -21.6659   -6.9016   21.4300 O   0  0  0  0  0  0
  -22.3680  -14.5511   20.6660 O   0  0  0  0  0  0
  -24.6424  -31.8418   23.1870 C   0  0  0  0  0  0
  -25.9153  -32.4700   23.8319 C   0  0  1  0  0  0
  -27.2182  -27.0881   20.1756 C   0  0  0  0  0  0
  -25.5912  -33.8526   24.2202 N   0  0  0  0  0  0
  -23.4459  -30.4546   21.5387 C   0  0  2  0  0  0
  -24.8959  -28.8667   20.1197 C   0  0  0  0  0  0
  -22.7540  -29.4505   22.4929 C   0  0  0  0  0  0
  -18.0288  -28.1342   22.8475 C   0  0  0  0  0  0
  -24.1460  -36.7293   23.2642 C   0  0  0  0  0  0
  -26.0035  -30.7006   21.3877 C   0  0  0  0  0  0
  -26.0749  -29.3053   20.7346 C   0  0  0  0  0  0
  -27.2338  -28.4355   20.7356 C   0  0  0  0  0  0
  -26.0147  -26.7593   19.5174 C   0  0  0  0  0  0
  -24.8806  -27.6131   19.4906 C   0  0  0  0  0  0
  -23.6674  -29.7720   20.1629 C   0  0  0  0  0  0
  -25.4119  -36.3111   24.0304 C   0  0  1  0  0  0
  -20.5886  -28.3665   23.1268 C   0  0  2  0  0  0
  -20.6752  -26.9350   22.5426 C   0  0  0  0  0  0
  -19.5759  -26.6330   21.5217 C   0  0  0  0  0  0
  -18.1929  -26.7879   22.1603 C   0  0  0  0  0  0
  -19.1546  -28.8813   23.2849 C   0  0  0  0  0  0
  -18.9489  -30.1427   23.8838 C   0  0  0  0  0  0
  -17.6489  -30.6551   24.0541 C   0  0  0  0  0  0
  -25.9088  -34.9443   23.5079 C   0  0  0  0  0  0
  -16.5373  -29.9039   23.6351 C   0  0  0  0  0  0
  -16.7273  -28.6448   23.0382 C   0  0  0  0  0  0
  -26.4482  -31.6618   25.0784 C   0  0  0  0  0  0
  -25.3692  -31.3716   26.1504 C   0  0  0  0  0  0
  -27.0345  -30.3022   24.6349 C   0  0  0  0  0  0
  -27.6042  -32.4368   25.7555 C   0  0  0  0  0  0
  -27.5584  -37.1800   24.8463 C   0  0  0  0  0  0
  -21.4236  -29.2984   22.3635 N   0  0  0  0  0  0
  -26.4300  -37.3813   23.9390 N   0  0  0  0  0  0
  -24.7188  -31.0212   22.0940 N   0  0  0  0  0  0
  -23.4147  -28.8050   23.3102 O   0  0  0  0  0  0
  -28.2879  -26.1014   20.1926 O   0  0  0  0  0  0
  -26.5701  -34.8919   22.4683 O   0  0  0  0  0  0
  -23.5534  -32.1323   23.7076 O   0  0  0  0  0  0
  -26.3329  -18.8563   20.1060 C   0  0  0  0  0  0
  -27.2026  -20.7844   20.9142 C   0  0  0  0  0  0
  -27.6013  -18.3318   19.8147 C   0  0  0  0  0  0
  -28.7854  -18.9626   20.3150 C   0  0  0  0  0  0
  -28.5394  -20.4675   20.5776 C   0  0  0  0  0  0
  -26.5445  -16.7315   15.9269 C   0  0  0  0  0  0
  -28.9043  -16.9752   15.1130 C   0  0  0  0  0  0
  -27.5967  -17.1688   18.8248 C   0  0  0  0  0  0
  -30.0342  -17.8558   20.4825 C   0  0  0  0  0  0
  -28.4305  -17.4230   17.5546 C   0  0  0  0  0  0
  -28.1280  -24.5919   20.6469 C   0  0  0  0  0  0
  -28.8092  -23.1300   20.0226 C   0  0  0  0  0  0
  -28.0303  -16.5900   16.3156 C   0  0  0  0  0  0
  -26.1286  -20.0051   20.7517 N   0  0  0  0  0  0
  -29.8116  -16.2575   20.6478 N   0  0  0  0  0  0
  -29.3003  -21.7247   20.6078 O   0  0  0  0  0  0
  -31.4852  -12.8358   19.1973 H   0  0  0  0  0  0
  -30.4684  -11.7127   20.0583 H   0  0  0  0  0  0
  -29.8564  -11.7636   17.6120 H   0  0  0  0  0  0
  -29.6144  -13.4808   17.6796 H   0  0  0  0  0  0
  -27.9678  -11.2901   18.9718 H   0  0  0  0  0  0
  -27.4086  -12.5146   17.8539 H   0  0  0  0  0  0
  -27.5852  -14.2270   19.4266 H   0  0  0  0  0  0
  -28.8203  -12.3737   21.5137 H   0  0  0  0  0  0
  -28.3569  -14.0494   21.7618 H   0  0  0  0  0  0
  -25.2858   -9.5725   22.4791 H   0  0  0  0  0  0
  -24.0052   -7.4666   22.7461 H   0  0  0  0  0  0
  -21.0915   -8.8997   19.8941 H   0  0  0  0  0  0
  -22.3891  -10.9843   19.6179 H   0  0  0  0  0  0
  -21.2196   -7.6220   23.9841 H   0  0  0  0  0  0
  -21.1308   -6.0505   25.9080 H   0  0  0  0  0  0
  -22.0634   -2.7694   23.2805 H   0  0  0  0  0  0
  -22.4146  -11.9853   22.4710 H   0  0  0  0  0  0
  -21.1198  -13.1308   22.2624 H   0  0  0  0  0  0
  -24.6178  -15.8136   20.6418 H   0  0  0  0  0  0
  -26.2647  -15.6975   20.2989 H   0  0  0  0  0  0
  -26.7190  -32.5281   23.1018 H   0  0  0  0  0  0
  -25.0009  -33.9696   25.0315 H   0  0  0  0  0  0
  -22.7504  -31.2869   21.3857 H   0  0  0  0  0  0
  -23.3783  -35.9574   23.3320 H   0  0  0  0  0  0
  -24.3539  -36.8962   22.2061 H   0  0  0  0  0  0
  -23.7110  -37.6437   23.6709 H   0  0  0  0  0  0
  -26.1491  -31.4456   20.6075 H   0  0  0  0  0  0
  -26.8700  -30.7600   22.0295 H   0  0  0  0  0  0
  -28.1315  -28.7747   21.2308 H   0  0  0  0  0  0
  -25.9301  -25.7999   19.0274 H   0  0  0  0  0  0
  -23.9794  -27.2735   18.9907 H   0  0  0  0  0  0
  -23.7964  -30.5488   19.4096 H   0  0  0  0  0  0
  -22.7722  -29.2245   19.8540 H   0  0  0  0  0  0
  -25.1272  -36.2029   25.0789 H   0  0  0  0  0  0
  -20.9955  -28.3245   24.1393 H   0  0  0  0  0  0
  -20.5662  -26.2250   23.3643 H   0  0  0  0  0  0
  -21.6637  -26.7400   22.1222 H   0  0  0  0  0  0
  -19.6968  -25.6245   21.1241 H   0  0  0  0  0  0
  -19.6712  -27.3123   20.6734 H   0  0  0  0  0  0
  -17.4209  -26.6635   21.3983 H   0  0  0  0  0  0
  -18.0345  -26.0019   22.8991 H   0  0  0  0  0  0
  -19.7979  -30.7261   24.2144 H   0  0  0  0  0  0
  -17.5055  -31.6238   24.5127 H   0  0  0  0  0  0
  -15.5364  -30.2916   23.7722 H   0  0  0  0  0  0
  -15.8681  -28.0739   22.7147 H   0  0  0  0  0  0
  -24.5948  -30.6944   25.7851 H   0  0  0  0  0  0
  -24.8765  -32.2811   26.4945 H   0  0  0  0  0  0
  -25.8052  -30.8954   27.0301 H   0  0  0  0  0  0
  -26.2961  -29.6735   24.1334 H   0  0  0  0  0  0
  -27.3925  -29.7301   25.4946 H   0  0  0  0  0  0
  -27.8891  -30.4268   23.9683 H   0  0  0  0  0  0
  -27.2702  -33.3722   26.2032 H   0  0  0  0  0  0
  -28.3903  -32.6788   25.0402 H   0  0  0  0  0  0
  -28.0635  -31.8538   26.5558 H   0  0  0  0  0  0
  -28.2586  -38.0120   24.7612 H   0  0  0  0  0  0
  -28.1098  -36.2655   24.6210 H   0  0  0  0  0  0
  -27.2315  -37.1366   25.8870 H   0  0  0  0  0  0
  -20.9470  -29.8725   21.6807 H   0  0  0  0  0  0
  -26.0223  -38.2877   24.1488 H   0  0  0  0  0  0
  -25.4371  -18.3444   19.7891 H   0  0  0  0  0  0
  -26.9598  -21.7455   21.3348 H   0  0  0  0  0  0
  -26.3631  -16.3169   14.9357 H   0  0  0  0  0  0
  -26.2244  -17.7729   15.9072 H   0  0  0  0  0  0
  -25.9077  -16.1796   16.6165 H   0  0  0  0  0  0
  -28.6290  -16.3926   14.2304 H   0  0  0  0  0  0
  -29.9596  -16.7928   15.3200 H   0  0  0  0  0  0
  -28.7834  -18.0264   14.8548 H   0  0  0  0  0  0
  -26.5656  -17.0184   18.5255 H   0  0  0  0  0  0
  -27.8630  -16.2281   19.2699 H   0  0  0  0  0  0
  -30.7193  -18.0087   19.6482 H   0  0  0  0  0  0
  -30.5990  -18.1649   21.3617 H   0  0  0  0  0  0
  -29.4804  -17.2250   17.7805 H   0  0  0  0  0  0
  -28.3655  -18.4843   17.3007 H   0  0  0  0  0  0
  -28.4747  -24.6370   21.6778 H   0  0  0  0  0  0
  -27.0586  -24.4139   20.7434 H   0  0  0  0  0  0
  -29.7460  -23.4887   19.6003 H   0  0  0  0  0  0
  -28.2211  -22.8846   19.1389 H   0  0  0  0  0  0
  -28.2197  -15.5372   16.5355 H   0  0  0  0  0  0
  -28.8644  -16.0528   20.9183 H   0  0  0  0  0  0
  1 25  1  0  0  0
  1 30  2  0  0  0
  1 85  1  0  0  0
  2  3  1  0  0  0
  2 25  1  0  0  0
  2 87  1  0  0  0
  2 88  1  0  0  0
  3  4  1  0  0  0
  3 89  1  0  0  0
  3 90  1  0  0  0
  4  5  1  0  0  0
  4 91  1  0  0  0
  4 92  1  0  0  0
  5  6  1  0  0  0
  5 26  1  0  0  0
  5 93  1  0  0  0
  6 25  1  0  0  0
  6 94  1  0  0  0
  6 95  1  0  0  0
  7  8  2  0  0  0
  7 26  1  0  0  0
  7 29  1  0  0  0
  8  9  1  0  0  0
  8 22  1  0  0  0
  9 10  1  0  0  0
  9 27  2  0  0  0
 10 11  2  0  0  0
 10 15  1  0  0  0
 11 12  1  0  0  0
 11 96  1  0  0  0
 12 13  2  0  0  0
 12 97  1  0  0  0
 13 14  1  0  0  0
 13 31  1  0  0  0
 14 15  2  0  0  0
 14 98  1  0  0  0
 15 99  1  0  0  0
 16 17  2  0  0  0
 16 21  1  0  0  0
 16 31  1  0  0  0
 17 18  1  0  0  0
 17100  1  0  0  0
 18 19  2  0  0  0
 18101  1  0  0  0
 19 20  1  0  0  0
 19 24  1  0  0  0
 20 21  2  0  0  0
 20102  1  0  0  0
 21 23  1  0  0  0
 22 28  1  0  0  0
 22 32  2  0  0  0
 26 27  1  0  0  0
 28103  1  0  0  0
 28104  1  0  0  0
 29105  1  0  0  0
 29106  1  0  0  0
 33 34  1  0  0  0
 33 66  1  0  0  0
 33 70  2  0  0  0
 34 36  1  0  0  0
 34 59  1  0  0  0
 34107  1  0  0  0
 35 44  2  0  0  0
 35 45  1  0  0  0
 35 68  1  0  0  0
 36 56  1  0  0  0
 36108  1  0  0  0
 37 39  1  0  0  0
 37 47  1  0  0  0
 37 66  1  0  0  0
 37109  1  0  0  0
 38 43  2  0  0  0
 38 46  1  0  0  0
 38 47  1  0  0  0
 39 64  1  0  0  0
 39 67  2  0  0  0
 40 52  1  0  0  0
 40 53  2  0  0  0
 40 58  1  0  0  0
 41110  1  0  0  0
 41111  1  0  0  0
 41112  1  0  0  0
 41 48  1  0  0  0
 42 43  1  0  0  0
 42 66  1  0  0  0
 42113  1  0  0  0
 42114  1  0  0  0
 43 44  1  0  0  0
 44115  1  0  0  0
 45 46  2  0  0  0
 45116  1  0  0  0
 46117  1  0  0  0
 47118  1  0  0  0
 47119  1  0  0  0
 48 56  1  0  0  0
 48 65  1  0  0  0
 48120  1  0  0  0
 49 50  1  0  0  0
 49 53  1  0  0  0
 49 64  1  0  0  0
 49121  1  0  0  0
 50 51  1  0  0  0
 50122  1  0  0  0
 50123  1  0  0  0
 51 52  1  0  0  0
 51124  1  0  0  0
 51125  1  0  0  0
 52126  1  0  0  0
 52127  1  0  0  0
 53 54  1  0  0  0
 54 55  2  0  0  0
 54128  1  0  0  0
 55 57  1  0  0  0
 55129  1  0  0  0
 56 69  2  0  0  0
 57 58  2  0  0  0
 57130  1  0  0  0
 58131  1  0  0  0
 59 60  1  0  0  0
 59 61  1  0  0  0
 59 62  1  0  0  0
 60132  1  0  0  0
 60133  1  0  0  0
 60134  1  0  0  0
 61135  1  0  0  0
 61136  1  0  0  0
 61137  1  0  0  0
 62138  1  0  0  0
 62139  1  0  0  0
 62140  1  0  0  0
 63 65  1  0  0  0
 63141  1  0  0  0
 63142  1  0  0  0
 63143  1  0  0  0
 64144  1  0  0  0
 65145  1  0  0  0
 68 81  1  0  0  0
 71 73  2  0  0  0
 71 84  1  0  0  0
 71146  1  0  0  0
 72 75  1  0  0  0
 72 84  2  0  0  0
 72147  1  0  0  0
 73 74  1  0  0  0
 73 78  1  0  0  0
 74 75  2  0  0  0
 74 79  1  0  0  0
 75 86  1  0  0  0
 76148  1  0  0  0
 76149  1  0  0  0
 76150  1  0  0  0
 76 83  1  0  0  0
 77 83  1  0  0  0
 77151  1  0  0  0
 77152  1  0  0  0
 77153  1  0  0  0
 78 80  1  0  0  0
 78154  1  0  0  0
 78155  1  0  0  0
 79 85  1  0  0  0
 79156  1  0  0  0
 79157  1  0  0  0
 80 83  1  0  0  0
 80158  1  0  0  0
 80159  1  0  0  0
 81 82  1  0  0  0
 81160  1  0  0  0
 81161  1  0  0  0
 82 86  1  0  0  0
 82162  1  0  0  0
 82163  1  0  0  0
 83164  1  0  0  0
 85165  1  0  0  0
M  ISO  4   1 100  68 101  81 101  85 100
M  END
> <chiral flag>
0

> <version>
0

> <s_m_source_file>
/data/baiqing/PycharmProjects/Reinvent-master-3.2/result/LINK_invent/BTK/process_docking_weight1_custom_sum_contain_oxygen_bond_distance_aromatic_linkinvent_7_9_3/rearranged_h_0106.sdf

> <i_m_source_file_index>
45

> <r_mmod_Potential_Energy-OPLS-2005>
725.157104492188

> <r_mmod_Stretch_Energy-OPLS-2005>
377.90283203125

> <r_mmod_Bend_Energy-OPLS-2005>
397.643280029297

> <r_mmod_Torsional_Energy-OPLS-2005>
311.382781982422

> <r_mmod_Improper_Torsional_Energy-OPLS-2005>
4.08691501617432

> <r_mmod_Van_der_Waal_Energy-OPLS-2005>
135.712890625

> <r_mmod_Electrostatic_Energy-OPLS-2005>
-518.951965332031

> <r_mmod_Solvation_Energy-OPLS-2005>
-224.748062133789

> <b_mmod_Minimization_Converged-OPLS-2005>
0

> <r_mmod_RMS_Derivative-OPLS-2005>
8.47907829284668

$$$$
45
                    3D
 Structure written by MMmdl.
166173  0  0  1  0            999 V2000
  -30.6737  -14.5060   20.6123 C   0  0  0  0  0  0
  -30.4386  -12.3413   19.4237 C   0  0  0  0  0  0
  -29.5043  -12.5325   18.2109 C   0  0  0  0  0  0
  -28.0253  -12.3715   18.6193 C   0  0  0  0  0  0
  -27.6651  -13.2013   19.8807 C   0  0  2  0  0  0
  -28.7074  -12.9738   21.0004 C   0  0  0  0  0  0
  -25.2609  -13.8119   20.5705 C   0  0  0  0  0  0
  -24.1860  -13.0420   20.9191 C   0  0  0  0  0  0
  -24.6408  -11.6882   20.8763 C   0  0  0  0  0  0
  -23.9074  -10.4284   21.0418 C   0  0  0  0  0  0
  -24.3630   -9.4198   21.9203 C   0  0  0  0  0  0
  -23.6297   -8.2242   22.0763 C   0  0  0  0  0  0
  -22.4275   -8.0295   21.3560 C   0  0  0  0  0  0
  -21.9914   -9.0261   20.4655 C   0  0  0  0  0  0
  -22.7245  -10.2140   20.3058 C   0  0  0  0  0  0
  -21.6849   -6.0749   22.5286 C   0  0  0  0  0  0
  -21.4015   -6.5637   23.8225 C   0  0  0  0  0  0
  -21.3673   -5.6795   24.9182 C   0  0  0  0  0  0
  -21.6042   -4.3049   24.7222 C   0  0  0  0  0  0
  -21.8814   -3.8145   23.4336 C   0  0  0  0  0  0
  -21.9192   -4.6980   22.3395 C   0  0  0  0  0  0
  -22.7881  -13.5234   21.1848 C   0  0  0  0  0  0
  -22.1652   -4.2166   21.0981 F   0  0  0  0  0  0
  -21.5633   -3.4527   25.7731 F   0  0  0  0  0  0
  -30.0341  -13.3113   20.4548 N   0  0  0  0  0  0
  -26.3057  -12.9290   20.3389 N   0  0  0  0  0  0
  -25.9336  -11.6450   20.5784 N   0  0  0  0  0  0
  -22.0497  -12.8254   22.0401 N   0  0  0  0  0  0
  -25.4297  -15.1843   20.4097 N   0  0  0  0  0  0
  -31.7857  -14.7377   20.1270 O   0  0  0  0  0  0
  -21.6634   -6.8901   21.4249 O   0  0  0  0  0  0
  -22.3585  -14.5554   20.6701 O   0  0  0  0  0  0
  -24.6166  -31.8659   23.2085 C   0  0  0  0  0  0
  -25.9054  -32.4807   23.8377 C   0  0  1  0  0  0
  -27.2221  -27.3875   20.1110 C   0  0  0  0  0  0
  -25.5924  -33.8611   24.2312 N   0  0  0  0  0  0
  -23.4057  -30.4876   21.5525 C   0  0  2  0  0  0
  -24.8500  -28.9490   20.1162 C   0  0  0  0  0  0
  -22.7418  -29.4643   22.5020 C   0  0  0  0  0  0
  -18.0276  -28.1390   22.8507 C   0  0  0  0  0  0
  -24.1491  -36.7285   23.2646 C   0  0  0  0  0  0
  -25.9393  -30.8145   21.3703 C   0  0  0  0  0  0
  -26.0137  -29.4485   20.7132 C   0  0  0  0  0  0
  -27.2054  -28.6783   20.6979 C   0  0  0  0  0  0
  -26.0361  -26.9097   19.5111 C   0  0  0  0  0  0
  -24.8589  -27.6819   19.5096 C   0  0  0  0  0  0
  -23.6136  -29.8213   20.1667 C   0  0  0  0  0  0
  -25.4119  -36.3100   24.0344 C   0  0  1  0  0  0
  -20.5865  -28.3669   23.1333 C   0  0  2  0  0  0
  -20.6779  -26.9407   22.5439 C   0  0  0  0  0  0
  -19.5750  -26.6400   21.5236 C   0  0  0  0  0  0
  -18.1922  -26.7943   22.1631 C   0  0  0  0  0  0
  -19.1526  -28.8849   23.2913 C   0  0  0  0  0  0
  -18.9457  -30.1469   23.8899 C   0  0  0  0  0  0
  -17.6453  -30.6600   24.0568 C   0  0  0  0  0  0
  -25.9051  -34.9467   23.5123 C   0  0  0  0  0  0
  -16.5344  -29.9097   23.6351 C   0  0  0  0  0  0
  -16.7260  -28.6521   23.0357 C   0  0  0  0  0  0
  -26.4483  -31.6600   25.0716 C   0  0  0  0  0  0
  -25.3733  -31.3690   26.1447 C   0  0  0  0  0  0
  -27.0348  -30.3046   24.6133 C   0  0  0  0  0  0
  -27.6076  -32.4322   25.7448 C   0  0  0  0  0  0
  -27.5585  -37.1797   24.8475 C   0  0  0  0  0  0
  -21.4152  -29.3016   22.3720 N   0  0  0  0  0  0
  -26.4301  -37.3793   23.9416 N   0  0  0  0  0  0
  -24.6721  -31.0720   22.1004 N   0  0  0  0  0  0
  -23.4158  -28.8201   23.3095 O   0  0  0  0  0  0
  -28.3833  -26.6312   20.0811 O   0  0  0  0  0  0
  -26.5612  -34.8912   22.4674 O   0  0  0  0  0  0
  -23.5353  -32.1446   23.7453 O   0  0  0  0  0  0
  -29.2504  -19.3383   21.2674 C   0  0  0  0  0  0
  -28.0192  -23.9492   18.3472 C   0  0  0  0  0  0
  -30.3248  -18.0718   19.2944 C   0  0  0  0  0  0
  -28.1089  -17.3868   20.2562 C   0  0  0  0  0  0
  -30.6746  -23.1970   21.2098 C   0  0  0  0  0  0
  -30.2649  -16.8879   21.5229 C   0  0  0  0  0  0
  -28.6675  -21.7742   20.6646 C   0  0  0  0  0  0
  -28.3184  -25.2474   20.5268 C   0  0  0  0  0  0
  -28.9710  -24.2266   19.5321 C   0  0  2  0  0  0
  -29.5122  -17.9319   20.6044 C   0  0  0  0  0  0
  -29.6191  -22.8999   20.1291 C   0  0  1  0  0  0
  -29.2329  -20.4199   20.4615 N   0  0  0  0  0  0
  -29.9523  -15.4585   21.2459 N   0  0  0  0  0  0
  -28.9643  -19.4241   22.4622 O   0  0  0  0  0  0
  -30.3652  -22.3270   19.0594 O   0  0  0  0  0  0
  -31.4819  -12.4690   19.1227 H   0  0  0  0  0  0
  -30.3619  -11.3237   19.8106 H   0  0  0  0  0  0
  -29.7557  -11.8237   17.4215 H   0  0  0  0  0  0
  -29.6619  -13.5263   17.7890 H   0  0  0  0  0  0
  -27.8447  -11.3124   18.8068 H   0  0  0  0  0  0
  -27.3763  -12.6550   17.7894 H   0  0  0  0  0  0
  -27.7095  -14.2514   19.5942 H   0  0  0  0  0  0
  -28.6991  -11.9293   21.3165 H   0  0  0  0  0  0
  -28.4573  -13.5419   21.8977 H   0  0  0  0  0  0
  -25.2777   -9.5664   22.4772 H   0  0  0  0  0  0
  -24.0011   -7.4617   22.7449 H   0  0  0  0  0  0
  -21.0857   -8.8776   19.8937 H   0  0  0  0  0  0
  -22.3717  -10.9691   19.6159 H   0  0  0  0  0  0
  -21.2013   -7.6148   23.9736 H   0  0  0  0  0  0
  -21.1500   -6.0519   25.9104 H   0  0  0  0  0  0
  -22.0588   -2.7604   23.2820 H   0  0  0  0  0  0
  -22.4080  -11.9922   22.4838 H   0  0  0  0  0  0
  -21.1113  -13.1298   22.2575 H   0  0  0  0  0  0
  -24.6604  -15.8331   20.5327 H   0  0  0  0  0  0
  -26.2796  -15.6295   20.0895 H   0  0  0  0  0  0
  -26.7108  -32.5486   23.1117 H   0  0  0  0  0  0
  -25.0082  -33.9787   25.0458 H   0  0  0  0  0  0
  -22.6965  -31.3069   21.4156 H   0  0  0  0  0  0
  -23.3769  -35.9607   23.3324 H   0  0  0  0  0  0
  -24.3586  -36.8874   22.2062 H   0  0  0  0  0  0
  -23.7224  -37.6484   23.6640 H   0  0  0  0  0  0
  -26.0658  -31.5841   20.6068 H   0  0  0  0  0  0
  -26.8186  -30.8552   22.0009 H   0  0  0  0  0  0
  -28.1059  -29.0619   21.1562 H   0  0  0  0  0  0
  -26.0143  -25.9378   19.0401 H   0  0  0  0  0  0
  -23.9623  -27.2963   19.0454 H   0  0  0  0  0  0
  -23.7240  -30.5975   19.4086 H   0  0  0  0  0  0
  -22.7329  -29.2503   19.8687 H   0  0  0  0  0  0
  -25.1299  -36.1976   25.0846 H   0  0  0  0  0  0
  -20.9957  -28.3245   24.1452 H   0  0  0  0  0  0
  -20.5747  -26.2257   23.3618 H   0  0  0  0  0  0
  -21.6641  -26.7515   22.1174 H   0  0  0  0  0  0
  -19.6925  -25.6324   21.1246 H   0  0  0  0  0  0
  -19.6696  -27.3224   20.6771 H   0  0  0  0  0  0
  -17.4212  -26.6716   21.4018 H   0  0  0  0  0  0
  -18.0310  -26.0084   22.9013 H   0  0  0  0  0  0
  -19.7925  -30.7311   24.2242 H   0  0  0  0  0  0
  -17.4998  -31.6275   24.5167 H   0  0  0  0  0  0
  -15.5340  -30.2972   23.7713 H   0  0  0  0  0  0
  -15.8659  -28.0843   22.7057 H   0  0  0  0  0  0
  -24.5913  -30.7052   25.7732 H   0  0  0  0  0  0
  -24.8908  -32.2837   26.4918 H   0  0  0  0  0  0
  -25.8069  -30.8815   27.0190 H   0  0  0  0  0  0
  -26.2911  -29.6753   24.1234 H   0  0  0  0  0  0
  -27.4162  -29.7355   25.4625 H   0  0  0  0  0  0
  -27.8722  -30.4370   23.9271 H   0  0  0  0  0  0
  -27.2743  -33.3639   26.2029 H   0  0  0  0  0  0
  -28.3857  -32.6856   25.0230 H   0  0  0  0  0  0
  -28.0769  -31.8434   26.5340 H   0  0  0  0  0  0
  -28.2623  -38.0074   24.7528 H   0  0  0  0  0  0
  -28.1066  -36.2618   24.6310 H   0  0  0  0  0  0
  -27.2302  -37.1441   25.8874 H   0  0  0  0  0  0
  -20.9336  -29.8654   21.6858 H   0  0  0  0  0  0
  -26.0197  -38.2875   24.1407 H   0  0  0  0  0  0
  -28.4963  -23.3397   17.5793 H   0  0  0  0  0  0
  -27.7147  -24.8760   17.8615 H   0  0  0  0  0  0
  -27.1135  -23.4324   18.6634 H   0  0  0  0  0  0
  -29.8447  -18.7244   18.5647 H   0  0  0  0  0  0
  -30.4528  -17.1034   18.8093 H   0  0  0  0  0  0
  -31.3233  -18.4664   19.4881 H   0  0  0  0  0  0
  -27.4815  -18.1485   19.7906 H   0  0  0  0  0  0
  -27.5921  -17.0400   21.1521 H   0  0  0  0  0  0
  -28.1655  -16.5554   19.5532 H   0  0  0  0  0  0
  -30.2102  -23.5381   22.1370 H   0  0  0  0  0  0
  -31.3839  -23.9634   20.8994 H   0  0  0  0  0  0
  -31.2425  -22.3001   21.4662 H   0  0  0  0  0  0
  -31.3427  -17.0522   21.4760 H   0  0  0  0  0  0
  -30.0076  -17.0569   22.5699 H   0  0  0  0  0  0
  -27.7302  -21.7948   20.1097 H   0  0  0  0  0  0
  -28.3926  -21.9484   21.7065 H   0  0  0  0  0  0
  -28.8598  -25.2292   21.4689 H   0  0  0  0  0  0
  -27.3054  -24.9281   20.7739 H   0  0  0  0  0  0
  -29.8110  -24.7706   19.0978 H   0  0  0  0  0  0
  -29.5915  -20.2874   19.5258 H   0  0  0  0  0  0
  -29.0452  -15.1492   21.5616 H   0  0  0  0  0  0
  -31.0962  -22.9034   18.8663 H   0  0  0  0  0  0
  1 25  1  0  0  0
  1 30  2  0  0  0
  1 83  1  0  0  0
  2  3  1  0  0  0
  2 25  1  0  0  0
  2 86  1  0  0  0
  2 87  1  0  0  0
  3  4  1  0  0  0
  3 88  1  0  0  0
  3 89  1  0  0  0
  4  5  1  0  0  0
  4 90  1  0  0  0
  4 91  1  0  0  0
  5  6  1  0  0  0
  5 26  1  0  0  0
  5 92  1  0  0  0
  6 25  1  0  0  0
  6 93  1  0  0  0
  6 94  1  0  0  0
  7  8  2  0  0  0
  7 26  1  0  0  0
  7 29  1  0  0  0
  8  9  1  0  0  0
  8 22  1  0  0  0
  9 10  1  0  0  0
  9 27  2  0  0  0
 10 11  2  0  0  0
 10 15  1  0  0  0
 11 12  1  0  0  0
 11 95  1  0  0  0
 12 13  2  0  0  0
 12 96  1  0  0  0
 13 14  1  0  0  0
 13 31  1  0  0  0
 14 15  2  0  0  0
 14 97  1  0  0  0
 15 98  1  0  0  0
 16 17  2  0  0  0
 16 21  1  0  0  0
 16 31  1  0  0  0
 17 18  1  0  0  0
 17 99  1  0  0  0
 18 19  2  0  0  0
 18100  1  0  0  0
 19 20  1  0  0  0
 19 24  1  0  0  0
 20 21  2  0  0  0
 20101  1  0  0  0
 21 23  1  0  0  0
 22 28  1  0  0  0
 22 32  2  0  0  0
 26 27  1  0  0  0
 28102  1  0  0  0
 28103  1  0  0  0
 29104  1  0  0  0
 29105  1  0  0  0
 33 34  1  0  0  0
 33 66  1  0  0  0
 33 70  2  0  0  0
 34 36  1  0  0  0
 34 59  1  0  0  0
 34106  1  0  0  0
 35 44  2  0  0  0
 35 45  1  0  0  0
 35 68  1  0  0  0
 36 56  1  0  0  0
 36107  1  0  0  0
 37 39  1  0  0  0
 37 47  1  0  0  0
 37 66  1  0  0  0
 37108  1  0  0  0
 38 43  2  0  0  0
 38 46  1  0  0  0
 38 47  1  0  0  0
 39 64  1  0  0  0
 39 67  2  0  0  0
 40 52  1  0  0  0
 40 53  2  0  0  0
 40 58  1  0  0  0
 41109  1  0  0  0
 41110  1  0  0  0
 41111  1  0  0  0
 41 48  1  0  0  0
 42 43  1  0  0  0
 42 66  1  0  0  0
 42112  1  0  0  0
 42113  1  0  0  0
 43 44  1  0  0  0
 44114  1  0  0  0
 45 46  2  0  0  0
 45115  1  0  0  0
 46116  1  0  0  0
 47117  1  0  0  0
 47118  1  0  0  0
 48 56  1  0  0  0
 48 65  1  0  0  0
 48119  1  0  0  0
 49 50  1  0  0  0
 49 53  1  0  0  0
 49 64  1  0  0  0
 49120  1  0  0  0
 50 51  1  0  0  0
 50121  1  0  0  0
 50122  1  0  0  0
 51 52  1  0  0  0
 51123  1  0  0  0
 51124  1  0  0  0
 52125  1  0  0  0
 52126  1  0  0  0
 53 54  1  0  0  0
 54 55  2  0  0  0
 54127  1  0  0  0
 55 57  1  0  0  0
 55128  1  0  0  0
 56 69  2  0  0  0
 57 58  2  0  0  0
 57129  1  0  0  0
 58130  1  0  0  0
 59 60  1  0  0  0
 59 61  1  0  0  0
 59 62  1  0  0  0
 60131  1  0  0  0
 60132  1  0  0  0
 60133  1  0  0  0
 61134  1  0  0  0
 61135  1  0  0  0
 61136  1  0  0  0
 62137  1  0  0  0
 62138  1  0  0  0
 62139  1  0  0  0
 63 65  1  0  0  0
 63140  1  0  0  0
 63141  1  0  0  0
 63142  1  0  0  0
 64143  1  0  0  0
 65144  1  0  0  0
 68 78  1  0  0  0
 71 80  1  0  0  0
 71 82  1  0  0  0
 71 84  2  0  0  0
 72145  1  0  0  0
 72146  1  0  0  0
 72147  1  0  0  0
 72 79  1  0  0  0
 73148  1  0  0  0
 73149  1  0  0  0
 73150  1  0  0  0
 73 80  1  0  0  0
 74 80  1  0  0  0
 74151  1  0  0  0
 74152  1  0  0  0
 74153  1  0  0  0
 75154  1  0  0  0
 75155  1  0  0  0
 75156  1  0  0  0
 75 81  1  0  0  0
 76 80  1  0  0  0
 76 83  1  0  0  0
 76157  1  0  0  0
 76158  1  0  0  0
 77 81  1  0  0  0
 77 82  1  0  0  0
 77159  1  0  0  0
 77160  1  0  0  0
 78 79  1  0  0  0
 78161  1  0  0  0
 78162  1  0  0  0
 79 81  1  0  0  0
 79163  1  0  0  0
 81 85  1  0  0  0
 82164  1  0  0  0
 83165  1  0  0  0
 85166  1  0  0  0
M  ISO  4   1 100  68 101  78 101  83 100
M  END
> <chiral flag>
0

> <version>
0

> <s_m_source_file>
/data/baiqing/PycharmProjects/Reinvent-master-3.2/result/LINK_invent/BTK/process_docking_weight1_custom_sum_contain_oxygen_bond_distance_aromatic_linkinvent_7_9_3/rearranged_h_0106.sdf

> <i_m_source_file_index>
46

> <r_mmod_Potential_Energy-OPLS-2005>
-145.911209106445

> <r_mmod_Stretch_Energy-OPLS-2005>
55.625358581543

> <r_mmod_Bend_Energy-OPLS-2005>
127.539352416992

> <r_mmod_Torsional_Energy-OPLS-2005>
284.666961669922

> <r_mmod_Improper_Torsional_Energy-OPLS-2005>
3.65412306785583

> <r_mmod_Van_der_Waal_Energy-OPLS-2005>
140.060028076172

> <r_mmod_Electrostatic_Energy-OPLS-2005>
-554.311950683594

> <r_mmod_Solvation_Energy-OPLS-2005>
-220.837936401367

> <b_mmod_Minimization_Converged-OPLS-2005>
0

> <r_mmod_RMS_Derivative-OPLS-2005>
3.47919797897339

$$$$
46
                    3D
 Structure written by MMmdl.
159167  0  0  1  0            999 V2000
  -30.5459  -14.9699   20.4150 C   0  0  0  0  0  0
  -30.4388  -12.5992   19.5014 C   0  0  0  0  0  0
  -29.5249  -12.5410   18.2546 C   0  0  0  0  0  0
  -28.0541  -12.3317   18.6670 C   0  0  0  0  0  0
  -27.6300  -13.2589   19.8370 C   0  0  2  0  0  0
  -28.6766  -13.2898   20.9728 C   0  0  0  0  0  0
  -25.2475  -13.8234   20.5745 C   0  0  0  0  0  0
  -24.1783  -13.0444   20.9251 C   0  0  0  0  0  0
  -24.6403  -11.6944   20.8766 C   0  0  0  0  0  0
  -23.9077  -10.4298   21.0394 C   0  0  0  0  0  0
  -24.3624   -9.4229   21.9184 C   0  0  0  0  0  0
  -23.6297   -8.2254   22.0759 C   0  0  0  0  0  0
  -22.4279   -8.0284   21.3542 C   0  0  0  0  0  0
  -21.9913   -9.0259   20.4645 C   0  0  0  0  0  0
  -22.7242  -10.2140   20.3050 C   0  0  0  0  0  0
  -21.6853   -6.0737   22.5270 C   0  0  0  0  0  0
  -21.4013   -6.5637   23.8212 C   0  0  0  0  0  0
  -21.3666   -5.6787   24.9171 C   0  0  0  0  0  0
  -21.6052   -4.3049   24.7220 C   0  0  0  0  0  0
  -21.8818   -3.8145   23.4335 C   0  0  0  0  0  0
  -21.9188   -4.6960   22.3398 C   0  0  0  0  0  0
  -22.7804  -13.5245   21.1856 C   0  0  0  0  0  0
  -22.1651   -4.2155   21.0973 F   0  0  0  0  0  0
  -21.5631   -3.4537   25.7725 F   0  0  0  0  0  0
  -29.9500  -13.7062   20.3731 N   0  0  0  0  0  0
  -26.2904  -12.9479   20.3255 N   0  0  0  0  0  0
  -25.9351  -11.6605   20.5736 N   0  0  0  0  0  0
  -22.0427  -12.8251   22.0404 N   0  0  0  0  0  0
  -25.4127  -15.1950   20.4134 N   0  0  0  0  0  0
  -31.7502  -15.0287   20.1450 O   0  0  0  0  0  0
  -21.6645   -6.8875   21.4234 O   0  0  0  0  0  0
  -22.3494  -14.5537   20.6670 O   0  0  0  0  0  0
  -24.6512  -31.8398   23.1897 C   0  0  0  0  0  0
  -25.9287  -32.4666   23.8278 C   0  0  1  0  0  0
  -27.2135  -27.1046   20.1483 C   0  0  0  0  0  0
  -25.6049  -33.8485   24.2200 N   0  0  0  0  0  0
  -23.4529  -30.4626   21.5353 C   0  0  2  0  0  0
  -24.8993  -28.8839   20.1055 C   0  0  0  0  0  0
  -22.7582  -29.4559   22.4864 C   0  0  0  0  0  0
  -18.0313  -28.1389   22.8443 C   0  0  0  0  0  0
  -24.1490  -36.7237   23.2638 C   0  0  0  0  0  0
  -26.0126  -30.6986   21.3959 C   0  0  0  0  0  0
  -26.0779  -29.3101   20.7321 C   0  0  0  0  0  0
  -27.2328  -28.4364   20.7375 C   0  0  0  0  0  0
  -26.0138  -26.7893   19.4728 C   0  0  0  0  0  0
  -24.8844  -27.6391   19.4577 C   0  0  0  0  0  0
  -23.6792  -29.7949   20.1512 C   0  0  0  0  0  0
  -25.4133  -36.3026   24.0309 C   0  0  1  0  0  0
  -20.5927  -28.3743   23.1214 C   0  0  2  0  0  0
  -20.6836  -26.9467   22.5340 C   0  0  0  0  0  0
  -19.5786  -26.6422   21.5158 C   0  0  0  0  0  0
  -18.1986  -26.7902   22.1636 C   0  0  0  0  0  0
  -19.1562  -28.8875   23.2818 C   0  0  0  0  0  0
  -18.9479  -30.1445   23.8876 C   0  0  0  0  0  0
  -17.6472  -30.6546   24.0587 C   0  0  0  0  0  0
  -25.9099  -34.9396   23.5047 C   0  0  0  0  0  0
  -16.5360  -29.9061   23.6330 C   0  0  0  0  0  0
  -16.7291  -28.6494   23.0325 C   0  0  0  0  0  0
  -26.4572  -31.6563   25.0750 C   0  0  0  0  0  0
  -25.3743  -31.3767   26.1439 C   0  0  0  0  0  0
  -27.0476  -30.2957   24.6403 C   0  0  0  0  0  0
  -27.6084  -32.4367   25.7544 C   0  0  0  0  0  0
  -27.5572  -37.1793   24.8469 C   0  0  0  0  0  0
  -21.4264  -29.3116   22.3629 N   0  0  0  0  0  0
  -26.4276  -37.3760   23.9423 N   0  0  0  0  0  0
  -24.7251  -31.0231   22.0938 N   0  0  0  0  0  0
  -23.4203  -28.8053   23.2991 O   0  0  0  0  0  0
  -28.2616  -26.1054   20.2191 O   0  0  0  0  0  0
  -26.5631  -34.8899   22.4597 O   0  0  0  0  0  0
  -23.5624  -32.1298   23.7093 O   0  0  0  0  0  0
  -28.9924  -19.4607   18.5311 C   0  0  0  0  0  0
  -29.3283  -20.9782   18.8551 C   0  0  0  0  0  0
  -29.4915  -20.4693   21.2452 C   0  0  0  0  0  0
  -29.9656  -18.2599   18.9181 C   0  0  0  0  0  0
  -29.1834  -18.8340   21.2512 C   0  0  0  0  0  0
  -28.8380  -21.5803   20.2212 C   0  0  1  0  0  0
  -30.0286  -17.7244   20.3930 C   0  0  1  0  0  0
  -29.7120  -23.5831   21.7574 C   0  0  0  0  0  0
  -28.0025  -24.5601   20.0651 C   0  0  0  0  0  0
  -29.0853  -23.2815   20.3875 C   0  0  2  0  0  0
  -29.7646  -16.1577   20.5513 N   0  0  0  0  0  0
  -31.4782  -12.7399   19.2022 H   0  0  0  0  0  0
  -30.4145  -11.6479   20.0361 H   0  0  0  0  0  0
  -29.8449  -11.7409   17.5855 H   0  0  0  0  0  0
  -29.6183  -13.4694   17.6875 H   0  0  0  0  0  0
  -27.9407  -11.2891   18.9653 H   0  0  0  0  0  0
  -27.3963  -12.4742   17.8085 H   0  0  0  0  0  0
  -27.5893  -14.2625   19.4115 H   0  0  0  0  0  0
  -28.7726  -12.3139   21.4505 H   0  0  0  0  0  0
  -28.3785  -13.9883   21.7563 H   0  0  0  0  0  0
  -25.2765   -9.5726   22.4770 H   0  0  0  0  0  0
  -24.0009   -7.4667   22.7503 H   0  0  0  0  0  0
  -21.0837   -8.8774   19.8973 H   0  0  0  0  0  0
  -22.3686  -10.9673   19.6163 H   0  0  0  0  0  0
  -21.2001   -7.6145   23.9712 H   0  0  0  0  0  0
  -21.1498   -6.0521   25.9075 H   0  0  0  0  0  0
  -22.0600   -2.7609   23.2833 H   0  0  0  0  0  0
  -22.4030  -11.9949   22.4851 H   0  0  0  0  0  0
  -21.1038  -13.1322   22.2542 H   0  0  0  0  0  0
  -24.6408  -15.8444   20.5217 H   0  0  0  0  0  0
  -26.2425  -15.6255   20.0263 H   0  0  0  0  0  0
  -26.7352  -32.5207   23.0990 H   0  0  0  0  0  0
  -25.0320  -33.9606   25.0431 H   0  0  0  0  0  0
  -22.7609  -31.2939   21.3828 H   0  0  0  0  0  0
  -23.3773  -35.9545   23.3276 H   0  0  0  0  0  0
  -24.3572  -36.8894   22.2058 H   0  0  0  0  0  0
  -23.7214  -37.6414   23.6676 H   0  0  0  0  0  0
  -26.1902  -31.4526   20.6277 H   0  0  0  0  0  0
  -26.8755  -30.7318   22.0507 H   0  0  0  0  0  0
  -28.1287  -28.7557   21.2503 H   0  0  0  0  0  0
  -25.9168  -25.8463   18.9579 H   0  0  0  0  0  0
  -23.9899  -27.3139   18.9439 H   0  0  0  0  0  0
  -23.8268  -30.5729   19.4021 H   0  0  0  0  0  0
  -22.7862  -29.2530   19.8332 H   0  0  0  0  0  0
  -25.1321  -36.1840   25.0796 H   0  0  0  0  0  0
  -20.9979  -28.3290   24.1345 H   0  0  0  0  0  0
  -20.5842  -26.2341   23.3547 H   0  0  0  0  0  0
  -21.6698  -26.7584   22.1074 H   0  0  0  0  0  0
  -19.6978  -25.6341   21.1189 H   0  0  0  0  0  0
  -19.6700  -27.3264   20.6708 H   0  0  0  0  0  0
  -17.4222  -26.6503   21.4100 H   0  0  0  0  0  0
  -18.0537  -26.0085   22.9109 H   0  0  0  0  0  0
  -19.7958  -30.7231   24.2282 H   0  0  0  0  0  0
  -17.5027  -31.6193   24.5266 H   0  0  0  0  0  0
  -15.5354  -30.2946   23.7700 H   0  0  0  0  0  0
  -15.8685  -28.0798   22.7080 H   0  0  0  0  0  0
  -24.5903  -30.7140   25.7749 H   0  0  0  0  0  0
  -24.8962  -32.2953   26.4840 H   0  0  0  0  0  0
  -25.8015  -30.8937   27.0238 H   0  0  0  0  0  0
  -26.3118  -29.6648   24.1396 H   0  0  0  0  0  0
  -27.4046  -29.7307   25.5027 H   0  0  0  0  0  0
  -27.9042  -30.4204   23.9781 H   0  0  0  0  0  0
  -27.2642  -33.3681   26.2059 H   0  0  0  0  0  0
  -28.3908  -32.6932   25.0386 H   0  0  0  0  0  0
  -28.0732  -31.8553   26.5514 H   0  0  0  0  0  0
  -28.2598  -38.0088   24.7550 H   0  0  0  0  0  0
  -28.1064  -36.2634   24.6254 H   0  0  0  0  0  0
  -27.2299  -37.1393   25.8871 H   0  0  0  0  0  0
  -20.9467  -29.8942   21.6907 H   0  0  0  0  0  0
  -26.0132  -38.2826   24.1423 H   0  0  0  0  0  0
  -28.9610  -19.4209   17.4425 H   0  0  0  0  0  0
  -27.9659  -19.2345   18.8208 H   0  0  0  0  0  0
  -28.8913  -21.5831   18.0591 H   0  0  0  0  0  0
  -30.4063  -21.1185   18.7558 H   0  0  0  0  0  0
  -30.5741  -20.5888   21.2171 H   0  0  0  0  0  0
  -29.2138  -20.8032   22.2453 H   0  0  0  0  0  0
  -30.9737  -18.5364   18.6108 H   0  0  0  0  0  0
  -29.7151  -17.4167   18.2724 H   0  0  0  0  0  0
  -28.1226  -18.6937   21.0489 H   0  0  0  0  0  0
  -29.2814  -18.5178   22.2911 H   0  0  0  0  0  0
  -27.7594  -21.4411   20.2748 H   0  0  0  0  0  0
  -31.0676  -17.8331   20.7117 H   0  0  0  0  0  0
  -30.6113  -22.9943   21.9373 H   0  0  0  0  0  0
  -29.0109  -23.3921   22.5697 H   0  0  0  0  0  0
  -30.0154  -24.6298   21.8136 H   0  0  0  0  0  0
  -27.1034  -24.3479   20.6457 H   0  0  0  0  0  0
  -27.6954  -24.4268   19.0267 H   0  0  0  0  0  0
  -29.8927  -23.4827   19.6818 H   0  0  0  0  0  0
  -28.7966  -15.9449   20.7421 H   0  0  0  0  0  0
  1 25  1  0  0  0
  1 30  2  0  0  0
  1 81  1  0  0  0
  2  3  1  0  0  0
  2 25  1  0  0  0
  2 82  1  0  0  0
  2 83  1  0  0  0
  3  4  1  0  0  0
  3 84  1  0  0  0
  3 85  1  0  0  0
  4  5  1  0  0  0
  4 86  1  0  0  0
  4 87  1  0  0  0
  5  6  1  0  0  0
  5 26  1  0  0  0
  5 88  1  0  0  0
  6 25  1  0  0  0
  6 89  1  0  0  0
  6 90  1  0  0  0
  7  8  2  0  0  0
  7 26  1  0  0  0
  7 29  1  0  0  0
  8  9  1  0  0  0
  8 22  1  0  0  0
  9 10  1  0  0  0
  9 27  2  0  0  0
 10 11  2  0  0  0
 10 15  1  0  0  0
 11 12  1  0  0  0
 11 91  1  0  0  0
 12 13  2  0  0  0
 12 92  1  0  0  0
 13 14  1  0  0  0
 13 31  1  0  0  0
 14 15  2  0  0  0
 14 93  1  0  0  0
 15 94  1  0  0  0
 16 17  2  0  0  0
 16 21  1  0  0  0
 16 31  1  0  0  0
 17 18  1  0  0  0
 17 95  1  0  0  0
 18 19  2  0  0  0
 18 96  1  0  0  0
 19 20  1  0  0  0
 19 24  1  0  0  0
 20 21  2  0  0  0
 20 97  1  0  0  0
 21 23  1  0  0  0
 22 28  1  0  0  0
 22 32  2  0  0  0
 26 27  1  0  0  0
 28 98  1  0  0  0
 28 99  1  0  0  0
 29100  1  0  0  0
 29101  1  0  0  0
 33 34  1  0  0  0
 33 66  1  0  0  0
 33 70  2  0  0  0
 34 36  1  0  0  0
 34 59  1  0  0  0
 34102  1  0  0  0
 35 44  2  0  0  0
 35 45  1  0  0  0
 35 68  1  0  0  0
 36 56  1  0  0  0
 36103  1  0  0  0
 37 39  1  0  0  0
 37 47  1  0  0  0
 37 66  1  0  0  0
 37104  1  0  0  0
 38 43  2  0  0  0
 38 46  1  0  0  0
 38 47  1  0  0  0
 39 64  1  0  0  0
 39 67  2  0  0  0
 40 52  1  0  0  0
 40 53  2  0  0  0
 40 58  1  0  0  0
 41105  1  0  0  0
 41106  1  0  0  0
 41107  1  0  0  0
 41 48  1  0  0  0
 42 43  1  0  0  0
 42 66  1  0  0  0
 42108  1  0  0  0
 42109  1  0  0  0
 43 44  1  0  0  0
 44110  1  0  0  0
 45 46  2  0  0  0
 45111  1  0  0  0
 46112  1  0  0  0
 47113  1  0  0  0
 47114  1  0  0  0
 48 56  1  0  0  0
 48 65  1  0  0  0
 48115  1  0  0  0
 49 50  1  0  0  0
 49 53  1  0  0  0
 49 64  1  0  0  0
 49116  1  0  0  0
 50 51  1  0  0  0
 50117  1  0  0  0
 50118  1  0  0  0
 51 52  1  0  0  0
 51119  1  0  0  0
 51120  1  0  0  0
 52121  1  0  0  0
 52122  1  0  0  0
 53 54  1  0  0  0
 54 55  2  0  0  0
 54123  1  0  0  0
 55 57  1  0  0  0
 55124  1  0  0  0
 56 69  2  0  0  0
 57 58  2  0  0  0
 57125  1  0  0  0
 58126  1  0  0  0
 59 60  1  0  0  0
 59 61  1  0  0  0
 59 62  1  0  0  0
 60127  1  0  0  0
 60128  1  0  0  0
 60129  1  0  0  0
 61130  1  0  0  0
 61131  1  0  0  0
 61132  1  0  0  0
 62133  1  0  0  0
 62134  1  0  0  0
 62135  1  0  0  0
 63 65  1  0  0  0
 63136  1  0  0  0
 63137  1  0  0  0
 63138  1  0  0  0
 64139  1  0  0  0
 65140  1  0  0  0
 68 79  1  0  0  0
 71 72  1  0  0  0
 71 74  1  0  0  0
 71141  1  0  0  0
 71142  1  0  0  0
 72143  1  0  0  0
 72144  1  0  0  0
 72 76  1  0  0  0
 73 75  1  0  0  0
 73 76  1  0  0  0
 73145  1  0  0  0
 73146  1  0  0  0
 74 77  1  0  0  0
 74147  1  0  0  0
 74148  1  0  0  0
 75 77  1  0  0  0
 75149  1  0  0  0
 75150  1  0  0  0
 76 80  1  0  0  0
 76151  1  0  0  0
 77 81  1  0  0  0
 77152  1  0  0  0
 78153  1  0  0  0
 78154  1  0  0  0
 78155  1  0  0  0
 78 80  1  0  0  0
 79 80  1  0  0  0
 79156  1  0  0  0
 79157  1  0  0  0
 80158  1  0  0  0
 81159  1  0  0  0
M  ISO  4   1 100  68 101  79 101  81 100
M  END
> <chiral flag>
0

> <version>
0

> <s_m_source_file>
/data/baiqing/PycharmProjects/Reinvent-master-3.2/result/LINK_invent/BTK/process_docking_weight1_custom_sum_contain_oxygen_bond_distance_aromatic_linkinvent_7_9_3/rearranged_h_0106.sdf

> <i_m_source_file_index>
47

> <r_mmod_Potential_Energy-OPLS-2005>
629.56201171875

> <r_mmod_Stretch_Energy-OPLS-2005>
292.484558105469

> <r_mmod_Bend_Energy-OPLS-2005>
300.738128662109

> <r_mmod_Torsional_Energy-OPLS-2005>
265.537658691406

> <r_mmod_Improper_Torsional_Energy-OPLS-2005>
4.51537370681763

> <r_mmod_Van_der_Waal_Energy-OPLS-2005>
115.78279876709

> <r_mmod_Electrostatic_Energy-OPLS-2005>
-364.472747802734

> <r_mmod_Solvation_Energy-OPLS-2005>
-198.097534179688

> <b_mmod_Minimization_Converged-OPLS-2005>
0

> <r_mmod_RMS_Derivative-OPLS-2005>
3.46901941299438

$$$$
47
                    3D
 Structure written by MMmdl.
168176  0  0  1  0            999 V2000
  -30.5691  -14.8365   20.4993 C   0  0  0  0  0  0
  -30.4330  -12.5183   19.5009 C   0  0  0  0  0  0
  -29.5218  -12.5407   18.2534 C   0  0  0  0  0  0
  -28.0416  -12.3568   18.6466 C   0  0  0  0  0  0
  -27.6369  -13.2379   19.8569 C   0  0  2  0  0  0
  -28.6804  -13.1911   20.9967 C   0  0  0  0  0  0
  -25.2476  -13.8146   20.5704 C   0  0  0  0  0  0
  -24.1810  -13.0419   20.9284 C   0  0  0  0  0  0
  -24.6396  -11.6893   20.8786 C   0  0  0  0  0  0
  -23.9064  -10.4283   21.0438 C   0  0  0  0  0  0
  -24.3615   -9.4189   21.9208 C   0  0  0  0  0  0
  -23.6290   -8.2228   22.0784 C   0  0  0  0  0  0
  -22.4273   -8.0278   21.3564 C   0  0  0  0  0  0
  -21.9909   -9.0247   20.4668 C   0  0  0  0  0  0
  -22.7249  -10.2115   20.3081 C   0  0  0  0  0  0
  -21.6829   -6.0743   22.5287 C   0  0  0  0  0  0
  -21.4002   -6.5646   23.8227 C   0  0  0  0  0  0
  -21.3667   -5.6808   24.9189 C   0  0  0  0  0  0
  -21.6039   -4.3066   24.7232 C   0  0  0  0  0  0
  -21.8811   -3.8161   23.4354 C   0  0  0  0  0  0
  -21.9175   -4.6977   22.3409 C   0  0  0  0  0  0
  -22.7829  -13.5203   21.1926 C   0  0  0  0  0  0
  -22.1642   -4.2166   21.0987 F   0  0  0  0  0  0
  -21.5611   -3.4551   25.7735 F   0  0  0  0  0  0
  -29.9693  -13.5880   20.4239 N   0  0  0  0  0  0
  -26.2909  -12.9375   20.3302 N   0  0  0  0  0  0
  -25.9326  -11.6520   20.5765 N   0  0  0  0  0  0
  -22.0449  -12.8221   22.0455 N   0  0  0  0  0  0
  -25.4147  -15.1858   20.3872 N   0  0  0  0  0  0
  -31.7476  -14.9477   20.1461 O   0  0  0  0  0  0
  -21.6622   -6.8892   21.4264 O   0  0  0  0  0  0
  -22.3551  -14.5512   20.6731 O   0  0  0  0  0  0
  -24.6362  -31.8522   23.1969 C   0  0  0  0  0  0
  -25.9178  -32.4735   23.8317 C   0  0  1  0  0  0
  -27.1916  -27.1868   20.1436 C   0  0  0  0  0  0
  -25.5991  -33.8538   24.2257 N   0  0  0  0  0  0
  -23.4360  -30.4741   21.5401 C   0  0  2  0  0  0
  -24.8863  -28.9259   20.0995 C   0  0  0  0  0  0
  -22.7550  -29.4583   22.4907 C   0  0  0  0  0  0
  -18.0307  -28.1394   22.8480 C   0  0  0  0  0  0
  -24.1502  -36.7265   23.2630 C   0  0  0  0  0  0
  -25.9898  -30.7378   21.3957 C   0  0  0  0  0  0
  -26.0605  -29.3578   20.7306 C   0  0  0  0  0  0
  -27.2169  -28.4983   20.7495 C   0  0  0  0  0  0
  -26.0200  -26.8855   19.4075 C   0  0  0  0  0  0
  -24.8762  -27.7019   19.4210 C   0  0  0  0  0  0
  -23.6541  -29.8113   20.1555 C   0  0  0  0  0  0
  -25.4133  -36.3069   24.0330 C   0  0  1  0  0  0
  -20.5919  -28.3720   23.1280 C   0  0  2  0  0  0
  -20.6764  -26.9416   22.5463 C   0  0  0  0  0  0
  -19.5763  -26.6326   21.5240 C   0  0  0  0  0  0
  -18.1930  -26.7920   22.1626 C   0  0  0  0  0  0
  -19.1567  -28.8871   23.2861 C   0  0  0  0  0  0
  -18.9489  -30.1464   23.8877 C   0  0  0  0  0  0
  -17.6482  -30.6605   24.0557 C   0  0  0  0  0  0
  -25.9081  -34.9433   23.5084 C   0  0  0  0  0  0
  -16.5383  -29.9080   23.6336 C   0  0  0  0  0  0
  -16.7286  -28.6489   23.0366 C   0  0  0  0  0  0
  -26.4541  -31.6547   25.0703 C   0  0  0  0  0  0
  -25.3733  -31.3686   26.1394 C   0  0  0  0  0  0
  -27.0376  -30.2948   24.6214 C   0  0  0  0  0  0
  -27.6131  -32.4275   25.7436 C   0  0  0  0  0  0
  -27.5599  -37.1803   24.8483 C   0  0  0  0  0  0
  -21.4253  -29.3029   22.3659 N   0  0  0  0  0  0
  -26.4318  -37.3760   23.9414 N   0  0  0  0  0  0
  -24.7055  -31.0404   22.0987 N   0  0  0  0  0  0
  -23.4237  -28.8150   23.3036 O   0  0  0  0  0  0
  -28.1689  -26.1486   20.3128 O   0  0  0  0  0  0
  -26.5629  -34.8924   22.4643 O   0  0  0  0  0  0
  -23.5497  -32.1401   23.7214 O   0  0  0  0  0  0
  -28.9053  -22.5229   19.5917 C   0  0  0  0  0  0
  -28.4795  -22.5474   21.9011 C   0  0  0  0  0  0
  -28.4629  -23.3139   20.6943 C   0  0  0  0  0  0
  -29.2126  -21.1034   19.6636 C   0  0  0  0  0  0
  -28.7372  -21.1250   22.0038 C   0  0  0  0  0  0
  -29.0546  -20.2998   20.8553 C   0  0  0  0  0  0
  -29.6625  -20.4484   18.3693 C   0  0  0  0  0  0
  -27.1011  -20.4475   23.8312 C   0  0  0  0  0  0
  -29.3836  -21.2973   24.4741 C   0  0  0  0  0  0
  -26.6075  -24.7984   21.7264 C   0  0  0  0  0  0
  -30.1250  -17.5039   20.8259 C   0  0  0  0  0  0
  -28.5791  -20.5270   23.4129 C   0  0  0  0  0  0
  -28.9244  -18.6506   20.8407 C   0  0  2  0  0  0
  -27.6308  -24.7199   20.5588 C   0  0  1  0  0  0
  -29.7913  -15.9710   20.7978 N   0  0  0  0  0  0
  -27.9006  -18.3014   19.8459 N   0  3  0  0  0  0
  -31.4763  -12.6498   19.2099 H   0  0  0  0  0  0
  -30.3790  -11.5453   19.9919 H   0  0  0  0  0  0
  -29.8201  -11.7664   17.5481 H   0  0  0  0  0  0
  -29.6484  -13.4943   17.7370 H   0  0  0  0  0  0
  -27.8911  -11.3042   18.8810 H   0  0  0  0  0  0
  -27.3966  -12.5733   17.7917 H   0  0  0  0  0  0
  -27.6264  -14.2598   19.4813 H   0  0  0  0  0  0
  -28.7438  -12.1931   21.4334 H   0  0  0  0  0  0
  -28.3991  -13.8582   21.8094 H   0  0  0  0  0  0
  -25.2747   -9.5634   22.4805 H   0  0  0  0  0  0
  -23.9986   -7.4598   22.7487 H   0  0  0  0  0  0
  -21.0847   -8.8757   19.8961 H   0  0  0  0  0  0
  -22.3715  -10.9655   19.6191 H   0  0  0  0  0  0
  -21.1996   -7.6150   23.9732 H   0  0  0  0  0  0
  -21.1509   -6.0540   25.9089 H   0  0  0  0  0  0
  -22.0590   -2.7628   23.2839 H   0  0  0  0  0  0
  -22.4033  -11.9875   22.4866 H   0  0  0  0  0  0
  -21.1070  -13.1271   22.2651 H   0  0  0  0  0  0
  -24.5472  -15.7070   20.3233 H   0  0  0  0  0  0
  -26.0522  -15.4373   19.6468 H   0  0  0  0  0  0
  -26.7213  -32.5354   23.1014 H   0  0  0  0  0  0
  -25.0163  -33.9670   25.0414 H   0  0  0  0  0  0
  -22.7331  -31.2967   21.3905 H   0  0  0  0  0  0
  -23.3797  -35.9562   23.3283 H   0  0  0  0  0  0
  -24.3603  -36.8874   22.2051 H   0  0  0  0  0  0
  -23.7226  -37.6452   23.6649 H   0  0  0  0  0  0
  -26.1514  -31.4969   20.6296 H   0  0  0  0  0  0
  -26.8611  -30.7831   22.0360 H   0  0  0  0  0  0
  -28.0918  -28.7998   21.3055 H   0  0  0  0  0  0
  -25.9295  -25.9655   18.8532 H   0  0  0  0  0  0
  -23.9872  -27.3788   18.8959 H   0  0  0  0  0  0
  -23.7622  -30.5839   19.3939 H   0  0  0  0  0  0
  -22.7748  -29.2347   19.8657 H   0  0  0  0  0  0
  -25.1314  -36.1924   25.0826 H   0  0  0  0  0  0
  -20.9978  -28.3352   24.1421 H   0  0  0  0  0  0
  -20.5616  -26.2372   23.3710 H   0  0  0  0  0  0
  -21.6631  -26.7369   22.1331 H   0  0  0  0  0  0
  -19.6883  -25.6182   21.1381 H   0  0  0  0  0  0
  -19.6728  -27.3030   20.6689 H   0  0  0  0  0  0
  -17.4194  -26.6676   21.4019 H   0  0  0  0  0  0
  -18.0298  -26.0059   22.9008 H   0  0  0  0  0  0
  -19.7949  -30.7300   24.2253 H   0  0  0  0  0  0
  -17.5050  -31.6277   24.5175 H   0  0  0  0  0  0
  -15.5376  -30.2955   23.7718 H   0  0  0  0  0  0
  -15.8691  -28.0755   22.7169 H   0  0  0  0  0  0
  -24.6016  -30.6907   25.7739 H   0  0  0  0  0  0
  -24.8769  -32.2794   26.4735 H   0  0  0  0  0  0
  -25.8041  -30.8969   27.0220 H   0  0  0  0  0  0
  -26.2953  -29.6716   24.1204 H   0  0  0  0  0  0
  -27.4011  -29.7216   25.4756 H   0  0  0  0  0  0
  -27.8865  -30.4225   23.9494 H   0  0  0  0  0  0
  -27.2825  -33.3659   26.1898 H   0  0  0  0  0  0
  -28.3953  -32.6675   25.0222 H   0  0  0  0  0  0
  -28.0753  -31.8422   26.5394 H   0  0  0  0  0  0
  -28.2632  -38.0090   24.7538 H   0  0  0  0  0  0
  -28.1093  -36.2639   24.6306 H   0  0  0  0  0  0
  -27.2316  -37.1405   25.8880 H   0  0  0  0  0  0
  -20.9434  -29.8739   21.6854 H   0  0  0  0  0  0
  -26.0212  -38.2849   24.1353 H   0  0  0  0  0  0
  -28.9215  -23.0007   18.6221 H   0  0  0  0  0  0
  -28.1643  -23.0498   22.8017 H   0  0  0  0  0  0
  -30.2390  -21.1538   17.7703 H   0  0  0  0  0  0
  -28.8080  -20.1187   17.7749 H   0  0  0  0  0  0
  -30.3139  -19.5958   18.5574 H   0  0  0  0  0  0
  -26.5222  -19.8359   23.1408 H   0  0  0  0  0  0
  -26.6340  -21.4324   23.8625 H   0  0  0  0  0  0
  -26.9985  -20.0102   24.8251 H   0  0  0  0  0  0
  -30.4250  -21.4071   24.1779 H   0  0  0  0  0  0
  -29.3645  -20.7733   25.4294 H   0  0  0  0  0  0
  -28.9835  -22.2925   24.6644 H   0  0  0  0  0  0
  -25.8044  -25.5168   21.5727 H   0  0  0  0  0  0
  -27.0957  -25.0734   22.6614 H   0  0  0  0  0  0
  -26.0944  -23.8464   21.8763 H   0  0  0  0  0  0
  -30.7398  -17.6736   21.7120 H   0  0  0  0  0  0
  -30.7892  -17.7041   19.9846 H   0  0  0  0  0  0
  -28.9916  -19.5216   23.4348 H   0  0  0  0  0  0
  -28.3897  -18.4218   21.7589 H   0  0  0  0  0  0
  -27.0572  -24.4756   19.6683 H   0  0  0  0  0  0
  -28.8593  -15.7279   21.1007 H   0  0  0  0  0  0
  -28.2882  -18.3276   18.9194 H   0  0  0  0  0  0
  -27.1498  -18.9667   19.9015 H   0  0  0  0  0  0
  -27.5238  -17.3929   20.0305 H   0  0  0  0  0  0
  1 25  1  0  0  0
  1 30  2  0  0  0
  1 85  1  0  0  0
  2  3  1  0  0  0
  2 25  1  0  0  0
  2 87  1  0  0  0
  2 88  1  0  0  0
  3  4  1  0  0  0
  3 89  1  0  0  0
  3 90  1  0  0  0
  4  5  1  0  0  0
  4 91  1  0  0  0
  4 92  1  0  0  0
  5  6  1  0  0  0
  5 26  1  0  0  0
  5 93  1  0  0  0
  6 25  1  0  0  0
  6 94  1  0  0  0
  6 95  1  0  0  0
  7  8  2  0  0  0
  7 26  1  0  0  0
  7 29  1  0  0  0
  8  9  1  0  0  0
  8 22  1  0  0  0
  9 10  1  0  0  0
  9 27  2  0  0  0
 10 11  2  0  0  0
 10 15  1  0  0  0
 11 12  1  0  0  0
 11 96  1  0  0  0
 12 13  2  0  0  0
 12 97  1  0  0  0
 13 14  1  0  0  0
 13 31  1  0  0  0
 14 15  2  0  0  0
 14 98  1  0  0  0
 15 99  1  0  0  0
 16 17  2  0  0  0
 16 21  1  0  0  0
 16 31  1  0  0  0
 17 18  1  0  0  0
 17100  1  0  0  0
 18 19  2  0  0  0
 18101  1  0  0  0
 19 20  1  0  0  0
 19 24  1  0  0  0
 20 21  2  0  0  0
 20102  1  0  0  0
 21 23  1  0  0  0
 22 28  1  0  0  0
 22 32  2  0  0  0
 26 27  1  0  0  0
 28103  1  0  0  0
 28104  1  0  0  0
 29105  1  0  0  0
 29106  1  0  0  0
 33 34  1  0  0  0
 33 66  1  0  0  0
 33 70  2  0  0  0
 34 36  1  0  0  0
 34 59  1  0  0  0
 34107  1  0  0  0
 35 44  2  0  0  0
 35 45  1  0  0  0
 35 68  1  0  0  0
 36 56  1  0  0  0
 36108  1  0  0  0
 37 39  1  0  0  0
 37 47  1  0  0  0
 37 66  1  0  0  0
 37109  1  0  0  0
 38 43  2  0  0  0
 38 46  1  0  0  0
 38 47  1  0  0  0
 39 64  1  0  0  0
 39 67  2  0  0  0
 40 52  1  0  0  0
 40 53  2  0  0  0
 40 58  1  0  0  0
 41110  1  0  0  0
 41111  1  0  0  0
 41112  1  0  0  0
 41 48  1  0  0  0
 42 43  1  0  0  0
 42 66  1  0  0  0
 42113  1  0  0  0
 42114  1  0  0  0
 43 44  1  0  0  0
 44115  1  0  0  0
 45 46  2  0  0  0
 45116  1  0  0  0
 46117  1  0  0  0
 47118  1  0  0  0
 47119  1  0  0  0
 48 56  1  0  0  0
 48 65  1  0  0  0
 48120  1  0  0  0
 49 50  1  0  0  0
 49 53  1  0  0  0
 49 64  1  0  0  0
 49121  1  0  0  0
 50 51  1  0  0  0
 50122  1  0  0  0
 50123  1  0  0  0
 51 52  1  0  0  0
 51124  1  0  0  0
 51125  1  0  0  0
 52126  1  0  0  0
 52127  1  0  0  0
 53 54  1  0  0  0
 54 55  2  0  0  0
 54128  1  0  0  0
 55 57  1  0  0  0
 55129  1  0  0  0
 56 69  2  0  0  0
 57 58  2  0  0  0
 57130  1  0  0  0
 58131  1  0  0  0
 59 60  1  0  0  0
 59 61  1  0  0  0
 59 62  1  0  0  0
 60132  1  0  0  0
 60133  1  0  0  0
 60134  1  0  0  0
 61135  1  0  0  0
 61136  1  0  0  0
 61137  1  0  0  0
 62138  1  0  0  0
 62139  1  0  0  0
 62140  1  0  0  0
 63 65  1  0  0  0
 63141  1  0  0  0
 63142  1  0  0  0
 63143  1  0  0  0
 64144  1  0  0  0
 65145  1  0  0  0
 68 84  1  0  0  0
 71 73  2  0  0  0
 71 74  1  0  0  0
 71146  1  0  0  0
 72 73  1  0  0  0
 72 75  2  0  0  0
 72147  1  0  0  0
 73 84  1  0  0  0
 74 76  2  0  0  0
 74 77  1  0  0  0
 75 76  1  0  0  0
 75 82  1  0  0  0
 76 83  1  0  0  0
 77148  1  0  0  0
 77149  1  0  0  0
 77150  1  0  0  0
 78151  1  0  0  0
 78152  1  0  0  0
 78153  1  0  0  0
 78 82  1  0  0  0
 79 82  1  0  0  0
 79154  1  0  0  0
 79155  1  0  0  0
 79156  1  0  0  0
 80157  1  0  0  0
 80158  1  0  0  0
 80159  1  0  0  0
 80 84  1  0  0  0
 81 83  1  0  0  0
 81 85  1  0  0  0
 81160  1  0  0  0
 81161  1  0  0  0
 82162  1  0  0  0
 83 86  1  0  0  0
 83163  1  0  0  0
 84164  1  0  0  0
 85165  1  0  0  0
 86166  1  0  0  0
 86167  1  0  0  0
 86168  1  0  0  0
M  CHG  1  86   1
M  ISO  4   1 100  68 101  84 101  85 100
M  END
> <chiral flag>
0

> <version>
0

> <s_m_source_file>
/data/baiqing/PycharmProjects/Reinvent-master-3.2/result/LINK_invent/BTK/process_docking_weight1_custom_sum_contain_oxygen_bond_distance_aromatic_linkinvent_7_9_3/rearranged_h_0106.sdf

> <i_m_source_file_index>
48

> <r_mmod_Potential_Energy-OPLS-2005>
106.372711181641

> <r_mmod_Stretch_Energy-OPLS-2005>
203.960708618164

> <r_mmod_Bend_Energy-OPLS-2005>
227.53205871582

> <r_mmod_Torsional_Energy-OPLS-2005>
289.283508300781

> <r_mmod_Improper_Torsional_Energy-OPLS-2005>
14.9385633468628

> <r_mmod_Van_der_Waal_Energy-OPLS-2005>
151.365386962891

> <r_mmod_Electrostatic_Energy-OPLS-2005>
-427.418579101562

> <r_mmod_Solvation_Energy-OPLS-2005>
-504.892547607422

> <b_mmod_Minimization_Converged-OPLS-2005>
0

> <r_mmod_RMS_Derivative-OPLS-2005>
4.30246210098267

$$$$
48
                    3D
 Structure written by MMmdl.
163171  0  0  1  0            999 V2000
  -30.6079  -14.7564   20.4697 C   0  0  0  0  0  0
  -30.4304  -12.4553   19.5049 C   0  0  0  0  0  0
  -29.5219  -12.5058   18.2567 C   0  0  0  0  0  0
  -28.0439  -12.3337   18.6574 C   0  0  0  0  0  0
  -27.6428  -13.2357   19.8548 C   0  0  2  0  0  0
  -28.6775  -13.1807   21.0009 C   0  0  0  0  0  0
  -25.2508  -13.8203   20.5701 C   0  0  0  0  0  0
  -24.1805  -13.0447   20.9220 C   0  0  0  0  0  0
  -24.6386  -11.6922   20.8734 C   0  0  0  0  0  0
  -23.9062  -10.4302   21.0393 C   0  0  0  0  0  0
  -24.3609   -9.4221   21.9177 C   0  0  0  0  0  0
  -23.6296   -8.2249   22.0740 C   0  0  0  0  0  0
  -22.4282   -8.0273   21.3533 C   0  0  0  0  0  0
  -21.9916   -9.0242   20.4636 C   0  0  0  0  0  0
  -22.7233  -10.2129   20.3046 C   0  0  0  0  0  0
  -21.6857   -6.0737   22.5277 C   0  0  0  0  0  0
  -21.4010   -6.5638   23.8210 C   0  0  0  0  0  0
  -21.3662   -5.6793   24.9178 C   0  0  0  0  0  0
  -21.6044   -4.3056   24.7228 C   0  0  0  0  0  0
  -21.8821   -3.8147   23.4351 C   0  0  0  0  0  0
  -21.9188   -4.6964   22.3405 C   0  0  0  0  0  0
  -22.7826  -13.5204   21.1891 C   0  0  0  0  0  0
  -22.1666   -4.2148   21.0990 F   0  0  0  0  0  0
  -21.5628   -3.4543   25.7743 F   0  0  0  0  0  0
  -29.9863  -13.5256   20.4331 N   0  0  0  0  0  0
  -26.2934  -12.9416   20.3272 N   0  0  0  0  0  0
  -25.9313  -11.6555   20.5738 N   0  0  0  0  0  0
  -22.0470  -12.8191   22.0439 N   0  0  0  0  0  0
  -25.4218  -15.1936   20.4122 N   0  0  0  0  0  0
  -31.7780  -14.8512   20.0887 O   0  0  0  0  0  0
  -21.6643   -6.8873   21.4235 O   0  0  0  0  0  0
  -22.3503  -14.5505   20.6731 O   0  0  0  0  0  0
  -24.6314  -31.8544   23.1962 C   0  0  0  0  0  0
  -25.9140  -32.4753   23.8320 C   0  0  1  0  0  0
  -27.2278  -27.2599   20.1494 C   0  0  0  0  0  0
  -25.5931  -33.8559   24.2236 N   0  0  0  0  0  0
  -23.4298  -30.4714   21.5411 C   0  0  2  0  0  0
  -24.8818  -28.9130   20.1157 C   0  0  0  0  0  0
  -22.7521  -29.4568   22.4935 C   0  0  0  0  0  0
  -18.0299  -28.1380   22.8480 C   0  0  0  0  0  0
  -24.1492  -36.7274   23.2640 C   0  0  0  0  0  0
  -25.9742  -30.7666   21.3774 C   0  0  0  0  0  0
  -26.0509  -29.3866   20.7252 C   0  0  0  0  0  0
  -27.2297  -28.5728   20.7297 C   0  0  0  0  0  0
  -26.0429  -26.8500   19.5061 C   0  0  0  0  0  0
  -24.8812  -27.6522   19.4956 C   0  0  0  0  0  0
  -23.6519  -29.8013   20.1591 C   0  0  0  0  0  0
  -25.4121  -36.3071   24.0325 C   0  0  1  0  0  0
  -20.5897  -28.3686   23.1278 C   0  0  2  0  0  0
  -20.6789  -26.9405   22.5412 C   0  0  0  0  0  0
  -19.5762  -26.6378   21.5215 C   0  0  0  0  0  0
  -18.1937  -26.7922   22.1616 C   0  0  0  0  0  0
  -19.1552  -28.8857   23.2867 C   0  0  0  0  0  0
  -18.9464  -30.1460   23.8871 C   0  0  0  0  0  0
  -17.6462  -30.6578   24.0566 C   0  0  0  0  0  0
  -25.9076  -34.9446   23.5085 C   0  0  0  0  0  0
  -16.5356  -29.9071   23.6330 C   0  0  0  0  0  0
  -16.7284  -28.6490   23.0353 C   0  0  0  0  0  0
  -26.4506  -31.6582   25.0714 C   0  0  0  0  0  0
  -25.3716  -31.3738   26.1424 C   0  0  0  0  0  0
  -27.0348  -30.3003   24.6188 C   0  0  0  0  0  0
  -27.6060  -32.4339   25.7477 C   0  0  0  0  0  0
  -27.5580  -37.1789   24.8476 C   0  0  0  0  0  0
  -21.4230  -29.3033   22.3680 N   0  0  0  0  0  0
  -26.4288  -37.3775   23.9420 N   0  0  0  0  0  0
  -24.6968  -31.0490   22.0952 N   0  0  0  0  0  0
  -23.4213  -28.8138   23.3073 O   0  0  0  0  0  0
  -28.3269  -26.3681   20.1538 O   0  0  0  0  0  0
  -26.5649  -34.8924   22.4659 O   0  0  0  0  0  0
  -23.5462  -32.1408   23.7240 O   0  0  0  0  0  0
  -29.4321  -18.8300   22.2223 C   0  0  0  0  0  0
  -29.5319  -19.9875   20.3441 C   0  0  0  0  0  0
  -29.6644  -18.6694   20.8336 C   0  0  0  0  0  0
  -29.3259  -20.1631   22.5458 C   0  0  0  0  0  0
  -27.1871  -25.0907   21.9990 C   0  0  0  0  0  0
  -31.7974  -20.6290   24.1981 C   0  0  0  0  0  0
  -30.0692  -17.2991   20.1137 C   0  0  0  0  0  0
  -29.3092  -20.7041   23.9609 C   0  0  0  0  0  0
  -28.5979  -23.5802   20.3750 C   0  0  0  0  0  0
  -29.2394  -22.5041   21.4155 C   0  0  0  0  0  0
  -28.3410  -25.0943   20.9709 C   0  0  1  0  0  0
  -29.2995  -20.9501   21.3742 N   0  0  0  0  0  0
  -29.8498  -15.8994   20.7036 N   0  0  0  0  0  0
  -30.4772  -20.2576   24.7516 N   0  3  0  0  0  0
  -31.4756  -12.5670   19.2119 H   0  0  0  0  0  0
  -30.3624  -11.4825   19.9928 H   0  0  0  0  0  0
  -29.8142  -11.7291   17.5478 H   0  0  0  0  0  0
  -29.6608  -13.4589   17.7444 H   0  0  0  0  0  0
  -27.8962  -11.2860   18.9194 H   0  0  0  0  0  0
  -27.3954  -12.5256   17.8021 H   0  0  0  0  0  0
  -27.6374  -14.2565   19.4711 H   0  0  0  0  0  0
  -28.7049  -12.1903   21.4563 H   0  0  0  0  0  0
  -28.3994  -13.8749   21.7965 H   0  0  0  0  0  0
  -25.2748   -9.5707   22.4756 H   0  0  0  0  0  0
  -24.0012   -7.4640   22.7447 H   0  0  0  0  0  0
  -21.0859   -8.8745   19.8933 H   0  0  0  0  0  0
  -22.3678  -10.9661   19.6152 H   0  0  0  0  0  0
  -21.1994   -7.6145   23.9714 H   0  0  0  0  0  0
  -21.1488   -6.0529   25.9083 H   0  0  0  0  0  0
  -22.0592   -2.7609   23.2856 H   0  0  0  0  0  0
  -22.4099  -11.9862   22.4847 H   0  0  0  0  0  0
  -21.1057  -13.1167   22.2584 H   0  0  0  0  0  0
  -24.6524  -15.8472   20.5142 H   0  0  0  0  0  0
  -26.2672  -15.6320   20.0678 H   0  0  0  0  0  0
  -26.7219  -32.5403   23.1072 H   0  0  0  0  0  0
  -25.0077  -33.9734   25.0381 H   0  0  0  0  0  0
  -22.7242  -31.2916   21.3904 H   0  0  0  0  0  0
  -23.3764  -35.9596   23.3316 H   0  0  0  0  0  0
  -24.3573  -36.8894   22.2052 H   0  0  0  0  0  0
  -23.7246  -37.6473   23.6670 H   0  0  0  0  0  0
  -26.1117  -31.5244   20.6046 H   0  0  0  0  0  0
  -26.8526  -30.8199   22.0092 H   0  0  0  0  0  0
  -28.1270  -28.9300   21.2141 H   0  0  0  0  0  0
  -26.0102  -25.8794   19.0314 H   0  0  0  0  0  0
  -23.9879  -27.2838   19.0107 H   0  0  0  0  0  0
  -23.7789  -30.5800   19.4061 H   0  0  0  0  0  0
  -22.7694  -29.2387   19.8499 H   0  0  0  0  0  0
  -25.1305  -36.1904   25.0817 H   0  0  0  0  0  0
  -20.9978  -28.3240   24.1404 H   0  0  0  0  0  0
  -20.5712  -26.2275   23.3601 H   0  0  0  0  0  0
  -21.6645  -26.7442   22.1176 H   0  0  0  0  0  0
  -19.6940  -25.6288   21.1240 H   0  0  0  0  0  0
  -19.6710  -27.3189   20.6745 H   0  0  0  0  0  0
  -17.4213  -26.6690   21.4006 H   0  0  0  0  0  0
  -18.0317  -26.0054   22.8999 H   0  0  0  0  0  0
  -19.7945  -30.7289   24.2219 H   0  0  0  0  0  0
  -17.5019  -31.6263   24.5155 H   0  0  0  0  0  0
  -15.5350  -30.2966   23.7691 H   0  0  0  0  0  0
  -15.8676  -28.0821   22.7061 H   0  0  0  0  0  0
  -24.5897  -30.7090   25.7742 H   0  0  0  0  0  0
  -24.8894  -32.2908   26.4830 H   0  0  0  0  0  0
  -25.8009  -30.8928   27.0216 H   0  0  0  0  0  0
  -26.2931  -29.6760   24.1201 H   0  0  0  0  0  0
  -27.4044  -29.7257   25.4681 H   0  0  0  0  0  0
  -27.8801  -30.4297   23.9425 H   0  0  0  0  0  0
  -27.2679  -33.3659   26.2019 H   0  0  0  0  0  0
  -28.3871  -32.6884   25.0300 H   0  0  0  0  0  0
  -28.0733  -31.8499   26.5419 H   0  0  0  0  0  0
  -28.2588  -38.0090   24.7504 H   0  0  0  0  0  0
  -28.1070  -36.2613   24.6307 H   0  0  0  0  0  0
  -27.2293  -37.1446   25.8877 H   0  0  0  0  0  0
  -20.9431  -29.8726   21.6843 H   0  0  0  0  0  0
  -26.0160  -38.2845   24.1418 H   0  0  0  0  0  0
  -29.4546  -18.0294   22.9493 H   0  0  0  0  0  0
  -29.6417  -20.3442   19.3279 H   0  0  0  0  0  0
  -27.3042  -24.3169   22.7549 H   0  0  0  0  0  0
  -26.2257  -24.9201   21.5162 H   0  0  0  0  0  0
  -27.1318  -26.0334   22.5440 H   0  0  0  0  0  0
  -32.5922  -20.3542   24.8919 H   0  0  0  0  0  0
  -31.8641  -21.7025   24.0208 H   0  0  0  0  0  0
  -31.9923  -20.1150   23.2557 H   0  0  0  0  0  0
  -31.1309  -17.3937   19.8822 H   0  0  0  0  0  0
  -29.5713  -17.2983   19.1439 H   0  0  0  0  0  0
  -28.4025  -20.3692   24.4655 H   0  0  0  0  0  0
  -29.2975  -21.7887   24.0145 H   0  0  0  0  0  0
  -27.6569  -23.1936   19.9826 H   0  0  0  0  0  0
  -29.2660  -23.6494   19.5166 H   0  0  0  0  0  0
  -28.6709  -22.7275   22.3086 H   0  0  0  0  0  0
  -30.2505  -22.8419   21.6454 H   0  0  0  0  0  0
  -29.2347  -25.2745   21.5690 H   0  0  0  0  0  0
  -28.9251  -15.7334   21.0703 H   0  0  0  0  0  0
  -30.3924  -20.6565   25.6723 H   0  0  0  0  0  0
  -30.4429  -19.2584   24.8599 H   0  0  0  0  0  0
  1 25  1  0  0  0
  1 30  2  0  0  0
  1 83  1  0  0  0
  2  3  1  0  0  0
  2 25  1  0  0  0
  2 85  1  0  0  0
  2 86  1  0  0  0
  3  4  1  0  0  0
  3 87  1  0  0  0
  3 88  1  0  0  0
  4  5  1  0  0  0
  4 89  1  0  0  0
  4 90  1  0  0  0
  5  6  1  0  0  0
  5 26  1  0  0  0
  5 91  1  0  0  0
  6 25  1  0  0  0
  6 92  1  0  0  0
  6 93  1  0  0  0
  7  8  2  0  0  0
  7 26  1  0  0  0
  7 29  1  0  0  0
  8  9  1  0  0  0
  8 22  1  0  0  0
  9 10  1  0  0  0
  9 27  2  0  0  0
 10 11  2  0  0  0
 10 15  1  0  0  0
 11 12  1  0  0  0
 11 94  1  0  0  0
 12 13  2  0  0  0
 12 95  1  0  0  0
 13 14  1  0  0  0
 13 31  1  0  0  0
 14 15  2  0  0  0
 14 96  1  0  0  0
 15 97  1  0  0  0
 16 17  2  0  0  0
 16 21  1  0  0  0
 16 31  1  0  0  0
 17 18  1  0  0  0
 17 98  1  0  0  0
 18 19  2  0  0  0
 18 99  1  0  0  0
 19 20  1  0  0  0
 19 24  1  0  0  0
 20 21  2  0  0  0
 20100  1  0  0  0
 21 23  1  0  0  0
 22 28  1  0  0  0
 22 32  2  0  0  0
 26 27  1  0  0  0
 28101  1  0  0  0
 28102  1  0  0  0
 29103  1  0  0  0
 29104  1  0  0  0
 33 34  1  0  0  0
 33 66  1  0  0  0
 33 70  2  0  0  0
 34 36  1  0  0  0
 34 59  1  0  0  0
 34105  1  0  0  0
 35 44  2  0  0  0
 35 45  1  0  0  0
 35 68  1  0  0  0
 36 56  1  0  0  0
 36106  1  0  0  0
 37 39  1  0  0  0
 37 47  1  0  0  0
 37 66  1  0  0  0
 37107  1  0  0  0
 38 43  2  0  0  0
 38 46  1  0  0  0
 38 47  1  0  0  0
 39 64  1  0  0  0
 39 67  2  0  0  0
 40 52  1  0  0  0
 40 53  2  0  0  0
 40 58  1  0  0  0
 41108  1  0  0  0
 41109  1  0  0  0
 41110  1  0  0  0
 41 48  1  0  0  0
 42 43  1  0  0  0
 42 66  1  0  0  0
 42111  1  0  0  0
 42112  1  0  0  0
 43 44  1  0  0  0
 44113  1  0  0  0
 45 46  2  0  0  0
 45114  1  0  0  0
 46115  1  0  0  0
 47116  1  0  0  0
 47117  1  0  0  0
 48 56  1  0  0  0
 48 65  1  0  0  0
 48118  1  0  0  0
 49 50  1  0  0  0
 49 53  1  0  0  0
 49 64  1  0  0  0
 49119  1  0  0  0
 50 51  1  0  0  0
 50120  1  0  0  0
 50121  1  0  0  0
 51 52  1  0  0  0
 51122  1  0  0  0
 51123  1  0  0  0
 52124  1  0  0  0
 52125  1  0  0  0
 53 54  1  0  0  0
 54 55  2  0  0  0
 54126  1  0  0  0
 55 57  1  0  0  0
 55127  1  0  0  0
 56 69  2  0  0  0
 57 58  2  0  0  0
 57128  1  0  0  0
 58129  1  0  0  0
 59 60  1  0  0  0
 59 61  1  0  0  0
 59 62  1  0  0  0
 60130  1  0  0  0
 60131  1  0  0  0
 60132  1  0  0  0
 61133  1  0  0  0
 61134  1  0  0  0
 61135  1  0  0  0
 62136  1  0  0  0
 62137  1  0  0  0
 62138  1  0  0  0
 63 65  1  0  0  0
 63139  1  0  0  0
 63140  1  0  0  0
 63141  1  0  0  0
 64142  1  0  0  0
 65143  1  0  0  0
 68 81  1  0  0  0
 71 73  1  0  0  0
 71 74  2  0  0  0
 71144  1  0  0  0
 72 73  2  0  0  0
 72 82  1  0  0  0
 72145  1  0  0  0
 73 77  1  0  0  0
 74 78  1  0  0  0
 74 82  1  0  0  0
 75146  1  0  0  0
 75147  1  0  0  0
 75148  1  0  0  0
 75 81  1  0  0  0
 76 84  1  0  0  0
 76149  1  0  0  0
 76150  1  0  0  0
 76151  1  0  0  0
 77 83  1  0  0  0
 77152  1  0  0  0
 77153  1  0  0  0
 78 84  1  0  0  0
 78154  1  0  0  0
 78155  1  0  0  0
 79 80  1  0  0  0
 79 81  1  0  0  0
 79156  1  0  0  0
 79157  1  0  0  0
 80 82  1  0  0  0
 80158  1  0  0  0
 80159  1  0  0  0
 81160  1  0  0  0
 83161  1  0  0  0
 84162  1  0  0  0
 84163  1  0  0  0
M  CHG  1  84   1
M  ISO  4   1 100  68 101  81 101  83 100
M  END
> <chiral flag>
0

> <version>
0

> <s_m_source_file>
/data/baiqing/PycharmProjects/Reinvent-master-3.2/result/LINK_invent/BTK/process_docking_weight1_custom_sum_contain_oxygen_bond_distance_aromatic_linkinvent_7_9_3/rearranged_h_0106.sdf

> <i_m_source_file_index>
49

> <r_mmod_Potential_Energy-OPLS-2005>
-7.23874044418335

> <r_mmod_Stretch_Energy-OPLS-2005>
142.28678894043

> <r_mmod_Bend_Energy-OPLS-2005>
226.011871337891

> <r_mmod_Torsional_Energy-OPLS-2005>
251.294906616211

> <r_mmod_Improper_Torsional_Energy-OPLS-2005>
8.01493167877197

> <r_mmod_Van_der_Waal_Energy-OPLS-2005>
118.315040588379

> <r_mmod_Electrostatic_Energy-OPLS-2005>
-361.548126220703

> <r_mmod_Solvation_Energy-OPLS-2005>
-478.664672851562

> <b_mmod_Minimization_Converged-OPLS-2005>
0

> <r_mmod_RMS_Derivative-OPLS-2005>
2.30129313468933

$$$$
49
                    3D
 Structure written by MMmdl.
163171  0  0  1  0            999 V2000
  -30.5165  -14.9858   20.4098 C   0  0  0  0  0  0
  -30.4426  -12.6096   19.5120 C   0  0  0  0  0  0
  -29.5240  -12.5304   18.2692 C   0  0  0  0  0  0
  -28.0602  -12.3039   18.6892 C   0  0  0  0  0  0
  -27.6282  -13.2482   19.8406 C   0  0  2  0  0  0
  -28.6675  -13.2897   20.9812 C   0  0  0  0  0  0
  -25.2447  -13.8218   20.5723 C   0  0  0  0  0  0
  -24.1764  -13.0443   20.9240 C   0  0  0  0  0  0
  -24.6385  -11.6930   20.8770 C   0  0  0  0  0  0
  -23.9067  -10.4297   21.0420 C   0  0  0  0  0  0
  -24.3616   -9.4211   21.9189 C   0  0  0  0  0  0
  -23.6294   -8.2238   22.0748 C   0  0  0  0  0  0
  -22.4276   -8.0279   21.3539 C   0  0  0  0  0  0
  -21.9916   -9.0253   20.4636 C   0  0  0  0  0  0
  -22.7239  -10.2134   20.3058 C   0  0  0  0  0  0
  -21.6852   -6.0737   22.5284 C   0  0  0  0  0  0
  -21.4007   -6.5641   23.8217 C   0  0  0  0  0  0
  -21.3655   -5.6794   24.9178 C   0  0  0  0  0  0
  -21.6046   -4.3056   24.7226 C   0  0  0  0  0  0
  -21.8818   -3.8150   23.4348 C   0  0  0  0  0  0
  -21.9189   -4.6968   22.3404 C   0  0  0  0  0  0
  -22.7783  -13.5212   21.1899 C   0  0  0  0  0  0
  -22.1662   -4.2151   21.0979 F   0  0  0  0  0  0
  -21.5626   -3.4545   25.7740 F   0  0  0  0  0  0
  -29.9419  -13.7122   20.3867 N   0  0  0  0  0  0
  -26.2875  -12.9455   20.3264 N   0  0  0  0  0  0
  -25.9318  -11.6587   20.5759 N   0  0  0  0  0  0
  -22.0435  -12.8186   22.0451 N   0  0  0  0  0  0
  -25.4106  -15.1941   20.4130 N   0  0  0  0  0  0
  -31.7129  -15.0578   20.1094 O   0  0  0  0  0  0
  -21.6634   -6.8879   21.4241 O   0  0  0  0  0  0
  -22.3462  -14.5520   20.6750 O   0  0  0  0  0  0
  -24.6470  -31.8396   23.1855 C   0  0  0  0  0  0
  -25.9233  -32.4667   23.8256 C   0  0  1  0  0  0
  -27.2161  -27.1067   20.1523 C   0  0  0  0  0  0
  -25.5970  -33.8478   24.2170 N   0  0  0  0  0  0
  -23.4516  -30.4593   21.5312 C   0  0  2  0  0  0
  -24.8997  -28.8794   20.1077 C   0  0  0  0  0  0
  -22.7605  -29.4518   22.4841 C   0  0  0  0  0  0
  -18.0311  -28.1385   22.8446 C   0  0  0  0  0  0
  -24.1499  -36.7239   23.2641 C   0  0  0  0  0  0
  -26.0094  -30.7020   21.3890 C   0  0  0  0  0  0
  -26.0769  -29.3108   20.7306 C   0  0  0  0  0  0
  -27.2335  -28.4405   20.7373 C   0  0  0  0  0  0
  -26.0156  -26.7856   19.4810 C   0  0  0  0  0  0
  -24.8822  -27.6306   19.4676 C   0  0  0  0  0  0
  -23.6810  -29.7895   20.1506 C   0  0  0  0  0  0
  -25.4128  -36.3003   24.0316 C   0  0  1  0  0  0
  -20.5927  -28.3722   23.1213 C   0  0  2  0  0  0
  -20.6798  -26.9424   22.5384 C   0  0  0  0  0  0
  -19.5769  -26.6370   21.5198 C   0  0  0  0  0  0
  -18.1945  -26.7915   22.1606 C   0  0  0  0  0  0
  -19.1566  -28.8872   23.2814 C   0  0  0  0  0  0
  -18.9490  -30.1463   23.8851 C   0  0  0  0  0  0
  -17.6488  -30.6574   24.0557 C   0  0  0  0  0  0
  -25.9088  -34.9390   23.5044 C   0  0  0  0  0  0
  -16.5379  -29.9068   23.6335 C   0  0  0  0  0  0
  -16.7294  -28.6497   23.0333 C   0  0  0  0  0  0
  -26.4561  -31.6547   25.0713 C   0  0  0  0  0  0
  -25.3737  -31.3715   26.1400 C   0  0  0  0  0  0
  -27.0447  -30.2951   24.6289 C   0  0  0  0  0  0
  -27.6085  -32.4327   25.7492 C   0  0  0  0  0  0
  -27.5564  -37.1770   24.8468 C   0  0  0  0  0  0
  -21.4289  -29.3049   22.3607 N   0  0  0  0  0  0
  -26.4271  -37.3728   23.9418 N   0  0  0  0  0  0
  -24.7227  -31.0226   22.0907 N   0  0  0  0  0  0
  -23.4233  -28.8055   23.2991 O   0  0  0  0  0  0
  -28.2621  -26.1071   20.2460 O   0  0  0  0  0  0
  -26.5670  -34.8897   22.4623 O   0  0  0  0  0  0
  -23.5582  -32.1282   23.7068 O   0  0  0  0  0  0
  -29.0002  -19.8104   23.3455 C   0  0  0  0  0  0
  -28.6668  -20.7644   22.4523 C   0  0  0  0  0  0
  -29.5669  -18.7097   22.6606 C   0  0  0  0  0  0
  -29.4833  -18.9383   21.2919 C   0  0  0  0  0  0
  -27.8161  -16.5461   23.9375 C   0  0  0  0  0  0
  -31.4971  -17.9366   24.0654 C   0  0  0  0  0  0
  -29.9071  -17.7231   20.2686 C   0  0  0  0  0  0
  -29.1906  -16.9532   24.4910 C   0  0  0  0  0  0
  -28.9459  -23.2454   20.5380 C   0  0  0  0  0  0
  -28.8160  -21.5732   20.1339 C   0  0  0  0  0  0
  -28.0420  -24.5738   19.9735 C   0  0  0  0  0  0
  -30.1562  -17.5346   23.4335 C   0  0  1  0  0  0
  -29.0576  -20.3995   21.1755 N   0  0  0  0  0  0
  -29.7180  -16.1616   20.5628 N   0  0  0  0  0  0
  -31.4744  -12.7760   19.1992 H   0  0  0  0  0  0
  -30.4492  -11.6633   20.0553 H   0  0  0  0  0  0
  -29.8537  -11.7298   17.6057 H   0  0  0  0  0  0
  -29.6011  -13.4556   17.6978 H   0  0  0  0  0  0
  -27.9716  -11.2669   19.0153 H   0  0  0  0  0  0
  -27.3936  -12.4116   17.8321 H   0  0  0  0  0  0
  -27.5890  -14.2449   19.4014 H   0  0  0  0  0  0
  -28.7602  -12.3167   21.4659 H   0  0  0  0  0  0
  -28.3581  -13.9910   21.7563 H   0  0  0  0  0  0
  -25.2762   -9.5688   22.4772 H   0  0  0  0  0  0
  -24.0006   -7.4627   22.7469 H   0  0  0  0  0  0
  -21.0850   -8.8769   19.8941 H   0  0  0  0  0  0
  -22.3702  -10.9673   19.6169 H   0  0  0  0  0  0
  -21.1997   -7.6151   23.9723 H   0  0  0  0  0  0
  -21.1477   -6.0522   25.9079 H   0  0  0  0  0  0
  -22.0599   -2.7615   23.2849 H   0  0  0  0  0  0
  -22.4057  -11.9840   22.4821 H   0  0  0  0  0  0
  -21.1050  -13.1189   22.2670 H   0  0  0  0  0  0
  -24.6385  -15.8426   20.5194 H   0  0  0  0  0  0
  -26.2519  -15.6381   20.0698 H   0  0  0  0  0  0
  -26.7293  -32.5263   23.0974 H   0  0  0  0  0  0
  -25.0176  -33.9610   25.0355 H   0  0  0  0  0  0
  -22.7542  -31.2849   21.3757 H   0  0  0  0  0  0
  -23.3771  -35.9556   23.3271 H   0  0  0  0  0  0
  -24.3579  -36.8898   22.2056 H   0  0  0  0  0  0
  -23.7251  -37.6420   23.6712 H   0  0  0  0  0  0
  -26.1692  -31.4505   20.6120 H   0  0  0  0  0  0
  -26.8810  -30.7503   22.0307 H   0  0  0  0  0  0
  -28.1277  -28.7641   21.2506 H   0  0  0  0  0  0
  -25.9194  -25.8351   18.9786 H   0  0  0  0  0  0
  -23.9852  -27.2977   18.9628 H   0  0  0  0  0  0
  -23.8311  -30.5667   19.4010 H   0  0  0  0  0  0
  -22.7938  -29.2415   19.8300 H   0  0  0  0  0  0
  -25.1305  -36.1808   25.0802 H   0  0  0  0  0  0
  -21.0001  -28.3305   24.1343 H   0  0  0  0  0  0
  -20.5693  -26.2343   23.3617 H   0  0  0  0  0  0
  -21.6665  -26.7415   22.1182 H   0  0  0  0  0  0
  -19.6954  -25.6278   21.1239 H   0  0  0  0  0  0
  -19.6704  -27.3172   20.6725 H   0  0  0  0  0  0
  -17.4223  -26.6657   21.4003 H   0  0  0  0  0  0
  -18.0337  -26.0049   22.8999 H   0  0  0  0  0  0
  -19.7972  -30.7277   24.2194 H   0  0  0  0  0  0
  -17.5046  -31.6245   24.5180 H   0  0  0  0  0  0
  -15.5378  -30.2963   23.7679 H   0  0  0  0  0  0
  -15.8694  -28.0819   22.7052 H   0  0  0  0  0  0
  -24.5946  -30.7041   25.7702 H   0  0  0  0  0  0
  -24.8921  -32.2892   26.4778 H   0  0  0  0  0  0
  -25.8021  -30.8908   27.0206 H   0  0  0  0  0  0
  -26.3066  -29.6651   24.1323 H   0  0  0  0  0  0
  -27.4104  -29.7263   25.4844 H   0  0  0  0  0  0
  -27.8946  -30.4204   23.9585 H   0  0  0  0  0  0
  -27.2697  -33.3688   26.1940 H   0  0  0  0  0  0
  -28.3965  -32.6775   25.0359 H   0  0  0  0  0  0
  -28.0686  -31.8537   26.5507 H   0  0  0  0  0  0
  -28.2546  -38.0094   24.7515 H   0  0  0  0  0  0
  -28.1089  -36.2618   24.6285 H   0  0  0  0  0  0
  -27.2288  -37.1395   25.8870 H   0  0  0  0  0  0
  -20.9524  -29.8794   21.6805 H   0  0  0  0  0  0
  -26.0122  -38.2780   24.1441 H   0  0  0  0  0  0
  -28.8680  -19.9061   24.4146 H   0  0  0  0  0  0
  -28.2026  -21.7174   22.6558 H   0  0  0  0  0  0
  -27.2425  -15.9991   24.6862 H   0  0  0  0  0  0
  -27.9117  -15.9056   23.0617 H   0  0  0  0  0  0
  -27.2283  -17.4183   23.6494 H   0  0  0  0  0  0
  -32.2053  -18.2602   23.3017 H   0  0  0  0  0  0
  -31.9528  -17.0973   24.5917 H   0  0  0  0  0  0
  -31.3836  -18.7538   24.7785 H   0  0  0  0  0  0
  -30.9638  -17.8546   20.0325 H   0  0  0  0  0  0
  -29.3978  -17.9053   19.3227 H   0  0  0  0  0  0
  -29.6568  -16.0784   24.9476 H   0  0  0  0  0  0
  -29.0447  -17.6669   25.3027 H   0  0  0  0  0  0
  -29.9817  -23.4954   20.3098 H   0  0  0  0  0  0
  -28.9156  -23.3453   21.6187 H   0  0  0  0  0  0
  -29.4628  -21.3789   19.2778 H   0  0  0  0  0  0
  -27.8073  -21.4179   19.7513 H   0  0  0  0  0  0
  -27.0188  -24.3554   20.2804 H   0  0  0  0  0  0
  -28.0292  -24.4876   18.8870 H   0  0  0  0  0  0
  -30.4054  -16.7222   22.7681 H   0  0  0  0  0  0
  -28.7684  -15.9407   20.8189 H   0  0  0  0  0  0
  1 25  1  0  0  0
  1 30  2  0  0  0
  1 84  1  0  0  0
  2  3  1  0  0  0
  2 25  1  0  0  0
  2 85  1  0  0  0
  2 86  1  0  0  0
  3  4  1  0  0  0
  3 87  1  0  0  0
  3 88  1  0  0  0
  4  5  1  0  0  0
  4 89  1  0  0  0
  4 90  1  0  0  0
  5  6  1  0  0  0
  5 26  1  0  0  0
  5 91  1  0  0  0
  6 25  1  0  0  0
  6 92  1  0  0  0
  6 93  1  0  0  0
  7  8  2  0  0  0
  7 26  1  0  0  0
  7 29  1  0  0  0
  8  9  1  0  0  0
  8 22  1  0  0  0
  9 10  1  0  0  0
  9 27  2  0  0  0
 10 11  2  0  0  0
 10 15  1  0  0  0
 11 12  1  0  0  0
 11 94  1  0  0  0
 12 13  2  0  0  0
 12 95  1  0  0  0
 13 14  1  0  0  0
 13 31  1  0  0  0
 14 15  2  0  0  0
 14 96  1  0  0  0
 15 97  1  0  0  0
 16 17  2  0  0  0
 16 21  1  0  0  0
 16 31  1  0  0  0
 17 18  1  0  0  0
 17 98  1  0  0  0
 18 19  2  0  0  0
 18 99  1  0  0  0
 19 20  1  0  0  0
 19 24  1  0  0  0
 20 21  2  0  0  0
 20100  1  0  0  0
 21 23  1  0  0  0
 22 28  1  0  0  0
 22 32  2  0  0  0
 26 27  1  0  0  0
 28101  1  0  0  0
 28102  1  0  0  0
 29103  1  0  0  0
 29104  1  0  0  0
 33 34  1  0  0  0
 33 66  1  0  0  0
 33 70  2  0  0  0
 34 36  1  0  0  0
 34 59  1  0  0  0
 34105  1  0  0  0
 35 44  2  0  0  0
 35 45  1  0  0  0
 35 68  1  0  0  0
 36 56  1  0  0  0
 36106  1  0  0  0
 37 39  1  0  0  0
 37 47  1  0  0  0
 37 66  1  0  0  0
 37107  1  0  0  0
 38 43  2  0  0  0
 38 46  1  0  0  0
 38 47  1  0  0  0
 39 64  1  0  0  0
 39 67  2  0  0  0
 40 52  1  0  0  0
 40 53  2  0  0  0
 40 58  1  0  0  0
 41108  1  0  0  0
 41109  1  0  0  0
 41110  1  0  0  0
 41 48  1  0  0  0
 42 43  1  0  0  0
 42 66  1  0  0  0
 42111  1  0  0  0
 42112  1  0  0  0
 43 44  1  0  0  0
 44113  1  0  0  0
 45 46  2  0  0  0
 45114  1  0  0  0
 46115  1  0  0  0
 47116  1  0  0  0
 47117  1  0  0  0
 48 56  1  0  0  0
 48 65  1  0  0  0
 48118  1  0  0  0
 49 50  1  0  0  0
 49 53  1  0  0  0
 49 64  1  0  0  0
 49119  1  0  0  0
 50 51  1  0  0  0
 50120  1  0  0  0
 50121  1  0  0  0
 51 52  1  0  0  0
 51122  1  0  0  0
 51123  1  0  0  0
 52124  1  0  0  0
 52125  1  0  0  0
 53 54  1  0  0  0
 54 55  2  0  0  0
 54126  1  0  0  0
 55 57  1  0  0  0
 55127  1  0  0  0
 56 69  2  0  0  0
 57 58  2  0  0  0
 57128  1  0  0  0
 58129  1  0  0  0
 59 60  1  0  0  0
 59 61  1  0  0  0
 59 62  1  0  0  0
 60130  1  0  0  0
 60131  1  0  0  0
 60132  1  0  0  0
 61133  1  0  0  0
 61134  1  0  0  0
 61135  1  0  0  0
 62136  1  0  0  0
 62137  1  0  0  0
 62138  1  0  0  0
 63 65  1  0  0  0
 63139  1  0  0  0
 63140  1  0  0  0
 63141  1  0  0  0
 64142  1  0  0  0
 65143  1  0  0  0
 68 81  1  0  0  0
 71 72  2  0  0  0
 71 73  1  0  0  0
 71144  1  0  0  0
 72 83  1  0  0  0
 72145  1  0  0  0
 73 74  2  0  0  0
 73 82  1  0  0  0
 74 77  1  0  0  0
 74 83  1  0  0  0
 75 78  1  0  0  0
 75146  1  0  0  0
 75147  1  0  0  0
 75148  1  0  0  0
 76149  1  0  0  0
 76150  1  0  0  0
 76151  1  0  0  0
 76 82  1  0  0  0
 77 84  1  0  0  0
 77152  1  0  0  0
 77153  1  0  0  0
 78 82  1  0  0  0
 78154  1  0  0  0
 78155  1  0  0  0
 79 80  1  0  0  0
 79 81  1  0  0  0
 79156  1  0  0  0
 79157  1  0  0  0
 80 83  1  0  0  0
 80158  1  0  0  0
 80159  1  0  0  0
 81160  1  0  0  0
 81161  1  0  0  0
 82162  1  0  0  0
 84163  1  0  0  0
M  ISO  4   1 100  68 101  81 101  84 100
M  END
> <chiral flag>
0

> <version>
0

> <s_m_source_file>
/data/baiqing/PycharmProjects/Reinvent-master-3.2/result/LINK_invent/BTK/process_docking_weight1_custom_sum_contain_oxygen_bond_distance_aromatic_linkinvent_7_9_3/rearranged_h_0106.sdf

> <i_m_source_file_index>
50

> <r_mmod_Potential_Energy-OPLS-2005>
579.161804199219

> <r_mmod_Stretch_Energy-OPLS-2005>
328.648590087891

> <r_mmod_Bend_Energy-OPLS-2005>
324.245635986328

> <r_mmod_Torsional_Energy-OPLS-2005>
229.448287963867

> <r_mmod_Improper_Torsional_Energy-OPLS-2005>
5.21586084365845

> <r_mmod_Van_der_Waal_Energy-OPLS-2005>
112.231636047363

> <r_mmod_Electrostatic_Energy-OPLS-2005>
-433.033447265625

> <r_mmod_Solvation_Energy-OPLS-2005>
-208.937515258789

> <b_mmod_Minimization_Converged-OPLS-2005>
0

> <r_mmod_RMS_Derivative-OPLS-2005>
1.8601108789444

$$$$
50
                    3D
 Structure written by MMmdl.
161169  0  0  1  0            999 V2000
  -30.6165  -14.7489   20.4979 C   0  0  0  0  0  0
  -30.4503  -12.4744   19.4597 C   0  0  0  0  0  0
  -29.5085  -12.4987   18.2334 C   0  0  0  0  0  0
  -28.0412  -12.3027   18.6628 C   0  0  0  0  0  0
  -27.6411  -13.2239   19.8431 C   0  0  2  0  0  0
  -28.6916  -13.1663   20.9750 C   0  0  0  0  0  0
  -25.2535  -13.8206   20.5690 C   0  0  0  0  0  0
  -24.1829  -13.0431   20.9234 C   0  0  0  0  0  0
  -24.6409  -11.6918   20.8772 C   0  0  0  0  0  0
  -23.9094  -10.4286   21.0411 C   0  0  0  0  0  0
  -24.3626   -9.4217   21.9205 C   0  0  0  0  0  0
  -23.6299   -8.2252   22.0765 C   0  0  0  0  0  0
  -22.4304   -8.0286   21.3526 C   0  0  0  0  0  0
  -21.9928   -9.0265   20.4655 C   0  0  0  0  0  0
  -22.7256  -10.2145   20.3068 C   0  0  0  0  0  0
  -21.6845   -6.0757   22.5279 C   0  0  0  0  0  0
  -21.4002   -6.5642   23.8224 C   0  0  0  0  0  0
  -21.3657   -5.6794   24.9179 C   0  0  0  0  0  0
  -21.6046   -4.3060   24.7225 C   0  0  0  0  0  0
  -21.8811   -3.8160   23.4337 C   0  0  0  0  0  0
  -21.9188   -4.6983   22.3402 C   0  0  0  0  0  0
  -22.7834  -13.5227   21.1873 C   0  0  0  0  0  0
  -22.1658   -4.2154   21.0981 F   0  0  0  0  0  0
  -21.5632   -3.4543   25.7745 F   0  0  0  0  0  0
  -29.9944  -13.5262   20.3921 N   0  0  0  0  0  0
  -26.2933  -12.9368   20.3264 N   0  0  0  0  0  0
  -25.9334  -11.6514   20.5776 N   0  0  0  0  0  0
  -22.0476  -12.8194   22.0421 N   0  0  0  0  0  0
  -25.4222  -15.1928   20.4097 N   0  0  0  0  0  0
  -31.8087  -14.8823   20.2155 O   0  0  0  0  0  0
  -21.6635   -6.8902   21.4251 O   0  0  0  0  0  0
  -22.3515  -14.5504   20.6731 O   0  0  0  0  0  0
  -24.6350  -31.8540   23.2007 C   0  0  0  0  0  0
  -25.9192  -32.4751   23.8362 C   0  0  1  0  0  0
  -27.2269  -27.2657   20.1066 C   0  0  0  0  0  0
  -25.5974  -33.8542   24.2255 N   0  0  0  0  0  0
  -23.4331  -30.4785   21.5510 C   0  0  2  0  0  0
  -24.8751  -28.9289   20.1105 C   0  0  0  0  0  0
  -22.7543  -29.4606   22.4980 C   0  0  0  0  0  0
  -18.0345  -28.1397   22.8537 C   0  0  0  0  0  0
  -24.1535  -36.7286   23.2644 C   0  0  0  0  0  0
  -25.9812  -30.7638   21.3873 C   0  0  0  0  0  0
  -26.0489  -29.3890   20.7194 C   0  0  0  0  0  0
  -27.2241  -28.5701   20.7044 C   0  0  0  0  0  0
  -26.0226  -26.8784   19.4653 C   0  0  0  0  0  0
  -24.8646  -27.6789   19.4744 C   0  0  0  0  0  0
  -23.6488  -29.8186   20.1654 C   0  0  0  0  0  0
  -25.4160  -36.3042   24.0319 C   0  0  1  0  0  0
  -20.5942  -28.3685   23.1280 C   0  0  2  0  0  0
  -20.6846  -26.9412   22.5411 C   0  0  0  0  0  0
  -19.5806  -26.6398   21.5253 C   0  0  0  0  0  0
  -18.1975  -26.7963   22.1649 C   0  0  0  0  0  0
  -19.1608  -28.8866   23.2903 C   0  0  0  0  0  0
  -18.9486  -30.1477   23.8902 C   0  0  0  0  0  0
  -17.6468  -30.6566   24.0599 C   0  0  0  0  0  0
  -25.9072  -34.9415   23.5070 C   0  0  0  0  0  0
  -16.5360  -29.9047   23.6349 C   0  0  0  0  0  0
  -16.7337  -28.6495   23.0339 C   0  0  0  0  0  0
  -26.4514  -31.6603   25.0774 C   0  0  0  0  0  0
  -25.3719  -31.3667   26.1473 C   0  0  0  0  0  0
  -27.0366  -30.3049   24.6219 C   0  0  0  0  0  0
  -27.6059  -32.4368   25.7513 C   0  0  0  0  0  0
  -27.5608  -37.1788   24.8454 C   0  0  0  0  0  0
  -21.4264  -29.3020   22.3679 N   0  0  0  0  0  0
  -26.4313  -37.3755   23.9374 N   0  0  0  0  0  0
  -24.7028  -31.0501   22.1012 N   0  0  0  0  0  0
  -23.4226  -28.8160   23.3110 O   0  0  0  0  0  0
  -28.3507  -26.4041   20.1837 O   0  0  0  0  0  0
  -26.5668  -34.8895   22.4643 O   0  0  0  0  0  0
  -23.5488  -32.1352   23.7286 O   0  0  0  0  0  0
  -29.7219  -21.1337   20.5258 C   0  0  0  0  0  0
  -27.8910  -21.9029   19.1656 C   0  0  0  0  0  0
  -28.8841  -22.2511   20.1020 C   0  0  0  0  0  0
  -29.5661  -19.7798   19.9947 C   0  0  0  0  0  0
  -28.5144  -19.6442   19.0516 C   0  0  0  0  0  0
  -28.2243  -18.3219   18.3515 C   0  0  0  0  0  0
  -30.2820  -24.1680   21.2352 C   0  0  0  0  0  0
  -30.0382  -17.2866   21.2081 C   0  0  0  0  0  0
  -28.3533  -24.9736   19.7103 C   0  0  0  0  0  0
  -28.9177  -23.7671   20.6419 C   0  0  1  0  0  0
  -30.5130  -18.4988   20.2457 C   0  0  2  0  0  0
  -27.7127  -20.6601   18.6702 N   0  0  0  0  0  0
  -29.8135  -15.8449   20.7397 N   0  0  0  0  0  0
  -31.8743  -18.9368   20.6048 N   0  3  0  0  0  0
  -31.4833  -12.6300   19.1426 H   0  0  0  0  0  0
  -30.4299  -11.5026   19.9532 H   0  0  0  0  0  0
  -29.7963  -11.7208   17.5246 H   0  0  0  0  0  0
  -29.6121  -13.4492   17.7087 H   0  0  0  0  0  0
  -27.9269  -11.2599   18.9648 H   0  0  0  0  0  0
  -27.3708  -12.4484   17.8171 H   0  0  0  0  0  0
  -27.6340  -14.2375   19.4441 H   0  0  0  0  0  0
  -28.7349  -12.1692   21.4141 H   0  0  0  0  0  0
  -28.4206  -13.8406   21.7898 H   0  0  0  0  0  0
  -25.2763   -9.5665   22.4787 H   0  0  0  0  0  0
  -23.9999   -7.4627   22.7473 H   0  0  0  0  0  0
  -21.0861   -8.8793   19.8944 H   0  0  0  0  0  0
  -22.3731  -10.9688   19.6175 H   0  0  0  0  0  0
  -21.1993   -7.6149   23.9716 H   0  0  0  0  0  0
  -21.1486   -6.0528   25.9079 H   0  0  0  0  0  0
  -22.0598   -2.7610   23.2841 H   0  0  0  0  0  0
  -22.4082  -11.9867   22.4782 H   0  0  0  0  0  0
  -21.1099  -13.1208   22.2643 H   0  0  0  0  0  0
  -24.6453  -15.8386   20.5100 H   0  0  0  0  0  0
  -26.2584  -15.6303   20.0457 H   0  0  0  0  0  0
  -26.7245  -32.5411   23.1086 H   0  0  0  0  0  0
  -25.0104  -33.9697   25.0391 H   0  0  0  0  0  0
  -22.7303  -31.3041   21.4126 H   0  0  0  0  0  0
  -23.3774  -35.9628   23.3280 H   0  0  0  0  0  0
  -24.3581  -36.8966   22.2052 H   0  0  0  0  0  0
  -23.7316  -37.6498   23.6687 H   0  0  0  0  0  0
  -26.1268  -31.5342   20.6312 H   0  0  0  0  0  0
  -26.8576  -30.7987   22.0272 H   0  0  0  0  0  0
  -28.1267  -28.9234   21.1839 H   0  0  0  0  0  0
  -25.9079  -25.9433   18.9466 H   0  0  0  0  0  0
  -23.9692  -27.3206   18.9809 H   0  0  0  0  0  0
  -23.7760  -30.6050   19.4202 H   0  0  0  0  0  0
  -22.7635  -29.2638   19.8577 H   0  0  0  0  0  0
  -25.1338  -36.1891   25.0807 H   0  0  0  0  0  0
  -21.0039  -28.3294   24.1419 H   0  0  0  0  0  0
  -20.5867  -26.2289   23.3626 H   0  0  0  0  0  0
  -21.6693  -26.7579   22.1146 H   0  0  0  0  0  0
  -19.6965  -25.6318   21.1283 H   0  0  0  0  0  0
  -19.6715  -27.3233   20.6806 H   0  0  0  0  0  0
  -17.4285  -26.6796   21.3999 H   0  0  0  0  0  0
  -18.0300  -26.0064   22.8988 H   0  0  0  0  0  0
  -19.7920  -30.7344   24.2245 H   0  0  0  0  0  0
  -17.4969  -31.6256   24.5178 H   0  0  0  0  0  0
  -15.5323  -30.2881   23.7677 H   0  0  0  0  0  0
  -15.8786  -28.0814   22.6946 H   0  0  0  0  0  0
  -24.5904  -30.7067   25.7699 H   0  0  0  0  0  0
  -24.8894  -32.2780   26.5019 H   0  0  0  0  0  0
  -25.7974  -30.8714   27.0218 H   0  0  0  0  0  0
  -26.2969  -29.6747   24.1266 H   0  0  0  0  0  0
  -27.4099  -29.7383   25.4754 H   0  0  0  0  0  0
  -27.8789  -30.4370   23.9409 H   0  0  0  0  0  0
  -27.2735  -33.3699   26.2083 H   0  0  0  0  0  0
  -28.3807  -32.6919   25.0266 H   0  0  0  0  0  0
  -28.0797  -31.8552   26.5445 H   0  0  0  0  0  0
  -28.2590  -38.0132   24.7550 H   0  0  0  0  0  0
  -28.1151  -36.2651   24.6229 H   0  0  0  0  0  0
  -27.2287  -37.1387   25.8851 H   0  0  0  0  0  0
  -20.9473  -29.8655   21.6808 H   0  0  0  0  0  0
  -26.0195  -38.2820   24.1378 H   0  0  0  0  0  0
  -30.5099  -21.3195   21.2402 H   0  0  0  0  0  0
  -27.1820  -22.6310   18.8015 H   0  0  0  0  0  0
  -29.0320  -18.0980   17.6523 H   0  0  0  0  0  0
  -27.2939  -18.3531   17.7783 H   0  0  0  0  0  0
  -28.1496  -17.5087   19.0778 H   0  0  0  0  0  0
  -30.5814  -23.5082   22.0491 H   0  0  0  0  0  0
  -30.2323  -25.1743   21.6608 H   0  0  0  0  0  0
  -31.0697  -24.1628   20.4775 H   0  0  0  0  0  0
  -29.0571  -17.5908   21.5821 H   0  0  0  0  0  0
  -30.6515  -17.2566   22.1107 H   0  0  0  0  0  0
  -27.3524  -24.6627   19.4315 H   0  0  0  0  0  0
  -28.9183  -24.9793   18.7732 H   0  0  0  0  0  0
  -28.2255  -23.7272   21.4846 H   0  0  0  0  0  0
  -30.6699  -18.0465   19.2674 H   0  0  0  0  0  0
  -28.8438  -15.5749   20.7998 H   0  0  0  0  0  0
  -31.9149  -19.3777   21.5050 H   0  0  0  0  0  0
  -32.2287  -19.5668   19.9094 H   0  0  0  0  0  0
  -32.4921  -18.1466   20.6145 H   0  0  0  0  0  0
  1 25  1  0  0  0
  1 30  2  0  0  0
  1 83  1  0  0  0
  2  3  1  0  0  0
  2 25  1  0  0  0
  2 85  1  0  0  0
  2 86  1  0  0  0
  3  4  1  0  0  0
  3 87  1  0  0  0
  3 88  1  0  0  0
  4  5  1  0  0  0
  4 89  1  0  0  0
  4 90  1  0  0  0
  5  6  1  0  0  0
  5 26  1  0  0  0
  5 91  1  0  0  0
  6 25  1  0  0  0
  6 92  1  0  0  0
  6 93  1  0  0  0
  7  8  2  0  0  0
  7 26  1  0  0  0
  7 29  1  0  0  0
  8  9  1  0  0  0
  8 22  1  0  0  0
  9 10  1  0  0  0
  9 27  2  0  0  0
 10 11  2  0  0  0
 10 15  1  0  0  0
 11 12  1  0  0  0
 11 94  1  0  0  0
 12 13  2  0  0  0
 12 95  1  0  0  0
 13 14  1  0  0  0
 13 31  1  0  0  0
 14 15  2  0  0  0
 14 96  1  0  0  0
 15 97  1  0  0  0
 16 17  2  0  0  0
 16 21  1  0  0  0
 16 31  1  0  0  0
 17 18  1  0  0  0
 17 98  1  0  0  0
 18 19  2  0  0  0
 18 99  1  0  0  0
 19 20  1  0  0  0
 19 24  1  0  0  0
 20 21  2  0  0  0
 20100  1  0  0  0
 21 23  1  0  0  0
 22 28  1  0  0  0
 22 32  2  0  0  0
 26 27  1  0  0  0
 28101  1  0  0  0
 28102  1  0  0  0
 29103  1  0  0  0
 29104  1  0  0  0
 33 34  1  0  0  0
 33 66  1  0  0  0
 33 70  2  0  0  0
 34 36  1  0  0  0
 34 59  1  0  0  0
 34105  1  0  0  0
 35 44  2  0  0  0
 35 45  1  0  0  0
 35 68  1  0  0  0
 36 56  1  0  0  0
 36106  1  0  0  0
 37 39  1  0  0  0
 37 47  1  0  0  0
 37 66  1  0  0  0
 37107  1  0  0  0
 38 43  2  0  0  0
 38 46  1  0  0  0
 38 47  1  0  0  0
 39 64  1  0  0  0
 39 67  2  0  0  0
 40 52  1  0  0  0
 40 53  2  0  0  0
 40 58  1  0  0  0
 41108  1  0  0  0
 41109  1  0  0  0
 41110  1  0  0  0
 41 48  1  0  0  0
 42 43  1  0  0  0
 42 66  1  0  0  0
 42111  1  0  0  0
 42112  1  0  0  0
 43 44  1  0  0  0
 44113  1  0  0  0
 45 46  2  0  0  0
 45114  1  0  0  0
 46115  1  0  0  0
 47116  1  0  0  0
 47117  1  0  0  0
 48 56  1  0  0  0
 48 65  1  0  0  0
 48118  1  0  0  0
 49 50  1  0  0  0
 49 53  1  0  0  0
 49 64  1  0  0  0
 49119  1  0  0  0
 50 51  1  0  0  0
 50120  1  0  0  0
 50121  1  0  0  0
 51 52  1  0  0  0
 51122  1  0  0  0
 51123  1  0  0  0
 52124  1  0  0  0
 52125  1  0  0  0
 53 54  1  0  0  0
 54 55  2  0  0  0
 54126  1  0  0  0
 55 57  1  0  0  0
 55127  1  0  0  0
 56 69  2  0  0  0
 57 58  2  0  0  0
 57128  1  0  0  0
 58129  1  0  0  0
 59 60  1  0  0  0
 59 61  1  0  0  0
 59 62  1  0  0  0
 60130  1  0  0  0
 60131  1  0  0  0
 60132  1  0  0  0
 61133  1  0  0  0
 61134  1  0  0  0
 61135  1  0  0  0
 62136  1  0  0  0
 62137  1  0  0  0
 62138  1  0  0  0
 63 65  1  0  0  0
 63139  1  0  0  0
 63140  1  0  0  0
 63141  1  0  0  0
 64142  1  0  0  0
 65143  1  0  0  0
 68 79  1  0  0  0
 71 73  2  0  0  0
 71 74  1  0  0  0
 71144  1  0  0  0
 72 73  1  0  0  0
 72 82  2  0  0  0
 72145  1  0  0  0
 73 80  1  0  0  0
 74 75  2  0  0  0
 74 81  1  0  0  0
 75 76  1  0  0  0
 75 82  1  0  0  0
 76146  1  0  0  0
 76147  1  0  0  0
 76148  1  0  0  0
 77149  1  0  0  0
 77150  1  0  0  0
 77151  1  0  0  0
 77 80  1  0  0  0
 78 81  1  0  0  0
 78 83  1  0  0  0
 78152  1  0  0  0
 78153  1  0  0  0
 79 80  1  0  0  0
 79154  1  0  0  0
 79155  1  0  0  0
 80156  1  0  0  0
 81 84  1  0  0  0
 81157  1  0  0  0
 83158  1  0  0  0
 84159  1  0  0  0
 84160  1  0  0  0
 84161  1  0  0  0
M  CHG  1  84   1
M  ISO  4   1 100  68 101  79 101  83 100
M  END
> <chiral flag>
0

> <version>
0

> <s_m_source_file>
/data/baiqing/PycharmProjects/Reinvent-master-3.2/result/LINK_invent/BTK/process_docking_weight1_custom_sum_contain_oxygen_bond_distance_aromatic_linkinvent_7_9_3/rearranged_h_0106.sdf

> <i_m_source_file_index>
51

> <r_mmod_Potential_Energy-OPLS-2005>
-223.394424438477

> <r_mmod_Stretch_Energy-OPLS-2005>
132.492599487305

> <r_mmod_Bend_Energy-OPLS-2005>
196.802169799805

> <r_mmod_Torsional_Energy-OPLS-2005>
251.308868408203

> <r_mmod_Improper_Torsional_Energy-OPLS-2005>
5.21095085144043

> <r_mmod_Van_der_Waal_Energy-OPLS-2005>
141.050918579102

> <r_mmod_Electrostatic_Energy-OPLS-2005>
-532.350280761719

> <r_mmod_Solvation_Energy-OPLS-2005>
-504.891937255859

> <b_mmod_Minimization_Converged-OPLS-2005>
0

> <r_mmod_RMS_Derivative-OPLS-2005>
6.39013385772705

$$$$
51
                    3D
 Structure written by MMmdl.
165174  0  0  1  0            999 V2000
  -30.7310  -14.6305   20.5008 C   0  0  0  0  0  0
  -30.4145  -12.4141   19.4359 C   0  0  0  0  0  0
  -29.4843  -12.4938   18.2112 C   0  0  0  0  0  0
  -28.0115  -12.3525   18.6364 C   0  0  0  0  0  0
  -27.6450  -13.2166   19.8725 C   0  0  2  0  0  0
  -28.7131  -13.0644   20.9850 C   0  0  0  0  0  0
  -25.2396  -13.8039   20.5677 C   0  0  0  0  0  0
  -24.1734  -13.0331   20.9191 C   0  0  0  0  0  0
  -24.6353  -11.6812   20.8766 C   0  0  0  0  0  0
  -23.9062  -10.4205   21.0453 C   0  0  0  0  0  0
  -24.3618   -9.4105   21.9210 C   0  0  0  0  0  0
  -23.6279   -8.2153   22.0761 C   0  0  0  0  0  0
  -22.4249   -8.0231   21.3540 C   0  0  0  0  0  0
  -21.9897   -9.0212   20.4643 C   0  0  0  0  0  0
  -22.7248  -10.2073   20.3073 C   0  0  0  0  0  0
  -21.6818   -6.0708   22.5270 C   0  0  0  0  0  0
  -21.3998   -6.5630   23.8197 C   0  0  0  0  0  0
  -21.3641   -5.6786   24.9165 C   0  0  0  0  0  0
  -21.6044   -4.3051   24.7222 C   0  0  0  0  0  0
  -21.8818   -3.8131   23.4351 C   0  0  0  0  0  0
  -21.9179   -4.6945   22.3402 C   0  0  0  0  0  0
  -22.7751  -13.5145   21.1920 C   0  0  0  0  0  0
  -22.1647   -4.2135   21.0976 F   0  0  0  0  0  0
  -21.5614   -3.4535   25.7736 F   0  0  0  0  0  0
  -29.9935  -13.4713   20.3841 N   0  0  0  0  0  0
  -26.2922  -12.9317   20.3407 N   0  0  0  0  0  0
  -25.9290  -11.6458   20.5760 N   0  0  0  0  0  0
  -22.0434  -12.8147   22.0490 N   0  0  0  0  0  0
  -25.3946  -15.1711   20.4022 N   0  0  0  0  0  0
  -31.9317  -14.5780   20.2148 O   0  0  0  0  0  0
  -21.6600   -6.8844   21.4222 O   0  0  0  0  0  0
  -22.3462  -14.5499   20.6829 O   0  0  0  0  0  0
  -24.6190  -31.8705   23.2176 C   0  0  0  0  0  0
  -25.9051  -32.4868   23.8474 C   0  0  1  0  0  0
  -27.2324  -27.4242   20.0438 C   0  0  0  0  0  0
  -25.5894  -33.8677   24.2385 N   0  0  0  0  0  0
  -23.4034  -30.4984   21.5638 C   0  0  2  0  0  0
  -24.8440  -28.9711   20.1150 C   0  0  0  0  0  0
  -22.7440  -29.4656   22.5054 C   0  0  0  0  0  0
  -18.0269  -28.1401   22.8497 C   0  0  0  0  0  0
  -24.1444  -36.7329   23.2638 C   0  0  0  0  0  0
  -25.9371  -30.8221   21.3762 C   0  0  0  0  0  0
  -26.0067  -29.4559   20.7200 C   0  0  0  0  0  0
  -27.1989  -28.6863   20.6929 C   0  0  0  0  0  0
  -26.0460  -26.9826   19.4069 C   0  0  0  0  0  0
  -24.8607  -27.7342   19.4502 C   0  0  0  0  0  0
  -23.6108  -29.8434   20.1768 C   0  0  0  0  0  0
  -25.4086  -36.3182   24.0350 C   0  0  1  0  0  0
  -20.5852  -28.3674   23.1308 C   0  0  2  0  0  0
  -20.6755  -26.9418   22.5371 C   0  0  0  0  0  0
  -19.5705  -26.6415   21.5197 C   0  0  0  0  0  0
  -18.1894  -26.7950   22.1649 C   0  0  0  0  0  0
  -19.1517  -28.8876   23.2890 C   0  0  0  0  0  0
  -18.9441  -30.1481   23.8907 C   0  0  0  0  0  0
  -17.6431  -30.6603   24.0586 C   0  0  0  0  0  0
  -25.9034  -34.9527   23.5181 C   0  0  0  0  0  0
  -16.5330  -29.9102   23.6312 C   0  0  0  0  0  0
  -16.7254  -28.6525   23.0329 C   0  0  0  0  0  0
  -26.4486  -31.6657   25.0814 C   0  0  0  0  0  0
  -25.3697  -31.3691   26.1505 C   0  0  0  0  0  0
  -27.0269  -30.3112   24.6135 C   0  0  0  0  0  0
  -27.6103  -32.4335   25.7507 C   0  0  0  0  0  0
  -27.5568  -37.1797   24.8508 C   0  0  0  0  0  0
  -21.4165  -29.3060   22.3768 N   0  0  0  0  0  0
  -26.4293  -37.3864   23.9436 N   0  0  0  0  0  0
  -24.6732  -31.0766   22.1122 N   0  0  0  0  0  0
  -23.4238  -28.8157   23.3063 O   0  0  0  0  0  0
  -28.4013  -26.6660   20.0163 O   0  0  0  0  0  0
  -26.5614  -34.8965   22.4756 O   0  0  0  0  0  0
  -23.5363  -32.1442   23.7536 O   0  0  0  0  0  0
  -31.5288  -19.1606   21.8627 C   0  0  0  0  0  0
  -30.7156  -19.5070   19.6268 C   0  0  0  0  0  0
  -31.1091  -18.5813   20.6375 C   0  0  0  0  0  0
  -31.5770  -20.5573   22.0080 C   0  0  0  0  0  0
  -30.7552  -20.9044   19.8794 C   0  0  0  0  0  0
  -28.3042  -17.5881   21.5553 C   0  0  0  0  0  0
  -28.0159  -17.2338   20.1271 C   0  0  0  0  0  0
  -28.7934  -16.2502   20.9947 C   0  0  0  0  0  0
  -32.1035  -21.1985   23.2662 C   0  0  0  0  0  0
  -31.1862  -17.0268   20.4304 C   0  0  0  0  0  0
  -30.3595  -21.9671   18.8466 C   0  0  0  0  0  0
  -29.2267  -22.9394   19.3085 C   0  0  0  0  0  0
  -29.5811  -24.4338   19.6200 C   0  0  0  0  0  0
  -28.3005  -25.3133   19.5118 C   0  0  0  0  0  0
  -31.2043  -21.4111   21.0405 N   0  0  0  0  0  0
  -30.1784  -15.9096   20.6241 N   0  0  0  0  0  0
  -31.4485  -12.5055   19.1005 H   0  0  0  0  0  0
  -30.3505  -11.4356   19.9095 H   0  0  0  0  0  0
  -29.7444  -11.7066   17.5048 H   0  0  0  0  0  0
  -29.6303  -13.4398   17.6876 H   0  0  0  0  0  0
  -27.8444  -11.2966   18.8622 H   0  0  0  0  0  0
  -27.3649  -12.5877   17.7904 H   0  0  0  0  0  0
  -27.6555  -14.2515   19.5286 H   0  0  0  0  0  0
  -28.7441  -12.0234   21.3141 H   0  0  0  0  0  0
  -28.4977  -13.5845   21.9147 H   0  0  0  0  0  0
  -25.2785   -9.5515   22.4779 H   0  0  0  0  0  0
  -23.9964   -7.4526   22.7492 H   0  0  0  0  0  0
  -21.0808   -8.8741   19.8970 H   0  0  0  0  0  0
  -22.3754  -10.9613   19.6162 H   0  0  0  0  0  0
  -21.1993   -7.6140   23.9686 H   0  0  0  0  0  0
  -21.1474   -6.0530   25.9065 H   0  0  0  0  0  0
  -22.0636   -2.7601   23.2846 H   0  0  0  0  0  0
  -22.4108  -11.9846   22.4889 H   0  0  0  0  0  0
  -21.1027  -13.1121   22.2712 H   0  0  0  0  0  0
  -24.6199  -15.8222   20.4942 H   0  0  0  0  0  0
  -26.2451  -15.6028   20.0754 H   0  0  0  0  0  0
  -26.7142  -32.5594   23.1248 H   0  0  0  0  0  0
  -25.0044  -33.9863   25.0530 H   0  0  0  0  0  0
  -22.6881  -31.3112   21.4246 H   0  0  0  0  0  0
  -23.3765  -35.9608   23.3368 H   0  0  0  0  0  0
  -24.3560  -36.8907   22.2053 H   0  0  0  0  0  0
  -23.7082  -37.6509   23.6599 H   0  0  0  0  0  0
  -26.0414  -31.5823   20.6042 H   0  0  0  0  0  0
  -26.8378  -30.8843   21.9753 H   0  0  0  0  0  0
  -28.0918  -29.0594   21.1714 H   0  0  0  0  0  0
  -26.0189  -26.0711   18.8308 H   0  0  0  0  0  0
  -23.9822  -27.3833   18.9279 H   0  0  0  0  0  0
  -23.7268  -30.6346   19.4367 H   0  0  0  0  0  0
  -22.7294  -29.2780   19.8688 H   0  0  0  0  0  0
  -25.1200  -36.2127   25.0829 H   0  0  0  0  0  0
  -20.9922  -28.3246   24.1435 H   0  0  0  0  0  0
  -20.5700  -26.2282   23.3550 H   0  0  0  0  0  0
  -21.6594  -26.7454   22.1097 H   0  0  0  0  0  0
  -19.6853  -25.6339   21.1193 H   0  0  0  0  0  0
  -19.6634  -27.3266   20.6742 H   0  0  0  0  0  0
  -17.4110  -26.6679   21.4100 H   0  0  0  0  0  0
  -18.0337  -26.0110   22.9062 H   0  0  0  0  0  0
  -19.7911  -30.7298   24.2274 H   0  0  0  0  0  0
  -17.4968  -31.6278   24.5197 H   0  0  0  0  0  0
  -15.5328  -30.3003   23.7611 H   0  0  0  0  0  0
  -15.8653  -28.0861   22.6990 H   0  0  0  0  0  0
  -24.5865  -30.7123   25.7725 H   0  0  0  0  0  0
  -24.8893  -32.2792   26.5086 H   0  0  0  0  0  0
  -25.8008  -30.8697   27.0183 H   0  0  0  0  0  0
  -26.2794  -29.6942   24.1149 H   0  0  0  0  0  0
  -27.4014  -29.7304   25.4579 H   0  0  0  0  0  0
  -27.8653  -30.4526   23.9316 H   0  0  0  0  0  0
  -27.2842  -33.3610   26.2227 H   0  0  0  0  0  0
  -28.3801  -32.6953   25.0227 H   0  0  0  0  0  0
  -28.0897  -31.8363   26.5279 H   0  0  0  0  0  0
  -28.2625  -38.0050   24.7547 H   0  0  0  0  0  0
  -28.1005  -36.2594   24.6341 H   0  0  0  0  0  0
  -27.2304  -37.1468   25.8917 H   0  0  0  0  0  0
  -20.9345  -29.8832   21.7020 H   0  0  0  0  0  0
  -26.0241  -38.2951   24.1506 H   0  0  0  0  0  0
  -31.8367  -18.5442   22.6985 H   0  0  0  0  0  0
  -30.3967  -19.1614   18.6504 H   0  0  0  0  0  0
  -27.4642  -17.5430   22.2464 H   0  0  0  0  0  0
  -28.9202  -18.4674   21.7029 H   0  0  0  0  0  0
  -28.5432  -17.7739   19.3438 H   0  0  0  0  0  0
  -26.9668  -17.0769   19.9121 H   0  0  0  0  0  0
  -28.2176  -15.4809   21.4739 H   0  0  0  0  0  0
  -31.4197  -21.9668   23.6206 H   0  0  0  0  0  0
  -33.0655  -21.6619   23.0474 H   0  0  0  0  0  0
  -32.2498  -20.4752   24.0682 H   0  0  0  0  0  0
  -30.6087  -17.1290   19.5156 H   0  0  0  0  0  0
  -30.9814  -16.9767   21.4978 H   0  0  0  0  0  0
  -30.0017  -21.4243   17.9716 H   0  0  0  0  0  0
  -31.2425  -22.5095   18.5027 H   0  0  0  0  0  0
  -28.4875  -22.9481   18.5070 H   0  0  0  0  0  0
  -28.6948  -22.5176   20.1597 H   0  0  0  0  0  0
  -30.3442  -24.8208   18.9371 H   0  0  0  0  0  0
  -30.0077  -24.5041   20.6216 H   0  0  0  0  0  0
  -27.4945  -24.8010   20.0478 H   0  0  0  0  0  0
  -28.0150  -25.3407   18.4523 H   0  0  0  0  0  0
  1 25  1  0  0  0
  1 30  2  0  0  0
  1 86  1  0  0  0
  2  3  1  0  0  0
  2 25  1  0  0  0
  2 87  1  0  0  0
  2 88  1  0  0  0
  3  4  1  0  0  0
  3 89  1  0  0  0
  3 90  1  0  0  0
  4  5  1  0  0  0
  4 91  1  0  0  0
  4 92  1  0  0  0
  5  6  1  0  0  0
  5 26  1  0  0  0
  5 93  1  0  0  0
  6 25  1  0  0  0
  6 94  1  0  0  0
  6 95  1  0  0  0
  7  8  2  0  0  0
  7 26  1  0  0  0
  7 29  1  0  0  0
  8  9  1  0  0  0
  8 22  1  0  0  0
  9 10  1  0  0  0
  9 27  2  0  0  0
 10 11  2  0  0  0
 10 15  1  0  0  0
 11 12  1  0  0  0
 11 96  1  0  0  0
 12 13  2  0  0  0
 12 97  1  0  0  0
 13 14  1  0  0  0
 13 31  1  0  0  0
 14 15  2  0  0  0
 14 98  1  0  0  0
 15 99  1  0  0  0
 16 17  2  0  0  0
 16 21  1  0  0  0
 16 31  1  0  0  0
 17 18  1  0  0  0
 17100  1  0  0  0
 18 19  2  0  0  0
 18101  1  0  0  0
 19 20  1  0  0  0
 19 24  1  0  0  0
 20 21  2  0  0  0
 20102  1  0  0  0
 21 23  1  0  0  0
 22 28  1  0  0  0
 22 32  2  0  0  0
 26 27  1  0  0  0
 28103  1  0  0  0
 28104  1  0  0  0
 29105  1  0  0  0
 29106  1  0  0  0
 33 34  1  0  0  0
 33 66  1  0  0  0
 33 70  2  0  0  0
 34 36  1  0  0  0
 34 59  1  0  0  0
 34107  1  0  0  0
 35 44  2  0  0  0
 35 45  1  0  0  0
 35 68  1  0  0  0
 36 56  1  0  0  0
 36108  1  0  0  0
 37 39  1  0  0  0
 37 47  1  0  0  0
 37 66  1  0  0  0
 37109  1  0  0  0
 38 43  2  0  0  0
 38 46  1  0  0  0
 38 47  1  0  0  0
 39 64  1  0  0  0
 39 67  2  0  0  0
 40 52  1  0  0  0
 40 53  2  0  0  0
 40 58  1  0  0  0
 41110  1  0  0  0
 41111  1  0  0  0
 41112  1  0  0  0
 41 48  1  0  0  0
 42 43  1  0  0  0
 42 66  1  0  0  0
 42113  1  0  0  0
 42114  1  0  0  0
 43 44  1  0  0  0
 44115  1  0  0  0
 45 46  2  0  0  0
 45116  1  0  0  0
 46117  1  0  0  0
 47118  1  0  0  0
 47119  1  0  0  0
 48 56  1  0  0  0
 48 65  1  0  0  0
 48120  1  0  0  0
 49 50  1  0  0  0
 49 53  1  0  0  0
 49 64  1  0  0  0
 49121  1  0  0  0
 50 51  1  0  0  0
 50122  1  0  0  0
 50123  1  0  0  0
 51 52  1  0  0  0
 51124  1  0  0  0
 51125  1  0  0  0
 52126  1  0  0  0
 52127  1  0  0  0
 53 54  1  0  0  0
 54 55  2  0  0  0
 54128  1  0  0  0
 55 57  1  0  0  0
 55129  1  0  0  0
 56 69  2  0  0  0
 57 58  2  0  0  0
 57130  1  0  0  0
 58131  1  0  0  0
 59 60  1  0  0  0
 59 61  1  0  0  0
 59 62  1  0  0  0
 60132  1  0  0  0
 60133  1  0  0  0
 60134  1  0  0  0
 61135  1  0  0  0
 61136  1  0  0  0
 61137  1  0  0  0
 62138  1  0  0  0
 62139  1  0  0  0
 62140  1  0  0  0
 63 65  1  0  0  0
 63141  1  0  0  0
 63142  1  0  0  0
 63143  1  0  0  0
 64144  1  0  0  0
 65145  1  0  0  0
 68 84  1  0  0  0
 71 73  2  0  0  0
 71 74  1  0  0  0
 71146  1  0  0  0
 72 73  1  0  0  0
 72 75  2  0  0  0
 72147  1  0  0  0
 73 80  1  0  0  0
 74 79  1  0  0  0
 74 85  2  0  0  0
 75 81  1  0  0  0
 75 85  1  0  0  0
 76 77  1  0  0  0
 76 78  1  0  0  0
 76148  1  0  0  0
 76149  1  0  0  0
 77 78  1  0  0  0
 77150  1  0  0  0
 77151  1  0  0  0
 78 86  1  0  0  0
 78152  1  0  0  0
 79153  1  0  0  0
 79154  1  0  0  0
 79155  1  0  0  0
 80 86  1  0  0  0
 80156  1  0  0  0
 80157  1  0  0  0
 81 82  1  0  0  0
 81158  1  0  0  0
 81159  1  0  0  0
 82 83  1  0  0  0
 82160  1  0  0  0
 82161  1  0  0  0
 83 84  1  0  0  0
 83162  1  0  0  0
 83163  1  0  0  0
 84164  1  0  0  0
 84165  1  0  0  0
M  ISO  4   1 100  68 101  84 101  86 100
M  END
> <chiral flag>
0

> <version>
0

> <s_m_source_file>
/data/baiqing/PycharmProjects/Reinvent-master-3.2/result/LINK_invent/BTK/process_docking_weight1_custom_sum_contain_oxygen_bond_distance_aromatic_linkinvent_7_9_3/rearranged_h_0106.sdf

> <i_m_source_file_index>
52

> <r_mmod_Potential_Energy-OPLS-2005>
313.823150634766

> <r_mmod_Stretch_Energy-OPLS-2005>
69.7419509887695

> <r_mmod_Bend_Energy-OPLS-2005>
378.357269287109

> <r_mmod_Torsional_Energy-OPLS-2005>
328.913726806641

> <r_mmod_Improper_Torsional_Energy-OPLS-2005>
7.55927896499634

> <r_mmod_Van_der_Waal_Energy-OPLS-2005>
203.3876953125

> <r_mmod_Electrostatic_Energy-OPLS-2005>
-503.245422363281

> <r_mmod_Solvation_Energy-OPLS-2005>
-210.751815795898

> <b_mmod_Minimization_Converged-OPLS-2005>
0

> <r_mmod_RMS_Derivative-OPLS-2005>
8.09138107299805

$$$$
52
                    3D
 Structure written by MMmdl.
184192  0  0  1  0            999 V2000
  -30.5559  -14.7861   20.4456 C   0  0  0  0  0  0
  -30.4388  -12.4840   19.4657 C   0  0  0  0  0  0
  -29.5107  -12.5141   18.2303 C   0  0  0  0  0  0
  -28.0361  -12.3342   18.6461 C   0  0  0  0  0  0
  -27.6397  -13.2276   19.8512 C   0  0  2  0  0  0
  -28.6866  -13.1575   20.9839 C   0  0  0  0  0  0
  -25.2532  -13.8106   20.5730 C   0  0  0  0  0  0
  -24.1816  -13.0410   20.9261 C   0  0  0  0  0  0
  -24.6393  -11.6874   20.8776 C   0  0  0  0  0  0
  -23.9059  -10.4274   21.0405 C   0  0  0  0  0  0
  -24.3620   -9.4194   21.9179 C   0  0  0  0  0  0
  -23.6299   -8.2229   22.0739 C   0  0  0  0  0  0
  -22.4264   -8.0286   21.3538 C   0  0  0  0  0  0
  -21.9916   -9.0247   20.4635 C   0  0  0  0  0  0
  -22.7243  -10.2126   20.3049 C   0  0  0  0  0  0
  -21.6835   -6.0769   22.5290 C   0  0  0  0  0  0
  -21.4011   -6.5656   23.8234 C   0  0  0  0  0  0
  -21.3658   -5.6796   24.9174 C   0  0  0  0  0  0
  -21.6042   -4.3063   24.7193 C   0  0  0  0  0  0
  -21.8819   -3.8177   23.4303 C   0  0  0  0  0  0
  -21.9182   -4.7007   22.3389 C   0  0  0  0  0  0
  -22.7840  -13.5208   21.1894 C   0  0  0  0  0  0
  -22.1643   -4.2216   21.0955 F   0  0  0  0  0  0
  -21.5619   -3.4529   25.7691 F   0  0  0  0  0  0
  -29.9772  -13.5360   20.3995 N   0  0  0  0  0  0
  -26.2939  -12.9329   20.3286 N   0  0  0  0  0  0
  -25.9318  -11.6483   20.5769 N   0  0  0  0  0  0
  -22.0441  -12.8218   22.0402 N   0  0  0  0  0  0
  -25.4211  -15.1811   20.4092 N   0  0  0  0  0  0
  -31.7463  -14.9223   20.1504 O   0  0  0  0  0  0
  -21.6609   -6.8900   21.4250 O   0  0  0  0  0  0
  -22.3588  -14.5550   20.6769 O   0  0  0  0  0  0
  -24.6349  -31.8540   23.1965 C   0  0  0  0  0  0
  -25.9165  -32.4742   23.8325 C   0  0  1  0  0  0
  -27.2183  -27.2426   20.1311 C   0  0  0  0  0  0
  -25.5954  -33.8551   24.2253 N   0  0  0  0  0  0
  -23.4323  -30.4789   21.5381 C   0  0  2  0  0  0
  -24.8785  -28.9169   20.1098 C   0  0  0  0  0  0
  -22.7521  -29.4622   22.4904 C   0  0  0  0  0  0
  -18.0312  -28.1370   22.8477 C   0  0  0  0  0  0
  -24.1492  -36.7274   23.2640 C   0  0  0  0  0  0
  -25.9819  -30.7602   21.3772 C   0  0  0  0  0  0
  -26.0518  -29.3813   20.7178 C   0  0  0  0  0  0
  -27.2233  -28.5576   20.7148 C   0  0  0  0  0  0
  -26.0181  -26.8458   19.5055 C   0  0  0  0  0  0
  -24.8671  -27.6580   19.4910 C   0  0  0  0  0  0
  -23.6559  -29.8122   20.1549 C   0  0  0  0  0  0
  -25.4122  -36.3083   24.0338 C   0  0  1  0  0  0
  -20.5915  -28.3700   23.1213 C   0  0  2  0  0  0
  -20.6837  -26.9448   22.5262 C   0  0  0  0  0  0
  -19.5721  -26.6342   21.5194 C   0  0  0  0  0  0
  -18.1976  -26.7848   22.1723 C   0  0  0  0  0  0
  -19.1560  -28.8849   23.2838 C   0  0  0  0  0  0
  -18.9472  -30.1433   23.8884 C   0  0  0  0  0  0
  -17.6475  -30.6551   24.0584 C   0  0  0  0  0  0
  -25.9063  -34.9446   23.5092 C   0  0  0  0  0  0
  -16.5374  -29.9060   23.6325 C   0  0  0  0  0  0
  -16.7292  -28.6482   23.0323 C   0  0  0  0  0  0
  -26.4525  -31.6560   25.0722 C   0  0  0  0  0  0
  -25.3757  -31.3690   26.1441 C   0  0  0  0  0  0
  -27.0392  -30.2992   24.6215 C   0  0  0  0  0  0
  -27.6079  -32.4307   25.7475 C   0  0  0  0  0  0
  -27.5597  -37.1804   24.8471 C   0  0  0  0  0  0
  -21.4219  -29.3086   22.3646 N   0  0  0  0  0  0
  -26.4294  -37.3793   23.9432 N   0  0  0  0  0  0
  -24.7025  -31.0521   22.0922 N   0  0  0  0  0  0
  -23.4172  -28.8145   23.3016 O   0  0  0  0  0  0
  -28.3304  -26.3669   20.1958 O   0  0  0  0  0  0
  -26.5625  -34.8914   22.4651 O   0  0  0  0  0  0
  -23.5487  -32.1332   23.7247 O   0  0  0  0  0  0
  -28.8063  -20.9718   20.3194 C   0  0  0  0  0  0
  -27.9470  -22.0884   20.1892 C   0  0  0  0  0  0
  -26.7365  -21.4908   19.6601 C   0  0  0  0  0  0
  -26.8922  -20.1099   19.5832 C   0  0  0  0  0  0
  -28.7112  -22.8610   23.0818 C   0  0  0  0  0  0
  -25.5188  -23.0757   18.0319 C   0  0  0  0  0  0
  -24.6430  -22.7951   20.4595 C   0  0  0  0  0  0
  -25.5980  -19.1463   17.6088 C   0  0  0  0  0  0
  -23.5251  -17.9865   19.4242 C   0  0  0  0  0  0
  -29.0753  -23.7496   21.8811 C   0  0  0  0  0  0
  -28.5853  -18.2173   19.9999 C   0  0  0  0  0  0
  -29.8840  -17.4157   20.5391 C   0  0  0  0  0  0
  -24.9140  -18.6678   21.4818 C   0  0  0  0  0  0
  -28.3582  -24.9314   19.7062 C   0  0  0  0  0  0
  -28.1064  -23.6429   20.6826 C   0  0  1  0  0  0
  -25.4221  -22.1876   19.2755 C   0  0  0  0  0  0
  -25.8605  -19.0628   19.1248 C   0  0  2  0  0  0
  -24.5673  -18.9711   20.0044 C   0  0  1  0  0  0
  -28.1829  -19.7262   19.9980 N   0  0  0  0  0  0
  -29.7092  -15.8785   20.6218 N   0  0  0  0  0  0
  -23.7439  -18.7919   22.3688 N   0  3  0  0  0  0
  -31.4762  -12.6387   19.1611 H   0  0  0  0  0  0
  -30.4084  -11.5065   19.9489 H   0  0  0  0  0  0
  -29.7963  -11.7293   17.5288 H   0  0  0  0  0  0
  -29.6341  -13.4593   17.6986 H   0  0  0  0  0  0
  -27.8922  -11.2840   18.9030 H   0  0  0  0  0  0
  -27.3739  -12.5354   17.8050 H   0  0  0  0  0  0
  -27.6244  -14.2517   19.4762 H   0  0  0  0  0  0
  -28.7385  -12.1529   21.4038 H   0  0  0  0  0  0
  -28.4196  -13.8220   21.8081 H   0  0  0  0  0  0
  -25.2754   -9.5666   22.4753 H   0  0  0  0  0  0
  -24.0037   -7.4592   22.7418 H   0  0  0  0  0  0
  -21.0871   -8.8742   19.8903 H   0  0  0  0  0  0
  -22.3703  -10.9666   19.6157 H   0  0  0  0  0  0
  -21.2013   -7.6163   23.9759 H   0  0  0  0  0  0
  -21.1476   -6.0503   25.9084 H   0  0  0  0  0  0
  -22.0608   -2.7644   23.2755 H   0  0  0  0  0  0
  -22.4009  -11.9868   22.4828 H   0  0  0  0  0  0
  -21.1028  -13.1215   22.2506 H   0  0  0  0  0  0
  -24.5897  -15.7552   20.3579 H   0  0  0  0  0  0
  -26.2026  -15.5552   19.8915 H   0  0  0  0  0  0
  -26.7227  -32.5409   23.1055 H   0  0  0  0  0  0
  -25.0230  -33.9660   25.0492 H   0  0  0  0  0  0
  -22.7234  -31.2994   21.3888 H   0  0  0  0  0  0
  -23.3794  -35.9572   23.3290 H   0  0  0  0  0  0
  -24.3581  -36.8895   22.2058 H   0  0  0  0  0  0
  -23.7189  -37.6457   23.6647 H   0  0  0  0  0  0
  -26.1345  -31.5190   20.6083 H   0  0  0  0  0  0
  -26.8558  -30.8018   22.0172 H   0  0  0  0  0  0
  -28.1249  -28.9148   21.1936 H   0  0  0  0  0  0
  -25.9293  -25.8827   19.0425 H   0  0  0  0  0  0
  -23.9654  -27.2910   19.0183 H   0  0  0  0  0  0
  -23.8001  -30.5879   19.4009 H   0  0  0  0  0  0
  -22.7713  -29.2579   19.8386 H   0  0  0  0  0  0
  -25.1308  -36.1946   25.0839 H   0  0  0  0  0  0
  -20.9987  -28.3245   24.1332 H   0  0  0  0  0  0
  -20.6011  -26.2240   23.3403 H   0  0  0  0  0  0
  -21.6623  -26.7589   22.0823 H   0  0  0  0  0  0
  -19.6853  -25.6228   21.1283 H   0  0  0  0  0  0
  -19.6574  -27.3096   20.6670 H   0  0  0  0  0  0
  -17.4163  -26.6373   21.4279 H   0  0  0  0  0  0
  -18.0585  -26.0062   22.9227 H   0  0  0  0  0  0
  -19.7960  -30.7196   24.2288 H   0  0  0  0  0  0
  -17.5036  -31.6191   24.5277 H   0  0  0  0  0  0
  -15.5382  -30.2967   23.7623 H   0  0  0  0  0  0
  -15.8675  -28.0814   22.7041 H   0  0  0  0  0  0
  -24.5949  -30.7010   25.7767 H   0  0  0  0  0  0
  -24.8952  -32.2866   26.4867 H   0  0  0  0  0  0
  -25.8118  -30.8877   27.0206 H   0  0  0  0  0  0
  -26.2983  -29.6700   24.1275 H   0  0  0  0  0  0
  -27.4120  -29.7288   25.4725 H   0  0  0  0  0  0
  -27.8839  -30.4289   23.9445 H   0  0  0  0  0  0
  -27.2705  -33.3616   26.2033 H   0  0  0  0  0  0
  -28.3911  -32.6824   25.0312 H   0  0  0  0  0  0
  -28.0725  -31.8443   26.5404 H   0  0  0  0  0  0
  -28.2619  -38.0104   24.7577 H   0  0  0  0  0  0
  -28.1089  -36.2641   24.6249 H   0  0  0  0  0  0
  -27.2306  -37.1417   25.8866 H   0  0  0  0  0  0
  -20.9428  -29.8801   21.6843 H   0  0  0  0  0  0
  -26.0180  -38.2876   24.1433 H   0  0  0  0  0  0
  -29.8213  -20.9485   20.6921 H   0  0  0  0  0  0
  -29.3597  -23.0720   23.9315 H   0  0  0  0  0  0
  -28.8116  -21.8015   22.8533 H   0  0  0  0  0  0
  -27.6833  -23.0324   23.4010 H   0  0  0  0  0  0
  -26.0735  -23.9821   18.1959 H   0  0  0  0  0  0
  -24.5276  -23.3749   17.6915 H   0  0  0  0  0  0
  -25.9916  -22.5356   17.2103 H   0  0  0  0  0  0
  -24.5689  -22.0809   21.2812 H   0  0  0  0  0  0
  -23.6210  -23.0367   20.1644 H   0  0  0  0  0  0
  -25.0753  -23.7125   20.8486 H   0  0  0  0  0  0
  -26.5403  -19.2019   17.0629 H   0  0  0  0  0  0
  -24.9995  -20.0055   17.3213 H   0  0  0  0  0  0
  -25.0858  -18.2538   17.2471 H   0  0  0  0  0  0
  -22.6807  -17.8236   20.0933 H   0  0  0  0  0  0
  -23.9546  -17.0146   19.1924 H   0  0  0  0  0  0
  -23.0985  -18.3717   18.4968 H   0  0  0  0  0  0
  -30.0900  -23.5250   21.5584 H   0  0  0  0  0  0
  -29.0948  -24.7833   22.2297 H   0  0  0  0  0  0
  -27.7960  -17.7361   20.5754 H   0  0  0  0  0  0
  -28.4604  -17.8876   18.9667 H   0  0  0  0  0  0
  -30.1319  -17.7769   21.5381 H   0  0  0  0  0  0
  -30.7448  -17.6418   19.9071 H   0  0  0  0  0  0
  -25.6608  -19.3761   21.8432 H   0  0  0  0  0  0
  -25.3534  -17.6747   21.5856 H   0  0  0  0  0  0
  -27.7864  -24.8688   18.7910 H   0  0  0  0  0  0
  -29.3778  -24.8063   19.3436 H   0  0  0  0  0  0
  -27.1428  -23.8658   21.1278 H   0  0  0  0  0  0
  -24.7544  -21.4302   18.8972 H   0  0  0  0  0  0
  -26.2624  -18.0606   19.2125 H   0  0  0  0  0  0
  -24.0555  -19.9245   20.0226 H   0  0  0  0  0  0
  -28.7649  -15.5953   20.8365 H   0  0  0  0  0  0
  -23.3264  -19.7029   22.2869 H   0  0  0  0  0  0
  -24.0215  -18.6603   23.3251 H   0  0  0  0  0  0
  -23.0483  -18.1013   22.1505 H   0  0  0  0  0  0
  1 25  1  0  0  0
  1 30  2  0  0  0
  1 90  1  0  0  0
  2  3  1  0  0  0
  2 25  1  0  0  0
  2 92  1  0  0  0
  2 93  1  0  0  0
  3  4  1  0  0  0
  3 94  1  0  0  0
  3 95  1  0  0  0
  4  5  1  0  0  0
  4 96  1  0  0  0
  4 97  1  0  0  0
  5  6  1  0  0  0
  5 26  1  0  0  0
  5 98  1  0  0  0
  6 25  1  0  0  0
  6 99  1  0  0  0
  6100  1  0  0  0
  7  8  2  0  0  0
  7 26  1  0  0  0
  7 29  1  0  0  0
  8  9  1  0  0  0
  8 22  1  0  0  0
  9 10  1  0  0  0
  9 27  2  0  0  0
 10 11  2  0  0  0
 10 15  1  0  0  0
 11 12  1  0  0  0
 11101  1  0  0  0
 12 13  2  0  0  0
 12102  1  0  0  0
 13 14  1  0  0  0
 13 31  1  0  0  0
 14 15  2  0  0  0
 14103  1  0  0  0
 15104  1  0  0  0
 16 17  2  0  0  0
 16 21  1  0  0  0
 16 31  1  0  0  0
 17 18  1  0  0  0
 17105  1  0  0  0
 18 19  2  0  0  0
 18106  1  0  0  0
 19 20  1  0  0  0
 19 24  1  0  0  0
 20 21  2  0  0  0
 20107  1  0  0  0
 21 23  1  0  0  0
 22 28  1  0  0  0
 22 32  2  0  0  0
 26 27  1  0  0  0
 28108  1  0  0  0
 28109  1  0  0  0
 29110  1  0  0  0
 29111  1  0  0  0
 33 34  1  0  0  0
 33 66  1  0  0  0
 33 70  2  0  0  0
 34 36  1  0  0  0
 34 59  1  0  0  0
 34112  1  0  0  0
 35 44  2  0  0  0
 35 45  1  0  0  0
 35 68  1  0  0  0
 36 56  1  0  0  0
 36113  1  0  0  0
 37 39  1  0  0  0
 37 47  1  0  0  0
 37 66  1  0  0  0
 37114  1  0  0  0
 38 43  2  0  0  0
 38 46  1  0  0  0
 38 47  1  0  0  0
 39 64  1  0  0  0
 39 67  2  0  0  0
 40 52  1  0  0  0
 40 53  2  0  0  0
 40 58  1  0  0  0
 41115  1  0  0  0
 41116  1  0  0  0
 41117  1  0  0  0
 41 48  1  0  0  0
 42 43  1  0  0  0
 42 66  1  0  0  0
 42118  1  0  0  0
 42119  1  0  0  0
 43 44  1  0  0  0
 44120  1  0  0  0
 45 46  2  0  0  0
 45121  1  0  0  0
 46122  1  0  0  0
 47123  1  0  0  0
 47124  1  0  0  0
 48 56  1  0  0  0
 48 65  1  0  0  0
 48125  1  0  0  0
 49 50  1  0  0  0
 49 53  1  0  0  0
 49 64  1  0  0  0
 49126  1  0  0  0
 50 51  1  0  0  0
 50127  1  0  0  0
 50128  1  0  0  0
 51 52  1  0  0  0
 51129  1  0  0  0
 51130  1  0  0  0
 52131  1  0  0  0
 52132  1  0  0  0
 53 54  1  0  0  0
 54 55  2  0  0  0
 54133  1  0  0  0
 55 57  1  0  0  0
 55134  1  0  0  0
 56 69  2  0  0  0
 57 58  2  0  0  0
 57135  1  0  0  0
 58136  1  0  0  0
 59 60  1  0  0  0
 59 61  1  0  0  0
 59 62  1  0  0  0
 60137  1  0  0  0
 60138  1  0  0  0
 60139  1  0  0  0
 61140  1  0  0  0
 61141  1  0  0  0
 61142  1  0  0  0
 62143  1  0  0  0
 62144  1  0  0  0
 62145  1  0  0  0
 63 65  1  0  0  0
 63146  1  0  0  0
 63147  1  0  0  0
 63148  1  0  0  0
 64149  1  0  0  0
 65150  1  0  0  0
 68 84  1  0  0  0
 71 72  2  0  0  0
 71 89  1  0  0  0
 71151  1  0  0  0
 72 73  1  0  0  0
 72 85  1  0  0  0
 73 74  2  0  0  0
 73 86  1  0  0  0
 74 87  1  0  0  0
 74 89  1  0  0  0
 75 80  1  0  0  0
 75152  1  0  0  0
 75153  1  0  0  0
 75154  1  0  0  0
 76155  1  0  0  0
 76156  1  0  0  0
 76157  1  0  0  0
 76 86  1  0  0  0
 77 86  1  0  0  0
 77158  1  0  0  0
 77159  1  0  0  0
 77160  1  0  0  0
 78161  1  0  0  0
 78162  1  0  0  0
 78163  1  0  0  0
 78 87  1  0  0  0
 79164  1  0  0  0
 79165  1  0  0  0
 79166  1  0  0  0
 79 88  1  0  0  0
 80167  1  0  0  0
 80168  1  0  0  0
 80 85  1  0  0  0
 81 82  1  0  0  0
 81 89  1  0  0  0
 81169  1  0  0  0
 81170  1  0  0  0
 82 90  1  0  0  0
 82171  1  0  0  0
 82172  1  0  0  0
 83 88  1  0  0  0
 83 91  1  0  0  0
 83173  1  0  0  0
 83174  1  0  0  0
 84 85  1  0  0  0
 84175  1  0  0  0
 84176  1  0  0  0
 85177  1  0  0  0
 86178  1  0  0  0
 87 88  1  0  0  0
 87179  1  0  0  0
 88180  1  0  0  0
 90181  1  0  0  0
 91182  1  0  0  0
 91183  1  0  0  0
 91184  1  0  0  0
M  CHG  1  91   1
M  ISO  4   1 100  68 101  84 101  90 100
M  END
> <chiral flag>
0

> <version>
0

> <s_m_source_file>
/data/baiqing/PycharmProjects/Reinvent-master-3.2/result/LINK_invent/BTK/process_docking_weight1_custom_sum_contain_oxygen_bond_distance_aromatic_linkinvent_7_9_3/rearranged_h_0106.sdf

> <i_m_source_file_index>
53

> <r_mmod_Potential_Energy-OPLS-2005>
52.6616897583008

> <r_mmod_Stretch_Energy-OPLS-2005>
165.825561523438

> <r_mmod_Bend_Energy-OPLS-2005>
275.747222900391

> <r_mmod_Torsional_Energy-OPLS-2005>
249.992599487305

> <r_mmod_Improper_Torsional_Energy-OPLS-2005>
8.01333999633789

> <r_mmod_Van_der_Waal_Energy-OPLS-2005>
115.260307312012

> <r_mmod_Electrostatic_Energy-OPLS-2005>
-370.158203125

> <r_mmod_Solvation_Energy-OPLS-2005>
-492.249084472656

> <b_mmod_Minimization_Converged-OPLS-2005>
0

> <r_mmod_RMS_Derivative-OPLS-2005>
4.37434005737305

$$$$
53
                    3D
 Structure written by MMmdl.
167175  0  0  1  0            999 V2000
  -30.6955  -14.7424   20.5179 C   0  0  0  0  0  0
  -30.4446  -12.4858   19.4657 C   0  0  0  0  0  0
  -29.5203  -12.5035   18.2313 C   0  0  0  0  0  0
  -28.0419  -12.3381   18.6399 C   0  0  0  0  0  0
  -27.6414  -13.2442   19.8349 C   0  0  2  0  0  0
  -28.6910  -13.2224   20.9650 C   0  0  0  0  0  0
  -25.2507  -13.8194   20.5712 C   0  0  0  0  0  0
  -24.1829  -13.0446   20.9186 C   0  0  0  0  0  0
  -24.6443  -11.6925   20.8756 C   0  0  0  0  0  0
  -23.9133  -10.4296   21.0389 C   0  0  0  0  0  0
  -24.3667   -9.4207   21.9168 C   0  0  0  0  0  0
  -23.6321   -8.2263   22.0750 C   0  0  0  0  0  0
  -22.4279   -8.0317   21.3573 C   0  0  0  0  0  0
  -21.9945   -9.0287   20.4654 C   0  0  0  0  0  0
  -22.7295  -10.2147   20.3041 C   0  0  0  0  0  0
  -21.6862   -6.0769   22.5293 C   0  0  0  0  0  0
  -21.4030   -6.5670   23.8226 C   0  0  0  0  0  0
  -21.3662   -5.6807   24.9182 C   0  0  0  0  0  0
  -21.6029   -4.3075   24.7200 C   0  0  0  0  0  0
  -21.8813   -3.8175   23.4324 C   0  0  0  0  0  0
  -21.9189   -4.7007   22.3393 C   0  0  0  0  0  0
  -22.7831  -13.5219   21.1852 C   0  0  0  0  0  0
  -22.1668   -4.2195   21.0970 F   0  0  0  0  0  0
  -21.5602   -3.4543   25.7717 F   0  0  0  0  0  0
  -29.9897  -13.5690   20.3660 N   0  0  0  0  0  0
  -26.2966  -12.9465   20.3232 N   0  0  0  0  0  0
  -25.9354  -11.6590   20.5675 N   0  0  0  0  0  0
  -22.0491  -12.8235   22.0420 N   0  0  0  0  0  0
  -25.4105  -15.1939   20.4191 N   0  0  0  0  0  0
  -31.9114  -14.7232   20.3601 O   0  0  0  0  0  0
  -21.6652   -6.8917   21.4250 O   0  0  0  0  0  0
  -22.3541  -14.5534   20.6678 O   0  0  0  0  0  0
  -24.6344  -31.8535   23.1957 C   0  0  0  0  0  0
  -25.9157  -32.4721   23.8348 C   0  0  1  0  0  0
  -27.2249  -27.2505   20.1478 C   0  0  0  0  0  0
  -25.5955  -33.8529   24.2269 N   0  0  0  0  0  0
  -23.4341  -30.4765   21.5371 C   0  0  2  0  0  0
  -24.8818  -28.9165   20.1128 C   0  0  0  0  0  0
  -22.7547  -29.4604   22.4883 C   0  0  0  0  0  0
  -18.0292  -28.1397   22.8469 C   0  0  0  0  0  0
  -24.1497  -36.7263   23.2648 C   0  0  0  0  0  0
  -25.9825  -30.7632   21.3785 C   0  0  0  0  0  0
  -26.0534  -29.3853   20.7210 C   0  0  0  0  0  0
  -27.2299  -28.5677   20.7194 C   0  0  0  0  0  0
  -26.0336  -26.8524   19.5031 C   0  0  0  0  0  0
  -24.8780  -27.6585   19.4893 C   0  0  0  0  0  0
  -23.6553  -29.8079   20.1543 C   0  0  0  0  0  0
  -25.4127  -36.3053   24.0341 C   0  0  1  0  0  0
  -20.5915  -28.3710   23.1246 C   0  0  2  0  0  0
  -20.6780  -26.9415   22.5407 C   0  0  0  0  0  0
  -19.5735  -26.6377   21.5222 C   0  0  0  0  0  0
  -18.1918  -26.7943   22.1628 C   0  0  0  0  0  0
  -19.1560  -28.8866   23.2837 C   0  0  0  0  0  0
  -18.9485  -30.1461   23.8844 C   0  0  0  0  0  0
  -17.6491  -30.6577   24.0571 C   0  0  0  0  0  0
  -25.9061  -34.9425   23.5111 C   0  0  0  0  0  0
  -16.5376  -29.9087   23.6330 C   0  0  0  0  0  0
  -16.7279  -28.6519   23.0319 C   0  0  0  0  0  0
  -26.4456  -31.6530   25.0745 C   0  0  0  0  0  0
  -25.3631  -31.3751   26.1428 C   0  0  0  0  0  0
  -27.0304  -30.2951   24.6249 C   0  0  0  0  0  0
  -27.6002  -32.4259   25.7534 C   0  0  0  0  0  0
  -27.5599  -37.1790   24.8479 C   0  0  0  0  0  0
  -21.4247  -29.3043   22.3628 N   0  0  0  0  0  0
  -26.4293  -37.3760   23.9444 N   0  0  0  0  0  0
  -24.7016  -31.0533   22.0899 N   0  0  0  0  0  0
  -23.4235  -28.8117   23.2967 O   0  0  0  0  0  0
  -28.3179  -26.3500   20.1806 O   0  0  0  0  0  0
  -26.5610  -34.8917   22.4667 O   0  0  0  0  0  0
  -23.5499  -32.1365   23.7256 O   0  0  0  0  0  0
  -32.0798  -20.4084   19.5669 C   0  0  0  0  0  0
  -31.0716  -21.3685   19.6950 C   0  0  0  0  0  0
  -31.9219  -19.0649   20.0041 C   0  0  0  0  0  0
  -29.8601  -21.0260   20.2971 C   0  0  0  0  0  0
  -30.6346  -18.7058   20.5535 C   0  0  0  0  0  0
  -28.2186  -24.9955   22.1786 C   0  0  0  0  0  0
  -34.4798  -18.8584   19.4578 C   0  0  0  0  0  0
  -32.9330  -17.0862   18.7679 C   0  0  0  0  0  0
  -33.5456  -17.4665   21.2187 C   0  0  0  0  0  0
  -28.7994  -22.1710   20.6100 C   0  0  0  0  0  0
  -30.3229  -17.2996   21.2666 C   0  0  0  0  0  0
  -29.0217  -23.7119   20.1067 C   0  0  0  0  0  0
  -28.0971  -24.9304   20.6500 C   0  0  2  0  0  0
  -33.1668  -18.1285   19.8747 C   0  0  0  0  0  0
  -29.6635  -19.7042   20.6891 N   0  0  0  0  0  0
  -30.0040  -15.9401   20.6265 N   0  0  0  0  0  0
  -31.4789  -12.6274   19.1474 H   0  0  0  0  0  0
  -30.4158  -11.5234   19.9786 H   0  0  0  0  0  0
  -29.8127  -11.7084   17.5452 H   0  0  0  0  0  0
  -29.6547  -13.4383   17.6832 H   0  0  0  0  0  0
  -27.8879  -11.2900   18.8991 H   0  0  0  0  0  0
  -27.3969  -12.5386   17.7844 H   0  0  0  0  0  0
  -27.6244  -14.2577   19.4340 H   0  0  0  0  0  0
  -28.7273  -12.2413   21.4438 H   0  0  0  0  0  0
  -28.4149  -13.9380   21.7443 H   0  0  0  0  0  0
  -25.2793   -9.5688   22.4769 H   0  0  0  0  0  0
  -24.0023   -7.4642   22.7467 H   0  0  0  0  0  0
  -21.0875   -8.8813   19.8959 H   0  0  0  0  0  0
  -22.3742  -10.9701   19.6175 H   0  0  0  0  0  0
  -21.2069   -7.6181   23.9754 H   0  0  0  0  0  0
  -21.1472   -6.0530   25.9088 H   0  0  0  0  0  0
  -22.0580   -2.7635   23.2799 H   0  0  0  0  0  0
  -22.4104  -11.9924   22.4880 H   0  0  0  0  0  0
  -21.1094  -13.1248   22.2554 H   0  0  0  0  0  0
  -24.6275  -15.8302   20.5230 H   0  0  0  0  0  0
  -26.2453  -15.6559   20.0823 H   0  0  0  0  0  0
  -26.7237  -32.5322   23.1111 H   0  0  0  0  0  0
  -25.0138  -33.9639   25.0443 H   0  0  0  0  0  0
  -22.7321  -31.2997   21.3883 H   0  0  0  0  0  0
  -23.3753  -35.9591   23.3274 H   0  0  0  0  0  0
  -24.3607  -36.8892   22.2070 H   0  0  0  0  0  0
  -23.7269  -37.6476   23.6668 H   0  0  0  0  0  0
  -26.1394  -31.5291   20.6173 H   0  0  0  0  0  0
  -26.8509  -30.8005   22.0239 H   0  0  0  0  0  0
  -28.1327  -28.9257   21.1965 H   0  0  0  0  0  0
  -25.9765  -25.8903   19.0144 H   0  0  0  0  0  0
  -23.9845  -27.2946   19.0007 H   0  0  0  0  0  0
  -23.7938  -30.5842   19.4008 H   0  0  0  0  0  0
  -22.7705  -29.2528   19.8372 H   0  0  0  0  0  0
  -25.1324  -36.1917   25.0833 H   0  0  0  0  0  0
  -20.9985  -28.3311   24.1383 H   0  0  0  0  0  0
  -20.5703  -26.2321   23.3617 H   0  0  0  0  0  0
  -21.6647  -26.7448   22.1198 H   0  0  0  0  0  0
  -19.6898  -25.6289   21.1234 H   0  0  0  0  0  0
  -19.6658  -27.3203   20.6756 H   0  0  0  0  0  0
  -17.4211  -26.6664   21.4011 H   0  0  0  0  0  0
  -18.0284  -26.0101   22.9021 H   0  0  0  0  0  0
  -19.7968  -30.7273   24.2178 H   0  0  0  0  0  0
  -17.5059  -31.6236   24.5201 H   0  0  0  0  0  0
  -15.5378  -30.2965   23.7688 H   0  0  0  0  0  0
  -15.8684  -28.0834   22.7024 H   0  0  0  0  0  0
  -24.5779  -30.7149   25.7743 H   0  0  0  0  0  0
  -24.8839  -32.2951   26.4796 H   0  0  0  0  0  0
  -25.7855  -30.8958   27.0261 H   0  0  0  0  0  0
  -26.2954  -29.6718   24.1153 H   0  0  0  0  0  0
  -27.3859  -29.7213   25.4807 H   0  0  0  0  0  0
  -27.8861  -30.4222   23.9622 H   0  0  0  0  0  0
  -27.2597  -33.3533   26.2163 H   0  0  0  0  0  0
  -28.3801  -32.6845   25.0354 H   0  0  0  0  0  0
  -28.0655  -31.8338   26.5417 H   0  0  0  0  0  0
  -28.2595  -38.0105   24.7521 H   0  0  0  0  0  0
  -28.1102  -36.2624   24.6282 H   0  0  0  0  0  0
  -27.2300  -37.1431   25.8874 H   0  0  0  0  0  0
  -20.9461  -29.8778   21.6817 H   0  0  0  0  0  0
  -26.0162  -38.2847   24.1375 H   0  0  0  0  0  0
  -33.0037  -20.7716   19.1516 H   0  0  0  0  0  0
  -31.2702  -22.3760   19.3625 H   0  0  0  0  0  0
  -27.9740  -24.0409   22.6426 H   0  0  0  0  0  0
  -27.5314  -25.7271   22.6042 H   0  0  0  0  0  0
  -29.2353  -25.2573   22.4761 H   0  0  0  0  0  0
  -34.4289  -19.3192   18.4702 H   0  0  0  0  0  0
  -35.3172  -18.1611   19.3983 H   0  0  0  0  0  0
  -34.7729  -19.6214   20.1803 H   0  0  0  0  0  0
  -33.7081  -16.3167   18.7866 H   0  0  0  0  0  0
  -32.9357  -17.5328   17.7742 H   0  0  0  0  0  0
  -31.9727  -16.5968   18.8602 H   0  0  0  0  0  0
  -33.5648  -18.1883   22.0363 H   0  0  0  0  0  0
  -34.5353  -17.0136   21.1640 H   0  0  0  0  0  0
  -32.9001  -16.6516   21.5112 H   0  0  0  0  0  0
  -28.7214  -22.1788   21.6955 H   0  0  0  0  0  0
  -27.8270  -21.8147   20.2644 H   0  0  0  0  0  0
  -29.3858  -17.5118   21.7803 H   0  0  0  0  0  0
  -30.9819  -17.1725   22.1227 H   0  0  0  0  0  0
  -28.9557  -23.7027   19.0186 H   0  0  0  0  0  0
  -30.0512  -23.9889   20.3276 H   0  0  0  0  0  0
  -27.0702  -24.6432   20.4356 H   0  0  0  0  0  0
  -29.0182  -15.8407   20.4541 H   0  0  0  0  0  0
  1 25  1  0  0  0
  1 30  2  0  0  0
  1 86  1  0  0  0
  2  3  1  0  0  0
  2 25  1  0  0  0
  2 87  1  0  0  0
  2 88  1  0  0  0
  3  4  1  0  0  0
  3 89  1  0  0  0
  3 90  1  0  0  0
  4  5  1  0  0  0
  4 91  1  0  0  0
  4 92  1  0  0  0
  5  6  1  0  0  0
  5 26  1  0  0  0
  5 93  1  0  0  0
  6 25  1  0  0  0
  6 94  1  0  0  0
  6 95  1  0  0  0
  7  8  2  0  0  0
  7 26  1  0  0  0
  7 29  1  0  0  0
  8  9  1  0  0  0
  8 22  1  0  0  0
  9 10  1  0  0  0
  9 27  2  0  0  0
 10 11  2  0  0  0
 10 15  1  0  0  0
 11 12  1  0  0  0
 11 96  1  0  0  0
 12 13  2  0  0  0
 12 97  1  0  0  0
 13 14  1  0  0  0
 13 31  1  0  0  0
 14 15  2  0  0  0
 14 98  1  0  0  0
 15 99  1  0  0  0
 16 17  2  0  0  0
 16 21  1  0  0  0
 16 31  1  0  0  0
 17 18  1  0  0  0
 17100  1  0  0  0
 18 19  2  0  0  0
 18101  1  0  0  0
 19 20  1  0  0  0
 19 24  1  0  0  0
 20 21  2  0  0  0
 20102  1  0  0  0
 21 23  1  0  0  0
 22 28  1  0  0  0
 22 32  2  0  0  0
 26 27  1  0  0  0
 28103  1  0  0  0
 28104  1  0  0  0
 29105  1  0  0  0
 29106  1  0  0  0
 33 34  1  0  0  0
 33 66  1  0  0  0
 33 70  2  0  0  0
 34 36  1  0  0  0
 34 59  1  0  0  0
 34107  1  0  0  0
 35 44  2  0  0  0
 35 45  1  0  0  0
 35 68  1  0  0  0
 36 56  1  0  0  0
 36108  1  0  0  0
 37 39  1  0  0  0
 37 47  1  0  0  0
 37 66  1  0  0  0
 37109  1  0  0  0
 38 43  2  0  0  0
 38 46  1  0  0  0
 38 47  1  0  0  0
 39 64  1  0  0  0
 39 67  2  0  0  0
 40 52  1  0  0  0
 40 53  2  0  0  0
 40 58  1  0  0  0
 41110  1  0  0  0
 41111  1  0  0  0
 41112  1  0  0  0
 41 48  1  0  0  0
 42 43  1  0  0  0
 42 66  1  0  0  0
 42113  1  0  0  0
 42114  1  0  0  0
 43 44  1  0  0  0
 44115  1  0  0  0
 45 46  2  0  0  0
 45116  1  0  0  0
 46117  1  0  0  0
 47118  1  0  0  0
 47119  1  0  0  0
 48 56  1  0  0  0
 48 65  1  0  0  0
 48120  1  0  0  0
 49 50  1  0  0  0
 49 53  1  0  0  0
 49 64  1  0  0  0
 49121  1  0  0  0
 50 51  1  0  0  0
 50122  1  0  0  0
 50123  1  0  0  0
 51 52  1  0  0  0
 51124  1  0  0  0
 51125  1  0  0  0
 52126  1  0  0  0
 52127  1  0  0  0
 53 54  1  0  0  0
 54 55  2  0  0  0
 54128  1  0  0  0
 55 57  1  0  0  0
 55129  1  0  0  0
 56 69  2  0  0  0
 57 58  2  0  0  0
 57130  1  0  0  0
 58131  1  0  0  0
 59 60  1  0  0  0
 59 61  1  0  0  0
 59 62  1  0  0  0
 60132  1  0  0  0
 60133  1  0  0  0
 60134  1  0  0  0
 61135  1  0  0  0
 61136  1  0  0  0
 61137  1  0  0  0
 62138  1  0  0  0
 62139  1  0  0  0
 62140  1  0  0  0
 63 65  1  0  0  0
 63141  1  0  0  0
 63142  1  0  0  0
 63143  1  0  0  0
 64144  1  0  0  0
 65145  1  0  0  0
 68 83  1  0  0  0
 71 72  2  0  0  0
 71 73  1  0  0  0
 71146  1  0  0  0
 72 74  1  0  0  0
 72147  1  0  0  0
 73 75  2  0  0  0
 73 84  1  0  0  0
 74 80  1  0  0  0
 74 85  2  0  0  0
 75 81  1  0  0  0
 75 85  1  0  0  0
 76148  1  0  0  0
 76149  1  0  0  0
 76150  1  0  0  0
 76 83  1  0  0  0
 77151  1  0  0  0
 77152  1  0  0  0
 77153  1  0  0  0
 77 84  1  0  0  0
 78 84  1  0  0  0
 78154  1  0  0  0
 78155  1  0  0  0
 78156  1  0  0  0
 79 84  1  0  0  0
 79157  1  0  0  0
 79158  1  0  0  0
 79159  1  0  0  0
 80 82  1  0  0  0
 80160  1  0  0  0
 80161  1  0  0  0
 81 86  1  0  0  0
 81162  1  0  0  0
 81163  1  0  0  0
 82 83  1  0  0  0
 82164  1  0  0  0
 82165  1  0  0  0
 83166  1  0  0  0
 86167  1  0  0  0
M  ISO  4   1 100  68 101  83 101  86 100
M  END
> <chiral flag>
0

> <version>
0

> <s_m_source_file>
/data/baiqing/PycharmProjects/Reinvent-master-3.2/result/LINK_invent/BTK/process_docking_weight1_custom_sum_contain_oxygen_bond_distance_aromatic_linkinvent_7_9_3/rearranged_h_0106.sdf

> <i_m_source_file_index>
54

> <r_mmod_Potential_Energy-OPLS-2005>
-6.95376968383789

> <r_mmod_Stretch_Energy-OPLS-2005>
141.403228759766

> <r_mmod_Bend_Energy-OPLS-2005>
216.954650878906

> <r_mmod_Torsional_Energy-OPLS-2005>
239.018676757812

> <r_mmod_Improper_Torsional_Energy-OPLS-2005>
6.63101959228516

> <r_mmod_Van_der_Waal_Energy-OPLS-2005>
153.56770324707

> <r_mmod_Electrostatic_Energy-OPLS-2005>
-656.930236816406

> <r_mmod_Solvation_Energy-OPLS-2005>
-207.722198486328

> <b_mmod_Minimization_Converged-OPLS-2005>
0

> <r_mmod_RMS_Derivative-OPLS-2005>
6.25209665298462

$$$$
54
                    3D
 Structure written by MMmdl.
164172  0  0  1  0            999 V2000
  -30.6961  -14.5427   20.5725 C   0  0  0  0  0  0
  -30.4240  -12.3579   19.4364 C   0  0  0  0  0  0
  -29.4965  -12.5140   18.2159 C   0  0  0  0  0  0
  -28.0178  -12.3658   18.6301 C   0  0  0  0  0  0
  -27.6550  -13.2193   19.8748 C   0  0  2  0  0  0
  -28.7005  -13.0456   20.9990 C   0  0  0  0  0  0
  -25.2547  -13.8179   20.5700 C   0  0  0  0  0  0
  -24.1820  -13.0435   20.9200 C   0  0  0  0  0  0
  -24.6397  -11.6910   20.8764 C   0  0  0  0  0  0
  -23.9059  -10.4297   21.0418 C   0  0  0  0  0  0
  -24.3607   -9.4208   21.9199 C   0  0  0  0  0  0
  -23.6278   -8.2239   22.0761 C   0  0  0  0  0  0
  -22.4259   -8.0285   21.3550 C   0  0  0  0  0  0
  -21.9897   -9.0260   20.4651 C   0  0  0  0  0  0
  -22.7232  -10.2143   20.3053 C   0  0  0  0  0  0
  -21.6841   -6.0743   22.5281 C   0  0  0  0  0  0
  -21.4031   -6.5644   23.8228 C   0  0  0  0  0  0
  -21.3657   -5.6794   24.9183 C   0  0  0  0  0  0
  -21.6034   -4.3054   24.7225 C   0  0  0  0  0  0
  -21.8827   -3.8148   23.4343 C   0  0  0  0  0  0
  -21.9193   -4.6970   22.3407 C   0  0  0  0  0  0
  -22.7835  -13.5223   21.1852 C   0  0  0  0  0  0
  -22.1644   -4.2155   21.0978 F   0  0  0  0  0  0
  -21.5609   -3.4542   25.7736 F   0  0  0  0  0  0
  -30.0198  -13.3652   20.4329 N   0  0  0  0  0  0
  -26.2997  -12.9372   20.3393 N   0  0  0  0  0  0
  -25.9336  -11.6517   20.5816 N   0  0  0  0  0  0
  -22.0453  -12.8227   22.0397 N   0  0  0  0  0  0
  -25.4215  -15.1910   20.4113 N   0  0  0  0  0  0
  -31.8329  -14.7020   20.1256 O   0  0  0  0  0  0
  -21.6616   -6.8887   21.4245 O   0  0  0  0  0  0
  -22.3523  -14.5525   20.6684 O   0  0  0  0  0  0
  -24.6200  -31.8630   23.2066 C   0  0  0  0  0  0
  -25.9078  -32.4793   23.8360 C   0  0  1  0  0  0
  -27.2259  -27.3702   20.1190 C   0  0  0  0  0  0
  -25.5934  -33.8601   24.2303 N   0  0  0  0  0  0
  -23.4094  -30.4866   21.5475 C   0  0  2  0  0  0
  -24.8590  -28.9416   20.1178 C   0  0  0  0  0  0
  -22.7402  -29.4657   22.4951 C   0  0  0  0  0  0
  -18.0301  -28.1342   22.8487 C   0  0  0  0  0  0
  -24.1480  -36.7292   23.2637 C   0  0  0  0  0  0
  -25.9449  -30.8080   21.3723 C   0  0  0  0  0  0
  -26.0196  -29.4348   20.7262 C   0  0  0  0  0  0
  -27.2078  -28.6564   20.7278 C   0  0  0  0  0  0
  -26.0538  -26.9192   19.4783 C   0  0  0  0  0  0
  -24.8728  -27.6859   19.4898 C   0  0  0  0  0  0
  -23.6238  -29.8164   20.1641 C   0  0  0  0  0  0
  -25.4113  -36.3093   24.0326 C   0  0  1  0  0  0
  -20.5876  -28.3666   23.1308 C   0  0  2  0  0  0
  -20.6801  -26.9404   22.5413 C   0  0  0  0  0  0
  -19.5803  -26.6392   21.5185 C   0  0  0  0  0  0
  -18.1973  -26.7890   22.1604 C   0  0  0  0  0  0
  -19.1535  -28.8815   23.2907 C   0  0  0  0  0  0
  -18.9443  -30.1420   23.8907 C   0  0  0  0  0  0
  -17.6448  -30.6563   24.0543 C   0  0  0  0  0  0
  -25.9042  -34.9459   23.5108 C   0  0  0  0  0  0
  -16.5348  -29.9050   23.6306 C   0  0  0  0  0  0
  -16.7279  -28.6452   23.0348 C   0  0  0  0  0  0
  -26.4503  -31.6577   25.0703 C   0  0  0  0  0  0
  -25.3763  -31.3705   26.1444 C   0  0  0  0  0  0
  -27.0339  -30.3001   24.6121 C   0  0  0  0  0  0
  -27.6053  -32.4315   25.7490 C   0  0  0  0  0  0
  -27.5577  -37.1810   24.8470 C   0  0  0  0  0  0
  -21.4128  -29.3053   22.3709 N   0  0  0  0  0  0
  -26.4291  -37.3785   23.9414 N   0  0  0  0  0  0
  -24.6763  -31.0677   22.0995 N   0  0  0  0  0  0
  -23.4152  -28.8184   23.2998 O   0  0  0  0  0  0
  -28.3635  -26.5780   20.0653 O   0  0  0  0  0  0
  -26.5584  -34.8907   22.4666 O   0  0  0  0  0  0
  -23.5371  -32.1411   23.7412 O   0  0  0  0  0  0
  -27.5576  -21.4081   19.9721 C   0  0  0  0  0  0
  -29.0963  -22.9426   21.0306 C   0  0  0  0  0  0
  -28.7497  -21.5855   20.7141 C   0  0  0  0  0  0
  -26.7757  -22.5211   19.5877 C   0  0  0  0  0  0
  -28.2783  -24.0467   20.6242 C   0  0  0  0  0  0
  -25.4705  -22.3558   18.8359 C   0  0  0  0  0  0
  -29.8235  -20.5509   22.6009 C   0  0  0  0  0  0
  -28.5161  -25.5217   21.0612 C   0  0  0  0  0  0
  -30.6227  -16.8899   21.5268 C   0  0  0  0  0  0
  -29.2821  -19.0727   20.6425 C   0  0  0  0  0  0
  -30.5360  -18.1082   20.5225 C   0  0  1  0  0  0
  -27.1620  -23.7720   19.9206 N   0  3  0  0  0  0
  -30.0243  -15.5839   21.1285 N   0  0  0  0  0  0
  -29.5257  -20.4606   21.1669 N   0  0  0  0  0  0
  -31.7548  -18.9318   20.6184 N   0  3  0  0  0  0
  -31.4667  -12.4672   19.1345 H   0  0  0  0  0  0
  -30.3393  -11.3560   19.8632 H   0  0  0  0  0  0
  -29.7525  -11.7774   17.4552 H   0  0  0  0  0  0
  -29.6544  -13.4935   17.7628 H   0  0  0  0  0  0
  -27.8354  -11.3115   18.8396 H   0  0  0  0  0  0
  -27.3601  -12.6264   17.7995 H   0  0  0  0  0  0
  -27.6837  -14.2623   19.5574 H   0  0  0  0  0  0
  -28.6983  -12.0197   21.3699 H   0  0  0  0  0  0
  -28.4605  -13.6717   21.8588 H   0  0  0  0  0  0
  -25.2754   -9.5679   22.4773 H   0  0  0  0  0  0
  -24.0008   -7.4624   22.7473 H   0  0  0  0  0  0
  -21.0833   -8.8780   19.8938 H   0  0  0  0  0  0
  -22.3709  -10.9679   19.6153 H   0  0  0  0  0  0
  -21.2031   -7.6162   23.9740 H   0  0  0  0  0  0
  -21.1464   -6.0512   25.9090 H   0  0  0  0  0  0
  -22.0606   -2.7606   23.2842 H   0  0  0  0  0  0
  -22.4030  -11.9890   22.4805 H   0  0  0  0  0  0
  -21.1080  -13.1256   22.2614 H   0  0  0  0  0  0
  -24.6528  -15.8420   20.5345 H   0  0  0  0  0  0
  -26.2647  -15.6340   20.0692 H   0  0  0  0  0  0
  -26.7152  -32.5476   23.1113 H   0  0  0  0  0  0
  -25.0165  -33.9760   25.0499 H   0  0  0  0  0  0
  -22.7024  -31.3063   21.4016 H   0  0  0  0  0  0
  -23.3731  -35.9634   23.3299 H   0  0  0  0  0  0
  -24.3574  -36.8900   22.2050 H   0  0  0  0  0  0
  -23.7223  -37.6499   23.6642 H   0  0  0  0  0  0
  -26.0661  -31.5687   20.5988 H   0  0  0  0  0  0
  -26.8301  -30.8604   21.9945 H   0  0  0  0  0  0
  -28.1044  -29.0395   21.1968 H   0  0  0  0  0  0
  -26.0445  -25.9841   18.9419 H   0  0  0  0  0  0
  -23.9867  -27.3095   18.9971 H   0  0  0  0  0  0
  -23.7361  -30.5870   19.4012 H   0  0  0  0  0  0
  -22.7448  -29.2405   19.8697 H   0  0  0  0  0  0
  -25.1294  -36.1954   25.0815 H   0  0  0  0  0  0
  -20.9988  -28.3232   24.1420 H   0  0  0  0  0  0
  -20.5670  -26.2290   23.3600 H   0  0  0  0  0  0
  -21.6691  -26.7451   22.1241 H   0  0  0  0  0  0
  -19.6724  -27.3246   20.6740 H   0  0  0  0  0  0
  -19.6997  -25.6325   21.1161 H   0  0  0  0  0  0
  -17.4250  -26.6623   21.4006 H   0  0  0  0  0  0
  -18.0405  -26.0007   22.8972 H   0  0  0  0  0  0
  -19.7922  -30.7255   24.2251 H   0  0  0  0  0  0
  -17.5000  -31.6245   24.5142 H   0  0  0  0  0  0
  -15.5346  -30.2945   23.7628 H   0  0  0  0  0  0
  -15.8681  -28.0774   22.7038 H   0  0  0  0  0  0
  -24.5937  -30.7047   25.7803 H   0  0  0  0  0  0
  -24.8955  -32.2872   26.4870 H   0  0  0  0  0  0
  -25.8119  -30.8899   27.0214 H   0  0  0  0  0  0
  -26.2902  -29.6746   24.1173 H   0  0  0  0  0  0
  -27.4089  -29.7258   25.4609 H   0  0  0  0  0  0
  -27.8742  -30.4283   23.9289 H   0  0  0  0  0  0
  -27.2640  -33.3607   26.2064 H   0  0  0  0  0  0
  -28.3878  -32.6897   25.0346 H   0  0  0  0  0  0
  -28.0700  -31.8444   26.5416 H   0  0  0  0  0  0
  -28.2615  -38.0091   24.7531 H   0  0  0  0  0  0
  -28.1052  -36.2632   24.6292 H   0  0  0  0  0  0
  -27.2292  -37.1461   25.8870 H   0  0  0  0  0  0
  -20.9276  -29.8823   21.6988 H   0  0  0  0  0  0
  -26.0156  -38.2856   24.1422 H   0  0  0  0  0  0
  -27.1954  -20.4239   19.7203 H   0  0  0  0  0  0
  -29.9849  -23.1527   21.6044 H   0  0  0  0  0  0
  -25.3101  -21.3136   18.5577 H   0  0  0  0  0  0
  -25.4759  -22.9554   17.9250 H   0  0  0  0  0  0
  -24.6281  -22.6718   19.4528 H   0  0  0  0  0  0
  -28.9049  -20.6572   23.1817 H   0  0  0  0  0  0
  -30.4690  -21.3970   22.8385 H   0  0  0  0  0  0
  -30.3288  -19.6566   22.9670 H   0  0  0  0  0  0
  -29.5315  -25.5935   21.4502 H   0  0  0  0  0  0
  -27.8666  -25.7238   21.9158 H   0  0  0  0  0  0
  -30.1673  -17.1832   22.4731 H   0  0  0  0  0  0
  -31.6674  -16.6953   21.7775 H   0  0  0  0  0  0
  -28.5028  -18.5895   21.2349 H   0  0  0  0  0  0
  -28.8721  -19.1449   19.6347 H   0  0  0  0  0  0
  -30.5469  -17.6892   19.5141 H   0  0  0  0  0  0
  -26.5629  -24.5564   19.6611 H   0  0  0  0  0  0
  -29.0800  -15.3987   21.4338 H   0  0  0  0  0  0
  -32.5828  -18.3951   20.4347 H   0  0  0  0  0  0
  -31.8231  -19.3514   21.5271 H   0  0  0  0  0  0
  -31.6938  -19.6762   19.9452 H   0  0  0  0  0  0
  1 25  1  0  0  0
  1 30  2  0  0  0
  1 83  1  0  0  0
  2  3  1  0  0  0
  2 25  1  0  0  0
  2 86  1  0  0  0
  2 87  1  0  0  0
  3  4  1  0  0  0
  3 88  1  0  0  0
  3 89  1  0  0  0
  4  5  1  0  0  0
  4 90  1  0  0  0
  4 91  1  0  0  0
  5  6  1  0  0  0
  5 26  1  0  0  0
  5 92  1  0  0  0
  6 25  1  0  0  0
  6 93  1  0  0  0
  6 94  1  0  0  0
  7  8  2  0  0  0
  7 26  1  0  0  0
  7 29  1  0  0  0
  8  9  1  0  0  0
  8 22  1  0  0  0
  9 10  1  0  0  0
  9 27  2  0  0  0
 10 11  2  0  0  0
 10 15  1  0  0  0
 11 12  1  0  0  0
 11 95  1  0  0  0
 12 13  2  0  0  0
 12 96  1  0  0  0
 13 14  1  0  0  0
 13 31  1  0  0  0
 14 15  2  0  0  0
 14 97  1  0  0  0
 15 98  1  0  0  0
 16 17  2  0  0  0
 16 21  1  0  0  0
 16 31  1  0  0  0
 17 18  1  0  0  0
 17 99  1  0  0  0
 18 19  2  0  0  0
 18100  1  0  0  0
 19 20  1  0  0  0
 19 24  1  0  0  0
 20 21  2  0  0  0
 20101  1  0  0  0
 21 23  1  0  0  0
 22 28  1  0  0  0
 22 32  2  0  0  0
 26 27  1  0  0  0
 28102  1  0  0  0
 28103  1  0  0  0
 29104  1  0  0  0
 29105  1  0  0  0
 33 34  1  0  0  0
 33 66  1  0  0  0
 33 70  2  0  0  0
 34 36  1  0  0  0
 34 59  1  0  0  0
 34106  1  0  0  0
 35 44  2  0  0  0
 35 45  1  0  0  0
 35 68  1  0  0  0
 36 56  1  0  0  0
 36107  1  0  0  0
 37 39  1  0  0  0
 37 47  1  0  0  0
 37 66  1  0  0  0
 37108  1  0  0  0
 38 43  2  0  0  0
 38 46  1  0  0  0
 38 47  1  0  0  0
 39 64  1  0  0  0
 39 67  2  0  0  0
 40 52  1  0  0  0
 40 53  2  0  0  0
 40 58  1  0  0  0
 41109  1  0  0  0
 41110  1  0  0  0
 41111  1  0  0  0
 41 48  1  0  0  0
 42 43  1  0  0  0
 42 66  1  0  0  0
 42112  1  0  0  0
 42113  1  0  0  0
 43 44  1  0  0  0
 44114  1  0  0  0
 45 46  2  0  0  0
 45115  1  0  0  0
 46116  1  0  0  0
 47117  1  0  0  0
 47118  1  0  0  0
 48 56  1  0  0  0
 48 65  1  0  0  0
 48119  1  0  0  0
 49 50  1  0  0  0
 49 53  1  0  0  0
 49 64  1  0  0  0
 49120  1  0  0  0
 50 51  1  0  0  0
 50121  1  0  0  0
 50122  1  0  0  0
 51 52  1  0  0  0
 51123  1  0  0  0
 51124  1  0  0  0
 52125  1  0  0  0
 52126  1  0  0  0
 53 54  1  0  0  0
 54 55  2  0  0  0
 54127  1  0  0  0
 55 57  1  0  0  0
 55128  1  0  0  0
 56 69  2  0  0  0
 57 58  2  0  0  0
 57129  1  0  0  0
 58130  1  0  0  0
 59 60  1  0  0  0
 59 61  1  0  0  0
 59 62  1  0  0  0
 60131  1  0  0  0
 60132  1  0  0  0
 60133  1  0  0  0
 61134  1  0  0  0
 61135  1  0  0  0
 61136  1  0  0  0
 62137  1  0  0  0
 62138  1  0  0  0
 62139  1  0  0  0
 63 65  1  0  0  0
 63140  1  0  0  0
 63141  1  0  0  0
 63142  1  0  0  0
 64143  1  0  0  0
 65144  1  0  0  0
 68 78  1  0  0  0
 71 73  2  0  0  0
 71 74  1  0  0  0
 71145  1  0  0  0
 72 73  1  0  0  0
 72 75  2  0  0  0
 72146  1  0  0  0
 73 84  1  0  0  0
 74 76  1  0  0  0
 74 82  2  0  0  0
 75 78  1  0  0  0
 75 82  1  0  0  0
 76147  1  0  0  0
 76148  1  0  0  0
 76149  1  0  0  0
 77 84  1  0  0  0
 77150  1  0  0  0
 77151  1  0  0  0
 77152  1  0  0  0
 78153  1  0  0  0
 78154  1  0  0  0
 79 81  1  0  0  0
 79 83  1  0  0  0
 79155  1  0  0  0
 79156  1  0  0  0
 80 81  1  0  0  0
 80 84  1  0  0  0
 80157  1  0  0  0
 80158  1  0  0  0
 81 85  1  0  0  0
 81159  1  0  0  0
 82160  1  0  0  0
 83161  1  0  0  0
 85162  1  0  0  0
 85163  1  0  0  0
 85164  1  0  0  0
M  CHG  2  82   1  85   1
M  ISO  4   1 100  68 101  78 101  83 100
M  END
> <chiral flag>
0

> <version>
0

> <s_m_source_file>
/data/baiqing/PycharmProjects/Reinvent-master-3.2/result/LINK_invent/BTK/process_docking_weight1_custom_sum_contain_oxygen_bond_distance_aromatic_linkinvent_7_9_3/rearranged_h_0106.sdf

> <i_m_source_file_index>
55

> <r_mmod_Potential_Energy-OPLS-2005>
-375.448211669922

> <r_mmod_Stretch_Energy-OPLS-2005>
64.6164703369141

> <r_mmod_Bend_Energy-OPLS-2005>
124.607086181641

> <r_mmod_Torsional_Energy-OPLS-2005>
284.699066162109

> <r_mmod_Improper_Torsional_Energy-OPLS-2005>
6.52721357345581

> <r_mmod_Van_der_Waal_Energy-OPLS-2005>
153.499938964844

> <r_mmod_Electrostatic_Energy-OPLS-2005>
-133.154846191406

> <r_mmod_Solvation_Energy-OPLS-2005>
-900.308044433594

> <b_mmod_Minimization_Converged-OPLS-2005>
0

> <r_mmod_RMS_Derivative-OPLS-2005>
2.82318758964539

$$$$
55
                    3D
 Structure written by MMmdl.
174182  0  0  1  0            999 V2000
  -30.6444  -14.5673   20.4393 C   0  0  0  0  0  0
  -30.4373  -12.3220   19.4582 C   0  0  0  0  0  0
  -29.5136  -12.4631   18.2256 C   0  0  0  0  0  0
  -28.0318  -12.3209   18.6409 C   0  0  0  0  0  0
  -27.6588  -13.1834   19.8769 C   0  0  2  0  0  0
  -28.7110  -13.0485   21.0020 C   0  0  0  0  0  0
  -25.2594  -13.8072   20.5704 C   0  0  0  0  0  0
  -24.1814  -13.0374   20.9116 C   0  0  0  0  0  0
  -24.6356  -11.6848   20.8727 C   0  0  0  0  0  0
  -23.9032  -10.4272   21.0426 C   0  0  0  0  0  0
  -24.3578   -9.4198   21.9207 C   0  0  0  0  0  0
  -23.6251   -8.2232   22.0796 C   0  0  0  0  0  0
  -22.4230   -8.0292   21.3573 C   0  0  0  0  0  0
  -21.9857   -9.0265   20.4688 C   0  0  0  0  0  0
  -22.7202  -10.2122   20.3079 C   0  0  0  0  0  0
  -21.6838   -6.0752   22.5278 C   0  0  0  0  0  0
  -21.4031   -6.5646   23.8219 C   0  0  0  0  0  0
  -21.3646   -5.6799   24.9174 C   0  0  0  0  0  0
  -21.6027   -4.3056   24.7214 C   0  0  0  0  0  0
  -21.8816   -3.8156   23.4330 C   0  0  0  0  0  0
  -21.9193   -4.6984   22.3400 C   0  0  0  0  0  0
  -22.7850  -13.5232   21.1796 C   0  0  0  0  0  0
  -22.1654   -4.2174   21.0984 F   0  0  0  0  0  0
  -21.5616   -3.4547   25.7728 F   0  0  0  0  0  0
  -30.0281  -13.3524   20.4212 N   0  0  0  0  0  0
  -26.3030  -12.9191   20.3452 N   0  0  0  0  0  0
  -25.9310  -11.6390   20.5840 N   0  0  0  0  0  0
  -22.0425  -12.8315   22.0366 N   0  0  0  0  0  0
  -25.4284  -15.1816   20.4270 N   0  0  0  0  0  0
  -31.8331  -14.7151   20.1470 O   0  0  0  0  0  0
  -21.6631   -6.8877   21.4237 O   0  0  0  0  0  0
  -22.3614  -14.5597   20.6683 O   0  0  0  0  0  0
  -24.6153  -31.8676   23.2108 C   0  0  0  0  0  0
  -25.9033  -32.4825   23.8410 C   0  0  1  0  0  0
  -27.2422  -27.4188   20.0964 C   0  0  0  0  0  0
  -25.5878  -33.8630   24.2332 N   0  0  0  0  0  0
  -23.4053  -30.4901   21.5510 C   0  0  2  0  0  0
  -24.8524  -28.9587   20.1126 C   0  0  0  0  0  0
  -22.7408  -29.4661   22.4986 C   0  0  0  0  0  0
  -18.0266  -28.1395   22.8481 C   0  0  0  0  0  0
  -24.1476  -36.7318   23.2637 C   0  0  0  0  0  0
  -25.9358  -30.8261   21.3712 C   0  0  0  0  0  0
  -26.0105  -29.4612   20.7155 C   0  0  0  0  0  0
  -27.2015  -28.6979   20.7050 C   0  0  0  0  0  0
  -26.0638  -26.9469   19.4647 C   0  0  0  0  0  0
  -24.8765  -27.7042   19.4816 C   0  0  0  0  0  0
  -23.6154  -29.8257   20.1646 C   0  0  0  0  0  0
  -25.4094  -36.3122   24.0338 C   0  0  1  0  0  0
  -20.5858  -28.3689   23.1312 C   0  0  2  0  0  0
  -20.6764  -26.9427   22.5414 C   0  0  0  0  0  0
  -19.5744  -26.6408   21.5203 C   0  0  0  0  0  0
  -18.1915  -26.7946   22.1607 C   0  0  0  0  0  0
  -19.1515  -28.8852   23.2901 C   0  0  0  0  0  0
  -18.9452  -30.1454   23.8919 C   0  0  0  0  0  0
  -17.6457  -30.6601   24.0571 C   0  0  0  0  0  0
  -25.9028  -34.9479   23.5134 C   0  0  0  0  0  0
  -16.5345  -29.9102   23.6335 C   0  0  0  0  0  0
  -16.7259  -28.6520   23.0351 C   0  0  0  0  0  0
  -26.4464  -31.6608   25.0745 C   0  0  0  0  0  0
  -25.3732  -31.3724   26.1500 C   0  0  0  0  0  0
  -27.0278  -30.3040   24.6139 C   0  0  0  0  0  0
  -27.6066  -32.4323   25.7472 C   0  0  0  0  0  0
  -27.5582  -37.1801   24.8458 C   0  0  0  0  0  0
  -21.4129  -29.3049   22.3714 N   0  0  0  0  0  0
  -26.4287  -37.3805   23.9421 N   0  0  0  0  0  0
  -24.6705  -31.0746   22.1031 N   0  0  0  0  0  0
  -23.4159  -28.8195   23.3041 O   0  0  0  0  0  0
  -28.4335  -26.7062   20.1513 O   0  0  0  0  0  0
  -26.5610  -34.8923   22.4709 O   0  0  0  0  0  0
  -23.5337  -32.1454   23.7474 O   0  0  0  0  0  0
  -30.3448  -19.6826   19.2093 C   0  0  0  0  0  0
  -29.3779  -18.8773   18.6071 C   0  0  0  0  0  0
  -30.9420  -17.8225   20.6665 C   0  0  0  0  0  0
  -31.0981  -19.1896   20.2915 C   0  0  0  0  0  0
  -29.1641  -17.5471   19.0221 C   0  0  0  0  0  0
  -29.9898  -16.9707   20.0411 C   0  0  0  0  0  0
  -33.5130  -19.6437   20.8568 C   0  0  0  0  0  0
  -27.1192  -15.4046   16.5826 C   0  0  0  0  0  0
  -29.0536  -16.8263   16.0997 C   0  0  0  0  0  0
  -27.9884  -16.8437   18.3583 C   0  0  0  0  0  0
  -29.2059  -24.4138   20.8373 C   0  0  0  0  0  0
  -30.4151  -23.5790   20.3115 C   0  0  0  0  0  0
  -31.9620  -21.6465   20.7270 C   0  0  0  0  0  0
  -28.5068  -25.3136   19.7736 C   0  0  0  0  0  0
  -32.0615  -20.1146   21.0582 C   0  0  1  0  0  0
  -29.7901  -15.6201   20.5126 N   0  0  0  0  0  0
  -30.6541  -22.2946   21.0394 N   0  3  0  0  0  0
  -28.3231  -16.0612   17.1391 N   0  3  0  0  0  0
  -31.4877  -12.4150   19.1784 H   0  0  0  0  0  0
  -30.3362  -11.3330   19.9080 H   0  0  0  0  0  0
  -29.7639  -11.7063   17.4799 H   0  0  0  0  0  0
  -29.6868  -13.4258   17.7421 H   0  0  0  0  0  0
  -27.8561  -11.2683   18.8654 H   0  0  0  0  0  0
  -27.3777  -12.5567   17.8024 H   0  0  0  0  0  0
  -27.6764  -14.2088   19.5371 H   0  0  0  0  0  0
  -28.7102  -12.0361   21.4100 H   0  0  0  0  0  0
  -28.4806  -13.7086   21.8426 H   0  0  0  0  0  0
  -25.2732   -9.5666   22.4776 H   0  0  0  0  0  0
  -23.9993   -7.4598   22.7467 H   0  0  0  0  0  0
  -21.0801   -8.8741   19.8971 H   0  0  0  0  0  0
  -22.3682  -10.9636   19.6161 H   0  0  0  0  0  0
  -21.2054   -7.6168   23.9739 H   0  0  0  0  0  0
  -21.1448   -6.0524   25.9080 H   0  0  0  0  0  0
  -22.0610   -2.7623   23.2808 H   0  0  0  0  0  0
  -22.3915  -11.9984   22.4880 H   0  0  0  0  0  0
  -21.1058  -13.1448   22.2507 H   0  0  0  0  0  0
  -24.6309  -15.7745   20.6323 H   0  0  0  0  0  0
  -26.2985  -15.6304   20.6741 H   0  0  0  0  0  0
  -26.7102  -32.5520   23.1169 H   0  0  0  0  0  0
  -24.9997  -33.9803   25.0454 H   0  0  0  0  0  0
  -22.6951  -31.3080   21.4120 H   0  0  0  0  0  0
  -23.3748  -35.9643   23.3294 H   0  0  0  0  0  0
  -24.3572  -36.8944   22.2055 H   0  0  0  0  0  0
  -23.7219  -37.6510   23.6661 H   0  0  0  0  0  0
  -26.0526  -31.5924   20.6050 H   0  0  0  0  0  0
  -26.8234  -30.8762   21.9903 H   0  0  0  0  0  0
  -28.0952  -29.0837   21.1771 H   0  0  0  0  0  0
  -26.0205  -26.0089   18.9338 H   0  0  0  0  0  0
  -23.9909  -27.3234   18.9921 H   0  0  0  0  0  0
  -23.7219  -30.6041   19.4081 H   0  0  0  0  0  0
  -22.7406  -29.2445   19.8693 H   0  0  0  0  0  0
  -25.1264  -36.1988   25.0833 H   0  0  0  0  0  0
  -20.9939  -28.3261   24.1436 H   0  0  0  0  0  0
  -20.5658  -26.2298   23.3600 H   0  0  0  0  0  0
  -21.6639  -26.7467   22.1216 H   0  0  0  0  0  0
  -19.6912  -25.6316   21.1239 H   0  0  0  0  0  0
  -19.6690  -27.3215   20.6728 H   0  0  0  0  0  0
  -17.4191  -26.6701   21.4009 H   0  0  0  0  0  0
  -18.0314  -26.0087   22.8996 H   0  0  0  0  0  0
  -19.7929  -30.7265   24.2306 H   0  0  0  0  0  0
  -17.5017  -31.6285   24.5168 H   0  0  0  0  0  0
  -15.5353  -30.3019   23.7650 H   0  0  0  0  0  0
  -15.8655  -28.0850   22.7063 H   0  0  0  0  0  0
  -24.5909  -30.7061   25.7852 H   0  0  0  0  0  0
  -24.8909  -32.2872   26.4951 H   0  0  0  0  0  0
  -25.8085  -30.8902   27.0261 H   0  0  0  0  0  0
  -26.2813  -29.6808   24.1207 H   0  0  0  0  0  0
  -27.4039  -29.7282   25.4604 H   0  0  0  0  0  0
  -27.8659  -30.4345   23.9296 H   0  0  0  0  0  0
  -27.2728  -33.3634   26.2065 H   0  0  0  0  0  0
  -28.3842  -32.6865   25.0256 H   0  0  0  0  0  0
  -28.0775  -31.8439   26.5358 H   0  0  0  0  0  0
  -28.2599  -38.0102   24.7524 H   0  0  0  0  0  0
  -28.1073  -36.2633   24.6240 H   0  0  0  0  0  0
  -27.2309  -37.1414   25.8865 H   0  0  0  0  0  0
  -20.9290  -29.8757   21.6921 H   0  0  0  0  0  0
  -26.0170  -38.2881   24.1437 H   0  0  0  0  0  0
  -30.4575  -20.6891   18.8325 H   0  0  0  0  0  0
  -28.7752  -19.3077   17.8164 H   0  0  0  0  0  0
  -31.5444  -17.4285   21.4724 H   0  0  0  0  0  0
  -33.6496  -18.5992   21.1378 H   0  0  0  0  0  0
  -34.2032  -20.2335   21.4602 H   0  0  0  0  0  0
  -33.8160  -19.7466   19.8142 H   0  0  0  0  0  0
  -27.3686  -14.7561   15.7425 H   0  0  0  0  0  0
  -26.4031  -16.1459   16.2264 H   0  0  0  0  0  0
  -26.6133  -14.7963   17.3327 H   0  0  0  0  0  0
  -29.2604  -16.1930   15.2360 H   0  0  0  0  0  0
  -30.0175  -17.1839   16.4628 H   0  0  0  0  0  0
  -28.4807  -17.6862   15.7503 H   0  0  0  0  0  0
  -27.2435  -17.5953   18.0923 H   0  0  0  0  0  0
  -27.4897  -16.2315   19.0983 H   0  0  0  0  0  0
  -29.5204  -25.0217   21.6879 H   0  0  0  0  0  0
  -28.4507  -23.7349   21.2375 H   0  0  0  0  0  0
  -31.3139  -24.1987   20.3607 H   0  0  0  0  0  0
  -30.2635  -23.3325   19.2587 H   0  0  0  0  0  0
  -32.2191  -21.8054   19.6777 H   0  0  0  0  0  0
  -32.7243  -22.1881   21.2896 H   0  0  0  0  0  0
  -27.5408  -24.8505   19.5942 H   0  0  0  0  0  0
  -29.0341  -25.2651   18.8206 H   0  0  0  0  0  0
  -31.8254  -19.9911   22.1176 H   0  0  0  0  0  0
  -28.8416  -15.3510   20.7178 H   0  0  0  0  0  0
  -29.9139  -21.6527   20.8044 H   0  0  0  0  0  0
  -30.6117  -22.4530   22.0327 H   0  0  0  0  0  0
  -28.9451  -15.3258   17.4305 H   0  0  0  0  0  0
  1 25  1  0  0  0
  1 30  2  0  0  0
  1 86  1  0  0  0
  2  3  1  0  0  0
  2 25  1  0  0  0
  2 89  1  0  0  0
  2 90  1  0  0  0
  3  4  1  0  0  0
  3 91  1  0  0  0
  3 92  1  0  0  0
  4  5  1  0  0  0
  4 93  1  0  0  0
  4 94  1  0  0  0
  5  6  1  0  0  0
  5 26  1  0  0  0
  5 95  1  0  0  0
  6 25  1  0  0  0
  6 96  1  0  0  0
  6 97  1  0  0  0
  7  8  2  0  0  0
  7 26  1  0  0  0
  7 29  1  0  0  0
  8  9  1  0  0  0
  8 22  1  0  0  0
  9 10  1  0  0  0
  9 27  2  0  0  0
 10 11  2  0  0  0
 10 15  1  0  0  0
 11 12  1  0  0  0
 11 98  1  0  0  0
 12 13  2  0  0  0
 12 99  1  0  0  0
 13 14  1  0  0  0
 13 31  1  0  0  0
 14 15  2  0  0  0
 14100  1  0  0  0
 15101  1  0  0  0
 16 17  2  0  0  0
 16 21  1  0  0  0
 16 31  1  0  0  0
 17 18  1  0  0  0
 17102  1  0  0  0
 18 19  2  0  0  0
 18103  1  0  0  0
 19 20  1  0  0  0
 19 24  1  0  0  0
 20 21  2  0  0  0
 20104  1  0  0  0
 21 23  1  0  0  0
 22 28  1  0  0  0
 22 32  2  0  0  0
 26 27  1  0  0  0
 28105  1  0  0  0
 28106  1  0  0  0
 29107  1  0  0  0
 29108  1  0  0  0
 33 34  1  0  0  0
 33 66  1  0  0  0
 33 70  2  0  0  0
 34 36  1  0  0  0
 34 59  1  0  0  0
 34109  1  0  0  0
 35 44  2  0  0  0
 35 45  1  0  0  0
 35 68  1  0  0  0
 36 56  1  0  0  0
 36110  1  0  0  0
 37 39  1  0  0  0
 37 47  1  0  0  0
 37 66  1  0  0  0
 37111  1  0  0  0
 38 43  2  0  0  0
 38 46  1  0  0  0
 38 47  1  0  0  0
 39 64  1  0  0  0
 39 67  2  0  0  0
 40 52  1  0  0  0
 40 53  2  0  0  0
 40 58  1  0  0  0
 41112  1  0  0  0
 41113  1  0  0  0
 41114  1  0  0  0
 41 48  1  0  0  0
 42 43  1  0  0  0
 42 66  1  0  0  0
 42115  1  0  0  0
 42116  1  0  0  0
 43 44  1  0  0  0
 44117  1  0  0  0
 45 46  2  0  0  0
 45118  1  0  0  0
 46119  1  0  0  0
 47120  1  0  0  0
 47121  1  0  0  0
 48 56  1  0  0  0
 48 65  1  0  0  0
 48122  1  0  0  0
 49 50  1  0  0  0
 49 53  1  0  0  0
 49 64  1  0  0  0
 49123  1  0  0  0
 50 51  1  0  0  0
 50124  1  0  0  0
 50125  1  0  0  0
 51 52  1  0  0  0
 51126  1  0  0  0
 51127  1  0  0  0
 52128  1  0  0  0
 52129  1  0  0  0
 53 54  1  0  0  0
 54 55  2  0  0  0
 54130  1  0  0  0
 55 57  1  0  0  0
 55131  1  0  0  0
 56 69  2  0  0  0
 57 58  2  0  0  0
 57132  1  0  0  0
 58133  1  0  0  0
 59 60  1  0  0  0
 59 61  1  0  0  0
 59 62  1  0  0  0
 60134  1  0  0  0
 60135  1  0  0  0
 60136  1  0  0  0
 61137  1  0  0  0
 61138  1  0  0  0
 61139  1  0  0  0
 62140  1  0  0  0
 62141  1  0  0  0
 62142  1  0  0  0
 63 65  1  0  0  0
 63143  1  0  0  0
 63144  1  0  0  0
 63145  1  0  0  0
 64146  1  0  0  0
 65147  1  0  0  0
 68 84  1  0  0  0
 71 72  2  0  0  0
 71 74  1  0  0  0
 71148  1  0  0  0
 72 75  1  0  0  0
 72149  1  0  0  0
 73 74  2  0  0  0
 73 76  1  0  0  0
 73150  1  0  0  0
 74 85  1  0  0  0
 75 76  2  0  0  0
 75 80  1  0  0  0
 76 86  1  0  0  0
 77151  1  0  0  0
 77152  1  0  0  0
 77153  1  0  0  0
 77 85  1  0  0  0
 78154  1  0  0  0
 78155  1  0  0  0
 78156  1  0  0  0
 78 88  1  0  0  0
 79 88  1  0  0  0
 79157  1  0  0  0
 79158  1  0  0  0
 79159  1  0  0  0
 80 88  1  0  0  0
 80160  1  0  0  0
 80161  1  0  0  0
 81 82  1  0  0  0
 81 84  1  0  0  0
 81162  1  0  0  0
 81163  1  0  0  0
 82 87  1  0  0  0
 82164  1  0  0  0
 82165  1  0  0  0
 83 85  1  0  0  0
 83 87  1  0  0  0
 83166  1  0  0  0
 83167  1  0  0  0
 84168  1  0  0  0
 84169  1  0  0  0
 85170  1  0  0  0
 86171  1  0  0  0
 87172  1  0  0  0
 87173  1  0  0  0
 88174  1  0  0  0
M  CHG  2  87   1  88   1
M  ISO  4   1 100  68 101  84 101  86 100
M  END
> <chiral flag>
0

> <version>
0

> <s_m_source_file>
/data/baiqing/PycharmProjects/Reinvent-master-3.2/result/LINK_invent/BTK/process_docking_weight1_custom_sum_contain_oxygen_bond_distance_aromatic_linkinvent_7_9_3/rearranged_h_0106.sdf

> <i_m_source_file_index>
56

> <r_mmod_Potential_Energy-OPLS-2005>
-273.666931152344

> <r_mmod_Stretch_Energy-OPLS-2005>
48.9972305297852

> <r_mmod_Bend_Energy-OPLS-2005>
120.77904510498

> <r_mmod_Torsional_Energy-OPLS-2005>
268.583862304688

> <r_mmod_Improper_Torsional_Energy-OPLS-2005>
10.9817800521851

> <r_mmod_Van_der_Waal_Energy-OPLS-2005>
144.011215209961

> <r_mmod_Electrostatic_Energy-OPLS-2005>
-14.0922050476074

> <r_mmod_Solvation_Energy-OPLS-2005>
-881.170837402344

> <b_mmod_Minimization_Converged-OPLS-2005>
0

> <r_mmod_RMS_Derivative-OPLS-2005>
4.13401746749878

$$$$
56
                    3D
 Structure written by MMmdl.
174182  0  0  1  0            999 V2000
  -30.6398  -14.7609   20.3456 C   0  0  0  0  0  0
  -30.4353  -12.4420   19.4614 C   0  0  0  0  0  0
  -29.5051  -12.3911   18.2309 C   0  0  0  0  0  0
  -28.0261  -12.2563   18.6582 C   0  0  0  0  0  0
  -27.6210  -13.1843   19.8355 C   0  0  2  0  0  0
  -28.6891  -13.2273   20.9494 C   0  0  0  0  0  0
  -25.2514  -13.8038   20.5782 C   0  0  0  0  0  0
  -24.1757  -13.0360   20.9260 C   0  0  0  0  0  0
  -24.6301  -11.6820   20.8827 C   0  0  0  0  0  0
  -23.8980  -10.4229   21.0461 C   0  0  0  0  0  0
  -24.3558   -9.4146   21.9219 C   0  0  0  0  0  0
  -23.6248   -8.2181   22.0760 C   0  0  0  0  0  0
  -22.4234   -8.0233   21.3540 C   0  0  0  0  0  0
  -21.9860   -9.0205   20.4647 C   0  0  0  0  0  0
  -22.7177  -10.2088   20.3079 C   0  0  0  0  0  0
  -21.6828   -6.0710   22.5283 C   0  0  0  0  0  0
  -21.3996   -6.5625   23.8213 C   0  0  0  0  0  0
  -21.3652   -5.6785   24.9181 C   0  0  0  0  0  0
  -21.6043   -4.3051   24.7237 C   0  0  0  0  0  0
  -21.8821   -3.8131   23.4361 C   0  0  0  0  0  0
  -21.9185   -4.6939   22.3412 C   0  0  0  0  0  0
  -22.7797  -13.5208   21.1879 C   0  0  0  0  0  0
  -22.1657   -4.2125   21.0992 F   0  0  0  0  0  0
  -21.5629   -3.4539   25.7754 F   0  0  0  0  0  0
  -29.9768  -13.5526   20.3198 N   0  0  0  0  0  0
  -26.2858  -12.9117   20.3375 N   0  0  0  0  0  0
  -25.9213  -11.6326   20.5878 N   0  0  0  0  0  0
  -22.0407  -12.8225   22.0432 N   0  0  0  0  0  0
  -25.4285  -15.1764   20.4216 N   0  0  0  0  0  0
  -31.8703  -14.7793   20.2884 O   0  0  0  0  0  0
  -21.6607   -6.8831   21.4233 O   0  0  0  0  0  0
  -22.3523  -14.5524   20.6711 O   0  0  0  0  0  0
  -24.6243  -31.8570   23.1991 C   0  0  0  0  0  0
  -25.9091  -32.4759   23.8330 C   0  0  1  0  0  0
  -27.2402  -27.3213   20.1213 C   0  0  0  0  0  0
  -25.5913  -33.8562   24.2260 N   0  0  0  0  0  0
  -23.4185  -30.4757   21.5406 C   0  0  2  0  0  0
  -24.8686  -28.9230   20.1071 C   0  0  0  0  0  0
  -22.7464  -29.4596   22.4931 C   0  0  0  0  0  0
  -18.0283  -28.1369   22.8489 C   0  0  0  0  0  0
  -24.1489  -36.7292   23.2640 C   0  0  0  0  0  0
  -25.9549  -30.7885   21.3669 C   0  0  0  0  0  0
  -26.0301  -29.4127   20.7149 C   0  0  0  0  0  0
  -27.2115  -28.6191   20.7179 C   0  0  0  0  0  0
  -26.0583  -26.8733   19.4918 C   0  0  0  0  0  0
  -24.8842  -27.6590   19.4884 C   0  0  0  0  0  0
  -23.6330  -29.8010   20.1573 C   0  0  0  0  0  0
  -25.4114  -36.3072   24.0324 C   0  0  1  0  0  0
  -20.5878  -28.3672   23.1289 C   0  0  2  0  0  0
  -20.6768  -26.9396   22.5417 C   0  0  0  0  0  0
  -19.5747  -26.6376   21.5215 C   0  0  0  0  0  0
  -18.1922  -26.7918   22.1621 C   0  0  0  0  0  0
  -19.1534  -28.8840   23.2886 C   0  0  0  0  0  0
  -18.9456  -30.1448   23.8899 C   0  0  0  0  0  0
  -17.6457  -30.6578   24.0562 C   0  0  0  0  0  0
  -25.9053  -34.9443   23.5096 C   0  0  0  0  0  0
  -16.5346  -29.9075   23.6326 C   0  0  0  0  0  0
  -16.7269  -28.6490   23.0352 C   0  0  0  0  0  0
  -26.4486  -31.6570   25.0700 C   0  0  0  0  0  0
  -25.3733  -31.3668   26.1429 C   0  0  0  0  0  0
  -27.0336  -30.3004   24.6132 C   0  0  0  0  0  0
  -27.6047  -32.4296   25.7483 C   0  0  0  0  0  0
  -27.5572  -37.1804   24.8460 C   0  0  0  0  0  0
  -21.4175  -29.3024   22.3688 N   0  0  0  0  0  0
  -26.4284  -37.3776   23.9407 N   0  0  0  0  0  0
  -24.6843  -31.0579   22.0930 N   0  0  0  0  0  0
  -23.4187  -28.8144   23.3021 O   0  0  0  0  0  0
  -28.3916  -26.5294   20.2198 O   0  0  0  0  0  0
  -26.5635  -34.8911   22.4670 O   0  0  0  0  0  0
  -23.5405  -32.1362   23.7325 O   0  0  0  0  0  0
  -31.0901  -20.4128   20.6238 C   0  0  0  0  0  0
  -29.2774  -18.5545   20.3945 C   0  0  0  0  0  0
  -31.6743  -20.2368   19.2097 C   0  0  0  0  0  0
  -31.6337  -17.7129   19.4800 C   0  0  0  0  0  0
  -29.5915  -20.0826   20.8128 C   0  0  2  0  0  0
  -30.4073  -17.3870   20.4020 C   0  0  2  0  0  0
  -26.9726  -21.3233   22.3966 C   0  0  0  0  0  0
  -25.9307  -21.4117   20.0761 C   0  0  0  0  0  0
  -29.0486  -16.0270   18.9603 C   0  0  0  0  0  0
  -28.0035  -23.8475   20.1288 C   0  0  0  0  0  0
  -28.5835  -25.2233   19.5567 C   0  0  0  0  0  0
  -28.5477  -21.2297   20.3055 C   0  0  1  0  0  0
  -27.1322  -20.9317   20.9138 C   0  0  0  0  0  0
  -29.9254  -15.9527   20.1414 N   0  0  0  0  0  0
  -31.4519  -18.9017   18.6119 N   0  3  0  0  0  0
  -28.9711  -22.7028   20.4632 N   0  3  0  0  0  0
  -31.4706  -12.5700   19.1401 H   0  0  0  0  0  0
  -30.4048  -11.5003   20.0119 H   0  0  0  0  0  0
  -29.7777  -11.5381   17.6081 H   0  0  0  0  0  0
  -29.6541  -13.2600   17.5933 H   0  0  0  0  0  0
  -27.8798  -11.2177   18.9573 H   0  0  0  0  0  0
  -27.3684  -12.4157   17.8028 H   0  0  0  0  0  0
  -27.5245  -14.1613   19.3982 H   0  0  0  0  0  0
  -28.7477  -12.2720   21.4723 H   0  0  0  0  0  0
  -28.4291  -13.9804   21.6956 H   0  0  0  0  0  0
  -25.2694   -9.5619   22.4806 H   0  0  0  0  0  0
  -23.9949   -7.4563   22.7475 H   0  0  0  0  0  0
  -21.0788   -8.8720   19.8955 H   0  0  0  0  0  0
  -22.3638  -10.9637   19.6198 H   0  0  0  0  0  0
  -21.1983   -7.6132   23.9707 H   0  0  0  0  0  0
  -21.1474   -6.0523   25.9084 H   0  0  0  0  0  0
  -22.0610   -2.7592   23.2877 H   0  0  0  0  0  0
  -22.3996  -11.9885   22.4835 H   0  0  0  0  0  0
  -21.1031  -13.1276   22.2627 H   0  0  0  0  0  0
  -24.6702  -15.8377   20.5487 H   0  0  0  0  0  0
  -26.2997  -15.6154   20.1549 H   0  0  0  0  0  0
  -26.7163  -32.5423   23.1085 H   0  0  0  0  0  0
  -25.0034  -33.9715   25.0386 H   0  0  0  0  0  0
  -22.7125  -31.2952   21.3928 H   0  0  0  0  0  0
  -23.3751  -35.9625   23.3288 H   0  0  0  0  0  0
  -24.3590  -36.8933   22.2061 H   0  0  0  0  0  0
  -23.7241  -37.6486   23.6677 H   0  0  0  0  0  0
  -26.0795  -31.5474   20.5931 H   0  0  0  0  0  0
  -26.8383  -30.8446   21.9913 H   0  0  0  0  0  0
  -28.1016  -28.9889   21.2079 H   0  0  0  0  0  0
  -26.0179  -25.9000   19.0247 H   0  0  0  0  0  0
  -23.9914  -27.2753   19.0134 H   0  0  0  0  0  0
  -23.7454  -30.5730   19.3950 H   0  0  0  0  0  0
  -22.7551  -29.2237   19.8613 H   0  0  0  0  0  0
  -25.1297  -36.1919   25.0817 H   0  0  0  0  0  0
  -20.9973  -28.3242   24.1410 H   0  0  0  0  0  0
  -20.5654  -26.2282   23.3615 H   0  0  0  0  0  0
  -21.6636  -26.7415   22.1215 H   0  0  0  0  0  0
  -19.6908  -25.6290   21.1236 H   0  0  0  0  0  0
  -19.6685  -27.3198   20.6754 H   0  0  0  0  0  0
  -17.4196  -26.6674   21.4019 H   0  0  0  0  0  0
  -18.0315  -26.0048   22.9003 H   0  0  0  0  0  0
  -19.7936  -30.7266   24.2259 H   0  0  0  0  0  0
  -17.5009  -31.6257   24.5162 H   0  0  0  0  0  0
  -15.5348  -30.2979   23.7648 H   0  0  0  0  0  0
  -15.8667  -28.0811   22.7064 H   0  0  0  0  0  0
  -24.5942  -30.6981   25.7756 H   0  0  0  0  0  0
  -24.8881  -32.2807   26.4867 H   0  0  0  0  0  0
  -25.8077  -30.8851   27.0198 H   0  0  0  0  0  0
  -26.2899  -29.6749   24.1181 H   0  0  0  0  0  0
  -27.4079  -29.7258   25.4615 H   0  0  0  0  0  0
  -27.8743  -30.4310   23.9315 H   0  0  0  0  0  0
  -27.2673  -33.3614   26.2035 H   0  0  0  0  0  0
  -28.3887  -32.6821   25.0333 H   0  0  0  0  0  0
  -28.0681  -31.8426   26.5424 H   0  0  0  0  0  0
  -28.2570  -38.0122   24.7524 H   0  0  0  0  0  0
  -28.1084  -36.2648   24.6257 H   0  0  0  0  0  0
  -27.2289  -37.1421   25.8863 H   0  0  0  0  0  0
  -20.9347  -29.8759   21.6913 H   0  0  0  0  0  0
  -26.0149  -38.2843   24.1416 H   0  0  0  0  0  0
  -31.2994  -21.4254   20.9675 H   0  0  0  0  0  0
  -31.6651  -19.7898   21.3104 H   0  0  0  0  0  0
  -28.8200  -18.6064   19.4073 H   0  0  0  0  0  0
  -28.4735  -18.1983   21.0395 H   0  0  0  0  0  0
  -32.7499  -20.4153   19.2511 H   0  0  0  0  0  0
  -31.2703  -20.9925   18.5350 H   0  0  0  0  0  0
  -31.8403  -16.8860   18.8000 H   0  0  0  0  0  0
  -32.5416  -17.8278   20.0742 H   0  0  0  0  0  0
  -29.4953  -20.0847   21.8987 H   0  0  0  0  0  0
  -30.7926  -17.3577   21.4227 H   0  0  0  0  0  0
  -25.9919  -21.0251   22.7694 H   0  0  0  0  0  0
  -27.0590  -22.3977   22.5546 H   0  0  0  0  0  0
  -27.7109  -20.8350   23.0322 H   0  0  0  0  0  0
  -25.0448  -20.8222   20.3139 H   0  0  0  0  0  0
  -26.1074  -21.2996   19.0059 H   0  0  0  0  0  0
  -25.6643  -22.4486   20.2747 H   0  0  0  0  0  0
  -29.3657  -16.7897   18.2504 H   0  0  0  0  0  0
  -28.0256  -16.2649   19.2511 H   0  0  0  0  0  0
  -29.0489  -15.1301   18.3529 H   0  0  0  0  0  0
  -27.3568  -23.4848   19.3327 H   0  0  0  0  0  0
  -27.3566  -24.0518   20.9809 H   0  0  0  0  0  0
  -28.2577  -25.3329   18.5212 H   0  0  0  0  0  0
  -29.6643  -25.1084   19.4705 H   0  0  0  0  0  0
  -28.4652  -21.0865   19.2272 H   0  0  0  0  0  0
  -27.0144  -19.8499   20.8874 H   0  0  0  0  0  0
  -32.1055  -18.8200   17.8482 H   0  0  0  0  0  0
  -30.5346  -18.8648   18.2004 H   0  0  0  0  0  0
  -29.2855  -22.8433   21.4114 H   0  0  0  0  0  0
  -29.7804  -22.8296   19.8759 H   0  0  0  0  0  0
  1 25  1  0  0  0
  1 30  2  0  0  0
  1 84  1  0  0  0
  2  3  1  0  0  0
  2 25  1  0  0  0
  2 87  1  0  0  0
  2 88  1  0  0  0
  3  4  1  0  0  0
  3 89  1  0  0  0
  3 90  1  0  0  0
  4  5  1  0  0  0
  4 91  1  0  0  0
  4 92  1  0  0  0
  5  6  1  0  0  0
  5 26  1  0  0  0
  5 93  1  0  0  0
  6 25  1  0  0  0
  6 94  1  0  0  0
  6 95  1  0  0  0
  7  8  2  0  0  0
  7 26  1  0  0  0
  7 29  1  0  0  0
  8  9  1  0  0  0
  8 22  1  0  0  0
  9 10  1  0  0  0
  9 27  2  0  0  0
 10 11  2  0  0  0
 10 15  1  0  0  0
 11 12  1  0  0  0
 11 96  1  0  0  0
 12 13  2  0  0  0
 12 97  1  0  0  0
 13 14  1  0  0  0
 13 31  1  0  0  0
 14 15  2  0  0  0
 14 98  1  0  0  0
 15 99  1  0  0  0
 16 17  2  0  0  0
 16 21  1  0  0  0
 16 31  1  0  0  0
 17 18  1  0  0  0
 17100  1  0  0  0
 18 19  2  0  0  0
 18101  1  0  0  0
 19 20  1  0  0  0
 19 24  1  0  0  0
 20 21  2  0  0  0
 20102  1  0  0  0
 21 23  1  0  0  0
 22 28  1  0  0  0
 22 32  2  0  0  0
 26 27  1  0  0  0
 28103  1  0  0  0
 28104  1  0  0  0
 29105  1  0  0  0
 29106  1  0  0  0
 33 34  1  0  0  0
 33 66  1  0  0  0
 33 70  2  0  0  0
 34 36  1  0  0  0
 34 59  1  0  0  0
 34107  1  0  0  0
 35 44  2  0  0  0
 35 45  1  0  0  0
 35 68  1  0  0  0
 36 56  1  0  0  0
 36108  1  0  0  0
 37 39  1  0  0  0
 37 47  1  0  0  0
 37 66  1  0  0  0
 37109  1  0  0  0
 38 43  2  0  0  0
 38 46  1  0  0  0
 38 47  1  0  0  0
 39 64  1  0  0  0
 39 67  2  0  0  0
 40 52  1  0  0  0
 40 53  2  0  0  0
 40 58  1  0  0  0
 41110  1  0  0  0
 41111  1  0  0  0
 41112  1  0  0  0
 41 48  1  0  0  0
 42 43  1  0  0  0
 42 66  1  0  0  0
 42113  1  0  0  0
 42114  1  0  0  0
 43 44  1  0  0  0
 44115  1  0  0  0
 45 46  2  0  0  0
 45116  1  0  0  0
 46117  1  0  0  0
 47118  1  0  0  0
 47119  1  0  0  0
 48 56  1  0  0  0
 48 65  1  0  0  0
 48120  1  0  0  0
 49 50  1  0  0  0
 49 53  1  0  0  0
 49 64  1  0  0  0
 49121  1  0  0  0
 50 51  1  0  0  0
 50122  1  0  0  0
 50123  1  0  0  0
 51 52  1  0  0  0
 51124  1  0  0  0
 51125  1  0  0  0
 52126  1  0  0  0
 52127  1  0  0  0
 53 54  1  0  0  0
 54 55  2  0  0  0
 54128  1  0  0  0
 55 57  1  0  0  0
 55129  1  0  0  0
 56 69  2  0  0  0
 57 58  2  0  0  0
 57130  1  0  0  0
 58131  1  0  0  0
 59 60  1  0  0  0
 59 61  1  0  0  0
 59 62  1  0  0  0
 60132  1  0  0  0
 60133  1  0  0  0
 60134  1  0  0  0
 61135  1  0  0  0
 61136  1  0  0  0
 61137  1  0  0  0
 62138  1  0  0  0
 62139  1  0  0  0
 62140  1  0  0  0
 63 65  1  0  0  0
 63141  1  0  0  0
 63142  1  0  0  0
 63143  1  0  0  0
 64144  1  0  0  0
 65145  1  0  0  0
 68 81  1  0  0  0
 71 73  1  0  0  0
 71146  1  0  0  0
 71147  1  0  0  0
 71 75  1  0  0  0
 72 75  1  0  0  0
 72 76  1  0  0  0
 72148  1  0  0  0
 72149  1  0  0  0
 73 85  1  0  0  0
 73150  1  0  0  0
 73151  1  0  0  0
 74 76  1  0  0  0
 74 85  1  0  0  0
 74152  1  0  0  0
 74153  1  0  0  0
 75 82  1  0  0  0
 75154  1  0  0  0
 76 84  1  0  0  0
 76155  1  0  0  0
 77156  1  0  0  0
 77157  1  0  0  0
 77158  1  0  0  0
 77 83  1  0  0  0
 78 83  1  0  0  0
 78159  1  0  0  0
 78160  1  0  0  0
 78161  1  0  0  0
 79 84  1  0  0  0
 79162  1  0  0  0
 79163  1  0  0  0
 79164  1  0  0  0
 80 81  1  0  0  0
 80 86  1  0  0  0
 80165  1  0  0  0
 80166  1  0  0  0
 81167  1  0  0  0
 81168  1  0  0  0
 82 83  1  0  0  0
 82 86  1  0  0  0
 82169  1  0  0  0
 83170  1  0  0  0
 85171  1  0  0  0
 85172  1  0  0  0
 86173  1  0  0  0
 86174  1  0  0  0
M  CHG  2  85   1  86   1
M  ISO  4   1 100  68 101  81 101  84 100
M  END
> <chiral flag>
0

> <version>
0

> <s_m_source_file>
/data/baiqing/PycharmProjects/Reinvent-master-3.2/result/LINK_invent/BTK/process_docking_weight1_custom_sum_contain_oxygen_bond_distance_aromatic_linkinvent_7_9_3/rearranged_h_0106.sdf

> <i_m_source_file_index>
57

> <r_mmod_Potential_Energy-OPLS-2005>
203.894393920898

> <r_mmod_Stretch_Energy-OPLS-2005>
119.759757995605

> <r_mmod_Bend_Energy-OPLS-2005>
212.501007080078

> <r_mmod_Torsional_Energy-OPLS-2005>
429.692993164062

> <r_mmod_Improper_Torsional_Energy-OPLS-2005>
9.58621406555176

> <r_mmod_Van_der_Waal_Energy-OPLS-2005>
144.886123657227

> <r_mmod_Electrostatic_Energy-OPLS-2005>
135.786712646484

> <r_mmod_Solvation_Energy-OPLS-2005>
-939.054260253906

> <b_mmod_Minimization_Converged-OPLS-2005>
0

> <r_mmod_RMS_Derivative-OPLS-2005>
1.22760319709778

$$$$
57
                    3D
 Structure written by MMmdl.
166174  0  0  1  0            999 V2000
  -30.4902  -14.9804   20.3873 C   0  0  0  0  0  0
  -30.4495  -12.6149   19.4689 C   0  0  0  0  0  0
  -29.5104  -12.5168   18.2441 C   0  0  0  0  0  0
  -28.0533  -12.2835   18.6833 C   0  0  0  0  0  0
  -27.6253  -13.2341   19.8301 C   0  0  2  0  0  0
  -28.6749  -13.2756   20.9589 C   0  0  0  0  0  0
  -25.2480  -13.8186   20.5703 C   0  0  0  0  0  0
  -24.1791  -13.0412   20.9231 C   0  0  0  0  0  0
  -24.6397  -11.6907   20.8762 C   0  0  0  0  0  0
  -23.9074  -10.4284   21.0401 C   0  0  0  0  0  0
  -24.3609   -9.4193   21.9174 C   0  0  0  0  0  0
  -23.6287   -8.2224   22.0745 C   0  0  0  0  0  0
  -22.4277   -8.0274   21.3539 C   0  0  0  0  0  0
  -21.9906   -9.0250   20.4630 C   0  0  0  0  0  0
  -22.7235  -10.2127   20.3044 C   0  0  0  0  0  0
  -21.6853   -6.0728   22.5286 C   0  0  0  0  0  0
  -21.4016   -6.5639   23.8213 C   0  0  0  0  0  0
  -21.3657   -5.6788   24.9171 C   0  0  0  0  0  0
  -21.6044   -4.3052   24.7214 C   0  0  0  0  0  0
  -21.8833   -3.8147   23.4343 C   0  0  0  0  0  0
  -21.9198   -4.6961   22.3394 C   0  0  0  0  0  0
  -22.7814  -13.5190   21.1887 C   0  0  0  0  0  0
  -22.1668   -4.2148   21.0973 F   0  0  0  0  0  0
  -21.5614   -3.4536   25.7734 F   0  0  0  0  0  0
  -29.9360  -13.7039   20.3457 N   0  0  0  0  0  0
  -26.2880  -12.9384   20.3237 N   0  0  0  0  0  0
  -25.9321  -11.6541   20.5756 N   0  0  0  0  0  0
  -22.0471  -12.8153   22.0435 N   0  0  0  0  0  0
  -25.4126  -15.1920   20.4142 N   0  0  0  0  0  0
  -31.7043  -15.0740   20.1654 O   0  0  0  0  0  0
  -21.6644   -6.8868   21.4251 O   0  0  0  0  0  0
  -22.3481  -14.5468   20.6720 O   0  0  0  0  0  0
  -24.6421  -31.8393   23.1841 C   0  0  0  0  0  0
  -25.9192  -32.4662   23.8221 C   0  0  1  0  0  0
  -27.2168  -27.1066   20.1548 C   0  0  0  0  0  0
  -25.5919  -33.8462   24.2147 N   0  0  0  0  0  0
  -23.4473  -30.4529   21.5305 C   0  0  2  0  0  0
  -24.8955  -28.8660   20.1039 C   0  0  0  0  0  0
  -22.7563  -29.4517   22.4873 C   0  0  0  0  0  0
  -18.0310  -28.1386   22.8448 C   0  0  0  0  0  0
  -24.1466  -36.7263   23.2639 C   0  0  0  0  0  0
  -25.9991  -30.7013   21.3839 C   0  0  0  0  0  0
  -26.0693  -29.3067   20.7294 C   0  0  0  0  0  0
  -27.2247  -28.4380   20.7398 C   0  0  0  0  0  0
  -26.0211  -26.7659   19.4885 C   0  0  0  0  0  0
  -24.8842  -27.6102   19.4724 C   0  0  0  0  0  0
  -23.6733  -29.7753   20.1493 C   0  0  0  0  0  0
  -25.4103  -36.3014   24.0306 C   0  0  1  0  0  0
  -20.5910  -28.3716   23.1213 C   0  0  2  0  0  0
  -20.6773  -26.9420   22.5392 C   0  0  0  0  0  0
  -19.5768  -26.6376   21.5181 C   0  0  0  0  0  0
  -18.1935  -26.7924   22.1597 C   0  0  0  0  0  0
  -19.1565  -28.8863   23.2808 C   0  0  0  0  0  0
  -18.9482  -30.1448   23.8851 C   0  0  0  0  0  0
  -17.6486  -30.6580   24.0548 C   0  0  0  0  0  0
  -25.9058  -34.9387   23.5043 C   0  0  0  0  0  0
  -16.5367  -29.9086   23.6320 C   0  0  0  0  0  0
  -16.7286  -28.6511   23.0319 C   0  0  0  0  0  0
  -26.4506  -31.6533   25.0666 C   0  0  0  0  0  0
  -25.3688  -31.3720   26.1372 C   0  0  0  0  0  0
  -27.0373  -30.2919   24.6254 C   0  0  0  0  0  0
  -27.6026  -32.4331   25.7431 C   0  0  0  0  0  0
  -27.5578  -37.1775   24.8471 C   0  0  0  0  0  0
  -21.4260  -29.3043   22.3600 N   0  0  0  0  0  0
  -26.4277  -37.3739   23.9417 N   0  0  0  0  0  0
  -24.7156  -31.0221   22.0886 N   0  0  0  0  0  0
  -23.4195  -28.8093   23.3038 O   0  0  0  0  0  0
  -28.2873  -26.1452   20.2858 O   0  0  0  0  0  0
  -26.5686  -34.8900   22.4647 O   0  0  0  0  0  0
  -23.5533  -32.1286   23.7057 O   0  0  0  0  0  0
  -28.5534  -20.7428   18.4134 C   0  0  0  0  0  0
  -28.9177  -20.4141   19.6843 C   0  0  0  0  0  0
  -29.1691  -18.8907   19.6464 C   0  0  0  0  0  0
  -28.7454  -18.5158   18.3800 C   0  0  0  0  0  0
  -28.6185  -17.1409   17.7799 C   0  0  0  0  0  0
  -28.8202  -21.1400   22.0896 C   0  0  0  0  0  0
  -29.6050  -19.4308   15.4048 C   0  0  0  0  0  0
  -27.6214  -20.9833   15.6356 C   0  0  0  0  0  0
  -29.8242  -17.7042   20.6140 C   0  0  0  0  0  0
  -28.1259  -23.1815   20.5685 C   0  0  0  0  0  0
  -28.3881  -24.6613   19.7818 C   0  0  0  0  0  0
  -29.0269  -21.7171   20.6783 C   0  0  2  0  0  0
  -28.2742  -19.6803   16.1402 C   0  0  0  0  0  0
  -28.4950  -19.6410   17.5980 N   0  0  0  0  0  0
  -29.6470  -16.1270   20.4787 N   0  0  0  0  0  0
  -31.4656  -12.8216   19.1282 H   0  0  0  0  0  0
  -30.5017  -11.6706   20.0119 H   0  0  0  0  0  0
  -29.8323  -11.7152   17.5790 H   0  0  0  0  0  0
  -29.5711  -13.4395   17.6650 H   0  0  0  0  0  0
  -27.9750  -11.2492   19.0234 H   0  0  0  0  0  0
  -27.3758  -12.3748   17.8339 H   0  0  0  0  0  0
  -27.5818  -14.2247   19.3794 H   0  0  0  0  0  0
  -28.7854  -12.3026   21.4405 H   0  0  0  0  0  0
  -28.3819  -13.9765   21.7406 H   0  0  0  0  0  0
  -25.2762   -9.5672   22.4735 H   0  0  0  0  0  0
  -24.0016   -7.4618   22.7463 H   0  0  0  0  0  0
  -21.0839   -8.8745   19.8936 H   0  0  0  0  0  0
  -22.3688  -10.9655   19.6147 H   0  0  0  0  0  0
  -21.2021   -7.6155   23.9709 H   0  0  0  0  0  0
  -21.1454   -6.0521   25.9070 H   0  0  0  0  0  0
  -22.0616   -2.7615   23.2838 H   0  0  0  0  0  0
  -22.4126  -11.9831   22.4813 H   0  0  0  0  0  0
  -21.1081  -13.1130   22.2641 H   0  0  0  0  0  0
  -24.6353  -15.8328   20.5260 H   0  0  0  0  0  0
  -26.2435  -15.6465   20.0600 H   0  0  0  0  0  0
  -26.7260  -32.5263   23.0941 H   0  0  0  0  0  0
  -24.9921  -33.9542   25.0198 H   0  0  0  0  0  0
  -22.7506  -31.2776   21.3753 H   0  0  0  0  0  0
  -23.3723  -35.9603   23.3287 H   0  0  0  0  0  0
  -24.3551  -36.8930   22.2061 H   0  0  0  0  0  0
  -23.7225  -37.6440   23.6711 H   0  0  0  0  0  0
  -26.1469  -31.4496   20.6027 H   0  0  0  0  0  0
  -26.8729  -30.7653   22.0198 H   0  0  0  0  0  0
  -28.1155  -28.7612   21.2576 H   0  0  0  0  0  0
  -25.9354  -25.7972   19.0186 H   0  0  0  0  0  0
  -23.9864  -27.2616   18.9815 H   0  0  0  0  0  0
  -23.8187  -30.5490   19.3964 H   0  0  0  0  0  0
  -22.7835  -29.2249   19.8350 H   0  0  0  0  0  0
  -25.1279  -36.1834   25.0797 H   0  0  0  0  0  0
  -20.9984  -28.3333   24.1348 H   0  0  0  0  0  0
  -20.5620  -26.2340   23.3611 H   0  0  0  0  0  0
  -21.6635  -26.7405   22.1202 H   0  0  0  0  0  0
  -19.6910  -25.6276   21.1234 H   0  0  0  0  0  0
  -19.6685  -27.3149   20.6676 H   0  0  0  0  0  0
  -17.4183  -26.6616   21.4023 H   0  0  0  0  0  0
  -18.0372  -26.0067   22.9010 H   0  0  0  0  0  0
  -19.7971  -30.7240   24.2228 H   0  0  0  0  0  0
  -17.5063  -31.6264   24.5153 H   0  0  0  0  0  0
  -15.5375  -30.2976   23.7679 H   0  0  0  0  0  0
  -15.8685  -28.0837   22.7037 H   0  0  0  0  0  0
  -24.5870  -30.7057   25.7695 H   0  0  0  0  0  0
  -24.8847  -32.2888   26.4727 H   0  0  0  0  0  0
  -25.7952  -30.8923   27.0191 H   0  0  0  0  0  0
  -26.2964  -29.6624   24.1291 H   0  0  0  0  0  0
  -27.4004  -29.7225   25.4820 H   0  0  0  0  0  0
  -27.8871  -30.4116   23.9537 H   0  0  0  0  0  0
  -27.2613  -33.3676   26.1890 H   0  0  0  0  0  0
  -28.3870  -32.6834   25.0280 H   0  0  0  0  0  0
  -28.0662  -31.8547   26.5427 H   0  0  0  0  0  0
  -28.2566  -38.0094   24.7529 H   0  0  0  0  0  0
  -28.1108  -36.2626   24.6281 H   0  0  0  0  0  0
  -27.2326  -37.1411   25.8882 H   0  0  0  0  0  0
  -20.9488  -29.8776   21.6794 H   0  0  0  0  0  0
  -26.0137  -38.2796   24.1456 H   0  0  0  0  0  0
  -28.3601  -21.7243   18.0064 H   0  0  0  0  0  0
  -28.1380  -16.4596   18.4784 H   0  0  0  0  0  0
  -29.5921  -16.7310   17.5114 H   0  0  0  0  0  0
  -27.9818  -17.1061   16.8984 H   0  0  0  0  0  0
  -29.5505  -20.3593   22.3072 H   0  0  0  0  0  0
  -27.8308  -20.6886   22.1792 H   0  0  0  0  0  0
  -28.9155  -21.8955   22.8680 H   0  0  0  0  0  0
  -29.4501  -19.3278   14.3295 H   0  0  0  0  0  0
  -30.0923  -18.5193   15.7550 H   0  0  0  0  0  0
  -30.3012  -20.2570   15.5638 H   0  0  0  0  0  0
  -27.4078  -20.9131   14.5693 H   0  0  0  0  0  0
  -28.2713  -21.8479   15.7698 H   0  0  0  0  0  0
  -26.6750  -21.1830   16.1375 H   0  0  0  0  0  0
  -30.8997  -17.8848   20.6185 H   0  0  0  0  0  0
  -29.4946  -17.9449   21.6254 H   0  0  0  0  0  0
  -27.0850  -22.9037   20.3979 H   0  0  0  0  0  0
  -28.1064  -23.5324   21.6004 H   0  0  0  0  0  0
  -29.4373  -24.6009   19.4959 H   0  0  0  0  0  0
  -27.8649  -24.6132   18.8274 H   0  0  0  0  0  0
  -30.0774  -22.0085   20.6328 H   0  0  0  0  0  0
  -27.5721  -18.8918   15.8787 H   0  0  0  0  0  0
  -28.6780  -15.8609   20.5749 H   0  0  0  0  0  0
  1 25  1  0  0  0
  1 30  2  0  0  0
  1 85  1  0  0  0
  2  3  1  0  0  0
  2 25  1  0  0  0
  2 86  1  0  0  0
  2 87  1  0  0  0
  3  4  1  0  0  0
  3 88  1  0  0  0
  3 89  1  0  0  0
  4  5  1  0  0  0
  4 90  1  0  0  0
  4 91  1  0  0  0
  5  6  1  0  0  0
  5 26  1  0  0  0
  5 92  1  0  0  0
  6 25  1  0  0  0
  6 93  1  0  0  0
  6 94  1  0  0  0
  7  8  2  0  0  0
  7 26  1  0  0  0
  7 29  1  0  0  0
  8  9  1  0  0  0
  8 22  1  0  0  0
  9 10  1  0  0  0
  9 27  2  0  0  0
 10 11  2  0  0  0
 10 15  1  0  0  0
 11 12  1  0  0  0
 11 95  1  0  0  0
 12 13  2  0  0  0
 12 96  1  0  0  0
 13 14  1  0  0  0
 13 31  1  0  0  0
 14 15  2  0  0  0
 14 97  1  0  0  0
 15 98  1  0  0  0
 16 17  2  0  0  0
 16 21  1  0  0  0
 16 31  1  0  0  0
 17 18  1  0  0  0
 17 99  1  0  0  0
 18 19  2  0  0  0
 18100  1  0  0  0
 19 20  1  0  0  0
 19 24  1  0  0  0
 20 21  2  0  0  0
 20101  1  0  0  0
 21 23  1  0  0  0
 22 28  1  0  0  0
 22 32  2  0  0  0
 26 27  1  0  0  0
 28102  1  0  0  0
 28103  1  0  0  0
 29104  1  0  0  0
 29105  1  0  0  0
 33 34  1  0  0  0
 33 66  1  0  0  0
 33 70  2  0  0  0
 34 36  1  0  0  0
 34 59  1  0  0  0
 34106  1  0  0  0
 35 44  2  0  0  0
 35 45  1  0  0  0
 35 68  1  0  0  0
 36 56  1  0  0  0
 36107  1  0  0  0
 37 39  1  0  0  0
 37 47  1  0  0  0
 37 66  1  0  0  0
 37108  1  0  0  0
 38 43  2  0  0  0
 38 46  1  0  0  0
 38 47  1  0  0  0
 39 64  1  0  0  0
 39 67  2  0  0  0
 40 52  1  0  0  0
 40 53  2  0  0  0
 40 58  1  0  0  0
 41109  1  0  0  0
 41110  1  0  0  0
 41111  1  0  0  0
 41 48  1  0  0  0
 42 43  1  0  0  0
 42 66  1  0  0  0
 42112  1  0  0  0
 42113  1  0  0  0
 43 44  1  0  0  0
 44114  1  0  0  0
 45 46  2  0  0  0
 45115  1  0  0  0
 46116  1  0  0  0
 47117  1  0  0  0
 47118  1  0  0  0
 48 56  1  0  0  0
 48 65  1  0  0  0
 48119  1  0  0  0
 49 50  1  0  0  0
 49 53  1  0  0  0
 49 64  1  0  0  0
 49120  1  0  0  0
 50 51  1  0  0  0
 50121  1  0  0  0
 50122  1  0  0  0
 51 52  1  0  0  0
 51123  1  0  0  0
 51124  1  0  0  0
 52125  1  0  0  0
 52126  1  0  0  0
 53 54  1  0  0  0
 54 55  2  0  0  0
 54127  1  0  0  0
 55 57  1  0  0  0
 55128  1  0  0  0
 56 69  2  0  0  0
 57 58  2  0  0  0
 57129  1  0  0  0
 58130  1  0  0  0
 59 60  1  0  0  0
 59 61  1  0  0  0
 59 62  1  0  0  0
 60131  1  0  0  0
 60132  1  0  0  0
 60133  1  0  0  0
 61134  1  0  0  0
 61135  1  0  0  0
 61136  1  0  0  0
 62137  1  0  0  0
 62138  1  0  0  0
 62139  1  0  0  0
 63 65  1  0  0  0
 63140  1  0  0  0
 63141  1  0  0  0
 63142  1  0  0  0
 64143  1  0  0  0
 65144  1  0  0  0
 68 81  1  0  0  0
 71 72  2  0  0  0
 71 84  1  0  0  0
 71145  1  0  0  0
 72 73  1  0  0  0
 72 82  1  0  0  0
 73 74  2  0  0  0
 73 79  1  0  0  0
 74 75  1  0  0  0
 74 84  1  0  0  0
 75146  1  0  0  0
 75147  1  0  0  0
 75148  1  0  0  0
 76149  1  0  0  0
 76150  1  0  0  0
 76151  1  0  0  0
 76 82  1  0  0  0
 77152  1  0  0  0
 77153  1  0  0  0
 77154  1  0  0  0
 77 83  1  0  0  0
 78 83  1  0  0  0
 78155  1  0  0  0
 78156  1  0  0  0
 78157  1  0  0  0
 79 85  1  0  0  0
 79158  1  0  0  0
 79159  1  0  0  0
 80 81  1  0  0  0
 80 82  1  0  0  0
 80160  1  0  0  0
 80161  1  0  0  0
 81162  1  0  0  0
 81163  1  0  0  0
 82164  1  0  0  0
 83 84  1  0  0  0
 83165  1  0  0  0
 85166  1  0  0  0
M  ISO  4   1 100  68 101  81 101  85 100
M  END
> <chiral flag>
0

> <version>
0

> <s_m_source_file>
/data/baiqing/PycharmProjects/Reinvent-master-3.2/result/LINK_invent/BTK/process_docking_weight1_custom_sum_contain_oxygen_bond_distance_aromatic_linkinvent_7_9_3/rearranged_h_0106.sdf

> <i_m_source_file_index>
58

> <r_mmod_Potential_Energy-OPLS-2005>
584.432861328125

> <r_mmod_Stretch_Energy-OPLS-2005>
303.532318115234

> <r_mmod_Bend_Energy-OPLS-2005>
359.193359375

> <r_mmod_Torsional_Energy-OPLS-2005>
244.347854614258

> <r_mmod_Improper_Torsional_Energy-OPLS-2005>
5.16963624954224

> <r_mmod_Van_der_Waal_Energy-OPLS-2005>
109.968223571777

> <r_mmod_Electrostatic_Energy-OPLS-2005>
-450.025085449219

> <r_mmod_Solvation_Energy-OPLS-2005>
-209.411407470703

> <b_mmod_Minimization_Converged-OPLS-2005>
0

> <r_mmod_RMS_Derivative-OPLS-2005>
4.1909384727478

$$$$
58
                    3D
 Structure written by MMmdl.
162170  0  0  1  0            999 V2000
  -30.6447  -14.6759   20.4526 C   0  0  0  0  0  0
  -30.4298  -12.4041   19.4781 C   0  0  0  0  0  0
  -29.5151  -12.4965   18.2373 C   0  0  0  0  0  0
  -28.0363  -12.3398   18.6422 C   0  0  0  0  0  0
  -27.6480  -13.2302   19.8542 C   0  0  2  0  0  0
  -28.6907  -13.1408   20.9927 C   0  0  0  0  0  0
  -25.2527  -13.8212   20.5679 C   0  0  0  0  0  0
  -24.1818  -13.0456   20.9196 C   0  0  0  0  0  0
  -24.6406  -11.6930   20.8733 C   0  0  0  0  0  0
  -23.9078  -10.4305   21.0404 C   0  0  0  0  0  0
  -24.3630   -9.4220   21.9178 C   0  0  0  0  0  0
  -23.6306   -8.2253   22.0748 C   0  0  0  0  0  0
  -22.4291   -8.0287   21.3537 C   0  0  0  0  0  0
  -21.9924   -9.0263   20.4644 C   0  0  0  0  0  0
  -22.7251  -10.2143   20.3052 C   0  0  0  0  0  0
  -21.6862   -6.0744   22.5277 C   0  0  0  0  0  0
  -21.4018   -6.5645   23.8212 C   0  0  0  0  0  0
  -21.3661   -5.6791   24.9168 C   0  0  0  0  0  0
  -21.6044   -4.3053   24.7219 C   0  0  0  0  0  0
  -21.8822   -3.8154   23.4340 C   0  0  0  0  0  0
  -21.9196   -4.6972   22.3398 C   0  0  0  0  0  0
  -22.7837  -13.5236   21.1851 C   0  0  0  0  0  0
  -22.1660   -4.2159   21.0976 F   0  0  0  0  0  0
  -21.5627   -3.4533   25.7731 F   0  0  0  0  0  0
  -30.0055  -13.4615   20.4212 N   0  0  0  0  0  0
  -26.2968  -12.9416   20.3280 N   0  0  0  0  0  0
  -25.9339  -11.6560   20.5742 N   0  0  0  0  0  0
  -22.0472  -12.8232   22.0407 N   0  0  0  0  0  0
  -25.4208  -15.1938   20.4094 N   0  0  0  0  0  0
  -31.8206  -14.7724   20.0957 O   0  0  0  0  0  0
  -21.6651   -6.8887   21.4240 O   0  0  0  0  0  0
  -22.3524  -14.5533   20.6682 O   0  0  0  0  0  0
  -24.6271  -31.8604   23.2032 C   0  0  0  0  0  0
  -25.9113  -32.4784   23.8365 C   0  0  1  0  0  0
  -27.2212  -27.3065   20.1155 C   0  0  0  0  0  0
  -25.5931  -33.8587   24.2286 N   0  0  0  0  0  0
  -23.4218  -30.4842   21.5470 C   0  0  2  0  0  0
  -24.8681  -28.9456   20.1075 C   0  0  0  0  0  0
  -22.7488  -29.4614   22.4938 C   0  0  0  0  0  0
  -18.0283  -28.1385   22.8484 C   0  0  0  0  0  0
  -24.1492  -36.7290   23.2642 C   0  0  0  0  0  0
  -25.9655  -30.7861   21.3784 C   0  0  0  0  0  0
  -26.0386  -29.4139   20.7187 C   0  0  0  0  0  0
  -27.2167  -28.6060   20.7167 C   0  0  0  0  0  0
  -26.0305  -26.9110   19.4585 C   0  0  0  0  0  0
  -24.8671  -27.6995   19.4683 C   0  0  0  0  0  0
  -23.6368  -29.8263   20.1603 C   0  0  0  0  0  0
  -25.4117  -36.3087   24.0331 C   0  0  1  0  0  0
  -20.5889  -28.3685   23.1286 C   0  0  2  0  0  0
  -20.6774  -26.9407   22.5414 C   0  0  0  0  0  0
  -19.5748  -26.6382   21.5219 C   0  0  0  0  0  0
  -18.1925  -26.7926   22.1625 C   0  0  0  0  0  0
  -19.1537  -28.8852   23.2877 C   0  0  0  0  0  0
  -18.9456  -30.1451   23.8897 C   0  0  0  0  0  0
  -17.6457  -30.6590   24.0558 C   0  0  0  0  0  0
  -25.9053  -34.9456   23.5104 C   0  0  0  0  0  0
  -16.5348  -29.9088   23.6331 C   0  0  0  0  0  0
  -16.7271  -28.6504   23.0356 C   0  0  0  0  0  0
  -26.4493  -31.6595   25.0737 C   0  0  0  0  0  0
  -25.3724  -31.3737   26.1462 C   0  0  0  0  0  0
  -27.0339  -30.3020   24.6190 C   0  0  0  0  0  0
  -27.6053  -32.4332   25.7503 C   0  0  0  0  0  0
  -27.5577  -37.1801   24.8464 C   0  0  0  0  0  0
  -21.4200  -29.3035   22.3681 N   0  0  0  0  0  0
  -26.4292  -37.3779   23.9407 N   0  0  0  0  0  0
  -24.6904  -31.0604   22.0993 N   0  0  0  0  0  0
  -23.4209  -28.8156   23.3020 O   0  0  0  0  0  0
  -28.3215  -26.4263   20.1952 O   0  0  0  0  0  0
  -26.5617  -34.8922   22.4667 O   0  0  0  0  0  0
  -23.5427  -32.1415   23.7343 O   0  0  0  0  0  0
  -29.9719  -21.1813   21.8657 C   0  0  0  0  0  0
  -30.5044  -20.0689   22.5514 C   0  0  0  0  0  0
  -29.4283  -19.7042   20.0272 C   0  0  0  0  0  0
  -29.4119  -21.0446   20.5782 C   0  0  0  0  0  0
  -30.5227  -18.7709   21.9879 C   0  0  0  0  0  0
  -29.9776  -18.5473   20.6975 C   0  0  0  0  0  0
  -31.1729  -17.6495   22.7780 C   0  0  0  0  0  0
  -29.3482  -22.3082   18.3865 C   0  0  0  0  0  0
  -27.2603  -22.0299   19.7494 C   0  0  0  0  0  0
  -30.1065  -17.1509   19.9619 C   0  0  0  0  0  0
  -29.0082  -23.7848   20.4296 C   0  0  0  0  0  0
  -28.0919  -24.9870   19.8842 C   0  0  0  0  0  0
  -28.7786  -22.2943   19.8217 C   0  0  0  0  0  0
  -29.8784  -15.8050   20.6241 N   0  0  0  0  0  0
  -31.4761  -12.5030   19.1822 H   0  0  0  0  0  0
  -30.3464  -11.4234   19.9486 H   0  0  0  0  0  0
  -29.7883  -11.7290   17.5110 H   0  0  0  0  0  0
  -29.6617  -13.4561   17.7389 H   0  0  0  0  0  0
  -27.8737  -11.2899   18.8874 H   0  0  0  0  0  0
  -27.3889  -12.5542   17.7909 H   0  0  0  0  0  0
  -27.6508  -14.2567   19.4872 H   0  0  0  0  0  0
  -28.7020  -12.1415   21.4291 H   0  0  0  0  0  0
  -28.4371  -13.8239   21.8047 H   0  0  0  0  0  0
  -25.2780   -9.5707   22.4746 H   0  0  0  0  0  0
  -24.0019   -7.4659   22.7475 H   0  0  0  0  0  0
  -21.0848   -8.8795   19.8964 H   0  0  0  0  0  0
  -22.3709  -10.9684   19.6162 H   0  0  0  0  0  0
  -21.2008   -7.6154   23.9715 H   0  0  0  0  0  0
  -21.1477   -6.0520   25.9068 H   0  0  0  0  0  0
  -22.0600   -2.7618   23.2836 H   0  0  0  0  0  0
  -22.4086  -11.9909   22.4822 H   0  0  0  0  0  0
  -21.1086  -13.1254   22.2593 H   0  0  0  0  0  0
  -24.6508  -15.8453   20.5186 H   0  0  0  0  0  0
  -26.2670  -15.6366   20.0747 H   0  0  0  0  0  0
  -26.7187  -32.5450   23.1121 H   0  0  0  0  0  0
  -25.0091  -33.9738   25.0438 H   0  0  0  0  0  0
  -22.7157  -31.3054   21.4077 H   0  0  0  0  0  0
  -23.3757  -35.9617   23.3302 H   0  0  0  0  0  0
  -24.3593  -36.8909   22.2058 H   0  0  0  0  0  0
  -23.7236  -37.6490   23.6660 H   0  0  0  0  0  0
  -26.1030  -31.5487   20.6107 H   0  0  0  0  0  0
  -26.8451  -30.8330   22.0084 H   0  0  0  0  0  0
  -28.1101  -28.9586   21.2137 H   0  0  0  0  0  0
  -25.9588  -25.9697   18.9353 H   0  0  0  0  0  0
  -23.9748  -27.3377   18.9759 H   0  0  0  0  0  0
  -23.7577  -30.6087   19.4099 H   0  0  0  0  0  0
  -22.7565  -29.2586   19.8529 H   0  0  0  0  0  0
  -25.1294  -36.1950   25.0822 H   0  0  0  0  0  0
  -20.9976  -28.3261   24.1408 H   0  0  0  0  0  0
  -20.5694  -26.2289   23.3612 H   0  0  0  0  0  0
  -21.6640  -26.7445   22.1193 H   0  0  0  0  0  0
  -19.6909  -25.6296   21.1240 H   0  0  0  0  0  0
  -19.6692  -27.3199   20.6755 H   0  0  0  0  0  0
  -17.4201  -26.6676   21.4024 H   0  0  0  0  0  0
  -18.0312  -26.0076   22.9025 H   0  0  0  0  0  0
  -19.7937  -30.7254   24.2279 H   0  0  0  0  0  0
  -17.5017  -31.6277   24.5151 H   0  0  0  0  0  0
  -15.5345  -30.2987   23.7657 H   0  0  0  0  0  0
  -15.8671  -28.0821   22.7074 H   0  0  0  0  0  0
  -24.5899  -30.7086   25.7792 H   0  0  0  0  0  0
  -24.8918  -32.2906   26.4885 H   0  0  0  0  0  0
  -25.8051  -30.8923   27.0241 H   0  0  0  0  0  0
  -26.2916  -29.6775   24.1205 H   0  0  0  0  0  0
  -27.4034  -29.7272   25.4692 H   0  0  0  0  0  0
  -27.8788  -30.4316   23.9423 H   0  0  0  0  0  0
  -27.2666  -33.3637   26.2074 H   0  0  0  0  0  0
  -28.3863  -32.6885   25.0328 H   0  0  0  0  0  0
  -28.0720  -31.8462   26.5425 H   0  0  0  0  0  0
  -28.2593  -38.0099   24.7508 H   0  0  0  0  0  0
  -28.1072  -36.2626   24.6291 H   0  0  0  0  0  0
  -27.2293  -37.1452   25.8868 H   0  0  0  0  0  0
  -20.9375  -29.8776   21.6910 H   0  0  0  0  0  0
  -26.0174  -38.2851   24.1416 H   0  0  0  0  0  0
  -30.0040  -22.1427   22.3552 H   0  0  0  0  0  0
  -30.9283  -20.2316   23.5337 H   0  0  0  0  0  0
  -29.0164  -19.5552   19.0397 H   0  0  0  0  0  0
  -31.6987  -18.0315   23.6533 H   0  0  0  0  0  0
  -31.9016  -17.1158   22.1677 H   0  0  0  0  0  0
  -30.4222  -16.9397   23.1255 H   0  0  0  0  0  0
  -29.0887  -21.4097   17.8281 H   0  0  0  0  0  0
  -30.4370  -22.3772   18.4004 H   0  0  0  0  0  0
  -28.9766  -23.1477   17.8003 H   0  0  0  0  0  0
  -27.0403  -21.0552   19.3138 H   0  0  0  0  0  0
  -26.7372  -22.7619   19.1346 H   0  0  0  0  0  0
  -26.8140  -22.0500   20.7442 H   0  0  0  0  0  0
  -31.0992  -17.1511   19.5073 H   0  0  0  0  0  0
  -29.4254  -17.1770   19.1110 H   0  0  0  0  0  0
  -28.8347  -23.7554   21.5044 H   0  0  0  0  0  0
  -30.0573  -24.0570   20.3095 H   0  0  0  0  0  0
  -27.1010  -24.7318   20.2580 H   0  0  0  0  0  0
  -28.0416  -24.9221   18.7981 H   0  0  0  0  0  0
  -28.9368  -15.6401   20.9453 H   0  0  0  0  0  0
  1 25  1  0  0  0
  1 30  2  0  0  0
  1 84  1  0  0  0
  2  3  1  0  0  0
  2 25  1  0  0  0
  2 85  1  0  0  0
  2 86  1  0  0  0
  3  4  1  0  0  0
  3 87  1  0  0  0
  3 88  1  0  0  0
  4  5  1  0  0  0
  4 89  1  0  0  0
  4 90  1  0  0  0
  5  6  1  0  0  0
  5 26  1  0  0  0
  5 91  1  0  0  0
  6 25  1  0  0  0
  6 92  1  0  0  0
  6 93  1  0  0  0
  7  8  2  0  0  0
  7 26  1  0  0  0
  7 29  1  0  0  0
  8  9  1  0  0  0
  8 22  1  0  0  0
  9 10  1  0  0  0
  9 27  2  0  0  0
 10 11  2  0  0  0
 10 15  1  0  0  0
 11 12  1  0  0  0
 11 94  1  0  0  0
 12 13  2  0  0  0
 12 95  1  0  0  0
 13 14  1  0  0  0
 13 31  1  0  0  0
 14 15  2  0  0  0
 14 96  1  0  0  0
 15 97  1  0  0  0
 16 17  2  0  0  0
 16 21  1  0  0  0
 16 31  1  0  0  0
 17 18  1  0  0  0
 17 98  1  0  0  0
 18 19  2  0  0  0
 18 99  1  0  0  0
 19 20  1  0  0  0
 19 24  1  0  0  0
 20 21  2  0  0  0
 20100  1  0  0  0
 21 23  1  0  0  0
 22 28  1  0  0  0
 22 32  2  0  0  0
 26 27  1  0  0  0
 28101  1  0  0  0
 28102  1  0  0  0
 29103  1  0  0  0
 29104  1  0  0  0
 33 34  1  0  0  0
 33 66  1  0  0  0
 33 70  2  0  0  0
 34 36  1  0  0  0
 34 59  1  0  0  0
 34105  1  0  0  0
 35 44  2  0  0  0
 35 45  1  0  0  0
 35 68  1  0  0  0
 36 56  1  0  0  0
 36106  1  0  0  0
 37 39  1  0  0  0
 37 47  1  0  0  0
 37 66  1  0  0  0
 37107  1  0  0  0
 38 43  2  0  0  0
 38 46  1  0  0  0
 38 47  1  0  0  0
 39 64  1  0  0  0
 39 67  2  0  0  0
 40 52  1  0  0  0
 40 53  2  0  0  0
 40 58  1  0  0  0
 41108  1  0  0  0
 41109  1  0  0  0
 41110  1  0  0  0
 41 48  1  0  0  0
 42 43  1  0  0  0
 42 66  1  0  0  0
 42111  1  0  0  0
 42112  1  0  0  0
 43 44  1  0  0  0
 44113  1  0  0  0
 45 46  2  0  0  0
 45114  1  0  0  0
 46115  1  0  0  0
 47116  1  0  0  0
 47117  1  0  0  0
 48 56  1  0  0  0
 48 65  1  0  0  0
 48118  1  0  0  0
 49 50  1  0  0  0
 49 53  1  0  0  0
 49 64  1  0  0  0
 49119  1  0  0  0
 50 51  1  0  0  0
 50120  1  0  0  0
 50121  1  0  0  0
 51 52  1  0  0  0
 51122  1  0  0  0
 51123  1  0  0  0
 52124  1  0  0  0
 52125  1  0  0  0
 53 54  1  0  0  0
 54 55  2  0  0  0
 54126  1  0  0  0
 55 57  1  0  0  0
 55127  1  0  0  0
 56 69  2  0  0  0
 57 58  2  0  0  0
 57128  1  0  0  0
 58129  1  0  0  0
 59 60  1  0  0  0
 59 61  1  0  0  0
 59 62  1  0  0  0
 60130  1  0  0  0
 60131  1  0  0  0
 60132  1  0  0  0
 61133  1  0  0  0
 61134  1  0  0  0
 61135  1  0  0  0
 62136  1  0  0  0
 62137  1  0  0  0
 62138  1  0  0  0
 63 65  1  0  0  0
 63139  1  0  0  0
 63140  1  0  0  0
 63141  1  0  0  0
 64142  1  0  0  0
 65143  1  0  0  0
 68 82  1  0  0  0
 71 72  2  0  0  0
 71 74  1  0  0  0
 71144  1  0  0  0
 72 75  1  0  0  0
 72145  1  0  0  0
 73 74  2  0  0  0
 73 76  1  0  0  0
 73146  1  0  0  0
 74 83  1  0  0  0
 75 76  2  0  0  0
 75 77  1  0  0  0
 76 80  1  0  0  0
 77147  1  0  0  0
 77148  1  0  0  0
 77149  1  0  0  0
 78150  1  0  0  0
 78151  1  0  0  0
 78152  1  0  0  0
 78 83  1  0  0  0
 79 83  1  0  0  0
 79153  1  0  0  0
 79154  1  0  0  0
 79155  1  0  0  0
 80 84  1  0  0  0
 80156  1  0  0  0
 80157  1  0  0  0
 81 82  1  0  0  0
 81 83  1  0  0  0
 81158  1  0  0  0
 81159  1  0  0  0
 82160  1  0  0  0
 82161  1  0  0  0
 84162  1  0  0  0
M  ISO  4   1 100  68 101  82 101  84 100
M  END
> <chiral flag>
0

> <version>
0

> <s_m_source_file>
/data/baiqing/PycharmProjects/Reinvent-master-3.2/result/LINK_invent/BTK/process_docking_weight1_custom_sum_contain_oxygen_bond_distance_aromatic_linkinvent_7_9_3/rearranged_h_0106.sdf

> <i_m_source_file_index>
59

> <r_mmod_Potential_Energy-OPLS-2005>
69.8649368286133

> <r_mmod_Stretch_Energy-OPLS-2005>
102.641082763672

> <r_mmod_Bend_Energy-OPLS-2005>
155.563247680664

> <r_mmod_Torsional_Energy-OPLS-2005>
218.154434204102

> <r_mmod_Improper_Torsional_Energy-OPLS-2005>
8.18735408782959

> <r_mmod_Van_der_Waal_Energy-OPLS-2005>
153.5

> <r_mmod_Electrostatic_Energy-OPLS-2005>
-429.494689941406

> <r_mmod_Solvation_Energy-OPLS-2005>
-200.773681640625

> <b_mmod_Minimization_Converged-OPLS-2005>
0

> <r_mmod_RMS_Derivative-OPLS-2005>
1.43582940101624

$$$$
59
                    3D
 Structure written by MMmdl.
158166  0  0  1  0            999 V2000
  -30.4786  -15.1985   20.3888 C   0  0  0  0  0  0
  -30.4381  -12.7660   19.5200 C   0  0  0  0  0  0
  -29.5307  -12.5695   18.2809 C   0  0  0  0  0  0
  -28.0767  -12.3047   18.7080 C   0  0  0  0  0  0
  -27.6148  -13.2726   19.8264 C   0  0  2  0  0  0
  -28.6526  -13.4225   20.9599 C   0  0  0  0  0  0
  -25.2394  -13.8250   20.5741 C   0  0  0  0  0  0
  -24.1742  -13.0437   20.9243 C   0  0  0  0  0  0
  -24.6399  -11.6935   20.8761 C   0  0  0  0  0  0
  -23.9095  -10.4291   21.0404 C   0  0  0  0  0  0
  -24.3638   -9.4205   21.9184 C   0  0  0  0  0  0
  -23.6301   -8.2247   22.0765 C   0  0  0  0  0  0
  -22.4284   -8.0284   21.3549 C   0  0  0  0  0  0
  -21.9923   -9.0264   20.4654 C   0  0  0  0  0  0
  -22.7262  -10.2135   20.3058 C   0  0  0  0  0  0
  -21.6859   -6.0737   22.5269 C   0  0  0  0  0  0
  -21.4018   -6.5641   23.8204 C   0  0  0  0  0  0
  -21.3658   -5.6793   24.9167 C   0  0  0  0  0  0
  -21.6044   -4.3056   24.7215 C   0  0  0  0  0  0
  -21.8819   -3.8144   23.4338 C   0  0  0  0  0  0
  -21.9190   -4.6962   22.3392 C   0  0  0  0  0  0
  -22.7758  -13.5192   21.1888 C   0  0  0  0  0  0
  -22.1659   -4.2150   21.0969 F   0  0  0  0  0  0
  -21.5628   -3.4535   25.7730 F   0  0  0  0  0  0
  -29.8931  -13.9083   20.3365 N   0  0  0  0  0  0
  -26.2830  -12.9524   20.3240 N   0  0  0  0  0  0
  -25.9335  -11.6630   20.5741 N   0  0  0  0  0  0
  -22.0420  -12.8180   22.0448 N   0  0  0  0  0  0
  -25.4018  -15.1988   20.4167 N   0  0  0  0  0  0
  -31.6981  -15.1933   20.1733 O   0  0  0  0  0  0
  -21.6642   -6.8882   21.4238 O   0  0  0  0  0  0
  -22.3435  -14.5489   20.6726 O   0  0  0  0  0  0
  -24.6605  -31.8287   23.1752 C   0  0  0  0  0  0
  -25.9298  -32.4615   23.8207 C   0  0  1  0  0  0
  -27.2129  -26.9615   20.1796 C   0  0  0  0  0  0
  -25.5985  -33.8432   24.2109 N   0  0  0  0  0  0
  -23.4733  -30.4442   21.5238 C   0  0  2  0  0  0
  -24.9259  -28.8444   20.1106 C   0  0  0  0  0  0
  -22.7662  -29.4475   22.4791 C   0  0  0  0  0  0
  -18.0325  -28.1418   22.8480 C   0  0  0  0  0  0
  -24.1485  -36.7219   23.2649 C   0  0  0  0  0  0
  -26.0419  -30.6475   21.4011 C   0  0  0  0  0  0
  -26.1099  -29.2410   20.7450 C   0  0  0  0  0  0
  -27.2491  -28.3203   20.7585 C   0  0  0  0  0  0
  -26.0007  -26.7187   19.4908 C   0  0  0  0  0  0
  -24.8960  -27.6028   19.4622 C   0  0  0  0  0  0
  -23.7111  -29.7678   20.1466 C   0  0  0  0  0  0
  -25.4125  -36.2984   24.0305 C   0  0  1  0  0  0
  -20.5948  -28.3759   23.1201 C   0  0  2  0  0  0
  -20.6807  -26.9446   22.5407 C   0  0  0  0  0  0
  -19.5774  -26.6382   21.5227 C   0  0  0  0  0  0
  -18.1951  -26.7959   22.1625 C   0  0  0  0  0  0
  -19.1587  -28.8913   23.2827 C   0  0  0  0  0  0
  -18.9499  -30.1499   23.8862 C   0  0  0  0  0  0
  -17.6493  -30.6608   24.0563 C   0  0  0  0  0  0
  -25.9093  -34.9363   23.5020 C   0  0  0  0  0  0
  -16.5381  -29.9103   23.6338 C   0  0  0  0  0  0
  -16.7303  -28.6517   23.0366 C   0  0  0  0  0  0
  -26.4554  -31.6549   25.0720 C   0  0  0  0  0  0
  -25.3685  -31.3799   26.1376 C   0  0  0  0  0  0
  -27.0448  -30.2925   24.6424 C   0  0  0  0  0  0
  -27.6052  -32.4359   25.7515 C   0  0  0  0  0  0
  -27.5563  -37.1768   24.8468 C   0  0  0  0  0  0
  -21.4335  -29.3056   22.3551 N   0  0  0  0  0  0
  -26.4270  -37.3717   23.9418 N   0  0  0  0  0  0
  -24.7466  -30.9992   22.0870 N   0  0  0  0  0  0
  -23.4232  -28.8024   23.3001 O   0  0  0  0  0  0
  -28.1946  -25.8465   20.2661 O   0  0  0  0  0  0
  -26.5699  -34.8889   22.4611 O   0  0  0  0  0  0
  -23.5677  -32.1233   23.6856 O   0  0  0  0  0  0
  -28.1008  -20.0659   20.0718 C   0  0  0  0  0  0
  -30.1520  -20.9082   20.6162 C   0  0  0  0  0  0
  -29.4395  -19.6447   20.3910 C   0  0  0  0  0  0
  -27.6143  -21.4639   20.0000 C   0  0  0  0  0  0
  -28.4177  -22.6711   20.2373 C   0  0  0  0  0  0
  -25.4340  -21.2863   22.0908 C   0  0  0  0  0  0
  -25.8750  -21.1715   18.1811 C   0  0  0  0  0  0
  -30.1797  -18.0649   20.4287 C   0  0  0  0  0  0
  -27.7586  -24.2884   20.0862 C   0  0  0  0  0  0
  -25.1907  -20.9008   20.6233 C   0  0  0  0  0  0
  -26.1330  -21.6150   19.6292 C   0  0  1  0  0  0
  -29.7123  -22.2666   20.5513 N   0  0  0  0  0  0
  -29.7419  -16.4727   20.4786 N   0  0  0  0  0  0
  -31.4615  -12.9545   19.1934 H   0  0  0  0  0  0
  -30.4879  -11.8526   20.1146 H   0  0  0  0  0  0
  -29.8989  -11.7489   17.6640 H   0  0  0  0  0  0
  -29.5701  -13.4642   17.6579 H   0  0  0  0  0  0
  -28.0214  -11.2770   19.0685 H   0  0  0  0  0  0
  -27.4075  -12.3631   17.8490 H   0  0  0  0  0  0
  -27.5370  -14.2462   19.3409 H   0  0  0  0  0  0
  -28.8066  -12.4806   21.4887 H   0  0  0  0  0  0
  -28.3068  -14.1443   21.7017 H   0  0  0  0  0  0
  -25.2789   -9.5674   22.4759 H   0  0  0  0  0  0
  -23.9999   -7.4639   22.7498 H   0  0  0  0  0  0
  -21.0848   -8.8782   19.8967 H   0  0  0  0  0  0
  -22.3718  -10.9672   19.6164 H   0  0  0  0  0  0
  -21.2017   -7.6152   23.9708 H   0  0  0  0  0  0
  -21.1483   -6.0525   25.9072 H   0  0  0  0  0  0
  -22.0601   -2.7607   23.2829 H   0  0  0  0  0  0
  -22.4048  -11.9827   22.4809 H   0  0  0  0  0  0
  -21.1051  -13.1209   22.2694 H   0  0  0  0  0  0
  -24.6276  -15.8458   20.5221 H   0  0  0  0  0  0
  -26.2411  -15.6411   20.0669 H   0  0  0  0  0  0
  -26.7373  -32.5166   23.0932 H   0  0  0  0  0  0
  -25.0106  -33.9538   25.0239 H   0  0  0  0  0  0
  -22.7836  -31.2743   21.3571 H   0  0  0  0  0  0
  -23.3760  -35.9539   23.3283 H   0  0  0  0  0  0
  -24.3571  -36.8893   22.2070 H   0  0  0  0  0  0
  -23.7217  -37.6393   23.6717 H   0  0  0  0  0  0
  -26.2179  -31.3903   20.6217 H   0  0  0  0  0  0
  -26.9052  -30.7040   22.0531 H   0  0  0  0  0  0
  -28.1401  -28.6202   21.2915 H   0  0  0  0  0  0
  -25.8525  -25.7785   18.9840 H   0  0  0  0  0  0
  -23.9981  -27.2947   18.9445 H   0  0  0  0  0  0
  -23.8662  -30.5400   19.3921 H   0  0  0  0  0  0
  -22.8209  -29.2245   19.8238 H   0  0  0  0  0  0
  -25.1314  -36.1784   25.0795 H   0  0  0  0  0  0
  -21.0038  -28.3359   24.1326 H   0  0  0  0  0  0
  -20.5709  -26.2381   23.3648 H   0  0  0  0  0  0
  -21.6666  -26.7438   22.1195 H   0  0  0  0  0  0
  -19.6938  -25.6283   21.1284 H   0  0  0  0  0  0
  -19.6709  -27.3170   20.6743 H   0  0  0  0  0  0
  -17.4225  -26.6718   21.4015 H   0  0  0  0  0  0
  -18.0327  -26.0115   22.9029 H   0  0  0  0  0  0
  -19.7976  -30.7329   24.2211 H   0  0  0  0  0  0
  -17.5046  -31.6283   24.5176 H   0  0  0  0  0  0
  -15.5382  -30.2998   23.7696 H   0  0  0  0  0  0
  -15.8700  -28.0823   22.7113 H   0  0  0  0  0  0
  -24.5880  -30.7131   25.7688 H   0  0  0  0  0  0
  -24.8857  -32.3005   26.4671 H   0  0  0  0  0  0
  -25.7921  -30.9050   27.0235 H   0  0  0  0  0  0
  -26.3108  -29.6620   24.1398 H   0  0  0  0  0  0
  -27.3973  -29.7260   25.5053 H   0  0  0  0  0  0
  -27.9048  -30.4137   23.9838 H   0  0  0  0  0  0
  -27.2621  -33.3711   26.1958 H   0  0  0  0  0  0
  -28.3931  -32.6848   25.0389 H   0  0  0  0  0  0
  -28.0648  -31.8576   26.5544 H   0  0  0  0  0  0
  -28.2559  -38.0082   24.7517 H   0  0  0  0  0  0
  -28.1070  -36.2611   24.6273 H   0  0  0  0  0  0
  -27.2297  -37.1388   25.8874 H   0  0  0  0  0  0
  -20.9582  -29.8764   21.6700 H   0  0  0  0  0  0
  -26.0113  -38.2774   24.1437 H   0  0  0  0  0  0
  -27.4009  -19.2739   19.8510 H   0  0  0  0  0  0
  -31.1999  -20.8300   20.8660 H   0  0  0  0  0  0
  -24.7020  -20.8097   22.7432 H   0  0  0  0  0  0
  -25.3551  -22.3645   22.2336 H   0  0  0  0  0  0
  -26.4219  -20.9748   22.4313 H   0  0  0  0  0  0
  -26.4877  -21.7434   17.4838 H   0  0  0  0  0  0
  -24.8328  -21.3300   17.9026 H   0  0  0  0  0  0
  -26.0972  -20.1157   18.0270 H   0  0  0  0  0  0
  -30.8634  -18.1461   21.2743 H   0  0  0  0  0  0
  -30.8455  -18.0972   19.5655 H   0  0  0  0  0  0
  -26.8762  -24.2413   20.7241 H   0  0  0  0  0  0
  -27.3889  -24.2641   19.0618 H   0  0  0  0  0  0
  -24.1564  -21.1335   20.3640 H   0  0  0  0  0  0
  -25.2793  -19.8186   20.5236 H   0  0  0  0  0  0
  -25.8430  -22.6608   19.6645 H   0  0  0  0  0  0
  -28.7508  -16.3309   20.6018 H   0  0  0  0  0  0
  1 25  1  0  0  0
  1 30  2  0  0  0
  1 83  1  0  0  0
  2  3  1  0  0  0
  2 25  1  0  0  0
  2 84  1  0  0  0
  2 85  1  0  0  0
  3  4  1  0  0  0
  3 86  1  0  0  0
  3 87  1  0  0  0
  4  5  1  0  0  0
  4 88  1  0  0  0
  4 89  1  0  0  0
  5  6  1  0  0  0
  5 26  1  0  0  0
  5 90  1  0  0  0
  6 25  1  0  0  0
  6 91  1  0  0  0
  6 92  1  0  0  0
  7  8  2  0  0  0
  7 26  1  0  0  0
  7 29  1  0  0  0
  8  9  1  0  0  0
  8 22  1  0  0  0
  9 10  1  0  0  0
  9 27  2  0  0  0
 10 11  2  0  0  0
 10 15  1  0  0  0
 11 12  1  0  0  0
 11 93  1  0  0  0
 12 13  2  0  0  0
 12 94  1  0  0  0
 13 14  1  0  0  0
 13 31  1  0  0  0
 14 15  2  0  0  0
 14 95  1  0  0  0
 15 96  1  0  0  0
 16 17  2  0  0  0
 16 21  1  0  0  0
 16 31  1  0  0  0
 17 18  1  0  0  0
 17 97  1  0  0  0
 18 19  2  0  0  0
 18 98  1  0  0  0
 19 20  1  0  0  0
 19 24  1  0  0  0
 20 21  2  0  0  0
 20 99  1  0  0  0
 21 23  1  0  0  0
 22 28  1  0  0  0
 22 32  2  0  0  0
 26 27  1  0  0  0
 28100  1  0  0  0
 28101  1  0  0  0
 29102  1  0  0  0
 29103  1  0  0  0
 33 34  1  0  0  0
 33 66  1  0  0  0
 33 70  2  0  0  0
 34 36  1  0  0  0
 34 59  1  0  0  0
 34104  1  0  0  0
 35 44  2  0  0  0
 35 45  1  0  0  0
 35 68  1  0  0  0
 36 56  1  0  0  0
 36105  1  0  0  0
 37 39  1  0  0  0
 37 47  1  0  0  0
 37 66  1  0  0  0
 37106  1  0  0  0
 38 43  2  0  0  0
 38 46  1  0  0  0
 38 47  1  0  0  0
 39 64  1  0  0  0
 39 67  2  0  0  0
 40 52  1  0  0  0
 40 53  2  0  0  0
 40 58  1  0  0  0
 41107  1  0  0  0
 41108  1  0  0  0
 41109  1  0  0  0
 41 48  1  0  0  0
 42 43  1  0  0  0
 42 66  1  0  0  0
 42110  1  0  0  0
 42111  1  0  0  0
 43 44  1  0  0  0
 44112  1  0  0  0
 45 46  2  0  0  0
 45113  1  0  0  0
 46114  1  0  0  0
 47115  1  0  0  0
 47116  1  0  0  0
 48 56  1  0  0  0
 48 65  1  0  0  0
 48117  1  0  0  0
 49 50  1  0  0  0
 49 53  1  0  0  0
 49 64  1  0  0  0
 49118  1  0  0  0
 50 51  1  0  0  0
 50119  1  0  0  0
 50120  1  0  0  0
 51 52  1  0  0  0
 51121  1  0  0  0
 51122  1  0  0  0
 52123  1  0  0  0
 52124  1  0  0  0
 53 54  1  0  0  0
 54 55  2  0  0  0
 54125  1  0  0  0
 55 57  1  0  0  0
 55126  1  0  0  0
 56 69  2  0  0  0
 57 58  2  0  0  0
 57127  1  0  0  0
 58128  1  0  0  0
 59 60  1  0  0  0
 59 61  1  0  0  0
 59 62  1  0  0  0
 60129  1  0  0  0
 60130  1  0  0  0
 60131  1  0  0  0
 61132  1  0  0  0
 61133  1  0  0  0
 61134  1  0  0  0
 62135  1  0  0  0
 62136  1  0  0  0
 62137  1  0  0  0
 63 65  1  0  0  0
 63138  1  0  0  0
 63139  1  0  0  0
 63140  1  0  0  0
 64141  1  0  0  0
 65142  1  0  0  0
 68 79  1  0  0  0
 71 73  2  0  0  0
 71 74  1  0  0  0
 71143  1  0  0  0
 72 73  1  0  0  0
 72 82  2  0  0  0
 72144  1  0  0  0
 73 78  1  0  0  0
 74 75  2  0  0  0
 74 81  1  0  0  0
 75 79  1  0  0  0
 75 82  1  0  0  0
 76 80  1  0  0  0
 76145  1  0  0  0
 76146  1  0  0  0
 76147  1  0  0  0
 77148  1  0  0  0
 77149  1  0  0  0
 77150  1  0  0  0
 77 81  1  0  0  0
 78 83  1  0  0  0
 78151  1  0  0  0
 78152  1  0  0  0
 79153  1  0  0  0
 79154  1  0  0  0
 80 81  1  0  0  0
 80155  1  0  0  0
 80156  1  0  0  0
 81157  1  0  0  0
 83158  1  0  0  0
M  ISO  4   1 100  68 101  79 101  83 100
M  END
> <chiral flag>
0

> <version>
0

> <s_m_source_file>
/data/baiqing/PycharmProjects/Reinvent-master-3.2/result/LINK_invent/BTK/process_docking_weight1_custom_sum_contain_oxygen_bond_distance_aromatic_linkinvent_7_9_3/rearranged_h_0106.sdf

> <i_m_source_file_index>
60

> <r_mmod_Potential_Energy-OPLS-2005>
984.863891601562

> <r_mmod_Stretch_Energy-OPLS-2005>
473.975158691406

> <r_mmod_Bend_Energy-OPLS-2005>
453.930236816406

> <r_mmod_Torsional_Energy-OPLS-2005>
204.728561401367

> <r_mmod_Improper_Torsional_Energy-OPLS-2005>
4.2601318359375

> <r_mmod_Van_der_Waal_Energy-OPLS-2005>
136.355331420898

> <r_mmod_Electrostatic_Energy-OPLS-2005>
-459.490264892578

> <r_mmod_Solvation_Energy-OPLS-2005>
-231.628341674805

> <b_mmod_Minimization_Converged-OPLS-2005>
0

> <r_mmod_RMS_Derivative-OPLS-2005>
1.55221009254456

$$$$
60
                    3D
 Structure written by MMmdl.
157165  0  0  1  0            999 V2000
  -30.4938  -15.0008   20.4102 C   0  0  0  0  0  0
  -30.4478  -12.6280   19.4754 C   0  0  0  0  0  0
  -29.5188  -12.5303   18.2419 C   0  0  0  0  0  0
  -28.0541  -12.3050   18.6692 C   0  0  0  0  0  0
  -27.6233  -13.2451   19.8247 C   0  0  2  0  0  0
  -28.6711  -13.2882   20.9545 C   0  0  0  0  0  0
  -25.2447  -13.8207   20.5695 C   0  0  0  0  0  0
  -24.1779  -13.0434   20.9253 C   0  0  0  0  0  0
  -24.6396  -11.6920   20.8769 C   0  0  0  0  0  0
  -23.9082  -10.4294   21.0421 C   0  0  0  0  0  0
  -24.3627   -9.4205   21.9195 C   0  0  0  0  0  0
  -23.6298   -8.2241   22.0760 C   0  0  0  0  0  0
  -22.4279   -8.0283   21.3550 C   0  0  0  0  0  0
  -21.9922   -9.0257   20.4647 C   0  0  0  0  0  0
  -22.7257  -10.2136   20.3062 C   0  0  0  0  0  0
  -21.6854   -6.0738   22.5283 C   0  0  0  0  0  0
  -21.4012   -6.5642   23.8215 C   0  0  0  0  0  0
  -21.3658   -5.6793   24.9177 C   0  0  0  0  0  0
  -21.6047   -4.3056   24.7227 C   0  0  0  0  0  0
  -21.8815   -3.8148   23.4347 C   0  0  0  0  0  0
  -21.9192   -4.6966   22.3406 C   0  0  0  0  0  0
  -22.7798  -13.5205   21.1903 C   0  0  0  0  0  0
  -22.1661   -4.2153   21.0982 F   0  0  0  0  0  0
  -21.5629   -3.4538   25.7740 F   0  0  0  0  0  0
  -29.9308  -13.7256   20.3383 N   0  0  0  0  0  0
  -26.2859  -12.9429   20.3185 N   0  0  0  0  0  0
  -25.9322  -11.6568   20.5722 N   0  0  0  0  0  0
  -22.0441  -12.8190   22.0448 N   0  0  0  0  0  0
  -25.4049  -15.1936   20.4066 N   0  0  0  0  0  0
  -31.7178  -15.0879   20.2629 O   0  0  0  0  0  0
  -21.6641   -6.8881   21.4246 O   0  0  0  0  0  0
  -22.3488  -14.5515   20.6754 O   0  0  0  0  0  0
  -24.6484  -31.8394   23.1829 C   0  0  0  0  0  0
  -25.9235  -32.4669   23.8242 C   0  0  1  0  0  0
  -27.2137  -27.0824   20.1724 C   0  0  0  0  0  0
  -25.5974  -33.8478   24.2164 N   0  0  0  0  0  0
  -23.4535  -30.4566   21.5295 C   0  0  2  0  0  0
  -24.9016  -28.8629   20.1219 C   0  0  0  0  0  0
  -22.7581  -29.4527   22.4840 C   0  0  0  0  0  0
  -18.0303  -28.1398   22.8461 C   0  0  0  0  0  0
  -24.1491  -36.7238   23.2644 C   0  0  0  0  0  0
  -26.0136  -30.6953   21.3875 C   0  0  0  0  0  0
  -26.0823  -29.2973   20.7386 C   0  0  0  0  0  0
  -27.2408  -28.4264   20.7387 C   0  0  0  0  0  0
  -26.0072  -26.7541   19.5244 C   0  0  0  0  0  0
  -24.8782  -27.6050   19.5000 C   0  0  0  0  0  0
  -23.6845  -29.7765   20.1536 C   0  0  0  0  0  0
  -25.4121  -36.3013   24.0314 C   0  0  1  0  0  0
  -20.5916  -28.3730   23.1223 C   0  0  2  0  0  0
  -20.6788  -26.9426   22.5405 C   0  0  0  0  0  0
  -19.5770  -26.6375   21.5216 C   0  0  0  0  0  0
  -18.1946  -26.7935   22.1614 C   0  0  0  0  0  0
  -19.1565  -28.8882   23.2834 C   0  0  0  0  0  0
  -18.9481  -30.1474   23.8865 C   0  0  0  0  0  0
  -17.6481  -30.6592   24.0558 C   0  0  0  0  0  0
  -25.9081  -34.9394   23.5048 C   0  0  0  0  0  0
  -16.5369  -29.9089   23.6338 C   0  0  0  0  0  0
  -16.7288  -28.6507   23.0358 C   0  0  0  0  0  0
  -26.4526  -31.6554   25.0707 C   0  0  0  0  0  0
  -25.3682  -31.3771   26.1382 C   0  0  0  0  0  0
  -27.0391  -30.2938   24.6327 C   0  0  0  0  0  0
  -27.6066  -32.4312   25.7486 C   0  0  0  0  0  0
  -27.5561  -37.1778   24.8468 C   0  0  0  0  0  0
  -21.4273  -29.3053   22.3589 N   0  0  0  0  0  0
  -26.4276  -37.3740   23.9408 N   0  0  0  0  0  0
  -24.7255  -31.0198   22.0879 N   0  0  0  0  0  0
  -23.4199  -28.8077   23.3009 O   0  0  0  0  0  0
  -28.2873  -26.1086   20.1063 O   0  0  0  0  0  0
  -26.5670  -34.8903   22.4628 O   0  0  0  0  0  0
  -23.5590  -32.1295   23.7015 O   0  0  0  0  0  0
  -26.9899  -19.0697   19.0879 C   0  0  0  0  0  0
  -26.6529  -21.4982   19.2772 C   0  0  0  0  0  0
  -27.0058  -22.8279   19.6084 C   0  0  0  0  0  0
  -29.1084  -21.9403   20.4219 C   0  0  0  0  0  0
  -27.4954  -20.3778   19.4952 C   0  0  0  0  0  0
  -28.2357  -23.1494   20.2123 C   0  0  0  0  0  0
  -28.7974  -20.5097   20.0600 C   0  0  0  0  0  0
  -27.5754  -24.8009   22.1132 C   0  0  0  0  0  0
  -29.6472  -17.6825   20.8983 C   0  0  0  0  0  0
  -29.7773  -19.1341   20.0100 C   0  0  2  0  0  0
  -28.3942  -24.7026   20.8162 C   0  0  2  0  0  0
  -26.5999  -18.0262   18.7678 N   0  0  0  0  0  0
  -29.6463  -16.1532   20.4222 N   0  0  0  0  0  0
  -31.1768  -19.5770   20.0635 N   0  3  0  0  0  0
  -31.4730  -12.8199   19.1554 H   0  0  0  0  0  0
  -30.4729  -11.6833   20.0220 H   0  0  0  0  0  0
  -29.8454  -11.7241   17.5829 H   0  0  0  0  0  0
  -29.5907  -13.4501   17.6596 H   0  0  0  0  0  0
  -27.9614  -11.2662   18.9884 H   0  0  0  0  0  0
  -27.3860  -12.4218   17.8148 H   0  0  0  0  0  0
  -27.5766  -14.2420   19.3855 H   0  0  0  0  0  0
  -28.7793  -12.3142   21.4337 H   0  0  0  0  0  0
  -28.3658  -13.9873   21.7357 H   0  0  0  0  0  0
  -25.2770   -9.5681   22.4775 H   0  0  0  0  0  0
  -24.0008   -7.4629   22.7481 H   0  0  0  0  0  0
  -21.0853   -8.8776   19.8944 H   0  0  0  0  0  0
  -22.3718  -10.9678   19.6167 H   0  0  0  0  0  0
  -21.2003   -7.6149   23.9723 H   0  0  0  0  0  0
  -21.1484   -6.0521   25.9081 H   0  0  0  0  0  0
  -22.0595   -2.7611   23.2847 H   0  0  0  0  0  0
  -22.4049  -11.9837   22.4817 H   0  0  0  0  0  0
  -21.1058  -13.1208   22.2654 H   0  0  0  0  0  0
  -24.6116  -15.8206   20.4830 H   0  0  0  0  0  0
  -26.1991  -15.6355   19.9616 H   0  0  0  0  0  0
  -26.7301  -32.5243   23.0966 H   0  0  0  0  0  0
  -25.0126  -33.9600   25.0315 H   0  0  0  0  0  0
  -22.7607  -31.2846   21.3665 H   0  0  0  0  0  0
  -23.3762  -35.9565   23.3303 H   0  0  0  0  0  0
  -24.3567  -36.8875   22.2059 H   0  0  0  0  0  0
  -23.7250  -37.6437   23.6682 H   0  0  0  0  0  0
  -26.1761  -31.4409   20.6077 H   0  0  0  0  0  0
  -26.8836  -30.7509   22.0296 H   0  0  0  0  0  0
  -28.1499  -28.7641   21.2165 H   0  0  0  0  0  0
  -25.9300  -25.7953   19.0341 H   0  0  0  0  0  0
  -23.9793  -27.2669   19.0050 H   0  0  0  0  0  0
  -23.8345  -30.5474   19.3971 H   0  0  0  0  0  0
  -22.7968  -29.2265   19.8363 H   0  0  0  0  0  0
  -25.1313  -36.1833   25.0810 H   0  0  0  0  0  0
  -21.0017  -28.3325   24.1344 H   0  0  0  0  0  0
  -20.5695  -26.2339   23.3623 H   0  0  0  0  0  0
  -21.6649  -26.7438   22.1193 H   0  0  0  0  0  0
  -19.6947  -25.6287   21.1256 H   0  0  0  0  0  0
  -19.6718  -27.3174   20.6737 H   0  0  0  0  0  0
  -17.4216  -26.6685   21.4010 H   0  0  0  0  0  0
  -18.0336  -26.0090   22.9018 H   0  0  0  0  0  0
  -19.7964  -30.7294   24.2228 H   0  0  0  0  0  0
  -17.5037  -31.6278   24.5162 H   0  0  0  0  0  0
  -15.5372  -30.2987   23.7684 H   0  0  0  0  0  0
  -15.8680  -28.0820   22.7099 H   0  0  0  0  0  0
  -24.5926  -30.7038   25.7715 H   0  0  0  0  0  0
  -24.8788  -32.2955   26.4643 H   0  0  0  0  0  0
  -25.7942  -30.9081   27.0261 H   0  0  0  0  0  0
  -26.3023  -29.6651   24.1316 H   0  0  0  0  0  0
  -27.3978  -29.7250   25.4920 H   0  0  0  0  0  0
  -27.8936  -30.4162   23.9666 H   0  0  0  0  0  0
  -27.2712  -33.3698   26.1902 H   0  0  0  0  0  0
  -28.3957  -32.6722   25.0350 H   0  0  0  0  0  0
  -28.0627  -31.8521   26.5528 H   0  0  0  0  0  0
  -28.2578  -38.0076   24.7496 H   0  0  0  0  0  0
  -28.1059  -36.2601   24.6310 H   0  0  0  0  0  0
  -27.2271  -37.1436   25.8873 H   0  0  0  0  0  0
  -20.9492  -29.8752   21.6750 H   0  0  0  0  0  0
  -26.0132  -38.2806   24.1415 H   0  0  0  0  0  0
  -25.6794  -21.3333   18.8359 H   0  0  0  0  0  0
  -26.2779  -23.6087   19.4448 H   0  0  0  0  0  0
  -30.0624  -22.1285   20.8902 H   0  0  0  0  0  0
  -27.7863  -23.9604   22.7754 H   0  0  0  0  0  0
  -26.5047  -24.7914   21.9056 H   0  0  0  0  0  0
  -27.8030  -25.7142   22.6629 H   0  0  0  0  0  0
  -28.6733  -17.7650   21.3812 H   0  0  0  0  0  0
  -30.3345  -17.7383   21.7433 H   0  0  0  0  0  0
  -29.6789  -18.8009   18.9760 H   0  0  0  0  0  0
  -29.4378  -24.7015   21.1331 H   0  0  0  0  0  0
  -28.6956  -15.8482   20.2767 H   0  0  0  0  0  0
  -31.4226  -19.8847   20.9863 H   0  0  0  0  0  0
  -31.3270  -20.3302   19.4175 H   0  0  0  0  0  0
  -31.7838  -18.8198   19.8065 H   0  0  0  0  0  0
  1 25  1  0  0  0
  1 30  2  0  0  0
  1 83  1  0  0  0
  2  3  1  0  0  0
  2 25  1  0  0  0
  2 85  1  0  0  0
  2 86  1  0  0  0
  3  4  1  0  0  0
  3 87  1  0  0  0
  3 88  1  0  0  0
  4  5  1  0  0  0
  4 89  1  0  0  0
  4 90  1  0  0  0
  5  6  1  0  0  0
  5 26  1  0  0  0
  5 91  1  0  0  0
  6 25  1  0  0  0
  6 92  1  0  0  0
  6 93  1  0  0  0
  7  8  2  0  0  0
  7 26  1  0  0  0
  7 29  1  0  0  0
  8  9  1  0  0  0
  8 22  1  0  0  0
  9 10  1  0  0  0
  9 27  2  0  0  0
 10 11  2  0  0  0
 10 15  1  0  0  0
 11 12  1  0  0  0
 11 94  1  0  0  0
 12 13  2  0  0  0
 12 95  1  0  0  0
 13 14  1  0  0  0
 13 31  1  0  0  0
 14 15  2  0  0  0
 14 96  1  0  0  0
 15 97  1  0  0  0
 16 17  2  0  0  0
 16 21  1  0  0  0
 16 31  1  0  0  0
 17 18  1  0  0  0
 17 98  1  0  0  0
 18 19  2  0  0  0
 18 99  1  0  0  0
 19 20  1  0  0  0
 19 24  1  0  0  0
 20 21  2  0  0  0
 20100  1  0  0  0
 21 23  1  0  0  0
 22 28  1  0  0  0
 22 32  2  0  0  0
 26 27  1  0  0  0
 28101  1  0  0  0
 28102  1  0  0  0
 29103  1  0  0  0
 29104  1  0  0  0
 33 34  1  0  0  0
 33 66  1  0  0  0
 33 70  2  0  0  0
 34 36  1  0  0  0
 34 59  1  0  0  0
 34105  1  0  0  0
 35 44  2  0  0  0
 35 45  1  0  0  0
 35 68  1  0  0  0
 36 56  1  0  0  0
 36106  1  0  0  0
 37 39  1  0  0  0
 37 47  1  0  0  0
 37 66  1  0  0  0
 37107  1  0  0  0
 38 43  2  0  0  0
 38 46  1  0  0  0
 38 47  1  0  0  0
 39 64  1  0  0  0
 39 67  2  0  0  0
 40 52  1  0  0  0
 40 53  2  0  0  0
 40 58  1  0  0  0
 41108  1  0  0  0
 41109  1  0  0  0
 41110  1  0  0  0
 41 48  1  0  0  0
 42 43  1  0  0  0
 42 66  1  0  0  0
 42111  1  0  0  0
 42112  1  0  0  0
 43 44  1  0  0  0
 44113  1  0  0  0
 45 46  2  0  0  0
 45114  1  0  0  0
 46115  1  0  0  0
 47116  1  0  0  0
 47117  1  0  0  0
 48 56  1  0  0  0
 48 65  1  0  0  0
 48118  1  0  0  0
 49 50  1  0  0  0
 49 53  1  0  0  0
 49 64  1  0  0  0
 49119  1  0  0  0
 50 51  1  0  0  0
 50120  1  0  0  0
 50121  1  0  0  0
 51 52  1  0  0  0
 51122  1  0  0  0
 51123  1  0  0  0
 52124  1  0  0  0
 52125  1  0  0  0
 53 54  1  0  0  0
 54 55  2  0  0  0
 54126  1  0  0  0
 55 57  1  0  0  0
 55127  1  0  0  0
 56 69  2  0  0  0
 57 58  2  0  0  0
 57128  1  0  0  0
 58129  1  0  0  0
 59 60  1  0  0  0
 59 61  1  0  0  0
 59 62  1  0  0  0
 60130  1  0  0  0
 60131  1  0  0  0
 60132  1  0  0  0
 61133  1  0  0  0
 61134  1  0  0  0
 61135  1  0  0  0
 62136  1  0  0  0
 62137  1  0  0  0
 62138  1  0  0  0
 63 65  1  0  0  0
 63139  1  0  0  0
 63140  1  0  0  0
 63141  1  0  0  0
 64142  1  0  0  0
 65143  1  0  0  0
 68 81  1  0  0  0
 71 75  1  0  0  0
 71 82  3  0  0  0
 72 73  2  0  0  0
 72 75  1  0  0  0
 72144  1  0  0  0
 73 76  1  0  0  0
 73145  1  0  0  0
 74 76  2  0  0  0
 74 77  1  0  0  0
 74146  1  0  0  0
 75 77  2  0  0  0
 76 81  1  0  0  0
 77 80  1  0  0  0
 78147  1  0  0  0
 78148  1  0  0  0
 78149  1  0  0  0
 78 81  1  0  0  0
 79 80  1  0  0  0
 79 83  1  0  0  0
 79150  1  0  0  0
 79151  1  0  0  0
 80 84  1  0  0  0
 80152  1  0  0  0
 81153  1  0  0  0
 83154  1  0  0  0
 84155  1  0  0  0
 84156  1  0  0  0
 84157  1  0  0  0
M  CHG  1  84   1
M  ISO  4   1 100  68 101  81 101  83 100
M  END
> <chiral flag>
0

> <version>
0

> <s_m_source_file>
/data/baiqing/PycharmProjects/Reinvent-master-3.2/result/LINK_invent/BTK/process_docking_weight1_custom_sum_contain_oxygen_bond_distance_aromatic_linkinvent_7_9_3/rearranged_h_0106.sdf

> <i_m_source_file_index>
61

> <r_mmod_Potential_Energy-OPLS-2005>
387.195037841797

> <r_mmod_Stretch_Energy-OPLS-2005>
318.728332519531

> <r_mmod_Bend_Energy-OPLS-2005>
335.589965820312

> <r_mmod_Torsional_Energy-OPLS-2005>
305.814147949219

> <r_mmod_Improper_Torsional_Energy-OPLS-2005>
9.02473068237305

> <r_mmod_Van_der_Waal_Energy-OPLS-2005>
118.406044006348

> <r_mmod_Electrostatic_Energy-OPLS-2005>
-418.412445068359

> <r_mmod_Solvation_Energy-OPLS-2005>
-516.262268066406

> <b_mmod_Minimization_Converged-OPLS-2005>
0

> <r_mmod_RMS_Derivative-OPLS-2005>
1.70635974407196

$$$$
61
                    3D
 Structure written by MMmdl.
150157  0  0  1  0            999 V2000
  -30.4420  -15.2470   20.3673 C   0  0  0  0  0  0
  -30.4379  -12.7934   19.5309 C   0  0  0  0  0  0
  -29.5357  -12.5754   18.2900 C   0  0  0  0  0  0
  -28.0823  -12.3045   18.7143 C   0  0  0  0  0  0
  -27.6131  -13.2754   19.8264 C   0  0  2  0  0  0
  -28.6457  -13.4402   20.9624 C   0  0  0  0  0  0
  -25.2388  -13.8253   20.5750 C   0  0  0  0  0  0
  -24.1741  -13.0440   20.9259 C   0  0  0  0  0  0
  -24.6395  -11.6938   20.8763 C   0  0  0  0  0  0
  -23.9094  -10.4293   21.0405 C   0  0  0  0  0  0
  -24.3639   -9.4205   21.9183 C   0  0  0  0  0  0
  -23.6304   -8.2242   22.0752 C   0  0  0  0  0  0
  -22.4285   -8.0283   21.3542 C   0  0  0  0  0  0
  -21.9929   -9.0259   20.4643 C   0  0  0  0  0  0
  -22.7265  -10.2134   20.3052 C   0  0  0  0  0  0
  -21.6856   -6.0738   22.5277 C   0  0  0  0  0  0
  -21.4018   -6.5641   23.8211 C   0  0  0  0  0  0
  -21.3661   -5.6792   24.9172 C   0  0  0  0  0  0
  -21.6043   -4.3055   24.7221 C   0  0  0  0  0  0
  -21.8820   -3.8148   23.4342 C   0  0  0  0  0  0
  -21.9193   -4.6964   22.3399 C   0  0  0  0  0  0
  -22.7754  -13.5187   21.1904 C   0  0  0  0  0  0
  -22.1661   -4.2151   21.0976 F   0  0  0  0  0  0
  -21.5629   -3.4539   25.7734 F   0  0  0  0  0  0
  -29.8829  -13.9391   20.3416 N   0  0  0  0  0  0
  -26.2818  -12.9528   20.3228 N   0  0  0  0  0  0
  -25.9333  -11.6633   20.5726 N   0  0  0  0  0  0
  -22.0411  -12.8172   22.0460 N   0  0  0  0  0  0
  -25.4015  -15.1989   20.4189 N   0  0  0  0  0  0
  -31.6556  -15.2585   20.1203 O   0  0  0  0  0  0
  -21.6644   -6.8884   21.4240 O   0  0  0  0  0  0
  -22.3431  -14.5484   20.6738 O   0  0  0  0  0  0
  -24.6622  -31.8241   23.1713 C   0  0  0  0  0  0
  -25.9309  -32.4589   23.8173 C   0  0  1  0  0  0
  -27.2183  -26.9302   20.1729 C   0  0  0  0  0  0
  -25.5980  -33.8404   24.2076 N   0  0  0  0  0  0
  -23.4756  -30.4370   21.5207 C   0  0  2  0  0  0
  -24.9269  -28.8266   20.1102 C   0  0  0  0  0  0
  -22.7661  -29.4445   22.4786 C   0  0  0  0  0  0
  -18.0322  -28.1405   22.8468 C   0  0  0  0  0  0
  -24.1492  -36.7202   23.2647 C   0  0  0  0  0  0
  -26.0451  -30.6313   21.4013 C   0  0  0  0  0  0
  -26.1108  -29.2228   20.7425 C   0  0  0  0  0  0
  -27.2463  -28.2951   20.7508 C   0  0  0  0  0  0
  -25.9981  -26.6860   19.5016 C   0  0  0  0  0  0
  -24.8957  -27.5777   19.4715 C   0  0  0  0  0  0
  -23.7137  -29.7539   20.1462 C   0  0  0  0  0  0
  -25.4135  -36.2965   24.0298 C   0  0  1  0  0  0
  -20.5946  -28.3748   23.1190 C   0  0  2  0  0  0
  -20.6798  -26.9431   22.5401 C   0  0  0  0  0  0
  -19.5771  -26.6375   21.5212 C   0  0  0  0  0  0
  -18.1952  -26.7939   22.1621 C   0  0  0  0  0  0
  -19.1584  -28.8896   23.2817 C   0  0  0  0  0  0
  -18.9494  -30.1488   23.8853 C   0  0  0  0  0  0
  -17.6489  -30.6594   24.0556 C   0  0  0  0  0  0
  -25.9103  -34.9349   23.5007 C   0  0  0  0  0  0
  -16.5378  -29.9082   23.6343 C   0  0  0  0  0  0
  -16.7305  -28.6502   23.0364 C   0  0  0  0  0  0
  -26.4559  -31.6539   25.0705 C   0  0  0  0  0  0
  -25.3684  -31.3795   26.1361 C   0  0  0  0  0  0
  -27.0460  -30.2903   24.6452 C   0  0  0  0  0  0
  -27.6044  -32.4354   25.7510 C   0  0  0  0  0  0
  -27.5568  -37.1759   24.8466 C   0  0  0  0  0  0
  -21.4330  -29.3040   22.3537 N   0  0  0  0  0  0
  -26.4280  -37.3704   23.9408 N   0  0  0  0  0  0
  -24.7490  -30.9910   22.0844 N   0  0  0  0  0  0
  -23.4212  -28.8016   23.3026 O   0  0  0  0  0  0
  -28.2489  -25.8545   20.2928 O   0  0  0  0  0  0
  -26.5711  -34.8883   22.4603 O   0  0  0  0  0  0
  -23.5695  -32.1214   23.6812 O   0  0  0  0  0  0
  -27.7120  -24.1035   18.4416 C   0  0  0  0  0  0
  -27.0538  -22.2473   20.9925 C   0  0  0  0  0  0
  -29.9279  -18.1371   20.1613 C   0  0  0  0  0  0
  -29.0177  -19.6438   20.5548 C   0  0  0  0  0  0
  -28.3839  -24.2707   19.8103 C   0  0  2  0  0  0
  -28.4731  -22.6291   20.5598 C   0  0  2  0  0  0
  -29.6766  -16.5124   20.4634 N   0  0  0  0  0  0
  -29.1347  -21.2083   20.0580 O   0  0  0  0  0  0
  -31.4583  -12.9920   19.2008 H   0  0  0  0  0  0
  -30.4992  -11.8852   20.1327 H   0  0  0  0  0  0
  -29.9114  -11.7494   17.6845 H   0  0  0  0  0  0
  -29.5716  -13.4625   17.6557 H   0  0  0  0  0  0
  -28.0329  -11.2787   19.0810 H   0  0  0  0  0  0
  -27.4158  -12.3555   17.8523 H   0  0  0  0  0  0
  -27.5322  -14.2454   19.3342 H   0  0  0  0  0  0
  -28.8065  -12.5033   21.4982 H   0  0  0  0  0  0
  -28.2882  -14.1629   21.6974 H   0  0  0  0  0  0
  -25.2777   -9.5681   22.4767 H   0  0  0  0  0  0
  -24.0008   -7.4635   22.7475 H   0  0  0  0  0  0
  -21.0858   -8.8784   19.8950 H   0  0  0  0  0  0
  -22.3722  -10.9677   19.6165 H   0  0  0  0  0  0
  -21.2013   -7.6150   23.9716 H   0  0  0  0  0  0
  -21.1484   -6.0521   25.9076 H   0  0  0  0  0  0
  -22.0598   -2.7610   23.2839 H   0  0  0  0  0  0
  -22.4045  -11.9848   22.4861 H   0  0  0  0  0  0
  -21.1017  -13.1174   22.2653 H   0  0  0  0  0  0
  -24.6300  -15.8475   20.5335 H   0  0  0  0  0  0
  -26.2397  -15.6415   20.0657 H   0  0  0  0  0  0
  -26.7376  -32.5123   23.0885 H   0  0  0  0  0  0
  -25.0073  -33.9484   25.0189 H   0  0  0  0  0  0
  -22.7885  -31.2688   21.3518 H   0  0  0  0  0  0
  -23.3768  -35.9518   23.3283 H   0  0  0  0  0  0
  -24.3566  -36.8876   22.2066 H   0  0  0  0  0  0
  -23.7236  -37.6376   23.6722 H   0  0  0  0  0  0
  -26.2278  -31.3749   20.6245 H   0  0  0  0  0  0
  -26.9041  -30.6845   22.0586 H   0  0  0  0  0  0
  -28.1415  -28.5974   21.2759 H   0  0  0  0  0  0
  -25.8334  -25.7344   19.0304 H   0  0  0  0  0  0
  -23.9920  -27.2633   18.9678 H   0  0  0  0  0  0
  -23.8685  -30.5231   19.3889 H   0  0  0  0  0  0
  -22.8233  -29.2085   19.8286 H   0  0  0  0  0  0
  -25.1335  -36.1760   25.0789 H   0  0  0  0  0  0
  -21.0032  -28.3354   24.1314 H   0  0  0  0  0  0
  -20.5679  -26.2367   23.3641 H   0  0  0  0  0  0
  -21.6661  -26.7405   22.1208 H   0  0  0  0  0  0
  -19.6930  -25.6274   21.1272 H   0  0  0  0  0  0
  -19.6711  -27.3157   20.6719 H   0  0  0  0  0  0
  -17.4221  -26.6680   21.4024 H   0  0  0  0  0  0
  -18.0348  -26.0089   22.9026 H   0  0  0  0  0  0
  -19.7971  -30.7318   24.2200 H   0  0  0  0  0  0
  -17.5041  -31.6271   24.5164 H   0  0  0  0  0  0
  -15.5377  -30.2970   23.7692 H   0  0  0  0  0  0
  -15.8708  -28.0802   22.7107 H   0  0  0  0  0  0
  -24.5880  -30.7129   25.7672 H   0  0  0  0  0  0
  -24.8858  -32.2998   26.4658 H   0  0  0  0  0  0
  -25.7910  -30.9047   27.0225 H   0  0  0  0  0  0
  -26.3132  -29.6574   24.1435 H   0  0  0  0  0  0
  -27.3960  -29.7276   25.5118 H   0  0  0  0  0  0
  -27.9086  -30.4081   23.9889 H   0  0  0  0  0  0
  -27.2604  -33.3698   26.1959 H   0  0  0  0  0  0
  -28.3919  -32.6849   25.0386 H   0  0  0  0  0  0
  -28.0643  -31.8572   26.5536 H   0  0  0  0  0  0
  -28.2568  -38.0071   24.7510 H   0  0  0  0  0  0
  -28.1079  -36.2596   24.6297 H   0  0  0  0  0  0
  -27.2282  -37.1405   25.8868 H   0  0  0  0  0  0
  -20.9585  -29.8726   21.6663 H   0  0  0  0  0  0
  -26.0125  -38.2760   24.1419 H   0  0  0  0  0  0
  -28.1771  -23.2874   17.8883 H   0  0  0  0  0  0
  -27.8032  -25.0023   17.8321 H   0  0  0  0  0  0
  -26.6584  -23.8470   18.5412 H   0  0  0  0  0  0
  -26.4552  -21.9279   20.1396 H   0  0  0  0  0  0
  -26.5476  -23.0949   21.4554 H   0  0  0  0  0  0
  -27.0625  -21.4364   21.7206 H   0  0  0  0  0  0
  -30.9444  -18.3177   20.5118 H   0  0  0  0  0  0
  -30.0230  -18.1616   19.0753 H   0  0  0  0  0  0
  -29.0632  -19.7167   21.6417 H   0  0  0  0  0  0
  -27.9754  -19.3978   20.3507 H   0  0  0  0  0  0
  -29.4377  -24.3561   19.5423 H   0  0  0  0  0  0
  -29.0239  -22.8127   21.4830 H   0  0  0  0  0  0
  -28.7073  -16.3218   20.6745 H   0  0  0  0  0  0
  1 25  1  0  0  0
  1 30  2  0  0  0
  1 77  1  0  0  0
  2  3  1  0  0  0
  2 25  1  0  0  0
  2 79  1  0  0  0
  2 80  1  0  0  0
  3  4  1  0  0  0
  3 81  1  0  0  0
  3 82  1  0  0  0
  4  5  1  0  0  0
  4 83  1  0  0  0
  4 84  1  0  0  0
  5  6  1  0  0  0
  5 26  1  0  0  0
  5 85  1  0  0  0
  6 25  1  0  0  0
  6 86  1  0  0  0
  6 87  1  0  0  0
  7  8  2  0  0  0
  7 26  1  0  0  0
  7 29  1  0  0  0
  8  9  1  0  0  0
  8 22  1  0  0  0
  9 10  1  0  0  0
  9 27  2  0  0  0
 10 11  2  0  0  0
 10 15  1  0  0  0
 11 12  1  0  0  0
 11 88  1  0  0  0
 12 13  2  0  0  0
 12 89  1  0  0  0
 13 14  1  0  0  0
 13 31  1  0  0  0
 14 15  2  0  0  0
 14 90  1  0  0  0
 15 91  1  0  0  0
 16 17  2  0  0  0
 16 21  1  0  0  0
 16 31  1  0  0  0
 17 18  1  0  0  0
 17 92  1  0  0  0
 18 19  2  0  0  0
 18 93  1  0  0  0
 19 20  1  0  0  0
 19 24  1  0  0  0
 20 21  2  0  0  0
 20 94  1  0  0  0
 21 23  1  0  0  0
 22 28  1  0  0  0
 22 32  2  0  0  0
 26 27  1  0  0  0
 28 95  1  0  0  0
 28 96  1  0  0  0
 29 97  1  0  0  0
 29 98  1  0  0  0
 33 34  1  0  0  0
 33 66  1  0  0  0
 33 70  2  0  0  0
 34 36  1  0  0  0
 34 59  1  0  0  0
 34 99  1  0  0  0
 35 44  2  0  0  0
 35 45  1  0  0  0
 35 68  1  0  0  0
 36 56  1  0  0  0
 36100  1  0  0  0
 37 39  1  0  0  0
 37 47  1  0  0  0
 37 66  1  0  0  0
 37101  1  0  0  0
 38 43  2  0  0  0
 38 46  1  0  0  0
 38 47  1  0  0  0
 39 64  1  0  0  0
 39 67  2  0  0  0
 40 52  1  0  0  0
 40 53  2  0  0  0
 40 58  1  0  0  0
 41102  1  0  0  0
 41103  1  0  0  0
 41104  1  0  0  0
 41 48  1  0  0  0
 42 43  1  0  0  0
 42 66  1  0  0  0
 42105  1  0  0  0
 42106  1  0  0  0
 43 44  1  0  0  0
 44107  1  0  0  0
 45 46  2  0  0  0
 45108  1  0  0  0
 46109  1  0  0  0
 47110  1  0  0  0
 47111  1  0  0  0
 48 56  1  0  0  0
 48 65  1  0  0  0
 48112  1  0  0  0
 49 50  1  0  0  0
 49 53  1  0  0  0
 49 64  1  0  0  0
 49113  1  0  0  0
 50 51  1  0  0  0
 50114  1  0  0  0
 50115  1  0  0  0
 51 52  1  0  0  0
 51116  1  0  0  0
 51117  1  0  0  0
 52118  1  0  0  0
 52119  1  0  0  0
 53 54  1  0  0  0
 54 55  2  0  0  0
 54120  1  0  0  0
 55 57  1  0  0  0
 55121  1  0  0  0
 56 69  2  0  0  0
 57 58  2  0  0  0
 57122  1  0  0  0
 58123  1  0  0  0
 59 60  1  0  0  0
 59 61  1  0  0  0
 59 62  1  0  0  0
 60124  1  0  0  0
 60125  1  0  0  0
 60126  1  0  0  0
 61127  1  0  0  0
 61128  1  0  0  0
 61129  1  0  0  0
 62130  1  0  0  0
 62131  1  0  0  0
 62132  1  0  0  0
 63 65  1  0  0  0
 63133  1  0  0  0
 63134  1  0  0  0
 63135  1  0  0  0
 64136  1  0  0  0
 65137  1  0  0  0
 68 75  1  0  0  0
 71138  1  0  0  0
 71139  1  0  0  0
 71140  1  0  0  0
 71 75  1  0  0  0
 72141  1  0  0  0
 72142  1  0  0  0
 72143  1  0  0  0
 72 76  1  0  0  0
 73 74  1  0  0  0
 73 77  1  0  0  0
 73144  1  0  0  0
 73145  1  0  0  0
 74 78  1  0  0  0
 74146  1  0  0  0
 74147  1  0  0  0
 75 76  1  0  0  0
 75148  1  0  0  0
 76 78  1  0  0  0
 76149  1  0  0  0
 77150  1  0  0  0
M  ISO  4   1 100  68 101  75 101  77 100
M  END
> <chiral flag>
0

> <version>
0

> <s_m_source_file>
/data/baiqing/PycharmProjects/Reinvent-master-3.2/result/LINK_invent/BTK/process_docking_weight1_custom_sum_contain_oxygen_bond_distance_aromatic_linkinvent_7_9_3/rearranged_h_0106.sdf

> <i_m_source_file_index>
62

> <r_mmod_Potential_Energy-OPLS-2005>
1262.55603027344

> <r_mmod_Stretch_Energy-OPLS-2005>
629.546264648438

> <r_mmod_Bend_Energy-OPLS-2005>
496.818603515625

> <r_mmod_Torsional_Energy-OPLS-2005>
206.845596313477

> <r_mmod_Improper_Torsional_Energy-OPLS-2005>
4.35195970535278

> <r_mmod_Van_der_Waal_Energy-OPLS-2005>
110.476234436035

> <r_mmod_Electrostatic_Energy-OPLS-2005>
-409.848663330078

> <r_mmod_Solvation_Energy-OPLS-2005>
-216.639892578125

> <b_mmod_Minimization_Converged-OPLS-2005>
0

> <r_mmod_RMS_Derivative-OPLS-2005>
0.499517023563385

$$$$
62
                    3D
 Structure written by MMmdl.
177184  0  0  1  0            999 V2000
  -30.6719  -14.6287   20.4397 C   0  0  0  0  0  0
  -30.4250  -12.3728   19.4468 C   0  0  0  0  0  0
  -29.4944  -12.4469   18.2170 C   0  0  0  0  0  0
  -28.0169  -12.2883   18.6390 C   0  0  0  0  0  0
  -27.6331  -13.1797   19.8479 C   0  0  2  0  0  0
  -28.6947  -13.1265   20.9707 C   0  0  0  0  0  0
  -25.2558  -13.8006   20.5733 C   0  0  0  0  0  0
  -24.1771  -13.0358   20.9233 C   0  0  0  0  0  0
  -24.6274  -11.6804   20.8799 C   0  0  0  0  0  0
  -23.8948  -10.4229   21.0432 C   0  0  0  0  0  0
  -24.3546   -9.4157   21.9200 C   0  0  0  0  0  0
  -23.6252   -8.2173   22.0764 C   0  0  0  0  0  0
  -22.4248   -8.0193   21.3527 C   0  0  0  0  0  0
  -21.9856   -9.0160   20.4641 C   0  0  0  0  0  0
  -22.7132  -10.2068   20.3079 C   0  0  0  0  0  0
  -21.6833   -6.0681   22.5271 C   0  0  0  0  0  0
  -21.3951   -6.5620   23.8191 C   0  0  0  0  0  0
  -21.3666   -5.6787   24.9169 C   0  0  0  0  0  0
  -21.6052   -4.3049   24.7229 C   0  0  0  0  0  0
  -21.8838   -3.8117   23.4360 C   0  0  0  0  0  0
  -21.9196   -4.6915   22.3405 C   0  0  0  0  0  0
  -22.7815  -13.5221   21.1835 C   0  0  0  0  0  0
  -22.1663   -4.2093   21.0989 F   0  0  0  0  0  0
  -21.5676   -3.4547   25.7747 F   0  0  0  0  0  0
  -30.0016  -13.4344   20.3750 N   0  0  0  0  0  0
  -26.2900  -12.9101   20.3368 N   0  0  0  0  0  0
  -25.9205  -11.6304   20.5865 N   0  0  0  0  0  0
  -22.0390  -12.8264   22.0383 N   0  0  0  0  0  0
  -25.4378  -15.1711   20.4097 N   0  0  0  0  0  0
  -31.8878  -14.6889   20.2358 O   0  0  0  0  0  0
  -21.6610   -6.8797   21.4221 O   0  0  0  0  0  0
  -22.3578  -14.5522   20.6640 O   0  0  0  0  0  0
  -24.6195  -31.8638   23.2061 C   0  0  0  0  0  0
  -25.9064  -32.4802   23.8380 C   0  0  1  0  0  0
  -27.2411  -27.3820   20.0988 C   0  0  0  0  0  0
  -25.5919  -33.8611   24.2300 N   0  0  0  0  0  0
  -23.4112  -30.4837   21.5463 C   0  0  2  0  0  0
  -24.8594  -28.9421   20.1071 C   0  0  0  0  0  0
  -22.7441  -29.4631   22.4968 C   0  0  0  0  0  0
  -18.0279  -28.1384   22.8501 C   0  0  0  0  0  0
  -24.1474  -36.7301   23.2649 C   0  0  0  0  0  0
  -25.9441  -30.8088   21.3698 C   0  0  0  0  0  0
  -26.0181  -29.4392   20.7144 C   0  0  0  0  0  0
  -27.2052  -28.6629   20.7135 C   0  0  0  0  0  0
  -26.0606  -26.9144   19.4783 C   0  0  0  0  0  0
  -24.8778  -27.6816   19.4848 C   0  0  0  0  0  0
  -23.6213  -29.8129   20.1615 C   0  0  0  0  0  0
  -25.4108  -36.3112   24.0347 C   0  0  1  0  0  0
  -20.5876  -28.3686   23.1318 C   0  0  2  0  0  0
  -20.6761  -26.9423   22.5425 C   0  0  0  0  0  0
  -19.5744  -26.6383   21.5224 C   0  0  0  0  0  0
  -18.1920  -26.7934   22.1617 C   0  0  0  0  0  0
  -19.1527  -28.8852   23.2898 C   0  0  0  0  0  0
  -18.9449  -30.1458   23.8907 C   0  0  0  0  0  0
  -17.6449  -30.6595   24.0561 C   0  0  0  0  0  0
  -25.9044  -34.9476   23.5112 C   0  0  0  0  0  0
  -16.5342  -29.9090   23.6332 C   0  0  0  0  0  0
  -16.7268  -28.6502   23.0366 C   0  0  0  0  0  0
  -26.4473  -31.6605   25.0735 C   0  0  0  0  0  0
  -25.3719  -31.3725   26.1473 C   0  0  0  0  0  0
  -27.0330  -30.3043   24.6160 C   0  0  0  0  0  0
  -27.6047  -32.4342   25.7491 C   0  0  0  0  0  0
  -27.5583  -37.1808   24.8466 C   0  0  0  0  0  0
  -21.4162  -29.3032   22.3708 N   0  0  0  0  0  0
  -26.4290  -37.3802   23.9421 N   0  0  0  0  0  0
  -24.6760  -31.0687   22.0981 N   0  0  0  0  0  0
  -23.4187  -28.8199   23.3051 O   0  0  0  0  0  0
  -28.4024  -26.6188   20.1676 O   0  0  0  0  0  0
  -26.5579  -34.8940   22.4656 O   0  0  0  0  0  0
  -23.5369  -32.1424   23.7419 O   0  0  0  0  0  0
  -29.1682  -19.2831   21.5768 C   0  0  0  0  0  0
  -29.4552  -17.9616   21.7890 C   0  0  0  0  0  0
  -28.7279  -17.2183   22.9002 C   0  0  0  0  0  0
  -27.5533  -23.5813   18.1118 C   0  0  0  0  0  0
  -27.2415  -21.3086   20.7518 C   0  0  0  0  0  0
  -29.0971  -16.1558   19.3583 C   0  0  0  0  0  0
  -32.9163  -22.3182   20.3161 C   0  0  0  0  0  0
  -32.4411  -20.3620   18.9181 C   0  0  0  0  0  0
  -30.4875  -17.0641   21.0669 C   0  0  0  0  0  0
  -29.0646  -23.0070   20.1141 C   0  0  0  0  0  0
  -31.0848  -20.8049   20.9573 C   0  0  0  0  0  0
  -28.6609  -25.5357   19.2393 C   0  0  0  0  0  0
  -29.6809  -20.3081   20.5327 C   0  0  2  0  0  0
  -28.0739  -24.0822   19.4793 C   0  0  1  0  0  0
  -28.6371  -21.4664   20.1053 C   0  0  1  0  0  0
  -29.9373  -15.7896   20.5108 N   0  0  0  0  0  0
  -31.8759  -21.3789   19.8376 N   0  3  0  0  0  0
  -31.4678  -12.4773   19.1401 H   0  0  0  0  0  0
  -30.3471  -11.3969   19.9305 H   0  0  0  0  0  0
  -29.7606  -11.6704   17.5011 H   0  0  0  0  0  0
  -29.6338  -13.3926   17.6934 H   0  0  0  0  0  0
  -27.8599  -11.2397   18.8948 H   0  0  0  0  0  0
  -27.3571  -12.4930   17.7932 H   0  0  0  0  0  0
  -27.5886  -14.1797   19.4488 H   0  0  0  0  0  0
  -28.7167  -12.1408   21.4368 H   0  0  0  0  0  0
  -28.4545  -13.8361   21.7641 H   0  0  0  0  0  0
  -25.2662   -9.5660   22.4807 H   0  0  0  0  0  0
  -23.9949   -7.4576   22.7513 H   0  0  0  0  0  0
  -21.0776   -8.8658   19.8971 H   0  0  0  0  0  0
  -22.3530  -10.9632   19.6245 H   0  0  0  0  0  0
  -21.1873   -7.6114   23.9688 H   0  0  0  0  0  0
  -21.1508   -6.0504   25.9085 H   0  0  0  0  0  0
  -22.0617   -2.7570   23.2872 H   0  0  0  0  0  0
  -22.3955  -11.9939   22.4815 H   0  0  0  0  0  0
  -21.1022  -13.1398   22.2541 H   0  0  0  0  0  0
  -24.6786  -15.8351   20.5126 H   0  0  0  0  0  0
  -26.3129  -15.6027   20.1429 H   0  0  0  0  0  0
  -26.7143  -32.5490   23.1152 H   0  0  0  0  0  0
  -25.0067  -33.9757   25.0443 H   0  0  0  0  0  0
  -22.7037  -31.3036   21.4048 H   0  0  0  0  0  0
  -23.3763  -35.9604   23.3294 H   0  0  0  0  0  0
  -24.3580  -36.8925   22.2069 H   0  0  0  0  0  0
  -23.7182  -37.6488   23.6656 H   0  0  0  0  0  0
  -26.0687  -31.5742   20.6021 H   0  0  0  0  0  0
  -26.8279  -30.8568   21.9952 H   0  0  0  0  0  0
  -28.0956  -29.0392   21.1975 H   0  0  0  0  0  0
  -26.0302  -25.9456   19.0065 H   0  0  0  0  0  0
  -23.9875  -27.2936   19.0103 H   0  0  0  0  0  0
  -23.7279  -30.5872   19.4009 H   0  0  0  0  0  0
  -22.7452  -29.2314   19.8680 H   0  0  0  0  0  0
  -25.1282  -36.1967   25.0837 H   0  0  0  0  0  0
  -20.9954  -28.3236   24.1444 H   0  0  0  0  0  0
  -20.5674  -26.2295   23.3613 H   0  0  0  0  0  0
  -21.6628  -26.7475   22.1204 H   0  0  0  0  0  0
  -19.6901  -25.6288   21.1267 H   0  0  0  0  0  0
  -19.6687  -27.3183   20.6753 H   0  0  0  0  0  0
  -17.4205  -26.6739   21.3990 H   0  0  0  0  0  0
  -18.0283  -26.0060   22.8982 H   0  0  0  0  0  0
  -19.7933  -30.7273   24.2260 H   0  0  0  0  0  0
  -17.5020  -31.6282   24.5145 H   0  0  0  0  0  0
  -15.5346  -30.3001   23.7660 H   0  0  0  0  0  0
  -15.8667  -28.0829   22.7081 H   0  0  0  0  0  0
  -24.5884  -30.7088   25.7789 H   0  0  0  0  0  0
  -24.8919  -32.2883   26.4943 H   0  0  0  0  0  0
  -25.8049  -30.8866   27.0227 H   0  0  0  0  0  0
  -26.2898  -29.6792   24.1198 H   0  0  0  0  0  0
  -27.4063  -29.7301   25.4650 H   0  0  0  0  0  0
  -27.8744  -30.4360   23.9356 H   0  0  0  0  0  0
  -27.2664  -33.3644   26.2078 H   0  0  0  0  0  0
  -28.3846  -32.6911   25.0305 H   0  0  0  0  0  0
  -28.0735  -31.8470   26.5398 H   0  0  0  0  0  0
  -28.2597  -38.0113   24.7552 H   0  0  0  0  0  0
  -28.1076  -36.2652   24.6229 H   0  0  0  0  0  0
  -27.2315  -37.1384   25.8872 H   0  0  0  0  0  0
  -20.9325  -29.8740   21.6917 H   0  0  0  0  0  0
  -26.0175  -38.2879   24.1428 H   0  0  0  0  0  0
  -28.4553  -19.7023   22.2679 H   0  0  0  0  0  0
  -28.0816  -17.8743   23.4857 H   0  0  0  0  0  0
  -29.4437  -16.7637   23.5874 H   0  0  0  0  0  0
  -28.0998  -16.4259   22.4928 H   0  0  0  0  0  0
  -26.9744  -22.6627   18.1869 H   0  0  0  0  0  0
  -28.3799  -23.3989   17.4240 H   0  0  0  0  0  0
  -26.8932  -24.3086   17.6386 H   0  0  0  0  0  0
  -26.5012  -21.9566   20.2868 H   0  0  0  0  0  0
  -27.2534  -21.5609   21.8128 H   0  0  0  0  0  0
  -26.8564  -20.2948   20.6398 H   0  0  0  0  0  0
  -28.0684  -16.3105   19.6791 H   0  0  0  0  0  0
  -29.1147  -15.4158   18.5592 H   0  0  0  0  0  0
  -29.4145  -17.0846   18.8826 H   0  0  0  0  0  0
  -33.4600  -22.7577   19.4800 H   0  0  0  0  0  0
  -33.6353  -21.8117   20.9605 H   0  0  0  0  0  0
  -32.4734  -23.1376   20.8826 H   0  0  0  0  0  0
  -32.9226  -20.8427   18.0655 H   0  0  0  0  0  0
  -31.6785  -19.7009   18.5098 H   0  0  0  0  0  0
  -33.1866  -19.7445   19.4201 H   0  0  0  0  0  0
  -31.2551  -16.8257   21.8043 H   0  0  0  0  0  0
  -31.0069  -17.6277   20.2909 H   0  0  0  0  0  0
  -29.2868  -23.3147   21.1373 H   0  0  0  0  0  0
  -30.0000  -23.1127   19.5709 H   0  0  0  0  0  0
  -31.6621  -19.9893   21.3968 H   0  0  0  0  0  0
  -30.9680  -21.5376   21.7572 H   0  0  0  0  0  0
  -28.3705  -25.9045   18.2534 H   0  0  0  0  0  0
  -29.7456  -25.4519   19.1626 H   0  0  0  0  0  0
  -29.8076  -19.6791   19.6527 H   0  0  0  0  0  0
  -27.2089  -24.1850   20.1373 H   0  0  0  0  0  0
  -28.4724  -21.2415   19.0510 H   0  0  0  0  0  0
  -31.2318  -21.9341   19.2949 H   0  0  0  0  0  0
  1 25  1  0  0  0
  1 30  2  0  0  0
  1 86  1  0  0  0
  2  3  1  0  0  0
  2 25  1  0  0  0
  2 88  1  0  0  0
  2 89  1  0  0  0
  3  4  1  0  0  0
  3 90  1  0  0  0
  3 91  1  0  0  0
  4  5  1  0  0  0
  4 92  1  0  0  0
  4 93  1  0  0  0
  5  6  1  0  0  0
  5 26  1  0  0  0
  5 94  1  0  0  0
  6 25  1  0  0  0
  6 95  1  0  0  0
  6 96  1  0  0  0
  7  8  2  0  0  0
  7 26  1  0  0  0
  7 29  1  0  0  0
  8  9  1  0  0  0
  8 22  1  0  0  0
  9 10  1  0  0  0
  9 27  2  0  0  0
 10 11  2  0  0  0
 10 15  1  0  0  0
 11 12  1  0  0  0
 11 97  1  0  0  0
 12 13  2  0  0  0
 12 98  1  0  0  0
 13 14  1  0  0  0
 13 31  1  0  0  0
 14 15  2  0  0  0
 14 99  1  0  0  0
 15100  1  0  0  0
 16 17  2  0  0  0
 16 21  1  0  0  0
 16 31  1  0  0  0
 17 18  1  0  0  0
 17101  1  0  0  0
 18 19  2  0  0  0
 18102  1  0  0  0
 19 20  1  0  0  0
 19 24  1  0  0  0
 20 21  2  0  0  0
 20103  1  0  0  0
 21 23  1  0  0  0
 22 28  1  0  0  0
 22 32  2  0  0  0
 26 27  1  0  0  0
 28104  1  0  0  0
 28105  1  0  0  0
 29106  1  0  0  0
 29107  1  0  0  0
 33 34  1  0  0  0
 33 66  1  0  0  0
 33 70  2  0  0  0
 34 36  1  0  0  0
 34 59  1  0  0  0
 34108  1  0  0  0
 35 44  2  0  0  0
 35 45  1  0  0  0
 35 68  1  0  0  0
 36 56  1  0  0  0
 36109  1  0  0  0
 37 39  1  0  0  0
 37 47  1  0  0  0
 37 66  1  0  0  0
 37110  1  0  0  0
 38 43  2  0  0  0
 38 46  1  0  0  0
 38 47  1  0  0  0
 39 64  1  0  0  0
 39 67  2  0  0  0
 40 52  1  0  0  0
 40 53  2  0  0  0
 40 58  1  0  0  0
 41111  1  0  0  0
 41112  1  0  0  0
 41113  1  0  0  0
 41 48  1  0  0  0
 42 43  1  0  0  0
 42 66  1  0  0  0
 42114  1  0  0  0
 42115  1  0  0  0
 43 44  1  0  0  0
 44116  1  0  0  0
 45 46  2  0  0  0
 45117  1  0  0  0
 46118  1  0  0  0
 47119  1  0  0  0
 47120  1  0  0  0
 48 56  1  0  0  0
 48 65  1  0  0  0
 48121  1  0  0  0
 49 50  1  0  0  0
 49 53  1  0  0  0
 49 64  1  0  0  0
 49122  1  0  0  0
 50 51  1  0  0  0
 50123  1  0  0  0
 50124  1  0  0  0
 51 52  1  0  0  0
 51125  1  0  0  0
 51126  1  0  0  0
 52127  1  0  0  0
 52128  1  0  0  0
 53 54  1  0  0  0
 54 55  2  0  0  0
 54129  1  0  0  0
 55 57  1  0  0  0
 55130  1  0  0  0
 56 69  2  0  0  0
 57 58  2  0  0  0
 57131  1  0  0  0
 58132  1  0  0  0
 59 60  1  0  0  0
 59 61  1  0  0  0
 59 62  1  0  0  0
 60133  1  0  0  0
 60134  1  0  0  0
 60135  1  0  0  0
 61136  1  0  0  0
 61137  1  0  0  0
 61138  1  0  0  0
 62139  1  0  0  0
 62140  1  0  0  0
 62141  1  0  0  0
 63 65  1  0  0  0
 63142  1  0  0  0
 63143  1  0  0  0
 63144  1  0  0  0
 64145  1  0  0  0
 65146  1  0  0  0
 68 82  1  0  0  0
 71 72  2  0  0  0
 71 83  1  0  0  0
 71147  1  0  0  0
 72 73  1  0  0  0
 72 79  1  0  0  0
 73148  1  0  0  0
 73149  1  0  0  0
 73150  1  0  0  0
 74151  1  0  0  0
 74152  1  0  0  0
 74153  1  0  0  0
 74 84  1  0  0  0
 75154  1  0  0  0
 75155  1  0  0  0
 75156  1  0  0  0
 75 85  1  0  0  0
 76 86  1  0  0  0
 76157  1  0  0  0
 76158  1  0  0  0
 76159  1  0  0  0
 77160  1  0  0  0
 77161  1  0  0  0
 77162  1  0  0  0
 77 87  1  0  0  0
 78 87  1  0  0  0
 78163  1  0  0  0
 78164  1  0  0  0
 78165  1  0  0  0
 79 86  1  0  0  0
 79166  1  0  0  0
 79167  1  0  0  0
 80 84  1  0  0  0
 80 85  1  0  0  0
 80168  1  0  0  0
 80169  1  0  0  0
 81 87  1  0  0  0
 81170  1  0  0  0
 81171  1  0  0  0
 81 83  1  0  0  0
 82 84  1  0  0  0
 82172  1  0  0  0
 82173  1  0  0  0
 83 85  1  0  0  0
 83174  1  0  0  0
 84175  1  0  0  0
 85176  1  0  0  0
 87177  1  0  0  0
M  CHG  1  87   1
M  ISO  4   1 100  68 101  82 101  86 100
M  END
> <chiral flag>
0

> <version>
0

> <s_m_source_file>
/data/baiqing/PycharmProjects/Reinvent-master-3.2/result/LINK_invent/BTK/process_docking_weight1_custom_sum_contain_oxygen_bond_distance_aromatic_linkinvent_7_9_3/rearranged_h_0106.sdf

> <i_m_source_file_index>
63

> <r_mmod_Potential_Energy-OPLS-2005>
149.527236938477

> <r_mmod_Stretch_Energy-OPLS-2005>
72.8299560546875

> <r_mmod_Bend_Energy-OPLS-2005>
171.369903564453

> <r_mmod_Torsional_Energy-OPLS-2005>
317.918884277344

> <r_mmod_Improper_Torsional_Energy-OPLS-2005>
8.59580898284912

> <r_mmod_Van_der_Waal_Energy-OPLS-2005>
138.445053100586

> <r_mmod_Electrostatic_Energy-OPLS-2005>
-195.493789672852

> <r_mmod_Solvation_Energy-OPLS-2005>
-409.591827392578

> <b_mmod_Minimization_Converged-OPLS-2005>
0

> <r_mmod_RMS_Derivative-OPLS-2005>
3.30992102622986

$$$$
63
                    3D
 Structure written by MMmdl.
170178  0  0  1  0            999 V2000
  -30.7345  -14.4865   20.6239 C   0  0  0  0  0  0
  -30.4187  -12.3283   19.4393 C   0  0  0  0  0  0
  -29.5043  -12.5250   18.2125 C   0  0  0  0  0  0
  -28.0212  -12.3798   18.6127 C   0  0  0  0  0  0
  -27.6591  -13.2138   19.8678 C   0  0  2  0  0  0
  -28.6919  -13.0038   20.9923 C   0  0  0  0  0  0
  -25.2572  -13.8163   20.5674 C   0  0  0  0  0  0
  -24.1839  -13.0430   20.9156 C   0  0  0  0  0  0
  -24.6419  -11.6894   20.8710 C   0  0  0  0  0  0
  -23.9093  -10.4278   21.0386 C   0  0  0  0  0  0
  -24.3635   -9.4194   21.9171 C   0  0  0  0  0  0
  -23.6309   -8.2236   22.0758 C   0  0  0  0  0  0
  -22.4279   -8.0268   21.3567 C   0  0  0  0  0  0
  -21.9917   -9.0239   20.4662 C   0  0  0  0  0  0
  -22.7259  -10.2109   20.3057 C   0  0  0  0  0  0
  -21.6838   -6.0740   22.5301 C   0  0  0  0  0  0
  -21.3996   -6.5652   23.8221 C   0  0  0  0  0  0
  -21.3670   -5.6810   24.9194 C   0  0  0  0  0  0
  -21.6041   -4.3071   24.7237 C   0  0  0  0  0  0
  -21.8824   -3.8161   23.4367 C   0  0  0  0  0  0
  -21.9188   -4.6975   22.3413 C   0  0  0  0  0  0
  -22.7861  -13.5195   21.1839 C   0  0  0  0  0  0
  -22.1656   -4.2163   21.0994 F   0  0  0  0  0  0
  -21.5642   -3.4557   25.7757 F   0  0  0  0  0  0
  -30.0301  -13.3224   20.4600 N   0  0  0  0  0  0
  -26.3012  -12.9361   20.3307 N   0  0  0  0  0  0
  -25.9338  -11.6511   20.5719 N   0  0  0  0  0  0
  -22.0536  -12.8170   22.0408 N   0  0  0  0  0  0
  -25.4256  -15.1897   20.4137 N   0  0  0  0  0  0
  -31.8038  -14.6783   20.0376 O   0  0  0  0  0  0
  -21.6627   -6.8881   21.4263 O   0  0  0  0  0  0
  -22.3534  -14.5516   20.6718 O   0  0  0  0  0  0
  -24.6171  -31.8660   23.2094 C   0  0  0  0  0  0
  -25.9061  -32.4797   23.8390 C   0  0  1  0  0  0
  -27.2279  -27.4006   20.1108 C   0  0  0  0  0  0
  -25.5935  -33.8595   24.2333 N   0  0  0  0  0  0
  -23.4052  -30.4905   21.5480 C   0  0  2  0  0  0
  -24.8522  -28.9516   20.1136 C   0  0  0  0  0  0
  -22.7403  -29.4660   22.4952 C   0  0  0  0  0  0
  -18.0277  -28.1394   22.8419 C   0  0  0  0  0  0
  -24.1494  -36.7295   23.2628 C   0  0  0  0  0  0
  -25.9333  -30.8246   21.3645 C   0  0  0  0  0  0
  -26.0128  -29.4567   20.7092 C   0  0  0  0  0  0
  -27.2031  -28.6900   20.6983 C   0  0  0  0  0  0
  -26.0449  -26.9150   19.5071 C   0  0  0  0  0  0
  -24.8647  -27.6839   19.5073 C   0  0  0  0  0  0
  -23.6155  -29.8231   20.1635 C   0  0  0  0  0  0
  -25.4114  -36.3089   24.0336 C   0  0  1  0  0  0
  -20.5867  -28.3675   23.1311 C   0  0  2  0  0  0
  -20.6767  -26.9435   22.5345 C   0  0  0  0  0  0
  -19.5762  -26.6433   21.5120 C   0  0  0  0  0  0
  -18.1903  -26.7964   22.1467 C   0  0  0  0  0  0
  -19.1515  -28.8828   23.2894 C   0  0  0  0  0  0
  -18.9440  -30.1411   23.8968 C   0  0  0  0  0  0
  -17.6434  -30.6547   24.0591 C   0  0  0  0  0  0
  -25.9041  -34.9457   23.5121 C   0  0  0  0  0  0
  -16.5338  -29.9073   23.6274 C   0  0  0  0  0  0
  -16.7259  -28.6508   23.0278 C   0  0  0  0  0  0
  -26.4453  -31.6543   25.0720 C   0  0  0  0  0  0
  -25.3682  -31.3681   26.1442 C   0  0  0  0  0  0
  -27.0218  -30.2946   24.6114 C   0  0  0  0  0  0
  -27.6040  -32.4189   25.7560 C   0  0  0  0  0  0
  -27.5585  -37.1812   24.8465 C   0  0  0  0  0  0
  -21.4109  -29.3125   22.3765 N   0  0  0  0  0  0
  -26.4299  -37.3781   23.9396 N   0  0  0  0  0  0
  -24.6692  -31.0759   22.0992 N   0  0  0  0  0  0
  -23.4167  -28.8121   23.2932 O   0  0  0  0  0  0
  -28.4042  -26.6684   20.1594 O   0  0  0  0  0  0
  -26.5573  -34.8908   22.4663 O   0  0  0  0  0  0
  -23.5371  -32.1409   23.7508 O   0  0  0  0  0  0
  -27.9966  -21.0153   22.2358 C   0  0  0  0  0  0
  -28.0986  -19.6295   21.9801 C   0  0  0  0  0  0
  -28.9290  -19.1729   20.9123 C   0  0  0  0  0  0
  -28.7111  -21.9327   21.4492 C   0  0  0  0  0  0
  -29.6282  -20.1879   20.1836 C   0  0  0  0  0  0
  -27.3172  -18.6834   22.8859 C   0  0  0  0  0  0
  -31.9086  -20.6219   19.0812 C   0  0  0  0  0  0
  -28.5010  -17.3244   19.1419 C   0  0  0  0  0  0
  -29.9776  -15.3288   22.7744 C   0  0  0  0  0  0
  -28.7247  -23.4309   21.7885 C   0  0  0  0  0  0
  -30.5507  -19.9107   18.9989 C   0  0  0  0  0  0
  -27.7623  -24.3549   20.9853 C   0  0  0  0  0  0
  -30.3236  -16.9358   20.9562 C   0  0  0  0  0  0
  -28.4067  -25.2494   19.8817 C   0  0  0  0  0  0
  -28.9920  -17.6495   20.5715 C   0  0  1  0  0  0
  -29.4902  -21.5164   20.4344 N   0  0  0  0  0  0
  -30.1454  -15.4978   21.3225 N   0  0  0  0  0  0
  -31.4703  -12.4036   19.1534 H   0  0  0  0  0  0
  -30.2980  -11.3194   19.8374 H   0  0  0  0  0  0
  -29.7535  -11.8035   17.4325 H   0  0  0  0  0  0
  -29.6759  -13.5118   17.7804 H   0  0  0  0  0  0
  -27.8360  -11.3242   18.8116 H   0  0  0  0  0  0
  -27.3745  -12.6520   17.7765 H   0  0  0  0  0  0
  -27.6991  -14.2600   19.5719 H   0  0  0  0  0  0
  -28.6693  -11.9726   21.3473 H   0  0  0  0  0  0
  -28.3984  -13.6034   21.8499 H   0  0  0  0  0  0
  -25.2781   -9.5682   22.4728 H   0  0  0  0  0  0
  -24.0026   -7.4632   22.7468 H   0  0  0  0  0  0
  -21.0852   -8.8751   19.8970 H   0  0  0  0  0  0
  -22.3709  -10.9638   19.6156 H   0  0  0  0  0  0
  -21.1957   -7.6155   23.9741 H   0  0  0  0  0  0
  -21.1492   -6.0534   25.9098 H   0  0  0  0  0  0
  -22.0587   -2.7625   23.2863 H   0  0  0  0  0  0
  -22.4177  -11.9802   22.4736 H   0  0  0  0  0  0
  -21.1180  -13.1207   22.2684 H   0  0  0  0  0  0
  -24.6548  -15.8393   20.5163 H   0  0  0  0  0  0
  -26.2809  -15.6349   20.1080 H   0  0  0  0  0  0
  -26.7135  -32.5516   23.1162 H   0  0  0  0  0  0
  -25.0145  -33.9735   25.0525 H   0  0  0  0  0  0
  -22.6953  -31.3077   21.4083 H   0  0  0  0  0  0
  -23.3753  -35.9631   23.3303 H   0  0  0  0  0  0
  -24.3589  -36.8898   22.2038 H   0  0  0  0  0  0
  -23.7257  -37.6515   23.6629 H   0  0  0  0  0  0
  -26.0435  -31.5930   20.5993 H   0  0  0  0  0  0
  -26.8186  -30.8796   21.9839 H   0  0  0  0  0  0
  -28.1005  -29.0767   21.1600 H   0  0  0  0  0  0
  -26.0068  -25.9430   19.0369 H   0  0  0  0  0  0
  -23.9673  -27.2949   19.0460 H   0  0  0  0  0  0
  -23.7260  -30.5930   19.3981 H   0  0  0  0  0  0
  -22.7360  -29.2470   19.8728 H   0  0  0  0  0  0
  -25.1302  -36.1960   25.0837 H   0  0  0  0  0  0
  -21.0002  -28.3154   24.1418 H   0  0  0  0  0  0
  -21.6614  -26.7556   22.1064 H   0  0  0  0  0  0
  -20.5781  -26.2249   23.3512 H   0  0  0  0  0  0
  -19.6728  -27.3315   20.6712 H   0  0  0  0  0  0
  -19.6967  -25.6407   21.0979 H   0  0  0  0  0  0
  -17.4196  -26.6888   21.3816 H   0  0  0  0  0  0
  -18.0188  -26.0037   22.8769 H   0  0  0  0  0  0
  -19.7896  -30.7187   24.2467 H   0  0  0  0  0  0
  -17.4980  -31.6182   24.5279 H   0  0  0  0  0  0
  -15.5342  -30.3000   23.7570 H   0  0  0  0  0  0
  -15.8658  -28.0838   22.6983 H   0  0  0  0  0  0
  -24.5801  -30.7121   25.7739 H   0  0  0  0  0  0
  -24.8939  -32.2856   26.4934 H   0  0  0  0  0  0
  -25.7957  -30.8749   27.0177 H   0  0  0  0  0  0
  -26.2745  -29.6801   24.1078 H   0  0  0  0  0  0
  -27.3812  -29.7127   25.4618 H   0  0  0  0  0  0
  -27.8681  -30.4177   23.9349 H   0  0  0  0  0  0
  -27.2672  -33.3465   26.2190 H   0  0  0  0  0  0
  -28.3900  -32.6748   25.0446 H   0  0  0  0  0  0
  -28.0608  -31.8220   26.5469 H   0  0  0  0  0  0
  -28.2620  -38.0095   24.7497 H   0  0  0  0  0  0
  -28.1064  -36.2630   24.6310 H   0  0  0  0  0  0
  -27.2287  -37.1475   25.8865 H   0  0  0  0  0  0
  -20.9258  -29.8913   21.7050 H   0  0  0  0  0  0
  -26.0192  -38.2865   24.1388 H   0  0  0  0  0  0
  -27.3841  -21.3755   23.0508 H   0  0  0  0  0  0
  -26.7298  -19.2296   23.6240 H   0  0  0  0  0  0
  -27.9927  -18.0277   23.4368 H   0  0  0  0  0  0
  -26.6162  -18.0724   22.3153 H   0  0  0  0  0  0
  -32.5316  -20.3474   18.2296 H   0  0  0  0  0  0
  -32.4412  -20.3405   19.9906 H   0  0  0  0  0  0
  -31.7926  -21.7052   19.0707 H   0  0  0  0  0  0
  -27.4692  -17.6481   19.0017 H   0  0  0  0  0  0
  -28.5374  -16.2551   18.9371 H   0  0  0  0  0  0
  -29.0798  -17.7928   18.3517 H   0  0  0  0  0  0
  -30.7003  -15.9161   23.3414 H   0  0  0  0  0  0
  -30.1205  -14.2976   23.1004 H   0  0  0  0  0  0
  -28.9747  -15.6383   23.0735 H   0  0  0  0  0  0
  -29.7498  -23.7974   21.7336 H   0  0  0  0  0  0
  -28.4608  -23.5164   22.8441 H   0  0  0  0  0  0
  -30.0260  -20.1902   18.0833 H   0  0  0  0  0  0
  -30.7895  -18.8567   18.9167 H   0  0  0  0  0  0
  -27.2772  -25.0110   21.7090 H   0  0  0  0  0  0
  -26.9487  -23.7607   20.5699 H   0  0  0  0  0  0
  -30.7683  -17.4589   21.8026 H   0  0  0  0  0  0
  -31.0549  -17.0573   20.1574 H   0  0  0  0  0  0
  -29.4511  -24.9634   19.7594 H   0  0  0  0  0  0
  -27.9626  -25.0460   18.9078 H   0  0  0  0  0  0
  -28.2552  -17.1521   21.1940 H   0  0  0  0  0  0
  1 25  1  0  0  0
  1 30  2  0  0  0
  1 87  1  0  0  0
  2  3  1  0  0  0
  2 25  1  0  0  0
  2 88  1  0  0  0
  2 89  1  0  0  0
  3  4  1  0  0  0
  3 90  1  0  0  0
  3 91  1  0  0  0
  4  5  1  0  0  0
  4 92  1  0  0  0
  4 93  1  0  0  0
  5  6  1  0  0  0
  5 26  1  0  0  0
  5 94  1  0  0  0
  6 25  1  0  0  0
  6 95  1  0  0  0
  6 96  1  0  0  0
  7  8  2  0  0  0
  7 26  1  0  0  0
  7 29  1  0  0  0
  8  9  1  0  0  0
  8 22  1  0  0  0
  9 10  1  0  0  0
  9 27  2  0  0  0
 10 11  2  0  0  0
 10 15  1  0  0  0
 11 12  1  0  0  0
 11 97  1  0  0  0
 12 13  2  0  0  0
 12 98  1  0  0  0
 13 14  1  0  0  0
 13 31  1  0  0  0
 14 15  2  0  0  0
 14 99  1  0  0  0
 15100  1  0  0  0
 16 17  2  0  0  0
 16 21  1  0  0  0
 16 31  1  0  0  0
 17 18  1  0  0  0
 17101  1  0  0  0
 18 19  2  0  0  0
 18102  1  0  0  0
 19 20  1  0  0  0
 19 24  1  0  0  0
 20 21  2  0  0  0
 20103  1  0  0  0
 21 23  1  0  0  0
 22 28  1  0  0  0
 22 32  2  0  0  0
 26 27  1  0  0  0
 28104  1  0  0  0
 28105  1  0  0  0
 29106  1  0  0  0
 29107  1  0  0  0
 33 34  1  0  0  0
 33 66  1  0  0  0
 33 70  2  0  0  0
 34 36  1  0  0  0
 34 59  1  0  0  0
 34108  1  0  0  0
 35 44  2  0  0  0
 35 45  1  0  0  0
 35 68  1  0  0  0
 36 56  1  0  0  0
 36109  1  0  0  0
 37 39  1  0  0  0
 37 47  1  0  0  0
 37 66  1  0  0  0
 37110  1  0  0  0
 38 43  2  0  0  0
 38 46  1  0  0  0
 38 47  1  0  0  0
 39 64  1  0  0  0
 39 67  2  0  0  0
 40 52  1  0  0  0
 40 53  2  0  0  0
 40 58  1  0  0  0
 41111  1  0  0  0
 41112  1  0  0  0
 41113  1  0  0  0
 41 48  1  0  0  0
 42 43  1  0  0  0
 42 66  1  0  0  0
 42114  1  0  0  0
 42115  1  0  0  0
 43 44  1  0  0  0
 44116  1  0  0  0
 45 46  2  0  0  0
 45117  1  0  0  0
 46118  1  0  0  0
 47119  1  0  0  0
 47120  1  0  0  0
 48 56  1  0  0  0
 48 65  1  0  0  0
 48121  1  0  0  0
 49 50  1  0  0  0
 49 53  1  0  0  0
 49 64  1  0  0  0
 49122  1  0  0  0
 50 51  1  0  0  0
 50123  1  0  0  0
 50124  1  0  0  0
 51 52  1  0  0  0
 51125  1  0  0  0
 51126  1  0  0  0
 52127  1  0  0  0
 52128  1  0  0  0
 53 54  1  0  0  0
 54 55  2  0  0  0
 54129  1  0  0  0
 55 57  1  0  0  0
 55130  1  0  0  0
 56 69  2  0  0  0
 57 58  2  0  0  0
 57131  1  0  0  0
 58132  1  0  0  0
 59 60  1  0  0  0
 59 61  1  0  0  0
 59 62  1  0  0  0
 60133  1  0  0  0
 60134  1  0  0  0
 60135  1  0  0  0
 61136  1  0  0  0
 61137  1  0  0  0
 61138  1  0  0  0
 62139  1  0  0  0
 62140  1  0  0  0
 62141  1  0  0  0
 63 65  1  0  0  0
 63142  1  0  0  0
 63143  1  0  0  0
 63144  1  0  0  0
 64145  1  0  0  0
 65146  1  0  0  0
 68 84  1  0  0  0
 71 72  2  0  0  0
 71 74  1  0  0  0
 71147  1  0  0  0
 72 73  1  0  0  0
 72 76  1  0  0  0
 73 75  2  0  0  0
 73 85  1  0  0  0
 74 80  1  0  0  0
 74 86  2  0  0  0
 75 81  1  0  0  0
 75 86  1  0  0  0
 76148  1  0  0  0
 76149  1  0  0  0
 76150  1  0  0  0
 77 81  1  0  0  0
 77151  1  0  0  0
 77152  1  0  0  0
 77153  1  0  0  0
 78154  1  0  0  0
 78155  1  0  0  0
 78156  1  0  0  0
 78 85  1  0  0  0
 79 87  1  0  0  0
 79157  1  0  0  0
 79158  1  0  0  0
 79159  1  0  0  0
 80 82  1  0  0  0
 80160  1  0  0  0
 80161  1  0  0  0
 81162  1  0  0  0
 81163  1  0  0  0
 82 84  1  0  0  0
 82164  1  0  0  0
 82165  1  0  0  0
 83 85  1  0  0  0
 83 87  1  0  0  0
 83166  1  0  0  0
 83167  1  0  0  0
 84168  1  0  0  0
 84169  1  0  0  0
 85170  1  0  0  0
M  ISO  4   1 100  68 101  84 101  87 100
M  END
> <chiral flag>
0

> <version>
0

> <s_m_source_file>
/data/baiqing/PycharmProjects/Reinvent-master-3.2/result/LINK_invent/BTK/process_docking_weight1_custom_sum_contain_oxygen_bond_distance_aromatic_linkinvent_7_9_3/rearranged_h_0106.sdf

> <i_m_source_file_index>
64

> <r_mmod_Potential_Energy-OPLS-2005>
-70.5335083007812

> <r_mmod_Stretch_Energy-OPLS-2005>
52.7466354370117

> <r_mmod_Bend_Energy-OPLS-2005>
128.767059326172

> <r_mmod_Torsional_Energy-OPLS-2005>
277.423583984375

> <r_mmod_Improper_Torsional_Energy-OPLS-2005>
6.35253715515137

> <r_mmod_Van_der_Waal_Energy-OPLS-2005>
159.110488891602

> <r_mmod_Electrostatic_Energy-OPLS-2005>
-511.494903564453

> <r_mmod_Solvation_Energy-OPLS-2005>
-199.347885131836

> <b_mmod_Minimization_Converged-OPLS-2005>
0

> <r_mmod_RMS_Derivative-OPLS-2005>
4.14905309677124

$$$$
64
                    3D
 Structure written by MMmdl.
165173  0  0  1  0            999 V2000
  -30.5834  -14.8636   20.4237 C   0  0  0  0  0  0
  -30.4303  -12.5304   19.4915 C   0  0  0  0  0  0
  -29.5155  -12.5127   18.2476 C   0  0  0  0  0  0
  -28.0455  -12.3166   18.6633 C   0  0  0  0  0  0
  -27.6315  -13.2427   19.8385 C   0  0  2  0  0  0
  -28.6737  -13.2474   20.9766 C   0  0  0  0  0  0
  -25.2474  -13.8212   20.5701 C   0  0  0  0  0  0
  -24.1784  -13.0442   20.9219 C   0  0  0  0  0  0
  -24.6390  -11.6924   20.8750 C   0  0  0  0  0  0
  -23.9071  -10.4294   21.0406 C   0  0  0  0  0  0
  -24.3622   -9.4209   21.9184 C   0  0  0  0  0  0
  -23.6297   -8.2243   22.0753 C   0  0  0  0  0  0
  -22.4281   -8.0278   21.3541 C   0  0  0  0  0  0
  -21.9915   -9.0251   20.4644 C   0  0  0  0  0  0
  -22.7242  -10.2132   20.3055 C   0  0  0  0  0  0
  -21.6855   -6.0734   22.5277 C   0  0  0  0  0  0
  -21.4014   -6.5636   23.8211 C   0  0  0  0  0  0
  -21.3660   -5.6788   24.9173 C   0  0  0  0  0  0
  -21.6047   -4.3052   24.7223 C   0  0  0  0  0  0
  -21.8819   -3.8144   23.4343 C   0  0  0  0  0  0
  -21.9193   -4.6961   22.3400 C   0  0  0  0  0  0
  -22.7803  -13.5216   21.1866 C   0  0  0  0  0  0
  -22.1662   -4.2144   21.0978 F   0  0  0  0  0  0
  -21.5628   -3.4538   25.7738 F   0  0  0  0  0  0
  -29.9576  -13.6269   20.3790 N   0  0  0  0  0  0
  -26.2890  -12.9435   20.3238 N   0  0  0  0  0  0
  -25.9320  -11.6568   20.5737 N   0  0  0  0  0  0
  -22.0452  -12.8211   22.0426 N   0  0  0  0  0  0
  -25.4143  -15.1940   20.4121 N   0  0  0  0  0  0
  -31.7869  -14.9068   20.1515 O   0  0  0  0  0  0
  -21.6642   -6.8877   21.4240 O   0  0  0  0  0  0
  -22.3486  -14.5514   20.6699 O   0  0  0  0  0  0
  -24.6382  -31.8474   23.1896 C   0  0  0  0  0  0
  -25.9171  -32.4710   23.8276 C   0  0  1  0  0  0
  -27.2195  -27.1823   20.1425 C   0  0  0  0  0  0
  -25.5934  -33.8513   24.2200 N   0  0  0  0  0  0
  -23.4386  -30.4663   21.5342 C   0  0  2  0  0  0
  -24.8856  -28.8947   20.1081 C   0  0  0  0  0  0
  -22.7529  -29.4570   22.4879 C   0  0  0  0  0  0
  -18.0295  -28.1394   22.8485 C   0  0  0  0  0  0
  -24.1487  -36.7265   23.2644 C   0  0  0  0  0  0
  -25.9889  -30.7348   21.3795 C   0  0  0  0  0  0
  -26.0585  -29.3496   20.7224 C   0  0  0  0  0  0
  -27.2235  -28.5066   20.7244 C   0  0  0  0  0  0
  -26.0208  -26.8079   19.4989 C   0  0  0  0  0  0
  -24.8765  -27.6363   19.4838 C   0  0  0  0  0  0
  -23.6600  -29.7915   20.1532 C   0  0  0  0  0  0
  -25.4117  -36.3043   24.0323 C   0  0  1  0  0  0
  -20.5902  -28.3711   23.1249 C   0  0  2  0  0  0
  -20.6777  -26.9420   22.5405 C   0  0  0  0  0  0
  -19.5752  -26.6382   21.5211 C   0  0  0  0  0  0
  -18.1934  -26.7933   22.1625 C   0  0  0  0  0  0
  -19.1552  -28.8870   23.2860 C   0  0  0  0  0  0
  -18.9471  -30.1467   23.8885 C   0  0  0  0  0  0
  -17.6471  -30.6593   24.0562 C   0  0  0  0  0  0
  -25.9063  -34.9416   23.5073 C   0  0  0  0  0  0
  -16.5362  -29.9089   23.6338 C   0  0  0  0  0  0
  -16.7280  -28.6504   23.0363 C   0  0  0  0  0  0
  -26.4508  -31.6569   25.0707 C   0  0  0  0  0  0
  -25.3704  -31.3745   26.1414 C   0  0  0  0  0  0
  -27.0377  -30.2976   24.6260 C   0  0  0  0  0  0
  -27.6045  -32.4330   25.7488 C   0  0  0  0  0  0
  -27.5575  -37.1790   24.8466 C   0  0  0  0  0  0
  -21.4230  -29.3048   22.3630 N   0  0  0  0  0  0
  -26.4286  -37.3751   23.9408 N   0  0  0  0  0  0
  -24.7081  -31.0371   22.0902 N   0  0  0  0  0  0
  -23.4193  -28.8130   23.3023 O   0  0  0  0  0  0
  -28.3202  -26.2756   20.2356 O   0  0  0  0  0  0
  -26.5655  -34.8912   22.4654 O   0  0  0  0  0  0
  -23.5514  -32.1332   23.7152 O   0  0  0  0  0  0
  -28.3729  -19.3926   20.4831 C   0  0  0  0  0  0
  -30.5970  -20.1351   20.3177 C   0  0  0  0  0  0
  -29.7406  -18.9922   20.3956 C   0  0  0  0  0  0
  -27.9322  -20.7838   20.5287 C   0  0  0  0  0  0
  -30.1889  -21.5226   20.3728 C   0  0  0  0  0  0
  -28.8158  -21.9379   20.4967 C   0  0  0  0  0  0
  -26.4345  -21.0055   20.6556 C   0  0  0  0  0  0
  -32.1987  -22.5116   21.5873 C   0  0  0  0  0  0
  -28.6407  -22.9319   23.3417 C   0  0  0  0  0  0
  -31.3150  -22.5477   20.3311 C   0  0  0  0  0  0
  -30.4172  -17.4994   20.3321 C   0  0  0  0  0  0
  -28.8320  -23.9524   22.2065 C   0  0  0  0  0  0
  -28.3684  -24.7983   19.7971 C   0  0  0  0  0  0
  -28.3227  -23.4913   20.8206 C   0  0  1  0  0  0
  -29.8530  -16.0654   20.5441 N   0  0  0  0  0  0
  -31.4691  -12.6639   19.1848 H   0  0  0  0  0  0
  -30.3964  -11.5724   20.0130 H   0  0  0  0  0  0
  -29.8215  -11.7202   17.5633 H   0  0  0  0  0  0
  -29.6226  -13.4499   17.6991 H   0  0  0  0  0  0
  -27.9274  -11.2735   18.9588 H   0  0  0  0  0  0
  -27.3861  -12.4663   17.8075 H   0  0  0  0  0  0
  -27.6041  -14.2499   19.4221 H   0  0  0  0  0  0
  -28.7410  -12.2694   21.4552 H   0  0  0  0  0  0
  -28.3894  -13.9566   21.7558 H   0  0  0  0  0  0
  -25.2768   -9.5686   22.4757 H   0  0  0  0  0  0
  -24.0003   -7.4639   22.7478 H   0  0  0  0  0  0
  -21.0841   -8.8771   19.8955 H   0  0  0  0  0  0
  -22.3699  -10.9668   19.6161 H   0  0  0  0  0  0
  -21.2008   -7.6145   23.9710 H   0  0  0  0  0  0
  -21.1483   -6.0521   25.9075 H   0  0  0  0  0  0
  -22.0599   -2.7605   23.2845 H   0  0  0  0  0  0
  -22.4074  -11.9886   22.4831 H   0  0  0  0  0  0
  -21.1060  -13.1227   22.2604 H   0  0  0  0  0  0
  -24.6442  -15.8445   20.5237 H   0  0  0  0  0  0
  -26.2549  -15.6339   20.0614 H   0  0  0  0  0  0
  -26.7242  -32.5328   23.1013 H   0  0  0  0  0  0
  -25.0051  -33.9626   25.0327 H   0  0  0  0  0  0
  -22.7395  -31.2910   21.3806 H   0  0  0  0  0  0
  -23.3753  -35.9594   23.3297 H   0  0  0  0  0  0
  -24.3572  -36.8902   22.2060 H   0  0  0  0  0  0
  -23.7238  -37.6459   23.6682 H   0  0  0  0  0  0
  -26.1375  -31.4901   20.6068 H   0  0  0  0  0  0
  -26.8625  -30.7853   22.0182 H   0  0  0  0  0  0
  -28.1198  -28.8492   21.2224 H   0  0  0  0  0  0
  -25.9295  -25.8422   19.0271 H   0  0  0  0  0  0
  -23.9775  -27.2815   18.9987 H   0  0  0  0  0  0
  -23.7895  -30.5629   19.3932 H   0  0  0  0  0  0
  -22.7760  -29.2280   19.8493 H   0  0  0  0  0  0
  -25.1305  -36.1879   25.0817 H   0  0  0  0  0  0
  -21.0002  -28.3298   24.1366 H   0  0  0  0  0  0
  -20.5659  -26.2330   23.3619 H   0  0  0  0  0  0
  -21.6646  -26.7422   22.1214 H   0  0  0  0  0  0
  -19.6905  -25.6285   21.1257 H   0  0  0  0  0  0
  -19.6688  -27.3180   20.6730 H   0  0  0  0  0  0
  -17.4202  -26.6684   21.4029 H   0  0  0  0  0  0
  -18.0333  -26.0073   22.9020 H   0  0  0  0  0  0
  -19.7948  -30.7286   24.2251 H   0  0  0  0  0  0
  -17.5025  -31.6273   24.5165 H   0  0  0  0  0  0
  -15.5362  -30.2991   23.7661 H   0  0  0  0  0  0
  -15.8680  -28.0814   22.7095 H   0  0  0  0  0  0
  -24.5885  -30.7090   25.7737 H   0  0  0  0  0  0
  -24.8890  -32.2923   26.4799 H   0  0  0  0  0  0
  -25.7998  -30.8945   27.0217 H   0  0  0  0  0  0
  -26.2991  -29.6698   24.1266 H   0  0  0  0  0  0
  -27.4010  -29.7272   25.4818 H   0  0  0  0  0  0
  -27.8882  -30.4231   23.9556 H   0  0  0  0  0  0
  -27.2644  -33.3644   26.2025 H   0  0  0  0  0  0
  -28.3875  -32.6869   25.0331 H   0  0  0  0  0  0
  -28.0694  -31.8483   26.5435 H   0  0  0  0  0  0
  -28.2595  -38.0086   24.7512 H   0  0  0  0  0  0
  -28.1071  -36.2617   24.6296 H   0  0  0  0  0  0
  -27.2295  -37.1443   25.8870 H   0  0  0  0  0  0
  -20.9428  -29.8763   21.6819 H   0  0  0  0  0  0
  -26.0158  -38.2824   24.1403 H   0  0  0  0  0  0
  -27.6305  -18.6078   20.5278 H   0  0  0  0  0  0
  -31.6566  -19.9361   20.2298 H   0  0  0  0  0  0
  -25.8753  -20.0789   20.5207 H   0  0  0  0  0  0
  -26.0819  -21.7091   19.9008 H   0  0  0  0  0  0
  -26.1885  -21.3981   21.6422 H   0  0  0  0  0  0
  -31.6181  -22.6939   22.4912 H   0  0  0  0  0  0
  -32.9765  -23.2738   21.5351 H   0  0  0  0  0  0
  -32.6921  -21.5465   21.7026 H   0  0  0  0  0  0
  -28.9568  -23.3540   24.2959 H   0  0  0  0  0  0
  -29.2251  -22.0260   23.1790 H   0  0  0  0  0  0
  -27.5940  -22.6421   23.4405 H   0  0  0  0  0  0
  -30.9319  -23.5534   20.1862 H   0  0  0  0  0  0
  -31.9297  -22.3458   19.4529 H   0  0  0  0  0  0
  -31.2592  -17.5592   21.0236 H   0  0  0  0  0  0
  -30.8863  -17.4640   19.3474 H   0  0  0  0  0  0
  -29.8841  -24.2238   22.1449 H   0  0  0  0  0  0
  -28.3161  -24.8728   22.4832 H   0  0  0  0  0  0
  -27.6610  -24.6235   18.9891 H   0  0  0  0  0  0
  -29.3276  -24.7410   19.2868 H   0  0  0  0  0  0
  -27.2519  -23.3980   20.9845 H   0  0  0  0  0  0
  -28.8626  -15.9853   20.7156 H   0  0  0  0  0  0
  1 25  1  0  0  0
  1 30  2  0  0  0
  1 85  1  0  0  0
  2  3  1  0  0  0
  2 25  1  0  0  0
  2 86  1  0  0  0
  2 87  1  0  0  0
  3  4  1  0  0  0
  3 88  1  0  0  0
  3 89  1  0  0  0
  4  5  1  0  0  0
  4 90  1  0  0  0
  4 91  1  0  0  0
  5  6  1  0  0  0
  5 26  1  0  0  0
  5 92  1  0  0  0
  6 25  1  0  0  0
  6 93  1  0  0  0
  6 94  1  0  0  0
  7  8  2  0  0  0
  7 26  1  0  0  0
  7 29  1  0  0  0
  8  9  1  0  0  0
  8 22  1  0  0  0
  9 10  1  0  0  0
  9 27  2  0  0  0
 10 11  2  0  0  0
 10 15  1  0  0  0
 11 12  1  0  0  0
 11 95  1  0  0  0
 12 13  2  0  0  0
 12 96  1  0  0  0
 13 14  1  0  0  0
 13 31  1  0  0  0
 14 15  2  0  0  0
 14 97  1  0  0  0
 15 98  1  0  0  0
 16 17  2  0  0  0
 16 21  1  0  0  0
 16 31  1  0  0  0
 17 18  1  0  0  0
 17 99  1  0  0  0
 18 19  2  0  0  0
 18100  1  0  0  0
 19 20  1  0  0  0
 19 24  1  0  0  0
 20 21  2  0  0  0
 20101  1  0  0  0
 21 23  1  0  0  0
 22 28  1  0  0  0
 22 32  2  0  0  0
 26 27  1  0  0  0
 28102  1  0  0  0
 28103  1  0  0  0
 29104  1  0  0  0
 29105  1  0  0  0
 33 34  1  0  0  0
 33 66  1  0  0  0
 33 70  2  0  0  0
 34 36  1  0  0  0
 34 59  1  0  0  0
 34106  1  0  0  0
 35 44  2  0  0  0
 35 45  1  0  0  0
 35 68  1  0  0  0
 36 56  1  0  0  0
 36107  1  0  0  0
 37 39  1  0  0  0
 37 47  1  0  0  0
 37 66  1  0  0  0
 37108  1  0  0  0
 38 43  2  0  0  0
 38 46  1  0  0  0
 38 47  1  0  0  0
 39 64  1  0  0  0
 39 67  2  0  0  0
 40 52  1  0  0  0
 40 53  2  0  0  0
 40 58  1  0  0  0
 41109  1  0  0  0
 41110  1  0  0  0
 41111  1  0  0  0
 41 48  1  0  0  0
 42 43  1  0  0  0
 42 66  1  0  0  0
 42112  1  0  0  0
 42113  1  0  0  0
 43 44  1  0  0  0
 44114  1  0  0  0
 45 46  2  0  0  0
 45115  1  0  0  0
 46116  1  0  0  0
 47117  1  0  0  0
 47118  1  0  0  0
 48 56  1  0  0  0
 48 65  1  0  0  0
 48119  1  0  0  0
 49 50  1  0  0  0
 49 53  1  0  0  0
 49 64  1  0  0  0
 49120  1  0  0  0
 50 51  1  0  0  0
 50121  1  0  0  0
 50122  1  0  0  0
 51 52  1  0  0  0
 51123  1  0  0  0
 51124  1  0  0  0
 52125  1  0  0  0
 52126  1  0  0  0
 53 54  1  0  0  0
 54 55  2  0  0  0
 54127  1  0  0  0
 55 57  1  0  0  0
 55128  1  0  0  0
 56 69  2  0  0  0
 57 58  2  0  0  0
 57129  1  0  0  0
 58130  1  0  0  0
 59 60  1  0  0  0
 59 61  1  0  0  0
 59 62  1  0  0  0
 60131  1  0  0  0
 60132  1  0  0  0
 60133  1  0  0  0
 61134  1  0  0  0
 61135  1  0  0  0
 61136  1  0  0  0
 62137  1  0  0  0
 62138  1  0  0  0
 62139  1  0  0  0
 63 65  1  0  0  0
 63140  1  0  0  0
 63141  1  0  0  0
 63142  1  0  0  0
 64143  1  0  0  0
 65144  1  0  0  0
 68 83  1  0  0  0
 71 73  2  0  0  0
 71 74  1  0  0  0
 71145  1  0  0  0
 72 73  1  0  0  0
 72 75  2  0  0  0
 72146  1  0  0  0
 73 81  1  0  0  0
 74 76  2  0  0  0
 74 77  1  0  0  0
 75 76  1  0  0  0
 75 80  1  0  0  0
 76 84  1  0  0  0
 77147  1  0  0  0
 77148  1  0  0  0
 77149  1  0  0  0
 78 80  1  0  0  0
 78150  1  0  0  0
 78151  1  0  0  0
 78152  1  0  0  0
 79 82  1  0  0  0
 79153  1  0  0  0
 79154  1  0  0  0
 79155  1  0  0  0
 80156  1  0  0  0
 80157  1  0  0  0
 81 85  1  0  0  0
 81158  1  0  0  0
 81159  1  0  0  0
 82160  1  0  0  0
 82161  1  0  0  0
 82 84  1  0  0  0
 83 84  1  0  0  0
 83162  1  0  0  0
 83163  1  0  0  0
 84164  1  0  0  0
 85165  1  0  0  0
M  ISO  4   1 100  68 101  83 101  85 100
M  END
> <chiral flag>
0

> <version>
0

> <s_m_source_file>
/data/baiqing/PycharmProjects/Reinvent-master-3.2/result/LINK_invent/BTK/process_docking_weight1_custom_sum_contain_oxygen_bond_distance_aromatic_linkinvent_7_9_3/rearranged_h_0106.sdf

> <i_m_source_file_index>
65

> <r_mmod_Potential_Energy-OPLS-2005>
353.154571533203

> <r_mmod_Stretch_Energy-OPLS-2005>
200.289489746094

> <r_mmod_Bend_Energy-OPLS-2005>
271.691558837891

> <r_mmod_Torsional_Energy-OPLS-2005>
210.045547485352

> <r_mmod_Improper_Torsional_Energy-OPLS-2005>
6.24065446853638

> <r_mmod_Van_der_Waal_Energy-OPLS-2005>
131.94580078125

> <r_mmod_Electrostatic_Energy-OPLS-2005>
-408.187683105469

> <r_mmod_Solvation_Energy-OPLS-2005>
-200.528869628906

> <b_mmod_Minimization_Converged-OPLS-2005>
0

> <r_mmod_RMS_Derivative-OPLS-2005>
0.710075080394745

$$$$
65
                    3D
 Structure written by MMmdl.
177186  0  0  1  0            999 V2000
  -30.6192  -14.5624   20.5157 C   0  0  0  0  0  0
  -30.4462  -12.3516   19.4491 C   0  0  0  0  0  0
  -29.4964  -12.4933   18.2372 C   0  0  0  0  0  0
  -28.0169  -12.3632   18.6535 C   0  0  0  0  0  0
  -27.6621  -13.1735   19.9262 C   0  0  2  0  0  0
  -28.7201  -12.9824   21.0374 C   0  0  0  0  0  0
  -25.2697  -13.8016   20.6151 C   0  0  0  0  0  0
  -24.1806  -13.0331   20.9334 C   0  0  0  0  0  0
  -24.6309  -11.6821   20.8777 C   0  0  0  0  0  0
  -23.8982  -10.4244   21.0411 C   0  0  0  0  0  0
  -24.3556   -9.4194   21.9192 C   0  0  0  0  0  0
  -23.6244   -8.2216   22.0761 C   0  0  0  0  0  0
  -22.4250   -8.0261   21.3515 C   0  0  0  0  0  0
  -21.9845   -9.0251   20.4660 C   0  0  0  0  0  0
  -22.7160  -10.2146   20.3071 C   0  0  0  0  0  0
  -21.6856   -6.0735   22.5266 C   0  0  0  0  0  0
  -21.4015   -6.5647   23.8200 C   0  0  0  0  0  0
  -21.3623   -5.6813   24.9149 C   0  0  0  0  0  0
  -21.6013   -4.3072   24.7230 C   0  0  0  0  0  0
  -21.8837   -3.8158   23.4349 C   0  0  0  0  0  0
  -21.9213   -4.6963   22.3403 C   0  0  0  0  0  0
  -22.7870  -13.5275   21.1890 C   0  0  0  0  0  0
  -22.1694   -4.2134   21.0973 F   0  0  0  0  0  0
  -21.5605   -3.4548   25.7735 F   0  0  0  0  0  0
  -30.0312  -13.3327   20.4611 N   0  0  0  0  0  0
  -26.2992  -12.9100   20.3645 N   0  0  0  0  0  0
  -25.9211  -11.6311   20.5836 N   0  0  0  0  0  0
  -22.0437  -12.8271   22.0441 N   0  0  0  0  0  0
  -25.4543  -15.1681   20.5262 N   0  0  0  0  0  0
  -31.7514  -14.7800   20.0720 O   0  0  0  0  0  0
  -21.6637   -6.8853   21.4230 O   0  0  0  0  0  0
  -22.3562  -14.5559   20.6712 O   0  0  0  0  0  0
  -24.6028  -31.8779   23.2251 C   0  0  0  0  0  0
  -25.8919  -32.4904   23.8487 C   0  0  1  0  0  0
  -27.2292  -27.4583   20.0883 C   0  0  0  0  0  0
  -25.5808  -33.8710   24.2382 N   0  0  0  0  0  0
  -23.3882  -30.4928   21.5714 C   0  0  2  0  0  0
  -24.8317  -28.9714   20.1287 C   0  0  0  0  0  0
  -22.7357  -29.4558   22.5106 C   0  0  0  0  0  0
  -18.0244  -28.1291   22.8546 C   0  0  0  0  0  0
  -24.1474  -36.7304   23.2633 C   0  0  0  0  0  0
  -25.9152  -30.8300   21.3940 C   0  0  0  0  0  0
  -25.9881  -29.4637   20.7433 C   0  0  0  0  0  0
  -27.1817  -28.7063   20.7528 C   0  0  0  0  0  0
  -26.0590  -26.9881   19.4599 C   0  0  0  0  0  0
  -24.8561  -27.7237   19.4876 C   0  0  0  0  0  0
  -23.5962  -29.8370   20.1788 C   0  0  0  0  0  0
  -25.4103  -36.3180   24.0359 C   0  0  1  0  0  0
  -20.5811  -28.3520   23.1434 C   0  0  2  0  0  0
  -20.6717  -26.9283   22.5478 C   0  0  0  0  0  0
  -19.5658  -26.6297   21.5276 C   0  0  0  0  0  0
  -18.1831  -26.7843   22.1676 C   0  0  0  0  0  0
  -19.1507  -28.8737   23.2945 C   0  0  0  0  0  0
  -18.9411  -30.1363   23.8888 C   0  0  0  0  0  0
  -17.6418  -30.6528   24.0528 C   0  0  0  0  0  0
  -25.9057  -34.9529   23.5203 C   0  0  0  0  0  0
  -16.5308  -29.8997   23.6348 C   0  0  0  0  0  0
  -16.7233  -28.6402   23.0408 C   0  0  0  0  0  0
  -26.4402  -31.6641   25.0749 C   0  0  0  0  0  0
  -25.3634  -31.3769   26.1479 C   0  0  0  0  0  0
  -27.0302  -30.3097   24.6144 C   0  0  0  0  0  0
  -27.6008  -32.4376   25.7458 C   0  0  0  0  0  0
  -27.5604  -37.1815   24.8464 C   0  0  0  0  0  0
  -21.4083  -29.2902   22.3910 N   0  0  0  0  0  0
  -26.4312  -37.3832   23.9413 N   0  0  0  0  0  0
  -24.6513  -31.0813   22.1216 N   0  0  0  0  0  0
  -23.4168  -28.8120   23.3118 O   0  0  0  0  0  0
  -28.3589  -26.6838   19.9359 O   0  0  0  0  0  0
  -26.5630  -34.8954   22.4785 O   0  0  0  0  0  0
  -23.5244  -32.1526   23.7654 O   0  0  0  0  0  0
  -29.8716  -22.8891   21.2435 C   0  0  0  0  0  0
  -29.6744  -21.5980   20.7159 C   0  0  0  0  0  0
  -27.7174  -23.5285   20.3708 C   0  0  0  0  0  0
  -26.5183  -18.4733   19.0119 C   0  0  0  0  0  0
  -28.1043  -16.3393   18.5257 C   0  0  0  0  0  0
  -28.8771  -23.8682   21.0911 C   0  0  0  0  0  0
  -28.5096  -21.2309   19.9927 C   0  0  0  0  0  0
  -27.4854  -22.2369   19.7987 C   0  0  0  0  0  0
  -27.8615  -18.5544   19.4362 C   0  0  0  0  0  0
  -28.5647  -17.3137   19.4367 C   0  0  0  0  0  0
  -26.0286  -17.3167   18.3848 C   0  0  0  0  0  0
  -24.5542  -17.2124   18.0390 C   0  0  0  0  0  0
  -25.1365  -21.3076   20.0176 C   0  0  0  0  0  0
  -26.2791  -21.4422   17.6172 C   0  0  0  0  0  0
  -25.3492  -23.3413   18.7917 C   0  0  0  0  0  0
  -28.6659  -19.8675   19.2569 C   0  0  0  0  0  0
  -28.9746  -25.2126   21.8349 C   0  0  0  0  0  0
  -29.7535  -16.9875   20.3733 C   0  0  0  0  0  0
  -29.2633  -26.5022   21.0196 C   0  0  0  0  0  0
  -26.1240  -22.0247   19.0606 C   0  0  0  0  0  0
  -26.8453  -16.3029   18.0407 N   0  0  0  0  0  0
  -29.7666  -15.5699   20.8385 N   0  0  0  0  0  0
  -31.4840  -12.4935   19.1416 H   0  0  0  0  0  0
  -30.4019  -11.3519   19.8753 H   0  0  0  0  0  0
  -29.7439  -11.7411   17.4885 H   0  0  0  0  0  0
  -29.6532  -13.4575   17.7553 H   0  0  0  0  0  0
  -27.8253  -11.3078   18.8302 H   0  0  0  0  0  0
  -27.3677  -12.6581   17.8302 H   0  0  0  0  0  0
  -27.6839  -14.2130   19.6606 H   0  0  0  0  0  0
  -28.7359  -11.9482   21.3798 H   0  0  0  0  0  0
  -28.4856  -13.5881   21.9145 H   0  0  0  0  0  0
  -25.2667   -9.5720   22.4789 H   0  0  0  0  0  0
  -23.9977   -7.4626   22.7461 H   0  0  0  0  0  0
  -21.0753   -8.8749   19.8987 H   0  0  0  0  0  0
  -22.3535  -10.9711   19.6229 H   0  0  0  0  0  0
  -21.2023   -7.6146   23.9681 H   0  0  0  0  0  0
  -21.1406   -6.0536   25.9039 H   0  0  0  0  0  0
  -22.0658   -2.7611   23.2853 H   0  0  0  0  0  0
  -22.4082  -11.9963   22.4875 H   0  0  0  0  0  0
  -21.1082  -13.1364   22.2685 H   0  0  0  0  0  0
  -24.7313  -15.8423   20.7374 H   0  0  0  0  0  0
  -26.2497  -15.5954   20.0621 H   0  0  0  0  0  0
  -26.6976  -32.5610   23.1264 H   0  0  0  0  0  0
  -24.9937  -33.9978   25.0515 H   0  0  0  0  0  0
  -22.6681  -31.3037   21.4514 H   0  0  0  0  0  0
  -23.3845  -35.9544   23.3346 H   0  0  0  0  0  0
  -24.3541  -36.8894   22.2039 H   0  0  0  0  0  0
  -23.7166  -37.6490   23.6644 H   0  0  0  0  0  0
  -26.0460  -31.5986   20.6340 H   0  0  0  0  0  0
  -26.8019  -30.8730   22.0150 H   0  0  0  0  0  0
  -28.0560  -29.1057   21.2528 H   0  0  0  0  0  0
  -26.0845  -26.0508   18.9375 H   0  0  0  0  0  0
  -23.9709  -27.3522   18.9889 H   0  0  0  0  0  0
  -23.6989  -30.6285   19.4353 H   0  0  0  0  0  0
  -22.7251  -29.2520   19.8772 H   0  0  0  0  0  0
  -25.1333  -36.2111   25.0871 H   0  0  0  0  0  0
  -20.9840  -28.3009   24.1569 H   0  0  0  0  0  0
  -20.5639  -26.2062   23.3597 H   0  0  0  0  0  0
  -21.6575  -26.7330   22.1246 H   0  0  0  0  0  0
  -19.6823  -25.6222   21.1224 H   0  0  0  0  0  0
  -19.6654  -27.3181   20.6858 H   0  0  0  0  0  0
  -17.4162  -26.6643   21.4047 H   0  0  0  0  0  0
  -18.0199  -25.9936   22.8995 H   0  0  0  0  0  0
  -19.7885  -30.7184   24.2228 H   0  0  0  0  0  0
  -17.4979  -31.6246   24.5070 H   0  0  0  0  0  0
  -15.5308  -30.2907   23.7685 H   0  0  0  0  0  0
  -15.8588  -28.0708   22.7189 H   0  0  0  0  0  0
  -24.5747  -30.7247   25.7736 H   0  0  0  0  0  0
  -24.8875  -32.2954   26.4931 H   0  0  0  0  0  0
  -25.7867  -30.8838   27.0227 H   0  0  0  0  0  0
  -26.2896  -29.6826   24.1166 H   0  0  0  0  0  0
  -27.4107  -29.7377   25.4619 H   0  0  0  0  0  0
  -27.8711  -30.4522   23.9337 H   0  0  0  0  0  0
  -27.2673  -33.3677   26.2087 H   0  0  0  0  0  0
  -28.3723  -32.6948   25.0180 H   0  0  0  0  0  0
  -28.0768  -31.8447   26.5302 H   0  0  0  0  0  0
  -28.2679  -38.0055   24.7591 H   0  0  0  0  0  0
  -28.1077  -36.2652   24.6293 H   0  0  0  0  0  0
  -27.2299  -37.1428   25.8839 H   0  0  0  0  0  0
  -20.9210  -29.8616   21.7164 H   0  0  0  0  0  0
  -26.0284  -38.2953   24.1406 H   0  0  0  0  0  0
  -30.7903  -23.0992   21.7877 H   0  0  0  0  0  0
  -30.4706  -20.8827   20.8552 H   0  0  0  0  0  0
  -26.9854  -24.3123   20.3118 H   0  0  0  0  0  0
  -25.8479  -19.3038   19.0227 H   0  0  0  0  0  0
  -28.7178  -15.4784   18.2989 H   0  0  0  0  0  0
  -24.3442  -17.7179   17.1019 H   0  0  0  0  0  0
  -23.9784  -17.7162   18.8191 H   0  0  0  0  0  0
  -24.1773  -16.1895   17.9894 H   0  0  0  0  0  0
  -25.6013  -20.5494   20.6479 H   0  0  0  0  0  0
  -24.2985  -20.8602   19.4744 H   0  0  0  0  0  0
  -24.6977  -22.0131   20.7290 H   0  0  0  0  0  0
  -26.6649  -20.4396   17.5020 H   0  0  0  0  0  0
  -26.9484  -22.0745   17.0328 H   0  0  0  0  0  0
  -25.3303  -21.4361   17.0803 H   0  0  0  0  0  0
  -25.0293  -23.8534   19.7047 H   0  0  0  0  0  0
  -24.4196  -23.1461   18.2464 H   0  0  0  0  0  0
  -25.9440  -24.0262   18.1961 H   0  0  0  0  0  0
  -29.7089  -19.5578   19.3710 H   0  0  0  0  0  0
  -28.6230  -20.0974   18.1905 H   0  0  0  0  0  0
  -29.7575  -25.1182   22.5846 H   0  0  0  0  0  0
  -28.0578  -25.3520   22.3976 H   0  0  0  0  0  0
  -30.7040  -17.2822   19.9237 H   0  0  0  0  0  0
  -29.6225  -17.6081   21.2672 H   0  0  0  0  0  0
  -30.2615  -26.4567   20.5851 H   0  0  0  0  0  0
  -29.3047  -27.3686   21.6857 H   0  0  0  0  0  0
  -28.9280  -15.2686   21.3158 H   0  0  0  0  0  0
  1 25  1  0  0  0
  1 30  2  0  0  0
  1 92  1  0  0  0
  2  3  1  0  0  0
  2 25  1  0  0  0
  2 93  1  0  0  0
  2 94  1  0  0  0
  3  4  1  0  0  0
  3 95  1  0  0  0
  3 96  1  0  0  0
  4  5  1  0  0  0
  4 97  1  0  0  0
  4 98  1  0  0  0
  5  6  1  0  0  0
  5 26  1  0  0  0
  5 99  1  0  0  0
  6 25  1  0  0  0
  6100  1  0  0  0
  6101  1  0  0  0
  7  8  2  0  0  0
  7 26  1  0  0  0
  7 29  1  0  0  0
  8  9  1  0  0  0
  8 22  1  0  0  0
  9 10  1  0  0  0
  9 27  2  0  0  0
 10 11  2  0  0  0
 10 15  1  0  0  0
 11 12  1  0  0  0
 11102  1  0  0  0
 12 13  2  0  0  0
 12103  1  0  0  0
 13 14  1  0  0  0
 13 31  1  0  0  0
 14 15  2  0  0  0
 14104  1  0  0  0
 15105  1  0  0  0
 16 17  2  0  0  0
 16 21  1  0  0  0
 16 31  1  0  0  0
 17 18  1  0  0  0
 17106  1  0  0  0
 18 19  2  0  0  0
 18107  1  0  0  0
 19 20  1  0  0  0
 19 24  1  0  0  0
 20 21  2  0  0  0
 20108  1  0  0  0
 21 23  1  0  0  0
 22 28  1  0  0  0
 22 32  2  0  0  0
 26 27  1  0  0  0
 28109  1  0  0  0
 28110  1  0  0  0
 29111  1  0  0  0
 29112  1  0  0  0
 33 34  1  0  0  0
 33 66  1  0  0  0
 33 70  2  0  0  0
 34 36  1  0  0  0
 34 59  1  0  0  0
 34113  1  0  0  0
 35 44  2  0  0  0
 35 45  1  0  0  0
 35 68  1  0  0  0
 36 56  1  0  0  0
 36114  1  0  0  0
 37 39  1  0  0  0
 37 47  1  0  0  0
 37 66  1  0  0  0
 37115  1  0  0  0
 38 43  2  0  0  0
 38 46  1  0  0  0
 38 47  1  0  0  0
 39 64  1  0  0  0
 39 67  2  0  0  0
 40 52  1  0  0  0
 40 53  2  0  0  0
 40 58  1  0  0  0
 41116  1  0  0  0
 41117  1  0  0  0
 41118  1  0  0  0
 41 48  1  0  0  0
 42 43  1  0  0  0
 42 66  1  0  0  0
 42119  1  0  0  0
 42120  1  0  0  0
 43 44  1  0  0  0
 44121  1  0  0  0
 45 46  2  0  0  0
 45122  1  0  0  0
 46123  1  0  0  0
 47124  1  0  0  0
 47125  1  0  0  0
 48 56  1  0  0  0
 48 65  1  0  0  0
 48126  1  0  0  0
 49 50  1  0  0  0
 49 53  1  0  0  0
 49 64  1  0  0  0
 49127  1  0  0  0
 50 51  1  0  0  0
 50128  1  0  0  0
 50129  1  0  0  0
 51 52  1  0  0  0
 51130  1  0  0  0
 51131  1  0  0  0
 52132  1  0  0  0
 52133  1  0  0  0
 53 54  1  0  0  0
 54 55  2  0  0  0
 54134  1  0  0  0
 55 57  1  0  0  0
 55135  1  0  0  0
 56 69  2  0  0  0
 57 58  2  0  0  0
 57136  1  0  0  0
 58137  1  0  0  0
 59 60  1  0  0  0
 59 61  1  0  0  0
 59 62  1  0  0  0
 60138  1  0  0  0
 60139  1  0  0  0
 60140  1  0  0  0
 61141  1  0  0  0
 61142  1  0  0  0
 61143  1  0  0  0
 62144  1  0  0  0
 62145  1  0  0  0
 62146  1  0  0  0
 63 65  1  0  0  0
 63147  1  0  0  0
 63148  1  0  0  0
 63149  1  0  0  0
 64150  1  0  0  0
 65151  1  0  0  0
 68 89  1  0  0  0
 71 72  2  0  0  0
 71 76  1  0  0  0
 71152  1  0  0  0
 72 77  1  0  0  0
 72153  1  0  0  0
 73 76  2  0  0  0
 73 78  1  0  0  0
 73154  1  0  0  0
 74 79  2  0  0  0
 74 81  1  0  0  0
 74155  1  0  0  0
 75 80  2  0  0  0
 75 91  1  0  0  0
 75156  1  0  0  0
 76 87  1  0  0  0
 77 78  2  0  0  0
 77 86  1  0  0  0
 78 90  1  0  0  0
 79 80  1  0  0  0
 79 86  1  0  0  0
 80 88  1  0  0  0
 81 82  1  0  0  0
 81 91  2  0  0  0
 82157  1  0  0  0
 82158  1  0  0  0
 82159  1  0  0  0
 83160  1  0  0  0
 83161  1  0  0  0
 83162  1  0  0  0
 83 90  1  0  0  0
 84 90  1  0  0  0
 84163  1  0  0  0
 84164  1  0  0  0
 84165  1  0  0  0
 85 90  1  0  0  0
 85166  1  0  0  0
 85167  1  0  0  0
 85168  1  0  0  0
 86169  1  0  0  0
 86170  1  0  0  0
 87 89  1  0  0  0
 87171  1  0  0  0
 87172  1  0  0  0
 88 92  1  0  0  0
 88173  1  0  0  0
 88174  1  0  0  0
 89175  1  0  0  0
 89176  1  0  0  0
 92177  1  0  0  0
M  ISO  4   1 100  68 101  89 101  92 100
M  END
> <chiral flag>
0

> <version>
0

> <s_m_source_file>
/data/baiqing/PycharmProjects/Reinvent-master-3.2/result/LINK_invent/BTK/process_docking_weight1_custom_sum_contain_oxygen_bond_distance_aromatic_linkinvent_7_9_3/rearranged_h_0106.sdf

> <i_m_source_file_index>
66

> <r_mmod_Potential_Energy-OPLS-2005>
97.0708618164062

> <r_mmod_Stretch_Energy-OPLS-2005>
57.8482475280762

> <r_mmod_Bend_Energy-OPLS-2005>
192.608947753906

> <r_mmod_Torsional_Energy-OPLS-2005>
323.250885009766

> <r_mmod_Improper_Torsional_Energy-OPLS-2005>
17.8524856567383

> <r_mmod_Van_der_Waal_Energy-OPLS-2005>
198.770355224609

> <r_mmod_Electrostatic_Energy-OPLS-2005>
-516.345397949219

> <r_mmod_Solvation_Energy-OPLS-2005>
-201.669708251953

> <b_mmod_Minimization_Converged-OPLS-2005>
0

> <r_mmod_RMS_Derivative-OPLS-2005>
12.5129880905151

$$$$
66
                    3D
 Structure written by MMmdl.
169177  0  0  1  0            999 V2000
  -30.7164  -14.7359   20.4522 C   0  0  0  0  0  0
  -30.4327  -12.4552   19.4885 C   0  0  0  0  0  0
  -29.5187  -12.4870   18.2460 C   0  0  0  0  0  0
  -28.0424  -12.3308   18.6547 C   0  0  0  0  0  0
  -27.6466  -13.2491   19.8455 C   0  0  2  0  0  0
  -28.6967  -13.2264   20.9827 C   0  0  0  0  0  0
  -25.2497  -13.8288   20.5701 C   0  0  0  0  0  0
  -24.1785  -13.0481   20.9212 C   0  0  0  0  0  0
  -24.6441  -11.6969   20.8794 C   0  0  0  0  0  0
  -23.9160  -10.4316   21.0458 C   0  0  0  0  0  0
  -24.3670   -9.4195   21.9223 C   0  0  0  0  0  0
  -23.6292   -8.2245   22.0800 C   0  0  0  0  0  0
  -22.4245   -8.0344   21.3607 C   0  0  0  0  0  0
  -21.9935   -9.0329   20.4687 C   0  0  0  0  0  0
  -22.7338  -10.2178   20.3100 C   0  0  0  0  0  0
  -21.6882   -6.0742   22.5305 C   0  0  0  0  0  0
  -21.3967   -6.5617   23.8249 C   0  0  0  0  0  0
  -21.3658   -5.6790   24.9216 C   0  0  0  0  0  0
  -21.6066   -4.3061   24.7279 C   0  0  0  0  0  0
  -21.8817   -3.8131   23.4393 C   0  0  0  0  0  0
  -21.9136   -4.6944   22.3441 C   0  0  0  0  0  0
  -22.7797  -13.5266   21.1864 C   0  0  0  0  0  0
  -22.1649   -4.2111   21.1035 F   0  0  0  0  0  0
  -21.5635   -3.4560   25.7796 F   0  0  0  0  0  0
  -30.0107  -13.5479   20.3987 N   0  0  0  0  0  0
  -26.2968  -12.9541   20.3287 N   0  0  0  0  0  0
  -25.9369  -11.6659   20.5738 N   0  0  0  0  0  0
  -22.0407  -12.8258   22.0417 N   0  0  0  0  0  0
  -25.4128  -15.2033   20.4194 N   0  0  0  0  0  0
  -31.8926  -14.7555   20.0982 O   0  0  0  0  0  0
  -21.6664   -6.8904   21.4281 O   0  0  0  0  0  0
  -22.3467  -14.5589   20.6757 O   0  0  0  0  0  0
  -24.6295  -31.8537   23.1947 C   0  0  0  0  0  0
  -25.9153  -32.4730   23.8271 C   0  0  1  0  0  0
  -27.2052  -27.2661   20.1539 C   0  0  0  0  0  0
  -25.5979  -33.8532   24.2209 N   0  0  0  0  0  0
  -23.4204  -30.4800   21.5332 C   0  0  2  0  0  0
  -24.8731  -28.9291   20.1050 C   0  0  0  0  0  0
  -22.7463  -29.4635   22.4852 C   0  0  0  0  0  0
  -18.0315  -28.1415   22.8508 C   0  0  0  0  0  0
  -24.1486  -36.7241   23.2631 C   0  0  0  0  0  0
  -25.9644  -30.7735   21.3778 C   0  0  0  0  0  0
  -26.0408  -29.3961   20.7281 C   0  0  0  0  0  0
  -27.2135  -28.5797   20.7422 C   0  0  0  0  0  0
  -26.0255  -26.8821   19.4772 C   0  0  0  0  0  0
  -24.8726  -27.6795   19.4687 C   0  0  0  0  0  0
  -23.6420  -29.8158   20.1491 C   0  0  0  0  0  0
  -25.4113  -36.3008   24.0301 C   0  0  1  0  0  0
  -20.5883  -28.3731   23.1286 C   0  0  2  0  0  0
  -20.6778  -26.9447   22.5444 C   0  0  0  0  0  0
  -19.5739  -26.6404   21.5261 C   0  0  0  0  0  0
  -18.1928  -26.7982   22.1649 C   0  0  0  0  0  0
  -19.1567  -28.8902   23.2910 C   0  0  0  0  0  0
  -18.9499  -30.1495   23.8915 C   0  0  0  0  0  0
  -17.6499  -30.6615   24.0590 C   0  0  0  0  0  0
  -25.9041  -34.9401   23.5024 C   0  0  0  0  0  0
  -16.5373  -29.9117   23.6375 C   0  0  0  0  0  0
  -16.7325  -28.6554   23.0394 C   0  0  0  0  0  0
  -26.4551  -31.6525   25.0631 C   0  0  0  0  0  0
  -25.3797  -31.3779   26.1386 C   0  0  0  0  0  0
  -27.0397  -30.2901   24.6171 C   0  0  0  0  0  0
  -27.6059  -32.4271   25.7508 C   0  0  0  0  0  0
  -27.5547  -37.1768   24.8456 C   0  0  0  0  0  0
  -21.4164  -29.3068   22.3636 N   0  0  0  0  0  0
  -26.4244  -37.3731   23.9395 N   0  0  0  0  0  0
  -24.6890  -31.0508   22.0926 N   0  0  0  0  0  0
  -23.4199  -28.8245   23.2975 O   0  0  0  0  0  0
  -28.2795  -26.3521   20.2093 O   0  0  0  0  0  0
  -26.5626  -34.8906   22.4580 O   0  0  0  0  0  0
  -23.5462  -32.1478   23.7202 O   0  0  0  0  0  0
  -29.1588  -19.6333   20.2279 C   0  0  0  0  0  0
  -30.3348  -20.8551   21.6412 C   0  0  0  0  0  0
  -30.1599  -18.7713   20.6926 C   0  0  0  0  0  0
  -30.8999  -19.6009   21.6128 C   0  0  0  0  0  0
  -30.7875  -19.5494   24.6538 C   0  0  0  0  0  0
  -33.4137  -19.7099   21.6941 C   0  0  0  0  0  0
  -30.3152  -23.9818   20.8582 C   0  0  0  0  0  0
  -29.1955  -23.6755   18.6503 C   0  0  0  0  0  0
  -30.6037  -17.3064   20.1955 C   0  0  0  0  0  0
  -32.0823  -19.8440   23.8706 C   0  0  0  0  0  0
  -28.3968  -22.1919   20.5823 C   0  0  0  0  0  0
  -27.9757  -24.9139   20.5572 C   0  0  0  0  0  0
  -32.1367  -19.2430   22.4280 C   0  0  1  0  0  0
  -28.9665  -23.6804   20.1802 C   0  0  0  0  0  0
  -29.2826  -20.9525   20.7563 N   0  0  0  0  0  0
  -30.0638  -15.9458   20.6525 N   0  0  0  0  0  0
  -31.4708  -12.5411   19.1681 H   0  0  0  0  0  0
  -30.3722  -11.4961   20.0006 H   0  0  0  0  0  0
  -29.8123  -11.6813   17.5661 H   0  0  0  0  0  0
  -29.6492  -13.4261   17.6998 H   0  0  0  0  0  0
  -27.8852  -11.2829   18.9213 H   0  0  0  0  0  0
  -27.4019  -12.5391   17.7976 H   0  0  0  0  0  0
  -27.6345  -14.2664   19.4485 H   0  0  0  0  0  0
  -28.7181  -12.2546   21.4728 H   0  0  0  0  0  0
  -28.4316  -13.9515   21.7514 H   0  0  0  0  0  0
  -25.2840   -9.5633   22.4779 H   0  0  0  0  0  0
  -24.0005   -7.4627   22.7522 H   0  0  0  0  0  0
  -21.0859   -8.8907   19.8980 H   0  0  0  0  0  0
  -22.3888  -10.9714   19.6162 H   0  0  0  0  0  0
  -21.1996   -7.6122   23.9745 H   0  0  0  0  0  0
  -21.1477   -6.0533   25.9135 H   0  0  0  0  0  0
  -22.0569   -2.7571   23.2962 H   0  0  0  0  0  0
  -22.4000  -11.9912   22.4850 H   0  0  0  0  0  0
  -21.1014  -13.1287   22.2629 H   0  0  0  0  0  0
  -24.6590  -15.8591   20.6086 H   0  0  0  0  0  0
  -26.2703  -15.6533   20.1235 H   0  0  0  0  0  0
  -26.7211  -32.5442   23.1006 H   0  0  0  0  0  0
  -25.0207  -33.9596   25.0442 H   0  0  0  0  0  0
  -22.7234  -31.3084   21.3897 H   0  0  0  0  0  0
  -23.3682  -35.9615   23.3321 H   0  0  0  0  0  0
  -24.3575  -36.8845   22.2023 H   0  0  0  0  0  0
  -23.7300  -37.6476   23.6687 H   0  0  0  0  0  0
  -26.0931  -31.5302   20.6006 H   0  0  0  0  0  0
  -26.8390  -30.8179   22.0156 H   0  0  0  0  0  0
  -28.1018  -28.9335   21.2487 H   0  0  0  0  0  0
  -25.9771  -25.9346   18.9591 H   0  0  0  0  0  0
  -23.9795  -27.3163   18.9722 H   0  0  0  0  0  0
  -23.7634  -30.5942   19.3946 H   0  0  0  0  0  0
  -22.7556  -29.2519   19.8510 H   0  0  0  0  0  0
  -25.1250  -36.1805   25.0779 H   0  0  0  0  0  0
  -21.0025  -28.3366   24.1378 H   0  0  0  0  0  0
  -20.5634  -26.2393   23.3677 H   0  0  0  0  0  0
  -21.6654  -26.7435   22.1241 H   0  0  0  0  0  0
  -19.6815  -25.6325   21.1270 H   0  0  0  0  0  0
  -19.6620  -27.3253   20.6829 H   0  0  0  0  0  0
  -17.4190  -26.6852   21.4016 H   0  0  0  0  0  0
  -18.0208  -26.0113   22.9020 H   0  0  0  0  0  0
  -19.8001  -30.7331   24.2212 H   0  0  0  0  0  0
  -17.5095  -31.6275   24.5208 H   0  0  0  0  0  0
  -15.5379  -30.3018   23.7684 H   0  0  0  0  0  0
  -15.8759  -28.0848   22.7071 H   0  0  0  0  0  0
  -24.6030  -30.6966   25.7930 H   0  0  0  0  0  0
  -24.8903  -32.2964   26.4606 H   0  0  0  0  0  0
  -25.8139  -30.9263   27.0294 H   0  0  0  0  0  0
  -26.3003  -29.6657   24.1135 H   0  0  0  0  0  0
  -27.3993  -29.7151   25.4714 H   0  0  0  0  0  0
  -27.8934  -30.4096   23.9491 H   0  0  0  0  0  0
  -27.2627  -33.3624   26.1957 H   0  0  0  0  0  0
  -28.4059  -32.6704   25.0506 H   0  0  0  0  0  0
  -28.0544  -31.8448   26.5580 H   0  0  0  0  0  0
  -28.2533  -38.0108   24.7476 H   0  0  0  0  0  0
  -28.1029  -36.2571   24.6250 H   0  0  0  0  0  0
  -27.2245  -37.1441   25.8871 H   0  0  0  0  0  0
  -20.9360  -29.8838   21.6863 H   0  0  0  0  0  0
  -26.0046  -38.2747   24.1469 H   0  0  0  0  0  0
  -28.3724  -19.4250   19.5067 H   0  0  0  0  0  0
  -30.6166  -21.7126   22.2391 H   0  0  0  0  0  0
  -30.4449  -20.4220   25.2132 H   0  0  0  0  0  0
  -30.9753  -18.7556   25.3787 H   0  0  0  0  0  0
  -29.9545  -19.2463   24.0188 H   0  0  0  0  0  0
  -33.5305  -19.2348   20.7184 H   0  0  0  0  0  0
  -34.3063  -19.4860   22.2745 H   0  0  0  0  0  0
  -33.4050  -20.7886   21.5261 H   0  0  0  0  0  0
  -31.0739  -23.2400   20.6082 H   0  0  0  0  0  0
  -30.1978  -24.0121   21.9422 H   0  0  0  0  0  0
  -30.7245  -24.9483   20.5585 H   0  0  0  0  0  0
  -29.9868  -22.9860   18.3414 H   0  0  0  0  0  0
  -29.4937  -24.6609   18.2923 H   0  0  0  0  0  0
  -28.2885  -23.3895   18.1213 H   0  0  0  0  0  0
  -31.6864  -17.2872   20.3457 H   0  0  0  0  0  0
  -30.5090  -17.3249   19.1091 H   0  0  0  0  0  0
  -32.9264  -19.5078   24.4762 H   0  0  0  0  0  0
  -32.2074  -20.9271   23.8220 H   0  0  0  0  0  0
  -27.6159  -21.9202   19.8683 H   0  0  0  0  0  0
  -27.8486  -22.2940   21.5190 H   0  0  0  0  0  0
  -27.8955  -24.9102   21.6457 H   0  0  0  0  0  0
  -26.9723  -24.6238   20.2520 H   0  0  0  0  0  0
  -32.1789  -18.1541   22.5009 H   0  0  0  0  0  0
  -29.0820  -15.8914   20.8738 H   0  0  0  0  0  0
  1 25  1  0  0  0
  1 30  2  0  0  0
  1 86  1  0  0  0
  2  3  1  0  0  0
  2 25  1  0  0  0
  2 87  1  0  0  0
  2 88  1  0  0  0
  3  4  1  0  0  0
  3 89  1  0  0  0
  3 90  1  0  0  0
  4  5  1  0  0  0
  4 91  1  0  0  0
  4 92  1  0  0  0
  5  6  1  0  0  0
  5 26  1  0  0  0
  5 93  1  0  0  0
  6 25  1  0  0  0
  6 94  1  0  0  0
  6 95  1  0  0  0
  7  8  2  0  0  0
  7 26  1  0  0  0
  7 29  1  0  0  0
  8  9  1  0  0  0
  8 22  1  0  0  0
  9 10  1  0  0  0
  9 27  2  0  0  0
 10 11  2  0  0  0
 10 15  1  0  0  0
 11 12  1  0  0  0
 11 96  1  0  0  0
 12 13  2  0  0  0
 12 97  1  0  0  0
 13 14  1  0  0  0
 13 31  1  0  0  0
 14 15  2  0  0  0
 14 98  1  0  0  0
 15 99  1  0  0  0
 16 17  2  0  0  0
 16 21  1  0  0  0
 16 31  1  0  0  0
 17 18  1  0  0  0
 17100  1  0  0  0
 18 19  2  0  0  0
 18101  1  0  0  0
 19 20  1  0  0  0
 19 24  1  0  0  0
 20 21  2  0  0  0
 20102  1  0  0  0
 21 23  1  0  0  0
 22 28  1  0  0  0
 22 32  2  0  0  0
 26 27  1  0  0  0
 28103  1  0  0  0
 28104  1  0  0  0
 29105  1  0  0  0
 29106  1  0  0  0
 33 34  1  0  0  0
 33 66  1  0  0  0
 33 70  2  0  0  0
 34 36  1  0  0  0
 34 59  1  0  0  0
 34107  1  0  0  0
 35 44  2  0  0  0
 35 45  1  0  0  0
 35 68  1  0  0  0
 36 56  1  0  0  0
 36108  1  0  0  0
 37 39  1  0  0  0
 37 47  1  0  0  0
 37 66  1  0  0  0
 37109  1  0  0  0
 38 43  2  0  0  0
 38 46  1  0  0  0
 38 47  1  0  0  0
 39 64  1  0  0  0
 39 67  2  0  0  0
 40 52  1  0  0  0
 40 53  2  0  0  0
 40 58  1  0  0  0
 41110  1  0  0  0
 41111  1  0  0  0
 41112  1  0  0  0
 41 48  1  0  0  0
 42 43  1  0  0  0
 42 66  1  0  0  0
 42113  1  0  0  0
 42114  1  0  0  0
 43 44  1  0  0  0
 44115  1  0  0  0
 45 46  2  0  0  0
 45116  1  0  0  0
 46117  1  0  0  0
 47118  1  0  0  0
 47119  1  0  0  0
 48 56  1  0  0  0
 48 65  1  0  0  0
 48120  1  0  0  0
 49 50  1  0  0  0
 49 53  1  0  0  0
 49 64  1  0  0  0
 49121  1  0  0  0
 50 51  1  0  0  0
 50122  1  0  0  0
 50123  1  0  0  0
 51 52  1  0  0  0
 51124  1  0  0  0
 51125  1  0  0  0
 52126  1  0  0  0
 52127  1  0  0  0
 53 54  1  0  0  0
 54 55  2  0  0  0
 54128  1  0  0  0
 55 57  1  0  0  0
 55129  1  0  0  0
 56 69  2  0  0  0
 57 58  2  0  0  0
 57130  1  0  0  0
 58131  1  0  0  0
 59 60  1  0  0  0
 59 61  1  0  0  0
 59 62  1  0  0  0
 60132  1  0  0  0
 60133  1  0  0  0
 60134  1  0  0  0
 61135  1  0  0  0
 61136  1  0  0  0
 61137  1  0  0  0
 62138  1  0  0  0
 62139  1  0  0  0
 62140  1  0  0  0
 63 65  1  0  0  0
 63141  1  0  0  0
 63142  1  0  0  0
 63143  1  0  0  0
 64144  1  0  0  0
 65145  1  0  0  0
 68 82  1  0  0  0
 71 73  2  0  0  0
 71 85  1  0  0  0
 71146  1  0  0  0
 72 74  2  0  0  0
 72 85  1  0  0  0
 72147  1  0  0  0
 73 74  1  0  0  0
 73 79  1  0  0  0
 74 83  1  0  0  0
 75 80  1  0  0  0
 75148  1  0  0  0
 75149  1  0  0  0
 75150  1  0  0  0
 76151  1  0  0  0
 76152  1  0  0  0
 76153  1  0  0  0
 76 83  1  0  0  0
 77154  1  0  0  0
 77155  1  0  0  0
 77156  1  0  0  0
 77 84  1  0  0  0
 78 84  1  0  0  0
 78157  1  0  0  0
 78158  1  0  0  0
 78159  1  0  0  0
 79 86  1  0  0  0
 79160  1  0  0  0
 79161  1  0  0  0
 80 83  1  0  0  0
 80162  1  0  0  0
 80163  1  0  0  0
 81 84  1  0  0  0
 81 85  1  0  0  0
 81164  1  0  0  0
 81165  1  0  0  0
 82 84  1  0  0  0
 82166  1  0  0  0
 82167  1  0  0  0
 83168  1  0  0  0
 86169  1  0  0  0
M  ISO  4   1 100  68 101  82 101  86 100
M  END
> <chiral flag>
0

> <version>
0

> <s_m_source_file>
/data/baiqing/PycharmProjects/Reinvent-master-3.2/result/LINK_invent/BTK/process_docking_weight1_custom_sum_contain_oxygen_bond_distance_aromatic_linkinvent_7_9_3/rearranged_h_0106.sdf

> <i_m_source_file_index>
67

> <r_mmod_Potential_Energy-OPLS-2005>
177.829818725586

> <r_mmod_Stretch_Energy-OPLS-2005>
133.758972167969

> <r_mmod_Bend_Energy-OPLS-2005>
196.491897583008

> <r_mmod_Torsional_Energy-OPLS-2005>
254.3369140625

> <r_mmod_Improper_Torsional_Energy-OPLS-2005>
8.49115562438965

> <r_mmod_Van_der_Waal_Energy-OPLS-2005>
118.821083068848

> <r_mmod_Electrostatic_Energy-OPLS-2005>
-423.396331787109

> <r_mmod_Solvation_Energy-OPLS-2005>
-199.892486572266

> <b_mmod_Minimization_Converged-OPLS-2005>
0

> <r_mmod_RMS_Derivative-OPLS-2005>
10.4626340866089

$$$$
68
                    3D
 Structure written by MMmdl.
149157  0  0  1  0            999 V2000
  -30.4739  -15.2030   20.3816 C   0  0  0  0  0  0
  -30.4364  -12.7678   19.5181 C   0  0  0  0  0  0
  -29.5285  -12.5653   18.2795 C   0  0  0  0  0  0
  -28.0753  -12.2999   18.7091 C   0  0  0  0  0  0
  -27.6127  -13.2714   19.8237 C   0  0  2  0  0  0
  -28.6499  -13.4240   20.9575 C   0  0  0  0  0  0
  -25.2388  -13.8248   20.5750 C   0  0  0  0  0  0
  -24.1740  -13.0437   20.9260 C   0  0  0  0  0  0
  -24.6396  -11.6935   20.8770 C   0  0  0  0  0  0
  -23.9093  -10.4289   21.0412 C   0  0  0  0  0  0
  -24.3637   -9.4204   21.9192 C   0  0  0  0  0  0
  -23.6305   -8.2243   22.0762 C   0  0  0  0  0  0
  -22.4286   -8.0284   21.3549 C   0  0  0  0  0  0
  -21.9926   -9.0259   20.4651 C   0  0  0  0  0  0
  -22.7265  -10.2135   20.3060 C   0  0  0  0  0  0
  -21.6850   -6.0742   22.5282 C   0  0  0  0  0  0
  -21.4013   -6.5643   23.8216 C   0  0  0  0  0  0
  -21.3659   -5.6793   24.9174 C   0  0  0  0  0  0
  -21.6043   -4.3055   24.7220 C   0  0  0  0  0  0
  -21.8819   -3.8151   23.4338 C   0  0  0  0  0  0
  -21.9191   -4.6972   22.3398 C   0  0  0  0  0  0
  -22.7756  -13.5188   21.1906 C   0  0  0  0  0  0
  -22.1659   -4.2160   21.0975 F   0  0  0  0  0  0
  -21.5628   -3.4539   25.7729 F   0  0  0  0  0  0
  -29.8902  -13.9107   20.3334 N   0  0  0  0  0  0
  -26.2816  -12.9518   20.3225 N   0  0  0  0  0  0
  -25.9330  -11.6626   20.5731 N   0  0  0  0  0  0
  -22.0411  -12.8169   22.0459 N   0  0  0  0  0  0
  -25.4024  -15.1981   20.4183 N   0  0  0  0  0  0
  -31.6927  -15.1993   20.1633 O   0  0  0  0  0  0
  -21.6642   -6.8890   21.4244 O   0  0  0  0  0  0
  -22.3432  -14.5488   20.6744 O   0  0  0  0  0  0
  -24.6605  -31.8274   23.1745 C   0  0  0  0  0  0
  -25.9296  -32.4609   23.8197 C   0  0  1  0  0  0
  -27.2171  -26.9608   20.1759 C   0  0  0  0  0  0
  -25.5979  -33.8422   24.2105 N   0  0  0  0  0  0
  -23.4740  -30.4423   21.5229 C   0  0  2  0  0  0
  -24.9266  -28.8398   20.1114 C   0  0  0  0  0  0
  -22.7662  -29.4467   22.4796 C   0  0  0  0  0  0
  -18.0325  -28.1414   22.8472 C   0  0  0  0  0  0
  -24.1489  -36.7214   23.2651 C   0  0  0  0  0  0
  -26.0431  -30.6450   21.4002 C   0  0  0  0  0  0
  -26.1115  -29.2396   20.7428 C   0  0  0  0  0  0
  -27.2529  -28.3211   20.7520 C   0  0  0  0  0  0
  -26.0028  -26.7127   19.4935 C   0  0  0  0  0  0
  -24.8967  -27.5958   19.4665 C   0  0  0  0  0  0
  -23.7119  -29.7630   20.1475 C   0  0  0  0  0  0
  -25.4129  -36.2981   24.0305 C   0  0  1  0  0  0
  -20.5947  -28.3754   23.1196 C   0  0  2  0  0  0
  -20.6802  -26.9439   22.5403 C   0  0  0  0  0  0
  -19.5771  -26.6384   21.5218 C   0  0  0  0  0  0
  -18.1954  -26.7949   22.1622 C   0  0  0  0  0  0
  -19.1587  -28.8904   23.2822 C   0  0  0  0  0  0
  -18.9498  -30.1494   23.8855 C   0  0  0  0  0  0
  -17.6492  -30.6603   24.0559 C   0  0  0  0  0  0
  -25.9090  -34.9360   23.5023 C   0  0  0  0  0  0
  -16.5383  -29.9091   23.6345 C   0  0  0  0  0  0
  -16.7303  -28.6511   23.0360 C   0  0  0  0  0  0
  -26.4558  -31.6538   25.0707 C   0  0  0  0  0  0
  -25.3690  -31.3775   26.1366 C   0  0  0  0  0  0
  -27.0460  -30.2916   24.6411 C   0  0  0  0  0  0
  -27.6055  -32.4346   25.7505 C   0  0  0  0  0  0
  -27.5570  -37.1769   24.8469 C   0  0  0  0  0  0
  -21.4336  -29.3052   22.3549 N   0  0  0  0  0  0
  -26.4277  -37.3718   23.9411 N   0  0  0  0  0  0
  -24.7473  -30.9971   22.0863 N   0  0  0  0  0  0
  -23.4226  -28.8028   23.3019 O   0  0  0  0  0  0
  -28.2041  -25.8493   20.2584 O   0  0  0  0  0  0
  -26.5704  -34.8892   22.4620 O   0  0  0  0  0  0
  -23.5676  -32.1221   23.6854 O   0  0  0  0  0  0
  -29.3070  -22.1046   21.2670 C   0  0  0  0  0  0
  -29.7153  -20.6812   21.3575 C   0  0  0  0  0  0
  -28.5545  -22.7077   20.1815 C   0  0  0  0  0  0
  -29.4160  -19.6268   20.4025 C   0  0  0  0  0  0
  -28.2958  -21.5790   19.2738 C   0  0  0  0  0  0
  -27.4490  -21.8321   18.0409 C   0  0  0  0  0  0
  -27.8063  -24.2827   20.0447 C   0  0  0  0  0  0
  -30.1685  -18.0590   20.3336 C   0  0  0  0  0  0
  -28.7048  -20.2140   19.3630 N   0  0  0  0  0  0
  -29.7375  -16.4745   20.4668 N   0  0  0  0  0  0
  -31.4578  -12.9598   19.1871 H   0  0  0  0  0  0
  -30.4894  -11.8554   20.1142 H   0  0  0  0  0  0
  -29.8965  -11.7405   17.6681 H   0  0  0  0  0  0
  -29.5665  -13.4557   17.6500 H   0  0  0  0  0  0
  -28.0230  -11.2737   19.0752 H   0  0  0  0  0  0
  -27.4047  -12.3517   17.8504 H   0  0  0  0  0  0
  -27.5344  -14.2434   19.3349 H   0  0  0  0  0  0
  -28.8037  -12.4817   21.4857 H   0  0  0  0  0  0
  -28.3008  -14.1449   21.6983 H   0  0  0  0  0  0
  -25.2785   -9.5672   22.4771 H   0  0  0  0  0  0
  -24.0008   -7.4628   22.7482 H   0  0  0  0  0  0
  -21.0861   -8.8782   19.8953 H   0  0  0  0  0  0
  -22.3731  -10.9674   19.6166 H   0  0  0  0  0  0
  -21.2008   -7.6151   23.9723 H   0  0  0  0  0  0
  -21.1481   -6.0521   25.9079 H   0  0  0  0  0  0
  -22.0599   -2.7615   23.2831 H   0  0  0  0  0  0
  -22.4027  -11.9820   22.4828 H   0  0  0  0  0  0
  -21.1031  -13.1188   22.2682 H   0  0  0  0  0  0
  -24.6313  -15.8478   20.5310 H   0  0  0  0  0  0
  -26.2434  -15.6405   20.0723 H   0  0  0  0  0  0
  -26.7364  -32.5154   23.0913 H   0  0  0  0  0  0
  -25.0072  -33.9507   25.0218 H   0  0  0  0  0  0
  -22.7849  -31.2730   21.3555 H   0  0  0  0  0  0
  -23.3765  -35.9532   23.3280 H   0  0  0  0  0  0
  -24.3577  -36.8884   22.2075 H   0  0  0  0  0  0
  -23.7219  -37.6388   23.6714 H   0  0  0  0  0  0
  -26.2199  -31.3877   20.6215 H   0  0  0  0  0  0
  -26.9055  -30.7013   22.0526 H   0  0  0  0  0  0
  -28.1469  -28.6250   21.2771 H   0  0  0  0  0  0
  -25.8596  -25.7665   18.9950 H   0  0  0  0  0  0
  -23.9968  -27.2839   18.9541 H   0  0  0  0  0  0
  -23.8655  -30.5334   19.3911 H   0  0  0  0  0  0
  -22.8222  -29.2172   19.8291 H   0  0  0  0  0  0
  -25.1324  -36.1794   25.0796 H   0  0  0  0  0  0
  -21.0035  -28.3349   24.1316 H   0  0  0  0  0  0
  -20.5698  -26.2371   23.3640 H   0  0  0  0  0  0
  -21.6663  -26.7428   22.1197 H   0  0  0  0  0  0
  -19.6934  -25.6286   21.1264 H   0  0  0  0  0  0
  -19.6702  -27.3179   20.6733 H   0  0  0  0  0  0
  -17.4228  -26.6698   21.4020 H   0  0  0  0  0  0
  -18.0340  -26.0106   22.9028 H   0  0  0  0  0  0
  -19.7972  -30.7322   24.2203 H   0  0  0  0  0  0
  -17.5042  -31.6275   24.5175 H   0  0  0  0  0  0
  -15.5379  -30.2980   23.7697 H   0  0  0  0  0  0
  -15.8699  -28.0814   22.7100 H   0  0  0  0  0  0
  -24.5890  -30.7105   25.7679 H   0  0  0  0  0  0
  -24.8860  -32.2971   26.4681 H   0  0  0  0  0  0
  -25.7934  -30.9019   27.0215 H   0  0  0  0  0  0
  -26.3125  -29.6596   24.1395 H   0  0  0  0  0  0
  -27.3994  -29.7275   25.5052 H   0  0  0  0  0  0
  -27.9058  -30.4128   23.9820 H   0  0  0  0  0  0
  -27.2630  -33.3700   26.1946 H   0  0  0  0  0  0
  -28.3936  -32.6821   25.0378 H   0  0  0  0  0  0
  -28.0639  -31.8555   26.5533 H   0  0  0  0  0  0
  -28.2573  -38.0081   24.7527 H   0  0  0  0  0  0
  -28.1077  -36.2609   24.6277 H   0  0  0  0  0  0
  -27.2290  -37.1390   25.8873 H   0  0  0  0  0  0
  -20.9588  -29.8749   21.6684 H   0  0  0  0  0  0
  -26.0125  -38.2777   24.1423 H   0  0  0  0  0  0
  -29.5856  -22.7505   22.0877 H   0  0  0  0  0  0
  -30.3228  -20.4046   22.2088 H   0  0  0  0  0  0
  -26.4705  -22.2226   18.3206 H   0  0  0  0  0  0
  -27.2853  -20.9189   17.4673 H   0  0  0  0  0  0
  -27.9374  -22.5518   17.3843 H   0  0  0  0  0  0
  -26.8977  -24.1668   20.6363 H   0  0  0  0  0  0
  -27.4619  -24.2866   19.0137 H   0  0  0  0  0  0
  -30.9739  -18.1456   21.0635 H   0  0  0  0  0  0
  -30.6945  -18.0877   19.3790 H   0  0  0  0  0  0
  -28.7446  -16.3511   20.5949 H   0  0  0  0  0  0
  1 25  1  0  0  0
  1 30  2  0  0  0
  1 80  1  0  0  0
  2  3  1  0  0  0
  2 25  1  0  0  0
  2 81  1  0  0  0
  2 82  1  0  0  0
  3  4  1  0  0  0
  3 83  1  0  0  0
  3 84  1  0  0  0
  4  5  1  0  0  0
  4 85  1  0  0  0
  4 86  1  0  0  0
  5  6  1  0  0  0
  5 26  1  0  0  0
  5 87  1  0  0  0
  6 25  1  0  0  0
  6 88  1  0  0  0
  6 89  1  0  0  0
  7  8  2  0  0  0
  7 26  1  0  0  0
  7 29  1  0  0  0
  8  9  1  0  0  0
  8 22  1  0  0  0
  9 10  1  0  0  0
  9 27  2  0  0  0
 10 11  2  0  0  0
 10 15  1  0  0  0
 11 12  1  0  0  0
 11 90  1  0  0  0
 12 13  2  0  0  0
 12 91  1  0  0  0
 13 14  1  0  0  0
 13 31  1  0  0  0
 14 15  2  0  0  0
 14 92  1  0  0  0
 15 93  1  0  0  0
 16 17  2  0  0  0
 16 21  1  0  0  0
 16 31  1  0  0  0
 17 18  1  0  0  0
 17 94  1  0  0  0
 18 19  2  0  0  0
 18 95  1  0  0  0
 19 20  1  0  0  0
 19 24  1  0  0  0
 20 21  2  0  0  0
 20 96  1  0  0  0
 21 23  1  0  0  0
 22 28  1  0  0  0
 22 32  2  0  0  0
 26 27  1  0  0  0
 28 97  1  0  0  0
 28 98  1  0  0  0
 29 99  1  0  0  0
 29100  1  0  0  0
 33 34  1  0  0  0
 33 66  1  0  0  0
 33 70  2  0  0  0
 34 36  1  0  0  0
 34 59  1  0  0  0
 34101  1  0  0  0
 35 44  2  0  0  0
 35 45  1  0  0  0
 35 68  1  0  0  0
 36 56  1  0  0  0
 36102  1  0  0  0
 37 39  1  0  0  0
 37 47  1  0  0  0
 37 66  1  0  0  0
 37103  1  0  0  0
 38 43  2  0  0  0
 38 46  1  0  0  0
 38 47  1  0  0  0
 39 64  1  0  0  0
 39 67  2  0  0  0
 40 52  1  0  0  0
 40 53  2  0  0  0
 40 58  1  0  0  0
 41104  1  0  0  0
 41105  1  0  0  0
 41106  1  0  0  0
 41 48  1  0  0  0
 42 43  1  0  0  0
 42 66  1  0  0  0
 42107  1  0  0  0
 42108  1  0  0  0
 43 44  1  0  0  0
 44109  1  0  0  0
 45 46  2  0  0  0
 45110  1  0  0  0
 46111  1  0  0  0
 47112  1  0  0  0
 47113  1  0  0  0
 48 56  1  0  0  0
 48 65  1  0  0  0
 48114  1  0  0  0
 49 50  1  0  0  0
 49 53  1  0  0  0
 49 64  1  0  0  0
 49115  1  0  0  0
 50 51  1  0  0  0
 50116  1  0  0  0
 50117  1  0  0  0
 51 52  1  0  0  0
 51118  1  0  0  0
 51119  1  0  0  0
 52120  1  0  0  0
 52121  1  0  0  0
 53 54  1  0  0  0
 54 55  2  0  0  0
 54122  1  0  0  0
 55 57  1  0  0  0
 55123  1  0  0  0
 56 69  2  0  0  0
 57 58  2  0  0  0
 57124  1  0  0  0
 58125  1  0  0  0
 59 60  1  0  0  0
 59 61  1  0  0  0
 59 62  1  0  0  0
 60126  1  0  0  0
 60127  1  0  0  0
 60128  1  0  0  0
 61129  1  0  0  0
 61130  1  0  0  0
 61131  1  0  0  0
 62132  1  0  0  0
 62133  1  0  0  0
 62134  1  0  0  0
 63 65  1  0  0  0
 63135  1  0  0  0
 63136  1  0  0  0
 63137  1  0  0  0
 64138  1  0  0  0
 65139  1  0  0  0
 68 77  1  0  0  0
 71 72  2  0  0  0
 71 73  1  0  0  0
 71140  1  0  0  0
 72 74  1  0  0  0
 72141  1  0  0  0
 73 75  2  0  0  0
 73 77  1  0  0  0
 74 78  1  0  0  0
 74 79  2  0  0  0
 75 76  1  0  0  0
 75 79  1  0  0  0
 76142  1  0  0  0
 76143  1  0  0  0
 76144  1  0  0  0
 77145  1  0  0  0
 77146  1  0  0  0
 78 80  1  0  0  0
 78147  1  0  0  0
 78148  1  0  0  0
 80149  1  0  0  0
M  ISO  4   1 100  68 101  77 101  80 100
M  END
> <chiral flag>
0

> <version>
0

> <s_m_source_file>
/data/baiqing/PycharmProjects/Reinvent-master-3.2/result/LINK_invent/BTK/process_docking_weight1_custom_sum_contain_oxygen_bond_distance_aromatic_linkinvent_7_9_3/rearranged_h_0106.sdf

> <i_m_source_file_index>
68

> <r_mmod_Potential_Energy-OPLS-2005>
842.110778808594

> <r_mmod_Stretch_Energy-OPLS-2005>
464.574462890625

> <r_mmod_Bend_Energy-OPLS-2005>
427.154541015625

> <r_mmod_Torsional_Energy-OPLS-2005>
220.413452148438

> <r_mmod_Improper_Torsional_Energy-OPLS-2005>
8.39016819000244

> <r_mmod_Van_der_Waal_Energy-OPLS-2005>
136.458740234375

> <r_mmod_Electrostatic_Energy-OPLS-2005>
-589.089965820312

> <r_mmod_Solvation_Energy-OPLS-2005>
-230.841384887695

> <b_mmod_Minimization_Converged-OPLS-2005>
0

> <r_mmod_RMS_Derivative-OPLS-2005>
1.11412215232849

$$$$
69
                    3D
 Structure written by MMmdl.
173181  0  0  1  0            999 V2000
  -30.7544  -14.4456   20.5963 C   0  0  0  0  0  0
  -30.4127  -12.3067   19.4068 C   0  0  0  0  0  0
  -29.4876  -12.4848   18.1882 C   0  0  0  0  0  0
  -28.0107  -12.3261   18.6042 C   0  0  0  0  0  0
  -27.6429  -13.1703   19.8469 C   0  0  2  0  0  0
  -28.6931  -13.0155   20.9753 C   0  0  0  0  0  0
  -25.2611  -13.8045   20.5615 C   0  0  0  0  0  0
  -24.1842  -13.0370   20.9165 C   0  0  0  0  0  0
  -24.6362  -11.6825   20.8731 C   0  0  0  0  0  0
  -23.8999  -10.4265   21.0431 C   0  0  0  0  0  0
  -24.3577   -9.4189   21.9201 C   0  0  0  0  0  0
  -23.6265   -8.2217   22.0768 C   0  0  0  0  0  0
  -22.4246   -8.0276   21.3552 C   0  0  0  0  0  0
  -21.9862   -9.0253   20.4654 C   0  0  0  0  0  0
  -22.7184  -10.2132   20.3057 C   0  0  0  0  0  0
  -21.6866   -6.0714   22.5273 C   0  0  0  0  0  0
  -21.4024   -6.5606   23.8211 C   0  0  0  0  0  0
  -21.3640   -5.6763   24.9164 C   0  0  0  0  0  0
  -21.6037   -4.3027   24.7228 C   0  0  0  0  0  0
  -21.8828   -3.8121   23.4355 C   0  0  0  0  0  0
  -21.9223   -4.6947   22.3402 C   0  0  0  0  0  0
  -22.7899  -13.5261   21.1801 C   0  0  0  0  0  0
  -22.1703   -4.2103   21.0993 F   0  0  0  0  0  0
  -21.5608   -3.4521   25.7759 F   0  0  0  0  0  0
  -30.0255  -13.3057   20.4185 N   0  0  0  0  0  0
  -26.2952  -12.9090   20.3247 N   0  0  0  0  0  0
  -25.9247  -11.6313   20.5690 N   0  0  0  0  0  0
  -22.0517  -12.8279   22.0377 N   0  0  0  0  0  0
  -25.4405  -15.1729   20.3936 N   0  0  0  0  0  0
  -31.8871  -14.5791   20.1276 O   0  0  0  0  0  0
  -21.6635   -6.8861   21.4234 O   0  0  0  0  0  0
  -22.3609  -14.5578   20.6664 O   0  0  0  0  0  0
  -24.6097  -31.8706   23.2155 C   0  0  0  0  0  0
  -25.9010  -32.4843   23.8428 C   0  0  1  0  0  0
  -27.2225  -27.4589   20.0916 C   0  0  0  0  0  0
  -25.5888  -33.8639   24.2351 N   0  0  0  0  0  0
  -23.3938  -30.4959   21.5576 C   0  0  2  0  0  0
  -24.8369  -28.9717   20.1122 C   0  0  0  0  0  0
  -22.7381  -29.4652   22.5036 C   0  0  0  0  0  0
  -18.0251  -28.1376   22.8486 C   0  0  0  0  0  0
  -24.1482  -36.7314   23.2635 C   0  0  0  0  0  0
  -25.9202  -30.8480   21.3638 C   0  0  0  0  0  0
  -25.9975  -29.4868   20.7038 C   0  0  0  0  0  0
  -27.1942  -28.7380   20.6860 C   0  0  0  0  0  0
  -26.0497  -26.9575   19.4829 C   0  0  0  0  0  0
  -24.8599  -27.7076   19.4975 C   0  0  0  0  0  0
  -23.5945  -29.8327   20.1704 C   0  0  0  0  0  0
  -25.4107  -36.3117   24.0338 C   0  0  1  0  0  0
  -20.5840  -28.3615   23.1352 C   0  0  2  0  0  0
  -20.6746  -26.9365   22.5423 C   0  0  0  0  0  0
  -19.5730  -26.6382   21.5208 C   0  0  0  0  0  0
  -18.1905  -26.7927   22.1627 C   0  0  0  0  0  0
  -19.1504  -28.8821   23.2913 C   0  0  0  0  0  0
  -18.9435  -30.1441   23.8891 C   0  0  0  0  0  0
  -17.6439  -30.6572   24.0555 C   0  0  0  0  0  0
  -25.9044  -34.9486   23.5136 C   0  0  0  0  0  0
  -16.5325  -29.9069   23.6350 C   0  0  0  0  0  0
  -16.7249  -28.6502   23.0336 C   0  0  0  0  0  0
  -26.4454  -31.6620   25.0751 C   0  0  0  0  0  0
  -25.3740  -31.3705   26.1514 C   0  0  0  0  0  0
  -27.0286  -30.3066   24.6119 C   0  0  0  0  0  0
  -27.6032  -32.4340   25.7496 C   0  0  0  0  0  0
  -27.5575  -37.1802   24.8466 C   0  0  0  0  0  0
  -21.4116  -29.2998   22.3794 N   0  0  0  0  0  0
  -26.4292  -37.3802   23.9409 N   0  0  0  0  0  0
  -24.6592  -31.0852   22.1037 N   0  0  0  0  0  0
  -23.4183  -28.8194   23.3050 O   0  0  0  0  0  0
  -28.3910  -26.7335   20.1118 O   0  0  0  0  0  0
  -26.5605  -34.8919   22.4697 O   0  0  0  0  0  0
  -23.5306  -32.1434   23.7594 O   0  0  0  0  0  0
  -28.7704  -18.6979   20.9506 C   0  0  0  0  0  0
  -29.6073  -20.2550   19.3099 C   0  0  0  0  0  0
  -28.8989  -20.0206   20.4997 C   0  0  0  0  0  0
  -29.3171  -17.6531   20.1865 C   0  0  0  0  0  0
  -29.9732  -17.9847   18.9757 C   0  0  0  0  0  0
  -30.4752  -16.9334   17.9982 C   0  0  0  0  0  0
  -31.1043  -15.1318   23.5793 C   0  0  0  0  0  0
  -32.0025  -16.9848   22.1020 C   0  0  0  0  0  0
  -28.2590  -21.1509   21.2828 C   0  0  0  0  0  0
  -29.0655  -16.2120   20.6295 C   0  0  0  0  0  0
  -29.2784  -22.2040   21.7421 C   0  0  0  0  0  0
  -28.7721  -23.0831   22.8961 C   0  0  0  0  0  0
  -27.9158  -25.2993   22.0502 C   0  0  0  0  0  0
  -28.2889  -25.3722   20.5507 C   0  0  0  0  0  0
  -30.7717  -16.1278   22.4534 C   0  0  0  0  0  0
  -30.1359  -19.2612   18.5659 N   0  0  0  0  0  0
  -30.1635  -15.4622   21.2775 N   0  0  0  0  0  0
  -27.6095  -23.9331   22.5452 N   0  3  0  0  0  0
  -31.4546  -12.4028   19.0952 H   0  0  0  0  0  0
  -30.3149  -11.2959   19.8097 H   0  0  0  0  0  0
  -29.7324  -11.7494   17.4191 H   0  0  0  0  0  0
  -29.6543  -13.4644   17.7363 H   0  0  0  0  0  0
  -27.8328  -11.2722   18.8188 H   0  0  0  0  0  0
  -27.3569  -12.5811   17.7696 H   0  0  0  0  0  0
  -27.6134  -14.1780   19.4700 H   0  0  0  0  0  0
  -28.6757  -11.9952   21.3632 H   0  0  0  0  0  0
  -28.4420  -13.6524   21.8235 H   0  0  0  0  0  0
  -25.2743   -9.5665   22.4756 H   0  0  0  0  0  0
  -23.9985   -7.4594   22.7479 H   0  0  0  0  0  0
  -21.0799   -8.8780   19.8956 H   0  0  0  0  0  0
  -22.3672  -10.9677   19.6160 H   0  0  0  0  0  0
  -21.2013   -7.6113   23.9679 H   0  0  0  0  0  0
  -21.1444   -6.0501   25.9052 H   0  0  0  0  0  0
  -22.0624   -2.7574   23.2880 H   0  0  0  0  0  0
  -22.4166  -11.9931   22.4714 H   0  0  0  0  0  0
  -21.1127  -13.1303   22.2530 H   0  0  0  0  0  0
  -24.6753  -15.8289   20.5058 H   0  0  0  0  0  0
  -26.2777  -15.6012   20.0204 H   0  0  0  0  0  0
  -26.7088  -32.5556   23.1194 H   0  0  0  0  0  0
  -25.0041  -33.9842   25.0495 H   0  0  0  0  0  0
  -22.6796  -31.3111   21.4287 H   0  0  0  0  0  0
  -23.3758  -35.9638   23.3325 H   0  0  0  0  0  0
  -24.3567  -36.8914   22.2048 H   0  0  0  0  0  0
  -23.7235  -37.6518   23.6643 H   0  0  0  0  0  0
  -26.0396  -31.6292   20.6104 H   0  0  0  0  0  0
  -26.8031  -30.8867   21.9890 H   0  0  0  0  0  0
  -28.0915  -29.1344   21.1398 H   0  0  0  0  0  0
  -26.0458  -25.9994   18.9825 H   0  0  0  0  0  0
  -23.9689  -27.3138   19.0286 H   0  0  0  0  0  0
  -23.6867  -30.6103   19.4109 H   0  0  0  0  0  0
  -22.7194  -29.2458   19.8819 H   0  0  0  0  0  0
  -25.1279  -36.1982   25.0834 H   0  0  0  0  0  0
  -20.9905  -28.3165   24.1484 H   0  0  0  0  0  0
  -20.5653  -26.2209   23.3594 H   0  0  0  0  0  0
  -21.6618  -26.7443   22.1205 H   0  0  0  0  0  0
  -19.6889  -25.6296   21.1225 H   0  0  0  0  0  0
  -19.6684  -27.3214   20.6754 H   0  0  0  0  0  0
  -17.4178  -26.6661   21.4025 H   0  0  0  0  0  0
  -18.0303  -26.0058   22.9015 H   0  0  0  0  0  0
  -19.7911  -30.7262   24.2238 H   0  0  0  0  0  0
  -17.4993  -31.6251   24.5153 H   0  0  0  0  0  0
  -15.5326  -30.2945   23.7703 H   0  0  0  0  0  0
  -15.8654  -28.0836   22.7020 H   0  0  0  0  0  0
  -24.5902  -30.7065   25.7850 H   0  0  0  0  0  0
  -24.8946  -32.2855   26.4995 H   0  0  0  0  0  0
  -25.8107  -30.8847   27.0251 H   0  0  0  0  0  0
  -26.2828  -29.6826   24.1176 H   0  0  0  0  0  0
  -27.4062  -29.7294   25.4568 H   0  0  0  0  0  0
  -27.8657  -30.4398   23.9267 H   0  0  0  0  0  0
  -27.2661  -33.3636   26.2090 H   0  0  0  0  0  0
  -28.3815  -32.6913   25.0304 H   0  0  0  0  0  0
  -28.0725  -31.8464   26.5392 H   0  0  0  0  0  0
  -28.2598  -38.0091   24.7516 H   0  0  0  0  0  0
  -28.1069  -36.2626   24.6290 H   0  0  0  0  0  0
  -27.2299  -37.1447   25.8870 H   0  0  0  0  0  0
  -20.9262  -29.8735   21.7035 H   0  0  0  0  0  0
  -26.0191  -38.2884   24.1405 H   0  0  0  0  0  0
  -28.2198  -18.4765   21.8521 H   0  0  0  0  0  0
  -29.7381  -21.2611   18.9400 H   0  0  0  0  0  0
  -30.5843  -17.3506   16.9970 H   0  0  0  0  0  0
  -29.7728  -16.1089   17.8860 H   0  0  0  0  0  0
  -31.4388  -16.5288   18.3042 H   0  0  0  0  0  0
  -31.9282  -14.4668   23.3169 H   0  0  0  0  0  0
  -30.2393  -14.5178   23.8422 H   0  0  0  0  0  0
  -31.3963  -15.6702   24.4808 H   0  0  0  0  0  0
  -32.8160  -16.3902   21.6910 H   0  0  0  0  0  0
  -32.3801  -17.4829   22.9954 H   0  0  0  0  0  0
  -31.7574  -17.7586   21.3752 H   0  0  0  0  0  0
  -27.4791  -21.6026   20.6668 H   0  0  0  0  0  0
  -27.7509  -20.7311   22.1533 H   0  0  0  0  0  0
  -28.1919  -16.1666   21.2816 H   0  0  0  0  0  0
  -28.7690  -15.7305   19.7142 H   0  0  0  0  0  0
  -29.6239  -22.7943   20.8968 H   0  0  0  0  0  0
  -30.1637  -21.6858   22.1155 H   0  0  0  0  0  0
  -29.5909  -23.6972   23.2734 H   0  0  0  0  0  0
  -28.4857  -22.4308   23.7236 H   0  0  0  0  0  0
  -27.0205  -25.8917   22.2374 H   0  0  0  0  0  0
  -28.7052  -25.7463   22.6529 H   0  0  0  0  0  0
  -27.5932  -24.7987   19.9376 H   0  0  0  0  0  0
  -29.2638  -24.9141   20.3915 H   0  0  0  0  0  0
  -30.0227  -16.8004   22.8730 H   0  0  0  0  0  0
  -27.1095  -24.0619   23.4127 H   0  0  0  0  0  0
  -26.9656  -23.4538   21.9342 H   0  0  0  0  0  0
  1 25  1  0  0  0
  1 30  2  0  0  0
  1 87  1  0  0  0
  2  3  1  0  0  0
  2 25  1  0  0  0
  2 89  1  0  0  0
  2 90  1  0  0  0
  3  4  1  0  0  0
  3 91  1  0  0  0
  3 92  1  0  0  0
  4  5  1  0  0  0
  4 93  1  0  0  0
  4 94  1  0  0  0
  5  6  1  0  0  0
  5 26  1  0  0  0
  5 95  1  0  0  0
  6 25  1  0  0  0
  6 96  1  0  0  0
  6 97  1  0  0  0
  7  8  2  0  0  0
  7 26  1  0  0  0
  7 29  1  0  0  0
  8  9  1  0  0  0
  8 22  1  0  0  0
  9 10  1  0  0  0
  9 27  2  0  0  0
 10 11  2  0  0  0
 10 15  1  0  0  0
 11 12  1  0  0  0
 11 98  1  0  0  0
 12 13  2  0  0  0
 12 99  1  0  0  0
 13 14  1  0  0  0
 13 31  1  0  0  0
 14 15  2  0  0  0
 14100  1  0  0  0
 15101  1  0  0  0
 16 17  2  0  0  0
 16 21  1  0  0  0
 16 31  1  0  0  0
 17 18  1  0  0  0
 17102  1  0  0  0
 18 19  2  0  0  0
 18103  1  0  0  0
 19 20  1  0  0  0
 19 24  1  0  0  0
 20 21  2  0  0  0
 20104  1  0  0  0
 21 23  1  0  0  0
 22 28  1  0  0  0
 22 32  2  0  0  0
 26 27  1  0  0  0
 28105  1  0  0  0
 28106  1  0  0  0
 29107  1  0  0  0
 29108  1  0  0  0
 33 34  1  0  0  0
 33 66  1  0  0  0
 33 70  2  0  0  0
 34 36  1  0  0  0
 34 59  1  0  0  0
 34109  1  0  0  0
 35 44  2  0  0  0
 35 45  1  0  0  0
 35 68  1  0  0  0
 36 56  1  0  0  0
 36110  1  0  0  0
 37 39  1  0  0  0
 37 47  1  0  0  0
 37 66  1  0  0  0
 37111  1  0  0  0
 38 43  2  0  0  0
 38 46  1  0  0  0
 38 47  1  0  0  0
 39 64  1  0  0  0
 39 67  2  0  0  0
 40 52  1  0  0  0
 40 53  2  0  0  0
 40 58  1  0  0  0
 41112  1  0  0  0
 41113  1  0  0  0
 41114  1  0  0  0
 41 48  1  0  0  0
 42 43  1  0  0  0
 42 66  1  0  0  0
 42115  1  0  0  0
 42116  1  0  0  0
 43 44  1  0  0  0
 44117  1  0  0  0
 45 46  2  0  0  0
 45118  1  0  0  0
 46119  1  0  0  0
 47120  1  0  0  0
 47121  1  0  0  0
 48 56  1  0  0  0
 48 65  1  0  0  0
 48122  1  0  0  0
 49 50  1  0  0  0
 49 53  1  0  0  0
 49 64  1  0  0  0
 49123  1  0  0  0
 50 51  1  0  0  0
 50124  1  0  0  0
 50125  1  0  0  0
 51 52  1  0  0  0
 51126  1  0  0  0
 51127  1  0  0  0
 52128  1  0  0  0
 52129  1  0  0  0
 53 54  1  0  0  0
 54 55  2  0  0  0
 54130  1  0  0  0
 55 57  1  0  0  0
 55131  1  0  0  0
 56 69  2  0  0  0
 57 58  2  0  0  0
 57132  1  0  0  0
 58133  1  0  0  0
 59 60  1  0  0  0
 59 61  1  0  0  0
 59 62  1  0  0  0
 60134  1  0  0  0
 60135  1  0  0  0
 60136  1  0  0  0
 61137  1  0  0  0
 61138  1  0  0  0
 61139  1  0  0  0
 62140  1  0  0  0
 62141  1  0  0  0
 62142  1  0  0  0
 63 65  1  0  0  0
 63143  1  0  0  0
 63144  1  0  0  0
 63145  1  0  0  0
 64146  1  0  0  0
 65147  1  0  0  0
 68 84  1  0  0  0
 71 73  2  0  0  0
 71 74  1  0  0  0
 71148  1  0  0  0
 72 73  1  0  0  0
 72 86  2  0  0  0
 72149  1  0  0  0
 73 79  1  0  0  0
 74 75  2  0  0  0
 74 80  1  0  0  0
 75 76  1  0  0  0
 75 86  1  0  0  0
 76150  1  0  0  0
 76151  1  0  0  0
 76152  1  0  0  0
 77153  1  0  0  0
 77154  1  0  0  0
 77155  1  0  0  0
 77 85  1  0  0  0
 78 85  1  0  0  0
 78156  1  0  0  0
 78157  1  0  0  0
 78158  1  0  0  0
 79 81  1  0  0  0
 79159  1  0  0  0
 79160  1  0  0  0
 80 87  1  0  0  0
 80161  1  0  0  0
 80162  1  0  0  0
 81 82  1  0  0  0
 81163  1  0  0  0
 81164  1  0  0  0
 82 88  1  0  0  0
 82165  1  0  0  0
 82166  1  0  0  0
 83 84  1  0  0  0
 83 88  1  0  0  0
 83167  1  0  0  0
 83168  1  0  0  0
 84169  1  0  0  0
 84170  1  0  0  0
 85 87  1  0  0  0
 85171  1  0  0  0
 88172  1  0  0  0
 88173  1  0  0  0
M  CHG  1  88   1
M  ISO  4   1 100  68 101  84 101  87 100
M  END
> <chiral flag>
0

> <version>
0

> <s_m_source_file>
/data/baiqing/PycharmProjects/Reinvent-master-3.2/result/LINK_invent/BTK/process_docking_weight1_custom_sum_contain_oxygen_bond_distance_aromatic_linkinvent_7_9_3/rearranged_h_0106.sdf

> <i_m_source_file_index>
69

> <r_mmod_Potential_Energy-OPLS-2005>
-68.0150985717773

> <r_mmod_Stretch_Energy-OPLS-2005>
36.8347206115723

> <r_mmod_Bend_Energy-OPLS-2005>
109.447891235352

> <r_mmod_Torsional_Energy-OPLS-2005>
310.837677001953

> <r_mmod_Improper_Torsional_Energy-OPLS-2005>
3.1995804309845

> <r_mmod_Van_der_Waal_Energy-OPLS-2005>
154.115829467773

> <r_mmod_Electrostatic_Energy-OPLS-2005>
-247.152435302734

> <r_mmod_Solvation_Energy-OPLS-2005>
-449.918060302734

> <b_mmod_Minimization_Converged-OPLS-2005>
0

> <r_mmod_RMS_Derivative-OPLS-2005>
4.6881160736084

$$$$
70
                    3D
 Structure written by MMmdl.
171180  0  0  1  0            999 V2000
  -30.6210  -14.7301   20.4040 C   0  0  0  0  0  0
  -30.4405  -12.4291   19.4695 C   0  0  0  0  0  0
  -29.5143  -12.4807   18.2330 C   0  0  0  0  0  0
  -28.0413  -12.3246   18.6589 C   0  0  0  0  0  0
  -27.6544  -13.2248   19.8632 C   0  0  2  0  0  0
  -28.7086  -13.1467   20.9888 C   0  0  0  0  0  0
  -25.2579  -13.8182   20.5719 C   0  0  0  0  0  0
  -24.1825  -13.0432   20.9221 C   0  0  0  0  0  0
  -24.6382  -11.6921   20.8739 C   0  0  0  0  0  0
  -23.9011  -10.4312   21.0391 C   0  0  0  0  0  0
  -24.3580   -9.4243   21.9176 C   0  0  0  0  0  0
  -23.6280   -8.2261   22.0768 C   0  0  0  0  0  0
  -22.4262   -8.0278   21.3553 C   0  0  0  0  0  0
  -21.9888   -9.0236   20.4638 C   0  0  0  0  0  0
  -22.7189  -10.2137   20.3039 C   0  0  0  0  0  0
  -21.6866   -6.0679   22.5268 C   0  0  0  0  0  0
  -21.3994   -6.5596   23.8185 C   0  0  0  0  0  0
  -21.3675   -5.6778   24.9158 C   0  0  0  0  0  0
  -21.6046   -4.3031   24.7230 C   0  0  0  0  0  0
  -21.8839   -3.8105   23.4363 C   0  0  0  0  0  0
  -21.9213   -4.6904   22.3407 C   0  0  0  0  0  0
  -22.7863  -13.5253   21.1891 C   0  0  0  0  0  0
  -22.1693   -4.2079   21.0995 F   0  0  0  0  0  0
  -21.5653   -3.4541   25.7761 F   0  0  0  0  0  0
  -30.0044  -13.4970   20.3982 N   0  0  0  0  0  0
  -26.3017  -12.9378   20.3386 N   0  0  0  0  0  0
  -25.9327  -11.6517   20.5763 N   0  0  0  0  0  0
  -22.0533  -12.8170   22.0419 N   0  0  0  0  0  0
  -25.4290  -15.1898   20.4105 N   0  0  0  0  0  0
  -31.7961  -14.8287   20.0506 O   0  0  0  0  0  0
  -21.6674   -6.8835   21.4230 O   0  0  0  0  0  0
  -22.3559  -14.5595   20.6822 O   0  0  0  0  0  0
  -24.6343  -31.8523   23.1941 C   0  0  0  0  0  0
  -25.9136  -32.4769   23.8325 C   0  0  1  0  0  0
  -27.2483  -27.2635   20.1204 C   0  0  0  0  0  0
  -25.5918  -33.8564   24.2252 N   0  0  0  0  0  0
  -23.4334  -30.4672   21.5413 C   0  0  2  0  0  0
  -24.8823  -28.8993   20.1223 C   0  0  0  0  0  0
  -22.7527  -29.4550   22.4950 C   0  0  0  0  0  0
  -18.0282  -28.1370   22.8480 C   0  0  0  0  0  0
  -24.1479  -36.7256   23.2641 C   0  0  0  0  0  0
  -25.9800  -30.7637   21.3716 C   0  0  0  0  0  0
  -26.0549  -29.3840   20.7148 C   0  0  0  0  0  0
  -27.2433  -28.5869   20.6813 C   0  0  0  0  0  0
  -26.0451  -26.8244   19.5347 C   0  0  0  0  0  0
  -24.8844  -27.6291   19.5157 C   0  0  0  0  0  0
  -23.6517  -29.7884   20.1636 C   0  0  0  0  0  0
  -25.4118  -36.3073   24.0330 C   0  0  1  0  0  0
  -20.5891  -28.3675   23.1290 C   0  0  2  0  0  0
  -20.6760  -26.9391   22.5412 C   0  0  0  0  0  0
  -19.5736  -26.6381   21.5211 C   0  0  0  0  0  0
  -18.1925  -26.7922   22.1624 C   0  0  0  0  0  0
  -19.1535  -28.8845   23.2879 C   0  0  0  0  0  0
  -18.9447  -30.1452   23.8891 C   0  0  0  0  0  0
  -17.6443  -30.6567   24.0572 C   0  0  0  0  0  0
  -25.9056  -34.9444   23.5105 C   0  0  0  0  0  0
  -16.5341  -29.9068   23.6326 C   0  0  0  0  0  0
  -16.7275  -28.6489   23.0348 C   0  0  0  0  0  0
  -26.4507  -31.6596   25.0713 C   0  0  0  0  0  0
  -25.3735  -31.3678   26.1427 C   0  0  0  0  0  0
  -27.0380  -30.3025   24.6174 C   0  0  0  0  0  0
  -27.6068  -32.4369   25.7444 C   0  0  0  0  0  0
  -27.5589  -37.1781   24.8484 C   0  0  0  0  0  0
  -21.4236  -29.3031   22.3692 N   0  0  0  0  0  0
  -26.4294  -37.3772   23.9430 N   0  0  0  0  0  0
  -24.7031  -31.0458   22.0935 N   0  0  0  0  0  0
  -23.4214  -28.8097   23.3067 O   0  0  0  0  0  0
  -28.4052  -26.4594   20.0420 O   0  0  0  0  0  0
  -26.5637  -34.8914   22.4688 O   0  0  0  0  0  0
  -23.5486  -32.1362   23.7222 O   0  0  0  0  0  0
  -31.4347  -23.1799   19.0966 C   0  0  0  0  0  0
  -28.7265  -21.1184   20.3320 C   0  0  0  0  0  0
  -30.8884  -20.8673   19.8109 C   0  0  0  0  0  0
  -29.7168  -20.1165   20.2914 C   0  0  0  0  0  0
  -30.5062  -22.2463   19.5866 C   0  0  0  0  0  0
  -32.7170  -22.7546   18.7639 C   0  0  0  0  0  0
  -32.2667  -20.5843   19.5406 C   0  0  0  0  0  0
  -33.7448  -23.6894   18.1453 C   0  0  0  0  0  0
  -32.9424  -19.2724   19.8489 C   0  0  0  0  0  0
  -28.5157  -22.6662   17.1483 C   0  0  0  0  0  0
  -28.8592  -25.1490   17.4622 C   0  0  0  0  0  0
  -29.5384  -18.5906   20.7670 C   0  0  0  0  0  0
  -30.1083  -17.2777   20.0006 C   0  0  0  0  0  0
  -28.5105  -25.0188   20.4727 C   0  0  0  0  0  0
  -28.1623  -23.8921   18.0234 C   0  0  0  0  0  0
  -28.3055  -23.6643   19.5793 C   0  0  1  0  0  0
  -33.1112  -21.4982   19.0030 N   0  0  0  0  0  0
  -29.1545  -22.4036   19.8768 N   0  0  0  0  0  0
  -29.8429  -15.8689   20.5584 N   0  0  0  0  0  0
  -31.4839  -12.5376   19.1669 H   0  0  0  0  0  0
  -30.3784  -11.4512   19.9545 H   0  0  0  0  0  0
  -29.7797  -11.6828   17.5376 H   0  0  0  0  0  0
  -29.6499  -13.4223   17.6967 H   0  0  0  0  0  0
  -27.9025  -11.2809   18.9388 H   0  0  0  0  0  0
  -27.3737  -12.5059   17.8157 H   0  0  0  0  0  0
  -27.6576  -14.2482   19.4913 H   0  0  0  0  0  0
  -28.7486  -12.1411   21.4069 H   0  0  0  0  0  0
  -28.4707  -13.8074   21.8231 H   0  0  0  0  0  0
  -25.2722   -9.5755   22.4747 H   0  0  0  0  0  0
  -24.0018   -7.4660   22.7496 H   0  0  0  0  0  0
  -21.0833   -8.8686   19.8947 H   0  0  0  0  0  0
  -22.3600  -10.9642   19.6142 H   0  0  0  0  0  0
  -21.1944   -7.6105   23.9645 H   0  0  0  0  0  0
  -21.1491   -6.0523   25.9060 H   0  0  0  0  0  0
  -22.0607   -2.7568   23.2891 H   0  0  0  0  0  0
  -22.4159  -11.9779   22.4714 H   0  0  0  0  0  0
  -21.1152  -13.1118   22.2672 H   0  0  0  0  0  0
  -24.6788  -15.8558   20.5603 H   0  0  0  0  0  0
  -26.2535  -15.6158   20.0078 H   0  0  0  0  0  0
  -26.7207  -32.5367   23.1069 H   0  0  0  0  0  0
  -25.0132  -33.9711   25.0443 H   0  0  0  0  0  0
  -22.7297  -31.2882   21.3891 H   0  0  0  0  0  0
  -23.3782  -35.9547   23.3322 H   0  0  0  0  0  0
  -24.3585  -36.8875   22.2056 H   0  0  0  0  0  0
  -23.7180  -37.6437   23.6672 H   0  0  0  0  0  0
  -26.1168  -31.5189   20.5971 H   0  0  0  0  0  0
  -26.8596  -30.8127   22.0029 H   0  0  0  0  0  0
  -28.1597  -28.9755   21.1045 H   0  0  0  0  0  0
  -26.0103  -25.8498   19.0721 H   0  0  0  0  0  0
  -23.9891  -27.2539   19.0363 H   0  0  0  0  0  0
  -23.7766  -30.5614   19.4058 H   0  0  0  0  0  0
  -22.7713  -29.2185   19.8610 H   0  0  0  0  0  0
  -25.1288  -36.1956   25.0820 H   0  0  0  0  0  0
  -20.9968  -28.3239   24.1422 H   0  0  0  0  0  0
  -20.5672  -26.2262   23.3611 H   0  0  0  0  0  0
  -21.6621  -26.7420   22.1184 H   0  0  0  0  0  0
  -19.6893  -25.6304   21.1215 H   0  0  0  0  0  0
  -19.6679  -27.3219   20.6765 H   0  0  0  0  0  0
  -17.4197  -26.6701   21.4030 H   0  0  0  0  0  0
  -18.0305  -26.0047   22.8989 H   0  0  0  0  0  0
  -19.7925  -30.7266   24.2272 H   0  0  0  0  0  0
  -17.4997  -31.6259   24.5169 H   0  0  0  0  0  0
  -15.5342  -30.2973   23.7644 H   0  0  0  0  0  0
  -15.8677  -28.0826   22.7044 H   0  0  0  0  0  0
  -24.5920  -30.7032   25.7743 H   0  0  0  0  0  0
  -24.8877  -32.2782   26.4933 H   0  0  0  0  0  0
  -25.8028  -30.8802   27.0178 H   0  0  0  0  0  0
  -26.2946  -29.6743   24.1239 H   0  0  0  0  0  0
  -27.4154  -29.7324   25.4681 H   0  0  0  0  0  0
  -27.8783  -30.4374   23.9356 H   0  0  0  0  0  0
  -27.2715  -33.3722   26.1952 H   0  0  0  0  0  0
  -28.3848  -32.6874   25.0218 H   0  0  0  0  0  0
  -28.0770  -31.8551   26.5387 H   0  0  0  0  0  0
  -28.2600  -38.0076   24.7555 H   0  0  0  0  0  0
  -28.1071  -36.2612   24.6289 H   0  0  0  0  0  0
  -27.2298  -37.1413   25.8877 H   0  0  0  0  0  0
  -20.9440  -29.8764   21.6887 H   0  0  0  0  0  0
  -26.0187  -38.2844   24.1464 H   0  0  0  0  0  0
  -31.1480  -24.2038   18.9402 H   0  0  0  0  0  0
  -27.6920  -21.0096   20.6404 H   0  0  0  0  0  0
  -33.3677  -24.1920   17.2537 H   0  0  0  0  0  0
  -34.6428  -23.1471   17.8419 H   0  0  0  0  0  0
  -34.0461  -24.4602   18.8535 H   0  0  0  0  0  0
  -34.0034  -19.4423   20.0326 H   0  0  0  0  0  0
  -32.8698  -18.5881   19.0032 H   0  0  0  0  0  0
  -32.5275  -18.8268   20.7521 H   0  0  0  0  0  0
  -28.1922  -22.8136   16.1182 H   0  0  0  0  0  0
  -28.0345  -21.7522   17.5011 H   0  0  0  0  0  0
  -29.5893  -22.4873   17.1151 H   0  0  0  0  0  0
  -28.2420  -26.0283   17.6388 H   0  0  0  0  0  0
  -28.9957  -25.0921   16.3821 H   0  0  0  0  0  0
  -29.8353  -25.3563   17.8930 H   0  0  0  0  0  0
  -28.4673  -18.4112   20.8696 H   0  0  0  0  0  0
  -29.9019  -18.5092   21.7903 H   0  0  0  0  0  0
  -31.1789  -17.3700   19.8671 H   0  0  0  0  0  0
  -29.6980  -17.2686   18.9910 H   0  0  0  0  0  0
  -29.5521  -24.9674   20.7894 H   0  0  0  0  0  0
  -27.9502  -24.9097   21.4040 H   0  0  0  0  0  0
  -27.0984  -24.0585   17.8376 H   0  0  0  0  0  0
  -27.2991  -23.3598   19.8707 H   0  0  0  0  0  0
  -28.9092  -15.6947   20.9033 H   0  0  0  0  0  0
  1 25  1  0  0  0
  1 30  2  0  0  0
  1 89  1  0  0  0
  2  3  1  0  0  0
  2 25  1  0  0  0
  2 90  1  0  0  0
  2 91  1  0  0  0
  3  4  1  0  0  0
  3 92  1  0  0  0
  3 93  1  0  0  0
  4  5  1  0  0  0
  4 94  1  0  0  0
  4 95  1  0  0  0
  5  6  1  0  0  0
  5 26  1  0  0  0
  5 96  1  0  0  0
  6 25  1  0  0  0
  6 97  1  0  0  0
  6 98  1  0  0  0
  7  8  2  0  0  0
  7 26  1  0  0  0
  7 29  1  0  0  0
  8  9  1  0  0  0
  8 22  1  0  0  0
  9 10  1  0  0  0
  9 27  2  0  0  0
 10 11  2  0  0  0
 10 15  1  0  0  0
 11 12  1  0  0  0
 11 99  1  0  0  0
 12 13  2  0  0  0
 12100  1  0  0  0
 13 14  1  0  0  0
 13 31  1  0  0  0
 14 15  2  0  0  0
 14101  1  0  0  0
 15102  1  0  0  0
 16 17  2  0  0  0
 16 21  1  0  0  0
 16 31  1  0  0  0
 17 18  1  0  0  0
 17103  1  0  0  0
 18 19  2  0  0  0
 18104  1  0  0  0
 19 20  1  0  0  0
 19 24  1  0  0  0
 20 21  2  0  0  0
 20105  1  0  0  0
 21 23  1  0  0  0
 22 28  1  0  0  0
 22 32  2  0  0  0
 26 27  1  0  0  0
 28106  1  0  0  0
 28107  1  0  0  0
 29108  1  0  0  0
 29109  1  0  0  0
 33 34  1  0  0  0
 33 66  1  0  0  0
 33 70  2  0  0  0
 34 36  1  0  0  0
 34 59  1  0  0  0
 34110  1  0  0  0
 35 44  2  0  0  0
 35 45  1  0  0  0
 35 68  1  0  0  0
 36 56  1  0  0  0
 36111  1  0  0  0
 37 39  1  0  0  0
 37 47  1  0  0  0
 37 66  1  0  0  0
 37112  1  0  0  0
 38 43  2  0  0  0
 38 46  1  0  0  0
 38 47  1  0  0  0
 39 64  1  0  0  0
 39 67  2  0  0  0
 40 52  1  0  0  0
 40 53  2  0  0  0
 40 58  1  0  0  0
 41113  1  0  0  0
 41114  1  0  0  0
 41115  1  0  0  0
 41 48  1  0  0  0
 42 43  1  0  0  0
 42 66  1  0  0  0
 42116  1  0  0  0
 42117  1  0  0  0
 43 44  1  0  0  0
 44118  1  0  0  0
 45 46  2  0  0  0
 45119  1  0  0  0
 46120  1  0  0  0
 47121  1  0  0  0
 47122  1  0  0  0
 48 56  1  0  0  0
 48 65  1  0  0  0
 48123  1  0  0  0
 49 50  1  0  0  0
 49 53  1  0  0  0
 49 64  1  0  0  0
 49124  1  0  0  0
 50 51  1  0  0  0
 50125  1  0  0  0
 50126  1  0  0  0
 51 52  1  0  0  0
 51127  1  0  0  0
 51128  1  0  0  0
 52129  1  0  0  0
 52130  1  0  0  0
 53 54  1  0  0  0
 54 55  2  0  0  0
 54131  1  0  0  0
 55 57  1  0  0  0
 55132  1  0  0  0
 56 69  2  0  0  0
 57 58  2  0  0  0
 57133  1  0  0  0
 58134  1  0  0  0
 59 60  1  0  0  0
 59 61  1  0  0  0
 59 62  1  0  0  0
 60135  1  0  0  0
 60136  1  0  0  0
 60137  1  0  0  0
 61138  1  0  0  0
 61139  1  0  0  0
 61140  1  0  0  0
 62141  1  0  0  0
 62142  1  0  0  0
 62143  1  0  0  0
 63 65  1  0  0  0
 63144  1  0  0  0
 63145  1  0  0  0
 63146  1  0  0  0
 64147  1  0  0  0
 65148  1  0  0  0
 68 84  1  0  0  0
 71 75  2  0  0  0
 71 76  1  0  0  0
 71149  1  0  0  0
 72 74  2  0  0  0
 72 88  1  0  0  0
 72150  1  0  0  0
 73 74  1  0  0  0
 73 75  1  0  0  0
 73 77  2  0  0  0
 74 82  1  0  0  0
 75 88  1  0  0  0
 76 78  1  0  0  0
 76 87  2  0  0  0
 77 79  1  0  0  0
 77 87  1  0  0  0
 78151  1  0  0  0
 78152  1  0  0  0
 78153  1  0  0  0
 79154  1  0  0  0
 79155  1  0  0  0
 79156  1  0  0  0
 80157  1  0  0  0
 80158  1  0  0  0
 80159  1  0  0  0
 80 85  1  0  0  0
 81 85  1  0  0  0
 81160  1  0  0  0
 81161  1  0  0  0
 81162  1  0  0  0
 82 83  1  0  0  0
 82163  1  0  0  0
 82164  1  0  0  0
 83 89  1  0  0  0
 83165  1  0  0  0
 83166  1  0  0  0
 84167  1  0  0  0
 84168  1  0  0  0
 84 86  1  0  0  0
 85 86  1  0  0  0
 85169  1  0  0  0
 86 88  1  0  0  0
 86170  1  0  0  0
 89171  1  0  0  0
M  ISO  4   1 100  68 101  84 101  89 100
M  END
> <chiral flag>
0

> <version>
0

> <s_m_source_file>
/data/baiqing/PycharmProjects/Reinvent-master-3.2/result/LINK_invent/BTK/process_docking_weight1_custom_sum_contain_oxygen_bond_distance_aromatic_linkinvent_7_9_3/rearranged_h_0106.sdf

> <i_m_source_file_index>
70

> <r_mmod_Potential_Energy-OPLS-2005>
64.6912460327148

> <r_mmod_Stretch_Energy-OPLS-2005>
143.927917480469

> <r_mmod_Bend_Energy-OPLS-2005>
224.996246337891

> <r_mmod_Torsional_Energy-OPLS-2005>
273.320495605469

> <r_mmod_Improper_Torsional_Energy-OPLS-2005>
7.92300224304199

> <r_mmod_Van_der_Waal_Energy-OPLS-2005>
135.230453491211

> <r_mmod_Electrostatic_Energy-OPLS-2005>
-569.871276855469

> <r_mmod_Solvation_Energy-OPLS-2005>
-225.347640991211

> <b_mmod_Minimization_Converged-OPLS-2005>
0

> <r_mmod_RMS_Derivative-OPLS-2005>
6.30942916870117

$$$$
71
                    3D
 Structure written by MMmdl.
170177  0  0  1  0            999 V2000
  -30.6980  -14.4484   20.5844 C   0  0  0  0  0  0
  -30.4213  -12.2979   19.4036 C   0  0  0  0  0  0
  -29.4862  -12.5077   18.1940 C   0  0  0  0  0  0
  -28.0099  -12.3620   18.6118 C   0  0  0  0  0  0
  -27.6617  -13.1961   19.8727 C   0  0  2  0  0  0
  -28.7053  -12.9575   20.9898 C   0  0  0  0  0  0
  -25.2566  -13.8126   20.5655 C   0  0  0  0  0  0
  -24.1824  -13.0451   20.9223 C   0  0  0  0  0  0
  -24.6369  -11.6911   20.8755 C   0  0  0  0  0  0
  -23.9057  -10.4310   21.0436 C   0  0  0  0  0  0
  -24.3623   -9.4234   21.9205 C   0  0  0  0  0  0
  -23.6306   -8.2261   22.0770 C   0  0  0  0  0  0
  -22.4281   -8.0300   21.3569 C   0  0  0  0  0  0
  -21.9925   -9.0275   20.4671 C   0  0  0  0  0  0
  -22.7238  -10.2153   20.3082 C   0  0  0  0  0  0
  -21.6871   -6.0742   22.5269 C   0  0  0  0  0  0
  -21.4010   -6.5649   23.8204 C   0  0  0  0  0  0
  -21.3643   -5.6796   24.9153 C   0  0  0  0  0  0
  -21.6041   -4.3063   24.7204 C   0  0  0  0  0  0
  -21.8829   -3.8162   23.4323 C   0  0  0  0  0  0
  -21.9194   -4.6980   22.3383 C   0  0  0  0  0  0
  -22.7841  -13.5277   21.1881 C   0  0  0  0  0  0
  -22.1682   -4.2179   21.0956 F   0  0  0  0  0  0
  -21.5611   -3.4529   25.7708 F   0  0  0  0  0  0
  -30.0381  -13.2682   20.4391 N   0  0  0  0  0  0
  -26.3010  -12.9278   20.3349 N   0  0  0  0  0  0
  -25.9293  -11.6456   20.5790 N   0  0  0  0  0  0
  -22.0461  -12.8254   22.0391 N   0  0  0  0  0  0
  -25.4288  -15.1796   20.3872 N   0  0  0  0  0  0
  -31.8082  -14.6713   20.0921 O   0  0  0  0  0  0
  -21.6657   -6.8892   21.4240 O   0  0  0  0  0  0
  -22.3527  -14.5610   20.6772 O   0  0  0  0  0  0
  -24.6178  -31.8673   23.2103 C   0  0  0  0  0  0
  -25.9076  -32.4812   23.8399 C   0  0  1  0  0  0
  -27.2188  -27.4038   20.0940 C   0  0  0  0  0  0
  -25.5926  -33.8609   24.2338 N   0  0  0  0  0  0
  -23.4064  -30.4945   21.5518 C   0  0  2  0  0  0
  -24.8504  -28.9616   20.1114 C   0  0  0  0  0  0
  -22.7441  -29.4663   22.4981 C   0  0  0  0  0  0
  -18.0294  -28.1356   22.8473 C   0  0  0  0  0  0
  -24.1485  -36.7307   23.2640 C   0  0  0  0  0  0
  -25.9407  -30.8221   21.3704 C   0  0  0  0  0  0
  -26.0162  -29.4559   20.7130 C   0  0  0  0  0  0
  -27.2060  -28.6834   20.7031 C   0  0  0  0  0  0
  -26.0409  -26.9493   19.4591 C   0  0  0  0  0  0
  -24.8591  -27.7084   19.4801 C   0  0  0  0  0  0
  -23.6152  -29.8325   20.1653 C   0  0  0  0  0  0
  -25.4107  -36.3103   24.0341 C   0  0  1  0  0  0
  -20.5880  -28.3672   23.1321 C   0  0  2  0  0  0
  -20.6797  -26.9387   22.5463 C   0  0  0  0  0  0
  -19.5810  -26.6394   21.5216 C   0  0  0  0  0  0
  -18.1970  -26.7920   22.1577 C   0  0  0  0  0  0
  -19.1527  -28.8834   23.2891 C   0  0  0  0  0  0
  -18.9442  -30.1445   23.8882 C   0  0  0  0  0  0
  -17.6435  -30.6564   24.0533 C   0  0  0  0  0  0
  -25.9032  -34.9470   23.5125 C   0  0  0  0  0  0
  -16.5338  -29.9043   23.6303 C   0  0  0  0  0  0
  -16.7278  -28.6465   23.0323 C   0  0  0  0  0  0
  -26.4490  -31.6601   25.0740 C   0  0  0  0  0  0
  -25.3759  -31.3708   26.1490 C   0  0  0  0  0  0
  -27.0326  -30.3041   24.6129 C   0  0  0  0  0  0
  -27.6063  -32.4322   25.7505 C   0  0  0  0  0  0
  -27.5577  -37.1817   24.8469 C   0  0  0  0  0  0
  -21.4161  -29.3030   22.3706 N   0  0  0  0  0  0
  -26.4292  -37.3790   23.9402 N   0  0  0  0  0  0
  -24.6740  -31.0746   22.1022 N   0  0  0  0  0  0
  -23.4204  -28.8206   23.3038 O   0  0  0  0  0  0
  -28.3479  -26.6009   20.1150 O   0  0  0  0  0  0
  -26.5590  -34.8923   22.4681 O   0  0  0  0  0  0
  -23.5381  -32.1432   23.7492 O   0  0  0  0  0  0
  -25.1149  -21.7149   19.2058 C   0  0  0  0  0  0
  -26.4201  -21.4168   19.1282 C   0  0  0  0  0  0
  -28.1224  -17.5984   20.3591 C   0  0  0  0  0  0
  -30.0549  -21.8139   21.7225 C   0  0  0  0  0  0
  -31.3647  -19.4248   19.6065 C   0  0  0  0  0  0
  -27.5412  -22.4285   18.9197 C   0  0  0  0  0  0
  -29.0543  -24.1510   19.9957 C   0  0  0  0  0  0
  -30.3669  -16.8377   21.3134 C   0  0  0  0  0  0
  -28.1243  -25.2459   20.5890 C   0  0  0  0  0  0
  -29.1075  -20.2686   20.1420 C   0  0  0  0  0  0
  -28.4746  -22.6926   20.1436 C   0  0  2  0  0  0
  -29.6569  -17.7724   20.2811 C   0  0  2  0  0  0
  -29.9935  -15.4181   21.1889 N   0  0  0  0  0  0
  -29.5462  -21.6720   20.3509 N   0  0  0  0  0  0
  -30.1320  -19.2037   20.4069 N   0  3  1  0  0  0
  -31.4659  -12.3935   19.1002 H   0  0  0  0  0  0
  -30.3175  -11.2827   19.7911 H   0  0  0  0  0  0
  -29.7239  -11.7976   17.3993 H   0  0  0  0  0  0
  -29.6418  -13.5015   17.7707 H   0  0  0  0  0  0
  -27.8193  -11.3053   18.8005 H   0  0  0  0  0  0
  -27.3554  -12.6451   17.7872 H   0  0  0  0  0  0
  -27.7126  -14.2466   19.5860 H   0  0  0  0  0  0
  -28.6792  -11.9158   21.3126 H   0  0  0  0  0  0
  -28.4654  -13.5364   21.8836 H   0  0  0  0  0  0
  -25.2790   -9.5722   22.4748 H   0  0  0  0  0  0
  -24.0043   -7.4654   22.7482 H   0  0  0  0  0  0
  -21.0862   -8.8805   19.8963 H   0  0  0  0  0  0
  -22.3741  -10.9696   19.6176 H   0  0  0  0  0  0
  -21.2023   -7.6153   23.9706 H   0  0  0  0  0  0
  -21.1446   -6.0514   25.9051 H   0  0  0  0  0  0
  -22.0629   -2.7635   23.2802 H   0  0  0  0  0  0
  -22.4104  -11.9928   22.4779 H   0  0  0  0  0  0
  -21.1057  -13.1267   22.2545 H   0  0  0  0  0  0
  -24.6610  -15.8352   20.4827 H   0  0  0  0  0  0
  -26.2375  -15.5803   19.9327 H   0  0  0  0  0  0
  -26.7148  -32.5513   23.1165 H   0  0  0  0  0  0
  -25.0117  -33.9768   25.0514 H   0  0  0  0  0  0
  -22.6957  -31.3120   21.4156 H   0  0  0  0  0  0
  -23.3738  -35.9648   23.3326 H   0  0  0  0  0  0
  -24.3582  -36.8896   22.2049 H   0  0  0  0  0  0
  -23.7243  -37.6523   23.6637 H   0  0  0  0  0  0
  -26.0611  -31.5889   20.6039 H   0  0  0  0  0  0
  -26.8266  -30.8707   21.9920 H   0  0  0  0  0  0
  -28.1002  -29.0557   21.1816 H   0  0  0  0  0  0
  -26.0252  -26.0011   18.9400 H   0  0  0  0  0  0
  -23.9676  -27.3287   18.9991 H   0  0  0  0  0  0
  -23.7259  -30.6097   19.4089 H   0  0  0  0  0  0
  -22.7368  -29.2569   19.8656 H   0  0  0  0  0  0
  -25.1283  -36.1972   25.0836 H   0  0  0  0  0  0
  -20.9981  -28.3278   24.1447 H   0  0  0  0  0  0
  -20.5658  -26.2266   23.3660 H   0  0  0  0  0  0
  -21.6682  -26.7420   22.1304 H   0  0  0  0  0  0
  -19.6976  -25.6318   21.1213 H   0  0  0  0  0  0
  -19.6788  -27.3251   20.6780 H   0  0  0  0  0  0
  -17.4275  -26.6719   21.3929 H   0  0  0  0  0  0
  -18.0345  -26.0016   22.8924 H   0  0  0  0  0  0
  -19.7912  -30.7278   24.2246 H   0  0  0  0  0  0
  -17.4970  -31.6247   24.5120 H   0  0  0  0  0  0
  -15.5327  -30.2926   23.7613 H   0  0  0  0  0  0
  -15.8695  -28.0772   22.7016 H   0  0  0  0  0  0
  -24.5894  -30.7106   25.7821 H   0  0  0  0  0  0
  -24.9005  -32.2868   26.5002 H   0  0  0  0  0  0
  -25.8111  -30.8815   27.0212 H   0  0  0  0  0  0
  -26.2881  -29.6793   24.1173 H   0  0  0  0  0  0
  -27.4084  -29.7279   25.4597 H   0  0  0  0  0  0
  -27.8723  -30.4356   23.9297 H   0  0  0  0  0  0
  -27.2675  -33.3594   26.2125 H   0  0  0  0  0  0
  -28.3845  -32.6920   25.0323 H   0  0  0  0  0  0
  -28.0754  -31.8424   26.5383 H   0  0  0  0  0  0
  -28.2613  -38.0099   24.7489 H   0  0  0  0  0  0
  -28.1052  -36.2628   24.6322 H   0  0  0  0  0  0
  -27.2295  -37.1502   25.8876 H   0  0  0  0  0  0
  -20.9318  -29.8724   21.6908 H   0  0  0  0  0  0
  -26.0181  -38.2869   24.1393 H   0  0  0  0  0  0
  -24.3823  -20.9301   19.3386 H   0  0  0  0  0  0
  -24.7518  -22.7297   19.1360 H   0  0  0  0  0  0
  -26.6854  -20.3751   19.2001 H   0  0  0  0  0  0
  -27.8384  -16.5550   20.2421 H   0  0  0  0  0  0
  -27.6142  -18.1278   19.5533 H   0  0  0  0  0  0
  -27.7157  -17.9371   21.3124 H   0  0  0  0  0  0
  -30.9501  -21.2124   21.8856 H   0  0  0  0  0  0
  -29.3093  -21.5084   22.4595 H   0  0  0  0  0  0
  -30.3444  -22.8360   21.9604 H   0  0  0  0  0  0
  -31.8346  -20.3784   19.8452 H   0  0  0  0  0  0
  -31.1345  -19.4276   18.5407 H   0  0  0  0  0  0
  -32.1088  -18.6485   19.7822 H   0  0  0  0  0  0
  -27.0491  -23.3613   18.6452 H   0  0  0  0  0  0
  -28.1217  -22.1456   18.0423 H   0  0  0  0  0  0
  -30.0375  -24.2576   20.4504 H   0  0  0  0  0  0
  -29.2272  -24.3562   18.9385 H   0  0  0  0  0  0
  -31.4518  -16.9382   21.2458 H   0  0  0  0  0  0
  -30.1080  -17.1426   22.3278 H   0  0  0  0  0  0
  -28.2544  -25.2572   21.6704 H   0  0  0  0  0  0
  -27.0988  -24.9121   20.4456 H   0  0  0  0  0  0
  -28.8088  -20.1451   19.0999 H   0  0  0  0  0  0
  -28.2362  -20.0983   20.7737 H   0  0  0  0  0  0
  -27.8424  -22.6755   21.0360 H   0  0  0  0  0  0
  -29.9310  -17.4243   19.2833 H   0  0  0  0  0  0
  -29.0934  -15.1437   21.5581 H   0  0  0  0  0  0
  -30.3896  -19.3120   21.3760 H   0  0  0  0  0  0
  1 25  1  0  0  0
  1 30  2  0  0  0
  1 83  1  0  0  0
  2  3  1  0  0  0
  2 25  1  0  0  0
  2 86  1  0  0  0
  2 87  1  0  0  0
  3  4  1  0  0  0
  3 88  1  0  0  0
  3 89  1  0  0  0
  4  5  1  0  0  0
  4 90  1  0  0  0
  4 91  1  0  0  0
  5  6  1  0  0  0
  5 26  1  0  0  0
  5 92  1  0  0  0
  6 25  1  0  0  0
  6 93  1  0  0  0
  6 94  1  0  0  0
  7  8  2  0  0  0
  7 26  1  0  0  0
  7 29  1  0  0  0
  8  9  1  0  0  0
  8 22  1  0  0  0
  9 10  1  0  0  0
  9 27  2  0  0  0
 10 11  2  0  0  0
 10 15  1  0  0  0
 11 12  1  0  0  0
 11 95  1  0  0  0
 12 13  2  0  0  0
 12 96  1  0  0  0
 13 14  1  0  0  0
 13 31  1  0  0  0
 14 15  2  0  0  0
 14 97  1  0  0  0
 15 98  1  0  0  0
 16 17  2  0  0  0
 16 21  1  0  0  0
 16 31  1  0  0  0
 17 18  1  0  0  0
 17 99  1  0  0  0
 18 19  2  0  0  0
 18100  1  0  0  0
 19 20  1  0  0  0
 19 24  1  0  0  0
 20 21  2  0  0  0
 20101  1  0  0  0
 21 23  1  0  0  0
 22 28  1  0  0  0
 22 32  2  0  0  0
 26 27  1  0  0  0
 28102  1  0  0  0
 28103  1  0  0  0
 29104  1  0  0  0
 29105  1  0  0  0
 33 34  1  0  0  0
 33 66  1  0  0  0
 33 70  2  0  0  0
 34 36  1  0  0  0
 34 59  1  0  0  0
 34106  1  0  0  0
 35 44  2  0  0  0
 35 45  1  0  0  0
 35 68  1  0  0  0
 36 56  1  0  0  0
 36107  1  0  0  0
 37 39  1  0  0  0
 37 47  1  0  0  0
 37 66  1  0  0  0
 37108  1  0  0  0
 38 43  2  0  0  0
 38 46  1  0  0  0
 38 47  1  0  0  0
 39 64  1  0  0  0
 39 67  2  0  0  0
 40 52  1  0  0  0
 40 53  2  0  0  0
 40 58  1  0  0  0
 41109  1  0  0  0
 41110  1  0  0  0
 41111  1  0  0  0
 41 48  1  0  0  0
 42 43  1  0  0  0
 42 66  1  0  0  0
 42112  1  0  0  0
 42113  1  0  0  0
 43 44  1  0  0  0
 44114  1  0  0  0
 45 46  2  0  0  0
 45115  1  0  0  0
 46116  1  0  0  0
 47117  1  0  0  0
 47118  1  0  0  0
 48 56  1  0  0  0
 48 65  1  0  0  0
 48119  1  0  0  0
 49 50  1  0  0  0
 49 53  1  0  0  0
 49 64  1  0  0  0
 49120  1  0  0  0
 50 51  1  0  0  0
 50121  1  0  0  0
 50122  1  0  0  0
 51 52  1  0  0  0
 51123  1  0  0  0
 51124  1  0  0  0
 52125  1  0  0  0
 52126  1  0  0  0
 53 54  1  0  0  0
 54 55  2  0  0  0
 54127  1  0  0  0
 55 57  1  0  0  0
 55128  1  0  0  0
 56 69  2  0  0  0
 57 58  2  0  0  0
 57129  1  0  0  0
 58130  1  0  0  0
 59 60  1  0  0  0
 59 61  1  0  0  0
 59 62  1  0  0  0
 60131  1  0  0  0
 60132  1  0  0  0
 60133  1  0  0  0
 61134  1  0  0  0
 61135  1  0  0  0
 61136  1  0  0  0
 62137  1  0  0  0
 62138  1  0  0  0
 62139  1  0  0  0
 63 65  1  0  0  0
 63140  1  0  0  0
 63141  1  0  0  0
 63142  1  0  0  0
 64143  1  0  0  0
 65144  1  0  0  0
 68 79  1  0  0  0
 71 72  2  0  0  0
 71145  1  0  0  0
 71146  1  0  0  0
 72 76  1  0  0  0
 72147  1  0  0  0
 73148  1  0  0  0
 73149  1  0  0  0
 73150  1  0  0  0
 73 82  1  0  0  0
 74 84  1  0  0  0
 74151  1  0  0  0
 74152  1  0  0  0
 74153  1  0  0  0
 75154  1  0  0  0
 75155  1  0  0  0
 75156  1  0  0  0
 75 85  1  0  0  0
 76157  1  0  0  0
 76158  1  0  0  0
 76 81  1  0  0  0
 77 79  1  0  0  0
 77 81  1  0  0  0
 77159  1  0  0  0
 77160  1  0  0  0
 78 82  1  0  0  0
 78 83  1  0  0  0
 78161  1  0  0  0
 78162  1  0  0  0
 79163  1  0  0  0
 79164  1  0  0  0
 80 84  1  0  0  0
 80 85  1  0  0  0
 80165  1  0  0  0
 80166  1  0  0  0
 81 84  1  0  0  0
 81167  1  0  0  0
 82 85  1  0  0  0
 82168  1  0  0  0
 83169  1  0  0  0
 85170  1  0  0  0
M  CHG  1  85   1
M  ISO  4   1 100  68 101  79 101  83 100
M  END
> <chiral flag>
0

> <version>
0

> <s_m_source_file>
/data/baiqing/PycharmProjects/Reinvent-master-3.2/result/LINK_invent/BTK/process_docking_weight1_custom_sum_contain_oxygen_bond_distance_aromatic_linkinvent_7_9_3/rearranged_h_0106.sdf

> <i_m_source_file_index>
71

> <r_mmod_Potential_Energy-OPLS-2005>
-90.2410202026367

> <r_mmod_Stretch_Energy-OPLS-2005>
51.4435768127441

> <r_mmod_Bend_Energy-OPLS-2005>
116.134078979492

> <r_mmod_Torsional_Energy-OPLS-2005>
247.669509887695

> <r_mmod_Improper_Torsional_Energy-OPLS-2005>
3.77404427528381

> <r_mmod_Van_der_Waal_Energy-OPLS-2005>
158.121994018555

> <r_mmod_Electrostatic_Energy-OPLS-2005>
-261.626647949219

> <r_mmod_Solvation_Energy-OPLS-2005>
-421.083892822266

> <b_mmod_Minimization_Converged-OPLS-2005>
0

> <r_mmod_RMS_Derivative-OPLS-2005>
3.34973430633545

$$$$
72
                    3D
 Structure written by MMmdl.
157165  0  0  1  0            999 V2000
  -30.4202  -15.3376   20.3697 C   0  0  0  0  0  0
  -30.4354  -12.8558   19.5450 C   0  0  0  0  0  0
  -29.5415  -12.5978   18.3034 C   0  0  0  0  0  0
  -28.0902  -12.3137   18.7233 C   0  0  0  0  0  0
  -27.6108  -13.2869   19.8280 C   0  0  2  0  0  0
  -28.6409  -13.4833   20.9637 C   0  0  0  0  0  0
  -25.2383  -13.8265   20.5776 C   0  0  0  0  0  0
  -24.1740  -13.0443   20.9265 C   0  0  0  0  0  0
  -24.6413  -11.6948   20.8770 C   0  0  0  0  0  0
  -23.9104  -10.4301   21.0407 C   0  0  0  0  0  0
  -24.3643   -9.4210   21.9182 C   0  0  0  0  0  0
  -23.6309   -8.2248   22.0755 C   0  0  0  0  0  0
  -22.4289   -8.0289   21.3545 C   0  0  0  0  0  0
  -21.9935   -9.0269   20.4646 C   0  0  0  0  0  0
  -22.7275  -10.2144   20.3054 C   0  0  0  0  0  0
  -21.6857   -6.0748   22.5278 C   0  0  0  0  0  0
  -21.4015   -6.5642   23.8214 C   0  0  0  0  0  0
  -21.3663   -5.6789   24.9171 C   0  0  0  0  0  0
  -21.6047   -4.3056   24.7218 C   0  0  0  0  0  0
  -21.8817   -3.8152   23.4335 C   0  0  0  0  0  0
  -21.9195   -4.6973   22.3396 C   0  0  0  0  0  0
  -22.7757  -13.5189   21.1906 C   0  0  0  0  0  0
  -22.1665   -4.2158   21.0973 F   0  0  0  0  0  0
  -21.5625   -3.4537   25.7727 F   0  0  0  0  0  0
  -29.8662  -14.0150   20.3405 N   0  0  0  0  0  0
  -26.2819  -12.9561   20.3252 N   0  0  0  0  0  0
  -25.9354  -11.6653   20.5727 N   0  0  0  0  0  0
  -22.0421  -12.8172   22.0459 N   0  0  0  0  0  0
  -25.3992  -15.2007   20.4229 N   0  0  0  0  0  0
  -31.6346  -15.3241   20.1145 O   0  0  0  0  0  0
  -21.6643   -6.8895   21.4243 O   0  0  0  0  0  0
  -22.3435  -14.5485   20.6739 O   0  0  0  0  0  0
  -24.6686  -31.8205   23.1697 C   0  0  0  0  0  0
  -25.9345  -32.4576   23.8179 C   0  0  1  0  0  0
  -27.1981  -26.8477   20.2062 C   0  0  0  0  0  0
  -25.5990  -33.8397   24.2071 N   0  0  0  0  0  0
  -23.4877  -30.4317   21.5201 C   0  0  2  0  0  0
  -24.9463  -28.8168   20.1152 C   0  0  0  0  0  0
  -22.7712  -29.4410   22.4755 C   0  0  0  0  0  0
  -18.0345  -28.1410   22.8471 C   0  0  0  0  0  0
  -24.1492  -36.7186   23.2645 C   0  0  0  0  0  0
  -26.0638  -30.5960   21.4243 C   0  0  0  0  0  0
  -26.1283  -29.1770   20.7762 C   0  0  0  0  0  0
  -27.2468  -28.2115   20.8090 C   0  0  0  0  0  0
  -26.0222  -26.7098   19.4298 C   0  0  0  0  0  0
  -24.9233  -27.6040   19.4186 C   0  0  0  0  0  0
  -23.7381  -29.7543   20.1459 C   0  0  0  0  0  0
  -25.4131  -36.2961   24.0305 C   0  0  1  0  0  0
  -20.5970  -28.3767   23.1170 C   0  0  2  0  0  0
  -20.6817  -26.9437   22.5402 C   0  0  0  0  0  0
  -19.5788  -26.6378   21.5219 C   0  0  0  0  0  0
  -18.1974  -26.7939   22.1624 C   0  0  0  0  0  0
  -19.1606  -28.8912   23.2805 C   0  0  0  0  0  0
  -18.9505  -30.1501   23.8840 C   0  0  0  0  0  0
  -17.6493  -30.6593   24.0565 C   0  0  0  0  0  0
  -25.9097  -34.9342   23.5005 C   0  0  0  0  0  0
  -16.5389  -29.9080   23.6347 C   0  0  0  0  0  0
  -16.7324  -28.6506   23.0361 C   0  0  0  0  0  0
  -26.4573  -31.6528   25.0724 C   0  0  0  0  0  0
  -25.3681  -31.3822   26.1371 C   0  0  0  0  0  0
  -27.0464  -30.2870   24.6529 C   0  0  0  0  0  0
  -27.6064  -32.4338   25.7523 C   0  0  0  0  0  0
  -27.5565  -37.1759   24.8470 C   0  0  0  0  0  0
  -21.4374  -29.3034   22.3505 N   0  0  0  0  0  0
  -26.4271  -37.3698   23.9412 N   0  0  0  0  0  0
  -24.7612  -30.9795   22.0897 N   0  0  0  0  0  0
  -23.4224  -28.7979   23.3024 O   0  0  0  0  0  0
  -28.1271  -25.6409   20.2237 O   0  0  0  0  0  0
  -26.5717  -34.8888   22.4609 O   0  0  0  0  0  0
  -23.5736  -32.1228   23.6732 O   0  0  0  0  0  0
  -29.1201  -21.3465   20.0502 C   0  0  0  0  0  0
  -28.4748  -20.1440   21.6982 C   0  0  0  0  0  0
  -29.1835  -19.8718   20.5661 C   0  0  0  0  0  0
  -28.4268  -22.4159   20.8028 C   0  0  0  0  0  0
  -26.0679  -20.7797   23.3238 C   0  0  0  0  0  0
  -28.2817  -24.6963   22.2843 C   0  0  0  0  0  0
  -26.2863  -23.9875   20.7604 C   0  0  0  0  0  0
  -29.9085  -18.2771   20.1348 C   0  0  0  0  0  0
  -27.2220  -21.7654   23.0560 C   0  0  0  0  0  0
  -27.8179  -24.1341   20.9151 C   0  0  0  0  0  0
  -28.0120  -21.4883   21.8379 N   0  0  0  0  0  0
  -29.6701  -16.6339   20.4831 N   0  0  0  0  0  0
  -31.4544  -13.0585   19.2141 H   0  0  0  0  0  0
  -30.5078  -11.9571   20.1598 H   0  0  0  0  0  0
  -29.9330  -11.7660   17.7160 H   0  0  0  0  0  0
  -29.5681  -13.4740   17.6538 H   0  0  0  0  0  0
  -28.0453  -11.2886   19.0920 H   0  0  0  0  0  0
  -27.4267  -12.3597   17.8590 H   0  0  0  0  0  0
  -27.5197  -14.2510   19.3264 H   0  0  0  0  0  0
  -28.8234  -12.5537   21.5048 H   0  0  0  0  0  0
  -28.2687  -14.1996   21.6978 H   0  0  0  0  0  0
  -25.2784   -9.5685   22.4764 H   0  0  0  0  0  0
  -24.0014   -7.4640   22.7482 H   0  0  0  0  0  0
  -21.0863   -8.8798   19.8958 H   0  0  0  0  0  0
  -22.3733  -10.9682   19.6165 H   0  0  0  0  0  0
  -21.2006   -7.6150   23.9714 H   0  0  0  0  0  0
  -21.1486   -6.0521   25.9070 H   0  0  0  0  0  0
  -22.0596   -2.7615   23.2828 H   0  0  0  0  0  0
  -22.4049  -11.9827   22.4819 H   0  0  0  0  0  0
  -21.1037  -13.1190   22.2680 H   0  0  0  0  0  0
  -24.6264  -15.8474   20.5338 H   0  0  0  0  0  0
  -26.2364  -15.6439   20.0696 H   0  0  0  0  0  0
  -26.7426  -32.5111   23.0898 H   0  0  0  0  0  0
  -25.0099  -33.9472   25.0203 H   0  0  0  0  0  0
  -22.8018  -31.2640   21.3474 H   0  0  0  0  0  0
  -23.3769  -35.9500   23.3297 H   0  0  0  0  0  0
  -24.3560  -36.8845   22.2058 H   0  0  0  0  0  0
  -23.7237  -37.6369   23.6708 H   0  0  0  0  0  0
  -26.2543  -31.3264   20.6370 H   0  0  0  0  0  0
  -26.9198  -30.6603   22.0827 H   0  0  0  0  0  0
  -28.1299  -28.4789   21.3728 H   0  0  0  0  0  0
  -25.9078  -25.8198   18.8318 H   0  0  0  0  0  0
  -24.0446  -27.3373   18.8471 H   0  0  0  0  0  0
  -23.9089  -30.5284   19.3965 H   0  0  0  0  0  0
  -22.8471  -29.2184   19.8141 H   0  0  0  0  0  0
  -25.1325  -36.1760   25.0795 H   0  0  0  0  0  0
  -21.0056  -28.3395   24.1295 H   0  0  0  0  0  0
  -20.5690  -26.2386   23.3650 H   0  0  0  0  0  0
  -21.6680  -26.7408   22.1210 H   0  0  0  0  0  0
  -19.6938  -25.6277   21.1284 H   0  0  0  0  0  0
  -19.6721  -27.3157   20.6727 H   0  0  0  0  0  0
  -17.4237  -26.6707   21.4029 H   0  0  0  0  0  0
  -18.0364  -26.0083   22.9019 H   0  0  0  0  0  0
  -19.7981  -30.7351   24.2157 H   0  0  0  0  0  0
  -17.5045  -31.6257   24.5192 H   0  0  0  0  0  0
  -15.5383  -30.2961   23.7688 H   0  0  0  0  0  0
  -15.8737  -28.0809   22.7076 H   0  0  0  0  0  0
  -24.5901  -30.7113   25.7716 H   0  0  0  0  0  0
  -24.8814  -32.3026   26.4602 H   0  0  0  0  0  0
  -25.7899  -30.9153   27.0277 H   0  0  0  0  0  0
  -26.3148  -29.6534   24.1499 H   0  0  0  0  0  0
  -27.3903  -29.7265   25.5232 H   0  0  0  0  0  0
  -27.9143  -30.4009   24.0031 H   0  0  0  0  0  0
  -27.2643  -33.3701   26.1946 H   0  0  0  0  0  0
  -28.3950  -32.6788   25.0395 H   0  0  0  0  0  0
  -28.0641  -31.8555   26.5560 H   0  0  0  0  0  0
  -28.2575  -38.0059   24.7483 H   0  0  0  0  0  0
  -28.1066  -36.2579   24.6330 H   0  0  0  0  0  0
  -27.2280  -37.1443   25.8874 H   0  0  0  0  0  0
  -20.9639  -29.8701   21.6610 H   0  0  0  0  0  0
  -26.0124  -38.2762   24.1408 H   0  0  0  0  0  0
  -29.5890  -21.6142   19.1129 H   0  0  0  0  0  0
  -28.2468  -19.4290   22.4766 H   0  0  0  0  0  0
  -25.5334  -21.0806   24.2255 H   0  0  0  0  0  0
  -26.4019  -19.7578   23.4984 H   0  0  0  0  0  0
  -25.3474  -20.7712   22.5062 H   0  0  0  0  0  0
  -28.3969  -23.9797   23.0876 H   0  0  0  0  0  0
  -27.6284  -25.4921   22.6435 H   0  0  0  0  0  0
  -29.2805  -25.1236   22.1885 H   0  0  0  0  0  0
  -25.8717  -23.0900   21.2061 H   0  0  0  0  0  0
  -26.0339  -23.8902   19.7060 H   0  0  0  0  0  0
  -25.7321  -24.8216   21.1878 H   0  0  0  0  0  0
  -29.8794  -18.2909   19.0450 H   0  0  0  0  0  0
  -30.9665  -18.4206   20.3587 H   0  0  0  0  0  0
  -27.9055  -21.7601   23.9056 H   0  0  0  0  0  0
  -26.7650  -22.7456   23.0464 H   0  0  0  0  0  0
  -28.7070  -16.4529   20.7231 H   0  0  0  0  0  0
  1 25  1  0  0  0
  1 30  2  0  0  0
  1 82  1  0  0  0
  2  3  1  0  0  0
  2 25  1  0  0  0
  2 83  1  0  0  0
  2 84  1  0  0  0
  3  4  1  0  0  0
  3 85  1  0  0  0
  3 86  1  0  0  0
  4  5  1  0  0  0
  4 87  1  0  0  0
  4 88  1  0  0  0
  5  6  1  0  0  0
  5 26  1  0  0  0
  5 89  1  0  0  0
  6 25  1  0  0  0
  6 90  1  0  0  0
  6 91  1  0  0  0
  7  8  2  0  0  0
  7 26  1  0  0  0
  7 29  1  0  0  0
  8  9  1  0  0  0
  8 22  1  0  0  0
  9 10  1  0  0  0
  9 27  2  0  0  0
 10 11  2  0  0  0
 10 15  1  0  0  0
 11 12  1  0  0  0
 11 92  1  0  0  0
 12 13  2  0  0  0
 12 93  1  0  0  0
 13 14  1  0  0  0
 13 31  1  0  0  0
 14 15  2  0  0  0
 14 94  1  0  0  0
 15 95  1  0  0  0
 16 17  2  0  0  0
 16 21  1  0  0  0
 16 31  1  0  0  0
 17 18  1  0  0  0
 17 96  1  0  0  0
 18 19  2  0  0  0
 18 97  1  0  0  0
 19 20  1  0  0  0
 19 24  1  0  0  0
 20 21  2  0  0  0
 20 98  1  0  0  0
 21 23  1  0  0  0
 22 28  1  0  0  0
 22 32  2  0  0  0
 26 27  1  0  0  0
 28 99  1  0  0  0
 28100  1  0  0  0
 29101  1  0  0  0
 29102  1  0  0  0
 33 34  1  0  0  0
 33 66  1  0  0  0
 33 70  2  0  0  0
 34 36  1  0  0  0
 34 59  1  0  0  0
 34103  1  0  0  0
 35 44  2  0  0  0
 35 45  1  0  0  0
 35 68  1  0  0  0
 36 56  1  0  0  0
 36104  1  0  0  0
 37 39  1  0  0  0
 37 47  1  0  0  0
 37 66  1  0  0  0
 37105  1  0  0  0
 38 43  2  0  0  0
 38 46  1  0  0  0
 38 47  1  0  0  0
 39 64  1  0  0  0
 39 67  2  0  0  0
 40 52  1  0  0  0
 40 53  2  0  0  0
 40 58  1  0  0  0
 41106  1  0  0  0
 41107  1  0  0  0
 41108  1  0  0  0
 41 48  1  0  0  0
 42 43  1  0  0  0
 42 66  1  0  0  0
 42109  1  0  0  0
 42110  1  0  0  0
 43 44  1  0  0  0
 44111  1  0  0  0
 45 46  2  0  0  0
 45112  1  0  0  0
 46113  1  0  0  0
 47114  1  0  0  0
 47115  1  0  0  0
 48 56  1  0  0  0
 48 65  1  0  0  0
 48116  1  0  0  0
 49 50  1  0  0  0
 49 53  1  0  0  0
 49 64  1  0  0  0
 49117  1  0  0  0
 50 51  1  0  0  0
 50118  1  0  0  0
 50119  1  0  0  0
 51 52  1  0  0  0
 51120  1  0  0  0
 51121  1  0  0  0
 52122  1  0  0  0
 52123  1  0  0  0
 53 54  1  0  0  0
 54 55  2  0  0  0
 54124  1  0  0  0
 55 57  1  0  0  0
 55125  1  0  0  0
 56 69  2  0  0  0
 57 58  2  0  0  0
 57126  1  0  0  0
 58127  1  0  0  0
 59 60  1  0  0  0
 59 61  1  0  0  0
 59 62  1  0  0  0
 60128  1  0  0  0
 60129  1  0  0  0
 60130  1  0  0  0
 61131  1  0  0  0
 61132  1  0  0  0
 61133  1  0  0  0
 62134  1  0  0  0
 62135  1  0  0  0
 62136  1  0  0  0
 63 65  1  0  0  0
 63137  1  0  0  0
 63138  1  0  0  0
 63139  1  0  0  0
 64140  1  0  0  0
 65141  1  0  0  0
 68 80  1  0  0  0
 71 73  1  0  0  0
 71 74  2  0  0  0
 71142  1  0  0  0
 72 73  2  0  0  0
 72 81  1  0  0  0
 72143  1  0  0  0
 73 78  1  0  0  0
 74 80  1  0  0  0
 74 81  1  0  0  0
 75 79  1  0  0  0
 75144  1  0  0  0
 75145  1  0  0  0
 75146  1  0  0  0
 76147  1  0  0  0
 76148  1  0  0  0
 76149  1  0  0  0
 76 80  1  0  0  0
 77 80  1  0  0  0
 77150  1  0  0  0
 77151  1  0  0  0
 77152  1  0  0  0
 78 82  1  0  0  0
 78153  1  0  0  0
 78154  1  0  0  0
 79 81  1  0  0  0
 79155  1  0  0  0
 79156  1  0  0  0
 82157  1  0  0  0
M  ISO  4   1 100  68 101  80 101  82 100
M  END
> <chiral flag>
0

> <version>
0

> <s_m_source_file>
/data/baiqing/PycharmProjects/Reinvent-master-3.2/result/LINK_invent/BTK/process_docking_weight1_custom_sum_contain_oxygen_bond_distance_aromatic_linkinvent_7_9_3/rearranged_h_0106.sdf

> <i_m_source_file_index>
72

> <r_mmod_Potential_Energy-OPLS-2005>
1632.55041503906

> <r_mmod_Stretch_Energy-OPLS-2005>
719.065490722656

> <r_mmod_Bend_Energy-OPLS-2005>
585.906311035156

> <r_mmod_Torsional_Energy-OPLS-2005>
261.822937011719

> <r_mmod_Improper_Torsional_Energy-OPLS-2005>
4.65860939025879

> <r_mmod_Van_der_Waal_Energy-OPLS-2005>
136.47087097168

> <r_mmod_Electrostatic_Energy-OPLS-2005>
-429.914764404297

> <r_mmod_Solvation_Energy-OPLS-2005>
-210.529281616211

> <b_mmod_Minimization_Converged-OPLS-2005>
0

> <r_mmod_RMS_Derivative-OPLS-2005>
1.96666264533997

$$$$
73
                    3D
 Structure written by MMmdl.
164172  0  0  1  0            999 V2000
  -30.5544  -15.0008   20.3514 C   0  0  0  0  0  0
  -30.4391  -12.6165   19.4733 C   0  0  0  0  0  0
  -29.5117  -12.4967   18.2431 C   0  0  0  0  0  0
  -28.0434  -12.3034   18.6749 C   0  0  0  0  0  0
  -27.6171  -13.2417   19.8363 C   0  0  2  0  0  0
  -28.6801  -13.3298   20.9497 C   0  0  0  0  0  0
  -25.2442  -13.8179   20.5784 C   0  0  0  0  0  0
  -24.1755  -13.0402   20.9263 C   0  0  0  0  0  0
  -24.6375  -11.6889   20.8794 C   0  0  0  0  0  0
  -23.9060  -10.4268   21.0427 C   0  0  0  0  0  0
  -24.3605   -9.4174   21.9198 C   0  0  0  0  0  0
  -23.6277   -8.2213   22.0756 C   0  0  0  0  0  0
  -22.4259   -8.0263   21.3550 C   0  0  0  0  0  0
  -21.9911   -9.0236   20.4650 C   0  0  0  0  0  0
  -22.7240  -10.2117   20.3062 C   0  0  0  0  0  0
  -21.6846   -6.0727   22.5281 C   0  0  0  0  0  0
  -21.4011   -6.5634   23.8214 C   0  0  0  0  0  0
  -21.3652   -5.6786   24.9179 C   0  0  0  0  0  0
  -21.6038   -4.3048   24.7231 C   0  0  0  0  0  0
  -21.8816   -3.8137   23.4353 C   0  0  0  0  0  0
  -21.9192   -4.6955   22.3410 C   0  0  0  0  0  0
  -22.7775  -13.5175   21.1904 C   0  0  0  0  0  0
  -22.1655   -4.2139   21.0988 F   0  0  0  0  0  0
  -21.5633   -3.4533   25.7748 F   0  0  0  0  0  0
  -29.9339  -13.7460   20.3038 N   0  0  0  0  0  0
  -26.2856  -12.9380   20.3366 N   0  0  0  0  0  0
  -25.9314  -11.6519   20.5825 N   0  0  0  0  0  0
  -22.0433  -12.8160   22.0459 N   0  0  0  0  0  0
  -25.4139  -15.1906   20.4221 N   0  0  0  0  0  0
  -31.7882  -15.0018   20.2715 O   0  0  0  0  0  0
  -21.6623   -6.8860   21.4242 O   0  0  0  0  0  0
  -22.3466  -14.5489   20.6751 O   0  0  0  0  0  0
  -24.6447  -31.8395   23.1860 C   0  0  0  0  0  0
  -25.9210  -32.4666   23.8261 C   0  0  1  0  0  0
  -27.2234  -27.1119   20.1415 C   0  0  0  0  0  0
  -25.5956  -33.8478   24.2162 N   0  0  0  0  0  0
  -23.4512  -30.4581   21.5315 C   0  0  2  0  0  0
  -24.9026  -28.8852   20.1034 C   0  0  0  0  0  0
  -22.7565  -29.4533   22.4855 C   0  0  0  0  0  0
  -18.0292  -28.1430   22.8477 C   0  0  0  0  0  0
  -24.1487  -36.7238   23.2650 C   0  0  0  0  0  0
  -26.0087  -30.7063   21.3886 C   0  0  0  0  0  0
  -26.0795  -29.3148   20.7295 C   0  0  0  0  0  0
  -27.2356  -28.4421   20.7353 C   0  0  0  0  0  0
  -26.0270  -26.8049   19.4532 C   0  0  0  0  0  0
  -24.8929  -27.6463   19.4466 C   0  0  0  0  0  0
  -23.6761  -29.7838   20.1519 C   0  0  0  0  0  0
  -25.4120  -36.3006   24.0316 C   0  0  1  0  0  0
  -20.5903  -28.3752   23.1233 C   0  0  2  0  0  0
  -20.6778  -26.9458   22.5407 C   0  0  0  0  0  0
  -19.5767  -26.6403   21.5213 C   0  0  0  0  0  0
  -18.1943  -26.7971   22.1613 C   0  0  0  0  0  0
  -19.1551  -28.8912   23.2849 C   0  0  0  0  0  0
  -18.9468  -30.1497   23.8887 C   0  0  0  0  0  0
  -17.6466  -30.6622   24.0575 C   0  0  0  0  0  0
  -25.9070  -34.9389   23.5042 C   0  0  0  0  0  0
  -16.5353  -29.9115   23.6359 C   0  0  0  0  0  0
  -16.7272  -28.6538   23.0367 C   0  0  0  0  0  0
  -26.4547  -31.6551   25.0706 C   0  0  0  0  0  0
  -25.3729  -31.3713   26.1390 C   0  0  0  0  0  0
  -27.0419  -30.2945   24.6308 C   0  0  0  0  0  0
  -27.6074  -32.4342   25.7484 C   0  0  0  0  0  0
  -27.5565  -37.1762   24.8467 C   0  0  0  0  0  0
  -21.4255  -29.3062   22.3596 N   0  0  0  0  0  0
  -26.4270  -37.3729   23.9423 N   0  0  0  0  0  0
  -24.7219  -31.0230   22.0905 N   0  0  0  0  0  0
  -23.4190  -28.8081   23.3016 O   0  0  0  0  0  0
  -28.2632  -26.1029   20.2425 O   0  0  0  0  0  0
  -26.5662  -34.8897   22.4619 O   0  0  0  0  0  0
  -23.5557  -32.1271   23.7059 O   0  0  0  0  0  0
  -27.7068  -21.9595   18.3860 C   0  0  0  0  0  0
  -28.6179  -21.7138   19.4383 C   0  0  0  0  0  0
  -29.2509  -20.3220   19.3800 C   0  0  0  0  0  0
  -29.3595  -19.8300   18.0443 C   0  0  0  0  0  0
  -28.4739  -20.2741   17.0444 C   0  0  0  0  0  0
  -30.5329  -18.9461   17.6115 C   0  0  0  0  0  0
  -28.4779  -19.7074   15.6343 C   0  0  0  0  0  0
  -29.7843  -17.3747   22.2694 C   0  0  0  0  0  0
  -29.4026  -16.2584   18.6429 C   0  0  0  0  0  0
  -29.9125  -19.2620   20.4562 C   0  0  0  0  0  0
  -28.0545  -24.5951   19.8478 C   0  0  0  0  0  0
  -29.4934  -17.6052   20.7738 C   0  0  1  0  0  0
  -28.8181  -23.1154   20.3050 C   0  0  0  0  0  0
  -27.5804  -21.2416   17.2607 N   0  0  0  0  0  0
  -29.8331  -16.2135   20.0410 N   0  0  0  0  0  0
  -28.4597  -22.8459   21.5591 F   0  0  0  0  0  0
  -30.1291  -23.3503   20.2937 F   0  0  0  0  0  0
  -31.4675  -12.7795   19.1454 H   0  0  0  0  0  0
  -30.4489  -11.6874   20.0450 H   0  0  0  0  0  0
  -29.8253  -11.6630   17.6122 H   0  0  0  0  0  0
  -29.6036  -13.3854   17.6192 H   0  0  0  0  0  0
  -27.9336  -11.2653   18.9880 H   0  0  0  0  0  0
  -27.3756  -12.4329   17.8223 H   0  0  0  0  0  0
  -27.5311  -14.2297   19.3994 H   0  0  0  0  0  0
  -28.7939  -12.3758   21.4655 H   0  0  0  0  0  0
  -28.3838  -14.0617   21.7031 H   0  0  0  0  0  0
  -25.2753   -9.5647   22.4772 H   0  0  0  0  0  0
  -23.9984   -7.4591   22.7464 H   0  0  0  0  0  0
  -21.0852   -8.8754   19.8940 H   0  0  0  0  0  0
  -22.3705  -10.9656   19.6161 H   0  0  0  0  0  0
  -21.1996   -7.6142   23.9721 H   0  0  0  0  0  0
  -21.1475   -6.0518   25.9084 H   0  0  0  0  0  0
  -22.0604   -2.7602   23.2860 H   0  0  0  0  0  0
  -22.4046  -11.9796   22.4819 H   0  0  0  0  0  0
  -21.1052  -13.1182   22.2670 H   0  0  0  0  0  0
  -24.6547  -15.8516   20.5422 H   0  0  0  0  0  0
  -26.2842  -15.6315   20.1540 H   0  0  0  0  0  0
  -26.7270  -32.5255   23.0987 H   0  0  0  0  0  0
  -25.0100  -33.9615   25.0309 H   0  0  0  0  0  0
  -22.7551  -31.2845   21.3731 H   0  0  0  0  0  0
  -23.3744  -35.9570   23.3281 H   0  0  0  0  0  0
  -24.3585  -36.8895   22.2068 H   0  0  0  0  0  0
  -23.7233  -37.6419   23.6716 H   0  0  0  0  0  0
  -26.1620  -31.4591   20.6140 H   0  0  0  0  0  0
  -26.8797  -30.7605   22.0306 H   0  0  0  0  0  0
  -28.1285  -28.7653   21.2525 H   0  0  0  0  0  0
  -25.9263  -25.8728   18.9204 H   0  0  0  0  0  0
  -24.0033  -27.3187   18.9286 H   0  0  0  0  0  0
  -23.8006  -30.5544   19.3906 H   0  0  0  0  0  0
  -22.7919  -29.2182   19.8506 H   0  0  0  0  0  0
  -25.1300  -36.1822   25.0807 H   0  0  0  0  0  0
  -20.9996  -28.3339   24.1354 H   0  0  0  0  0  0
  -20.5673  -26.2369   23.3625 H   0  0  0  0  0  0
  -21.6645  -26.7473   22.1207 H   0  0  0  0  0  0
  -19.6942  -25.6305   21.1268 H   0  0  0  0  0  0
  -19.6716  -27.3189   20.6726 H   0  0  0  0  0  0
  -17.4212  -26.6715   21.4013 H   0  0  0  0  0  0
  -18.0341  -26.0122   22.9016 H   0  0  0  0  0  0
  -19.7943  -30.7316   24.2255 H   0  0  0  0  0  0
  -17.5023  -31.6309   24.5168 H   0  0  0  0  0  0
  -15.5351  -30.3016   23.7721 H   0  0  0  0  0  0
  -15.8663  -28.0852   22.7099 H   0  0  0  0  0  0
  -24.5998  -30.6969   25.7696 H   0  0  0  0  0  0
  -24.8817  -32.2857   26.4715 H   0  0  0  0  0  0
  -25.8026  -30.8973   27.0219 H   0  0  0  0  0  0
  -26.3032  -29.6658   24.1322 H   0  0  0  0  0  0
  -27.4013  -29.7276   25.4901 H   0  0  0  0  0  0
  -27.8957  -30.4153   23.9639 H   0  0  0  0  0  0
  -27.2682  -33.3711   26.1918 H   0  0  0  0  0  0
  -28.3955  -32.6777   25.0347 H   0  0  0  0  0  0
  -28.0674  -31.8551   26.5500 H   0  0  0  0  0  0
  -28.2543  -38.0092   24.7522 H   0  0  0  0  0  0
  -28.1086  -36.2610   24.6262 H   0  0  0  0  0  0
  -27.2297  -37.1365   25.8874 H   0  0  0  0  0  0
  -20.9478  -29.8738   21.6733 H   0  0  0  0  0  0
  -26.0111  -38.2783   24.1437 H   0  0  0  0  0  0
  -27.0781  -22.8329   18.3708 H   0  0  0  0  0  0
  -31.0247  -18.3927   18.4063 H   0  0  0  0  0  0
  -31.3020  -19.5796   17.1675 H   0  0  0  0  0  0
  -30.2458  -18.2250   16.8480 H   0  0  0  0  0  0
  -29.4732  -19.7658   15.1931 H   0  0  0  0  0  0
  -27.7974  -20.2501   14.9783 H   0  0  0  0  0  0
  -28.1639  -18.6639   15.6432 H   0  0  0  0  0  0
  -29.3644  -18.1662   22.8901 H   0  0  0  0  0  0
  -30.8584  -17.3431   22.4600 H   0  0  0  0  0  0
  -29.3532  -16.4395   22.6309 H   0  0  0  0  0  0
  -28.7534  -17.1089   18.4377 H   0  0  0  0  0  0
  -28.8514  -15.3817   18.3254 H   0  0  0  0  0  0
  -30.2754  -16.2956   17.9920 H   0  0  0  0  0  0
  -29.7263  -19.7940   21.3885 H   0  0  0  0  0  0
  -30.9968  -19.3341   20.3683 H   0  0  0  0  0  0
  -26.9995  -24.3915   20.0188 H   0  0  0  0  0  0
  -28.1755  -24.6552   18.7661 H   0  0  0  0  0  0
  -28.4042  -17.6252   20.7267 H   0  0  0  0  0  0
  1 25  1  0  0  0
  1 30  2  0  0  0
  1 85  1  0  0  0
  2  3  1  0  0  0
  2 25  1  0  0  0
  2 88  1  0  0  0
  2 89  1  0  0  0
  3  4  1  0  0  0
  3 90  1  0  0  0
  3 91  1  0  0  0
  4  5  1  0  0  0
  4 92  1  0  0  0
  4 93  1  0  0  0
  5  6  1  0  0  0
  5 26  1  0  0  0
  5 94  1  0  0  0
  6 25  1  0  0  0
  6 95  1  0  0  0
  6 96  1  0  0  0
  7  8  2  0  0  0
  7 26  1  0  0  0
  7 29  1  0  0  0
  8  9  1  0  0  0
  8 22  1  0  0  0
  9 10  1  0  0  0
  9 27  2  0  0  0
 10 11  2  0  0  0
 10 15  1  0  0  0
 11 12  1  0  0  0
 11 97  1  0  0  0
 12 13  2  0  0  0
 12 98  1  0  0  0
 13 14  1  0  0  0
 13 31  1  0  0  0
 14 15  2  0  0  0
 14 99  1  0  0  0
 15100  1  0  0  0
 16 17  2  0  0  0
 16 21  1  0  0  0
 16 31  1  0  0  0
 17 18  1  0  0  0
 17101  1  0  0  0
 18 19  2  0  0  0
 18102  1  0  0  0
 19 20  1  0  0  0
 19 24  1  0  0  0
 20 21  2  0  0  0
 20103  1  0  0  0
 21 23  1  0  0  0
 22 28  1  0  0  0
 22 32  2  0  0  0
 26 27  1  0  0  0
 28104  1  0  0  0
 28105  1  0  0  0
 29106  1  0  0  0
 29107  1  0  0  0
 33 34  1  0  0  0
 33 66  1  0  0  0
 33 70  2  0  0  0
 34 36  1  0  0  0
 34 59  1  0  0  0
 34108  1  0  0  0
 35 44  2  0  0  0
 35 45  1  0  0  0
 35 68  1  0  0  0
 36 56  1  0  0  0
 36109  1  0  0  0
 37 39  1  0  0  0
 37 47  1  0  0  0
 37 66  1  0  0  0
 37110  1  0  0  0
 38 43  2  0  0  0
 38 46  1  0  0  0
 38 47  1  0  0  0
 39 64  1  0  0  0
 39 67  2  0  0  0
 40 52  1  0  0  0
 40 53  2  0  0  0
 40 58  1  0  0  0
 41111  1  0  0  0
 41112  1  0  0  0
 41113  1  0  0  0
 41 48  1  0  0  0
 42 43  1  0  0  0
 42 66  1  0  0  0
 42114  1  0  0  0
 42115  1  0  0  0
 43 44  1  0  0  0
 44116  1  0  0  0
 45 46  2  0  0  0
 45117  1  0  0  0
 46118  1  0  0  0
 47119  1  0  0  0
 47120  1  0  0  0
 48 56  1  0  0  0
 48 65  1  0  0  0
 48121  1  0  0  0
 49 50  1  0  0  0
 49 53  1  0  0  0
 49 64  1  0  0  0
 49122  1  0  0  0
 50 51  1  0  0  0
 50123  1  0  0  0
 50124  1  0  0  0
 51 52  1  0  0  0
 51125  1  0  0  0
 51126  1  0  0  0
 52127  1  0  0  0
 52128  1  0  0  0
 53 54  1  0  0  0
 54 55  2  0  0  0
 54129  1  0  0  0
 55 57  1  0  0  0
 55130  1  0  0  0
 56 69  2  0  0  0
 57 58  2  0  0  0
 57131  1  0  0  0
 58132  1  0  0  0
 59 60  1  0  0  0
 59 61  1  0  0  0
 59 62  1  0  0  0
 60133  1  0  0  0
 60134  1  0  0  0
 60135  1  0  0  0
 61136  1  0  0  0
 61137  1  0  0  0
 61138  1  0  0  0
 62139  1  0  0  0
 62140  1  0  0  0
 62141  1  0  0  0
 63 65  1  0  0  0
 63142  1  0  0  0
 63143  1  0  0  0
 63144  1  0  0  0
 64145  1  0  0  0
 65146  1  0  0  0
 68 81  1  0  0  0
 71 72  2  0  0  0
 71 84  1  0  0  0
 71147  1  0  0  0
 72 73  1  0  0  0
 72 83  1  0  0  0
 73 74  2  0  0  0
 73 80  1  0  0  0
 74 75  1  0  0  0
 74 76  1  0  0  0
 75 77  1  0  0  0
 75 84  2  0  0  0
 76148  1  0  0  0
 76149  1  0  0  0
 76150  1  0  0  0
 77151  1  0  0  0
 77152  1  0  0  0
 77153  1  0  0  0
 78154  1  0  0  0
 78155  1  0  0  0
 78156  1  0  0  0
 78 82  1  0  0  0
 79 85  1  0  0  0
 79157  1  0  0  0
 79158  1  0  0  0
 79159  1  0  0  0
 80 82  1  0  0  0
 80160  1  0  0  0
 80161  1  0  0  0
 81 83  1  0  0  0
 81162  1  0  0  0
 81163  1  0  0  0
 82 85  1  0  0  0
 82164  1  0  0  0
 83 86  1  0  0  0
 83 87  1  0  0  0
M  ISO  4   1 100  68 101  81 101  85 100
M  END
> <chiral flag>
0

> <version>
0

> <s_m_source_file>
/data/baiqing/PycharmProjects/Reinvent-master-3.2/result/LINK_invent/BTK/process_docking_weight1_custom_sum_contain_oxygen_bond_distance_aromatic_linkinvent_7_9_3/rearranged_h_0106.sdf

> <i_m_source_file_index>
73

> <r_mmod_Potential_Energy-OPLS-2005>
936.344543457031

> <r_mmod_Stretch_Energy-OPLS-2005>
349.061248779297

> <r_mmod_Bend_Energy-OPLS-2005>
390.119049072266

> <r_mmod_Torsional_Energy-OPLS-2005>
398.941986083984

> <r_mmod_Improper_Torsional_Energy-OPLS-2005>
14.7811489105225

> <r_mmod_Van_der_Waal_Energy-OPLS-2005>
156.690780639648

> <r_mmod_Electrostatic_Energy-OPLS-2005>
-400.833526611328

> <r_mmod_Solvation_Energy-OPLS-2005>
-203.581878662109

> <b_mmod_Minimization_Converged-OPLS-2005>
0

> <r_mmod_RMS_Derivative-OPLS-2005>
2.1605761051178

$$$$
74
                    3D
 Structure written by MMmdl.
160168  0  0  1  0            999 V2000
  -30.5872  -15.0285   20.3850 C   0  0  0  0  0  0
  -30.4363  -12.6408   19.5016 C   0  0  0  0  0  0
  -29.5252  -12.5299   18.2577 C   0  0  0  0  0  0
  -28.0551  -12.3218   18.6712 C   0  0  0  0  0  0
  -27.6251  -13.2673   19.8238 C   0  0  2  0  0  0
  -28.6725  -13.3639   20.9524 C   0  0  0  0  0  0
  -25.2444  -13.8249   20.5705 C   0  0  0  0  0  0
  -24.1795  -13.0454   20.9240 C   0  0  0  0  0  0
  -24.6444  -11.6949   20.8759 C   0  0  0  0  0  0
  -23.9128  -10.4327   21.0397 C   0  0  0  0  0  0
  -24.3664   -9.4220   21.9162 C   0  0  0  0  0  0
  -23.6336   -8.2257   22.0733 C   0  0  0  0  0  0
  -22.4312   -8.0286   21.3517 C   0  0  0  0  0  0
  -21.9955   -9.0275   20.4628 C   0  0  0  0  0  0
  -22.7285  -10.2164   20.3049 C   0  0  0  0  0  0
  -21.6863   -6.0759   22.5280 C   0  0  0  0  0  0
  -21.4023   -6.5643   23.8214 C   0  0  0  0  0  0
  -21.3684   -5.6786   24.9162 C   0  0  0  0  0  0
  -21.6038   -4.3054   24.7204 C   0  0  0  0  0  0
  -21.8820   -3.8156   23.4317 C   0  0  0  0  0  0
  -21.9220   -4.6988   22.3386 C   0  0  0  0  0  0
  -22.7805  -13.5204   21.1858 C   0  0  0  0  0  0
  -22.1654   -4.2166   21.0971 F   0  0  0  0  0  0
  -21.5624   -3.4545   25.7716 F   0  0  0  0  0  0
  -29.9397  -13.7815   20.3306 N   0  0  0  0  0  0
  -26.2888  -12.9522   20.3212 N   0  0  0  0  0  0
  -25.9375  -11.6647   20.5745 N   0  0  0  0  0  0
  -22.0459  -12.8209   22.0437 N   0  0  0  0  0  0
  -25.4088  -15.1954   20.4020 N   0  0  0  0  0  0
  -31.8048  -15.0052   20.1852 O   0  0  0  0  0  0
  -21.6640   -6.8888   21.4234 O   0  0  0  0  0  0
  -22.3480  -14.5508   20.6697 O   0  0  0  0  0  0
  -24.6484  -31.8361   23.1844 C   0  0  0  0  0  0
  -25.9226  -32.4663   23.8254 C   0  0  1  0  0  0
  -27.2291  -27.0896   20.1417 C   0  0  0  0  0  0
  -25.5939  -33.8481   24.2159 N   0  0  0  0  0  0
  -23.4556  -30.4520   21.5343 C   0  0  2  0  0  0
  -24.9054  -28.8661   20.1066 C   0  0  0  0  0  0
  -22.7593  -29.4490   22.4878 C   0  0  0  0  0  0
  -18.0291  -28.1390   22.8481 C   0  0  0  0  0  0
  -24.1478  -36.7253   23.2655 C   0  0  0  0  0  0
  -26.0133  -30.6922   21.3891 C   0  0  0  0  0  0
  -26.0826  -29.2991   20.7277 C   0  0  0  0  0  0
  -27.2390  -28.4267   20.7281 C   0  0  0  0  0  0
  -26.0231  -26.7658   19.4819 C   0  0  0  0  0  0
  -24.8917  -27.6157   19.4683 C   0  0  0  0  0  0
  -23.6846  -29.7749   20.1518 C   0  0  0  0  0  0
  -25.4117  -36.3032   24.0318 C   0  0  1  0  0  0
  -20.5912  -28.3711   23.1243 C   0  0  2  0  0  0
  -20.6776  -26.9411   22.5410 C   0  0  0  0  0  0
  -19.5738  -26.6371   21.5223 C   0  0  0  0  0  0
  -18.1924  -26.7925   22.1631 C   0  0  0  0  0  0
  -19.1548  -28.8872   23.2851 C   0  0  0  0  0  0
  -18.9464  -30.1469   23.8868 C   0  0  0  0  0  0
  -17.6462  -30.6592   24.0555 C   0  0  0  0  0  0
  -25.9075  -34.9392   23.5055 C   0  0  0  0  0  0
  -16.5345  -29.9080   23.6341 C   0  0  0  0  0  0
  -16.7279  -28.6496   23.0364 C   0  0  0  0  0  0
  -26.4520  -31.6571   25.0735 C   0  0  0  0  0  0
  -25.3696  -31.3773   26.1439 C   0  0  0  0  0  0
  -27.0398  -30.2964   24.6358 C   0  0  0  0  0  0
  -27.6038  -32.4346   25.7515 C   0  0  0  0  0  0
  -27.5570  -37.1778   24.8459 C   0  0  0  0  0  0
  -21.4273  -29.3017   22.3619 N   0  0  0  0  0  0
  -26.4271  -37.3751   23.9411 N   0  0  0  0  0  0
  -24.7269  -31.0157   22.0913 N   0  0  0  0  0  0
  -23.4213  -28.8050   23.3071 O   0  0  0  0  0  0
  -28.2994  -26.1105   20.2503 O   0  0  0  0  0  0
  -26.5679  -34.8895   22.4652 O   0  0  0  0  0  0
  -23.5578  -32.1271   23.7024 O   0  0  0  0  0  0
  -30.8262  -20.1933   19.3951 C   0  0  0  0  0  0
  -29.0423  -20.3597   20.5806 C   0  0  0  0  0  0
  -29.9972  -19.3527   20.2122 C   0  0  0  0  0  0
  -30.5837  -21.5605   19.5316 C   0  0  0  0  0  0
  -33.0034  -22.0851   19.0319 C   0  0  0  0  0  0
  -31.7282  -23.7700   20.2165 C   0  0  0  0  0  0
  -31.2585  -23.2531   17.7430 C   0  0  0  0  0  0
  -30.4687  -17.7784   20.6553 C   0  0  0  0  0  0
  -28.5876  -23.1334   20.5771 C   0  0  0  0  0  0
  -28.3671  -24.6148   19.7286 C   0  0  0  0  0  0
  -31.5704  -22.6655   19.1352 C   0  0  0  0  0  0
  -29.3337  -21.7512   20.1626 N   0  0  0  0  0  0
  -29.9058  -16.2938   20.4552 N   0  0  0  0  0  0
  -31.4715  -12.7822   19.1852 H   0  0  0  0  0  0
  -30.4245  -11.7099   20.0735 H   0  0  0  0  0  0
  -29.8553  -11.7068   17.6228 H   0  0  0  0  0  0
  -29.6134  -13.4402   17.6605 H   0  0  0  0  0  0
  -27.9445  -11.2830   18.9823 H   0  0  0  0  0  0
  -27.4004  -12.4510   17.8106 H   0  0  0  0  0  0
  -27.5644  -14.2592   19.3701 H   0  0  0  0  0  0
  -28.7815  -12.4085   21.4694 H   0  0  0  0  0  0
  -28.3622  -14.0925   21.7025 H   0  0  0  0  0  0
  -25.2817   -9.5692   22.4746 H   0  0  0  0  0  0
  -24.0053   -7.4640   22.7459 H   0  0  0  0  0  0
  -21.0869   -8.8835   19.8953 H   0  0  0  0  0  0
  -22.3755  -10.9706   19.6179 H   0  0  0  0  0  0
  -21.2015   -7.6159   23.9720 H   0  0  0  0  0  0
  -21.1473   -6.0506   25.9067 H   0  0  0  0  0  0
  -22.0596   -2.7626   23.2813 H   0  0  0  0  0  0
  -22.4111  -11.9906   22.4879 H   0  0  0  0  0  0
  -21.1057  -13.1206   22.2611 H   0  0  0  0  0  0
  -24.6376  -15.8461   20.4955 H   0  0  0  0  0  0
  -26.2421  -15.6269   20.0221 H   0  0  0  0  0  0
  -26.7299  -32.5235   23.0989 H   0  0  0  0  0  0
  -25.0001  -33.9572   25.0239 H   0  0  0  0  0  0
  -22.7608  -31.2787   21.3750 H   0  0  0  0  0  0
  -23.3746  -35.9572   23.3278 H   0  0  0  0  0  0
  -24.3581  -36.8926   22.2078 H   0  0  0  0  0  0
  -23.7196  -37.6424   23.6714 H   0  0  0  0  0  0
  -26.1733  -31.4445   20.6156 H   0  0  0  0  0  0
  -26.8810  -30.7444   22.0340 H   0  0  0  0  0  0
  -28.1337  -28.7542   21.2397 H   0  0  0  0  0  0
  -25.9156  -25.8064   18.9995 H   0  0  0  0  0  0
  -23.9930  -27.2763   18.9736 H   0  0  0  0  0  0
  -23.8227  -30.5501   19.3957 H   0  0  0  0  0  0
  -22.7957  -29.2195   19.8459 H   0  0  0  0  0  0
  -25.1305  -36.1851   25.0810 H   0  0  0  0  0  0
  -20.9991  -28.3275   24.1370 H   0  0  0  0  0  0
  -20.5631  -26.2331   23.3639 H   0  0  0  0  0  0
  -21.6633  -26.7396   22.1221 H   0  0  0  0  0  0
  -19.6898  -25.6270   21.1263 H   0  0  0  0  0  0
  -19.6671  -27.3168   20.6731 H   0  0  0  0  0  0
  -17.4201  -26.6674   21.4032 H   0  0  0  0  0  0
  -18.0312  -26.0074   22.9028 H   0  0  0  0  0  0
  -19.7946  -30.7293   24.2222 H   0  0  0  0  0  0
  -17.5012  -31.6270   24.5159 H   0  0  0  0  0  0
  -15.5346  -30.2959   23.7687 H   0  0  0  0  0  0
  -15.8684  -28.0804   22.7087 H   0  0  0  0  0  0
  -24.5794  -30.7250   25.7723 H   0  0  0  0  0  0
  -24.9005  -32.2976   26.4923 H   0  0  0  0  0  0
  -25.7949  -30.8841   27.0192 H   0  0  0  0  0  0
  -26.3048  -29.6671   24.1349 H   0  0  0  0  0  0
  -27.3981  -29.7281   25.4950 H   0  0  0  0  0  0
  -27.8952  -30.4197   23.9717 H   0  0  0  0  0  0
  -27.2629  -33.3639   26.2081 H   0  0  0  0  0  0
  -28.3851  -32.6931   25.0359 H   0  0  0  0  0  0
  -28.0730  -31.8509   26.5444 H   0  0  0  0  0  0
  -28.2573  -38.0088   24.7524 H   0  0  0  0  0  0
  -28.1070  -36.2623   24.6244 H   0  0  0  0  0  0
  -27.2313  -37.1389   25.8867 H   0  0  0  0  0  0
  -20.9507  -29.8748   21.6789 H   0  0  0  0  0  0
  -26.0135  -38.2808   24.1419 H   0  0  0  0  0  0
  -31.7030  -19.8210   18.8843 H   0  0  0  0  0  0
  -28.1912  -20.2204   21.2384 H   0  0  0  0  0  0
  -33.2689  -21.5277   19.9330 H   0  0  0  0  0  0
  -33.7546  -22.8644   18.9140 H   0  0  0  0  0  0
  -33.1237  -21.4150   18.1794 H   0  0  0  0  0  0
  -32.1117  -23.3420   21.1413 H   0  0  0  0  0  0
  -30.8307  -24.3108   20.4792 H   0  0  0  0  0  0
  -32.4380  -24.5339   19.8947 H   0  0  0  0  0  0
  -31.4303  -22.5078   16.9632 H   0  0  0  0  0  0
  -31.9096  -24.0982   17.5120 H   0  0  0  0  0  0
  -30.2292  -23.5802   17.6223 H   0  0  0  0  0  0
  -30.6442  -17.8518   21.7294 H   0  0  0  0  0  0
  -31.4871  -17.7057   20.2634 H   0  0  0  0  0  0
  -27.5823  -22.8320   20.8786 H   0  0  0  0  0  0
  -29.0462  -23.4075   21.5258 H   0  0  0  0  0  0
  -27.5552  -24.4584   19.0216 H   0  0  0  0  0  0
  -29.2238  -24.6970   19.0717 H   0  0  0  0  0  0
  -28.8989  -16.2140   20.5238 H   0  0  0  0  0  0
  1 25  1  0  0  0
  1 30  2  0  0  0
  1 83  1  0  0  0
  2  3  1  0  0  0
  2 25  1  0  0  0
  2 84  1  0  0  0
  2 85  1  0  0  0
  3  4  1  0  0  0
  3 86  1  0  0  0
  3 87  1  0  0  0
  4  5  1  0  0  0
  4 88  1  0  0  0
  4 89  1  0  0  0
  5  6  1  0  0  0
  5 26  1  0  0  0
  5 90  1  0  0  0
  6 25  1  0  0  0
  6 91  1  0  0  0
  6 92  1  0  0  0
  7  8  2  0  0  0
  7 26  1  0  0  0
  7 29  1  0  0  0
  8  9  1  0  0  0
  8 22  1  0  0  0
  9 10  1  0  0  0
  9 27  2  0  0  0
 10 11  2  0  0  0
 10 15  1  0  0  0
 11 12  1  0  0  0
 11 93  1  0  0  0
 12 13  2  0  0  0
 12 94  1  0  0  0
 13 14  1  0  0  0
 13 31  1  0  0  0
 14 15  2  0  0  0
 14 95  1  0  0  0
 15 96  1  0  0  0
 16 17  2  0  0  0
 16 21  1  0  0  0
 16 31  1  0  0  0
 17 18  1  0  0  0
 17 97  1  0  0  0
 18 19  2  0  0  0
 18 98  1  0  0  0
 19 20  1  0  0  0
 19 24  1  0  0  0
 20 21  2  0  0  0
 20 99  1  0  0  0
 21 23  1  0  0  0
 22 28  1  0  0  0
 22 32  2  0  0  0
 26 27  1  0  0  0
 28100  1  0  0  0
 28101  1  0  0  0
 29102  1  0  0  0
 29103  1  0  0  0
 33 34  1  0  0  0
 33 66  1  0  0  0
 33 70  2  0  0  0
 34 36  1  0  0  0
 34 59  1  0  0  0
 34104  1  0  0  0
 35 44  2  0  0  0
 35 45  1  0  0  0
 35 68  1  0  0  0
 36 56  1  0  0  0
 36105  1  0  0  0
 37 39  1  0  0  0
 37 47  1  0  0  0
 37 66  1  0  0  0
 37106  1  0  0  0
 38 43  2  0  0  0
 38 46  1  0  0  0
 38 47  1  0  0  0
 39 64  1  0  0  0
 39 67  2  0  0  0
 40 52  1  0  0  0
 40 53  2  0  0  0
 40 58  1  0  0  0
 41107  1  0  0  0
 41108  1  0  0  0
 41109  1  0  0  0
 41 48  1  0  0  0
 42 43  1  0  0  0
 42 66  1  0  0  0
 42110  1  0  0  0
 42111  1  0  0  0
 43 44  1  0  0  0
 44112  1  0  0  0
 45 46  2  0  0  0
 45113  1  0  0  0
 46114  1  0  0  0
 47115  1  0  0  0
 47116  1  0  0  0
 48 56  1  0  0  0
 48 65  1  0  0  0
 48117  1  0  0  0
 49 50  1  0  0  0
 49 53  1  0  0  0
 49 64  1  0  0  0
 49118  1  0  0  0
 50 51  1  0  0  0
 50119  1  0  0  0
 50120  1  0  0  0
 51 52  1  0  0  0
 51121  1  0  0  0
 51122  1  0  0  0
 52123  1  0  0  0
 52124  1  0  0  0
 53 54  1  0  0  0
 54 55  2  0  0  0
 54125  1  0  0  0
 55 57  1  0  0  0
 55126  1  0  0  0
 56 69  2  0  0  0
 57 58  2  0  0  0
 57127  1  0  0  0
 58128  1  0  0  0
 59 60  1  0  0  0
 59 61  1  0  0  0
 59 62  1  0  0  0
 60129  1  0  0  0
 60130  1  0  0  0
 60131  1  0  0  0
 61132  1  0  0  0
 61133  1  0  0  0
 61134  1  0  0  0
 62135  1  0  0  0
 62136  1  0  0  0
 62137  1  0  0  0
 63 65  1  0  0  0
 63138  1  0  0  0
 63139  1  0  0  0
 63140  1  0  0  0
 64141  1  0  0  0
 65142  1  0  0  0
 68 80  1  0  0  0
 71 73  1  0  0  0
 71 74  2  0  0  0
 71143  1  0  0  0
 72 73  2  0  0  0
 72 82  1  0  0  0
 72144  1  0  0  0
 73 78  1  0  0  0
 74 81  1  0  0  0
 74 82  1  0  0  0
 75145  1  0  0  0
 75146  1  0  0  0
 75147  1  0  0  0
 75 81  1  0  0  0
 76 81  1  0  0  0
 76148  1  0  0  0
 76149  1  0  0  0
 76150  1  0  0  0
 77 81  1  0  0  0
 77151  1  0  0  0
 77152  1  0  0  0
 77153  1  0  0  0
 78 83  1  0  0  0
 78154  1  0  0  0
 78155  1  0  0  0
 79 80  1  0  0  0
 79 82  1  0  0  0
 79156  1  0  0  0
 79157  1  0  0  0
 80158  1  0  0  0
 80159  1  0  0  0
 83160  1  0  0  0
M  ISO  4   1 100  68 101  80 101  83 100
M  END
> <chiral flag>
0

> <version>
0

> <s_m_source_file>
/data/baiqing/PycharmProjects/Reinvent-master-3.2/result/LINK_invent/BTK/process_docking_weight1_custom_sum_contain_oxygen_bond_distance_aromatic_linkinvent_7_9_3/rearranged_h_0106.sdf

> <i_m_source_file_index>
74

> <r_mmod_Potential_Energy-OPLS-2005>
699.906494140625

> <r_mmod_Stretch_Energy-OPLS-2005>
338.988891601562

> <r_mmod_Bend_Energy-OPLS-2005>
380.564605712891

> <r_mmod_Torsional_Energy-OPLS-2005>
254.182052612305

> <r_mmod_Improper_Torsional_Energy-OPLS-2005>
9.85478496551514

> <r_mmod_Van_der_Waal_Energy-OPLS-2005>
124.217277526855

> <r_mmod_Electrostatic_Energy-OPLS-2005>
-437.578094482422

> <r_mmod_Solvation_Energy-OPLS-2005>
-212.608383178711

> <b_mmod_Minimization_Converged-OPLS-2005>
0

> <r_mmod_RMS_Derivative-OPLS-2005>
5.88081836700439

$$$$
75
                    3D
 Structure written by MMmdl.
168176  0  0  1  0            999 V2000
  -30.6856  -14.4788   20.5367 C   0  0  0  0  0  0
  -30.4215  -12.2971   19.4273 C   0  0  0  0  0  0
  -29.4969  -12.4978   18.2083 C   0  0  0  0  0  0
  -28.0160  -12.3637   18.6169 C   0  0  0  0  0  0
  -27.6601  -13.2048   19.8721 C   0  0  2  0  0  0
  -28.7006  -12.9875   20.9940 C   0  0  0  0  0  0
  -25.2586  -13.8159   20.5688 C   0  0  0  0  0  0
  -24.1832  -13.0441   20.9173 C   0  0  0  0  0  0
  -24.6373  -11.6904   20.8714 C   0  0  0  0  0  0
  -23.9037  -10.4296   21.0383 C   0  0  0  0  0  0
  -24.3595   -9.4216   21.9170 C   0  0  0  0  0  0
  -23.6277   -8.2249   22.0750 C   0  0  0  0  0  0
  -22.4259   -8.0277   21.3542 C   0  0  0  0  0  0
  -21.9880   -9.0247   20.4642 C   0  0  0  0  0  0
  -22.7206  -10.2129   20.3044 C   0  0  0  0  0  0
  -21.6853   -6.0722   22.5271 C   0  0  0  0  0  0
  -21.4017   -6.5627   23.8204 C   0  0  0  0  0  0
  -21.3663   -5.6783   24.9168 C   0  0  0  0  0  0
  -21.6046   -4.3045   24.7220 C   0  0  0  0  0  0
  -21.8823   -3.8135   23.4343 C   0  0  0  0  0  0
  -21.9195   -4.6949   22.3397 C   0  0  0  0  0  0
  -22.7860  -13.5247   21.1834 C   0  0  0  0  0  0
  -22.1664   -4.2137   21.0975 F   0  0  0  0  0  0
  -21.5627   -3.4533   25.7735 F   0  0  0  0  0  0
  -30.0334  -13.2875   20.4439 N   0  0  0  0  0  0
  -26.3006  -12.9323   20.3337 N   0  0  0  0  0  0
  -25.9296  -11.6482   20.5726 N   0  0  0  0  0  0
  -22.0489  -12.8243   22.0394 N   0  0  0  0  0  0
  -25.4347  -15.1879   20.4139 N   0  0  0  0  0  0
  -31.8396  -14.6250   20.1186 O   0  0  0  0  0  0
  -21.6640   -6.8865   21.4236 O   0  0  0  0  0  0
  -22.3551  -14.5554   20.6682 O   0  0  0  0  0  0
  -24.6133  -31.8682   23.2087 C   0  0  0  0  0  0
  -25.9029  -32.4822   23.8390 C   0  0  1  0  0  0
  -27.2385  -27.4345   20.0875 C   0  0  0  0  0  0
  -25.5888  -33.8619   24.2323 N   0  0  0  0  0  0
  -23.4003  -30.4912   21.5494 C   0  0  2  0  0  0
  -24.8449  -28.9534   20.1157 C   0  0  0  0  0  0
  -22.7399  -29.4657   22.4992 C   0  0  0  0  0  0
  -18.0269  -28.1375   22.8492 C   0  0  0  0  0  0
  -24.1485  -36.7316   23.2637 C   0  0  0  0  0  0
  -25.9283  -30.8324   21.3616 C   0  0  0  0  0  0
  -26.0031  -29.4659   20.7096 C   0  0  0  0  0  0
  -27.1971  -28.7124   20.6930 C   0  0  0  0  0  0
  -26.0535  -26.9272   19.5042 C   0  0  0  0  0  0
  -24.8647  -27.6828   19.5142 C   0  0  0  0  0  0
  -23.6074  -29.8209   20.1645 C   0  0  0  0  0  0
  -25.4102  -36.3114   24.0340 C   0  0  1  0  0  0
  -20.5856  -28.3659   23.1324 C   0  0  2  0  0  0
  -20.6757  -26.9400   22.5415 C   0  0  0  0  0  0
  -19.5737  -26.6394   21.5205 C   0  0  0  0  0  0
  -18.1916  -26.7927   22.1619 C   0  0  0  0  0  0
  -19.1518  -28.8834   23.2909 C   0  0  0  0  0  0
  -18.9449  -30.1438   23.8926 C   0  0  0  0  0  0
  -17.6451  -30.6582   24.0564 C   0  0  0  0  0  0
  -25.9030  -34.9477   23.5130 C   0  0  0  0  0  0
  -16.5343  -29.9085   23.6323 C   0  0  0  0  0  0
  -16.7256  -28.6497   23.0352 C   0  0  0  0  0  0
  -26.4459  -31.6602   25.0721 C   0  0  0  0  0  0
  -25.3724  -31.3716   26.1475 C   0  0  0  0  0  0
  -27.0278  -30.3040   24.6099 C   0  0  0  0  0  0
  -27.6042  -32.4317   25.7477 C   0  0  0  0  0  0
  -27.5580  -37.1810   24.8458 C   0  0  0  0  0  0
  -21.4130  -29.3029   22.3733 N   0  0  0  0  0  0
  -26.4292  -37.3796   23.9407 N   0  0  0  0  0  0
  -24.6653  -31.0789   22.0983 N   0  0  0  0  0  0
  -23.4179  -28.8206   23.3036 O   0  0  0  0  0  0
  -28.4473  -26.7654   20.1004 O   0  0  0  0  0  0
  -26.5598  -34.8928   22.4699 O   0  0  0  0  0  0
  -23.5327  -32.1442   23.7482 O   0  0  0  0  0  0
  -28.7951  -19.0226   20.5805 C   0  0  0  0  0  0
  -28.8761  -17.6763   21.0018 C   0  0  0  0  0  0
  -29.8231  -19.5628   19.7807 C   0  0  0  0  0  0
  -30.9184  -18.7138   19.4907 C   0  0  0  0  0  0
  -29.9782  -16.8794   20.6252 C   0  0  0  0  0  0
  -32.1105  -19.1718   18.6673 C   0  0  0  0  0  0
  -29.3509  -22.1817   16.9322 C   0  0  0  0  0  0
  -27.5722  -20.5912   17.7841 C   0  0  0  0  0  0
  -27.3102  -23.8792   21.0238 C   0  0  0  0  0  0
  -28.6254  -25.4719   19.5043 C   0  0  0  0  0  0
  -29.6345  -23.1685   20.1526 C   0  0  0  0  0  0
  -29.7132  -20.9702   19.1702 C   0  0  1  0  0  0
  -29.0768  -20.9144   17.7561 C   0  0  0  0  0  0
  -28.7035  -24.3449   20.5709 C   0  0  2  0  0  0
  -30.9842  -17.4285   19.9052 N   0  0  0  0  0  0
  -29.9323  -15.5012   20.9976 N   0  0  0  0  0  0
  -28.9743  -21.9072   19.9682 O   0  0  0  0  0  0
  -31.4675  -12.3881   19.1280 H   0  0  0  0  0  0
  -30.3148  -11.2880   19.8282 H   0  0  0  0  0  0
  -29.7358  -11.7712   17.4306 H   0  0  0  0  0  0
  -29.6710  -13.4817   17.7698 H   0  0  0  0  0  0
  -27.8216  -11.3085   18.8118 H   0  0  0  0  0  0
  -27.3711  -12.6414   17.7825 H   0  0  0  0  0  0
  -27.7032  -14.2519   19.5702 H   0  0  0  0  0  0
  -28.6729  -11.9521   21.3370 H   0  0  0  0  0  0
  -28.4649  -13.5904   21.8721 H   0  0  0  0  0  0
  -25.2736   -9.5706   22.4742 H   0  0  0  0  0  0
  -23.9995   -7.4641   22.7465 H   0  0  0  0  0  0
  -21.0812   -8.8745   19.8948 H   0  0  0  0  0  0
  -22.3644  -10.9659   19.6148 H   0  0  0  0  0  0
  -21.2013   -7.6134   23.9700 H   0  0  0  0  0  0
  -21.1481   -6.0514   25.9068 H   0  0  0  0  0  0
  -22.0602   -2.7596   23.2844 H   0  0  0  0  0  0
  -22.4088  -11.9909   22.4796 H   0  0  0  0  0  0
  -21.1107  -13.1283   22.2581 H   0  0  0  0  0  0
  -24.6726  -15.8465   20.5330 H   0  0  0  0  0  0
  -26.2840  -15.6246   20.0803 H   0  0  0  0  0  0
  -26.7099  -32.5527   23.1151 H   0  0  0  0  0  0
  -25.0022  -33.9781   25.0459 H   0  0  0  0  0  0
  -22.6883  -31.3073   21.4096 H   0  0  0  0  0  0
  -23.3745  -35.9648   23.3302 H   0  0  0  0  0  0
  -24.3585  -36.8935   22.2053 H   0  0  0  0  0  0
  -23.7247  -37.6525   23.6652 H   0  0  0  0  0  0
  -26.0409  -31.5982   20.5931 H   0  0  0  0  0  0
  -26.8163  -30.8851   21.9798 H   0  0  0  0  0  0
  -28.0944  -29.1113   21.1448 H   0  0  0  0  0  0
  -26.0135  -25.9529   19.0435 H   0  0  0  0  0  0
  -23.9703  -27.2784   19.0611 H   0  0  0  0  0  0
  -23.7136  -30.5943   19.4024 H   0  0  0  0  0  0
  -22.7311  -29.2391   19.8735 H   0  0  0  0  0  0
  -25.1277  -36.1978   25.0834 H   0  0  0  0  0  0
  -20.9945  -28.3216   24.1443 H   0  0  0  0  0  0
  -20.5650  -26.2262   23.3592 H   0  0  0  0  0  0
  -21.6629  -26.7438   22.1216 H   0  0  0  0  0  0
  -19.6896  -25.6312   21.1221 H   0  0  0  0  0  0
  -19.6678  -27.3209   20.6738 H   0  0  0  0  0  0
  -17.4185  -26.6684   21.4020 H   0  0  0  0  0  0
  -18.0308  -26.0062   22.9006 H   0  0  0  0  0  0
  -19.7924  -30.7241   24.2321 H   0  0  0  0  0  0
  -17.5006  -31.6269   24.5157 H   0  0  0  0  0  0
  -15.5344  -30.2992   23.7635 H   0  0  0  0  0  0
  -15.8655  -28.0815   22.7067 H   0  0  0  0  0  0
  -24.5875  -30.7091   25.7812 H   0  0  0  0  0  0
  -24.8936  -32.2877   26.4944 H   0  0  0  0  0  0
  -25.8075  -30.8864   27.0223 H   0  0  0  0  0  0
  -26.2819  -29.6818   24.1141 H   0  0  0  0  0  0
  -27.4031  -29.7263   25.4560 H   0  0  0  0  0  0
  -27.8662  -30.4352   23.9251 H   0  0  0  0  0  0
  -27.2671  -33.3608   26.2085 H   0  0  0  0  0  0
  -28.3832  -32.6903   25.0290 H   0  0  0  0  0  0
  -28.0730  -31.8425   26.5371 H   0  0  0  0  0  0
  -28.2597  -38.0106   24.7511 H   0  0  0  0  0  0
  -28.1084  -36.2646   24.6271 H   0  0  0  0  0  0
  -27.2307  -37.1448   25.8863 H   0  0  0  0  0  0
  -20.9281  -29.8752   21.6963 H   0  0  0  0  0  0
  -26.0183  -38.2877   24.1404 H   0  0  0  0  0  0
  -27.9316  -19.6200   20.8357 H   0  0  0  0  0  0
  -28.0659  -17.2615   21.5859 H   0  0  0  0  0  0
  -31.8014  -19.5057   17.6773 H   0  0  0  0  0  0
  -32.8361  -18.3687   18.5329 H   0  0  0  0  0  0
  -32.6230  -19.9938   19.1665 H   0  0  0  0  0  0
  -29.0224  -22.0549   15.9005 H   0  0  0  0  0  0
  -30.4160  -22.4144   16.9055 H   0  0  0  0  0  0
  -28.8259  -23.0461   17.3390 H   0  0  0  0  0  0
  -27.1601  -20.5510   16.7756 H   0  0  0  0  0  0
  -27.0127  -21.3445   18.3400 H   0  0  0  0  0  0
  -27.3789  -19.6239   18.2469 H   0  0  0  0  0  0
  -26.7312  -24.7096   21.4281 H   0  0  0  0  0  0
  -27.3833  -23.1214   21.8039 H   0  0  0  0  0  0
  -26.7486  -23.4511   20.1924 H   0  0  0  0  0  0
  -27.9304  -25.2276   18.7035 H   0  0  0  0  0  0
  -29.5906  -25.5517   19.0039 H   0  0  0  0  0  0
  -30.3992  -23.0243   20.9171 H   0  0  0  0  0  0
  -30.1837  -23.4499   19.2541 H   0  0  0  0  0  0
  -30.7382  -21.3280   19.0712 H   0  0  0  0  0  0
  -29.5652  -20.1055   17.2119 H   0  0  0  0  0  0
  -29.1850  -24.7944   21.4409 H   0  0  0  0  0  0
  -29.0711  -15.2081   21.4278 H   0  0  0  0  0  0
  1 25  1  0  0  0
  1 30  2  0  0  0
  1 86  1  0  0  0
  2  3  1  0  0  0
  2 25  1  0  0  0
  2 88  1  0  0  0
  2 89  1  0  0  0
  3  4  1  0  0  0
  3 90  1  0  0  0
  3 91  1  0  0  0
  4  5  1  0  0  0
  4 92  1  0  0  0
  4 93  1  0  0  0
  5  6  1  0  0  0
  5 26  1  0  0  0
  5 94  1  0  0  0
  6 25  1  0  0  0
  6 95  1  0  0  0
  6 96  1  0  0  0
  7  8  2  0  0  0
  7 26  1  0  0  0
  7 29  1  0  0  0
  8  9  1  0  0  0
  8 22  1  0  0  0
  9 10  1  0  0  0
  9 27  2  0  0  0
 10 11  2  0  0  0
 10 15  1  0  0  0
 11 12  1  0  0  0
 11 97  1  0  0  0
 12 13  2  0  0  0
 12 98  1  0  0  0
 13 14  1  0  0  0
 13 31  1  0  0  0
 14 15  2  0  0  0
 14 99  1  0  0  0
 15100  1  0  0  0
 16 17  2  0  0  0
 16 21  1  0  0  0
 16 31  1  0  0  0
 17 18  1  0  0  0
 17101  1  0  0  0
 18 19  2  0  0  0
 18102  1  0  0  0
 19 20  1  0  0  0
 19 24  1  0  0  0
 20 21  2  0  0  0
 20103  1  0  0  0
 21 23  1  0  0  0
 22 28  1  0  0  0
 22 32  2  0  0  0
 26 27  1  0  0  0
 28104  1  0  0  0
 28105  1  0  0  0
 29106  1  0  0  0
 29107  1  0  0  0
 33 34  1  0  0  0
 33 66  1  0  0  0
 33 70  2  0  0  0
 34 36  1  0  0  0
 34 59  1  0  0  0
 34108  1  0  0  0
 35 44  2  0  0  0
 35 45  1  0  0  0
 35 68  1  0  0  0
 36 56  1  0  0  0
 36109  1  0  0  0
 37 39  1  0  0  0
 37 47  1  0  0  0
 37 66  1  0  0  0
 37110  1  0  0  0
 38 43  2  0  0  0
 38 46  1  0  0  0
 38 47  1  0  0  0
 39 64  1  0  0  0
 39 67  2  0  0  0
 40 52  1  0  0  0
 40 53  2  0  0  0
 40 58  1  0  0  0
 41111  1  0  0  0
 41112  1  0  0  0
 41113  1  0  0  0
 41 48  1  0  0  0
 42 43  1  0  0  0
 42 66  1  0  0  0
 42114  1  0  0  0
 42115  1  0  0  0
 43 44  1  0  0  0
 44116  1  0  0  0
 45 46  2  0  0  0
 45117  1  0  0  0
 46118  1  0  0  0
 47119  1  0  0  0
 47120  1  0  0  0
 48 56  1  0  0  0
 48 65  1  0  0  0
 48121  1  0  0  0
 49 50  1  0  0  0
 49 53  1  0  0  0
 49 64  1  0  0  0
 49122  1  0  0  0
 50 51  1  0  0  0
 50123  1  0  0  0
 50124  1  0  0  0
 51 52  1  0  0  0
 51125  1  0  0  0
 51126  1  0  0  0
 52127  1  0  0  0
 52128  1  0  0  0
 53 54  1  0  0  0
 54 55  2  0  0  0
 54129  1  0  0  0
 55 57  1  0  0  0
 55130  1  0  0  0
 56 69  2  0  0  0
 57 58  2  0  0  0
 57131  1  0  0  0
 58132  1  0  0  0
 59 60  1  0  0  0
 59 61  1  0  0  0
 59 62  1  0  0  0
 60133  1  0  0  0
 60134  1  0  0  0
 60135  1  0  0  0
 61136  1  0  0  0
 61137  1  0  0  0
 61138  1  0  0  0
 62139  1  0  0  0
 62140  1  0  0  0
 62141  1  0  0  0
 63 65  1  0  0  0
 63142  1  0  0  0
 63143  1  0  0  0
 63144  1  0  0  0
 64145  1  0  0  0
 65146  1  0  0  0
 68 80  1  0  0  0
 71 72  2  0  0  0
 71 73  1  0  0  0
 71147  1  0  0  0
 72 75  1  0  0  0
 72148  1  0  0  0
 73 74  2  0  0  0
 73 82  1  0  0  0
 74 76  1  0  0  0
 74 85  1  0  0  0
 75 85  2  0  0  0
 75 86  1  0  0  0
 76149  1  0  0  0
 76150  1  0  0  0
 76151  1  0  0  0
 77152  1  0  0  0
 77153  1  0  0  0
 77154  1  0  0  0
 77 83  1  0  0  0
 78 83  1  0  0  0
 78155  1  0  0  0
 78156  1  0  0  0
 78157  1  0  0  0
 79158  1  0  0  0
 79159  1  0  0  0
 79160  1  0  0  0
 79 84  1  0  0  0
 80 84  1  0  0  0
 80161  1  0  0  0
 80162  1  0  0  0
 81 84  1  0  0  0
 81 87  1  0  0  0
 81163  1  0  0  0
 81164  1  0  0  0
 82 83  1  0  0  0
 82 87  1  0  0  0
 82165  1  0  0  0
 83166  1  0  0  0
 84167  1  0  0  0
 86168  1  0  0  0
M  ISO  4   1 100  68 101  80 101  86 100
M  END
> <chiral flag>
0

> <version>
0

> <s_m_source_file>
/data/baiqing/PycharmProjects/Reinvent-master-3.2/result/LINK_invent/BTK/process_docking_weight1_custom_sum_contain_oxygen_bond_distance_aromatic_linkinvent_7_9_3/rearranged_h_0106.sdf

> <i_m_source_file_index>
75

> <r_mmod_Potential_Energy-OPLS-2005>
-159.401382446289

> <r_mmod_Stretch_Energy-OPLS-2005>
39.7261505126953

> <r_mmod_Bend_Energy-OPLS-2005>
120.699104309082

> <r_mmod_Torsional_Energy-OPLS-2005>
244.119537353516

> <r_mmod_Improper_Torsional_Energy-OPLS-2005>
4.39503145217896

> <r_mmod_Van_der_Waal_Energy-OPLS-2005>
154.914474487305

> <r_mmod_Electrostatic_Energy-OPLS-2005>
-513.792785644531

> <r_mmod_Solvation_Energy-OPLS-2005>
-223.878082275391

> <b_mmod_Minimization_Converged-OPLS-2005>
0

> <r_mmod_RMS_Derivative-OPLS-2005>
1.15983748435974

$$$$
76
                    3D
 Structure written by MMmdl.
164172  0  0  1  0            999 V2000
  -30.6150  -14.8748   20.4575 C   0  0  0  0  0  0
  -30.4389  -12.5560   19.4915 C   0  0  0  0  0  0
  -29.5208  -12.5223   18.2514 C   0  0  0  0  0  0
  -28.0503  -12.3261   18.6641 C   0  0  0  0  0  0
  -27.6340  -13.2546   19.8360 C   0  0  2  0  0  0
  -28.6780  -13.2737   20.9759 C   0  0  0  0  0  0
  -25.2468  -13.8256   20.5700 C   0  0  0  0  0  0
  -24.1789  -13.0459   20.9231 C   0  0  0  0  0  0
  -24.6406  -11.6950   20.8748 C   0  0  0  0  0  0
  -23.9089  -10.4310   21.0393 C   0  0  0  0  0  0
  -24.3632   -9.4224   21.9164 C   0  0  0  0  0  0
  -23.6311   -8.2257   22.0737 C   0  0  0  0  0  0
  -22.4294   -8.0290   21.3531 C   0  0  0  0  0  0
  -21.9927   -9.0266   20.4633 C   0  0  0  0  0  0
  -22.7264  -10.2142   20.3040 C   0  0  0  0  0  0
  -21.6867   -6.0738   22.5270 C   0  0  0  0  0  0
  -21.4024   -6.5635   23.8204 C   0  0  0  0  0  0
  -21.3661   -5.6785   24.9166 C   0  0  0  0  0  0
  -21.6047   -4.3048   24.7220 C   0  0  0  0  0  0
  -21.8825   -3.8141   23.4342 C   0  0  0  0  0  0
  -21.9190   -4.6961   22.3397 C   0  0  0  0  0  0
  -22.7790  -13.5213   21.1871 C   0  0  0  0  0  0
  -22.1662   -4.2143   21.0980 F   0  0  0  0  0  0
  -21.5623   -3.4534   25.7736 F   0  0  0  0  0  0
  -29.9662  -13.6519   20.3823 N   0  0  0  0  0  0
  -26.2909  -12.9499   20.3227 N   0  0  0  0  0  0
  -25.9345  -11.6623   20.5733 N   0  0  0  0  0  0
  -22.0431  -12.8207   22.0429 N   0  0  0  0  0  0
  -25.4126  -15.1994   20.4149 N   0  0  0  0  0  0
  -31.8145  -14.9049   20.1697 O   0  0  0  0  0  0
  -21.6655   -6.8890   21.4237 O   0  0  0  0  0  0
  -22.3462  -14.5493   20.6683 O   0  0  0  0  0  0
  -24.6401  -31.8491   23.1953 C   0  0  0  0  0  0
  -25.9199  -32.4722   23.8319 C   0  0  1  0  0  0
  -27.2000  -27.1601   20.1515 C   0  0  0  0  0  0
  -25.5955  -33.8531   24.2215 N   0  0  0  0  0  0
  -23.4419  -30.4728   21.5398 C   0  0  2  0  0  0
  -24.8911  -28.9147   20.1126 C   0  0  0  0  0  0
  -22.7552  -29.4568   22.4870 C   0  0  0  0  0  0
  -18.0294  -28.1423   22.8468 C   0  0  0  0  0  0
  -24.1476  -36.7266   23.2638 C   0  0  0  0  0  0
  -25.9981  -30.7275   21.4002 C   0  0  0  0  0  0
  -26.0649  -29.3410   20.7470 C   0  0  0  0  0  0
  -27.2204  -28.4754   20.7615 C   0  0  0  0  0  0
  -26.0291  -26.8787   19.4156 C   0  0  0  0  0  0
  -24.8855  -27.6944   19.4296 C   0  0  0  0  0  0
  -23.6690  -29.8133   20.1548 C   0  0  0  0  0  0
  -25.4117  -36.3059   24.0307 C   0  0  1  0  0  0
  -20.5901  -28.3736   23.1233 C   0  0  2  0  0  0
  -20.6769  -26.9439   22.5396 C   0  0  0  0  0  0
  -19.5742  -26.6409   21.5198 C   0  0  0  0  0  0
  -18.1931  -26.7954   22.1629 C   0  0  0  0  0  0
  -19.1545  -28.8897   23.2848 C   0  0  0  0  0  0
  -18.9477  -30.1492   23.8880 C   0  0  0  0  0  0
  -17.6474  -30.6606   24.0578 C   0  0  0  0  0  0
  -25.9068  -34.9426   23.5062 C   0  0  0  0  0  0
  -16.5363  -29.9119   23.6342 C   0  0  0  0  0  0
  -16.7282  -28.6545   23.0347 C   0  0  0  0  0  0
  -26.4546  -31.6585   25.0738 C   0  0  0  0  0  0
  -25.3729  -31.3791   26.1420 C   0  0  0  0  0  0
  -27.0377  -30.2956   24.6333 C   0  0  0  0  0  0
  -27.6079  -32.4353   25.7530 C   0  0  0  0  0  0
  -27.5561  -37.1810   24.8477 C   0  0  0  0  0  0
  -21.4250  -29.3056   22.3599 N   0  0  0  0  0  0
  -26.4291  -37.3758   23.9392 N   0  0  0  0  0  0
  -24.7122  -31.0366   22.1001 N   0  0  0  0  0  0
  -23.4193  -28.8102   23.3008 O   0  0  0  0  0  0
  -28.2460  -26.1703   20.1951 O   0  0  0  0  0  0
  -26.5655  -34.8917   22.4641 O   0  0  0  0  0  0
  -23.5524  -32.1368   23.7183 O   0  0  0  0  0  0
  -28.9278  -21.1342   21.5016 C   0  0  0  0  0  0
  -29.1790  -19.7087   21.5709 C   0  0  0  0  0  0
  -29.2932  -21.9467   20.3791 C   0  0  0  0  0  0
  -29.8084  -18.9887   20.5131 C   0  0  0  0  0  0
  -29.8690  -21.1257   19.3368 C   0  0  0  0  0  0
  -31.6611  -22.4832   18.0646 C   0  0  0  0  0  0
  -29.2213  -22.3679   17.1847 C   0  0  0  0  0  0
  -27.6272  -24.6948   22.0146 C   0  0  0  0  0  0
  -26.8726  -23.9722   19.7643 C   0  0  0  0  0  0
  -29.2940  -23.5976   20.3950 C   0  0  0  0  0  0
  -30.5227  -17.5196   20.6237 C   0  0  0  0  0  0
  -30.3409  -21.6897   17.9898 C   0  0  0  0  0  0
  -28.0252  -24.6561   20.5292 C   0  0  0  0  0  0
  -30.1007  -19.7590   19.4224 N   0  0  0  0  0  0
  -29.9193  -16.0850   20.6511 N   0  0  0  0  0  0
  -31.4713  -12.7029   19.1683 H   0  0  0  0  0  0
  -30.4267  -11.6006   20.0181 H   0  0  0  0  0  0
  -29.8304  -11.7261   17.5736 H   0  0  0  0  0  0
  -29.6256  -13.4561   17.6961 H   0  0  0  0  0  0
  -27.9286  -11.2852   18.9607 H   0  0  0  0  0  0
  -27.3956  -12.4763   17.8044 H   0  0  0  0  0  0
  -27.6009  -14.2606   19.4136 H   0  0  0  0  0  0
  -28.7501  -12.3058   21.4754 H   0  0  0  0  0  0
  -28.3861  -13.9973   21.7394 H   0  0  0  0  0  0
  -25.2775   -9.5708   22.4736 H   0  0  0  0  0  0
  -24.0011   -7.4666   22.7471 H   0  0  0  0  0  0
  -21.0851   -8.8814   19.8948 H   0  0  0  0  0  0
  -22.3733  -10.9682   19.6151 H   0  0  0  0  0  0
  -21.2027   -7.6144   23.9715 H   0  0  0  0  0  0
  -21.1470   -6.0508   25.9073 H   0  0  0  0  0  0
  -22.0596   -2.7602   23.2845 H   0  0  0  0  0  0
  -22.4044  -11.9920   22.4908 H   0  0  0  0  0  0
  -21.1020  -13.1200   22.2555 H   0  0  0  0  0  0
  -24.6431  -15.8516   20.5271 H   0  0  0  0  0  0
  -26.2560  -15.6422   20.0748 H   0  0  0  0  0  0
  -26.7255  -32.5344   23.1047 H   0  0  0  0  0  0
  -25.0093  -33.9664   25.0353 H   0  0  0  0  0  0
  -22.7454  -31.2990   21.3896 H   0  0  0  0  0  0
  -23.3728  -35.9611   23.3355 H   0  0  0  0  0  0
  -24.3546  -36.8852   22.2046 H   0  0  0  0  0  0
  -23.7253  -37.6489   23.6631 H   0  0  0  0  0  0
  -26.1497  -31.4787   20.6235 H   0  0  0  0  0  0
  -26.8713  -30.7786   22.0388 H   0  0  0  0  0  0
  -28.1131  -28.7909   21.2855 H   0  0  0  0  0  0
  -25.9672  -26.0121   18.7843 H   0  0  0  0  0  0
  -24.0105  -27.3860   18.8754 H   0  0  0  0  0  0
  -23.8115  -30.5908   19.4037 H   0  0  0  0  0  0
  -22.7847  -29.2582   19.8370 H   0  0  0  0  0  0
  -25.1311  -36.1908   25.0800 H   0  0  0  0  0  0
  -21.0016  -28.3319   24.1346 H   0  0  0  0  0  0
  -20.5642  -26.2350   23.3618 H   0  0  0  0  0  0
  -21.6646  -26.7432   22.1208 H   0  0  0  0  0  0
  -19.6898  -25.6316   21.1243 H   0  0  0  0  0  0
  -19.6675  -27.3212   20.6719 H   0  0  0  0  0  0
  -17.4192  -26.6685   21.4051 H   0  0  0  0  0  0
  -18.0349  -26.0111   22.9047 H   0  0  0  0  0  0
  -19.7951  -30.7308   24.2247 H   0  0  0  0  0  0
  -17.5033  -31.6277   24.5195 H   0  0  0  0  0  0
  -15.5367  -30.3029   23.7661 H   0  0  0  0  0  0
  -15.8684  -28.0874   22.7063 H   0  0  0  0  0  0
  -24.5913  -30.7127   25.7749 H   0  0  0  0  0  0
  -24.8907  -32.2981   26.4752 H   0  0  0  0  0  0
  -25.8010  -30.9034   27.0249 H   0  0  0  0  0  0
  -26.2988  -29.6721   24.1275 H   0  0  0  0  0  0
  -27.3872  -29.7228   25.4937 H   0  0  0  0  0  0
  -27.8967  -30.4143   23.9724 H   0  0  0  0  0  0
  -27.2652  -33.3648   26.2090 H   0  0  0  0  0  0
  -28.3916  -32.6934   25.0393 H   0  0  0  0  0  0
  -28.0720  -31.8496   26.5477 H   0  0  0  0  0  0
  -28.2639  -38.0044   24.7438 H   0  0  0  0  0  0
  -28.0995  -36.2576   24.6419 H   0  0  0  0  0  0
  -27.2262  -37.1623   25.8877 H   0  0  0  0  0  0
  -20.9444  -29.8805   21.6814 H   0  0  0  0  0  0
  -26.0167  -38.2833   24.1367 H   0  0  0  0  0  0
  -28.5104  -21.6167   22.3741 H   0  0  0  0  0  0
  -28.9602  -19.1883   22.4931 H   0  0  0  0  0  0
  -32.4532  -21.8723   18.4986 H   0  0  0  0  0  0
  -31.6056  -23.3944   18.6548 H   0  0  0  0  0  0
  -31.9859  -22.7725   17.0655 H   0  0  0  0  0  0
  -28.3486  -21.7154   17.1261 H   0  0  0  0  0  0
  -29.5509  -22.5668   16.1667 H   0  0  0  0  0  0
  -28.8974  -23.3144   17.6083 H   0  0  0  0  0  0
  -26.7442  -25.3133   22.1785 H   0  0  0  0  0  0
  -28.4314  -25.1071   22.6229 H   0  0  0  0  0  0
  -27.3922  -23.7017   22.3966 H   0  0  0  0  0  0
  -25.8933  -24.3505   20.0559 H   0  0  0  0  0  0
  -26.8286  -22.9064   19.9889 H   0  0  0  0  0  0
  -26.9898  -24.0628   18.6846 H   0  0  0  0  0  0
  -29.7724  -23.9185   19.4807 H   0  0  0  0  0  0
  -30.0226  -23.8690   21.1607 H   0  0  0  0  0  0
  -31.2425  -17.5043   19.8039 H   0  0  0  0  0  0
  -31.1539  -17.5861   21.5117 H   0  0  0  0  0  0
  -30.5992  -20.8241   17.3743 H   0  0  0  0  0  0
  -28.9290  -16.0256   20.8280 H   0  0  0  0  0  0
  1 25  1  0  0  0
  1 30  2  0  0  0
  1 85  1  0  0  0
  2  3  1  0  0  0
  2 25  1  0  0  0
  2 86  1  0  0  0
  2 87  1  0  0  0
  3  4  1  0  0  0
  3 88  1  0  0  0
  3 89  1  0  0  0
  4  5  1  0  0  0
  4 90  1  0  0  0
  4 91  1  0  0  0
  5  6  1  0  0  0
  5 26  1  0  0  0
  5 92  1  0  0  0
  6 25  1  0  0  0
  6 93  1  0  0  0
  6 94  1  0  0  0
  7  8  2  0  0  0
  7 26  1  0  0  0
  7 29  1  0  0  0
  8  9  1  0  0  0
  8 22  1  0  0  0
  9 10  1  0  0  0
  9 27  2  0  0  0
 10 11  2  0  0  0
 10 15  1  0  0  0
 11 12  1  0  0  0
 11 95  1  0  0  0
 12 13  2  0  0  0
 12 96  1  0  0  0
 13 14  1  0  0  0
 13 31  1  0  0  0
 14 15  2  0  0  0
 14 97  1  0  0  0
 15 98  1  0  0  0
 16 17  2  0  0  0
 16 21  1  0  0  0
 16 31  1  0  0  0
 17 18  1  0  0  0
 17 99  1  0  0  0
 18 19  2  0  0  0
 18100  1  0  0  0
 19 20  1  0  0  0
 19 24  1  0  0  0
 20 21  2  0  0  0
 20101  1  0  0  0
 21 23  1  0  0  0
 22 28  1  0  0  0
 22 32  2  0  0  0
 26 27  1  0  0  0
 28102  1  0  0  0
 28103  1  0  0  0
 29104  1  0  0  0
 29105  1  0  0  0
 33 34  1  0  0  0
 33 66  1  0  0  0
 33 70  2  0  0  0
 34 36  1  0  0  0
 34 59  1  0  0  0
 34106  1  0  0  0
 35 44  2  0  0  0
 35 45  1  0  0  0
 35 68  1  0  0  0
 36 56  1  0  0  0
 36107  1  0  0  0
 37 39  1  0  0  0
 37 47  1  0  0  0
 37 66  1  0  0  0
 37108  1  0  0  0
 38 43  2  0  0  0
 38 46  1  0  0  0
 38 47  1  0  0  0
 39 64  1  0  0  0
 39 67  2  0  0  0
 40 52  1  0  0  0
 40 53  2  0  0  0
 40 58  1  0  0  0
 41109  1  0  0  0
 41110  1  0  0  0
 41111  1  0  0  0
 41 48  1  0  0  0
 42 43  1  0  0  0
 42 66  1  0  0  0
 42112  1  0  0  0
 42113  1  0  0  0
 43 44  1  0  0  0
 44114  1  0  0  0
 45 46  2  0  0  0
 45115  1  0  0  0
 46116  1  0  0  0
 47117  1  0  0  0
 47118  1  0  0  0
 48 56  1  0  0  0
 48 65  1  0  0  0
 48119  1  0  0  0
 49 50  1  0  0  0
 49 53  1  0  0  0
 49 64  1  0  0  0
 49120  1  0  0  0
 50 51  1  0  0  0
 50121  1  0  0  0
 50122  1  0  0  0
 51 52  1  0  0  0
 51123  1  0  0  0
 51124  1  0  0  0
 52125  1  0  0  0
 52126  1  0  0  0
 53 54  1  0  0  0
 54 55  2  0  0  0
 54127  1  0  0  0
 55 57  1  0  0  0
 55128  1  0  0  0
 56 69  2  0  0  0
 57 58  2  0  0  0
 57129  1  0  0  0
 58130  1  0  0  0
 59 60  1  0  0  0
 59 61  1  0  0  0
 59 62  1  0  0  0
 60131  1  0  0  0
 60132  1  0  0  0
 60133  1  0  0  0
 61134  1  0  0  0
 61135  1  0  0  0
 61136  1  0  0  0
 62137  1  0  0  0
 62138  1  0  0  0
 62139  1  0  0  0
 63 65  1  0  0  0
 63140  1  0  0  0
 63141  1  0  0  0
 63142  1  0  0  0
 64143  1  0  0  0
 65144  1  0  0  0
 68 83  1  0  0  0
 71 72  2  0  0  0
 71 73  1  0  0  0
 71145  1  0  0  0
 72 74  1  0  0  0
 72146  1  0  0  0
 73 75  2  0  0  0
 73 80  1  0  0  0
 74 81  1  0  0  0
 74 84  2  0  0  0
 75 82  1  0  0  0
 75 84  1  0  0  0
 76147  1  0  0  0
 76148  1  0  0  0
 76149  1  0  0  0
 76 82  1  0  0  0
 77 82  1  0  0  0
 77150  1  0  0  0
 77151  1  0  0  0
 77152  1  0  0  0
 78153  1  0  0  0
 78154  1  0  0  0
 78155  1  0  0  0
 78 83  1  0  0  0
 79 83  1  0  0  0
 79156  1  0  0  0
 79157  1  0  0  0
 79158  1  0  0  0
 80 83  1  0  0  0
 80159  1  0  0  0
 80160  1  0  0  0
 81 85  1  0  0  0
 81161  1  0  0  0
 81162  1  0  0  0
 82163  1  0  0  0
 85164  1  0  0  0
M  ISO  4   1 100  68 101  83 101  85 100
M  END
> <chiral flag>
0

> <version>
0

> <s_m_source_file>
/data/baiqing/PycharmProjects/Reinvent-master-3.2/result/LINK_invent/BTK/process_docking_weight1_custom_sum_contain_oxygen_bond_distance_aromatic_linkinvent_7_9_3/rearranged_h_0106.sdf

> <i_m_source_file_index>
76

> <r_mmod_Potential_Energy-OPLS-2005>
104.388023376465

> <r_mmod_Stretch_Energy-OPLS-2005>
203.927993774414

> <r_mmod_Bend_Energy-OPLS-2005>
264.273864746094

> <r_mmod_Torsional_Energy-OPLS-2005>
223.828643798828

> <r_mmod_Improper_Torsional_Energy-OPLS-2005>
7.71039485931396

> <r_mmod_Van_der_Waal_Energy-OPLS-2005>
147.701995849609

> <r_mmod_Electrostatic_Energy-OPLS-2005>
-690.346801757812

> <r_mmod_Solvation_Energy-OPLS-2005>
-213.152084350586

> <b_mmod_Minimization_Converged-OPLS-2005>
0

> <r_mmod_RMS_Derivative-OPLS-2005>
2.96720004081726

$$$$
77
                    3D
 Structure written by MMmdl.
164172  0  0  1  0            999 V2000
  -30.6111  -14.6254   20.4086 C   0  0  0  0  0  0
  -30.4211  -12.3539   19.4419 C   0  0  0  0  0  0
  -29.4972  -12.5094   18.2148 C   0  0  0  0  0  0
  -28.0132  -12.3659   18.6198 C   0  0  0  0  0  0
  -27.6357  -13.2330   19.8536 C   0  0  2  0  0  0
  -28.6895  -13.0522   20.9690 C   0  0  0  0  0  0
  -25.2315  -13.8231   20.5625 C   0  0  0  0  0  0
  -24.1693  -13.0431   20.9360 C   0  0  0  0  0  0
  -24.6344  -11.6976   20.8896 C   0  0  0  0  0  0
  -23.9051  -10.4299   21.0423 C   0  0  0  0  0  0
  -24.3559   -9.4214   21.9201 C   0  0  0  0  0  0
  -23.6189   -8.2304   22.0792 C   0  0  0  0  0  0
  -22.4200   -8.0263   21.3583 C   0  0  0  0  0  0
  -21.9918   -9.0225   20.4590 C   0  0  0  0  0  0
  -22.7292  -10.2090   20.2970 C   0  0  0  0  0  0
  -21.6872   -6.0703   22.5343 C   0  0  0  0  0  0
  -21.4050   -6.5657   23.8229 C   0  0  0  0  0  0
  -21.3669   -5.6786   24.9169 C   0  0  0  0  0  0
  -21.6045   -4.3056   24.7210 C   0  0  0  0  0  0
  -21.8881   -3.8154   23.4358 C   0  0  0  0  0  0
  -21.9215   -4.6949   22.3394 C   0  0  0  0  0  0
  -22.7730  -13.5236   21.1958 C   0  0  0  0  0  0
  -22.1653   -4.2158   21.0926 F   0  0  0  0  0  0
  -21.5582   -3.4512   25.7721 F   0  0  0  0  0  0
  -30.0090  -13.3879   20.4076 N   0  0  0  0  0  0
  -26.2835  -12.9499   20.3312 N   0  0  0  0  0  0
  -25.9254  -11.6649   20.5820 N   0  0  0  0  0  0
  -22.0409  -12.8113   22.0465 N   0  0  0  0  0  0
  -25.3498  -15.1894   20.3772 N   0  0  0  0  0  0
  -31.7908  -14.7747   20.0829 O   0  0  0  0  0  0
  -21.6600   -6.8847   21.4316 O   0  0  0  0  0  0
  -22.3434  -14.5550   20.6823 O   0  0  0  0  0  0
  -24.6395  -31.8527   23.1936 C   0  0  0  0  0  0
  -25.9227  -32.4723   23.8318 C   0  0  1  0  0  0
  -27.2369  -27.2558   20.1051 C   0  0  0  0  0  0
  -25.6014  -33.8527   24.2233 N   0  0  0  0  0  0
  -23.4273  -30.4791   21.5413 C   0  0  2  0  0  0
  -24.8762  -28.9174   20.1165 C   0  0  0  0  0  0
  -22.7505  -29.4618   22.4894 C   0  0  0  0  0  0
  -18.0308  -28.1352   22.8394 C   0  0  0  0  0  0
  -24.1473  -36.7286   23.2668 C   0  0  0  0  0  0
  -25.9808  -30.7597   21.3757 C   0  0  0  0  0  0
  -26.0448  -29.3806   20.7191 C   0  0  0  0  0  0
  -27.2218  -28.5636   20.7117 C   0  0  0  0  0  0
  -26.0342  -26.8613   19.4781 C   0  0  0  0  0  0
  -24.8756  -27.6616   19.4938 C   0  0  0  0  0  0
  -23.6450  -29.8058   20.1565 C   0  0  0  0  0  0
  -25.4102  -36.3060   24.0346 C   0  0  1  0  0  0
  -20.5912  -28.3682   23.1267 C   0  0  2  0  0  0
  -20.6798  -26.9344   22.5534 C   0  0  0  0  0  0
  -19.5903  -26.6356   21.5206 C   0  0  0  0  0  0
  -18.1995  -26.7905   22.1526 C   0  0  0  0  0  0
  -19.1536  -28.8808   23.2770 C   0  0  0  0  0  0
  -18.9444  -30.1394   23.8840 C   0  0  0  0  0  0
  -17.6416  -30.6505   24.0502 C   0  0  0  0  0  0
  -25.9081  -34.9421   23.5092 C   0  0  0  0  0  0
  -16.5306  -29.9034   23.6219 C   0  0  0  0  0  0
  -16.7286  -28.6448   23.0256 C   0  0  0  0  0  0
  -26.4488  -31.6590   25.0781 C   0  0  0  0  0  0
  -25.3724  -31.3830   26.1538 C   0  0  0  0  0  0
  -27.0356  -30.3012   24.6358 C   0  0  0  0  0  0
  -27.6006  -32.4363   25.7562 C   0  0  0  0  0  0
  -27.5572  -37.1791   24.8484 C   0  0  0  0  0  0
  -21.4218  -29.3037   22.3637 N   0  0  0  0  0  0
  -26.4248  -37.3804   23.9464 N   0  0  0  0  0  0
  -24.7015  -31.0510   22.0899 N   0  0  0  0  0  0
  -23.4200  -28.8204   23.3052 O   0  0  0  0  0  0
  -28.3638  -26.3958   20.1659 O   0  0  0  0  0  0
  -26.5659  -34.8882   22.4672 O   0  0  0  0  0  0
  -23.5526  -32.1360   23.7183 O   0  0  0  0  0  0
  -29.3709  -19.6289   19.8436 C   0  0  0  0  0  0
  -28.9960  -20.9098   21.8114 C   0  0  0  0  0  0
  -29.1720  -20.9324   20.4265 C   0  0  0  0  0  0
  -29.2785  -18.3936   20.6026 C   0  0  0  0  0  0
  -28.7588  -18.5571   21.9349 C   0  0  0  0  0  0
  -27.9677  -17.7260   24.2467 C   0  0  0  0  0  0
  -27.7068  -16.1601   22.4152 C   0  0  0  0  0  0
  -26.3026  -18.1425   22.3756 C   0  0  0  0  0  0
  -29.1013  -22.3038   19.6181 C   0  0  0  0  0  0
  -29.7694  -17.0575   19.8917 C   0  0  0  0  0  0
  -28.9725  -23.7327   20.3751 C   0  0  0  0  0  0
  -28.3961  -25.0092   19.5717 C   0  0  0  0  0  0
  -27.7380  -17.6525   22.7148 C   0  0  0  0  0  0
  -28.7670  -19.7865   22.5117 N   0  0  0  0  0  0
  -29.7495  -15.6809   20.4996 N   0  0  0  0  0  0
  -31.4705  -12.4538   19.1591 H   0  0  0  0  0  0
  -30.3094  -11.3559   19.8715 H   0  0  0  0  0  0
  -29.7588  -11.7690   17.4602 H   0  0  0  0  0  0
  -29.6564  -13.4884   17.7551 H   0  0  0  0  0  0
  -27.8232  -11.3119   18.8335 H   0  0  0  0  0  0
  -27.3668  -12.6176   17.7785 H   0  0  0  0  0  0
  -27.6356  -14.2661   19.5227 H   0  0  0  0  0  0
  -28.6756  -12.0102   21.2889 H   0  0  0  0  0  0
  -28.4506  -13.6336   21.8531 H   0  0  0  0  0  0
  -25.2582   -9.5784   22.4913 H   0  0  0  0  0  0
  -23.9926   -7.4769   22.7518 H   0  0  0  0  0  0
  -21.0970   -8.8735   19.8726 H   0  0  0  0  0  0
  -22.3773  -10.9656   19.6076 H   0  0  0  0  0  0
  -21.2094   -7.6166   23.9742 H   0  0  0  0  0  0
  -21.1373   -6.0469   25.9049 H   0  0  0  0  0  0
  -22.0615   -2.7637   23.2853 H   0  0  0  0  0  0
  -22.4150  -11.9749   22.4748 H   0  0  0  0  0  0
  -21.0913  -13.0983   22.2434 H   0  0  0  0  0  0
  -24.5383  -15.7832   20.5074 H   0  0  0  0  0  0
  -26.1018  -15.6567   19.8956 H   0  0  0  0  0  0
  -26.7363  -32.5367   23.1108 H   0  0  0  0  0  0
  -25.0196  -33.9641   25.0390 H   0  0  0  0  0  0
  -22.7262  -31.3052   21.3999 H   0  0  0  0  0  0
  -23.3707  -35.9649   23.3299 H   0  0  0  0  0  0
  -24.3638  -36.8926   22.2105 H   0  0  0  0  0  0
  -23.7149  -37.6465   23.6681 H   0  0  0  0  0  0
  -26.1392  -31.5138   20.6019 H   0  0  0  0  0  0
  -26.8555  -30.8045   22.0153 H   0  0  0  0  0  0
  -28.1170  -28.9192   21.2035 H   0  0  0  0  0  0
  -25.9175  -25.9124   18.9745 H   0  0  0  0  0  0
  -23.9771  -27.2881   19.0214 H   0  0  0  0  0  0
  -23.7666  -30.5900   19.4082 H   0  0  0  0  0  0
  -22.7533  -29.2520   19.8437 H   0  0  0  0  0  0
  -25.1205  -36.1913   25.0821 H   0  0  0  0  0  0
  -21.0010  -28.3307   24.1392 H   0  0  0  0  0  0
  -20.5301  -26.2351   23.3744 H   0  0  0  0  0  0
  -21.6805  -26.7231   22.1712 H   0  0  0  0  0  0
  -19.6869  -27.3126   20.6678 H   0  0  0  0  0  0
  -19.7090  -25.6231   21.1334 H   0  0  0  0  0  0
  -17.4485  -26.6638   21.3720 H   0  0  0  0  0  0
  -18.0271  -26.0012   22.8828 H   0  0  0  0  0  0
  -19.7935  -30.7146   24.2210 H   0  0  0  0  0  0
  -17.5041  -31.6115   24.5203 H   0  0  0  0  0  0
  -15.5244  -30.2842   23.7523 H   0  0  0  0  0  0
  -15.8722  -28.0685   22.6978 H   0  0  0  0  0  0
  -24.5709  -30.7380   25.7918 H   0  0  0  0  0  0
  -24.9150  -32.3048   26.5134 H   0  0  0  0  0  0
  -25.8025  -30.8852   27.0222 H   0  0  0  0  0  0
  -26.2988  -29.6773   24.1281 H   0  0  0  0  0  0
  -27.3902  -29.7307   25.4937 H   0  0  0  0  0  0
  -27.8903  -30.4333   23.9733 H   0  0  0  0  0  0
  -27.2553  -33.3630   26.2154 H   0  0  0  0  0  0
  -28.3790  -32.6955   25.0388 H   0  0  0  0  0  0
  -28.0704  -31.8506   26.5472 H   0  0  0  0  0  0
  -28.2540  -38.0133   24.7518 H   0  0  0  0  0  0
  -28.1046  -36.2618   24.6185 H   0  0  0  0  0  0
  -27.2365  -37.1367   25.8920 H   0  0  0  0  0  0
  -20.9427  -29.8794   21.6837 H   0  0  0  0  0  0
  -26.0092  -38.2892   24.1379 H   0  0  0  0  0  0
  -29.5913  -19.5792   18.7857 H   0  0  0  0  0  0
  -28.9516  -21.8169   22.3922 H   0  0  0  0  0  0
  -28.9199  -17.2732   24.5356 H   0  0  0  0  0  0
  -27.1878  -17.1892   24.7908 H   0  0  0  0  0  0
  -27.9497  -18.7498   24.6113 H   0  0  0  0  0  0
  -28.6128  -15.6557   22.7514 H   0  0  0  0  0  0
  -27.5290  -16.0053   21.3563 H   0  0  0  0  0  0
  -26.8659  -15.6735   22.9180 H   0  0  0  0  0  0
  -26.1626  -19.2124   22.5226 H   0  0  0  0  0  0
  -25.5488  -17.6369   22.9830 H   0  0  0  0  0  0
  -26.0495  -17.9451   21.3343 H   0  0  0  0  0  0
  -29.9631  -22.3432   18.9514 H   0  0  0  0  0  0
  -28.2477  -22.2080   18.9433 H   0  0  0  0  0  0
  -30.7920  -17.2454   19.5670 H   0  0  0  0  0  0
  -29.1936  -16.9830   18.9676 H   0  0  0  0  0  0
  -29.9476  -23.9762   20.8030 H   0  0  0  0  0  0
  -28.3133  -23.5951   21.2304 H   0  0  0  0  0  0
  -27.4182  -24.6614   19.2588 H   0  0  0  0  0  0
  -28.9630  -25.0920   18.6411 H   0  0  0  0  0  0
  -28.8288  -15.3693   20.7527 H   0  0  0  0  0  0
  1 25  1  0  0  0
  1 30  2  0  0  0
  1 85  1  0  0  0
  2  3  1  0  0  0
  2 25  1  0  0  0
  2 86  1  0  0  0
  2 87  1  0  0  0
  3  4  1  0  0  0
  3 88  1  0  0  0
  3 89  1  0  0  0
  4  5  1  0  0  0
  4 90  1  0  0  0
  4 91  1  0  0  0
  5  6  1  0  0  0
  5 26  1  0  0  0
  5 92  1  0  0  0
  6 25  1  0  0  0
  6 93  1  0  0  0
  6 94  1  0  0  0
  7  8  2  0  0  0
  7 26  1  0  0  0
  7 29  1  0  0  0
  8  9  1  0  0  0
  8 22  1  0  0  0
  9 10  1  0  0  0
  9 27  2  0  0  0
 10 11  2  0  0  0
 10 15  1  0  0  0
 11 12  1  0  0  0
 11 95  1  0  0  0
 12 13  2  0  0  0
 12 96  1  0  0  0
 13 14  1  0  0  0
 13 31  1  0  0  0
 14 15  2  0  0  0
 14 97  1  0  0  0
 15 98  1  0  0  0
 16 17  2  0  0  0
 16 21  1  0  0  0
 16 31  1  0  0  0
 17 18  1  0  0  0
 17 99  1  0  0  0
 18 19  2  0  0  0
 18100  1  0  0  0
 19 20  1  0  0  0
 19 24  1  0  0  0
 20 21  2  0  0  0
 20101  1  0  0  0
 21 23  1  0  0  0
 22 28  1  0  0  0
 22 32  2  0  0  0
 26 27  1  0  0  0
 28102  1  0  0  0
 28103  1  0  0  0
 29104  1  0  0  0
 29105  1  0  0  0
 33 34  1  0  0  0
 33 66  1  0  0  0
 33 70  2  0  0  0
 34 36  1  0  0  0
 34 59  1  0  0  0
 34106  1  0  0  0
 35 44  2  0  0  0
 35 45  1  0  0  0
 35 68  1  0  0  0
 36 56  1  0  0  0
 36107  1  0  0  0
 37 39  1  0  0  0
 37 47  1  0  0  0
 37 66  1  0  0  0
 37108  1  0  0  0
 38 43  2  0  0  0
 38 46  1  0  0  0
 38 47  1  0  0  0
 39 64  1  0  0  0
 39 67  2  0  0  0
 40 52  1  0  0  0
 40 53  2  0  0  0
 40 58  1  0  0  0
 41109  1  0  0  0
 41110  1  0  0  0
 41111  1  0  0  0
 41 48  1  0  0  0
 42 43  1  0  0  0
 42 66  1  0  0  0
 42112  1  0  0  0
 42113  1  0  0  0
 43 44  1  0  0  0
 44114  1  0  0  0
 45 46  2  0  0  0
 45115  1  0  0  0
 46116  1  0  0  0
 47117  1  0  0  0
 47118  1  0  0  0
 48 56  1  0  0  0
 48 65  1  0  0  0
 48119  1  0  0  0
 49 50  1  0  0  0
 49 53  1  0  0  0
 49 64  1  0  0  0
 49120  1  0  0  0
 50 51  1  0  0  0
 50121  1  0  0  0
 50122  1  0  0  0
 51 52  1  0  0  0
 51123  1  0  0  0
 51124  1  0  0  0
 52125  1  0  0  0
 52126  1  0  0  0
 53 54  1  0  0  0
 54 55  2  0  0  0
 54127  1  0  0  0
 55 57  1  0  0  0
 55128  1  0  0  0
 56 69  2  0  0  0
 57 58  2  0  0  0
 57129  1  0  0  0
 58130  1  0  0  0
 59 60  1  0  0  0
 59 61  1  0  0  0
 59 62  1  0  0  0
 60131  1  0  0  0
 60132  1  0  0  0
 60133  1  0  0  0
 61134  1  0  0  0
 61135  1  0  0  0
 61136  1  0  0  0
 62137  1  0  0  0
 62138  1  0  0  0
 62139  1  0  0  0
 63 65  1  0  0  0
 63140  1  0  0  0
 63141  1  0  0  0
 63142  1  0  0  0
 64143  1  0  0  0
 65144  1  0  0  0
 68 82  1  0  0  0
 71 73  2  0  0  0
 71 74  1  0  0  0
 71145  1  0  0  0
 72 73  1  0  0  0
 72 84  2  0  0  0
 72146  1  0  0  0
 73 79  1  0  0  0
 74 75  2  0  0  0
 74 80  1  0  0  0
 75 83  1  0  0  0
 75 84  1  0  0  0
 76147  1  0  0  0
 76148  1  0  0  0
 76149  1  0  0  0
 76 83  1  0  0  0
 77 83  1  0  0  0
 77150  1  0  0  0
 77151  1  0  0  0
 77152  1  0  0  0
 78 83  1  0  0  0
 78153  1  0  0  0
 78154  1  0  0  0
 78155  1  0  0  0
 79 81  1  0  0  0
 79156  1  0  0  0
 79157  1  0  0  0
 80 85  1  0  0  0
 80158  1  0  0  0
 80159  1  0  0  0
 81 82  1  0  0  0
 81160  1  0  0  0
 81161  1  0  0  0
 82162  1  0  0  0
 82163  1  0  0  0
 85164  1  0  0  0
M  ISO  4   1 100  68 101  82 101  85 100
M  END
> <chiral flag>
0

> <version>
0

> <s_m_source_file>
/data/baiqing/PycharmProjects/Reinvent-master-3.2/result/LINK_invent/BTK/process_docking_weight1_custom_sum_contain_oxygen_bond_distance_aromatic_linkinvent_7_9_3/rearranged_h_0106.sdf

> <i_m_source_file_index>
77

> <r_mmod_Potential_Energy-OPLS-2005>
80.9924163818359

> <r_mmod_Stretch_Energy-OPLS-2005>
119.447257995605

> <r_mmod_Bend_Energy-OPLS-2005>
216.683303833008

> <r_mmod_Torsional_Energy-OPLS-2005>
249.971832275391

> <r_mmod_Improper_Torsional_Energy-OPLS-2005>
13.0507717132568

> <r_mmod_Van_der_Waal_Energy-OPLS-2005>
165.383285522461

> <r_mmod_Electrostatic_Energy-OPLS-2005>
-532.695190429688

> <r_mmod_Solvation_Energy-OPLS-2005>
-213.403137207031

> <b_mmod_Minimization_Converged-OPLS-2005>
0

> <r_mmod_RMS_Derivative-OPLS-2005>
11.4600496292114

$$$$
78
                    3D
 Structure written by MMmdl.
156163  0  0  1  0            999 V2000
  -30.6640  -14.7829   20.4804 C   0  0  0  0  0  0
  -30.4556  -12.5049   19.4687 C   0  0  0  0  0  0
  -29.5420  -12.5500   18.2258 C   0  0  0  0  0  0
  -28.0621  -12.3637   18.6189 C   0  0  0  0  0  0
  -27.6526  -13.2416   19.8328 C   0  0  2  0  0  0
  -28.7040  -13.1977   20.9649 C   0  0  0  0  0  0
  -25.2618  -13.8187   20.5590 C   0  0  0  0  0  0
  -24.1932  -13.0450   20.9108 C   0  0  0  0  0  0
  -24.6479  -11.6919   20.8606 C   0  0  0  0  0  0
  -23.9091  -10.4312   21.0286 C   0  0  0  0  0  0
  -24.3628   -9.4246   21.9104 C   0  0  0  0  0  0
  -23.6319   -8.2271   22.0754 C   0  0  0  0  0  0
  -22.4292   -8.0275   21.3520 C   0  0  0  0  0  0
  -21.9904   -9.0254   20.4607 C   0  0  0  0  0  0
  -22.7222  -10.2145   20.2967 C   0  0  0  0  0  0
  -21.6868   -6.0725   22.5279 C   0  0  0  0  0  0
  -21.4026   -6.5630   23.8203 C   0  0  0  0  0  0
  -21.3675   -5.6791   24.9178 C   0  0  0  0  0  0
  -21.6059   -4.3059   24.7226 C   0  0  0  0  0  0
  -21.8817   -3.8124   23.4356 C   0  0  0  0  0  0
  -21.9221   -4.6956   22.3401 C   0  0  0  0  0  0
  -22.7910  -13.5227   21.1802 C   0  0  0  0  0  0
  -22.1647   -4.2126   21.0964 F   0  0  0  0  0  0
  -21.5669   -3.4528   25.7725 F   0  0  0  0  0  0
  -30.0007  -13.5761   20.3843 N   0  0  0  0  0  0
  -26.3038  -12.9403   20.3107 N   0  0  0  0  0  0
  -25.9447  -11.6502   20.5565 N   0  0  0  0  0  0
  -22.0527  -12.8251   22.0352 N   0  0  0  0  0  0
  -25.4343  -15.1920   20.4060 N   0  0  0  0  0  0
  -31.8639  -14.8453   20.2088 O   0  0  0  0  0  0
  -21.6685   -6.8852   21.4227 O   0  0  0  0  0  0
  -22.3577  -14.5483   20.6634 O   0  0  0  0  0  0
  -24.6279  -31.8567   23.1983 C   0  0  0  0  0  0
  -25.9107  -32.4758   23.8361 C   0  0  1  0  0  0
  -27.2365  -27.2999   20.1133 C   0  0  0  0  0  0
  -25.5926  -33.8569   24.2247 N   0  0  0  0  0  0
  -23.4193  -30.4743   21.5448 C   0  0  2  0  0  0
  -24.8636  -28.9148   20.1126 C   0  0  0  0  0  0
  -22.7459  -29.4599   22.4991 C   0  0  0  0  0  0
  -18.0299  -28.1354   22.8486 C   0  0  0  0  0  0
  -24.1495  -36.7269   23.2634 C   0  0  0  0  0  0
  -25.9622  -30.7751   21.3722 C   0  0  0  0  0  0
  -26.0350  -29.4058   20.7048 C   0  0  0  0  0  0
  -27.2158  -28.6086   20.6927 C   0  0  0  0  0  0
  -26.0331  -26.8448   19.5287 C   0  0  0  0  0  0
  -24.8649  -27.6357   19.5247 C   0  0  0  0  0  0
  -23.6258  -29.7914   20.1675 C   0  0  0  0  0  0
  -25.4133  -36.3083   24.0322 C   0  0  1  0  0  0
  -20.5898  -28.3658   23.1288 C   0  0  2  0  0  0
  -20.6797  -26.9386   22.5393 C   0  0  0  0  0  0
  -19.5779  -26.6355   21.5198 C   0  0  0  0  0  0
  -18.1951  -26.7905   22.1597 C   0  0  0  0  0  0
  -19.1546  -28.8836   23.2867 C   0  0  0  0  0  0
  -18.9464  -30.1455   23.8850 C   0  0  0  0  0  0
  -17.6440  -30.6567   24.0554 C   0  0  0  0  0  0
  -25.9085  -34.9458   23.5111 C   0  0  0  0  0  0
  -16.5348  -29.9030   23.6352 C   0  0  0  0  0  0
  -16.7271  -28.6464   23.0372 C   0  0  0  0  0  0
  -26.4457  -31.6627   25.0801 C   0  0  0  0  0  0
  -25.3657  -31.3794   26.1518 C   0  0  0  0  0  0
  -27.0301  -30.3031   24.6343 C   0  0  0  0  0  0
  -27.6020  -32.4384   25.7572 C   0  0  0  0  0  0
  -27.5585  -37.1790   24.8445 C   0  0  0  0  0  0
  -21.4184  -29.3008   22.3687 N   0  0  0  0  0  0
  -26.4294  -37.3776   23.9418 N   0  0  0  0  0  0
  -24.6898  -31.0562   22.0932 N   0  0  0  0  0  0
  -23.4201  -28.8182   23.3110 O   0  0  0  0  0  0
  -28.3795  -26.4845   20.1923 O   0  0  0  0  0  0
  -26.5619  -34.8908   22.4657 O   0  0  0  0  0  0
  -23.5439  -32.1391   23.7326 O   0  0  0  0  0  0
  -29.7049  -20.0761   20.6638 C   0  0  0  0  0  0
  -31.5835  -19.0266   19.3798 C   0  0  0  0  0  0
  -29.2604  -18.2639   18.8224 C   0  0  0  0  0  0
  -28.1973  -23.7375   20.0862 C   0  0  0  0  0  0
  -29.3382  -22.6819   20.5518 C   0  0  0  0  0  0
  -30.4207  -17.3879   20.9791 C   0  0  0  0  0  0
  -28.5552  -25.1906   19.4782 C   0  0  0  0  0  0
  -30.1951  -18.6822   19.9807 C   0  0  0  0  0  0
  -29.4619  -21.2626   19.9709 N   0  0  0  0  0  0
  -29.9448  -15.9506   20.6802 N   0  0  0  0  0  0
  -29.6271  -20.0981   21.8922 O   0  0  0  0  0  0
  -31.5000  -12.6332   19.1742 H   0  0  0  0  0  0
  -30.4043  -11.5344   19.9608 H   0  0  0  0  0  0
  -29.8480  -11.7928   17.5063 H   0  0  0  0  0  0
  -29.6676  -13.5146   17.7323 H   0  0  0  0  0  0
  -27.9095  -11.3067   18.8424 H   0  0  0  0  0  0
  -27.4353  -12.6019   17.7586 H   0  0  0  0  0  0
  -27.6388  -14.2637   19.4557 H   0  0  0  0  0  0
  -28.7797  -12.1944   21.3804 H   0  0  0  0  0  0
  -28.4242  -13.8669   21.7835 H   0  0  0  0  0  0
  -25.2736   -9.5795   22.4688 H   0  0  0  0  0  0
  -24.0054   -7.4688   22.7497 H   0  0  0  0  0  0
  -21.0836   -8.8701   19.8935 H   0  0  0  0  0  0
  -22.3584  -10.9668   19.6070 H   0  0  0  0  0  0
  -21.1966   -7.6124   23.9692 H   0  0  0  0  0  0
  -21.1502   -6.0518   25.9098 H   0  0  0  0  0  0
  -22.0586   -2.7574   23.2854 H   0  0  0  0  0  0
  -22.4084  -11.9943   22.4833 H   0  0  0  0  0  0
  -21.1103  -13.1274   22.2406 H   0  0  0  0  0  0
  -24.6680  -15.8493   20.4997 H   0  0  0  0  0  0
  -26.2926  -15.6283   20.0994 H   0  0  0  0  0  0
  -26.7185  -32.5357   23.1107 H   0  0  0  0  0  0
  -25.0184  -33.9731   25.0462 H   0  0  0  0  0  0
  -22.7128  -31.2972   21.3971 H   0  0  0  0  0  0
  -23.3798  -35.9556   23.3275 H   0  0  0  0  0  0
  -24.3602  -36.8913   22.2058 H   0  0  0  0  0  0
  -23.7191  -37.6434   23.6673 H   0  0  0  0  0  0
  -26.1127  -31.5453   20.6175 H   0  0  0  0  0  0
  -26.8362  -30.8050   22.0143 H   0  0  0  0  0  0
  -28.1158  -28.9862   21.1565 H   0  0  0  0  0  0
  -25.9649  -25.8473   19.1199 H   0  0  0  0  0  0
  -23.9610  -27.2262   19.0954 H   0  0  0  0  0  0
  -23.7100  -30.5557   19.3929 H   0  0  0  0  0  0
  -22.7464  -29.2035   19.8958 H   0  0  0  0  0  0
  -25.1310  -36.1935   25.0804 H   0  0  0  0  0  0
  -20.9962  -28.3207   24.1424 H   0  0  0  0  0  0
  -20.5732  -26.2242   23.3578 H   0  0  0  0  0  0
  -21.6660  -26.7452   22.1157 H   0  0  0  0  0  0
  -19.6953  -25.6257   21.1255 H   0  0  0  0  0  0
  -19.6766  -27.3152   20.6730 H   0  0  0  0  0  0
  -17.4240  -26.6676   21.3967 H   0  0  0  0  0  0
  -18.0340  -26.0028   22.8973 H   0  0  0  0  0  0
  -19.7934  -30.7292   24.2158 H   0  0  0  0  0  0
  -17.5008  -31.6260   24.5118 H   0  0  0  0  0  0
  -15.5340  -30.2912   23.7732 H   0  0  0  0  0  0
  -15.8671  -28.0757   22.7115 H   0  0  0  0  0  0
  -24.5864  -30.7080   25.7858 H   0  0  0  0  0  0
  -24.8803  -32.2962   26.4897 H   0  0  0  0  0  0
  -25.7991  -30.9033   27.0329 H   0  0  0  0  0  0
  -26.2908  -29.6822   24.1257 H   0  0  0  0  0  0
  -27.3787  -29.7297   25.4945 H   0  0  0  0  0  0
  -27.8883  -30.4300   23.9740 H   0  0  0  0  0  0
  -27.2622  -33.3688   26.2158 H   0  0  0  0  0  0
  -28.3840  -32.6944   25.0397 H   0  0  0  0  0  0
  -28.0678  -31.8502   26.5493 H   0  0  0  0  0  0
  -28.2564  -38.0119   24.7557 H   0  0  0  0  0  0
  -28.1122  -36.2659   24.6212 H   0  0  0  0  0  0
  -27.2311  -37.1353   25.8839 H   0  0  0  0  0  0
  -20.9366  -29.8627   21.6793 H   0  0  0  0  0  0
  -26.0183  -38.2843   24.1429 H   0  0  0  0  0  0
  -31.5059  -19.8062   18.6210 H   0  0  0  0  0  0
  -32.0721  -18.1738   18.9058 H   0  0  0  0  0  0
  -32.2633  -19.3932   20.1552 H   0  0  0  0  0  0
  -29.0358  -19.0791   18.1362 H   0  0  0  0  0  0
  -28.3162  -17.8622   19.1958 H   0  0  0  0  0  0
  -29.7294  -17.4891   18.2086 H   0  0  0  0  0  0
  -27.5331  -23.9309   20.9298 H   0  0  0  0  0  0
  -27.5645  -23.2322   19.3562 H   0  0  0  0  0  0
  -29.2031  -22.5648   21.6282 H   0  0  0  0  0  0
  -30.3075  -23.1714   20.4744 H   0  0  0  0  0  0
  -29.9725  -17.6292   21.9437 H   0  0  0  0  0  0
  -31.4864  -17.3327   21.2238 H   0  0  0  0  0  0
  -28.0762  -25.2761   18.5008 H   0  0  0  0  0  0
  -29.6156  -25.1627   19.2363 H   0  0  0  0  0  0
  -29.5790  -21.2188   18.9651 H   0  0  0  0  0  0
  -28.9524  -15.8096   20.7995 H   0  0  0  0  0  0
  1 25  1  0  0  0
  1 30  2  0  0  0
  1 80  1  0  0  0
  2  3  1  0  0  0
  2 25  1  0  0  0
  2 82  1  0  0  0
  2 83  1  0  0  0
  3  4  1  0  0  0
  3 84  1  0  0  0
  3 85  1  0  0  0
  4  5  1  0  0  0
  4 86  1  0  0  0
  4 87  1  0  0  0
  5  6  1  0  0  0
  5 26  1  0  0  0
  5 88  1  0  0  0
  6 25  1  0  0  0
  6 89  1  0  0  0
  6 90  1  0  0  0
  7  8  2  0  0  0
  7 26  1  0  0  0
  7 29  1  0  0  0
  8  9  1  0  0  0
  8 22  1  0  0  0
  9 10  1  0  0  0
  9 27  2  0  0  0
 10 11  2  0  0  0
 10 15  1  0  0  0
 11 12  1  0  0  0
 11 91  1  0  0  0
 12 13  2  0  0  0
 12 92  1  0  0  0
 13 14  1  0  0  0
 13 31  1  0  0  0
 14 15  2  0  0  0
 14 93  1  0  0  0
 15 94  1  0  0  0
 16 17  2  0  0  0
 16 21  1  0  0  0
 16 31  1  0  0  0
 17 18  1  0  0  0
 17 95  1  0  0  0
 18 19  2  0  0  0
 18 96  1  0  0  0
 19 20  1  0  0  0
 19 24  1  0  0  0
 20 21  2  0  0  0
 20 97  1  0  0  0
 21 23  1  0  0  0
 22 28  1  0  0  0
 22 32  2  0  0  0
 26 27  1  0  0  0
 28 98  1  0  0  0
 28 99  1  0  0  0
 29100  1  0  0  0
 29101  1  0  0  0
 33 34  1  0  0  0
 33 66  1  0  0  0
 33 70  2  0  0  0
 34 36  1  0  0  0
 34 59  1  0  0  0
 34102  1  0  0  0
 35 44  2  0  0  0
 35 45  1  0  0  0
 35 68  1  0  0  0
 36 56  1  0  0  0
 36103  1  0  0  0
 37 39  1  0  0  0
 37 47  1  0  0  0
 37 66  1  0  0  0
 37104  1  0  0  0
 38 43  2  0  0  0
 38 46  1  0  0  0
 38 47  1  0  0  0
 39 64  1  0  0  0
 39 67  2  0  0  0
 40 52  1  0  0  0
 40 53  2  0  0  0
 40 58  1  0  0  0
 41105  1  0  0  0
 41106  1  0  0  0
 41107  1  0  0  0
 41 48  1  0  0  0
 42 43  1  0  0  0
 42 66  1  0  0  0
 42108  1  0  0  0
 42109  1  0  0  0
 43 44  1  0  0  0
 44110  1  0  0  0
 45 46  2  0  0  0
 45111  1  0  0  0
 46112  1  0  0  0
 47113  1  0  0  0
 47114  1  0  0  0
 48 56  1  0  0  0
 48 65  1  0  0  0
 48115  1  0  0  0
 49 50  1  0  0  0
 49 53  1  0  0  0
 49 64  1  0  0  0
 49116  1  0  0  0
 50 51  1  0  0  0
 50117  1  0  0  0
 50118  1  0  0  0
 51 52  1  0  0  0
 51119  1  0  0  0
 51120  1  0  0  0
 52121  1  0  0  0
 52122  1  0  0  0
 53 54  1  0  0  0
 54 55  2  0  0  0
 54123  1  0  0  0
 55 57  1  0  0  0
 55124  1  0  0  0
 56 69  2  0  0  0
 57 58  2  0  0  0
 57125  1  0  0  0
 58126  1  0  0  0
 59 60  1  0  0  0
 59 61  1  0  0  0
 59 62  1  0  0  0
 60127  1  0  0  0
 60128  1  0  0  0
 60129  1  0  0  0
 61130  1  0  0  0
 61131  1  0  0  0
 61132  1  0  0  0
 62133  1  0  0  0
 62134  1  0  0  0
 62135  1  0  0  0
 63 65  1  0  0  0
 63136  1  0  0  0
 63137  1  0  0  0
 63138  1  0  0  0
 64139  1  0  0  0
 65140  1  0  0  0
 68 77  1  0  0  0
 71 78  1  0  0  0
 71 79  1  0  0  0
 71 81  2  0  0  0
 72141  1  0  0  0
 72142  1  0  0  0
 72143  1  0  0  0
 72 78  1  0  0  0
 73 78  1  0  0  0
 73144  1  0  0  0
 73145  1  0  0  0
 73146  1  0  0  0
 74 75  1  0  0  0
 74 77  1  0  0  0
 74147  1  0  0  0
 74148  1  0  0  0
 75 79  1  0  0  0
 75149  1  0  0  0
 75150  1  0  0  0
 76 78  1  0  0  0
 76 80  1  0  0  0
 76151  1  0  0  0
 76152  1  0  0  0
 77153  1  0  0  0
 77154  1  0  0  0
 79155  1  0  0  0
 80156  1  0  0  0
M  ISO  4   1 100  68 101  77 101  80 100
M  END
> <chiral flag>
0

> <version>
0

> <s_m_source_file>
/data/baiqing/PycharmProjects/Reinvent-master-3.2/result/LINK_invent/BTK/process_docking_weight1_custom_sum_contain_oxygen_bond_distance_aromatic_linkinvent_7_9_3/rearranged_h_0106.sdf

> <i_m_source_file_index>
78

> <r_mmod_Potential_Energy-OPLS-2005>
152.499420166016

> <r_mmod_Stretch_Energy-OPLS-2005>
137.139633178711

> <r_mmod_Bend_Energy-OPLS-2005>
211.2099609375

> <r_mmod_Torsional_Energy-OPLS-2005>
255.589263916016

> <r_mmod_Improper_Torsional_Energy-OPLS-2005>
5.63877487182617

> <r_mmod_Van_der_Waal_Energy-OPLS-2005>
119.547058105469

> <r_mmod_Electrostatic_Energy-OPLS-2005>
-430.864990234375

> <r_mmod_Solvation_Energy-OPLS-2005>
-231.97802734375

> <b_mmod_Minimization_Converged-OPLS-2005>
0

> <r_mmod_RMS_Derivative-OPLS-2005>
8.76648712158203

$$$$
79
                    3D
 Structure written by MMmdl.
161168  0  0  1  0            999 V2000
  -30.4552  -15.1852   20.3975 C   0  0  0  0  0  0
  -30.4423  -12.7576   19.5198 C   0  0  0  0  0  0
  -29.5323  -12.5711   18.2812 C   0  0  0  0  0  0
  -28.0727  -12.3127   18.6985 C   0  0  0  0  0  0
  -27.6139  -13.2691   19.8274 C   0  0  2  0  0  0
  -28.6502  -13.4006   20.9639 C   0  0  0  0  0  0
  -25.2388  -13.8237   20.5733 C   0  0  0  0  0  0
  -24.1747  -13.0441   20.9283 C   0  0  0  0  0  0
  -24.6390  -11.6935   20.8768 C   0  0  0  0  0  0
  -23.9083  -10.4298   21.0401 C   0  0  0  0  0  0
  -24.3639   -9.4211   21.9176 C   0  0  0  0  0  0
  -23.6310   -8.2243   22.0738 C   0  0  0  0  0  0
  -22.4290   -8.0271   21.3533 C   0  0  0  0  0  0
  -21.9926   -9.0252   20.4642 C   0  0  0  0  0  0
  -22.7254  -10.2136   20.3048 C   0  0  0  0  0  0
  -21.6858   -6.0731   22.5275 C   0  0  0  0  0  0
  -21.4021   -6.5638   23.8210 C   0  0  0  0  0  0
  -21.3668   -5.6790   24.9173 C   0  0  0  0  0  0
  -21.6038   -4.3050   24.7217 C   0  0  0  0  0  0
  -21.8825   -3.8144   23.4340 C   0  0  0  0  0  0
  -21.9200   -4.6959   22.3397 C   0  0  0  0  0  0
  -22.7762  -13.5184   21.1933 C   0  0  0  0  0  0
  -22.1658   -4.2149   21.0968 F   0  0  0  0  0  0
  -21.5634   -3.4527   25.7726 F   0  0  0  0  0  0
  -29.8937  -13.8860   20.3491 N   0  0  0  0  0  0
  -26.2813  -12.9503   20.3221 N   0  0  0  0  0  0
  -25.9322  -11.6618   20.5738 N   0  0  0  0  0  0
  -22.0411  -12.8160   22.0481 N   0  0  0  0  0  0
  -25.4021  -15.1966   20.4090 N   0  0  0  0  0  0
  -31.6726  -15.2145   20.1734 O   0  0  0  0  0  0
  -21.6642   -6.8873   21.4235 O   0  0  0  0  0  0
  -22.3446  -14.5487   20.6769 O   0  0  0  0  0  0
  -24.6584  -31.8292   23.1743 C   0  0  0  0  0  0
  -25.9279  -32.4614   23.8201 C   0  0  1  0  0  0
  -27.2082  -26.9672   20.1883 C   0  0  0  0  0  0
  -25.5970  -33.8430   24.2109 N   0  0  0  0  0  0
  -23.4694  -30.4422   21.5234 C   0  0  2  0  0  0
  -24.9204  -28.8349   20.1151 C   0  0  0  0  0  0
  -22.7638  -29.4473   22.4806 C   0  0  0  0  0  0
  -18.0315  -28.1399   22.8461 C   0  0  0  0  0  0
  -24.1491  -36.7230   23.2643 C   0  0  0  0  0  0
  -26.0352  -30.6478   21.3977 C   0  0  0  0  0  0
  -26.1033  -29.2412   20.7449 C   0  0  0  0  0  0
  -27.2468  -28.3287   20.7529 C   0  0  0  0  0  0
  -25.9977  -26.7013   19.5127 C   0  0  0  0  0  0
  -24.8907  -27.5849   19.4772 C   0  0  0  0  0  0
  -23.7067  -29.7604   20.1489 C   0  0  0  0  0  0
  -25.4129  -36.2982   24.0301 C   0  0  1  0  0  0
  -20.5937  -28.3745   23.1199 C   0  0  2  0  0  0
  -20.6799  -26.9433   22.5406 C   0  0  0  0  0  0
  -19.5777  -26.6371   21.5214 C   0  0  0  0  0  0
  -18.1957  -26.7933   22.1616 C   0  0  0  0  0  0
  -19.1576  -28.8895   23.2816 C   0  0  0  0  0  0
  -18.9485  -30.1488   23.8848 C   0  0  0  0  0  0
  -17.6479  -30.6590   24.0555 C   0  0  0  0  0  0
  -25.9090  -34.9363   23.5024 C   0  0  0  0  0  0
  -16.5372  -29.9076   23.6343 C   0  0  0  0  0  0
  -16.7296  -28.6499   23.0355 C   0  0  0  0  0  0
  -26.4539  -31.6538   25.0710 C   0  0  0  0  0  0
  -25.3676  -31.3794   26.1375 C   0  0  0  0  0  0
  -27.0421  -30.2900   24.6425 C   0  0  0  0  0  0
  -27.6024  -32.4352   25.7521 C   0  0  0  0  0  0
  -27.5576  -37.1775   24.8453 C   0  0  0  0  0  0
  -21.4312  -29.3042   22.3558 N   0  0  0  0  0  0
  -26.4279  -37.3714   23.9405 N   0  0  0  0  0  0
  -24.7421  -30.9997   22.0860 N   0  0  0  0  0  0
  -23.4203  -28.8036   23.3027 O   0  0  0  0  0  0
  -28.2301  -25.8957   20.2124 O   0  0  0  0  0  0
  -26.5692  -34.8886   22.4610 O   0  0  0  0  0  0
  -23.5665  -32.1248   23.6868 O   0  0  0  0  0  0
  -28.5036  -22.6466   18.5124 C   0  0  0  0  0  0
  -30.3227  -23.2027   20.0893 C   0  0  0  0  0  0
  -26.4111  -19.5710   19.6030 C   0  0  0  0  0  0
  -28.1981  -19.1018   17.9566 C   0  0  0  0  0  0
  -28.7921  -21.1801   20.7545 C   0  0  0  0  0  0
  -29.9457  -18.0555   20.4942 C   0  0  0  0  0  0
  -27.9876  -24.3021   20.4789 C   0  0  0  0  0  0
  -28.8079  -19.4142   20.3600 C   0  0  2  0  0  0
  -28.8376  -22.8065   20.0006 C   0  0  0  0  0  0
  -29.6685  -16.4208   20.5003 N   0  0  0  0  0  0
  -27.7689  -19.0233   19.3682 N   0  3  0  0  0  0
  -31.4598  -12.9673   19.1857 H   0  0  0  0  0  0
  -30.5048  -11.8380   20.1038 H   0  0  0  0  0  0
  -29.8983  -11.7529   17.6609 H   0  0  0  0  0  0
  -29.5816  -13.4698   17.6653 H   0  0  0  0  0  0
  -28.0029  -11.2804   19.0405 H   0  0  0  0  0  0
  -27.4101  -12.3955   17.8359 H   0  0  0  0  0  0
  -27.5410  -14.2473   19.3518 H   0  0  0  0  0  0
  -28.8020  -12.4527   21.4816 H   0  0  0  0  0  0
  -28.3036  -14.1134   21.7143 H   0  0  0  0  0  0
  -25.2777   -9.5681   22.4772 H   0  0  0  0  0  0
  -24.0023   -7.4620   22.7441 H   0  0  0  0  0  0
  -21.0861   -8.8760   19.8947 H   0  0  0  0  0  0
  -22.3691  -10.9675   19.6168 H   0  0  0  0  0  0
  -21.2003   -7.6145   23.9714 H   0  0  0  0  0  0
  -21.1493   -6.0515   25.9079 H   0  0  0  0  0  0
  -22.0601   -2.7604   23.2833 H   0  0  0  0  0  0
  -22.4029  -11.9840   22.4895 H   0  0  0  0  0  0
  -21.1013  -13.1162   22.2663 H   0  0  0  0  0  0
  -24.6205  -15.8380   20.4898 H   0  0  0  0  0  0
  -26.2148  -15.6094   19.9769 H   0  0  0  0  0  0
  -26.7339  -32.5164   23.0912 H   0  0  0  0  0  0
  -25.0065  -33.9518   25.0224 H   0  0  0  0  0  0
  -22.7789  -31.2720   21.3568 H   0  0  0  0  0  0
  -23.3764  -35.9550   23.3263 H   0  0  0  0  0  0
  -24.3567  -36.8925   22.2065 H   0  0  0  0  0  0
  -23.7242  -37.6405   23.6727 H   0  0  0  0  0  0
  -26.2068  -31.3898   20.6170 H   0  0  0  0  0  0
  -26.8975  -30.7052   22.0500 H   0  0  0  0  0  0
  -28.1481  -28.6384   21.2627 H   0  0  0  0  0  0
  -25.8827  -25.7499   19.0141 H   0  0  0  0  0  0
  -23.9927  -27.2713   18.9622 H   0  0  0  0  0  0
  -23.8566  -30.5292   19.3897 H   0  0  0  0  0  0
  -22.8155  -29.2141   19.8352 H   0  0  0  0  0  0
  -25.1332  -36.1784   25.0796 H   0  0  0  0  0  0
  -21.0018  -28.3341   24.1325 H   0  0  0  0  0  0
  -20.5680  -26.2366   23.3639 H   0  0  0  0  0  0
  -21.6666  -26.7417   22.1219 H   0  0  0  0  0  0
  -19.6940  -25.6269   21.1281 H   0  0  0  0  0  0
  -19.6722  -27.3148   20.6719 H   0  0  0  0  0  0
  -17.4237  -26.6674   21.4010 H   0  0  0  0  0  0
  -18.0343  -26.0090   22.9024 H   0  0  0  0  0  0
  -19.7964  -30.7320   24.2189 H   0  0  0  0  0  0
  -17.5029  -31.6263   24.5172 H   0  0  0  0  0  0
  -15.5368  -30.2954   23.7705 H   0  0  0  0  0  0
  -15.8696  -28.0801   22.7088 H   0  0  0  0  0  0
  -24.5841  -30.7163   25.7687 H   0  0  0  0  0  0
  -24.8882  -32.3004   26.4707 H   0  0  0  0  0  0
  -25.7900  -30.9014   27.0221 H   0  0  0  0  0  0
  -26.3072  -29.6584   24.1421 H   0  0  0  0  0  0
  -27.3928  -29.7258   25.5077 H   0  0  0  0  0  0
  -27.9024  -30.4064   23.9833 H   0  0  0  0  0  0
  -27.2551  -33.3651   26.2045 H   0  0  0  0  0  0
  -28.3862  -32.6942   25.0388 H   0  0  0  0  0  0
  -28.0670  -31.8542   26.5501 H   0  0  0  0  0  0
  -28.2567  -38.0096   24.7514 H   0  0  0  0  0  0
  -28.1101  -36.2629   24.6256 H   0  0  0  0  0  0
  -27.2302  -37.1391   25.8856 H   0  0  0  0  0  0
  -20.9553  -29.8728   21.6694 H   0  0  0  0  0  0
  -26.0131  -38.2775   24.1417 H   0  0  0  0  0  0
  -29.1717  -21.9321   18.0350 H   0  0  0  0  0  0
  -28.6194  -23.5924   17.9806 H   0  0  0  0  0  0
  -27.4752  -22.3210   18.3612 H   0  0  0  0  0  0
  -30.9693  -22.4822   19.5866 H   0  0  0  0  0  0
  -30.6505  -23.2674   21.1274 H   0  0  0  0  0  0
  -30.5023  -24.1765   19.6313 H   0  0  0  0  0  0
  -25.6899  -19.0990   18.9338 H   0  0  0  0  0  0
  -26.3672  -20.6444   19.4293 H   0  0  0  0  0  0
  -26.0768  -19.3769   20.6226 H   0  0  0  0  0  0
  -27.5572  -18.4778   17.3331 H   0  0  0  0  0  0
  -29.2204  -18.7477   17.8255 H   0  0  0  0  0  0
  -28.1277  -20.1116   17.5659 H   0  0  0  0  0  0
  -29.5170  -21.2442   21.5656 H   0  0  0  0  0  0
  -27.8542  -21.2645   21.3039 H   0  0  0  0  0  0
  -30.5210  -18.2380   21.4023 H   0  0  0  0  0  0
  -30.6766  -18.2007   19.6988 H   0  0  0  0  0  0
  -27.9604  -24.2505   21.5674 H   0  0  0  0  0  0
  -26.9482  -24.1260   20.2031 H   0  0  0  0  0  0
  -28.2929  -19.1269   21.2777 H   0  0  0  0  0  0
  -28.7015  -16.1903   20.6741 H   0  0  0  0  0  0
  -27.6614  -18.0343   19.5297 H   0  0  0  0  0  0
  1 25  1  0  0  0
  1 30  2  0  0  0
  1 80  1  0  0  0
  2  3  1  0  0  0
  2 25  1  0  0  0
  2 82  1  0  0  0
  2 83  1  0  0  0
  3  4  1  0  0  0
  3 84  1  0  0  0
  3 85  1  0  0  0
  4  5  1  0  0  0
  4 86  1  0  0  0
  4 87  1  0  0  0
  5  6  1  0  0  0
  5 26  1  0  0  0
  5 88  1  0  0  0
  6 25  1  0  0  0
  6 89  1  0  0  0
  6 90  1  0  0  0
  7  8  2  0  0  0
  7 26  1  0  0  0
  7 29  1  0  0  0
  8  9  1  0  0  0
  8 22  1  0  0  0
  9 10  1  0  0  0
  9 27  2  0  0  0
 10 11  2  0  0  0
 10 15  1  0  0  0
 11 12  1  0  0  0
 11 91  1  0  0  0
 12 13  2  0  0  0
 12 92  1  0  0  0
 13 14  1  0  0  0
 13 31  1  0  0  0
 14 15  2  0  0  0
 14 93  1  0  0  0
 15 94  1  0  0  0
 16 17  2  0  0  0
 16 21  1  0  0  0
 16 31  1  0  0  0
 17 18  1  0  0  0
 17 95  1  0  0  0
 18 19  2  0  0  0
 18 96  1  0  0  0
 19 20  1  0  0  0
 19 24  1  0  0  0
 20 21  2  0  0  0
 20 97  1  0  0  0
 21 23  1  0  0  0
 22 28  1  0  0  0
 22 32  2  0  0  0
 26 27  1  0  0  0
 28 98  1  0  0  0
 28 99  1  0  0  0
 29100  1  0  0  0
 29101  1  0  0  0
 33 34  1  0  0  0
 33 66  1  0  0  0
 33 70  2  0  0  0
 34 36  1  0  0  0
 34 59  1  0  0  0
 34102  1  0  0  0
 35 44  2  0  0  0
 35 45  1  0  0  0
 35 68  1  0  0  0
 36 56  1  0  0  0
 36103  1  0  0  0
 37 39  1  0  0  0
 37 47  1  0  0  0
 37 66  1  0  0  0
 37104  1  0  0  0
 38 43  2  0  0  0
 38 46  1  0  0  0
 38 47  1  0  0  0
 39 64  1  0  0  0
 39 67  2  0  0  0
 40 52  1  0  0  0
 40 53  2  0  0  0
 40 58  1  0  0  0
 41105  1  0  0  0
 41106  1  0  0  0
 41107  1  0  0  0
 41 48  1  0  0  0
 42 43  1  0  0  0
 42 66  1  0  0  0
 42108  1  0  0  0
 42109  1  0  0  0
 43 44  1  0  0  0
 44110  1  0  0  0
 45 46  2  0  0  0
 45111  1  0  0  0
 46112  1  0  0  0
 47113  1  0  0  0
 47114  1  0  0  0
 48 56  1  0  0  0
 48 65  1  0  0  0
 48115  1  0  0  0
 49 50  1  0  0  0
 49 53  1  0  0  0
 49 64  1  0  0  0
 49116  1  0  0  0
 50 51  1  0  0  0
 50117  1  0  0  0
 50118  1  0  0  0
 51 52  1  0  0  0
 51119  1  0  0  0
 51120  1  0  0  0
 52121  1  0  0  0
 52122  1  0  0  0
 53 54  1  0  0  0
 54 55  2  0  0  0
 54123  1  0  0  0
 55 57  1  0  0  0
 55124  1  0  0  0
 56 69  2  0  0  0
 57 58  2  0  0  0
 57125  1  0  0  0
 58126  1  0  0  0
 59 60  1  0  0  0
 59 61  1  0  0  0
 59 62  1  0  0  0
 60127  1  0  0  0
 60128  1  0  0  0
 60129  1  0  0  0
 61130  1  0  0  0
 61131  1  0  0  0
 61132  1  0  0  0
 62133  1  0  0  0
 62134  1  0  0  0
 62135  1  0  0  0
 63 65  1  0  0  0
 63136  1  0  0  0
 63137  1  0  0  0
 63138  1  0  0  0
 64139  1  0  0  0
 65140  1  0  0  0
 68 77  1  0  0  0
 71141  1  0  0  0
 71142  1  0  0  0
 71143  1  0  0  0
 71 79  1  0  0  0
 72 79  1  0  0  0
 72144  1  0  0  0
 72145  1  0  0  0
 72146  1  0  0  0
 73147  1  0  0  0
 73148  1  0  0  0
 73149  1  0  0  0
 73 81  1  0  0  0
 74 81  1  0  0  0
 74150  1  0  0  0
 74151  1  0  0  0
 74152  1  0  0  0
 75 79  1  0  0  0
 75153  1  0  0  0
 75154  1  0  0  0
 75 78  1  0  0  0
 76 78  1  0  0  0
 76 80  1  0  0  0
 76155  1  0  0  0
 76156  1  0  0  0
 77 79  1  0  0  0
 77157  1  0  0  0
 77158  1  0  0  0
 78 81  1  0  0  0
 78159  1  0  0  0
 80160  1  0  0  0
 81161  1  0  0  0
M  CHG  1  81   1
M  ISO  4   1 100  68 101  77 101  80 100
M  END
> <chiral flag>
0

> <version>
0

> <s_m_source_file>
/data/baiqing/PycharmProjects/Reinvent-master-3.2/result/LINK_invent/BTK/process_docking_weight1_custom_sum_contain_oxygen_bond_distance_aromatic_linkinvent_7_9_3/rearranged_h_0106.sdf

> <i_m_source_file_index>
79

> <r_mmod_Potential_Energy-OPLS-2005>
1117.70690917969

> <r_mmod_Stretch_Energy-OPLS-2005>
572.119140625

> <r_mmod_Bend_Energy-OPLS-2005>
483.23828125

> <r_mmod_Torsional_Energy-OPLS-2005>
295.183044433594

> <r_mmod_Improper_Torsional_Energy-OPLS-2005>
4.36940860748291

> <r_mmod_Van_der_Waal_Energy-OPLS-2005>
105.798652648926

> <r_mmod_Electrostatic_Energy-OPLS-2005>
-250.347045898438

> <r_mmod_Solvation_Energy-OPLS-2005>
-477.262573242188

> <b_mmod_Minimization_Converged-OPLS-2005>
0

> <r_mmod_RMS_Derivative-OPLS-2005>
2.0625

$$$$
80
                    3D
 Structure written by MMmdl.
161169  0  0  1  0            999 V2000
  -30.3907  -15.3537   20.3824 C   0  0  0  0  0  0
  -30.4543  -12.8960   19.4882 C   0  0  0  0  0  0
  -29.5458  -12.5884   18.2754 C   0  0  0  0  0  0
  -28.0991  -12.3041   18.7162 C   0  0  0  0  0  0
  -27.6089  -13.2817   19.8107 C   0  0  2  0  0  0
  -28.6520  -13.5020   20.9252 C   0  0  0  0  0  0
  -25.2418  -13.8273   20.5781 C   0  0  0  0  0  0
  -24.1775  -13.0443   20.9245 C   0  0  0  0  0  0
  -24.6455  -11.6943   20.8731 C   0  0  0  0  0  0
  -23.9110  -10.4295   21.0385 C   0  0  0  0  0  0
  -24.3629   -9.4220   21.9194 C   0  0  0  0  0  0
  -23.6287   -8.2251   22.0769 C   0  0  0  0  0  0
  -22.4287   -8.0287   21.3547 C   0  0  0  0  0  0
  -21.9933   -9.0268   20.4667 C   0  0  0  0  0  0
  -22.7249  -10.2137   20.3072 C   0  0  0  0  0  0
  -21.6866   -6.0751   22.5270 C   0  0  0  0  0  0
  -21.4019   -6.5645   23.8215 C   0  0  0  0  0  0
  -21.3650   -5.6781   24.9173 C   0  0  0  0  0  0
  -21.6047   -4.3063   24.7219 C   0  0  0  0  0  0
  -21.8808   -3.8147   23.4353 C   0  0  0  0  0  0
  -21.9204   -4.6967   22.3403 C   0  0  0  0  0  0
  -22.7804  -13.5195   21.1866 C   0  0  0  0  0  0
  -22.1664   -4.2154   21.0986 F   0  0  0  0  0  0
  -21.5628   -3.4542   25.7743 F   0  0  0  0  0  0
  -29.8451  -14.0431   20.2555 N   0  0  0  0  0  0
  -26.2844  -12.9528   20.3212 N   0  0  0  0  0  0
  -25.9395  -11.6620   20.5692 N   0  0  0  0  0  0
  -22.0431  -12.8200   22.0436 N   0  0  0  0  0  0
  -25.4052  -15.1982   20.4290 N   0  0  0  0  0  0
  -31.6332  -15.3334   20.3467 O   0  0  0  0  0  0
  -21.6643   -6.8886   21.4252 O   0  0  0  0  0  0
  -22.3495  -14.5494   20.6721 O   0  0  0  0  0  0
  -24.6681  -31.8270   23.1680 C   0  0  0  0  0  0
  -25.9346  -32.4528   23.8186 C   0  0  1  0  0  0
  -27.1842  -26.9132   20.2201 C   0  0  0  0  0  0
  -25.6017  -33.8372   24.2038 N   0  0  0  0  0  0
  -23.4730  -30.4454   21.5146 C   0  0  2  0  0  0
  -24.9224  -28.8319   20.1112 C   0  0  0  0  0  0
  -22.7744  -29.4501   22.4825 C   0  0  0  0  0  0
  -18.0351  -28.1496   22.8442 C   0  0  0  0  0  0
  -24.1522  -36.7138   23.2664 C   0  0  0  0  0  0
  -26.0419  -30.6304   21.4030 C   0  0  0  0  0  0
  -26.1026  -29.2258   20.7519 C   0  0  0  0  0  0
  -27.2293  -28.2865   20.7717 C   0  0  0  0  0  0
  -25.9717  -26.6803   19.5284 C   0  0  0  0  0  0
  -24.8887  -27.5918   19.4630 C   0  0  0  0  0  0
  -23.7042  -29.7486   20.1435 C   0  0  0  0  0  0
  -25.4150  -36.2882   24.0303 C   0  0  1  0  0  0
  -20.6023  -28.3658   23.1157 C   0  0  2  0  0  0
  -20.6861  -26.9338   22.5320 C   0  0  0  0  0  0
  -19.5747  -26.6237   21.5318 C   0  0  0  0  0  0
  -18.1895  -26.8008   22.1664 C   0  0  0  0  0  0
  -19.1642  -28.8901   23.2745 C   0  0  0  0  0  0
  -18.9680  -30.1521   23.8738 C   0  0  0  0  0  0
  -17.6696  -30.6685   24.0534 C   0  0  0  0  0  0
  -25.9136  -34.9303   23.4962 C   0  0  0  0  0  0
  -16.5579  -29.9275   23.6375 C   0  0  0  0  0  0
  -16.7393  -28.6643   23.0456 C   0  0  0  0  0  0
  -26.4630  -31.6490   25.0749 C   0  0  0  0  0  0
  -25.3709  -31.3772   26.1347 C   0  0  0  0  0  0
  -27.0560  -30.2842   24.6553 C   0  0  0  0  0  0
  -27.6102  -32.4338   25.7554 C   0  0  0  0  0  0
  -27.5563  -37.1718   24.8466 C   0  0  0  0  0  0
  -21.4428  -29.3137   22.3716 N   0  0  0  0  0  0
  -26.4261  -37.3610   23.9422 N   0  0  0  0  0  0
  -24.7476  -31.0058   22.0740 N   0  0  0  0  0  0
  -23.4480  -28.7955   23.2875 O   0  0  0  0  0  0
  -28.1611  -25.7849   20.3442 O   0  0  0  0  0  0
  -26.5762  -34.8825   22.4564 O   0  0  0  0  0  0
  -23.5726  -32.1233   23.6768 O   0  0  0  0  0  0
  -29.3441  -19.5942   20.2468 C   0  0  0  0  0  0
  -27.6076  -19.0269   22.1638 C   0  0  0  0  0  0
  -28.5971  -20.8612   20.7945 C   0  0  0  0  0  0
  -27.6588  -20.3904   21.7618 C   0  0  0  0  0  0
  -29.2166  -18.0962   20.6860 C   0  0  0  0  0  0
  -30.3015  -22.9947   20.8773 C   0  0  0  0  0  0
  -27.1497  -23.1412   24.2048 C   0  0  0  0  0  0
  -26.0282  -21.0027   24.8809 C   0  0  0  0  0  0
  -26.6546  -21.3192   22.4523 C   0  0  0  0  0  0
  -27.8812  -24.1432   20.2550 C   0  0  0  0  0  0
  -28.8189  -22.6364   20.7348 C   0  0  1  0  0  0
  -27.0349  -21.6358   23.9173 C   0  0  0  0  0  0
  -28.3274  -17.9794   21.6873 N   0  0  0  0  0  0
  -29.6397  -16.6250   20.1115 N   0  0  0  0  0  0
  -31.4513  -13.1463   19.1229 H   0  0  0  0  0  0
  -30.5814  -12.0201   20.1226 H   0  0  0  0  0  0
  -29.9438  -11.7467   17.7099 H   0  0  0  0  0  0
  -29.5528  -13.4437   17.5975 H   0  0  0  0  0  0
  -28.0737  -11.2865   19.0997 H   0  0  0  0  0  0
  -27.4298  -12.3369   17.8559 H   0  0  0  0  0  0
  -27.5031  -14.2350   19.2937 H   0  0  0  0  0  0
  -28.8672  -12.5905   21.4817 H   0  0  0  0  0  0
  -28.2881  -14.2370   21.6451 H   0  0  0  0  0  0
  -25.2782   -9.5717   22.4778 H   0  0  0  0  0  0
  -24.0000   -7.4677   22.7517 H   0  0  0  0  0  0
  -21.0849   -8.8787   19.8992 H   0  0  0  0  0  0
  -22.3693  -10.9685   19.6191 H   0  0  0  0  0  0
  -21.1993   -7.6153   23.9712 H   0  0  0  0  0  0
  -21.1484   -6.0531   25.9076 H   0  0  0  0  0  0
  -22.0597   -2.7617   23.2849 H   0  0  0  0  0  0
  -22.3985  -11.9846   22.4814 H   0  0  0  0  0  0
  -21.1084  -13.1304   22.2631 H   0  0  0  0  0  0
  -24.6470  -15.8524   20.5754 H   0  0  0  0  0  0
  -26.2690  -15.6550   20.1734 H   0  0  0  0  0  0
  -26.7422  -32.5068   23.0909 H   0  0  0  0  0  0
  -25.0026  -33.9395   25.0096 H   0  0  0  0  0  0
  -22.7760  -31.2726   21.3462 H   0  0  0  0  0  0
  -23.3753  -35.9480   23.3273 H   0  0  0  0  0  0
  -24.3590  -36.8841   22.2076 H   0  0  0  0  0  0
  -23.7282  -37.6324   23.6760 H   0  0  0  0  0  0
  -26.2524  -31.3810   20.6398 H   0  0  0  0  0  0
  -26.8853  -30.6600   22.0789 H   0  0  0  0  0  0
  -28.1156  -28.5938   21.3072 H   0  0  0  0  0  0
  -25.8045  -25.7163   19.0739 H   0  0  0  0  0  0
  -23.9909  -27.3111   18.9292 H   0  0  0  0  0  0
  -23.8515  -30.4993   19.3664 H   0  0  0  0  0  0
  -22.8064  -29.2068   19.8366 H   0  0  0  0  0  0
  -25.1347  -36.1667   25.0786 H   0  0  0  0  0  0
  -21.0082  -28.3155   24.1331 H   0  0  0  0  0  0
  -20.5968  -26.2229   23.3550 H   0  0  0  0  0  0
  -21.6656  -26.7394   22.0860 H   0  0  0  0  0  0
  -19.6822  -27.2860   20.6730 H   0  0  0  0  0  0
  -19.6781  -25.6086   21.1574 H   0  0  0  0  0  0
  -17.4225  -26.6965   21.4007 H   0  0  0  0  0  0
  -17.9972  -26.0239   22.9082 H   0  0  0  0  0  0
  -19.8111  -30.7326   24.2163 H   0  0  0  0  0  0
  -17.5495  -31.6338   24.5257 H   0  0  0  0  0  0
  -15.5633  -30.3337   23.7733 H   0  0  0  0  0  0
  -15.8737  -28.0977   22.7409 H   0  0  0  0  0  0
  -24.5905  -30.7136   25.7587 H   0  0  0  0  0  0
  -24.8941  -32.3029   26.4617 H   0  0  0  0  0  0
  -25.7897  -30.9026   27.0213 H   0  0  0  0  0  0
  -26.3261  -29.6464   24.1550 H   0  0  0  0  0  0
  -27.4013  -29.7283   25.5267 H   0  0  0  0  0  0
  -27.9239  -30.3977   24.0030 H   0  0  0  0  0  0
  -27.2604  -33.3637   26.2016 H   0  0  0  0  0  0
  -28.3970  -32.6849   25.0441 H   0  0  0  0  0  0
  -28.0675  -31.8549   26.5571 H   0  0  0  0  0  0
  -28.2530  -38.0063   24.7478 H   0  0  0  0  0  0
  -28.1114  -36.2572   24.6335 H   0  0  0  0  0  0
  -27.2278  -37.1381   25.8868 H   0  0  0  0  0  0
  -20.9570  -29.9239   21.7307 H   0  0  0  0  0  0
  -26.0101  -38.2658   24.1432 H   0  0  0  0  0  0
  -30.0509  -19.7918   19.4538 H   0  0  0  0  0  0
  -26.9169  -18.7416   22.9440 H   0  0  0  0  0  0
  -30.7499  -22.5699   21.7796 H   0  0  0  0  0  0
  -30.4096  -24.0771   20.9967 H   0  0  0  0  0  0
  -30.8942  -22.6801   20.0192 H   0  0  0  0  0  0
  -27.2684  -23.3427   25.2701 H   0  0  0  0  0  0
  -26.2528  -23.6654   23.8815 H   0  0  0  0  0  0
  -27.9979  -23.6092   23.7064 H   0  0  0  0  0  0
  -26.2989  -21.1993   25.9161 H   0  0  0  0  0  0
  -25.9627  -19.9250   24.7421 H   0  0  0  0  0  0
  -25.0311  -21.4090   24.7105 H   0  0  0  0  0  0
  -25.6799  -20.8234   22.4107 H   0  0  0  0  0  0
  -26.4822  -22.2318   21.8836 H   0  0  0  0  0  0
  -27.6382  -24.0046   19.1938 H   0  0  0  0  0  0
  -26.9475  -24.0709   20.8256 H   0  0  0  0  0  0
  -28.6056  -22.7788   21.7895 H   0  0  0  0  0  0
  -28.0161  -21.1917   24.1204 H   0  0  0  0  0  0
  -28.8459  -16.2925   19.5865 H   0  0  0  0  0  0
  1 25  1  0  0  0
  1 30  2  0  0  0
  1 84  1  0  0  0
  2  3  1  0  0  0
  2 25  1  0  0  0
  2 85  1  0  0  0
  2 86  1  0  0  0
  3  4  1  0  0  0
  3 87  1  0  0  0
  3 88  1  0  0  0
  4  5  1  0  0  0
  4 89  1  0  0  0
  4 90  1  0  0  0
  5  6  1  0  0  0
  5 26  1  0  0  0
  5 91  1  0  0  0
  6 25  1  0  0  0
  6 92  1  0  0  0
  6 93  1  0  0  0
  7  8  2  0  0  0
  7 26  1  0  0  0
  7 29  1  0  0  0
  8  9  1  0  0  0
  8 22  1  0  0  0
  9 10  1  0  0  0
  9 27  2  0  0  0
 10 11  2  0  0  0
 10 15  1  0  0  0
 11 12  1  0  0  0
 11 94  1  0  0  0
 12 13  2  0  0  0
 12 95  1  0  0  0
 13 14  1  0  0  0
 13 31  1  0  0  0
 14 15  2  0  0  0
 14 96  1  0  0  0
 15 97  1  0  0  0
 16 17  2  0  0  0
 16 21  1  0  0  0
 16 31  1  0  0  0
 17 18  1  0  0  0
 17 98  1  0  0  0
 18 19  2  0  0  0
 18 99  1  0  0  0
 19 20  1  0  0  0
 19 24  1  0  0  0
 20 21  2  0  0  0
 20100  1  0  0  0
 21 23  1  0  0  0
 22 28  1  0  0  0
 22 32  2  0  0  0
 26 27  1  0  0  0
 28101  1  0  0  0
 28102  1  0  0  0
 29103  1  0  0  0
 29104  1  0  0  0
 33 34  1  0  0  0
 33 66  1  0  0  0
 33 70  2  0  0  0
 34 36  1  0  0  0
 34 59  1  0  0  0
 34105  1  0  0  0
 35 44  2  0  0  0
 35 45  1  0  0  0
 35 68  1  0  0  0
 36 56  1  0  0  0
 36106  1  0  0  0
 37 39  1  0  0  0
 37 47  1  0  0  0
 37 66  1  0  0  0
 37107  1  0  0  0
 38 43  2  0  0  0
 38 46  1  0  0  0
 38 47  1  0  0  0
 39 64  1  0  0  0
 39 67  2  0  0  0
 40 52  1  0  0  0
 40 53  2  0  0  0
 40 58  1  0  0  0
 41108  1  0  0  0
 41109  1  0  0  0
 41110  1  0  0  0
 41 48  1  0  0  0
 42 43  1  0  0  0
 42 66  1  0  0  0
 42111  1  0  0  0
 42112  1  0  0  0
 43 44  1  0  0  0
 44113  1  0  0  0
 45 46  2  0  0  0
 45114  1  0  0  0
 46115  1  0  0  0
 47116  1  0  0  0
 47117  1  0  0  0
 48 56  1  0  0  0
 48 65  1  0  0  0
 48118  1  0  0  0
 49 50  1  0  0  0
 49 53  1  0  0  0
 49 64  1  0  0  0
 49119  1  0  0  0
 50 51  1  0  0  0
 50120  1  0  0  0
 50121  1  0  0  0
 51 52  1  0  0  0
 51122  1  0  0  0
 51123  1  0  0  0
 52124  1  0  0  0
 52125  1  0  0  0
 53 54  1  0  0  0
 54 55  2  0  0  0
 54126  1  0  0  0
 55 57  1  0  0  0
 55127  1  0  0  0
 56 69  2  0  0  0
 57 58  2  0  0  0
 57128  1  0  0  0
 58129  1  0  0  0
 59 60  1  0  0  0
 59 61  1  0  0  0
 59 62  1  0  0  0
 60130  1  0  0  0
 60131  1  0  0  0
 60132  1  0  0  0
 61133  1  0  0  0
 61134  1  0  0  0
 61135  1  0  0  0
 62136  1  0  0  0
 62137  1  0  0  0
 62138  1  0  0  0
 63 65  1  0  0  0
 63139  1  0  0  0
 63140  1  0  0  0
 63141  1  0  0  0
 64142  1  0  0  0
 65143  1  0  0  0
 68 80  1  0  0  0
 71 73  2  0  0  0
 71 75  1  0  0  0
 71144  1  0  0  0
 72 74  2  0  0  0
 72 83  1  0  0  0
 72145  1  0  0  0
 73 74  1  0  0  0
 73 81  1  0  0  0
 74 79  1  0  0  0
 75 83  2  0  0  0
 75 84  1  0  0  0
 76146  1  0  0  0
 76147  1  0  0  0
 76148  1  0  0  0
 76 81  1  0  0  0
 77149  1  0  0  0
 77150  1  0  0  0
 77151  1  0  0  0
 77 82  1  0  0  0
 78 82  1  0  0  0
 78152  1  0  0  0
 78153  1  0  0  0
 78154  1  0  0  0
 79 82  1  0  0  0
 79155  1  0  0  0
 79156  1  0  0  0
 80 81  1  0  0  0
 80157  1  0  0  0
 80158  1  0  0  0
 81159  1  0  0  0
 82160  1  0  0  0
 84161  1  0  0  0
M  ISO  4   1 100  68 101  80 101  84 100
M  END
> <chiral flag>
0

> <version>
0

> <s_m_source_file>
/data/baiqing/PycharmProjects/Reinvent-master-3.2/result/LINK_invent/BTK/process_docking_weight1_custom_sum_contain_oxygen_bond_distance_aromatic_linkinvent_7_9_3/rearranged_h_0106.sdf

> <i_m_source_file_index>
80

> <r_mmod_Potential_Energy-OPLS-2005>
1464.78930664062

> <r_mmod_Stretch_Energy-OPLS-2005>
664.595581054688

> <r_mmod_Bend_Energy-OPLS-2005>
534.181945800781

> <r_mmod_Torsional_Energy-OPLS-2005>
300.8515625

> <r_mmod_Improper_Torsional_Energy-OPLS-2005>
20.6964874267578

> <r_mmod_Van_der_Waal_Energy-OPLS-2005>
130.288986206055

> <r_mmod_Electrostatic_Energy-OPLS-2005>
-521.072387695312

> <r_mmod_Solvation_Energy-OPLS-2005>
-209.797470092773

> <b_mmod_Minimization_Converged-OPLS-2005>
0

> <r_mmod_RMS_Derivative-OPLS-2005>
13.8212394714355

$$$$
81
                    3D
 Structure written by MMmdl.
166174  0  0  1  0            999 V2000
  -30.5009  -15.0451   20.4098 C   0  0  0  0  0  0
  -30.4427  -12.6605   19.4874 C   0  0  0  0  0  0
  -29.5207  -12.5358   18.2520 C   0  0  0  0  0  0
  -28.0592  -12.3018   18.6803 C   0  0  0  0  0  0
  -27.6201  -13.2518   19.8246 C   0  0  2  0  0  0
  -28.6647  -13.3269   20.9554 C   0  0  0  0  0  0
  -25.2433  -13.8211   20.5717 C   0  0  0  0  0  0
  -24.1762  -13.0429   20.9244 C   0  0  0  0  0  0
  -24.6388  -11.6918   20.8761 C   0  0  0  0  0  0
  -23.9077  -10.4287   21.0412 C   0  0  0  0  0  0
  -24.3627   -9.4202   21.9188 C   0  0  0  0  0  0
  -23.6299   -8.2238   22.0755 C   0  0  0  0  0  0
  -22.4280   -8.0279   21.3545 C   0  0  0  0  0  0
  -21.9919   -9.0253   20.4646 C   0  0  0  0  0  0
  -22.7251  -10.2129   20.3058 C   0  0  0  0  0  0
  -21.6853   -6.0737   22.5281 C   0  0  0  0  0  0
  -21.4014   -6.5641   23.8214 C   0  0  0  0  0  0
  -21.3659   -5.6794   24.9176 C   0  0  0  0  0  0
  -21.6043   -4.3056   24.7226 C   0  0  0  0  0  0
  -21.8819   -3.8148   23.4348 C   0  0  0  0  0  0
  -21.9192   -4.6964   22.3404 C   0  0  0  0  0  0
  -22.7784  -13.5197   21.1898 C   0  0  0  0  0  0
  -22.1662   -4.2150   21.0981 F   0  0  0  0  0  0
  -21.5627   -3.4539   25.7739 F   0  0  0  0  0  0
  -29.9180  -13.7736   20.3338 N   0  0  0  0  0  0
  -26.2846  -12.9446   20.3205 N   0  0  0  0  0  0
  -25.9316  -11.6574   20.5724 N   0  0  0  0  0  0
  -22.0438  -12.8180   22.0451 N   0  0  0  0  0  0
  -25.4075  -15.1943   20.4143 N   0  0  0  0  0  0
  -31.7261  -15.0884   20.2482 O   0  0  0  0  0  0
  -21.6641   -6.8879   21.4242 O   0  0  0  0  0  0
  -22.3466  -14.5500   20.6740 O   0  0  0  0  0  0
  -24.6485  -31.8376   23.1808 C   0  0  0  0  0  0
  -25.9229  -32.4662   23.8226 C   0  0  1  0  0  0
  -27.2204  -27.0723   20.1795 C   0  0  0  0  0  0
  -25.5955  -33.8469   24.2145 N   0  0  0  0  0  0
  -23.4553  -30.4521   21.5280 C   0  0  2  0  0  0
  -24.9044  -28.8537   20.1236 C   0  0  0  0  0  0
  -22.7588  -29.4517   22.4849 C   0  0  0  0  0  0
  -18.0306  -28.1402   22.8475 C   0  0  0  0  0  0
  -24.1490  -36.7239   23.2645 C   0  0  0  0  0  0
  -26.0134  -30.6926   21.3852 C   0  0  0  0  0  0
  -26.0841  -29.2922   20.7386 C   0  0  0  0  0  0
  -27.2445  -28.4220   20.7370 C   0  0  0  0  0  0
  -26.0108  -26.7355   19.5402 C   0  0  0  0  0  0
  -24.8826  -27.5903   19.5086 C   0  0  0  0  0  0
  -23.6862  -29.7679   20.1534 C   0  0  0  0  0  0
  -25.4126  -36.3011   24.0311 C   0  0  1  0  0  0
  -20.5921  -28.3732   23.1228 C   0  0  2  0  0  0
  -20.6789  -26.9431   22.5405 C   0  0  0  0  0  0
  -19.5763  -26.6383   21.5214 C   0  0  0  0  0  0
  -18.1945  -26.7940   22.1623 C   0  0  0  0  0  0
  -19.1564  -28.8885   23.2842 C   0  0  0  0  0  0
  -18.9480  -30.1479   23.8871 C   0  0  0  0  0  0
  -17.6476  -30.6597   24.0559 C   0  0  0  0  0  0
  -25.9080  -34.9391   23.5042 C   0  0  0  0  0  0
  -16.5366  -29.9090   23.6339 C   0  0  0  0  0  0
  -16.7291  -28.6509   23.0359 C   0  0  0  0  0  0
  -26.4534  -31.6553   25.0692 C   0  0  0  0  0  0
  -25.3705  -31.3756   26.1379 C   0  0  0  0  0  0
  -27.0410  -30.2946   24.6307 C   0  0  0  0  0  0
  -27.6049  -32.4335   25.7488 C   0  0  0  0  0  0
  -27.5571  -37.1777   24.8468 C   0  0  0  0  0  0
  -21.4275  -29.3048   22.3595 N   0  0  0  0  0  0
  -26.4283  -37.3732   23.9409 N   0  0  0  0  0  0
  -24.7262  -31.0178   22.0864 N   0  0  0  0  0  0
  -23.4202  -28.8081   23.3032 O   0  0  0  0  0  0
  -28.3088  -26.1143   20.1178 O   0  0  0  0  0  0
  -26.5675  -34.8903   22.4627 O   0  0  0  0  0  0
  -23.5591  -32.1274   23.6997 O   0  0  0  0  0  0
  -30.2946  -19.9524   19.2688 C   0  0  0  0  0  0
  -28.7679  -20.4119   20.7192 C   0  0  0  0  0  0
  -29.5862  -19.3002   20.3243 C   0  0  0  0  0  0
  -29.9623  -21.2970   19.0767 C   0  0  0  0  0  0
  -31.7820  -24.5102   17.5690 C   0  0  0  0  0  0
  -31.8686  -23.4837   19.8662 C   0  0  0  0  0  0
  -31.7803  -21.5130   17.3341 C   0  0  0  0  0  0
  -29.5459  -22.4163   16.8532 C   0  0  0  0  0  0
  -29.9541  -17.7598   20.9402 C   0  0  0  0  0  0
  -28.0887  -23.0658   19.9975 C   0  0  0  0  0  0
  -28.3775  -24.6251   20.6629 C   0  0  0  0  0  0
  -31.0413  -23.5952   18.5683 C   0  0  0  0  0  0
  -30.5640  -22.2121   17.9985 C   0  0  0  0  0  0
  -28.9450  -21.6793   19.9893 N   0  0  0  0  0  0
  -29.7081  -16.2481   20.4639 N   0  0  0  0  0  0
  -31.4674  -12.8498   19.1642 H   0  0  0  0  0  0
  -30.4727  -11.7257   20.0496 H   0  0  0  0  0  0
  -29.8577  -11.7236   17.6066 H   0  0  0  0  0  0
  -29.5844  -13.4476   17.6561 H   0  0  0  0  0  0
  -27.9778  -11.2665   19.0137 H   0  0  0  0  0  0
  -27.3904  -12.3997   17.8244 H   0  0  0  0  0  0
  -27.5655  -14.2417   19.3709 H   0  0  0  0  0  0
  -28.7846  -12.3630   21.4522 H   0  0  0  0  0  0
  -28.3490  -14.0368   21.7219 H   0  0  0  0  0  0
  -25.2770   -9.5677   22.4766 H   0  0  0  0  0  0
  -24.0006   -7.4628   22.7474 H   0  0  0  0  0  0
  -21.0851   -8.8774   19.8951 H   0  0  0  0  0  0
  -22.3711  -10.9670   19.6168 H   0  0  0  0  0  0
  -21.2008   -7.6150   23.9718 H   0  0  0  0  0  0
  -21.1480   -6.0524   25.9078 H   0  0  0  0  0  0
  -22.0598   -2.7610   23.2848 H   0  0  0  0  0  0
  -22.4068  -11.9845   22.4836 H   0  0  0  0  0  0
  -21.1051  -13.1188   22.2658 H   0  0  0  0  0  0
  -24.6348  -15.8416   20.5279 H   0  0  0  0  0  0
  -26.2435  -15.6388   20.0594 H   0  0  0  0  0  0
  -26.7295  -32.5251   23.0949 H   0  0  0  0  0  0
  -25.0079  -33.9573   25.0278 H   0  0  0  0  0  0
  -22.7611  -31.2789   21.3640 H   0  0  0  0  0  0
  -23.3760  -35.9562   23.3293 H   0  0  0  0  0  0
  -24.3572  -36.8890   22.2062 H   0  0  0  0  0  0
  -23.7239  -37.6425   23.6698 H   0  0  0  0  0  0
  -26.1706  -31.4380   20.6045 H   0  0  0  0  0  0
  -26.8831  -30.7520   22.0279 H   0  0  0  0  0  0
  -28.1551  -28.7665   21.2068 H   0  0  0  0  0  0
  -25.9324  -25.7701   19.0603 H   0  0  0  0  0  0
  -23.9823  -27.2489   19.0163 H   0  0  0  0  0  0
  -23.8331  -30.5349   19.3920 H   0  0  0  0  0  0
  -22.7989  -29.2141   19.8417 H   0  0  0  0  0  0
  -25.1320  -36.1826   25.0803 H   0  0  0  0  0  0
  -21.0009  -28.3324   24.1351 H   0  0  0  0  0  0
  -20.5679  -26.2349   23.3630 H   0  0  0  0  0  0
  -21.6655  -26.7432   22.1205 H   0  0  0  0  0  0
  -19.6927  -25.6287   21.1263 H   0  0  0  0  0  0
  -19.6700  -27.3178   20.6731 H   0  0  0  0  0  0
  -17.4214  -26.6684   21.4026 H   0  0  0  0  0  0
  -18.0341  -26.0091   22.9027 H   0  0  0  0  0  0
  -19.7955  -30.7301   24.2229 H   0  0  0  0  0  0
  -17.5030  -31.6274   24.5167 H   0  0  0  0  0  0
  -15.5366  -30.2984   23.7680 H   0  0  0  0  0  0
  -15.8690  -28.0819   22.7090 H   0  0  0  0  0  0
  -24.5895  -30.7095   25.7694 H   0  0  0  0  0  0
  -24.8884  -32.2944   26.4729 H   0  0  0  0  0  0
  -25.7977  -30.8976   27.0203 H   0  0  0  0  0  0
  -26.3038  -29.6653   24.1308 H   0  0  0  0  0  0
  -27.4005  -29.7264   25.4896 H   0  0  0  0  0  0
  -27.8951  -30.4174   23.9644 H   0  0  0  0  0  0
  -27.2630  -33.3664   26.1982 H   0  0  0  0  0  0
  -28.3905  -32.6849   25.0351 H   0  0  0  0  0  0
  -28.0667  -31.8516   26.5474 H   0  0  0  0  0  0
  -28.2580  -38.0080   24.7509 H   0  0  0  0  0  0
  -28.1074  -36.2608   24.6301 H   0  0  0  0  0  0
  -27.2289  -37.1429   25.8871 H   0  0  0  0  0  0
  -20.9500  -29.8746   21.6751 H   0  0  0  0  0  0
  -26.0142  -38.2796   24.1413 H   0  0  0  0  0  0
  -31.0591  -19.4421   18.7011 H   0  0  0  0  0  0
  -28.0336  -20.4181   21.5146 H   0  0  0  0  0  0
  -31.9280  -25.5031   17.9955 H   0  0  0  0  0  0
  -31.2241  -24.6491   16.6439 H   0  0  0  0  0  0
  -32.7714  -24.1302   17.3152 H   0  0  0  0  0  0
  -32.1127  -24.4713   20.2587 H   0  0  0  0  0  0
  -32.8086  -22.9585   19.6988 H   0  0  0  0  0  0
  -31.3334  -22.9565   20.6553 H   0  0  0  0  0  0
  -31.4949  -20.5737   16.8600 H   0  0  0  0  0  0
  -32.5677  -21.2931   18.0551 H   0  0  0  0  0  0
  -32.2254  -22.1093   16.5390 H   0  0  0  0  0  0
  -29.1403  -21.4609   16.5183 H   0  0  0  0  0  0
  -30.0034  -22.8818   15.9808 H   0  0  0  0  0  0
  -28.7065  -23.0480   17.1242 H   0  0  0  0  0  0
  -29.5342  -17.7800   21.9463 H   0  0  0  0  0  0
  -31.0301  -17.8054   21.1133 H   0  0  0  0  0  0
  -27.7863  -23.2449   18.9724 H   0  0  0  0  0  0
  -27.1387  -22.7735   20.4447 H   0  0  0  0  0  0
  -29.3938  -24.5641   21.0499 H   0  0  0  0  0  0
  -27.7798  -24.6576   21.5742 H   0  0  0  0  0  0
  -30.1467  -24.1547   18.8197 H   0  0  0  0  0  0
  -28.7246  -16.0381   20.3924 H   0  0  0  0  0  0
  1 25  1  0  0  0
  1 30  2  0  0  0
  1 85  1  0  0  0
  2  3  1  0  0  0
  2 25  1  0  0  0
  2 86  1  0  0  0
  2 87  1  0  0  0
  3  4  1  0  0  0
  3 88  1  0  0  0
  3 89  1  0  0  0
  4  5  1  0  0  0
  4 90  1  0  0  0
  4 91  1  0  0  0
  5  6  1  0  0  0
  5 26  1  0  0  0
  5 92  1  0  0  0
  6 25  1  0  0  0
  6 93  1  0  0  0
  6 94  1  0  0  0
  7  8  2  0  0  0
  7 26  1  0  0  0
  7 29  1  0  0  0
  8  9  1  0  0  0
  8 22  1  0  0  0
  9 10  1  0  0  0
  9 27  2  0  0  0
 10 11  2  0  0  0
 10 15  1  0  0  0
 11 12  1  0  0  0
 11 95  1  0  0  0
 12 13  2  0  0  0
 12 96  1  0  0  0
 13 14  1  0  0  0
 13 31  1  0  0  0
 14 15  2  0  0  0
 14 97  1  0  0  0
 15 98  1  0  0  0
 16 17  2  0  0  0
 16 21  1  0  0  0
 16 31  1  0  0  0
 17 18  1  0  0  0
 17 99  1  0  0  0
 18 19  2  0  0  0
 18100  1  0  0  0
 19 20  1  0  0  0
 19 24  1  0  0  0
 20 21  2  0  0  0
 20101  1  0  0  0
 21 23  1  0  0  0
 22 28  1  0  0  0
 22 32  2  0  0  0
 26 27  1  0  0  0
 28102  1  0  0  0
 28103  1  0  0  0
 29104  1  0  0  0
 29105  1  0  0  0
 33 34  1  0  0  0
 33 66  1  0  0  0
 33 70  2  0  0  0
 34 36  1  0  0  0
 34 59  1  0  0  0
 34106  1  0  0  0
 35 44  2  0  0  0
 35 45  1  0  0  0
 35 68  1  0  0  0
 36 56  1  0  0  0
 36107  1  0  0  0
 37 39  1  0  0  0
 37 47  1  0  0  0
 37 66  1  0  0  0
 37108  1  0  0  0
 38 43  2  0  0  0
 38 46  1  0  0  0
 38 47  1  0  0  0
 39 64  1  0  0  0
 39 67  2  0  0  0
 40 52  1  0  0  0
 40 53  2  0  0  0
 40 58  1  0  0  0
 41109  1  0  0  0
 41110  1  0  0  0
 41111  1  0  0  0
 41 48  1  0  0  0
 42 43  1  0  0  0
 42 66  1  0  0  0
 42112  1  0  0  0
 42113  1  0  0  0
 43 44  1  0  0  0
 44114  1  0  0  0
 45 46  2  0  0  0
 45115  1  0  0  0
 46116  1  0  0  0
 47117  1  0  0  0
 47118  1  0  0  0
 48 56  1  0  0  0
 48 65  1  0  0  0
 48119  1  0  0  0
 49 50  1  0  0  0
 49 53  1  0  0  0
 49 64  1  0  0  0
 49120  1  0  0  0
 50 51  1  0  0  0
 50121  1  0  0  0
 50122  1  0  0  0
 51 52  1  0  0  0
 51123  1  0  0  0
 51124  1  0  0  0
 52125  1  0  0  0
 52126  1  0  0  0
 53 54  1  0  0  0
 54 55  2  0  0  0
 54127  1  0  0  0
 55 57  1  0  0  0
 55128  1  0  0  0
 56 69  2  0  0  0
 57 58  2  0  0  0
 57129  1  0  0  0
 58130  1  0  0  0
 59 60  1  0  0  0
 59 61  1  0  0  0
 59 62  1  0  0  0
 60131  1  0  0  0
 60132  1  0  0  0
 60133  1  0  0  0
 61134  1  0  0  0
 61135  1  0  0  0
 61136  1  0  0  0
 62137  1  0  0  0
 62138  1  0  0  0
 62139  1  0  0  0
 63 65  1  0  0  0
 63140  1  0  0  0
 63141  1  0  0  0
 63142  1  0  0  0
 64143  1  0  0  0
 65144  1  0  0  0
 68 81  1  0  0  0
 71 73  1  0  0  0
 71 74  2  0  0  0
 71145  1  0  0  0
 72 73  2  0  0  0
 72 84  1  0  0  0
 72146  1  0  0  0
 73 79  1  0  0  0
 74 83  1  0  0  0
 74 84  1  0  0  0
 75147  1  0  0  0
 75148  1  0  0  0
 75149  1  0  0  0
 75 82  1  0  0  0
 76 82  1  0  0  0
 76150  1  0  0  0
 76151  1  0  0  0
 76152  1  0  0  0
 77153  1  0  0  0
 77154  1  0  0  0
 77155  1  0  0  0
 77 83  1  0  0  0
 78 83  1  0  0  0
 78156  1  0  0  0
 78157  1  0  0  0
 78158  1  0  0  0
 79 85  1  0  0  0
 79159  1  0  0  0
 79160  1  0  0  0
 80 81  1  0  0  0
 80 84  1  0  0  0
 80161  1  0  0  0
 80162  1  0  0  0
 81163  1  0  0  0
 81164  1  0  0  0
 82 83  1  0  0  0
 82165  1  0  0  0
 85166  1  0  0  0
M  ISO  4   1 100  68 101  81 101  85 100
M  END
> <chiral flag>
0

> <version>
0

> <s_m_source_file>
/data/baiqing/PycharmProjects/Reinvent-master-3.2/result/LINK_invent/BTK/process_docking_weight1_custom_sum_contain_oxygen_bond_distance_aromatic_linkinvent_7_9_3/rearranged_h_0106.sdf

> <i_m_source_file_index>
81

> <r_mmod_Potential_Energy-OPLS-2005>
740.526977539062

> <r_mmod_Stretch_Energy-OPLS-2005>
340.338897705078

> <r_mmod_Bend_Energy-OPLS-2005>
390.174530029297

> <r_mmod_Torsional_Energy-OPLS-2005>
278.848907470703

> <r_mmod_Improper_Torsional_Energy-OPLS-2005>
8.19146537780762

> <r_mmod_Van_der_Waal_Energy-OPLS-2005>
118.482093811035

> <r_mmod_Electrostatic_Energy-OPLS-2005>
-439.863800048828

> <r_mmod_Solvation_Energy-OPLS-2005>
-208.664367675781

> <b_mmod_Minimization_Converged-OPLS-2005>
0

> <r_mmod_RMS_Derivative-OPLS-2005>
0.245274841785431

$$$$
82
                    3D
 Structure written by MMmdl.
150158  0  0  1  0            999 V2000
  -30.2637  -15.7341   20.3177 C   0  0  0  0  0  0
  -30.4169  -13.1543   19.5436 C   0  0  0  0  0  0
  -29.5540  -12.6810   18.3357 C   0  0  0  0  0  0
  -28.1353  -12.3023   18.7833 C   0  0  0  0  0  0
  -27.5921  -13.3178   19.8120 C   0  0  2  0  0  0
  -28.6009  -13.6931   20.9258 C   0  0  0  0  0  0
  -25.2303  -13.8298   20.5809 C   0  0  0  0  0  0
  -24.1703  -13.0434   20.9296 C   0  0  0  0  0  0
  -24.6419  -11.6949   20.8765 C   0  0  0  0  0  0
  -23.9125  -10.4293   21.0395 C   0  0  0  0  0  0
  -24.3657   -9.4205   21.9178 C   0  0  0  0  0  0
  -23.6315   -8.2248   22.0753 C   0  0  0  0  0  0
  -22.4295   -8.0289   21.3545 C   0  0  0  0  0  0
  -21.9943   -9.0265   20.4644 C   0  0  0  0  0  0
  -22.7289  -10.2135   20.3048 C   0  0  0  0  0  0
  -21.6860   -6.0742   22.5279 C   0  0  0  0  0  0
  -21.4020   -6.5644   23.8213 C   0  0  0  0  0  0
  -21.3661   -5.6795   24.9174 C   0  0  0  0  0  0
  -21.6043   -4.3057   24.7223 C   0  0  0  0  0  0
  -21.8818   -3.8150   23.4344 C   0  0  0  0  0  0
  -21.9195   -4.6969   22.3401 C   0  0  0  0  0  0
  -22.7713  -13.5157   21.1926 C   0  0  0  0  0  0
  -22.1662   -4.2154   21.0978 F   0  0  0  0  0  0
  -21.5627   -3.4540   25.7735 F   0  0  0  0  0  0
  -29.7595  -14.3470   20.2650 N   0  0  0  0  0  0
  -26.2762  -12.9648   20.3248 N   0  0  0  0  0  0
  -25.9369  -11.6708   20.5698 N   0  0  0  0  0  0
  -22.0382  -12.8130   22.0478 N   0  0  0  0  0  0
  -25.3880  -15.2041   20.4250 N   0  0  0  0  0  0
  -31.4999  -15.6583   20.1593 O   0  0  0  0  0  0
  -21.6650   -6.8891   21.4243 O   0  0  0  0  0  0
  -22.3385  -14.5454   20.6762 O   0  0  0  0  0  0
  -24.6911  -31.7903   23.1440 C   0  0  0  0  0  0
  -25.9454  -32.4418   23.8018 C   0  0  1  0  0  0
  -27.2305  -26.6225   20.2242 C   0  0  0  0  0  0
  -25.5999  -33.8248   24.1897 N   0  0  0  0  0  0
  -23.5208  -30.3879   21.4997 C   0  0  2  0  0  0
  -24.9786  -28.7100   20.1199 C   0  0  0  0  0  0
  -22.7799  -29.4263   22.4688 C   0  0  0  0  0  0
  -18.0343  -28.1425   22.8451 C   0  0  0  0  0  0
  -24.1495  -36.7132   23.2654 C   0  0  0  0  0  0
  -26.1043  -30.4970   21.4198 C   0  0  0  0  0  0
  -26.1686  -29.0527   20.7718 C   0  0  0  0  0  0
  -27.2748  -28.0395   20.7871 C   0  0  0  0  0  0
  -26.0062  -26.5070   19.5128 C   0  0  0  0  0  0
  -24.9412  -27.4644   19.4661 C   0  0  0  0  0  0
  -23.7788  -29.6756   20.1389 C   0  0  0  0  0  0
  -25.4148  -36.2866   24.0275 C   0  0  1  0  0  0
  -20.5982  -28.3788   23.1128 C   0  0  2  0  0  0
  -20.6805  -26.9440   22.5406 C   0  0  0  0  0  0
  -19.5783  -26.6367   21.5218 C   0  0  0  0  0  0
  -18.1965  -26.7951   22.1618 C   0  0  0  0  0  0
  -19.1611  -28.8933   23.2768 C   0  0  0  0  0  0
  -18.9515  -30.1514   23.8817 C   0  0  0  0  0  0
  -17.6504  -30.6606   24.0548 C   0  0  0  0  0  0
  -25.9135  -34.9260   23.4931 C   0  0  0  0  0  0
  -16.5393  -29.9086   23.6352 C   0  0  0  0  0  0
  -16.7322  -28.6509   23.0368 C   0  0  0  0  0  0
  -26.4607  -31.6490   25.0676 C   0  0  0  0  0  0
  -25.3651  -31.3830   26.1277 C   0  0  0  0  0  0
  -27.0553  -30.2820   24.6636 C   0  0  0  0  0  0
  -27.6037  -32.4372   25.7501 C   0  0  0  0  0  0
  -27.5564  -37.1718   24.8463 C   0  0  0  0  0  0
  -21.4439  -29.3019   22.3438 N   0  0  0  0  0  0
  -26.4264  -37.3640   23.9413 N   0  0  0  0  0  0
  -24.7964  -30.9270   22.0735 N   0  0  0  0  0  0
  -23.4205  -28.7881   23.3073 O   0  0  0  0  0  0
  -28.2023  -25.3842   20.3073 O   0  0  0  0  0  0
  -26.5790  -34.8855   22.4558 O   0  0  0  0  0  0
  -23.5914  -32.1014   23.6346 O   0  0  0  0  0  0
  -29.4711  -21.3900   18.6882 C   0  0  0  0  0  0
  -29.2079  -19.7436   18.8820 C   0  0  0  0  0  0
  -28.7190  -20.3144   21.1036 C   0  0  0  0  0  0
  -28.4609  -22.7346   18.8291 C   0  0  0  0  0  0
  -28.8054  -22.1733   21.1423 C   0  0  0  0  0  0
  -29.5685  -18.9452   20.2602 C   0  0  1  0  0  0
  -28.1425  -23.5794   20.2006 C   0  0  1  0  0  0
  -29.4969  -17.1229   20.3653 N   0  0  0  0  0  0
  -31.4027  -13.4300   19.1679 H   0  0  0  0  0  0
  -30.6023  -12.3291   20.2335 H   0  0  0  0  0  0
  -30.0290  -11.8386   17.8310 H   0  0  0  0  0  0
  -29.4977  -13.4866   17.6023 H   0  0  0  0  0  0
  -28.1807  -11.3128   19.2399 H   0  0  0  0  0  0
  -27.4671  -12.2179   17.9254 H   0  0  0  0  0  0
  -27.4413  -14.2255   19.2258 H   0  0  0  0  0  0
  -28.8836  -12.8282   21.5279 H   0  0  0  0  0  0
  -28.1477  -14.4084   21.6137 H   0  0  0  0  0  0
  -25.2796   -9.5679   22.4764 H   0  0  0  0  0  0
  -24.0015   -7.4641   22.7479 H   0  0  0  0  0  0
  -21.0872   -8.8795   19.8951 H   0  0  0  0  0  0
  -22.3748  -10.9677   19.6160 H   0  0  0  0  0  0
  -21.2016   -7.6152   23.9718 H   0  0  0  0  0  0
  -21.1482   -6.0524   25.9077 H   0  0  0  0  0  0
  -22.0596   -2.7613   23.2842 H   0  0  0  0  0  0
  -22.4028  -11.9808   22.4873 H   0  0  0  0  0  0
  -21.0988  -13.1121   22.2678 H   0  0  0  0  0  0
  -24.6143  -15.8506   20.5365 H   0  0  0  0  0  0
  -26.2263  -15.6470   20.0735 H   0  0  0  0  0  0
  -26.7543  -32.4869   23.0733 H   0  0  0  0  0  0
  -25.0039  -33.9271   24.9979 H   0  0  0  0  0  0
  -22.8507  -31.2272   21.3023 H   0  0  0  0  0  0
  -23.3785  -35.9431   23.3240 H   0  0  0  0  0  0
  -24.3565  -36.8878   22.2085 H   0  0  0  0  0  0
  -23.7224  -37.6273   23.6789 H   0  0  0  0  0  0
  -26.3155  -31.2164   20.6275 H   0  0  0  0  0  0
  -26.9521  -30.5678   22.0886 H   0  0  0  0  0  0
  -28.1694  -28.3116   21.3293 H   0  0  0  0  0  0
  -25.8293  -25.5684   19.0068 H   0  0  0  0  0  0
  -24.0451  -27.1921   18.9256 H   0  0  0  0  0  0
  -23.9606  -30.4315   19.3740 H   0  0  0  0  0  0
  -22.8818  -29.1460   19.8136 H   0  0  0  0  0  0
  -25.1360  -36.1613   25.0764 H   0  0  0  0  0  0
  -21.0061  -28.3420   24.1256 H   0  0  0  0  0  0
  -20.5660  -26.2414   23.3675 H   0  0  0  0  0  0
  -21.6666  -26.7369   22.1230 H   0  0  0  0  0  0
  -19.6937  -25.6256   21.1300 H   0  0  0  0  0  0
  -19.6729  -27.3133   20.6712 H   0  0  0  0  0  0
  -17.4235  -26.6693   21.4021 H   0  0  0  0  0  0
  -18.0350  -26.0113   22.9033 H   0  0  0  0  0  0
  -19.7990  -30.7351   24.2152 H   0  0  0  0  0  0
  -17.5054  -31.6277   24.5166 H   0  0  0  0  0  0
  -15.5390  -30.2962   23.7722 H   0  0  0  0  0  0
  -15.8723  -28.0800   22.7130 H   0  0  0  0  0  0
  -24.5864  -30.7153   25.7572 H   0  0  0  0  0  0
  -24.8812  -32.3059   26.4481 H   0  0  0  0  0  0
  -25.7809  -30.9135   27.0201 H   0  0  0  0  0  0
  -26.3286  -29.6407   24.1640 H   0  0  0  0  0  0
  -27.3961  -29.7302   25.5407 H   0  0  0  0  0  0
  -27.9272  -30.3927   24.0187 H   0  0  0  0  0  0
  -27.2564  -33.3752   26.1844 H   0  0  0  0  0  0
  -28.3967  -32.6808   25.0418 H   0  0  0  0  0  0
  -28.0575  -31.8662   26.5611 H   0  0  0  0  0  0
  -28.2528  -38.0062   24.7535 H   0  0  0  0  0  0
  -28.1111  -36.2585   24.6258 H   0  0  0  0  0  0
  -27.2283  -37.1311   25.8864 H   0  0  0  0  0  0
  -20.9763  -29.8659   21.6479 H   0  0  0  0  0  0
  -26.0082  -38.2679   24.1444 H   0  0  0  0  0  0
  -29.7230  -21.4360   17.6279 H   0  0  0  0  0  0
  -30.4316  -21.6268   19.1474 H   0  0  0  0  0  0
  -29.7864  -19.2471   18.1019 H   0  0  0  0  0  0
  -28.1708  -19.5360   18.6146 H   0  0  0  0  0  0
  -27.6558  -20.1065   20.9751 H   0  0  0  0  0  0
  -28.8874  -20.0607   22.1504 H   0  0  0  0  0  0
  -27.5047  -22.4666   18.3783 H   0  0  0  0  0  0
  -28.8669  -23.4779   18.1422 H   0  0  0  0  0  0
  -29.8688  -22.3909   21.2477 H   0  0  0  0  0  0
  -28.4268  -22.3925   22.1408 H   0  0  0  0  0  0
  -30.6284  -19.1228   20.4478 H   0  0  0  0  0  0
  -27.0688  -23.4577   20.3481 H   0  0  0  0  0  0
  -28.5243  -16.8729   20.4784 H   0  0  0  0  0  0
  1 25  1  0  0  0
  1 30  2  0  0  0
  1 78  1  0  0  0
  2  3  1  0  0  0
  2 25  1  0  0  0
  2 79  1  0  0  0
  2 80  1  0  0  0
  3  4  1  0  0  0
  3 81  1  0  0  0
  3 82  1  0  0  0
  4  5  1  0  0  0
  4 83  1  0  0  0
  4 84  1  0  0  0
  5  6  1  0  0  0
  5 26  1  0  0  0
  5 85  1  0  0  0
  6 25  1  0  0  0
  6 86  1  0  0  0
  6 87  1  0  0  0
  7  8  2  0  0  0
  7 26  1  0  0  0
  7 29  1  0  0  0
  8  9  1  0  0  0
  8 22  1  0  0  0
  9 10  1  0  0  0
  9 27  2  0  0  0
 10 11  2  0  0  0
 10 15  1  0  0  0
 11 12  1  0  0  0
 11 88  1  0  0  0
 12 13  2  0  0  0
 12 89  1  0  0  0
 13 14  1  0  0  0
 13 31  1  0  0  0
 14 15  2  0  0  0
 14 90  1  0  0  0
 15 91  1  0  0  0
 16 17  2  0  0  0
 16 21  1  0  0  0
 16 31  1  0  0  0
 17 18  1  0  0  0
 17 92  1  0  0  0
 18 19  2  0  0  0
 18 93  1  0  0  0
 19 20  1  0  0  0
 19 24  1  0  0  0
 20 21  2  0  0  0
 20 94  1  0  0  0
 21 23  1  0  0  0
 22 28  1  0  0  0
 22 32  2  0  0  0
 26 27  1  0  0  0
 28 95  1  0  0  0
 28 96  1  0  0  0
 29 97  1  0  0  0
 29 98  1  0  0  0
 33 34  1  0  0  0
 33 66  1  0  0  0
 33 70  2  0  0  0
 34 36  1  0  0  0
 34 59  1  0  0  0
 34 99  1  0  0  0
 35 44  2  0  0  0
 35 45  1  0  0  0
 35 68  1  0  0  0
 36 56  1  0  0  0
 36100  1  0  0  0
 37 39  1  0  0  0
 37 47  1  0  0  0
 37 66  1  0  0  0
 37101  1  0  0  0
 38 43  2  0  0  0
 38 46  1  0  0  0
 38 47  1  0  0  0
 39 64  1  0  0  0
 39 67  2  0  0  0
 40 52  1  0  0  0
 40 53  2  0  0  0
 40 58  1  0  0  0
 41102  1  0  0  0
 41103  1  0  0  0
 41104  1  0  0  0
 41 48  1  0  0  0
 42 43  1  0  0  0
 42 66  1  0  0  0
 42105  1  0  0  0
 42106  1  0  0  0
 43 44  1  0  0  0
 44107  1  0  0  0
 45 46  2  0  0  0
 45108  1  0  0  0
 46109  1  0  0  0
 47110  1  0  0  0
 47111  1  0  0  0
 48 56  1  0  0  0
 48 65  1  0  0  0
 48112  1  0  0  0
 49 50  1  0  0  0
 49 53  1  0  0  0
 49 64  1  0  0  0
 49113  1  0  0  0
 50 51  1  0  0  0
 50114  1  0  0  0
 50115  1  0  0  0
 51 52  1  0  0  0
 51116  1  0  0  0
 51117  1  0  0  0
 52118  1  0  0  0
 52119  1  0  0  0
 53 54  1  0  0  0
 54 55  2  0  0  0
 54120  1  0  0  0
 55 57  1  0  0  0
 55121  1  0  0  0
 56 69  2  0  0  0
 57 58  2  0  0  0
 57122  1  0  0  0
 58123  1  0  0  0
 59 60  1  0  0  0
 59 61  1  0  0  0
 59 62  1  0  0  0
 60124  1  0  0  0
 60125  1  0  0  0
 60126  1  0  0  0
 61127  1  0  0  0
 61128  1  0  0  0
 61129  1  0  0  0
 62130  1  0  0  0
 62131  1  0  0  0
 62132  1  0  0  0
 63 65  1  0  0  0
 63133  1  0  0  0
 63134  1  0  0  0
 63135  1  0  0  0
 64136  1  0  0  0
 65137  1  0  0  0
 68 77  1  0  0  0
 71 72  1  0  0  0
 71 74  1  0  0  0
 71138  1  0  0  0
 71139  1  0  0  0
 72 76  1  0  0  0
 72140  1  0  0  0
 72141  1  0  0  0
 73 75  1  0  0  0
 73 76  1  0  0  0
 73142  1  0  0  0
 73143  1  0  0  0
 74 77  1  0  0  0
 74144  1  0  0  0
 74145  1  0  0  0
 75 77  1  0  0  0
 75146  1  0  0  0
 75147  1  0  0  0
 76 78  1  0  0  0
 76148  1  0  0  0
 77149  1  0  0  0
 78150  1  0  0  0
M  ISO  4   1 100  68 101  77 101  78 100
M  END
> <chiral flag>
0

> <version>
0

> <s_m_source_file>
/data/baiqing/PycharmProjects/Reinvent-master-3.2/result/LINK_invent/BTK/process_docking_weight1_custom_sum_contain_oxygen_bond_distance_aromatic_linkinvent_7_9_3/rearranged_h_0106.sdf

> <i_m_source_file_index>
82

> <r_mmod_Potential_Energy-OPLS-2005>
2847.20654296875

> <r_mmod_Stretch_Energy-OPLS-2005>
1175.36352539062

> <r_mmod_Bend_Energy-OPLS-2005>
805.561950683594

> <r_mmod_Torsional_Energy-OPLS-2005>
248.657104492188

> <r_mmod_Improper_Torsional_Energy-OPLS-2005>
3.5965747833252

> <r_mmod_Van_der_Waal_Energy-OPLS-2005>
128.591049194336

> <r_mmod_Electrostatic_Energy-OPLS-2005>
-362.495544433594

> <r_mmod_Solvation_Energy-OPLS-2005>
-212.948043823242

> <b_mmod_Minimization_Converged-OPLS-2005>
0

> <r_mmod_RMS_Derivative-OPLS-2005>
0.0808933973312378

$$$$
83
                    3D
 Structure written by MMmdl.
158166  0  0  1  0            999 V2000
  -30.4586  -15.3527   20.3433 C   0  0  0  0  0  0
  -30.4327  -12.8679   19.5174 C   0  0  0  0  0  0
  -29.5348  -12.5959   18.2825 C   0  0  0  0  0  0
  -28.0943  -12.2889   18.7270 C   0  0  0  0  0  0
  -27.6060  -13.2928   19.8013 C   0  0  2  0  0  0
  -28.6461  -13.5262   20.9221 C   0  0  0  0  0  0
  -25.2367  -13.8297   20.5782 C   0  0  0  0  0  0
  -24.1760  -13.0499   20.9290 C   0  0  0  0  0  0
  -24.6457  -11.6963   20.8830 C   0  0  0  0  0  0
  -23.9188  -10.4309   21.0458 C   0  0  0  0  0  0
  -24.3702   -9.4169   21.9211 C   0  0  0  0  0  0
  -23.6310   -8.2233   22.0764 C   0  0  0  0  0  0
  -22.4282   -8.0335   21.3566 C   0  0  0  0  0  0
  -21.9964   -9.0340   20.4663 C   0  0  0  0  0  0
  -22.7366  -10.2181   20.3073 C   0  0  0  0  0  0
  -21.6827   -6.0773   22.5306 C   0  0  0  0  0  0
  -21.4006   -6.5659   23.8246 C   0  0  0  0  0  0
  -21.3647   -5.6803   24.9201 C   0  0  0  0  0  0
  -21.6022   -4.3062   24.7225 C   0  0  0  0  0  0
  -21.8807   -3.8182   23.4354 C   0  0  0  0  0  0
  -21.9176   -4.7002   22.3414 C   0  0  0  0  0  0
  -22.7733  -13.5173   21.1958 C   0  0  0  0  0  0
  -22.1627   -4.2196   21.0985 F   0  0  0  0  0  0
  -21.5625   -3.4540   25.7734 F   0  0  0  0  0  0
  -29.8692  -14.0470   20.2834 N   0  0  0  0  0  0
  -26.2832  -12.9631   20.3179 N   0  0  0  0  0  0
  -25.9397  -11.6725   20.5728 N   0  0  0  0  0  0
  -22.0386  -12.8170   22.0502 N   0  0  0  0  0  0
  -25.4009  -15.2067   20.4227 N   0  0  0  0  0  0
  -31.6873  -15.3007   20.1827 O   0  0  0  0  0  0
  -21.6604   -6.8949   21.4273 O   0  0  0  0  0  0
  -22.3408  -14.5488   20.6801 O   0  0  0  0  0  0
  -24.6691  -31.8161   23.1690 C   0  0  0  0  0  0
  -25.9277  -32.4616   23.8235 C   0  0  1  0  0  0
  -27.2628  -26.8774   20.2286 C   0  0  0  0  0  0
  -25.5905  -33.8454   24.2121 N   0  0  0  0  0  0
  -23.4977  -30.4239   21.5103 C   0  0  2  0  0  0
  -24.9663  -28.8066   20.1257 C   0  0  0  0  0  0
  -22.7796  -29.4291   22.4657 C   0  0  0  0  0  0
  -18.0335  -28.1372   22.8448 C   0  0  0  0  0  0
  -24.1479  -36.7261   23.2674 C   0  0  0  0  0  0
  -26.0706  -30.6050   21.4228 C   0  0  0  0  0  0
  -26.1429  -29.1869   20.7828 C   0  0  0  0  0  0
  -27.2823  -28.2509   20.8023 C   0  0  0  0  0  0
  -26.0627  -26.6854   19.5030 C   0  0  0  0  0  0
  -24.9586  -27.5774   19.4515 C   0  0  0  0  0  0
  -23.7597  -29.7471   20.1356 C   0  0  0  0  0  0
  -25.4113  -36.3044   24.0353 C   0  0  1  0  0  0
  -20.5989  -28.3689   23.1177 C   0  0  2  0  0  0
  -20.6793  -26.9346   22.5422 C   0  0  0  0  0  0
  -19.5756  -26.6311   21.5250 C   0  0  0  0  0  0
  -18.1929  -26.7894   22.1636 C   0  0  0  0  0  0
  -19.1610  -28.8843   23.2800 C   0  0  0  0  0  0
  -18.9530  -30.1418   23.8849 C   0  0  0  0  0  0
  -17.6526  -30.6551   24.0519 C   0  0  0  0  0  0
  -25.9084  -34.9414   23.5098 C   0  0  0  0  0  0
  -16.5397  -29.9047   23.6329 C   0  0  0  0  0  0
  -16.7321  -28.6464   23.0359 C   0  0  0  0  0  0
  -26.4482  -31.6611   25.0823 C   0  0  0  0  0  0
  -25.3538  -31.3895   26.1429 C   0  0  0  0  0  0
  -27.0469  -30.3003   24.6693 C   0  0  0  0  0  0
  -27.6053  -32.4379   25.7533 C   0  0  0  0  0  0
  -27.5583  -37.1789   24.8476 C   0  0  0  0  0  0
  -21.4433  -29.2980   22.3530 N   0  0  0  0  0  0
  -26.4290  -37.3769   23.9433 N   0  0  0  0  0  0
  -24.7653  -30.9793   22.0837 N   0  0  0  0  0  0
  -23.4330  -28.7815   23.2879 O   0  0  0  0  0  0
  -28.3165  -25.7982   20.1256 O   0  0  0  0  0  0
  -26.5728  -34.8901   22.4727 O   0  0  0  0  0  0
  -23.5714  -32.1125   23.6674 O   0  0  0  0  0  0
  -29.4055  -21.3212   20.5188 C   0  0  0  0  0  0
  -28.5113  -22.5584   20.2324 C   0  0  0  0  0  0
  -27.3210  -22.0654   19.6054 C   0  0  0  0  0  0
  -29.1833  -19.8288   20.1706 C   0  0  0  0  0  0
  -27.2042  -20.6929   19.1704 C   0  0  0  0  0  0
  -26.0316  -20.2412   18.3134 C   0  0  0  0  0  0
  -25.3653  -22.7449   21.0157 C   0  0  0  0  0  0
  -25.2016  -23.2150   18.4118 C   0  0  0  0  0  0
  -28.5820  -24.2623   20.7707 C   0  0  0  0  0  0
  -30.0966  -18.3270   20.4085 C   0  0  0  0  0  0
  -26.0932  -22.9910   19.6684 C   0  0  0  0  0  0
  -28.0660  -19.6635   19.4350 N   0  0  0  0  0  0
  -29.7442  -16.6715   20.3821 N   0  0  0  0  0  0
  -31.4598  -13.0405   19.1954 H   0  0  0  0  0  0
  -30.4808  -11.9802   20.1497 H   0  0  0  0  0  0
  -29.9307  -11.7683   17.6906 H   0  0  0  0  0  0
  -29.5369  -13.4723   17.6309 H   0  0  0  0  0  0
  -28.0910  -11.2862   19.1538 H   0  0  0  0  0  0
  -27.4140  -12.2592   17.8726 H   0  0  0  0  0  0
  -27.4936  -14.2363   19.2653 H   0  0  0  0  0  0
  -28.8348  -12.6061   21.4752 H   0  0  0  0  0  0
  -28.2763  -14.2565   21.6435 H   0  0  0  0  0  0
  -25.2862   -9.5571   22.4792 H   0  0  0  0  0  0
  -23.9985   -7.4585   22.7477 H   0  0  0  0  0  0
  -21.0883   -8.8943   19.8958 H   0  0  0  0  0  0
  -22.3910  -10.9753   19.6171 H   0  0  0  0  0  0
  -21.1996   -7.6166   23.9784 H   0  0  0  0  0  0
  -21.1463   -6.0510   25.9107 H   0  0  0  0  0  0
  -22.0593   -2.7646   23.2843 H   0  0  0  0  0  0
  -22.3954  -11.9778   22.4844 H   0  0  0  0  0  0
  -21.1025  -13.1253   22.2774 H   0  0  0  0  0  0
  -24.6445  -15.8673   20.5566 H   0  0  0  0  0  0
  -26.2507  -15.6457   20.0960 H   0  0  0  0  0  0
  -26.7394  -32.5108   23.0982 H   0  0  0  0  0  0
  -24.9959  -33.9570   25.0199 H   0  0  0  0  0  0
  -22.8113  -31.2529   21.3281 H   0  0  0  0  0  0
  -23.3807  -35.9533   23.3297 H   0  0  0  0  0  0
  -24.3573  -36.8945   22.2104 H   0  0  0  0  0  0
  -23.7153  -37.6425   23.6706 H   0  0  0  0  0  0
  -26.2764  -31.3328   20.6349 H   0  0  0  0  0  0
  -26.9228  -30.6537   22.0899 H   0  0  0  0  0  0
  -28.1842  -28.5731   21.3042 H   0  0  0  0  0  0
  -25.9642  -25.7954   18.9184 H   0  0  0  0  0  0
  -24.1057  -27.3058   18.8491 H   0  0  0  0  0  0
  -23.9589  -30.5189   19.3908 H   0  0  0  0  0  0
  -22.8747  -29.2219   19.7760 H   0  0  0  0  0  0
  -25.1273  -36.1924   25.0856 H   0  0  0  0  0  0
  -21.0078  -28.3239   24.1306 H   0  0  0  0  0  0
  -20.5699  -26.2250   23.3645 H   0  0  0  0  0  0
  -21.6625  -26.7258   22.1184 H   0  0  0  0  0  0
  -19.6901  -25.6232   21.1261 H   0  0  0  0  0  0
  -19.6740  -27.3125   20.6794 H   0  0  0  0  0  0
  -17.4230  -26.6701   21.3997 H   0  0  0  0  0  0
  -18.0203  -26.0033   22.9025 H   0  0  0  0  0  0
  -19.8001  -30.7209   24.2251 H   0  0  0  0  0  0
  -17.5073  -31.6238   24.5098 H   0  0  0  0  0  0
  -15.5388  -30.2937   23.7634 H   0  0  0  0  0  0
  -15.8715  -28.0736   22.7138 H   0  0  0  0  0  0
  -24.5699  -30.7318   25.7624 H   0  0  0  0  0  0
  -24.8734  -32.3119   26.4737 H   0  0  0  0  0  0
  -25.7624  -30.9057   27.0327 H   0  0  0  0  0  0
  -26.3252  -29.6578   24.1653 H   0  0  0  0  0  0
  -27.3939  -29.7463   25.5430 H   0  0  0  0  0  0
  -27.9159  -30.4245   24.0232 H   0  0  0  0  0  0
  -27.2805  -33.3798   26.1953 H   0  0  0  0  0  0
  -28.3867  -32.6761   25.0299 H   0  0  0  0  0  0
  -28.0709  -31.8613   26.5533 H   0  0  0  0  0  0
  -28.2592  -38.0097   24.7532 H   0  0  0  0  0  0
  -28.1098  -36.2642   24.6253 H   0  0  0  0  0  0
  -27.2339  -37.1363   25.8895 H   0  0  0  0  0  0
  -20.9692  -29.8961   21.6905 H   0  0  0  0  0  0
  -26.0197  -38.2885   24.1406 H   0  0  0  0  0  0
  -30.3097  -21.5363   21.0747 H   0  0  0  0  0  0
  -26.0152  -20.8259   17.3935 H   0  0  0  0  0  0
  -25.0911  -20.3672   18.8478 H   0  0  0  0  0  0
  -26.0966  -19.1939   18.0099 H   0  0  0  0  0  0
  -25.8338  -23.3316   21.8144 H   0  0  0  0  0  0
  -25.4347  -21.7028   21.3482 H   0  0  0  0  0  0
  -24.3045  -22.9942   20.9891 H   0  0  0  0  0  0
  -25.7710  -23.1698   17.4792 H   0  0  0  0  0  0
  -24.7788  -24.2158   18.4295 H   0  0  0  0  0  0
  -24.3234  -22.5727   18.3299 H   0  0  0  0  0  0
  -29.6356  -24.3333   21.0362 H   0  0  0  0  0  0
  -28.0907  -24.2759   21.7446 H   0  0  0  0  0  0
  -30.6189  -18.4798   21.3548 H   0  0  0  0  0  0
  -30.9013  -18.4125   19.6736 H   0  0  0  0  0  0
  -26.5135  -23.9771   19.7501 H   0  0  0  0  0  0
  -28.7455  -16.5359   20.3988 H   0  0  0  0  0  0
  1 25  1  0  0  0
  1 30  2  0  0  0
  1 83  1  0  0  0
  2  3  1  0  0  0
  2 25  1  0  0  0
  2 84  1  0  0  0
  2 85  1  0  0  0
  3  4  1  0  0  0
  3 86  1  0  0  0
  3 87  1  0  0  0
  4  5  1  0  0  0
  4 88  1  0  0  0
  4 89  1  0  0  0
  5  6  1  0  0  0
  5 26  1  0  0  0
  5 90  1  0  0  0
  6 25  1  0  0  0
  6 91  1  0  0  0
  6 92  1  0  0  0
  7  8  2  0  0  0
  7 26  1  0  0  0
  7 29  1  0  0  0
  8  9  1  0  0  0
  8 22  1  0  0  0
  9 10  1  0  0  0
  9 27  2  0  0  0
 10 11  2  0  0  0
 10 15  1  0  0  0
 11 12  1  0  0  0
 11 93  1  0  0  0
 12 13  2  0  0  0
 12 94  1  0  0  0
 13 14  1  0  0  0
 13 31  1  0  0  0
 14 15  2  0  0  0
 14 95  1  0  0  0
 15 96  1  0  0  0
 16 17  2  0  0  0
 16 21  1  0  0  0
 16 31  1  0  0  0
 17 18  1  0  0  0
 17 97  1  0  0  0
 18 19  2  0  0  0
 18 98  1  0  0  0
 19 20  1  0  0  0
 19 24  1  0  0  0
 20 21  2  0  0  0
 20 99  1  0  0  0
 21 23  1  0  0  0
 22 28  1  0  0  0
 22 32  2  0  0  0
 26 27  1  0  0  0
 28100  1  0  0  0
 28101  1  0  0  0
 29102  1  0  0  0
 29103  1  0  0  0
 33 34  1  0  0  0
 33 66  1  0  0  0
 33 70  2  0  0  0
 34 36  1  0  0  0
 34 59  1  0  0  0
 34104  1  0  0  0
 35 44  2  0  0  0
 35 45  1  0  0  0
 35 68  1  0  0  0
 36 56  1  0  0  0
 36105  1  0  0  0
 37 39  1  0  0  0
 37 47  1  0  0  0
 37 66  1  0  0  0
 37106  1  0  0  0
 38 43  2  0  0  0
 38 46  1  0  0  0
 38 47  1  0  0  0
 39 64  1  0  0  0
 39 67  2  0  0  0
 40 52  1  0  0  0
 40 53  2  0  0  0
 40 58  1  0  0  0
 41107  1  0  0  0
 41108  1  0  0  0
 41109  1  0  0  0
 41 48  1  0  0  0
 42 43  1  0  0  0
 42 66  1  0  0  0
 42110  1  0  0  0
 42111  1  0  0  0
 43 44  1  0  0  0
 44112  1  0  0  0
 45 46  2  0  0  0
 45113  1  0  0  0
 46114  1  0  0  0
 47115  1  0  0  0
 47116  1  0  0  0
 48 56  1  0  0  0
 48 65  1  0  0  0
 48117  1  0  0  0
 49 50  1  0  0  0
 49 53  1  0  0  0
 49 64  1  0  0  0
 49118  1  0  0  0
 50 51  1  0  0  0
 50119  1  0  0  0
 50120  1  0  0  0
 51 52  1  0  0  0
 51121  1  0  0  0
 51122  1  0  0  0
 52123  1  0  0  0
 52124  1  0  0  0
 53 54  1  0  0  0
 54 55  2  0  0  0
 54125  1  0  0  0
 55 57  1  0  0  0
 55126  1  0  0  0
 56 69  2  0  0  0
 57 58  2  0  0  0
 57127  1  0  0  0
 58128  1  0  0  0
 59 60  1  0  0  0
 59 61  1  0  0  0
 59 62  1  0  0  0
 60129  1  0  0  0
 60130  1  0  0  0
 60131  1  0  0  0
 61132  1  0  0  0
 61133  1  0  0  0
 61134  1  0  0  0
 62135  1  0  0  0
 62136  1  0  0  0
 62137  1  0  0  0
 63 65  1  0  0  0
 63138  1  0  0  0
 63139  1  0  0  0
 63140  1  0  0  0
 64141  1  0  0  0
 65142  1  0  0  0
 68 79  1  0  0  0
 71 72  2  0  0  0
 71 74  1  0  0  0
 71143  1  0  0  0
 72 73  1  0  0  0
 72 79  1  0  0  0
 73 75  2  0  0  0
 73 81  1  0  0  0
 74 80  1  0  0  0
 74 82  2  0  0  0
 75 76  1  0  0  0
 75 82  1  0  0  0
 76144  1  0  0  0
 76145  1  0  0  0
 76146  1  0  0  0
 77147  1  0  0  0
 77148  1  0  0  0
 77149  1  0  0  0
 77 81  1  0  0  0
 78 81  1  0  0  0
 78150  1  0  0  0
 78151  1  0  0  0
 78152  1  0  0  0
 79153  1  0  0  0
 79154  1  0  0  0
 80 83  1  0  0  0
 80155  1  0  0  0
 80156  1  0  0  0
 81157  1  0  0  0
 83158  1  0  0  0
M  ISO  4   1 100  68 101  79 101  83 100
M  END
> <chiral flag>
0

> <version>
0

> <s_m_source_file>
/data/baiqing/PycharmProjects/Reinvent-master-3.2/result/LINK_invent/BTK/process_docking_weight1_custom_sum_contain_oxygen_bond_distance_aromatic_linkinvent_7_9_3/rearranged_h_0106.sdf

> <i_m_source_file_index>
83

> <r_mmod_Potential_Energy-OPLS-2005>
1308.53588867188

> <r_mmod_Stretch_Energy-OPLS-2005>
670.845520019531

> <r_mmod_Bend_Energy-OPLS-2005>
517.701049804688

> <r_mmod_Torsional_Energy-OPLS-2005>
273.828430175781

> <r_mmod_Improper_Torsional_Energy-OPLS-2005>
8.06867790222168

> <r_mmod_Van_der_Waal_Energy-OPLS-2005>
141.177108764648

> <r_mmod_Electrostatic_Energy-OPLS-2005>
-608.776428222656

> <r_mmod_Solvation_Energy-OPLS-2005>
-225.774749755859

> <b_mmod_Minimization_Converged-OPLS-2005>
0

> <r_mmod_RMS_Derivative-OPLS-2005>
9.19547939300537

$$$$
84
                    3D
 Structure written by MMmdl.
172180  0  0  1  0            999 V2000
  -30.6665  -14.7200   20.5449 C   0  0  0  0  0  0
  -30.4389  -12.4746   19.4482 C   0  0  0  0  0  0
  -29.5018  -12.5339   18.2212 C   0  0  0  0  0  0
  -28.0282  -12.3356   18.6366 C   0  0  0  0  0  0
  -27.6426  -13.2061   19.8546 C   0  0  2  0  0  0
  -28.7004  -13.0772   20.9754 C   0  0  0  0  0  0
  -25.2493  -13.8102   20.5666 C   0  0  0  0  0  0
  -24.1780  -13.0369   20.9224 C   0  0  0  0  0  0
  -24.6400  -11.6857   20.8822 C   0  0  0  0  0  0
  -23.9101  -10.4246   21.0473 C   0  0  0  0  0  0
  -24.3637   -9.4151   21.9240 C   0  0  0  0  0  0
  -23.6292   -8.2195   22.0783 C   0  0  0  0  0  0
  -22.4278   -8.0260   21.3556 C   0  0  0  0  0  0
  -21.9936   -9.0248   20.4669 C   0  0  0  0  0  0
  -22.7287  -10.2116   20.3107 C   0  0  0  0  0  0
  -21.6834   -6.0733   22.5272 C   0  0  0  0  0  0
  -21.3998   -6.5636   23.8206 C   0  0  0  0  0  0
  -21.3679   -5.6794   24.9171 C   0  0  0  0  0  0
  -21.6057   -4.3062   24.7220 C   0  0  0  0  0  0
  -21.8831   -3.8152   23.4341 C   0  0  0  0  0  0
  -21.9184   -4.6965   22.3397 C   0  0  0  0  0  0
  -22.7805  -13.5156   21.1848 C   0  0  0  0  0  0
  -22.1648   -4.2151   21.0983 F   0  0  0  0  0  0
  -21.5648   -3.4558   25.7744 F   0  0  0  0  0  0
  -29.9869  -13.5162   20.4089 N   0  0  0  0  0  0
  -26.2938  -12.9283   20.3312 N   0  0  0  0  0  0
  -25.9316  -11.6456   20.5832 N   0  0  0  0  0  0
  -22.0435  -12.8168   22.0426 N   0  0  0  0  0  0
  -25.4057  -15.1840   20.4030 N   0  0  0  0  0  0
  -31.8481  -14.7504   20.1877 O   0  0  0  0  0  0
  -21.6621   -6.8872   21.4237 O   0  0  0  0  0  0
  -22.3484  -14.5437   20.6669 O   0  0  0  0  0  0
  -24.6292  -31.8541   23.2004 C   0  0  0  0  0  0
  -25.9125  -32.4743   23.8342 C   0  0  1  0  0  0
  -27.2285  -27.2811   20.1322 C   0  0  0  0  0  0
  -25.5927  -33.8551   24.2254 N   0  0  0  0  0  0
  -23.4261  -30.4766   21.5423 C   0  0  2  0  0  0
  -24.8780  -28.9249   20.1112 C   0  0  0  0  0  0
  -22.7471  -29.4600   22.4907 C   0  0  0  0  0  0
  -18.0277  -28.1399   22.8462 C   0  0  0  0  0  0
  -24.1489  -36.7285   23.2634 C   0  0  0  0  0  0
  -25.9694  -30.7734   21.3789 C   0  0  0  0  0  0
  -26.0461  -29.3972   20.7222 C   0  0  0  0  0  0
  -27.2251  -28.5872   20.7213 C   0  0  0  0  0  0
  -26.0414  -26.8753   19.4841 C   0  0  0  0  0  0
  -24.8799  -27.6709   19.4797 C   0  0  0  0  0  0
  -23.6454  -29.8083   20.1586 C   0  0  0  0  0  0
  -25.4114  -36.3069   24.0321 C   0  0  1  0  0  0
  -20.5875  -28.3713   23.1253 C   0  0  2  0  0  0
  -20.6775  -26.9436   22.5409 C   0  0  0  0  0  0
  -19.5775  -26.6391   21.5201 C   0  0  0  0  0  0
  -18.1935  -26.7940   22.1597 C   0  0  0  0  0  0
  -19.1530  -28.8870   23.2843 C   0  0  0  0  0  0
  -18.9464  -30.1458   23.8887 C   0  0  0  0  0  0
  -17.6469  -30.6599   24.0567 C   0  0  0  0  0  0
  -25.9045  -34.9434   23.5080 C   0  0  0  0  0  0
  -16.5352  -29.9110   23.6339 C   0  0  0  0  0  0
  -16.7260  -28.6523   23.0350 C   0  0  0  0  0  0
  -26.4510  -31.6569   25.0719 C   0  0  0  0  0  0
  -25.3729  -31.3734   26.1432 C   0  0  0  0  0  0
  -27.0348  -30.2981   24.6202 C   0  0  0  0  0  0
  -27.6046  -32.4323   25.7496 C   0  0  0  0  0  0
  -27.5580  -37.1786   24.8454 C   0  0  0  0  0  0
  -21.4189  -29.3053   22.3640 N   0  0  0  0  0  0
  -26.4295  -37.3760   23.9407 N   0  0  0  0  0  0
  -24.6934  -31.0509   22.0974 N   0  0  0  0  0  0
  -23.4162  -28.8126   23.2998 O   0  0  0  0  0  0
  -28.3316  -26.4001   20.1527 O   0  0  0  0  0  0
  -26.5627  -34.8909   22.4661 O   0  0  0  0  0  0
  -23.5434  -32.1384   23.7287 O   0  0  0  0  0  0
  -29.7429  -19.7279   20.7805 C   0  0  0  0  0  0
  -30.0094  -21.0446   18.7667 C   0  0  0  0  0  0
  -29.5399  -20.9930   20.0978 C   0  0  0  0  0  0
  -30.3441  -18.5626   20.1704 C   0  0  0  0  0  0
  -30.7237  -18.6795   18.8107 C   0  0  0  0  0  0
  -30.5887  -19.9160   18.1288 C   0  0  0  0  0  0
  -31.3600  -17.4996   18.0814 C   0  0  0  0  0  0
  -32.5162  -20.8194   15.1815 C   0  0  0  0  0  0
  -27.2513  -21.8875   20.4972 C   0  0  0  0  0  0
  -28.9953  -22.2872   22.2412 C   0  0  0  0  0  0
  -28.6787  -16.1306   21.3850 C   0  0  0  0  0  0
  -30.7592  -17.2681   20.9878 C   0  0  0  0  0  0
  -29.0066  -23.7316   20.1241 C   0  0  0  0  0  0
  -31.6245  -21.1719   16.3747 C   0  0  0  0  0  0
  -28.1033  -24.9901   20.6106 C   0  0  0  0  0  0
  -28.7400  -22.2337   20.7175 C   0  0  0  0  0  0
  -30.0354  -15.9363   20.8631 N   0  0  0  0  0  0
  -31.0294  -19.9626   16.8269 O   0  0  0  0  0  0
  -31.4725  -12.6052   19.1292 H   0  0  0  0  0  0
  -30.4078  -11.4824   19.8995 H   0  0  0  0  0  0
  -29.7868  -11.7800   17.4873 H   0  0  0  0  0  0
  -29.6165  -13.5014   17.7301 H   0  0  0  0  0  0
  -27.8857  -11.2823   18.8783 H   0  0  0  0  0  0
  -27.3672  -12.5490   17.7961 H   0  0  0  0  0  0
  -27.6413  -14.2208   19.4663 H   0  0  0  0  0  0
  -28.7745  -12.0372   21.2962 H   0  0  0  0  0  0
  -28.4174  -13.5972   21.8832 H   0  0  0  0  0  0
  -25.2792   -9.5608   22.4809 H   0  0  0  0  0  0
  -24.0014   -7.4584   22.7489 H   0  0  0  0  0  0
  -21.0872   -8.8783   19.8954 H   0  0  0  0  0  0
  -22.3780  -10.9666   19.6222 H   0  0  0  0  0  0
  -21.1964   -7.6146   23.9710 H   0  0  0  0  0  0
  -21.1504   -6.0523   25.9076 H   0  0  0  0  0  0
  -22.0599   -2.7615   23.2838 H   0  0  0  0  0  0
  -22.4000  -11.9843   22.4878 H   0  0  0  0  0  0
  -21.1057  -13.1203   22.2568 H   0  0  0  0  0  0
  -24.6343  -15.8297   20.5354 H   0  0  0  0  0  0
  -26.2449  -15.6386   20.0686 H   0  0  0  0  0  0
  -26.7168  -32.5418   23.1057 H   0  0  0  0  0  0
  -25.0075  -33.9691   25.0407 H   0  0  0  0  0  0
  -22.7245  -31.2992   21.3932 H   0  0  0  0  0  0
  -23.3738  -35.9626   23.3292 H   0  0  0  0  0  0
  -24.3576  -36.8931   22.2044 H   0  0  0  0  0  0
  -23.7263  -37.6491   23.6674 H   0  0  0  0  0  0
  -26.1041  -31.5309   20.6061 H   0  0  0  0  0  0
  -26.8479  -30.8235   22.0109 H   0  0  0  0  0  0
  -28.1220  -28.9401   21.2119 H   0  0  0  0  0  0
  -26.0004  -25.9214   18.9778 H   0  0  0  0  0  0
  -23.9894  -27.3075   18.9856 H   0  0  0  0  0  0
  -23.7650  -30.5856   19.4019 H   0  0  0  0  0  0
  -22.7641  -29.2380   19.8562 H   0  0  0  0  0  0
  -25.1288  -36.1907   25.0815 H   0  0  0  0  0  0
  -20.9946  -28.3300   24.1380 H   0  0  0  0  0  0
  -20.5682  -26.2318   23.3606 H   0  0  0  0  0  0
  -21.6640  -26.7485   22.1204 H   0  0  0  0  0  0
  -19.6967  -25.6298   21.1247 H   0  0  0  0  0  0
  -19.6732  -27.3173   20.6707 H   0  0  0  0  0  0
  -17.4205  -26.6640   21.3998 H   0  0  0  0  0  0
  -18.0365  -26.0106   22.9019 H   0  0  0  0  0  0
  -19.7938  -30.7258   24.2263 H   0  0  0  0  0  0
  -17.5034  -31.6287   24.5160 H   0  0  0  0  0  0
  -15.5353  -30.3019   23.7690 H   0  0  0  0  0  0
  -15.8642  -28.0852   22.7091 H   0  0  0  0  0  0
  -24.5913  -30.7073   25.7771 H   0  0  0  0  0  0
  -24.8904  -32.2903   26.4818 H   0  0  0  0  0  0
  -25.8034  -30.8954   27.0235 H   0  0  0  0  0  0
  -26.2935  -29.6717   24.1216 H   0  0  0  0  0  0
  -27.4008  -29.7261   25.4732 H   0  0  0  0  0  0
  -27.8827  -30.4240   23.9464 H   0  0  0  0  0  0
  -27.2645  -33.3637   26.2038 H   0  0  0  0  0  0
  -28.3873  -32.6864   25.0337 H   0  0  0  0  0  0
  -28.0688  -31.8478   26.5444 H   0  0  0  0  0  0
  -28.2555  -38.0114   24.7513 H   0  0  0  0  0  0
  -28.1115  -36.2636   24.6259 H   0  0  0  0  0  0
  -27.2296  -37.1409   25.8857 H   0  0  0  0  0  0
  -20.9369  -29.8767   21.6840 H   0  0  0  0  0  0
  -26.0158  -38.2832   24.1432 H   0  0  0  0  0  0
  -29.4350  -19.6313   21.8098 H   0  0  0  0  0  0
  -29.8878  -21.9554   18.2047 H   0  0  0  0  0  0
  -32.4204  -17.4280   18.3244 H   0  0  0  0  0  0
  -31.2768  -17.5794   16.9977 H   0  0  0  0  0  0
  -30.8798  -16.5597   18.3485 H   0  0  0  0  0  0
  -33.0245  -21.7019   14.7924 H   0  0  0  0  0  0
  -31.9295  -20.3836   14.3722 H   0  0  0  0  0  0
  -33.2784  -20.0933   15.4670 H   0  0  0  0  0  0
  -27.0083  -20.9037   20.8981 H   0  0  0  0  0  0
  -27.0027  -21.8652   19.4358 H   0  0  0  0  0  0
  -26.5798  -22.5939   20.9817 H   0  0  0  0  0  0
  -28.6405  -21.3956   22.7531 H   0  0  0  0  0  0
  -28.4725  -23.1185   22.7126 H   0  0  0  0  0  0
  -30.0562  -22.4015   22.4645 H   0  0  0  0  0  0
  -28.5047  -15.5812   22.3039 H   0  0  0  0  0  0
  -27.9330  -15.8914   20.6413 H   0  0  0  0  0  0
  -28.4751  -17.1681   21.6561 H   0  0  0  0  0  0
  -30.7260  -17.5362   22.0453 H   0  0  0  0  0  0
  -31.8243  -17.1202   20.8077 H   0  0  0  0  0  0
  -30.0531  -23.9752   20.3071 H   0  0  0  0  0  0
  -28.9040  -23.6922   19.0417 H   0  0  0  0  0  0
  -30.8589  -21.8868   16.0717 H   0  0  0  0  0  0
  -32.2311  -21.6290   17.1592 H   0  0  0  0  0  0
  -28.1757  -25.0532   21.6965 H   0  0  0  0  0  0
  -27.0664  -24.7118   20.4303 H   0  0  0  0  0  0
  1 25  1  0  0  0
  1 30  2  0  0  0
  1 87  1  0  0  0
  2  3  1  0  0  0
  2 25  1  0  0  0
  2 89  1  0  0  0
  2 90  1  0  0  0
  3  4  1  0  0  0
  3 91  1  0  0  0
  3 92  1  0  0  0
  4  5  1  0  0  0
  4 93  1  0  0  0
  4 94  1  0  0  0
  5  6  1  0  0  0
  5 26  1  0  0  0
  5 95  1  0  0  0
  6 25  1  0  0  0
  6 96  1  0  0  0
  6 97  1  0  0  0
  7  8  2  0  0  0
  7 26  1  0  0  0
  7 29  1  0  0  0
  8  9  1  0  0  0
  8 22  1  0  0  0
  9 10  1  0  0  0
  9 27  2  0  0  0
 10 11  2  0  0  0
 10 15  1  0  0  0
 11 12  1  0  0  0
 11 98  1  0  0  0
 12 13  2  0  0  0
 12 99  1  0  0  0
 13 14  1  0  0  0
 13 31  1  0  0  0
 14 15  2  0  0  0
 14100  1  0  0  0
 15101  1  0  0  0
 16 17  2  0  0  0
 16 21  1  0  0  0
 16 31  1  0  0  0
 17 18  1  0  0  0
 17102  1  0  0  0
 18 19  2  0  0  0
 18103  1  0  0  0
 19 20  1  0  0  0
 19 24  1  0  0  0
 20 21  2  0  0  0
 20104  1  0  0  0
 21 23  1  0  0  0
 22 28  1  0  0  0
 22 32  2  0  0  0
 26 27  1  0  0  0
 28105  1  0  0  0
 28106  1  0  0  0
 29107  1  0  0  0
 29108  1  0  0  0
 33 34  1  0  0  0
 33 66  1  0  0  0
 33 70  2  0  0  0
 34 36  1  0  0  0
 34 59  1  0  0  0
 34109  1  0  0  0
 35 44  2  0  0  0
 35 45  1  0  0  0
 35 68  1  0  0  0
 36 56  1  0  0  0
 36110  1  0  0  0
 37 39  1  0  0  0
 37 47  1  0  0  0
 37 66  1  0  0  0
 37111  1  0  0  0
 38 43  2  0  0  0
 38 46  1  0  0  0
 38 47  1  0  0  0
 39 64  1  0  0  0
 39 67  2  0  0  0
 40 52  1  0  0  0
 40 53  2  0  0  0
 40 58  1  0  0  0
 41112  1  0  0  0
 41113  1  0  0  0
 41114  1  0  0  0
 41 48  1  0  0  0
 42 43  1  0  0  0
 42 66  1  0  0  0
 42115  1  0  0  0
 42116  1  0  0  0
 43 44  1  0  0  0
 44117  1  0  0  0
 45 46  2  0  0  0
 45118  1  0  0  0
 46119  1  0  0  0
 47120  1  0  0  0
 47121  1  0  0  0
 48 56  1  0  0  0
 48 65  1  0  0  0
 48122  1  0  0  0
 49 50  1  0  0  0
 49 53  1  0  0  0
 49 64  1  0  0  0
 49123  1  0  0  0
 50 51  1  0  0  0
 50124  1  0  0  0
 50125  1  0  0  0
 51 52  1  0  0  0
 51126  1  0  0  0
 51127  1  0  0  0
 52128  1  0  0  0
 52129  1  0  0  0
 53 54  1  0  0  0
 54 55  2  0  0  0
 54130  1  0  0  0
 55 57  1  0  0  0
 55131  1  0  0  0
 56 69  2  0  0  0
 57 58  2  0  0  0
 57132  1  0  0  0
 58133  1  0  0  0
 59 60  1  0  0  0
 59 61  1  0  0  0
 59 62  1  0  0  0
 60134  1  0  0  0
 60135  1  0  0  0
 60136  1  0  0  0
 61137  1  0  0  0
 61138  1  0  0  0
 61139  1  0  0  0
 62140  1  0  0  0
 62141  1  0  0  0
 62142  1  0  0  0
 63 65  1  0  0  0
 63143  1  0  0  0
 63144  1  0  0  0
 63145  1  0  0  0
 64146  1  0  0  0
 65147  1  0  0  0
 68 85  1  0  0  0
 71 73  2  0  0  0
 71 74  1  0  0  0
 71148  1  0  0  0
 72 73  1  0  0  0
 72 76  2  0  0  0
 72149  1  0  0  0
 73 86  1  0  0  0
 74 75  2  0  0  0
 74 82  1  0  0  0
 75 76  1  0  0  0
 75 77  1  0  0  0
 76 88  1  0  0  0
 77150  1  0  0  0
 77151  1  0  0  0
 77152  1  0  0  0
 78 84  1  0  0  0
 78153  1  0  0  0
 78154  1  0  0  0
 78155  1  0  0  0
 79156  1  0  0  0
 79157  1  0  0  0
 79158  1  0  0  0
 79 86  1  0  0  0
 80 86  1  0  0  0
 80159  1  0  0  0
 80160  1  0  0  0
 80161  1  0  0  0
 81 87  1  0  0  0
 81162  1  0  0  0
 81163  1  0  0  0
 81164  1  0  0  0
 82 87  1  0  0  0
 82165  1  0  0  0
 82166  1  0  0  0
 83 85  1  0  0  0
 83 86  1  0  0  0
 83167  1  0  0  0
 83168  1  0  0  0
 84 88  1  0  0  0
 84169  1  0  0  0
 84170  1  0  0  0
 85171  1  0  0  0
 85172  1  0  0  0
M  ISO  4   1 100  68 101  85 101  87 100
M  END
> <chiral flag>
0

> <version>
0

> <s_m_source_file>
/data/baiqing/PycharmProjects/Reinvent-master-3.2/result/LINK_invent/BTK/process_docking_weight1_custom_sum_contain_oxygen_bond_distance_aromatic_linkinvent_7_9_3/rearranged_h_0106.sdf

> <i_m_source_file_index>
84

> <r_mmod_Potential_Energy-OPLS-2005>
281.418304443359

> <r_mmod_Stretch_Energy-OPLS-2005>
127.072761535645

> <r_mmod_Bend_Energy-OPLS-2005>
195.617935180664

> <r_mmod_Torsional_Energy-OPLS-2005>
278.604278564453

> <r_mmod_Improper_Torsional_Energy-OPLS-2005>
5.82195472717285

> <r_mmod_Van_der_Waal_Energy-OPLS-2005>
165.950088500977

> <r_mmod_Electrostatic_Energy-OPLS-2005>
-368.846649169922

> <r_mmod_Solvation_Energy-OPLS-2005>
-192.437042236328

> <b_mmod_Minimization_Converged-OPLS-2005>
0

> <r_mmod_RMS_Derivative-OPLS-2005>
3.45792436599731

$$$$
85
                    3D
 Structure written by MMmdl.
165173  0  0  1  0            999 V2000
  -30.5609  -14.8084   20.4485 C   0  0  0  0  0  0
  -30.4455  -12.4977   19.4657 C   0  0  0  0  0  0
  -29.5137  -12.5077   18.2321 C   0  0  0  0  0  0
  -28.0411  -12.3185   18.6501 C   0  0  0  0  0  0
  -27.6370  -13.2265   19.8414 C   0  0  2  0  0  0
  -28.6850  -13.1791   20.9735 C   0  0  0  0  0  0
  -25.2501  -13.8168   20.5687 C   0  0  0  0  0  0
  -24.1797  -13.0422   20.9223 C   0  0  0  0  0  0
  -24.6383  -11.6900   20.8754 C   0  0  0  0  0  0
  -23.9057  -10.4281   21.0408 C   0  0  0  0  0  0
  -24.3610   -9.4196   21.9183 C   0  0  0  0  0  0
  -23.6286   -8.2234   22.0752 C   0  0  0  0  0  0
  -22.4270   -8.0272   21.3542 C   0  0  0  0  0  0
  -21.9903   -9.0245   20.4644 C   0  0  0  0  0  0
  -22.7230  -10.2122   20.3055 C   0  0  0  0  0  0
  -21.6852   -6.0727   22.5276 C   0  0  0  0  0  0
  -21.4013   -6.5634   23.8208 C   0  0  0  0  0  0
  -21.3660   -5.6788   24.9173 C   0  0  0  0  0  0
  -21.6045   -4.3051   24.7225 C   0  0  0  0  0  0
  -21.8821   -3.8139   23.4350 C   0  0  0  0  0  0
  -21.9193   -4.6954   22.3401 C   0  0  0  0  0  0
  -22.7821  -13.5214   21.1879 C   0  0  0  0  0  0
  -22.1664   -4.2139   21.0980 F   0  0  0  0  0  0
  -21.5628   -3.4537   25.7740 F   0  0  0  0  0  0
  -29.9744  -13.5603   20.3833 N   0  0  0  0  0  0
  -26.2912  -12.9363   20.3237 N   0  0  0  0  0  0
  -25.9308  -11.6514   20.5735 N   0  0  0  0  0  0
  -22.0463  -12.8203   22.0430 N   0  0  0  0  0  0
  -25.4162  -15.1896   20.4083 N   0  0  0  0  0  0
  -31.7676  -14.9287   20.2134 O   0  0  0  0  0  0
  -21.6639   -6.8869   21.4237 O   0  0  0  0  0  0
  -22.3511  -14.5522   20.6724 O   0  0  0  0  0  0
  -24.6338  -31.8518   23.1944 C   0  0  0  0  0  0
  -25.9152  -32.4732   23.8303 C   0  0  1  0  0  0
  -27.2266  -27.2278   20.1486 C   0  0  0  0  0  0
  -25.5936  -33.8535   24.2227 N   0  0  0  0  0  0
  -23.4333  -30.4707   21.5383 C   0  0  2  0  0  0
  -24.8827  -28.8993   20.1233 C   0  0  0  0  0  0
  -22.7512  -29.4586   22.4905 C   0  0  0  0  0  0
  -18.0295  -28.1397   22.8483 C   0  0  0  0  0  0
  -24.1490  -36.7272   23.2639 C   0  0  0  0  0  0
  -25.9799  -30.7517   21.3807 C   0  0  0  0  0  0
  -26.0534  -29.3645   20.7373 C   0  0  0  0  0  0
  -27.2281  -28.5399   20.7407 C   0  0  0  0  0  0
  -26.0343  -26.8295   19.5132 C   0  0  0  0  0  0
  -24.8778  -27.6385   19.5031 C   0  0  0  0  0  0
  -23.6563  -29.7939   20.1591 C   0  0  0  0  0  0
  -25.4119  -36.3051   24.0319 C   0  0  1  0  0  0
  -20.5898  -28.3709   23.1265 C   0  0  2  0  0  0
  -20.6779  -26.9424   22.5410 C   0  0  0  0  0  0
  -19.5755  -26.6389   21.5212 C   0  0  0  0  0  0
  -18.1936  -26.7939   22.1625 C   0  0  0  0  0  0
  -19.1548  -28.8871   23.2869 C   0  0  0  0  0  0
  -18.9467  -30.1470   23.8891 C   0  0  0  0  0  0
  -17.6466  -30.6594   24.0565 C   0  0  0  0  0  0
  -25.9063  -34.9425   23.5078 C   0  0  0  0  0  0
  -16.5358  -29.9089   23.6334 C   0  0  0  0  0  0
  -16.7281  -28.6508   23.0352 C   0  0  0  0  0  0
  -26.4512  -31.6573   25.0709 C   0  0  0  0  0  0
  -25.3726  -31.3737   26.1421 C   0  0  0  0  0  0
  -27.0364  -30.2982   24.6223 C   0  0  0  0  0  0
  -27.6052  -32.4323   25.7494 C   0  0  0  0  0  0
  -27.5578  -37.1791   24.8464 C   0  0  0  0  0  0
  -21.4216  -29.3047   22.3646 N   0  0  0  0  0  0
  -26.4287  -37.3755   23.9409 N   0  0  0  0  0  0
  -24.7014  -31.0445   22.0938 N   0  0  0  0  0  0
  -23.4192  -28.8136   23.3029 O   0  0  0  0  0  0
  -28.3395  -26.3573   20.0554 O   0  0  0  0  0  0
  -26.5639  -34.8910   22.4650 O   0  0  0  0  0  0
  -23.5480  -32.1356   23.7219 O   0  0  0  0  0  0
  -29.0166  -18.4447   20.2806 C   0  0  0  0  0  0
  -29.8914  -17.3983   20.6304 C   0  0  0  0  0  0
  -30.6578  -19.3589   21.4370 C   0  0  0  0  0  0
  -32.9493  -20.3233   21.8551 C   0  0  0  0  0  0
  -31.4328  -19.7150   23.7934 C   0  0  0  0  0  0
  -30.6099  -23.0105   20.5474 C   0  0  0  0  0  0
  -29.5248  -21.9888   18.5827 C   0  0  0  0  0  0
  -28.7927  -21.0965   20.8186 C   0  0  0  0  0  0
  -28.2679  -23.7864   19.8796 C   0  0  0  0  0  0
  -31.4943  -20.2194   22.3421 C   0  0  0  0  0  0
  -29.2681  -22.4680   20.0275 C   0  0  0  0  0  0
  -29.5099  -19.6801   20.7750 N   0  0  0  0  0  0
  -30.9110  -18.0330   21.2836 N   0  3  0  0  0  0
  -29.7073  -15.9143   20.4923 N   0  0  0  0  0  0
  -28.2610  -25.0040   20.7960 N   0  0  0  0  0  0
  -31.4798  -12.6562   19.1558 H   0  0  0  0  0  0
  -30.4237  -11.5264   19.9624 H   0  0  0  0  0  0
  -29.8066  -11.7251   17.5309 H   0  0  0  0  0  0
  -29.6233  -13.4525   17.6975 H   0  0  0  0  0  0
  -27.9100  -11.2715   18.9259 H   0  0  0  0  0  0
  -27.3809  -12.4926   17.7998 H   0  0  0  0  0  0
  -27.6199  -14.2416   19.4457 H   0  0  0  0  0  0
  -28.7411  -12.1820   21.4127 H   0  0  0  0  0  0
  -28.4118  -13.8562   21.7846 H   0  0  0  0  0  0
  -25.2754   -9.5675   22.4758 H   0  0  0  0  0  0
  -23.9996   -7.4625   22.7470 H   0  0  0  0  0  0
  -21.0835   -8.8760   19.8948 H   0  0  0  0  0  0
  -22.3687  -10.9662   19.6165 H   0  0  0  0  0  0
  -21.2006   -7.6142   23.9709 H   0  0  0  0  0  0
  -21.1482   -6.0521   25.9076 H   0  0  0  0  0  0
  -22.0601   -2.7601   23.2854 H   0  0  0  0  0  0
  -22.4087  -11.9869   22.4821 H   0  0  0  0  0  0
  -21.1075  -13.1216   22.2624 H   0  0  0  0  0  0
  -24.6365  -15.8308   20.5098 H   0  0  0  0  0  0
  -26.2359  -15.6284   20.0124 H   0  0  0  0  0  0
  -26.7218  -32.5382   23.1043 H   0  0  0  0  0  0
  -25.0074  -33.9660   25.0367 H   0  0  0  0  0  0
  -22.7315  -31.2929   21.3846 H   0  0  0  0  0  0
  -23.3749  -35.9606   23.3294 H   0  0  0  0  0  0
  -24.3576  -36.8903   22.2053 H   0  0  0  0  0  0
  -23.7246  -37.6471   23.6674 H   0  0  0  0  0  0
  -26.1184  -31.5031   20.6021 H   0  0  0  0  0  0
  -26.8575  -30.8096   22.0130 H   0  0  0  0  0  0
  -28.1340  -28.8998   21.2078 H   0  0  0  0  0  0
  -25.9997  -25.8673   19.0223 H   0  0  0  0  0  0
  -23.9830  -27.2773   19.0154 H   0  0  0  0  0  0
  -23.7885  -30.5637   19.3979 H   0  0  0  0  0  0
  -22.7737  -29.2289   19.8535 H   0  0  0  0  0  0
  -25.1303  -36.1885   25.0810 H   0  0  0  0  0  0
  -20.9996  -28.3294   24.1384 H   0  0  0  0  0  0
  -20.5676  -26.2321   23.3617 H   0  0  0  0  0  0
  -21.6646  -26.7440   22.1207 H   0  0  0  0  0  0
  -19.6910  -25.6294   21.1247 H   0  0  0  0  0  0
  -19.6689  -27.3197   20.6740 H   0  0  0  0  0  0
  -17.4202  -26.6685   21.4031 H   0  0  0  0  0  0
  -18.0339  -26.0085   22.9028 H   0  0  0  0  0  0
  -19.7942  -30.7291   24.2254 H   0  0  0  0  0  0
  -17.5017  -31.6272   24.5170 H   0  0  0  0  0  0
  -15.5358  -30.2988   23.7663 H   0  0  0  0  0  0
  -15.8680  -28.0827   22.7070 H   0  0  0  0  0  0
  -24.5911  -30.7071   25.7754 H   0  0  0  0  0  0
  -24.8910  -32.2912   26.4814 H   0  0  0  0  0  0
  -25.8037  -30.8941   27.0218 H   0  0  0  0  0  0
  -26.2957  -29.6717   24.1237 H   0  0  0  0  0  0
  -27.4019  -29.7256   25.4757 H   0  0  0  0  0  0
  -27.8843  -30.4237   23.9485 H   0  0  0  0  0  0
  -27.2648  -33.3628   26.2051 H   0  0  0  0  0  0
  -28.3884  -32.6875   25.0344 H   0  0  0  0  0  0
  -28.0698  -31.8463   26.5434 H   0  0  0  0  0  0
  -28.2588  -38.0095   24.7515 H   0  0  0  0  0  0
  -28.1081  -36.2624   24.6285 H   0  0  0  0  0  0
  -27.2294  -37.1435   25.8866 H   0  0  0  0  0  0
  -20.9411  -29.8754   21.6830 H   0  0  0  0  0  0
  -26.0157  -38.2823   24.1419 H   0  0  0  0  0  0
  -28.0628  -18.4013   19.7746 H   0  0  0  0  0  0
  -33.0063  -20.6987   20.8332 H   0  0  0  0  0  0
  -33.4518  -19.3559   21.8765 H   0  0  0  0  0  0
  -33.5225  -21.0033   22.4857 H   0  0  0  0  0  0
  -30.4025  -19.6646   24.1484 H   0  0  0  0  0  0
  -31.9755  -20.3829   24.4628 H   0  0  0  0  0  0
  -31.8684  -18.7207   23.8979 H   0  0  0  0  0  0
  -31.4175  -22.2934   20.4240 H   0  0  0  0  0  0
  -30.5471  -23.2961   21.5974 H   0  0  0  0  0  0
  -30.9084  -23.9026   19.9945 H   0  0  0  0  0  0
  -30.2426  -21.1686   18.5453 H   0  0  0  0  0  0
  -29.9238  -22.7850   17.9524 H   0  0  0  0  0  0
  -28.6036  -21.6361   18.1168 H   0  0  0  0  0  0
  -27.7715  -20.8953   20.4931 H   0  0  0  0  0  0
  -28.6861  -21.3426   21.8755 H   0  0  0  0  0  0
  -27.2399  -23.4262   19.8182 H   0  0  0  0  0  0
  -28.4508  -24.2120   18.8919 H   0  0  0  0  0  0
  -31.0431  -21.2048   22.3460 H   0  0  0  0  0  0
  -31.7087  -17.5672   21.6961 H   0  0  0  0  0  0
  -28.7422  -15.6335   20.4403 H   0  0  0  0  0  0
  -27.3887  -25.0312   21.3175 H   0  0  0  0  0  0
  1 25  1  0  0  0
  1 30  2  0  0  0
  1 84  1  0  0  0
  2  3  1  0  0  0
  2 25  1  0  0  0
  2 86  1  0  0  0
  2 87  1  0  0  0
  3  4  1  0  0  0
  3 88  1  0  0  0
  3 89  1  0  0  0
  4  5  1  0  0  0
  4 90  1  0  0  0
  4 91  1  0  0  0
  5  6  1  0  0  0
  5 26  1  0  0  0
  5 92  1  0  0  0
  6 25  1  0  0  0
  6 93  1  0  0  0
  6 94  1  0  0  0
  7  8  2  0  0  0
  7 26  1  0  0  0
  7 29  1  0  0  0
  8  9  1  0  0  0
  8 22  1  0  0  0
  9 10  1  0  0  0
  9 27  2  0  0  0
 10 11  2  0  0  0
 10 15  1  0  0  0
 11 12  1  0  0  0
 11 95  1  0  0  0
 12 13  2  0  0  0
 12 96  1  0  0  0
 13 14  1  0  0  0
 13 31  1  0  0  0
 14 15  2  0  0  0
 14 97  1  0  0  0
 15 98  1  0  0  0
 16 17  2  0  0  0
 16 21  1  0  0  0
 16 31  1  0  0  0
 17 18  1  0  0  0
 17 99  1  0  0  0
 18 19  2  0  0  0
 18100  1  0  0  0
 19 20  1  0  0  0
 19 24  1  0  0  0
 20 21  2  0  0  0
 20101  1  0  0  0
 21 23  1  0  0  0
 22 28  1  0  0  0
 22 32  2  0  0  0
 26 27  1  0  0  0
 28102  1  0  0  0
 28103  1  0  0  0
 29104  1  0  0  0
 29105  1  0  0  0
 33 34  1  0  0  0
 33 66  1  0  0  0
 33 70  2  0  0  0
 34 36  1  0  0  0
 34 59  1  0  0  0
 34106  1  0  0  0
 35 44  2  0  0  0
 35 45  1  0  0  0
 35 68  1  0  0  0
 36 56  1  0  0  0
 36107  1  0  0  0
 37 39  1  0  0  0
 37 47  1  0  0  0
 37 66  1  0  0  0
 37108  1  0  0  0
 38 43  2  0  0  0
 38 46  1  0  0  0
 38 47  1  0  0  0
 39 64  1  0  0  0
 39 67  2  0  0  0
 40 52  1  0  0  0
 40 53  2  0  0  0
 40 58  1  0  0  0
 41109  1  0  0  0
 41110  1  0  0  0
 41111  1  0  0  0
 41 48  1  0  0  0
 42 43  1  0  0  0
 42 66  1  0  0  0
 42112  1  0  0  0
 42113  1  0  0  0
 43 44  1  0  0  0
 44114  1  0  0  0
 45 46  2  0  0  0
 45115  1  0  0  0
 46116  1  0  0  0
 47117  1  0  0  0
 47118  1  0  0  0
 48 56  1  0  0  0
 48 65  1  0  0  0
 48119  1  0  0  0
 49 50  1  0  0  0
 49 53  1  0  0  0
 49 64  1  0  0  0
 49120  1  0  0  0
 50 51  1  0  0  0
 50121  1  0  0  0
 50122  1  0  0  0
 51 52  1  0  0  0
 51123  1  0  0  0
 51124  1  0  0  0
 52125  1  0  0  0
 52126  1  0  0  0
 53 54  1  0  0  0
 54 55  2  0  0  0
 54127  1  0  0  0
 55 57  1  0  0  0
 55128  1  0  0  0
 56 69  2  0  0  0
 57 58  2  0  0  0
 57129  1  0  0  0
 58130  1  0  0  0
 59 60  1  0  0  0
 59 61  1  0  0  0
 59 62  1  0  0  0
 60131  1  0  0  0
 60132  1  0  0  0
 60133  1  0  0  0
 61134  1  0  0  0
 61135  1  0  0  0
 61136  1  0  0  0
 62137  1  0  0  0
 62138  1  0  0  0
 62139  1  0  0  0
 63 65  1  0  0  0
 63140  1  0  0  0
 63141  1  0  0  0
 63142  1  0  0  0
 64143  1  0  0  0
 65144  1  0  0  0
 68 85  1  0  0  0
 71 72  2  0  0  0
 71 82  1  0  0  0
 71145  1  0  0  0
 72 83  1  0  0  0
 72 84  1  0  0  0
 73 80  1  0  0  0
 73 82  1  0  0  0
 73 83  2  0  0  0
 74146  1  0  0  0
 74147  1  0  0  0
 74148  1  0  0  0
 74 80  1  0  0  0
 75 80  1  0  0  0
 75149  1  0  0  0
 75150  1  0  0  0
 75151  1  0  0  0
 76152  1  0  0  0
 76153  1  0  0  0
 76154  1  0  0  0
 76 81  1  0  0  0
 77 81  1  0  0  0
 77155  1  0  0  0
 77156  1  0  0  0
 77157  1  0  0  0
 78 81  1  0  0  0
 78 82  1  0  0  0
 78158  1  0  0  0
 78159  1  0  0  0
 79 81  1  0  0  0
 79 85  1  0  0  0
 79160  1  0  0  0
 79161  1  0  0  0
 80162  1  0  0  0
 83163  1  0  0  0
 84164  1  0  0  0
 85165  1  0  0  0
M  CHG  1  83   1
M  ISO  4   1 100  68 101  84 100  85 101
M  END
> <chiral flag>
0

> <version>
0

> <s_m_source_file>
/data/baiqing/PycharmProjects/Reinvent-master-3.2/result/LINK_invent/BTK/process_docking_weight1_custom_sum_contain_oxygen_bond_distance_aromatic_linkinvent_7_9_3/rearranged_h_0106.sdf

> <i_m_source_file_index>
85

> <r_mmod_Potential_Energy-OPLS-2005>
214.620834350586

> <r_mmod_Stretch_Energy-OPLS-2005>
161.624954223633

> <r_mmod_Bend_Energy-OPLS-2005>
230.893127441406

> <r_mmod_Torsional_Energy-OPLS-2005>
270.493041992188

> <r_mmod_Improper_Torsional_Energy-OPLS-2005>
10.1616373062134

> <r_mmod_Van_der_Waal_Energy-OPLS-2005>
106.99437713623

> <r_mmod_Electrostatic_Energy-OPLS-2005>
-252.404327392578

> <r_mmod_Solvation_Energy-OPLS-2005>
-421.093475341797

> <b_mmod_Minimization_Converged-OPLS-2005>
0

> <r_mmod_RMS_Derivative-OPLS-2005>
0.68106073141098

$$$$
86
                    3D
 Structure written by MMmdl.
161169  0  0  1  0            999 V2000
  -30.6805  -14.6023   20.5033 C   0  0  0  0  0  0
  -30.4173  -12.3719   19.4559 C   0  0  0  0  0  0
  -29.4957  -12.4930   18.2250 C   0  0  0  0  0  0
  -28.0185  -12.3483   18.6367 C   0  0  0  0  0  0
  -27.6470  -13.2270   19.8611 C   0  0  2  0  0  0
  -28.6918  -13.1073   20.9934 C   0  0  0  0  0  0
  -25.2511  -13.8207   20.5699 C   0  0  0  0  0  0
  -24.1794  -13.0450   20.9197 C   0  0  0  0  0  0
  -24.6385  -11.6930   20.8746 C   0  0  0  0  0  0
  -23.9061  -10.4302   21.0406 C   0  0  0  0  0  0
  -24.3611   -9.4215   21.9184 C   0  0  0  0  0  0
  -23.6291   -8.2246   22.0760 C   0  0  0  0  0  0
  -22.4276   -8.0276   21.3547 C   0  0  0  0  0  0
  -21.9909   -9.0248   20.4649 C   0  0  0  0  0  0
  -22.7233  -10.2133   20.3057 C   0  0  0  0  0  0
  -21.6855   -6.0729   22.5273 C   0  0  0  0  0  0
  -21.4016   -6.5637   23.8202 C   0  0  0  0  0  0
  -21.3658   -5.6793   24.9165 C   0  0  0  0  0  0
  -21.6046   -4.3053   24.7224 C   0  0  0  0  0  0
  -21.8818   -3.8141   23.4346 C   0  0  0  0  0  0
  -21.9192   -4.6956   22.3401 C   0  0  0  0  0  0
  -22.7816  -13.5224   21.1854 C   0  0  0  0  0  0
  -22.1657   -4.2140   21.0977 F   0  0  0  0  0  0
  -21.5631   -3.4545   25.7742 F   0  0  0  0  0  0
  -30.0083  -13.4139   20.4194 N   0  0  0  0  0  0
  -26.2953  -12.9408   20.3334 N   0  0  0  0  0  0
  -25.9318  -11.6554   20.5782 N   0  0  0  0  0  0
  -22.0467  -12.8212   22.0415 N   0  0  0  0  0  0
  -25.4221  -15.1929   20.4114 N   0  0  0  0  0  0
  -31.8455  -14.6975   20.1104 O   0  0  0  0  0  0
  -21.6640   -6.8871   21.4232 O   0  0  0  0  0  0
  -22.3497  -14.5527   20.6706 O   0  0  0  0  0  0
  -24.6239  -31.8607   23.2024 C   0  0  0  0  0  0
  -25.9092  -32.4788   23.8352 C   0  0  1  0  0  0
  -27.2222  -27.3463   20.1082 C   0  0  0  0  0  0
  -25.5908  -33.8588   24.2271 N   0  0  0  0  0  0
  -23.4176  -30.4828   21.5458 C   0  0  2  0  0  0
  -24.8640  -28.9391   20.1117 C   0  0  0  0  0  0
  -22.7469  -29.4637   22.4964 C   0  0  0  0  0  0
  -18.0276  -28.1398   22.8494 C   0  0  0  0  0  0
  -24.1486  -36.7297   23.2639 C   0  0  0  0  0  0
  -25.9553  -30.7985   21.3690 C   0  0  0  0  0  0
  -26.0323  -29.4274   20.7123 C   0  0  0  0  0  0
  -27.2203  -28.6413   20.7037 C   0  0  0  0  0  0
  -26.0374  -26.8991   19.4896 C   0  0  0  0  0  0
  -24.8647  -27.6779   19.4940 C   0  0  0  0  0  0
  -23.6291  -29.8148   20.1630 C   0  0  0  0  0  0
  -25.4112  -36.3080   24.0322 C   0  0  1  0  0  0
  -20.5877  -28.3696   23.1300 C   0  0  2  0  0  0
  -20.6770  -26.9432   22.5408 C   0  0  0  0  0  0
  -19.5743  -26.6395   21.5216 C   0  0  0  0  0  0
  -18.1921  -26.7943   22.1631 C   0  0  0  0  0  0
  -19.1530  -28.8866   23.2884 C   0  0  0  0  0  0
  -18.9454  -30.1465   23.8908 C   0  0  0  0  0  0
  -17.6458  -30.6601   24.0573 C   0  0  0  0  0  0
  -25.9049  -34.9458   23.5102 C   0  0  0  0  0  0
  -16.5346  -29.9106   23.6344 C   0  0  0  0  0  0
  -16.7265  -28.6519   23.0371 C   0  0  0  0  0  0
  -26.4480  -31.6603   25.0720 C   0  0  0  0  0  0
  -25.3713  -31.3737   26.1449 C   0  0  0  0  0  0
  -27.0331  -30.3036   24.6156 C   0  0  0  0  0  0
  -27.6046  -32.4348   25.7477 C   0  0  0  0  0  0
  -27.5581  -37.1786   24.8458 C   0  0  0  0  0  0
  -21.4186  -29.3046   22.3703 N   0  0  0  0  0  0
  -26.4283  -37.3780   23.9418 N   0  0  0  0  0  0
  -24.6850  -31.0636   22.0970 N   0  0  0  0  0  0
  -23.4196  -28.8172   23.3042 O   0  0  0  0  0  0
  -28.3126  -26.4788   20.1188 O   0  0  0  0  0  0
  -26.5622  -34.8919   22.4672 O   0  0  0  0  0  0
  -23.5411  -32.1386   23.7366 O   0  0  0  0  0  0
  -29.7720  -23.5812   19.8464 C   0  0  0  0  0  0
  -30.2159  -22.2384   19.6966 C   0  0  0  0  0  0
  -29.4657  -21.1488   20.2421 C   0  0  0  0  0  0
  -28.5744  -23.8608   20.5299 C   0  0  0  0  0  0
  -28.2313  -21.5239   20.8462 C   0  0  0  0  0  0
  -31.5189  -21.9925   18.9508 C   0  0  0  0  0  0
  -27.2498  -20.5059   21.3919 C   0  0  0  0  0  0
  -31.4955  -17.3508   21.9637 C   0  0  0  0  0  0
  -30.0781  -19.6918   20.1388 C   0  0  0  0  0  0
  -28.1312  -25.3004   20.9793 C   0  0  0  0  0  0
  -29.4722  -18.3416   20.7273 C   0  0  0  0  0  0
  -30.5147  -17.1357   20.7901 C   0  0  2  0  0  0
  -27.8243  -22.8198   20.9865 N   0  0  0  0  0  0
  -29.9811  -15.7278   20.8517 N   0  0  0  0  0  0
  -31.4612  -12.4674   19.1517 H   0  0  0  0  0  0
  -30.3314  -11.3842   19.9117 H   0  0  0  0  0  0
  -29.7513  -11.7335   17.4855 H   0  0  0  0  0  0
  -29.6496  -13.4576   17.7388 H   0  0  0  0  0  0
  -27.8421  -11.2972   18.8670 H   0  0  0  0  0  0
  -27.3682  -12.5868   17.7937 H   0  0  0  0  0  0
  -27.6601  -14.2591   19.5099 H   0  0  0  0  0  0
  -28.6920  -12.1017   21.4154 H   0  0  0  0  0  0
  -28.4494  -13.7821   21.8160 H   0  0  0  0  0  0
  -25.2757   -9.5689   22.4762 H   0  0  0  0  0  0
  -23.9996   -7.4642   22.7488 H   0  0  0  0  0  0
  -21.0838   -8.8762   19.8963 H   0  0  0  0  0  0
  -22.3688  -10.9661   19.6165 H   0  0  0  0  0  0
  -21.2006   -7.6143   23.9697 H   0  0  0  0  0  0
  -21.1485   -6.0529   25.9066 H   0  0  0  0  0  0
  -22.0601   -2.7606   23.2851 H   0  0  0  0  0  0
  -22.4099  -11.9864   22.4769 H   0  0  0  0  0  0
  -21.1090  -13.1231   22.2649 H   0  0  0  0  0  0
  -24.6568  -15.8499   20.5219 H   0  0  0  0  0  0
  -26.2709  -15.6295   20.0745 H   0  0  0  0  0  0
  -26.7167  -32.5453   23.1110 H   0  0  0  0  0  0
  -25.0053  -33.9752   25.0411 H   0  0  0  0  0  0
  -22.7091  -31.3010   21.4029 H   0  0  0  0  0  0
  -23.3755  -35.9622   23.3267 H   0  0  0  0  0  0
  -24.3588  -36.8973   22.2065 H   0  0  0  0  0  0
  -23.7235  -37.6481   23.6697 H   0  0  0  0  0  0
  -26.0794  -31.5604   20.5984 H   0  0  0  0  0  0
  -26.8384  -30.8520   21.9936 H   0  0  0  0  0  0
  -28.1200  -29.0086   21.1778 H   0  0  0  0  0  0
  -26.0125  -25.9259   19.0182 H   0  0  0  0  0  0
  -23.9669  -27.2978   19.0256 H   0  0  0  0  0  0
  -23.7391  -30.5872   19.4015 H   0  0  0  0  0  0
  -22.7509  -29.2352   19.8714 H   0  0  0  0  0  0
  -25.1293  -36.1916   25.0810 H   0  0  0  0  0  0
  -20.9951  -28.3265   24.1426 H   0  0  0  0  0  0
  -20.5699  -26.2313   23.3605 H   0  0  0  0  0  0
  -21.6639  -26.7482   22.1190 H   0  0  0  0  0  0
  -19.6916  -25.6302   21.1261 H   0  0  0  0  0  0
  -19.6684  -27.3196   20.6743 H   0  0  0  0  0  0
  -17.4196  -26.6702   21.4017 H   0  0  0  0  0  0
  -18.0312  -26.0073   22.9013 H   0  0  0  0  0  0
  -19.7925  -30.7281   24.2277 H   0  0  0  0  0  0
  -17.5011  -31.6279   24.5173 H   0  0  0  0  0  0
  -15.5348  -30.3005   23.7671 H   0  0  0  0  0  0
  -15.8663  -28.0839   22.7087 H   0  0  0  0  0  0
  -24.5874  -30.7104   25.7772 H   0  0  0  0  0  0
  -24.8904  -32.2900   26.4882 H   0  0  0  0  0  0
  -25.8021  -30.8901   27.0223 H   0  0  0  0  0  0
  -26.2897  -29.6760   24.1223 H   0  0  0  0  0  0
  -27.4107  -29.7314   25.4640 H   0  0  0  0  0  0
  -27.8725  -30.4348   23.9328 H   0  0  0  0  0  0
  -27.2691  -33.3703   26.1970 H   0  0  0  0  0  0
  -28.3887  -32.6827   25.0309 H   0  0  0  0  0  0
  -28.0663  -31.8516   26.5455 H   0  0  0  0  0  0
  -28.2565  -38.0116   24.7564 H   0  0  0  0  0  0
  -28.1124  -36.2654   24.6220 H   0  0  0  0  0  0
  -27.2311  -37.1358   25.8864 H   0  0  0  0  0  0
  -20.9369  -29.8776   21.6915 H   0  0  0  0  0  0
  -26.0158  -38.2849   24.1442 H   0  0  0  0  0  0
  -30.3692  -24.4048   19.4765 H   0  0  0  0  0  0
  -31.9842  -22.9258   18.6338 H   0  0  0  0  0  0
  -31.3387  -21.3982   18.0542 H   0  0  0  0  0  0
  -32.2415  -21.4677   19.5747 H   0  0  0  0  0  0
  -27.6040  -20.0895   22.3344 H   0  0  0  0  0  0
  -27.0932  -19.6985   20.6791 H   0  0  0  0  0  0
  -26.2730  -20.9551   21.5750 H   0  0  0  0  0  0
  -32.0547  -18.2802   21.8597 H   0  0  0  0  0  0
  -32.2375  -16.5544   22.0306 H   0  0  0  0  0  0
  -30.9712  -17.3886   22.9183 H   0  0  0  0  0  0
  -31.0696  -19.7915   20.5760 H   0  0  0  0  0  0
  -30.2557  -19.5082   19.0789 H   0  0  0  0  0  0
  -28.6966  -25.5133   21.8870 H   0  0  0  0  0  0
  -27.0944  -25.2286   21.3140 H   0  0  0  0  0  0
  -28.6099  -18.0487   20.1281 H   0  0  0  0  0  0
  -29.1050  -18.5091   21.7392 H   0  0  0  0  0  0
  -31.0895  -17.1885   19.8634 H   0  0  0  0  0  0
  -29.0187  -15.5982   21.1270 H   0  0  0  0  0  0
  1 25  1  0  0  0
  1 30  2  0  0  0
  1 84  1  0  0  0
  2  3  1  0  0  0
  2 25  1  0  0  0
  2 85  1  0  0  0
  2 86  1  0  0  0
  3  4  1  0  0  0
  3 87  1  0  0  0
  3 88  1  0  0  0
  4  5  1  0  0  0
  4 89  1  0  0  0
  4 90  1  0  0  0
  5  6  1  0  0  0
  5 26  1  0  0  0
  5 91  1  0  0  0
  6 25  1  0  0  0
  6 92  1  0  0  0
  6 93  1  0  0  0
  7  8  2  0  0  0
  7 26  1  0  0  0
  7 29  1  0  0  0
  8  9  1  0  0  0
  8 22  1  0  0  0
  9 10  1  0  0  0
  9 27  2  0  0  0
 10 11  2  0  0  0
 10 15  1  0  0  0
 11 12  1  0  0  0
 11 94  1  0  0  0
 12 13  2  0  0  0
 12 95  1  0  0  0
 13 14  1  0  0  0
 13 31  1  0  0  0
 14 15  2  0  0  0
 14 96  1  0  0  0
 15 97  1  0  0  0
 16 17  2  0  0  0
 16 21  1  0  0  0
 16 31  1  0  0  0
 17 18  1  0  0  0
 17 98  1  0  0  0
 18 19  2  0  0  0
 18 99  1  0  0  0
 19 20  1  0  0  0
 19 24  1  0  0  0
 20 21  2  0  0  0
 20100  1  0  0  0
 21 23  1  0  0  0
 22 28  1  0  0  0
 22 32  2  0  0  0
 26 27  1  0  0  0
 28101  1  0  0  0
 28102  1  0  0  0
 29103  1  0  0  0
 29104  1  0  0  0
 33 34  1  0  0  0
 33 66  1  0  0  0
 33 70  2  0  0  0
 34 36  1  0  0  0
 34 59  1  0  0  0
 34105  1  0  0  0
 35 44  2  0  0  0
 35 45  1  0  0  0
 35 68  1  0  0  0
 36 56  1  0  0  0
 36106  1  0  0  0
 37 39  1  0  0  0
 37 47  1  0  0  0
 37 66  1  0  0  0
 37107  1  0  0  0
 38 43  2  0  0  0
 38 46  1  0  0  0
 38 47  1  0  0  0
 39 64  1  0  0  0
 39 67  2  0  0  0
 40 52  1  0  0  0
 40 53  2  0  0  0
 40 58  1  0  0  0
 41108  1  0  0  0
 41109  1  0  0  0
 41110  1  0  0  0
 41 48  1  0  0  0
 42 43  1  0  0  0
 42 66  1  0  0  0
 42111  1  0  0  0
 42112  1  0  0  0
 43 44  1  0  0  0
 44113  1  0  0  0
 45 46  2  0  0  0
 45114  1  0  0  0
 46115  1  0  0  0
 47116  1  0  0  0
 47117  1  0  0  0
 48 56  1  0  0  0
 48 65  1  0  0  0
 48118  1  0  0  0
 49 50  1  0  0  0
 49 53  1  0  0  0
 49 64  1  0  0  0
 49119  1  0  0  0
 50 51  1  0  0  0
 50120  1  0  0  0
 50121  1  0  0  0
 51 52  1  0  0  0
 51122  1  0  0  0
 51123  1  0  0  0
 52124  1  0  0  0
 52125  1  0  0  0
 53 54  1  0  0  0
 54 55  2  0  0  0
 54126  1  0  0  0
 55 57  1  0  0  0
 55127  1  0  0  0
 56 69  2  0  0  0
 57 58  2  0  0  0
 57128  1  0  0  0
 58129  1  0  0  0
 59 60  1  0  0  0
 59 61  1  0  0  0
 59 62  1  0  0  0
 60130  1  0  0  0
 60131  1  0  0  0
 60132  1  0  0  0
 61133  1  0  0  0
 61134  1  0  0  0
 61135  1  0  0  0
 62136  1  0  0  0
 62137  1  0  0  0
 62138  1  0  0  0
 63 65  1  0  0  0
 63139  1  0  0  0
 63140  1  0  0  0
 63141  1  0  0  0
 64142  1  0  0  0
 65143  1  0  0  0
 68 80  1  0  0  0
 71 72  2  0  0  0
 71 74  1  0  0  0
 71144  1  0  0  0
 72 73  1  0  0  0
 72 76  1  0  0  0
 73 75  2  0  0  0
 73 79  1  0  0  0
 74 80  1  0  0  0
 74 83  2  0  0  0
 75 77  1  0  0  0
 75 83  1  0  0  0
 76145  1  0  0  0
 76146  1  0  0  0
 76147  1  0  0  0
 77148  1  0  0  0
 77149  1  0  0  0
 77150  1  0  0  0
 78151  1  0  0  0
 78152  1  0  0  0
 78153  1  0  0  0
 78 82  1  0  0  0
 79 81  1  0  0  0
 79154  1  0  0  0
 79155  1  0  0  0
 80156  1  0  0  0
 80157  1  0  0  0
 81 82  1  0  0  0
 81158  1  0  0  0
 81159  1  0  0  0
 82 84  1  0  0  0
 82160  1  0  0  0
 84161  1  0  0  0
M  ISO  4   1 100  68 101  80 101  84 100
M  END
> <chiral flag>
0

> <version>
0

> <s_m_source_file>
/data/baiqing/PycharmProjects/Reinvent-master-3.2/result/LINK_invent/BTK/process_docking_weight1_custom_sum_contain_oxygen_bond_distance_aromatic_linkinvent_7_9_3/rearranged_h_0106.sdf

> <i_m_source_file_index>
86

> <r_mmod_Potential_Energy-OPLS-2005>
-39.8084182739258

> <r_mmod_Stretch_Energy-OPLS-2005>
75.0859909057617

> <r_mmod_Bend_Energy-OPLS-2005>
150.019332885742

> <r_mmod_Torsional_Energy-OPLS-2005>
237.14289855957

> <r_mmod_Improper_Torsional_Energy-OPLS-2005>
4.70545625686646

> <r_mmod_Van_der_Waal_Energy-OPLS-2005>
150.822006225586

> <r_mmod_Electrostatic_Energy-OPLS-2005>
-482.222900390625

> <r_mmod_Solvation_Energy-OPLS-2005>
-216.377624511719

> <b_mmod_Minimization_Converged-OPLS-2005>
0

> <r_mmod_RMS_Derivative-OPLS-2005>
1.81966137886047

$$$$
87
                    3D
 Structure written by MMmdl.
186194  0  0  1  0            999 V2000
  -30.6564  -14.5204   20.5245 C   0  0  0  0  0  0
  -30.4223  -12.3138   19.4351 C   0  0  0  0  0  0
  -29.4876  -12.4685   18.2155 C   0  0  0  0  0  0
  -28.0160  -12.3176   18.6444 C   0  0  0  0  0  0
  -27.6548  -13.1712   19.8873 C   0  0  2  0  0  0
  -28.7075  -13.0026   21.0069 C   0  0  0  0  0  0
  -25.2636  -13.7998   20.5742 C   0  0  0  0  0  0
  -24.1859  -13.0391   20.9214 C   0  0  0  0  0  0
  -24.6386  -11.6815   20.8889 C   0  0  0  0  0  0
  -23.9084  -10.4216   21.0593 C   0  0  0  0  0  0
  -24.3594   -9.4079   21.9361 C   0  0  0  0  0  0
  -23.6239   -8.2127   22.0825 C   0  0  0  0  0  0
  -22.4242   -8.0259   21.3588 C   0  0  0  0  0  0
  -21.9905   -9.0274   20.4708 C   0  0  0  0  0  0
  -22.7280  -10.2121   20.3172 C   0  0  0  0  0  0
  -21.6744   -6.0779   22.5347 C   0  0  0  0  0  0
  -21.3958   -6.5691   23.8283 C   0  0  0  0  0  0
  -21.3622   -5.6831   24.9253 C   0  0  0  0  0  0
  -21.5988   -4.3095   24.7266 C   0  0  0  0  0  0
  -21.8763   -3.8196   23.4395 C   0  0  0  0  0  0
  -21.9095   -4.7012   22.3454 C   0  0  0  0  0  0
  -22.7917  -13.5282   21.1863 C   0  0  0  0  0  0
  -22.1580   -4.2214   21.1014 F   0  0  0  0  0  0
  -21.5613   -3.4562   25.7766 F   0  0  0  0  0  0
  -30.0193  -13.3197   20.4267 N   0  0  0  0  0  0
  -26.3026  -12.9107   20.3545 N   0  0  0  0  0  0
  -25.9288  -11.6317   20.5974 N   0  0  0  0  0  0
  -22.0507  -12.8270   22.0354 N   0  0  0  0  0  0
  -25.4433  -15.1710   20.4106 N   0  0  0  0  0  0
  -31.8274  -14.6852   20.1699 O   0  0  0  0  0  0
  -21.6559   -6.8919   21.4294 O   0  0  0  0  0  0
  -22.3667  -14.5677   20.6798 O   0  0  0  0  0  0
  -24.6094  -31.8707   23.2056 C   0  0  0  0  0  0
  -25.8993  -32.4843   23.8381 C   0  0  1  0  0  0
  -27.2554  -27.4539   20.1033 C   0  0  0  0  0  0
  -25.5851  -33.8639   24.2318 N   0  0  0  0  0  0
  -23.3972  -30.4852   21.5471 C   0  0  2  0  0  0
  -24.8496  -28.9409   20.1221 C   0  0  0  0  0  0
  -22.7380  -29.4674   22.5027 C   0  0  0  0  0  0
  -18.0269  -28.1380   22.8495 C   0  0  0  0  0  0
  -24.1486  -36.7316   23.2640 C   0  0  0  0  0  0
  -25.9204  -30.8397   21.3538 C   0  0  0  0  0  0
  -26.0044  -29.4706   20.7131 C   0  0  0  0  0  0
  -27.2065  -28.7357   20.6971 C   0  0  0  0  0  0
  -26.0823  -26.9228   19.5250 C   0  0  0  0  0  0
  -24.8815  -27.6655   19.5295 C   0  0  0  0  0  0
  -23.6054  -29.7994   20.1680 C   0  0  0  0  0  0
  -25.4110  -36.3140   24.0355 C   0  0  1  0  0  0
  -20.5867  -28.3663   23.1336 C   0  0  2  0  0  0
  -20.6766  -26.9399   22.5442 C   0  0  0  0  0  0
  -19.5760  -26.6381   21.5225 C   0  0  0  0  0  0
  -18.1923  -26.7940   22.1605 C   0  0  0  0  0  0
  -19.1525  -28.8833   23.2915 C   0  0  0  0  0  0
  -18.9451  -30.1437   23.8924 C   0  0  0  0  0  0
  -17.6454  -30.6579   24.0573 C   0  0  0  0  0  0
  -25.9033  -34.9496   23.5149 C   0  0  0  0  0  0
  -16.5340  -29.9079   23.6336 C   0  0  0  0  0  0
  -16.7250  -28.6509   23.0324 C   0  0  0  0  0  0
  -26.4433  -31.6614   25.0701 C   0  0  0  0  0  0
  -25.3708  -31.3686   26.1455 C   0  0  0  0  0  0
  -27.0264  -30.3074   24.6038 C   0  0  0  0  0  0
  -27.6026  -32.4328   25.7451 C   0  0  0  0  0  0
  -27.5608  -37.1811   24.8468 C   0  0  0  0  0  0
  -21.4132  -29.3023   22.3739 N   0  0  0  0  0  0
  -26.4304  -37.3820   23.9431 N   0  0  0  0  0  0
  -24.6602  -31.0808   22.0947 N   0  0  0  0  0  0
  -23.4160  -28.8239   23.3075 O   0  0  0  0  0  0
  -28.4750  -26.8146   20.0583 O   0  0  0  0  0  0
  -26.5600  -34.8947   22.4716 O   0  0  0  0  0  0
  -23.5298  -32.1432   23.7471 O   0  0  0  0  0  0
  -26.6908  -19.5522   19.5520 C   0  0  0  0  0  0
  -27.9917  -19.8651   19.1411 C   0  0  0  0  0  0
  -26.4944  -19.0000   20.8213 C   0  0  0  0  0  0
  -29.1101  -19.4991   19.9232 C   0  0  0  0  0  0
  -27.5893  -18.6418   21.6420 C   0  0  0  0  0  0
  -28.9220  -18.7411   21.1267 C   0  0  0  0  0  0
  -26.0757  -17.4065   23.3287 C   0  0  0  0  0  0
  -27.1266  -19.6749   23.8539 C   0  0  0  0  0  0
  -32.5495  -21.2955   20.0373 C   0  0  0  0  0  0
  -29.9462  -23.4240   22.2048 C   0  0  0  0  0  0
  -29.2700  -16.2183   19.5401 C   0  0  0  0  0  0
  -30.4721  -19.9761   19.4150 C   0  0  0  0  0  0
  -30.0639  -25.0827   20.2679 C   0  0  0  0  0  0
  -30.2841  -22.5182   19.8297 C   0  0  0  0  0  0
  -29.9786  -16.4437   21.9602 C   0  0  0  0  0  0
  -28.5509  -25.3976   20.2033 C   0  0  0  0  0  0
  -27.2891  -18.3349   23.1132 C   0  0  0  0  0  0
  -30.1152  -18.0161   21.8103 C   0  0  2  0  0  0
  -31.0183  -21.1932   20.2036 C   0  0  2  0  0  0
  -30.5189  -23.7009   20.8042 C   0  0  2  0  0  0
  -29.8473  -15.5944   20.7384 N   0  0  0  0  0  0
  -30.4533  -18.6988   23.0719 N   0  3  0  0  0  0
  -31.4653  -12.4212   19.1331 H   0  0  0  0  0  0
  -30.3347  -11.3146   19.8632 H   0  0  0  0  0  0
  -29.7303  -11.7170   17.4624 H   0  0  0  0  0  0
  -29.6338  -13.4408   17.7393 H   0  0  0  0  0  0
  -27.8390  -11.2611   18.8593 H   0  0  0  0  0  0
  -27.3515  -12.5718   17.8180 H   0  0  0  0  0  0
  -27.6561  -14.2047   19.5616 H   0  0  0  0  0  0
  -28.7132  -11.9787   21.3846 H   0  0  0  0  0  0
  -28.4775  -13.6399   21.8609 H   0  0  0  0  0  0
  -25.2708   -9.5440   22.5057 H   0  0  0  0  0  0
  -23.9855   -7.4439   22.7505 H   0  0  0  0  0  0
  -21.0840   -8.8830   19.9019 H   0  0  0  0  0  0
  -22.3815  -10.9729   19.6294 H   0  0  0  0  0  0
  -21.1991   -7.6207   23.9821 H   0  0  0  0  0  0
  -21.1502   -6.0616   25.9169 H   0  0  0  0  0  0
  -22.0575   -2.7674   23.2899 H   0  0  0  0  0  0
  -22.3990  -11.9699   22.4392 H   0  0  0  0  0  0
  -21.1316  -13.1534   22.2964 H   0  0  0  0  0  0
  -24.6942  -15.8340   20.5759 H   0  0  0  0  0  0
  -26.3320  -15.6139   20.2076 H   0  0  0  0  0  0
  -26.7073  -32.5558   23.1159 H   0  0  0  0  0  0
  -25.0056  -33.9810   25.0498 H   0  0  0  0  0  0
  -22.6882  -31.3026   21.3973 H   0  0  0  0  0  0
  -23.3798  -35.9602   23.3279 H   0  0  0  0  0  0
  -24.3611  -36.8949   22.2065 H   0  0  0  0  0  0
  -23.7168  -37.6484   23.6659 H   0  0  0  0  0  0
  -26.0225  -31.5975   20.5759 H   0  0  0  0  0  0
  -26.8107  -30.9060   21.9673 H   0  0  0  0  0  0
  -28.1010  -29.1485   21.1423 H   0  0  0  0  0  0
  -26.0927  -25.9522   19.0494 H   0  0  0  0  0  0
  -23.9960  -27.2492   19.0695 H   0  0  0  0  0  0
  -23.6985  -30.5610   19.3931 H   0  0  0  0  0  0
  -22.7342  -29.2034   19.8864 H   0  0  0  0  0  0
  -25.1291  -36.2028   25.0852 H   0  0  0  0  0  0
  -20.9939  -28.3196   24.1459 H   0  0  0  0  0  0
  -20.5647  -26.2253   23.3615 H   0  0  0  0  0  0
  -21.6628  -26.7444   22.1213 H   0  0  0  0  0  0
  -19.6914  -25.6289   21.1235 H   0  0  0  0  0  0
  -19.6725  -27.3207   20.6769 H   0  0  0  0  0  0
  -17.4210  -26.6712   21.3980 H   0  0  0  0  0  0
  -18.0306  -26.0057   22.8970 H   0  0  0  0  0  0
  -19.7920  -30.7250   24.2287 H   0  0  0  0  0  0
  -17.5003  -31.6274   24.5149 H   0  0  0  0  0  0
  -15.5341  -30.2982   23.7655 H   0  0  0  0  0  0
  -15.8650  -28.0838   22.7011 H   0  0  0  0  0  0
  -24.5906  -30.7013   25.7772 H   0  0  0  0  0  0
  -24.8865  -32.2818   26.4924 H   0  0  0  0  0  0
  -25.8058  -30.8841   27.0202 H   0  0  0  0  0  0
  -26.2788  -29.6843   24.1113 H   0  0  0  0  0  0
  -27.4092  -29.7303   25.4463 H   0  0  0  0  0  0
  -27.8594  -30.4432   23.9137 H   0  0  0  0  0  0
  -27.2668  -33.3628   26.2054 H   0  0  0  0  0  0
  -28.3806  -32.6888   25.0242 H   0  0  0  0  0  0
  -28.0728  -31.8441   26.5335 H   0  0  0  0  0  0
  -28.2595  -38.0141   24.7590 H   0  0  0  0  0  0
  -28.1142  -36.2689   24.6204 H   0  0  0  0  0  0
  -27.2355  -37.1335   25.8873 H   0  0  0  0  0  0
  -20.9272  -29.8722   21.6967 H   0  0  0  0  0  0
  -26.0222  -38.2907   24.1455 H   0  0  0  0  0  0
  -25.8398  -19.8021   18.9315 H   0  0  0  0  0  0
  -28.1308  -20.3978   18.2101 H   0  0  0  0  0  0
  -25.4785  -18.8953   21.1645 H   0  0  0  0  0  0
  -26.2123  -16.4551   22.8129 H   0  0  0  0  0  0
  -25.1375  -17.8420   22.9831 H   0  0  0  0  0  0
  -25.9421  -17.1820   24.3873 H   0  0  0  0  0  0
  -27.9967  -20.3155   23.7101 H   0  0  0  0  0  0
  -26.9849  -19.5433   24.9254 H   0  0  0  0  0  0
  -26.2761  -20.2404   23.4744 H   0  0  0  0  0  0
  -33.0439  -20.3728   20.3479 H   0  0  0  0  0  0
  -32.9809  -22.0944   20.6405 H   0  0  0  0  0  0
  -32.8310  -21.4777   18.9990 H   0  0  0  0  0  0
  -30.0756  -24.2823   22.8616 H   0  0  0  0  0  0
  -30.4403  -22.5881   22.6923 H   0  0  0  0  0  0
  -28.8836  -23.1935   22.1581 H   0  0  0  0  0  0
  -28.2395  -16.5300   19.7201 H   0  0  0  0  0  0
  -29.2416  -15.5497   18.6813 H   0  0  0  0  0  0
  -29.8584  -17.0701   19.2097 H   0  0  0  0  0  0
  -30.3846  -20.2535   18.3652 H   0  0  0  0  0  0
  -31.1819  -19.1518   19.4102 H   0  0  0  0  0  0
  -30.5213  -25.8303   20.9171 H   0  0  0  0  0  0
  -30.5034  -25.2614   19.2847 H   0  0  0  0  0  0
  -29.2092  -22.3424   19.7812 H   0  0  0  0  0  0
  -30.5817  -22.8059   18.8186 H   0  0  0  0  0  0
  -29.1192  -16.1984   22.5801 H   0  0  0  0  0  0
  -30.8426  -16.0829   22.5213 H   0  0  0  0  0  0
  -28.0408  -25.1063   21.1233 H   0  0  0  0  0  0
  -28.0825  -24.8747   19.3685 H   0  0  0  0  0  0
  -28.1242  -17.8273   23.5846 H   0  0  0  0  0  0
  -31.0114  -18.1525   21.2158 H   0  0  0  0  0  0
  -30.8534  -20.9835   21.2582 H   0  0  0  0  0  0
  -31.5964  -23.8088   20.9232 H   0  0  0  0  0  0
  -29.7957  -18.5060   23.8066 H   0  0  0  0  0  0
  -30.4505  -19.6916   22.9183 H   0  0  0  0  0  0
  -31.3740  -18.4410   23.3820 H   0  0  0  0  0  0
  1 25  1  0  0  0
  1 30  2  0  0  0
  1 91  1  0  0  0
  2  3  1  0  0  0
  2 25  1  0  0  0
  2 93  1  0  0  0
  2 94  1  0  0  0
  3  4  1  0  0  0
  3 95  1  0  0  0
  3 96  1  0  0  0
  4  5  1  0  0  0
  4 97  1  0  0  0
  4 98  1  0  0  0
  5  6  1  0  0  0
  5 26  1  0  0  0
  5 99  1  0  0  0
  6 25  1  0  0  0
  6100  1  0  0  0
  6101  1  0  0  0
  7  8  2  0  0  0
  7 26  1  0  0  0
  7 29  1  0  0  0
  8  9  1  0  0  0
  8 22  1  0  0  0
  9 10  1  0  0  0
  9 27  2  0  0  0
 10 11  2  0  0  0
 10 15  1  0  0  0
 11 12  1  0  0  0
 11102  1  0  0  0
 12 13  2  0  0  0
 12103  1  0  0  0
 13 14  1  0  0  0
 13 31  1  0  0  0
 14 15  2  0  0  0
 14104  1  0  0  0
 15105  1  0  0  0
 16 17  2  0  0  0
 16 21  1  0  0  0
 16 31  1  0  0  0
 17 18  1  0  0  0
 17106  1  0  0  0
 18 19  2  0  0  0
 18107  1  0  0  0
 19 20  1  0  0  0
 19 24  1  0  0  0
 20 21  2  0  0  0
 20108  1  0  0  0
 21 23  1  0  0  0
 22 28  1  0  0  0
 22 32  2  0  0  0
 26 27  1  0  0  0
 28109  1  0  0  0
 28110  1  0  0  0
 29111  1  0  0  0
 29112  1  0  0  0
 33 34  1  0  0  0
 33 66  1  0  0  0
 33 70  2  0  0  0
 34 36  1  0  0  0
 34 59  1  0  0  0
 34113  1  0  0  0
 35 44  2  0  0  0
 35 45  1  0  0  0
 35 68  1  0  0  0
 36 56  1  0  0  0
 36114  1  0  0  0
 37 39  1  0  0  0
 37 47  1  0  0  0
 37 66  1  0  0  0
 37115  1  0  0  0
 38 43  2  0  0  0
 38 46  1  0  0  0
 38 47  1  0  0  0
 39 64  1  0  0  0
 39 67  2  0  0  0
 40 52  1  0  0  0
 40 53  2  0  0  0
 40 58  1  0  0  0
 41116  1  0  0  0
 41117  1  0  0  0
 41118  1  0  0  0
 41 48  1  0  0  0
 42 43  1  0  0  0
 42 66  1  0  0  0
 42119  1  0  0  0
 42120  1  0  0  0
 43 44  1  0  0  0
 44121  1  0  0  0
 45 46  2  0  0  0
 45122  1  0  0  0
 46123  1  0  0  0
 47124  1  0  0  0
 47125  1  0  0  0
 48 56  1  0  0  0
 48 65  1  0  0  0
 48126  1  0  0  0
 49 50  1  0  0  0
 49 53  1  0  0  0
 49 64  1  0  0  0
 49127  1  0  0  0
 50 51  1  0  0  0
 50128  1  0  0  0
 50129  1  0  0  0
 51 52  1  0  0  0
 51130  1  0  0  0
 51131  1  0  0  0
 52132  1  0  0  0
 52133  1  0  0  0
 53 54  1  0  0  0
 54 55  2  0  0  0
 54134  1  0  0  0
 55 57  1  0  0  0
 55135  1  0  0  0
 56 69  2  0  0  0
 57 58  2  0  0  0
 57136  1  0  0  0
 58137  1  0  0  0
 59 60  1  0  0  0
 59 61  1  0  0  0
 59 62  1  0  0  0
 60138  1  0  0  0
 60139  1  0  0  0
 60140  1  0  0  0
 61141  1  0  0  0
 61142  1  0  0  0
 61143  1  0  0  0
 62144  1  0  0  0
 62145  1  0  0  0
 62146  1  0  0  0
 63 65  1  0  0  0
 63147  1  0  0  0
 63148  1  0  0  0
 63149  1  0  0  0
 64150  1  0  0  0
 65151  1  0  0  0
 68 86  1  0  0  0
 71 72  2  0  0  0
 71 73  1  0  0  0
 71152  1  0  0  0
 72 74  1  0  0  0
 72153  1  0  0  0
 73 75  2  0  0  0
 73154  1  0  0  0
 74 76  2  0  0  0
 74 82  1  0  0  0
 75 76  1  0  0  0
 75 87  1  0  0  0
 76 88  1  0  0  0
 77155  1  0  0  0
 77156  1  0  0  0
 77157  1  0  0  0
 77 87  1  0  0  0
 78 87  1  0  0  0
 78158  1  0  0  0
 78159  1  0  0  0
 78160  1  0  0  0
 79161  1  0  0  0
 79162  1  0  0  0
 79163  1  0  0  0
 79 89  1  0  0  0
 80164  1  0  0  0
 80165  1  0  0  0
 80166  1  0  0  0
 80 90  1  0  0  0
 81 91  1  0  0  0
 81167  1  0  0  0
 81168  1  0  0  0
 81169  1  0  0  0
 82 89  1  0  0  0
 82170  1  0  0  0
 82171  1  0  0  0
 83 86  1  0  0  0
 83 90  1  0  0  0
 83172  1  0  0  0
 83173  1  0  0  0
 84 89  1  0  0  0
 84 90  1  0  0  0
 84174  1  0  0  0
 84175  1  0  0  0
 85 88  1  0  0  0
 85 91  1  0  0  0
 85176  1  0  0  0
 85177  1  0  0  0
 86178  1  0  0  0
 86179  1  0  0  0
 87180  1  0  0  0
 88 92  1  0  0  0
 88181  1  0  0  0
 89182  1  0  0  0
 90183  1  0  0  0
 92184  1  0  0  0
 92185  1  0  0  0
 92186  1  0  0  0
M  CHG  1  92   1
M  ISO  4   1 100  68 101  86 101  91 100
M  END
> <chiral flag>
0

> <version>
0

> <s_m_source_file>
/data/baiqing/PycharmProjects/Reinvent-master-3.2/result/LINK_invent/BTK/process_docking_weight1_custom_sum_contain_oxygen_bond_distance_aromatic_linkinvent_7_9_3/rearranged_h_0106.sdf

> <i_m_source_file_index>
87

> <r_mmod_Potential_Energy-OPLS-2005>
-64.9202728271484

> <r_mmod_Stretch_Energy-OPLS-2005>
50.9054565429688

> <r_mmod_Bend_Energy-OPLS-2005>
133.136840820312

> <r_mmod_Torsional_Energy-OPLS-2005>
355.768035888672

> <r_mmod_Improper_Torsional_Energy-OPLS-2005>
9.62158012390137

> <r_mmod_Van_der_Waal_Energy-OPLS-2005>
146.053924560547

> <r_mmod_Electrostatic_Energy-OPLS-2005>
-328.0087890625

> <r_mmod_Solvation_Energy-OPLS-2005>
-451.478485107422

> <b_mmod_Minimization_Converged-OPLS-2005>
0

> <r_mmod_RMS_Derivative-OPLS-2005>
6.16051626205444

$$$$
88
                    3D
 Structure written by MMmdl.
158166  0  0  1  0            999 V2000
  -30.2811  -15.6708   20.2869 C   0  0  0  0  0  0
  -30.4132  -13.0889   19.5629 C   0  0  0  0  0  0
  -29.5531  -12.6577   18.3371 C   0  0  0  0  0  0
  -28.1329  -12.2835   18.7794 C   0  0  0  0  0  0
  -27.5917  -13.3047   19.8042 C   0  0  2  0  0  0
  -28.5928  -13.6720   20.9293 C   0  0  0  0  0  0
  -25.2308  -13.8253   20.5671 C   0  0  0  0  0  0
  -24.1716  -13.0434   20.9250 C   0  0  0  0  0  0
  -24.6398  -11.6944   20.8728 C   0  0  0  0  0  0
  -23.9082  -10.4300   21.0382 C   0  0  0  0  0  0
  -24.3640   -9.4219   21.9156 C   0  0  0  0  0  0
  -23.6323   -8.2247   22.0733 C   0  0  0  0  0  0
  -22.4308   -8.0257   21.3524 C   0  0  0  0  0  0
  -21.9918   -9.0247   20.4655 C   0  0  0  0  0  0
  -22.7235  -10.2136   20.3059 C   0  0  0  0  0  0
  -21.6856   -6.0739   22.5280 C   0  0  0  0  0  0
  -21.4012   -6.5628   23.8211 C   0  0  0  0  0  0
  -21.3671   -5.6783   24.9167 C   0  0  0  0  0  0
  -21.6060   -4.3049   24.7230 C   0  0  0  0  0  0
  -21.8822   -3.8144   23.4353 C   0  0  0  0  0  0
  -21.9182   -4.6966   22.3417 C   0  0  0  0  0  0
  -22.7756  -13.5202   21.1898 C   0  0  0  0  0  0
  -22.1681   -4.2152   21.1004 F   0  0  0  0  0  0
  -21.5623   -3.4538   25.7739 F   0  0  0  0  0  0
  -29.7769  -14.2887   20.2862 N   0  0  0  0  0  0
  -26.2742  -12.9570   20.3153 N   0  0  0  0  0  0
  -25.9347  -11.6654   20.5686 N   0  0  0  0  0  0
  -22.0449  -12.8210   22.0506 N   0  0  0  0  0  0
  -25.3948  -15.1959   20.3971 N   0  0  0  0  0  0
  -31.5069  -15.6013   20.0649 O   0  0  0  0  0  0
  -21.6644   -6.8870   21.4251 O   0  0  0  0  0  0
  -22.3442  -14.5503   20.6711 O   0  0  0  0  0  0
  -24.6883  -31.7968   23.1477 C   0  0  0  0  0  0
  -25.9460  -32.4437   23.8061 C   0  0  1  0  0  0
  -27.2314  -26.6708   20.2290 C   0  0  0  0  0  0
  -25.6032  -33.8271   24.1980 N   0  0  0  0  0  0
  -23.5181  -30.3974   21.4983 C   0  0  2  0  0  0
  -24.9789  -28.7279   20.1174 C   0  0  0  0  0  0
  -22.7800  -29.4304   22.4649 C   0  0  0  0  0  0
  -18.0353  -28.1415   22.8447 C   0  0  0  0  0  0
  -24.1508  -36.7140   23.2659 C   0  0  0  0  0  0
  -26.1001  -30.5191   21.4176 C   0  0  0  0  0  0
  -26.1647  -29.0786   20.7728 C   0  0  0  0  0  0
  -27.2766  -28.0795   20.7914 C   0  0  0  0  0  0
  -26.0120  -26.5351   19.5177 C   0  0  0  0  0  0
  -24.9414  -27.4806   19.4692 C   0  0  0  0  0  0
  -23.7784  -29.6891   20.1353 C   0  0  0  0  0  0
  -25.4154  -36.2884   24.0288 C   0  0  1  0  0  0
  -20.5993  -28.3813   23.1117 C   0  0  2  0  0  0
  -20.6806  -26.9452   22.5415 C   0  0  0  0  0  0
  -19.5812  -26.6371   21.5215 C   0  0  0  0  0  0
  -18.1982  -26.7954   22.1588 C   0  0  0  0  0  0
  -19.1617  -28.8939   23.2768 C   0  0  0  0  0  0
  -18.9510  -30.1511   23.8840 C   0  0  0  0  0  0
  -17.6494  -30.6597   24.0559 C   0  0  0  0  0  0
  -25.9129  -34.9268   23.4967 C   0  0  0  0  0  0
  -16.5392  -29.9075   23.6320 C   0  0  0  0  0  0
  -16.7330  -28.6487   23.0357 C   0  0  0  0  0  0
  -26.4645  -31.6462   25.0673 C   0  0  0  0  0  0
  -25.3716  -31.3764   26.1286 C   0  0  0  0  0  0
  -27.0561  -30.2793   24.6569 C   0  0  0  0  0  0
  -27.6126  -32.4292   25.7451 C   0  0  0  0  0  0
  -27.5589  -37.1722   24.8455 C   0  0  0  0  0  0
  -21.4440  -29.3053   22.3414 N   0  0  0  0  0  0
  -26.4285  -37.3649   23.9403 N   0  0  0  0  0  0
  -24.7918  -30.9398   22.0724 N   0  0  0  0  0  0
  -23.4228  -28.7893   23.3010 O   0  0  0  0  0  0
  -28.1939  -25.4460   20.3191 O   0  0  0  0  0  0
  -26.5763  -34.8856   22.4579 O   0  0  0  0  0  0
  -23.5888  -32.1062   23.6399 O   0  0  0  0  0  0
  -29.7695  -18.6453   18.5799 C   0  0  0  0  0  0
  -27.5808  -20.1728   19.3749 C   0  0  0  0  0  0
  -28.7052  -20.1449   20.2073 C   0  0  0  0  0  0
  -29.5265  -18.7186   19.9716 C   0  0  0  0  0  0
  -28.8084  -19.1653   17.6845 C   0  0  0  0  0  0
  -27.8068  -16.5426   16.8317 C   0  0  0  0  0  0
  -26.5996  -18.1186   15.2574 C   0  0  0  0  0  0
  -28.9711  -21.9800   20.4490 C   0  0  0  0  0  0
  -28.8594  -18.8501   16.1958 C   0  0  0  0  0  0
  -28.0304  -23.6818   20.1670 C   0  0  0  0  0  0
  -27.9739  -17.6485   15.7634 C   0  0  0  0  0  0
  -27.6911  -19.8068   18.0904 N   0  0  0  0  0  0
  -29.5171  -17.0426   20.4253 N   0  0  0  0  0  0
  -31.4202  -13.3256   19.2174 H   0  0  0  0  0  0
  -30.5487  -12.2505   20.2489 H   0  0  0  0  0  0
  -30.0225  -11.8190   17.8186 H   0  0  0  0  0  0
  -29.5104  -13.4727   17.6139 H   0  0  0  0  0  0
  -28.1766  -11.2968   19.2434 H   0  0  0  0  0  0
  -27.4664  -12.1912   17.9203 H   0  0  0  0  0  0
  -27.4479  -14.2118   19.2147 H   0  0  0  0  0  0
  -28.8424  -12.8131   21.5545 H   0  0  0  0  0  0
  -28.1396  -14.4110   21.5928 H   0  0  0  0  0  0
  -25.2782   -9.5692   22.4715 H   0  0  0  0  0  0
  -24.0032   -7.4646   22.7451 H   0  0  0  0  0  0
  -21.0823   -8.8776   19.8996 H   0  0  0  0  0  0
  -22.3663  -10.9676   19.6191 H   0  0  0  0  0  0
  -21.2026   -7.6132   23.9720 H   0  0  0  0  0  0
  -21.1485   -6.0515   25.9075 H   0  0  0  0  0  0
  -22.0594   -2.7601   23.2849 H   0  0  0  0  0  0
  -22.4113  -11.9919   22.4943 H   0  0  0  0  0  0
  -21.1093  -13.1275   22.2731 H   0  0  0  0  0  0
  -24.5905  -15.8120   20.3898 H   0  0  0  0  0  0
  -26.2066  -15.5978   19.9467 H   0  0  0  0  0  0
  -26.7541  -32.4911   23.0765 H   0  0  0  0  0  0
  -25.0152  -33.9317   25.0112 H   0  0  0  0  0  0
  -22.8453  -31.2332   21.2994 H   0  0  0  0  0  0
  -23.3798  -35.9443   23.3240 H   0  0  0  0  0  0
  -24.3592  -36.8886   22.2098 H   0  0  0  0  0  0
  -23.7244  -37.6279   23.6789 H   0  0  0  0  0  0
  -26.3068  -31.2359   20.6220 H   0  0  0  0  0  0
  -26.9507  -30.5935   22.0830 H   0  0  0  0  0  0
  -28.1671  -28.3553   21.3367 H   0  0  0  0  0  0
  -25.8429  -25.5923   19.0165 H   0  0  0  0  0  0
  -24.0475  -27.2010   18.9305 H   0  0  0  0  0  0
  -23.9632  -30.4460   19.3732 H   0  0  0  0  0  0
  -22.8834  -29.1599   19.8034 H   0  0  0  0  0  0
  -25.1361  -36.1652   25.0782 H   0  0  0  0  0  0
  -21.0101  -28.3458   24.1228 H   0  0  0  0  0  0
  -20.5641  -26.2451   23.3703 H   0  0  0  0  0  0
  -21.6671  -26.7354   22.1280 H   0  0  0  0  0  0
  -19.6979  -25.6252   21.1310 H   0  0  0  0  0  0
  -19.6764  -27.3110   20.6698 H   0  0  0  0  0  0
  -17.4269  -26.6726   21.3970 H   0  0  0  0  0  0
  -18.0331  -26.0091   22.8984 H   0  0  0  0  0  0
  -19.7987  -30.7334   24.2204 H   0  0  0  0  0  0
  -17.5041  -31.6263   24.5185 H   0  0  0  0  0  0
  -15.5389  -30.2969   23.7668 H   0  0  0  0  0  0
  -15.8727  -28.0787   22.7114 H   0  0  0  0  0  0
  -24.6068  -30.6887   25.7642 H   0  0  0  0  0  0
  -24.8692  -32.2934   26.4366 H   0  0  0  0  0  0
  -25.7948  -30.9254   27.0276 H   0  0  0  0  0  0
  -26.3282  -29.6395   24.1578 H   0  0  0  0  0  0
  -27.3993  -29.7250   25.5320 H   0  0  0  0  0  0
  -27.9259  -30.3892   24.0096 H   0  0  0  0  0  0
  -27.2761  -33.3727   26.1749 H   0  0  0  0  0  0
  -28.4061  -32.6616   25.0335 H   0  0  0  0  0  0
  -28.0647  -31.8586   26.5572 H   0  0  0  0  0  0
  -28.2535  -38.0085   24.7520 H   0  0  0  0  0  0
  -28.1162  -36.2606   24.6233 H   0  0  0  0  0  0
  -27.2321  -37.1282   25.8864 H   0  0  0  0  0  0
  -20.9746  -29.8722   21.6472 H   0  0  0  0  0  0
  -26.0110  -38.2694   24.1424 H   0  0  0  0  0  0
  -30.4377  -17.8995   18.1671 H   0  0  0  0  0  0
  -26.8451  -20.9568   19.4947 H   0  0  0  0  0  0
  -28.7497  -16.0326   17.0230 H   0  0  0  0  0  0
  -27.0854  -15.7903   16.5138 H   0  0  0  0  0  0
  -27.4441  -16.9338   17.7819 H   0  0  0  0  0  0
  -25.9935  -17.2739   14.9279 H   0  0  0  0  0  0
  -26.7086  -18.7903   14.4046 H   0  0  0  0  0  0
  -26.0430  -18.6474   16.0329 H   0  0  0  0  0  0
  -29.9305  -22.1291   19.9532 H   0  0  0  0  0  0
  -29.2170  -22.0133   21.5109 H   0  0  0  0  0  0
  -29.8981  -18.6531   15.9230 H   0  0  0  0  0  0
  -28.5839  -19.7402   15.6279 H   0  0  0  0  0  0
  -27.1055  -23.5235   20.7196 H   0  0  0  0  0  0
  -27.7276  -23.6081   19.1210 H   0  0  0  0  0  0
  -28.4660  -17.1991   14.8985 H   0  0  0  0  0  0
  -28.6231  -16.8176   20.8317 H   0  0  0  0  0  0
  1 25  1  0  0  0
  1 30  2  0  0  0
  1 83  1  0  0  0
  2  3  1  0  0  0
  2 25  1  0  0  0
  2 84  1  0  0  0
  2 85  1  0  0  0
  3  4  1  0  0  0
  3 86  1  0  0  0
  3 87  1  0  0  0
  4  5  1  0  0  0
  4 88  1  0  0  0
  4 89  1  0  0  0
  5  6  1  0  0  0
  5 26  1  0  0  0
  5 90  1  0  0  0
  6 25  1  0  0  0
  6 91  1  0  0  0
  6 92  1  0  0  0
  7  8  2  0  0  0
  7 26  1  0  0  0
  7 29  1  0  0  0
  8  9  1  0  0  0
  8 22  1  0  0  0
  9 10  1  0  0  0
  9 27  2  0  0  0
 10 11  2  0  0  0
 10 15  1  0  0  0
 11 12  1  0  0  0
 11 93  1  0  0  0
 12 13  2  0  0  0
 12 94  1  0  0  0
 13 14  1  0  0  0
 13 31  1  0  0  0
 14 15  2  0  0  0
 14 95  1  0  0  0
 15 96  1  0  0  0
 16 17  2  0  0  0
 16 21  1  0  0  0
 16 31  1  0  0  0
 17 18  1  0  0  0
 17 97  1  0  0  0
 18 19  2  0  0  0
 18 98  1  0  0  0
 19 20  1  0  0  0
 19 24  1  0  0  0
 20 21  2  0  0  0
 20 99  1  0  0  0
 21 23  1  0  0  0
 22 28  1  0  0  0
 22 32  2  0  0  0
 26 27  1  0  0  0
 28100  1  0  0  0
 28101  1  0  0  0
 29102  1  0  0  0
 29103  1  0  0  0
 33 34  1  0  0  0
 33 66  1  0  0  0
 33 70  2  0  0  0
 34 36  1  0  0  0
 34 59  1  0  0  0
 34104  1  0  0  0
 35 44  2  0  0  0
 35 45  1  0  0  0
 35 68  1  0  0  0
 36 56  1  0  0  0
 36105  1  0  0  0
 37 39  1  0  0  0
 37 47  1  0  0  0
 37 66  1  0  0  0
 37106  1  0  0  0
 38 43  2  0  0  0
 38 46  1  0  0  0
 38 47  1  0  0  0
 39 64  1  0  0  0
 39 67  2  0  0  0
 40 52  1  0  0  0
 40 53  2  0  0  0
 40 58  1  0  0  0
 41107  1  0  0  0
 41108  1  0  0  0
 41109  1  0  0  0
 41 48  1  0  0  0
 42 43  1  0  0  0
 42 66  1  0  0  0
 42110  1  0  0  0
 42111  1  0  0  0
 43 44  1  0  0  0
 44112  1  0  0  0
 45 46  2  0  0  0
 45113  1  0  0  0
 46114  1  0  0  0
 47115  1  0  0  0
 47116  1  0  0  0
 48 56  1  0  0  0
 48 65  1  0  0  0
 48117  1  0  0  0
 49 50  1  0  0  0
 49 53  1  0  0  0
 49 64  1  0  0  0
 49118  1  0  0  0
 50 51  1  0  0  0
 50119  1  0  0  0
 50120  1  0  0  0
 51 52  1  0  0  0
 51121  1  0  0  0
 51122  1  0  0  0
 52123  1  0  0  0
 52124  1  0  0  0
 53 54  1  0  0  0
 54 55  2  0  0  0
 54125  1  0  0  0
 55 57  1  0  0  0
 55126  1  0  0  0
 56 69  2  0  0  0
 57 58  2  0  0  0
 57127  1  0  0  0
 58128  1  0  0  0
 59 60  1  0  0  0
 59 61  1  0  0  0
 59 62  1  0  0  0
 60129  1  0  0  0
 60130  1  0  0  0
 60131  1  0  0  0
 61132  1  0  0  0
 61133  1  0  0  0
 61134  1  0  0  0
 62135  1  0  0  0
 62136  1  0  0  0
 62137  1  0  0  0
 63 65  1  0  0  0
 63138  1  0  0  0
 63139  1  0  0  0
 63140  1  0  0  0
 64141  1  0  0  0
 65142  1  0  0  0
 68 80  1  0  0  0
 71 74  2  0  0  0
 71 75  1  0  0  0
 71143  1  0  0  0
 72 73  2  0  0  0
 72 82  1  0  0  0
 72144  1  0  0  0
 73 74  1  0  0  0
 73 78  1  0  0  0
 74 83  1  0  0  0
 75 79  1  0  0  0
 75 82  2  0  0  0
 76145  1  0  0  0
 76146  1  0  0  0
 76147  1  0  0  0
 76 81  1  0  0  0
 77 81  1  0  0  0
 77148  1  0  0  0
 77149  1  0  0  0
 77150  1  0  0  0
 78 80  1  0  0  0
 78151  1  0  0  0
 78152  1  0  0  0
 79 81  1  0  0  0
 79153  1  0  0  0
 79154  1  0  0  0
 80155  1  0  0  0
 80156  1  0  0  0
 81157  1  0  0  0
 83158  1  0  0  0
M  ISO  4   1 100  68 101  80 101  83 100
M  END
> <chiral flag>
0

> <version>
0

> <s_m_source_file>
/data/baiqing/PycharmProjects/Reinvent-master-3.2/result/LINK_invent/BTK/process_docking_weight1_custom_sum_contain_oxygen_bond_distance_aromatic_linkinvent_7_9_3/rearranged_h_0106.sdf

> <i_m_source_file_index>
88

> <r_mmod_Potential_Energy-OPLS-2005>
2775.24462890625

> <r_mmod_Stretch_Energy-OPLS-2005>
1205.40283203125

> <r_mmod_Bend_Energy-OPLS-2005>
689.159729003906

> <r_mmod_Torsional_Energy-OPLS-2005>
428.966705322266

> <r_mmod_Improper_Torsional_Energy-OPLS-2005>
38.3668785095215

> <r_mmod_Van_der_Waal_Energy-OPLS-2005>
123.307060241699

> <r_mmod_Electrostatic_Energy-OPLS-2005>
-455.327087402344

> <r_mmod_Solvation_Energy-OPLS-2005>
-218.266494750977

> <b_mmod_Minimization_Converged-OPLS-2005>
0

> <r_mmod_RMS_Derivative-OPLS-2005>
4.32994794845581

$$$$
89
                    3D
 Structure written by MMmdl.
152160  0  0  1  0            999 V2000
  -30.5457  -14.9638   20.4234 C   0  0  0  0  0  0
  -30.4378  -12.5993   19.4987 C   0  0  0  0  0  0
  -29.5207  -12.5291   18.2566 C   0  0  0  0  0  0
  -28.0546  -12.3124   18.6759 C   0  0  0  0  0  0
  -27.6274  -13.2496   19.8359 C   0  0  2  0  0  0
  -28.6705  -13.2911   20.9728 C   0  0  0  0  0  0
  -25.2452  -13.8217   20.5710 C   0  0  0  0  0  0
  -24.1772  -13.0438   20.9232 C   0  0  0  0  0  0
  -24.6389  -11.6924   20.8754 C   0  0  0  0  0  0
  -23.9076  -10.4293   21.0402 C   0  0  0  0  0  0
  -24.3625   -9.4207   21.9180 C   0  0  0  0  0  0
  -23.6299   -8.2242   22.0749 C   0  0  0  0  0  0
  -22.4281   -8.0277   21.3541 C   0  0  0  0  0  0
  -21.9918   -9.0252   20.4644 C   0  0  0  0  0  0
  -22.7247  -10.2131   20.3053 C   0  0  0  0  0  0
  -21.6856   -6.0732   22.5277 C   0  0  0  0  0  0
  -21.4017   -6.5637   23.8209 C   0  0  0  0  0  0
  -21.3662   -5.6789   24.9172 C   0  0  0  0  0  0
  -21.6045   -4.3052   24.7223 C   0  0  0  0  0  0
  -21.8821   -3.8143   23.4345 C   0  0  0  0  0  0
  -21.9194   -4.6960   22.3401 C   0  0  0  0  0  0
  -22.7791  -13.5207   21.1883 C   0  0  0  0  0  0
  -22.1661   -4.2144   21.0979 F   0  0  0  0  0  0
  -21.5630   -3.4538   25.7737 F   0  0  0  0  0  0
  -29.9428  -13.7064   20.3687 N   0  0  0  0  0  0
  -26.2875  -12.9451   20.3237 N   0  0  0  0  0  0
  -25.9323  -11.6580   20.5739 N   0  0  0  0  0  0
  -22.0441  -12.8196   22.0440 N   0  0  0  0  0  0
  -25.4106  -15.1946   20.4123 N   0  0  0  0  0  0
  -31.7469  -15.0056   20.1432 O   0  0  0  0  0  0
  -21.6644   -6.8875   21.4238 O   0  0  0  0  0  0
  -22.3473  -14.5505   20.6719 O   0  0  0  0  0  0
  -24.6452  -31.8422   23.1867 C   0  0  0  0  0  0
  -25.9216  -32.4683   23.8265 C   0  0  1  0  0  0
  -27.2154  -27.1165   20.1541 C   0  0  0  0  0  0
  -25.5955  -33.8490   24.2178 N   0  0  0  0  0  0
  -23.4498  -30.4611   21.5328 C   0  0  2  0  0  0
  -24.8992  -28.8845   20.1092 C   0  0  0  0  0  0
  -22.7577  -29.4538   22.4854 C   0  0  0  0  0  0
  -18.0306  -28.1396   22.8476 C   0  0  0  0  0  0
  -24.1494  -36.7252   23.2644 C   0  0  0  0  0  0
  -26.0070  -30.7093   21.3884 C   0  0  0  0  0  0
  -26.0775  -29.3190   20.7294 C   0  0  0  0  0  0
  -27.2363  -28.4519   20.7334 C   0  0  0  0  0  0
  -26.0113  -26.7891   19.4924 C   0  0  0  0  0  0
  -24.8804  -27.6340   19.4741 C   0  0  0  0  0  0
  -23.6768  -29.7893   20.1525 C   0  0  0  0  0  0
  -25.4127  -36.3027   24.0314 C   0  0  1  0  0  0
  -20.5920  -28.3724   23.1231 C   0  0  2  0  0  0
  -20.6789  -26.9426   22.5404 C   0  0  0  0  0  0
  -19.5763  -26.6379   21.5213 C   0  0  0  0  0  0
  -18.1945  -26.7933   22.1624 C   0  0  0  0  0  0
  -19.1563  -28.8879   23.2843 C   0  0  0  0  0  0
  -18.9479  -30.1473   23.8871 C   0  0  0  0  0  0
  -17.6474  -30.6592   24.0557 C   0  0  0  0  0  0
  -25.9078  -34.9401   23.5058 C   0  0  0  0  0  0
  -16.5365  -29.9083   23.6336 C   0  0  0  0  0  0
  -16.7289  -28.6501   23.0357 C   0  0  0  0  0  0
  -26.4529  -31.6560   25.0716 C   0  0  0  0  0  0
  -25.3706  -31.3754   26.1407 C   0  0  0  0  0  0
  -27.0397  -30.2952   24.6315 C   0  0  0  0  0  0
  -27.6055  -32.4330   25.7502 C   0  0  0  0  0  0
  -27.5577  -37.1783   24.8465 C   0  0  0  0  0  0
  -21.4268  -29.3047   22.3601 N   0  0  0  0  0  0
  -26.4288  -37.3742   23.9407 N   0  0  0  0  0  0
  -24.7207  -31.0261   22.0908 N   0  0  0  0  0  0
  -23.4209  -28.8091   23.3017 O   0  0  0  0  0  0
  -28.2596  -26.1166   20.2327 O   0  0  0  0  0  0
  -26.5669  -34.8903   22.4640 O   0  0  0  0  0  0
  -23.5566  -32.1308   23.7073 O   0  0  0  0  0  0
  -29.1800  -18.8177   20.2989 C   0  0  0  0  0  0
  -30.7211  -20.4588   21.1229 C   0  0  0  0  0  0
  -29.4757  -20.2646   20.5118 C   0  0  0  0  0  0
  -30.0633  -17.6780   20.6860 C   0  0  0  0  0  0
  -31.2373  -18.1494   21.3419 C   0  0  0  0  0  0
  -32.2480  -17.2388   22.0155 C   0  0  0  0  0  0
  -28.5623  -21.6047   20.1500 C   0  0  0  0  0  0
  -28.9580  -23.2419   20.4062 C   0  0  0  0  0  0
  -27.9759  -24.5848   20.0544 C   0  0  0  0  0  0
  -31.5431  -19.4602   21.5169 N   0  0  0  0  0  0
  -29.7683  -16.1609   20.5465 N   0  0  0  0  0  0
  -31.4716  -12.7536   19.1852 H   0  0  0  0  0  0
  -30.4311  -11.6520   20.0402 H   0  0  0  0  0  0
  -29.8437  -11.7268   17.5918 H   0  0  0  0  0  0
  -29.6059  -13.4548   17.6852 H   0  0  0  0  0  0
  -27.9541  -11.2722   18.9883 H   0  0  0  0  0  0
  -27.3906  -12.4368   17.8194 H   0  0  0  0  0  0
  -27.5861  -14.2482   19.4000 H   0  0  0  0  0  0
  -28.7627  -12.3192   21.4602 H   0  0  0  0  0  0
  -28.3677  -13.9996   21.7455 H   0  0  0  0  0  0
  -25.2767   -9.5685   22.4758 H   0  0  0  0  0  0
  -24.0006   -7.4636   22.7472 H   0  0  0  0  0  0
  -21.0845   -8.8771   19.8955 H   0  0  0  0  0  0
  -22.3697  -10.9670   19.6167 H   0  0  0  0  0  0
  -21.2010   -7.6144   23.9712 H   0  0  0  0  0  0
  -21.1483   -6.0518   25.9074 H   0  0  0  0  0  0
  -22.0599   -2.7605   23.2846 H   0  0  0  0  0  0
  -22.4065  -11.9871   22.4846 H   0  0  0  0  0  0
  -21.1054  -13.1208   22.2637 H   0  0  0  0  0  0
  -24.6381  -15.8429   20.5207 H   0  0  0  0  0  0
  -26.2470  -15.6363   20.0550 H   0  0  0  0  0  0
  -26.7281  -32.5282   23.0990 H   0  0  0  0  0  0
  -25.0065  -33.9601   25.0301 H   0  0  0  0  0  0
  -22.7533  -31.2877   21.3774 H   0  0  0  0  0  0
  -23.3761  -35.9578   23.3291 H   0  0  0  0  0  0
  -24.3577  -36.8900   22.2061 H   0  0  0  0  0  0
  -23.7242  -37.6441   23.6692 H   0  0  0  0  0  0
  -26.1659  -31.4628   20.6160 H   0  0  0  0  0  0
  -26.8759  -30.7590   22.0328 H   0  0  0  0  0  0
  -28.1324  -28.7788   21.2422 H   0  0  0  0  0  0
  -25.9083  -25.8327   19.0025 H   0  0  0  0  0  0
  -23.9818  -27.2966   18.9760 H   0  0  0  0  0  0
  -23.8146  -30.5634   19.3967 H   0  0  0  0  0  0
  -22.7907  -29.2328   19.8418 H   0  0  0  0  0  0
  -25.1316  -36.1854   25.0806 H   0  0  0  0  0  0
  -21.0008  -28.3317   24.1353 H   0  0  0  0  0  0
  -20.5683  -26.2340   23.3626 H   0  0  0  0  0  0
  -21.6655  -26.7432   22.1202 H   0  0  0  0  0  0
  -19.6926  -25.6284   21.1258 H   0  0  0  0  0  0
  -19.6699  -27.3175   20.6731 H   0  0  0  0  0  0
  -17.4214  -26.6674   21.4027 H   0  0  0  0  0  0
  -18.0345  -26.0080   22.9026 H   0  0  0  0  0  0
  -19.7954  -30.7296   24.2229 H   0  0  0  0  0  0
  -17.5028  -31.6270   24.5162 H   0  0  0  0  0  0
  -15.5364  -30.2977   23.7676 H   0  0  0  0  0  0
  -15.8688  -28.0811   22.7089 H   0  0  0  0  0  0
  -24.5889  -30.7102   25.7723 H   0  0  0  0  0  0
  -24.8893  -32.2936   26.4782 H   0  0  0  0  0  0
  -25.7983  -30.8955   27.0220 H   0  0  0  0  0  0
  -26.3021  -29.6666   24.1314 H   0  0  0  0  0  0
  -27.3990  -29.7264   25.4902 H   0  0  0  0  0  0
  -27.8939  -30.4181   23.9652 H   0  0  0  0  0  0
  -27.2646  -33.3650   26.2025 H   0  0  0  0  0  0
  -28.3895  -32.6862   25.0349 H   0  0  0  0  0  0
  -28.0695  -31.8493   26.5463 H   0  0  0  0  0  0
  -28.2586  -38.0087   24.7512 H   0  0  0  0  0  0
  -28.1080  -36.2616   24.6292 H   0  0  0  0  0  0
  -27.2292  -37.1430   25.8867 H   0  0  0  0  0  0
  -20.9484  -29.8753   21.6770 H   0  0  0  0  0  0
  -26.0153  -38.2811   24.1407 H   0  0  0  0  0  0
  -28.2371  -18.5748   19.8307 H   0  0  0  0  0  0
  -31.0712  -21.4588   21.3329 H   0  0  0  0  0  0
  -31.7627  -16.3950   22.5039 H   0  0  0  0  0  0
  -32.8014  -17.7684   22.7916 H   0  0  0  0  0  0
  -32.9773  -16.8751   21.2929 H   0  0  0  0  0  0
  -27.6110  -21.4401   20.6572 H   0  0  0  0  0  0
  -28.3226  -21.5087   19.0907 H   0  0  0  0  0  0
  -29.8976  -23.4126   19.8809 H   0  0  0  0  0  0
  -29.2133  -23.3316   21.4622 H   0  0  0  0  0  0
  -27.0471  -24.4042   20.5967 H   0  0  0  0  0  0
  -27.7120  -24.4708   19.0029 H   0  0  0  0  0  0
  -28.7820  -15.9489   20.5393 H   0  0  0  0  0  0
  1 25  1  0  0  0
  1 30  2  0  0  0
  1 81  1  0  0  0
  2  3  1  0  0  0
  2 25  1  0  0  0
  2 82  1  0  0  0
  2 83  1  0  0  0
  3  4  1  0  0  0
  3 84  1  0  0  0
  3 85  1  0  0  0
  4  5  1  0  0  0
  4 86  1  0  0  0
  4 87  1  0  0  0
  5  6  1  0  0  0
  5 26  1  0  0  0
  5 88  1  0  0  0
  6 25  1  0  0  0
  6 89  1  0  0  0
  6 90  1  0  0  0
  7  8  2  0  0  0
  7 26  1  0  0  0
  7 29  1  0  0  0
  8  9  1  0  0  0
  8 22  1  0  0  0
  9 10  1  0  0  0
  9 27  2  0  0  0
 10 11  2  0  0  0
 10 15  1  0  0  0
 11 12  1  0  0  0
 11 91  1  0  0  0
 12 13  2  0  0  0
 12 92  1  0  0  0
 13 14  1  0  0  0
 13 31  1  0  0  0
 14 15  2  0  0  0
 14 93  1  0  0  0
 15 94  1  0  0  0
 16 17  2  0  0  0
 16 21  1  0  0  0
 16 31  1  0  0  0
 17 18  1  0  0  0
 17 95  1  0  0  0
 18 19  2  0  0  0
 18 96  1  0  0  0
 19 20  1  0  0  0
 19 24  1  0  0  0
 20 21  2  0  0  0
 20 97  1  0  0  0
 21 23  1  0  0  0
 22 28  1  0  0  0
 22 32  2  0  0  0
 26 27  1  0  0  0
 28 98  1  0  0  0
 28 99  1  0  0  0
 29100  1  0  0  0
 29101  1  0  0  0
 33 34  1  0  0  0
 33 66  1  0  0  0
 33 70  2  0  0  0
 34 36  1  0  0  0
 34 59  1  0  0  0
 34102  1  0  0  0
 35 44  2  0  0  0
 35 45  1  0  0  0
 35 68  1  0  0  0
 36 56  1  0  0  0
 36103  1  0  0  0
 37 39  1  0  0  0
 37 47  1  0  0  0
 37 66  1  0  0  0
 37104  1  0  0  0
 38 43  2  0  0  0
 38 46  1  0  0  0
 38 47  1  0  0  0
 39 64  1  0  0  0
 39 67  2  0  0  0
 40 52  1  0  0  0
 40 53  2  0  0  0
 40 58  1  0  0  0
 41105  1  0  0  0
 41106  1  0  0  0
 41107  1  0  0  0
 41 48  1  0  0  0
 42 43  1  0  0  0
 42 66  1  0  0  0
 42108  1  0  0  0
 42109  1  0  0  0
 43 44  1  0  0  0
 44110  1  0  0  0
 45 46  2  0  0  0
 45111  1  0  0  0
 46112  1  0  0  0
 47113  1  0  0  0
 47114  1  0  0  0
 48 56  1  0  0  0
 48 65  1  0  0  0
 48115  1  0  0  0
 49 50  1  0  0  0
 49 53  1  0  0  0
 49 64  1  0  0  0
 49116  1  0  0  0
 50 51  1  0  0  0
 50117  1  0  0  0
 50118  1  0  0  0
 51 52  1  0  0  0
 51119  1  0  0  0
 51120  1  0  0  0
 52121  1  0  0  0
 52122  1  0  0  0
 53 54  1  0  0  0
 54 55  2  0  0  0
 54123  1  0  0  0
 55 57  1  0  0  0
 55124  1  0  0  0
 56 69  2  0  0  0
 57 58  2  0  0  0
 57125  1  0  0  0
 58126  1  0  0  0
 59 60  1  0  0  0
 59 61  1  0  0  0
 59 62  1  0  0  0
 60127  1  0  0  0
 60128  1  0  0  0
 60129  1  0  0  0
 61130  1  0  0  0
 61131  1  0  0  0
 61132  1  0  0  0
 62133  1  0  0  0
 62134  1  0  0  0
 62135  1  0  0  0
 63 65  1  0  0  0
 63136  1  0  0  0
 63137  1  0  0  0
 63138  1  0  0  0
 64139  1  0  0  0
 65140  1  0  0  0
 68 79  1  0  0  0
 71 73  2  0  0  0
 71 74  1  0  0  0
 71141  1  0  0  0
 72 73  1  0  0  0
 72 80  2  0  0  0
 72142  1  0  0  0
 73 77  1  0  0  0
 74 75  2  0  0  0
 74 81  1  0  0  0
 75 76  1  0  0  0
 75 80  1  0  0  0
 76143  1  0  0  0
 76144  1  0  0  0
 76145  1  0  0  0
 77 78  1  0  0  0
 77146  1  0  0  0
 77147  1  0  0  0
 78 79  1  0  0  0
 78148  1  0  0  0
 78149  1  0  0  0
 79150  1  0  0  0
 79151  1  0  0  0
 81152  1  0  0  0
M  ISO  4   1 100  68 101  79 101  81 100
M  END
> <chiral flag>
0

> <version>
0

> <s_m_source_file>
/data/baiqing/PycharmProjects/Reinvent-master-3.2/result/LINK_invent/BTK/process_docking_weight1_custom_sum_contain_oxygen_bond_distance_aromatic_linkinvent_7_9_3/rearranged_h_0106.sdf

> <i_m_source_file_index>
89

> <r_mmod_Potential_Energy-OPLS-2005>
356.749786376953

> <r_mmod_Stretch_Energy-OPLS-2005>
284.121490478516

> <r_mmod_Bend_Energy-OPLS-2005>
256.146545410156

> <r_mmod_Torsional_Energy-OPLS-2005>
216.106536865234

> <r_mmod_Improper_Torsional_Energy-OPLS-2005>
5.92047071456909

> <r_mmod_Van_der_Waal_Energy-OPLS-2005>
137.243743896484

> <r_mmod_Electrostatic_Energy-OPLS-2005>
-528.610290527344

> <r_mmod_Solvation_Energy-OPLS-2005>
-220.900573730469

> <b_mmod_Minimization_Converged-OPLS-2005>
0

> <r_mmod_RMS_Derivative-OPLS-2005>
0.467274993658066

$$$$
90
                    3D
 Structure written by MMmdl.
160168  0  0  1  0            999 V2000
  -30.5573  -14.7255   20.5343 C   0  0  0  0  0  0
  -30.4640  -12.4559   19.4634 C   0  0  0  0  0  0
  -29.5289  -12.5433   18.2308 C   0  0  0  0  0  0
  -28.0463  -12.3621   18.6272 C   0  0  0  0  0  0
  -27.6572  -13.2139   19.8644 C   0  0  2  0  0  0
  -28.7006  -13.0544   20.9956 C   0  0  0  0  0  0
  -25.2579  -13.8130   20.5623 C   0  0  0  0  0  0
  -24.1867  -13.0392   20.9204 C   0  0  0  0  0  0
  -24.6443  -11.6866   20.8706 C   0  0  0  0  0  0
  -23.9081  -10.4277   21.0379 C   0  0  0  0  0  0
  -24.3617   -9.4199   21.9169 C   0  0  0  0  0  0
  -23.6296   -8.2237   22.0730 C   0  0  0  0  0  0
  -22.4292   -8.0264   21.3501 C   0  0  0  0  0  0
  -21.9924   -9.0246   20.4612 C   0  0  0  0  0  0
  -22.7244  -10.2131   20.3028 C   0  0  0  0  0  0
  -21.6846   -6.0719   22.5269 C   0  0  0  0  0  0
  -21.4009   -6.5629   23.8198 C   0  0  0  0  0  0
  -21.3681   -5.6776   24.9152 C   0  0  0  0  0  0
  -21.6075   -4.3046   24.7210 C   0  0  0  0  0  0
  -21.8823   -3.8129   23.4324 C   0  0  0  0  0  0
  -21.9187   -4.6951   22.3374 C   0  0  0  0  0  0
  -22.7885  -13.5215   21.1839 C   0  0  0  0  0  0
  -22.1659   -4.2139   21.0941 F   0  0  0  0  0  0
  -21.5659   -3.4514   25.7720 F   0  0  0  0  0  0
  -30.0121  -13.4610   20.4540 N   0  0  0  0  0  0
  -26.3003  -12.9314   20.3229 N   0  0  0  0  0  0
  -25.9372  -11.6479   20.5731 N   0  0  0  0  0  0
  -22.0469  -12.8245   22.0377 N   0  0  0  0  0  0
  -25.4226  -15.1853   20.4001 N   0  0  0  0  0  0
  -31.6771  -14.9607   20.0622 O   0  0  0  0  0  0
  -21.6631   -6.8882   21.4237 O   0  0  0  0  0  0
  -22.3595  -14.5539   20.6673 O   0  0  0  0  0  0
  -24.6274  -31.8552   23.1957 C   0  0  0  0  0  0
  -25.9089  -32.4756   23.8331 C   0  0  1  0  0  0
  -27.2308  -27.2626   20.1302 C   0  0  0  0  0  0
  -25.5866  -33.8560   24.2239 N   0  0  0  0  0  0
  -23.4267  -30.4694   21.5407 C   0  0  2  0  0  0
  -24.8778  -28.9129   20.1053 C   0  0  0  0  0  0
  -22.7490  -29.4576   22.4948 C   0  0  0  0  0  0
  -18.0291  -28.1395   22.8509 C   0  0  0  0  0  0
  -24.1470  -36.7274   23.2647 C   0  0  0  0  0  0
  -25.9698  -30.7641   21.3788 C   0  0  0  0  0  0
  -26.0438  -29.3860   20.7191 C   0  0  0  0  0  0
  -27.2178  -28.5717   20.7211 C   0  0  0  0  0  0
  -26.0441  -26.8476   19.4934 C   0  0  0  0  0  0
  -24.8839  -27.6535   19.4809 C   0  0  0  0  0  0
  -23.6442  -29.7959   20.1579 C   0  0  0  0  0  0
  -25.4103  -36.3078   24.0334 C   0  0  1  0  0  0
  -20.5885  -28.3684   23.1316 C   0  0  2  0  0  0
  -20.6767  -26.9407   22.5441 C   0  0  0  0  0  0
  -19.5742  -26.6378   21.5253 C   0  0  0  0  0  0
  -18.1926  -26.7940   22.1658 C   0  0  0  0  0  0
  -19.1540  -28.8862   23.2904 C   0  0  0  0  0  0
  -18.9461  -30.1470   23.8914 C   0  0  0  0  0  0
  -17.6457  -30.6600   24.0568 C   0  0  0  0  0  0
  -25.9041  -34.9445   23.5108 C   0  0  0  0  0  0
  -16.5350  -29.9093   23.6328 C   0  0  0  0  0  0
  -16.7280  -28.6508   23.0361 C   0  0  0  0  0  0
  -26.4431  -31.6601   25.0744 C   0  0  0  0  0  0
  -25.3622  -31.3782   26.1442 C   0  0  0  0  0  0
  -27.0289  -30.3012   24.6273 C   0  0  0  0  0  0
  -27.5985  -32.4360   25.7500 C   0  0  0  0  0  0
  -27.5582  -37.1786   24.8462 C   0  0  0  0  0  0
  -21.4202  -29.3010   22.3686 N   0  0  0  0  0  0
  -26.4278  -37.3781   23.9425 N   0  0  0  0  0  0
  -24.6930  -31.0494   22.0939 N   0  0  0  0  0  0
  -23.4194  -28.8137   23.3065 O   0  0  0  0  0  0
  -28.3545  -26.4156   20.2364 O   0  0  0  0  0  0
  -26.5669  -34.8925   22.4708 O   0  0  0  0  0  0
  -23.5420  -32.1380   23.7240 O   0  0  0  0  0  0
  -32.0711  -18.9384   19.7493 C   0  0  0  0  0  0
  -29.4720  -17.1650   21.1092 C   0  0  0  0  0  0
  -31.4006  -20.2228   20.1048 C   0  0  0  0  0  0
  -29.9884  -18.2761   20.1193 C   0  0  2  0  0  0
  -26.8212  -23.1241   20.0121 C   0  0  0  0  0  0
  -29.3166  -22.4098   20.1658 C   0  0  0  0  0  0
  -28.9583  -20.8155   20.3294 C   0  0  0  0  0  0
  -28.5039  -25.0488   19.6287 C   0  0  0  0  0  0
  -28.2367  -23.6189   20.3710 C   0  0  1  0  0  0
  -31.3309  -17.9154   19.7177 N   0  0  0  0  0  0
  -29.6829  -15.7738   21.1435 N   0  0  0  0  0  0
  -28.5849  -17.6216   22.0169 N   0  3  0  0  0  0
  -30.0781  -19.7671   20.5775 N   0  3  2  0  0  0
  -31.5019  -12.6206   19.1624 H   0  0  0  0  0  0
  -30.4362  -11.4561   19.9016 H   0  0  0  0  0  0
  -29.8141  -11.7953   17.4900 H   0  0  0  0  0  0
  -29.6534  -13.5156   17.7450 H   0  0  0  0  0  0
  -27.8727  -11.3056   18.8385 H   0  0  0  0  0  0
  -27.4018  -12.6096   17.7837 H   0  0  0  0  0  0
  -27.6747  -14.2520   19.5344 H   0  0  0  0  0  0
  -28.7387  -12.0139   21.3268 H   0  0  0  0  0  0
  -28.4198  -13.6226   21.8833 H   0  0  0  0  0  0
  -25.2743   -9.5700   22.4763 H   0  0  0  0  0  0
  -23.9983   -7.4641   22.7482 H   0  0  0  0  0  0
  -21.0826   -8.8777   19.8946 H   0  0  0  0  0  0
  -22.3667  -10.9672   19.6167 H   0  0  0  0  0  0
  -21.1989   -7.6129   23.9716 H   0  0  0  0  0  0
  -21.1513   -6.0472   25.9061 H   0  0  0  0  0  0
  -22.0591   -2.7590   23.2809 H   0  0  0  0  0  0
  -22.4010  -11.9915   22.4864 H   0  0  0  0  0  0
  -21.1070  -13.1319   22.2466 H   0  0  0  0  0  0
  -24.6240  -15.8059   20.4837 H   0  0  0  0  0  0
  -26.2000  -15.6146   19.9148 H   0  0  0  0  0  0
  -26.7156  -32.5399   23.1077 H   0  0  0  0  0  0
  -24.9901  -33.9692   25.0305 H   0  0  0  0  0  0
  -22.7228  -31.2912   21.3936 H   0  0  0  0  0  0
  -23.3759  -35.9577   23.3286 H   0  0  0  0  0  0
  -24.3560  -36.8930   22.2070 H   0  0  0  0  0  0
  -23.7177  -37.6443   23.6691 H   0  0  0  0  0  0
  -26.1160  -31.5281   20.6135 H   0  0  0  0  0  0
  -26.8421  -30.8084   22.0193 H   0  0  0  0  0  0
  -28.1079  -28.9316   21.2167 H   0  0  0  0  0  0
  -25.9837  -25.8748   19.0285 H   0  0  0  0  0  0
  -23.9890  -27.2828   18.9994 H   0  0  0  0  0  0
  -23.7588  -30.5701   19.3988 H   0  0  0  0  0  0
  -22.7645  -29.2205   19.8621 H   0  0  0  0  0  0
  -25.1277  -36.1935   25.0826 H   0  0  0  0  0  0
  -20.9981  -28.3267   24.1436 H   0  0  0  0  0  0
  -20.5701  -26.2296   23.3642 H   0  0  0  0  0  0
  -21.6635  -26.7448   22.1220 H   0  0  0  0  0  0
  -19.6887  -25.6287   21.1296 H   0  0  0  0  0  0
  -19.6672  -27.3190   20.6788 H   0  0  0  0  0  0
  -17.4190  -26.6722   21.4056 H   0  0  0  0  0  0
  -18.0291  -26.0091   22.9059 H   0  0  0  0  0  0
  -19.7928  -30.7297   24.2290 H   0  0  0  0  0  0
  -17.4998  -31.6283   24.5160 H   0  0  0  0  0  0
  -15.5345  -30.2998   23.7622 H   0  0  0  0  0  0
  -15.8691  -28.0823   22.7063 H   0  0  0  0  0  0
  -24.5773  -30.7168   25.7740 H   0  0  0  0  0  0
  -24.8821  -32.2963   26.4842 H   0  0  0  0  0  0
  -25.7871  -30.8944   27.0244 H   0  0  0  0  0  0
  -26.2899  -29.6776   24.1217 H   0  0  0  0  0  0
  -27.3853  -29.7269   25.4835 H   0  0  0  0  0  0
  -27.8823  -30.4279   23.9611 H   0  0  0  0  0  0
  -27.2585  -33.3670   26.2056 H   0  0  0  0  0  0
  -28.3773  -32.6920   25.0303 H   0  0  0  0  0  0
  -28.0674  -31.8515   26.5427 H   0  0  0  0  0  0
  -28.2574  -38.0110   24.7556 H   0  0  0  0  0  0
  -28.1109  -36.2647   24.6219 H   0  0  0  0  0  0
  -27.2321  -37.1354   25.8869 H   0  0  0  0  0  0
  -20.9397  -29.8693   21.6842 H   0  0  0  0  0  0
  -26.0166  -38.2856   24.1441 H   0  0  0  0  0  0
  -33.1419  -18.9409   19.5362 H   0  0  0  0  0  0
  -31.3391  -20.8321   19.2029 H   0  0  0  0  0  0
  -31.9645  -20.7616   20.8652 H   0  0  0  0  0  0
  -29.3397  -18.2400   19.2426 H   0  0  0  0  0  0
  -26.5505  -22.2216   20.5587 H   0  0  0  0  0  0
  -26.7319  -22.9029   18.9463 H   0  0  0  0  0  0
  -26.0650  -23.8686   20.2598 H   0  0  0  0  0  0
  -29.7281  -22.5381   19.1645 H   0  0  0  0  0  0
  -30.1455  -22.6417   20.8343 H   0  0  0  0  0  0
  -28.4074  -20.5250   19.4339 H   0  0  0  0  0  0
  -28.2547  -20.7045   21.1533 H   0  0  0  0  0  0
  -28.0180  -25.0355   18.6536 H   0  0  0  0  0  0
  -29.5611  -25.0311   19.3692 H   0  0  0  0  0  0
  -28.2255  -23.8229   21.4422 H   0  0  0  0  0  0
  -28.9215  -15.3810   21.6592 H   0  0  0  0  0  0
  -28.0187  -18.4335   21.8284 H   0  0  0  0  0  0
  -28.3288  -17.0999   22.8422 H   0  0  0  0  0  0
  -30.1879  -19.7099   21.5819 H   0  0  0  0  0  0
  1 25  1  0  0  0
  1 30  2  0  0  0
  1 81  1  0  0  0
  2  3  1  0  0  0
  2 25  1  0  0  0
  2 84  1  0  0  0
  2 85  1  0  0  0
  3  4  1  0  0  0
  3 86  1  0  0  0
  3 87  1  0  0  0
  4  5  1  0  0  0
  4 88  1  0  0  0
  4 89  1  0  0  0
  5  6  1  0  0  0
  5 26  1  0  0  0
  5 90  1  0  0  0
  6 25  1  0  0  0
  6 91  1  0  0  0
  6 92  1  0  0  0
  7  8  2  0  0  0
  7 26  1  0  0  0
  7 29  1  0  0  0
  8  9  1  0  0  0
  8 22  1  0  0  0
  9 10  1  0  0  0
  9 27  2  0  0  0
 10 11  2  0  0  0
 10 15  1  0  0  0
 11 12  1  0  0  0
 11 93  1  0  0  0
 12 13  2  0  0  0
 12 94  1  0  0  0
 13 14  1  0  0  0
 13 31  1  0  0  0
 14 15  2  0  0  0
 14 95  1  0  0  0
 15 96  1  0  0  0
 16 17  2  0  0  0
 16 21  1  0  0  0
 16 31  1  0  0  0
 17 18  1  0  0  0
 17 97  1  0  0  0
 18 19  2  0  0  0
 18 98  1  0  0  0
 19 20  1  0  0  0
 19 24  1  0  0  0
 20 21  2  0  0  0
 20 99  1  0  0  0
 21 23  1  0  0  0
 22 28  1  0  0  0
 22 32  2  0  0  0
 26 27  1  0  0  0
 28100  1  0  0  0
 28101  1  0  0  0
 29102  1  0  0  0
 29103  1  0  0  0
 33 34  1  0  0  0
 33 66  1  0  0  0
 33 70  2  0  0  0
 34 36  1  0  0  0
 34 59  1  0  0  0
 34104  1  0  0  0
 35 44  2  0  0  0
 35 45  1  0  0  0
 35 68  1  0  0  0
 36 56  1  0  0  0
 36105  1  0  0  0
 37 39  1  0  0  0
 37 47  1  0  0  0
 37 66  1  0  0  0
 37106  1  0  0  0
 38 43  2  0  0  0
 38 46  1  0  0  0
 38 47  1  0  0  0
 39 64  1  0  0  0
 39 67  2  0  0  0
 40 52  1  0  0  0
 40 53  2  0  0  0
 40 58  1  0  0  0
 41107  1  0  0  0
 41108  1  0  0  0
 41109  1  0  0  0
 41 48  1  0  0  0
 42 43  1  0  0  0
 42 66  1  0  0  0
 42110  1  0  0  0
 42111  1  0  0  0
 43 44  1  0  0  0
 44112  1  0  0  0
 45 46  2  0  0  0
 45113  1  0  0  0
 46114  1  0  0  0
 47115  1  0  0  0
 47116  1  0  0  0
 48 56  1  0  0  0
 48 65  1  0  0  0
 48117  1  0  0  0
 49 50  1  0  0  0
 49 53  1  0  0  0
 49 64  1  0  0  0
 49118  1  0  0  0
 50 51  1  0  0  0
 50119  1  0  0  0
 50120  1  0  0  0
 51 52  1  0  0  0
 51121  1  0  0  0
 51122  1  0  0  0
 52123  1  0  0  0
 52124  1  0  0  0
 53 54  1  0  0  0
 54 55  2  0  0  0
 54125  1  0  0  0
 55 57  1  0  0  0
 55126  1  0  0  0
 56 69  2  0  0  0
 57 58  2  0  0  0
 57127  1  0  0  0
 58128  1  0  0  0
 59 60  1  0  0  0
 59 61  1  0  0  0
 59 62  1  0  0  0
 60129  1  0  0  0
 60130  1  0  0  0
 60131  1  0  0  0
 61132  1  0  0  0
 61133  1  0  0  0
 61134  1  0  0  0
 62135  1  0  0  0
 62136  1  0  0  0
 62137  1  0  0  0
 63 65  1  0  0  0
 63138  1  0  0  0
 63139  1  0  0  0
 63140  1  0  0  0
 64141  1  0  0  0
 65142  1  0  0  0
 68 78  1  0  0  0
 71 73  1  0  0  0
 71 80  2  0  0  0
 71143  1  0  0  0
 72 81  1  0  0  0
 72 82  2  0  0  0
 72 74  1  0  0  0
 73 83  1  0  0  0
 73144  1  0  0  0
 73145  1  0  0  0
 74 80  1  0  0  0
 74 83  1  0  0  0
 74146  1  0  0  0
 75147  1  0  0  0
 75148  1  0  0  0
 75149  1  0  0  0
 75 79  1  0  0  0
 76 77  1  0  0  0
 76 79  1  0  0  0
 76150  1  0  0  0
 76151  1  0  0  0
 77152  1  0  0  0
 77153  1  0  0  0
 77 83  1  0  0  0
 78 79  1  0  0  0
 78154  1  0  0  0
 78155  1  0  0  0
 79156  1  0  0  0
 81157  1  0  0  0
 82158  1  0  0  0
 82159  1  0  0  0
 83160  1  0  0  0
M  CHG  2  82   1  83   1
M  ISO  4   1 100  68 101  78 101  81 100
M  END
> <chiral flag>
0

> <version>
0

> <s_m_source_file>
/data/baiqing/PycharmProjects/Reinvent-master-3.2/result/LINK_invent/BTK/process_docking_weight1_custom_sum_contain_oxygen_bond_distance_aromatic_linkinvent_7_9_3/rearranged_h_0106.sdf

> <i_m_source_file_index>
90

> <r_mmod_Potential_Energy-OPLS-2005>
-135.661376953125

> <r_mmod_Stretch_Energy-OPLS-2005>
144.34294128418

> <r_mmod_Bend_Energy-OPLS-2005>
282.859619140625

> <r_mmod_Torsional_Energy-OPLS-2005>
255.312652587891

> <r_mmod_Improper_Torsional_Energy-OPLS-2005>
5.15040493011475

> <r_mmod_Van_der_Waal_Energy-OPLS-2005>
111.888847351074

> <r_mmod_Electrostatic_Energy-OPLS-2005>
47.689510345459

> <r_mmod_Solvation_Energy-OPLS-2005>
-1063.25366210938

> <b_mmod_Minimization_Converged-OPLS-2005>
0

> <r_mmod_RMS_Derivative-OPLS-2005>
4.60873746871948

$$$$
91
                    3D
 Structure written by MMmdl.
146153  0  0  1  0            999 V2000
  -30.1594  -16.0066   20.2966 C   0  0  0  0  0  0
  -30.3938  -13.3595   19.5608 C   0  0  0  0  0  0
  -29.5670  -12.7633   18.3719 C   0  0  0  0  0  0
  -28.1713  -12.3208   18.8268 C   0  0  0  0  0  0
  -27.5869  -13.3480   19.8169 C   0  0  2  0  0  0
  -28.5711  -13.8276   20.9221 C   0  0  0  0  0  0
  -25.2262  -13.8335   20.5850 C   0  0  0  0  0  0
  -24.1683  -13.0437   20.9294 C   0  0  0  0  0  0
  -24.6443  -11.6961   20.8741 C   0  0  0  0  0  0
  -23.9154  -10.4287   21.0361 C   0  0  0  0  0  0
  -24.3684   -9.4202   21.9156 C   0  0  0  0  0  0
  -23.6326   -8.2254   22.0761 C   0  0  0  0  0  0
  -22.4310   -8.0293   21.3553 C   0  0  0  0  0  0
  -21.9947   -9.0269   20.4652 C   0  0  0  0  0  0
  -22.7304  -10.2132   20.3025 C   0  0  0  0  0  0
  -21.6865   -6.0738   22.5271 C   0  0  0  0  0  0
  -21.4018   -6.5638   23.8202 C   0  0  0  0  0  0
  -21.3674   -5.6795   24.9164 C   0  0  0  0  0  0
  -21.6050   -4.3052   24.7210 C   0  0  0  0  0  0
  -21.8815   -3.8146   23.4335 C   0  0  0  0  0  0
  -21.9197   -4.6966   22.3389 C   0  0  0  0  0  0
  -22.7684  -13.5145   21.1885 C   0  0  0  0  0  0
  -22.1661   -4.2146   21.0965 F   0  0  0  0  0  0
  -21.5633   -3.4539   25.7726 F   0  0  0  0  0  0
  -29.6906  -14.5697   20.2584 N   0  0  0  0  0  0
  -26.2757  -12.9748   20.3298 N   0  0  0  0  0  0
  -25.9409  -11.6779   20.5687 N   0  0  0  0  0  0
  -22.0348  -12.8148   22.0448 N   0  0  0  0  0  0
  -25.3832  -15.2072   20.4298 N   0  0  0  0  0  0
  -31.3936  -15.8901   20.1029 O   0  0  0  0  0  0
  -21.6661   -6.8888   21.4242 O   0  0  0  0  0  0
  -22.3354  -14.5428   20.6691 O   0  0  0  0  0  0
  -24.7071  -31.7703   23.1293 C   0  0  0  0  0  0
  -25.9524  -32.4329   23.7943 C   0  0  1  0  0  0
  -27.2513  -26.4466   20.2363 C   0  0  0  0  0  0
  -25.5990  -33.8170   24.1804 N   0  0  0  0  0  0
  -23.5467  -30.3590   21.4880 C   0  0  2  0  0  0
  -25.0115  -28.6445   20.1240 C   0  0  0  0  0  0
  -22.7869  -29.4159   22.4625 C   0  0  0  0  0  0
  -18.0352  -28.1442   22.8451 C   0  0  0  0  0  0
  -24.1491  -36.7079   23.2661 C   0  0  0  0  0  0
  -26.1373  -30.4167   21.4368 C   0  0  0  0  0  0
  -26.2023  -28.9529   20.7904 C   0  0  0  0  0  0
  -27.2883  -27.8890   20.8128 C   0  0  0  0  0  0
  -26.0314  -26.4185   19.4925 C   0  0  0  0  0  0
  -24.9822  -27.4059   19.4503 C   0  0  0  0  0  0
  -23.8171  -29.6287   20.1355 C   0  0  0  0  0  0
  -25.4161  -36.2822   24.0263 C   0  0  1  0  0  0
  -20.5998  -28.3812   23.1088 C   0  0  2  0  0  0
  -20.6804  -26.9446   22.5409 C   0  0  0  0  0  0
  -19.5784  -26.6368   21.5219 C   0  0  0  0  0  0
  -18.1968  -26.7963   22.1621 C   0  0  0  0  0  0
  -19.1625  -28.8961   23.2745 C   0  0  0  0  0  0
  -18.9525  -30.1535   23.8812 C   0  0  0  0  0  0
  -17.6511  -30.6624   24.0552 C   0  0  0  0  0  0
  -25.9156  -34.9213   23.4901 C   0  0  0  0  0  0
  -16.5400  -29.9100   23.6363 C   0  0  0  0  0  0
  -16.7331  -28.6515   23.0393 C   0  0  0  0  0  0
  -26.4636  -31.6475   25.0671 C   0  0  0  0  0  0
  -25.3615  -31.3859   26.1214 C   0  0  0  0  0  0
  -27.0594  -30.2775   24.6774 C   0  0  0  0  0  0
  -27.6047  -32.4397   25.7494 C   0  0  0  0  0  0
  -27.5563  -37.1697   24.8466 C   0  0  0  0  0  0
  -21.4490  -29.3005   22.3367 N   0  0  0  0  0  0
  -26.4268  -37.3609   23.9409 N   0  0  0  0  0  0
  -24.8228  -30.8894   22.0684 N   0  0  0  0  0  0
  -23.4193  -28.7817   23.3096 O   0  0  0  0  0  0
  -28.1811  -25.1154   20.3733 O   0  0  0  0  0  0
  -26.5845  -34.8831   22.4548 O   0  0  0  0  0  0
  -23.6035  -32.0893   23.6081 O   0  0  0  0  0  0
  -29.8586  -21.5589   21.6057 C   0  0  0  0  0  0
  -27.4525  -20.9328   21.3300 C   0  0  0  0  0  0
  -29.3582  -19.3477   19.9976 C   0  0  0  0  0  0
  -28.3205  -23.2590   19.9813 C   0  0  0  0  0  0
  -28.7484  -21.2770   20.5833 C   0  0  0  0  0  0
  -29.4074  -17.4719   20.3748 N   0  0  0  0  0  0
  -31.3588  -13.6699   19.1605 H   0  0  0  0  0  0
  -30.6461  -12.5808   20.2828 H   0  0  0  0  0  0
  -30.1009  -11.9284   17.9140 H   0  0  0  0  0  0
  -29.4664  -13.5234   17.5950 H   0  0  0  0  0  0
  -28.2661  -11.3556   19.3266 H   0  0  0  0  0  0
  -27.5107  -12.1667   17.9716 H   0  0  0  0  0  0
  -27.4078  -14.2247   19.1923 H   0  0  0  0  0  0
  -28.9061  -13.0012   21.5506 H   0  0  0  0  0  0
  -28.0650  -14.5223   21.5939 H   0  0  0  0  0  0
  -25.2828   -9.5683   22.4737 H   0  0  0  0  0  0
  -24.0028   -7.4654   22.7507 H   0  0  0  0  0  0
  -21.0867   -8.8790   19.8976 H   0  0  0  0  0  0
  -22.3749  -10.9669   19.6130 H   0  0  0  0  0  0
  -21.2014   -7.6150   23.9693 H   0  0  0  0  0  0
  -21.1506   -6.0529   25.9065 H   0  0  0  0  0  0
  -22.0586   -2.7609   23.2819 H   0  0  0  0  0  0
  -22.4024  -11.9876   22.4911 H   0  0  0  0  0  0
  -21.0946  -13.1137   22.2608 H   0  0  0  0  0  0
  -24.6116  -15.8560   20.5398 H   0  0  0  0  0  0
  -26.2267  -15.6463   20.0871 H   0  0  0  0  0  0
  -26.7624  -32.4746   23.0661 H   0  0  0  0  0  0
  -24.9987  -33.9177   24.9857 H   0  0  0  0  0  0
  -22.8875  -31.2030   21.2738 H   0  0  0  0  0  0
  -23.3791  -35.9370   23.3275 H   0  0  0  0  0  0
  -24.3522  -36.8811   22.2082 H   0  0  0  0  0  0
  -23.7222  -37.6222   23.6790 H   0  0  0  0  0  0
  -26.3726  -31.1273   20.6441 H   0  0  0  0  0  0
  -26.9739  -30.4924   22.1173 H   0  0  0  0  0  0
  -28.1712  -28.1405   21.3827 H   0  0  0  0  0  0
  -25.8333  -25.4996   18.9576 H   0  0  0  0  0  0
  -24.0933  -27.1579   18.8870 H   0  0  0  0  0  0
  -24.0098  -30.3776   19.3661 H   0  0  0  0  0  0
  -22.9185  -29.1037   19.8069 H   0  0  0  0  0  0
  -25.1388  -36.1557   25.0754 H   0  0  0  0  0  0
  -21.0086  -28.3474   24.1211 H   0  0  0  0  0  0
  -20.5626  -26.2457   23.3701 H   0  0  0  0  0  0
  -21.6663  -26.7336   22.1256 H   0  0  0  0  0  0
  -19.6928  -25.6246   21.1331 H   0  0  0  0  0  0
  -19.6742  -27.3114   20.6698 H   0  0  0  0  0  0
  -17.4236  -26.6716   21.4026 H   0  0  0  0  0  0
  -18.0350  -26.0122   22.9035 H   0  0  0  0  0  0
  -19.8001  -30.7368   24.2154 H   0  0  0  0  0  0
  -17.5065  -31.6294   24.5168 H   0  0  0  0  0  0
  -15.5400  -30.2986   23.7723 H   0  0  0  0  0  0
  -15.8728  -28.0796   22.7182 H   0  0  0  0  0  0
  -24.5831  -30.7207   25.7455 H   0  0  0  0  0  0
  -24.8770  -32.3100   26.4369 H   0  0  0  0  0  0
  -25.7693  -30.9157   27.0169 H   0  0  0  0  0  0
  -26.3335  -29.6316   24.1822 H   0  0  0  0  0  0
  -27.3953  -29.7338   25.5616 H   0  0  0  0  0  0
  -27.9369  -30.3828   24.0391 H   0  0  0  0  0  0
  -27.2567  -33.3800   26.1783 H   0  0  0  0  0  0
  -28.3994  -32.6801   25.0417 H   0  0  0  0  0  0
  -28.0566  -31.8721   26.5639 H   0  0  0  0  0  0
  -28.2550  -38.0019   24.7511 H   0  0  0  0  0  0
  -28.1096  -36.2538   24.6317 H   0  0  0  0  0  0
  -27.2261  -37.1352   25.8862 H   0  0  0  0  0  0
  -20.9850  -29.8618   21.6355 H   0  0  0  0  0  0
  -26.0084  -38.2654   24.1418 H   0  0  0  0  0  0
  -30.0686  -20.6819   22.2186 H   0  0  0  0  0  0
  -29.5941  -22.3781   22.2743 H   0  0  0  0  0  0
  -30.7843  -21.8340   21.0964 H   0  0  0  0  0  0
  -27.5834  -20.0723   21.9871 H   0  0  0  0  0  0
  -26.6531  -20.6908   20.6283 H   0  0  0  0  0  0
  -27.1123  -21.7691   21.9410 H   0  0  0  0  0  0
  -30.4033  -19.5148   19.7349 H   0  0  0  0  0  0
  -28.8678  -19.2894   19.0248 H   0  0  0  0  0  0
  -27.4231  -23.1217   19.3776 H   0  0  0  0  0  0
  -29.1029  -23.3676   19.2306 H   0  0  0  0  0  0
  -28.4630  -17.2303   20.6449 H   0  0  0  0  0  0
  1 25  1  0  0  0
  1 30  2  0  0  0
  1 76  1  0  0  0
  2  3  1  0  0  0
  2 25  1  0  0  0
  2 77  1  0  0  0
  2 78  1  0  0  0
  3  4  1  0  0  0
  3 79  1  0  0  0
  3 80  1  0  0  0
  4  5  1  0  0  0
  4 81  1  0  0  0
  4 82  1  0  0  0
  5  6  1  0  0  0
  5 26  1  0  0  0
  5 83  1  0  0  0
  6 25  1  0  0  0
  6 84  1  0  0  0
  6 85  1  0  0  0
  7  8  2  0  0  0
  7 26  1  0  0  0
  7 29  1  0  0  0
  8  9  1  0  0  0
  8 22  1  0  0  0
  9 10  1  0  0  0
  9 27  2  0  0  0
 10 11  2  0  0  0
 10 15  1  0  0  0
 11 12  1  0  0  0
 11 86  1  0  0  0
 12 13  2  0  0  0
 12 87  1  0  0  0
 13 14  1  0  0  0
 13 31  1  0  0  0
 14 15  2  0  0  0
 14 88  1  0  0  0
 15 89  1  0  0  0
 16 17  2  0  0  0
 16 21  1  0  0  0
 16 31  1  0  0  0
 17 18  1  0  0  0
 17 90  1  0  0  0
 18 19  2  0  0  0
 18 91  1  0  0  0
 19 20  1  0  0  0
 19 24  1  0  0  0
 20 21  2  0  0  0
 20 92  1  0  0  0
 21 23  1  0  0  0
 22 28  1  0  0  0
 22 32  2  0  0  0
 26 27  1  0  0  0
 28 93  1  0  0  0
 28 94  1  0  0  0
 29 95  1  0  0  0
 29 96  1  0  0  0
 33 34  1  0  0  0
 33 66  1  0  0  0
 33 70  2  0  0  0
 34 36  1  0  0  0
 34 59  1  0  0  0
 34 97  1  0  0  0
 35 44  2  0  0  0
 35 45  1  0  0  0
 35 68  1  0  0  0
 36 56  1  0  0  0
 36 98  1  0  0  0
 37 39  1  0  0  0
 37 47  1  0  0  0
 37 66  1  0  0  0
 37 99  1  0  0  0
 38 43  2  0  0  0
 38 46  1  0  0  0
 38 47  1  0  0  0
 39 64  1  0  0  0
 39 67  2  0  0  0
 40 52  1  0  0  0
 40 53  2  0  0  0
 40 58  1  0  0  0
 41100  1  0  0  0
 41101  1  0  0  0
 41102  1  0  0  0
 41 48  1  0  0  0
 42 43  1  0  0  0
 42 66  1  0  0  0
 42103  1  0  0  0
 42104  1  0  0  0
 43 44  1  0  0  0
 44105  1  0  0  0
 45 46  2  0  0  0
 45106  1  0  0  0
 46107  1  0  0  0
 47108  1  0  0  0
 47109  1  0  0  0
 48 56  1  0  0  0
 48 65  1  0  0  0
 48110  1  0  0  0
 49 50  1  0  0  0
 49 53  1  0  0  0
 49 64  1  0  0  0
 49111  1  0  0  0
 50 51  1  0  0  0
 50112  1  0  0  0
 50113  1  0  0  0
 51 52  1  0  0  0
 51114  1  0  0  0
 51115  1  0  0  0
 52116  1  0  0  0
 52117  1  0  0  0
 53 54  1  0  0  0
 54 55  2  0  0  0
 54118  1  0  0  0
 55 57  1  0  0  0
 55119  1  0  0  0
 56 69  2  0  0  0
 57 58  2  0  0  0
 57120  1  0  0  0
 58121  1  0  0  0
 59 60  1  0  0  0
 59 61  1  0  0  0
 59 62  1  0  0  0
 60122  1  0  0  0
 60123  1  0  0  0
 60124  1  0  0  0
 61125  1  0  0  0
 61126  1  0  0  0
 61127  1  0  0  0
 62128  1  0  0  0
 62129  1  0  0  0
 62130  1  0  0  0
 63 65  1  0  0  0
 63131  1  0  0  0
 63132  1  0  0  0
 63133  1  0  0  0
 64134  1  0  0  0
 65135  1  0  0  0
 68 74  1  0  0  0
 71136  1  0  0  0
 71137  1  0  0  0
 71138  1  0  0  0
 71 75  1  0  0  0
 72 75  1  0  0  0
 72139  1  0  0  0
 72140  1  0  0  0
 72141  1  0  0  0
 73 75  1  0  0  0
 73 76  1  0  0  0
 73142  1  0  0  0
 73143  1  0  0  0
 74 75  1  0  0  0
 74144  1  0  0  0
 74145  1  0  0  0
 76146  1  0  0  0
M  ISO  4   1 100  68 101  74 101  76 100
M  END
> <chiral flag>
0

> <version>
0

> <s_m_source_file>
/data/baiqing/PycharmProjects/Reinvent-master-3.2/result/LINK_invent/BTK/process_docking_weight1_custom_sum_contain_oxygen_bond_distance_aromatic_linkinvent_7_9_3/rearranged_h_0106.sdf

> <i_m_source_file_index>
91

> <r_mmod_Potential_Energy-OPLS-2005>
4154.009765625

> <r_mmod_Stretch_Energy-OPLS-2005>
1946.06066894531

> <r_mmod_Bend_Energy-OPLS-2005>
907.354675292969

> <r_mmod_Torsional_Energy-OPLS-2005>
237.135360717773

> <r_mmod_Improper_Torsional_Energy-OPLS-2005>
4.05898284912109

> <r_mmod_Van_der_Waal_Energy-OPLS-2005>
111.919425964355

> <r_mmod_Electrostatic_Energy-OPLS-2005>
-373.071075439453

> <r_mmod_Solvation_Energy-OPLS-2005>
-217.193542480469

> <b_mmod_Minimization_Converged-OPLS-2005>
0

> <r_mmod_RMS_Derivative-OPLS-2005>
2.43039011955261

$$$$
92
                    3D
 Structure written by MMmdl.
167174  0  0  1  0            999 V2000
  -30.5543  -14.9337   20.4188 C   0  0  0  0  0  0
  -30.4392  -12.5815   19.4893 C   0  0  0  0  0  0
  -29.5169  -12.5293   18.2496 C   0  0  0  0  0  0
  -28.0492  -12.3207   18.6696 C   0  0  0  0  0  0
  -27.6298  -13.2487   19.8397 C   0  0  2  0  0  0
  -28.6763  -13.2716   20.9735 C   0  0  0  0  0  0
  -25.2460  -13.8215   20.5721 C   0  0  0  0  0  0
  -24.1773  -13.0439   20.9237 C   0  0  0  0  0  0
  -24.6391  -11.6924   20.8761 C   0  0  0  0  0  0
  -23.9066  -10.4297   21.0405 C   0  0  0  0  0  0
  -24.3617   -9.4213   21.9184 C   0  0  0  0  0  0
  -23.6295   -8.2245   22.0754 C   0  0  0  0  0  0
  -22.4277   -8.0279   21.3544 C   0  0  0  0  0  0
  -21.9914   -9.0252   20.4645 C   0  0  0  0  0  0
  -22.7239  -10.2135   20.3057 C   0  0  0  0  0  0
  -21.6859   -6.0730   22.5277 C   0  0  0  0  0  0
  -21.4016   -6.5637   23.8209 C   0  0  0  0  0  0
  -21.3662   -5.6792   24.9172 C   0  0  0  0  0  0
  -21.6040   -4.3054   24.7226 C   0  0  0  0  0  0
  -21.8821   -3.8145   23.4347 C   0  0  0  0  0  0
  -21.9194   -4.6958   22.3403 C   0  0  0  0  0  0
  -22.7796  -13.5209   21.1884 C   0  0  0  0  0  0
  -22.1666   -4.2144   21.0981 F   0  0  0  0  0  0
  -21.5625   -3.4540   25.7736 F   0  0  0  0  0  0
  -29.9509  -13.6799   20.3695 N   0  0  0  0  0  0
  -26.2890  -12.9451   20.3267 N   0  0  0  0  0  0
  -25.9327  -11.6577   20.5751 N   0  0  0  0  0  0
  -22.0449  -12.8195   22.0437 N   0  0  0  0  0  0
  -25.4125  -15.1942   20.4126 N   0  0  0  0  0  0
  -31.7609  -14.9946   20.1655 O   0  0  0  0  0  0
  -21.6651   -6.8875   21.4236 O   0  0  0  0  0  0
  -22.3486  -14.5520   20.6732 O   0  0  0  0  0  0
  -24.6418  -31.8444   23.1856 C   0  0  0  0  0  0
  -25.9188  -32.4702   23.8250 C   0  0  1  0  0  0
  -27.2224  -27.1364   20.1547 C   0  0  0  0  0  0
  -25.5941  -33.8507   24.2173 N   0  0  0  0  0  0
  -23.4460  -30.4634   21.5307 C   0  0  2  0  0  0
  -24.8962  -28.8863   20.1102 C   0  0  0  0  0  0
  -22.7572  -29.4548   22.4847 C   0  0  0  0  0  0
  -18.0311  -28.1393   22.8505 C   0  0  0  0  0  0
  -24.1491  -36.7243   23.2652 C   0  0  0  0  0  0
  -26.0016  -30.7170   21.3852 C   0  0  0  0  0  0
  -26.0731  -29.3278   20.7275 C   0  0  0  0  0  0
  -27.2353  -28.4700   20.7318 C   0  0  0  0  0  0
  -26.0185  -26.7927   19.5010 C   0  0  0  0  0  0
  -24.8831  -27.6321   19.4813 C   0  0  0  0  0  0
  -23.6726  -29.7891   20.1509 C   0  0  0  0  0  0
  -25.4125  -36.3040   24.0327 C   0  0  1  0  0  0
  -20.5927  -28.3717   23.1244 C   0  0  2  0  0  0
  -20.6801  -26.9417   22.5409 C   0  0  0  0  0  0
  -19.5768  -26.6372   21.5226 C   0  0  0  0  0  0
  -18.1947  -26.7939   22.1630 C   0  0  0  0  0  0
  -19.1569  -28.8871   23.2873 C   0  0  0  0  0  0
  -18.9496  -30.1476   23.8886 C   0  0  0  0  0  0
  -17.6495  -30.6596   24.0569 C   0  0  0  0  0  0
  -25.9072  -34.9419   23.5059 C   0  0  0  0  0  0
  -16.5384  -29.9094   23.6344 C   0  0  0  0  0  0
  -16.7297  -28.6505   23.0372 C   0  0  0  0  0  0
  -26.4504  -31.6575   25.0695 C   0  0  0  0  0  0
  -25.3690  -31.3769   26.1395 C   0  0  0  0  0  0
  -27.0377  -30.2983   24.6255 C   0  0  0  0  0  0
  -27.6027  -32.4350   25.7479 C   0  0  0  0  0  0
  -27.5572  -37.1780   24.8476 C   0  0  0  0  0  0
  -21.4259  -29.3052   22.3610 N   0  0  0  0  0  0
  -26.4287  -37.3753   23.9416 N   0  0  0  0  0  0
  -24.7164  -31.0302   22.0885 N   0  0  0  0  0  0
  -23.4226  -28.8107   23.2997 O   0  0  0  0  0  0
  -28.2839  -26.1624   20.2322 O   0  0  0  0  0  0
  -26.5673  -34.8929   22.4650 O   0  0  0  0  0  0
  -23.5530  -32.1304   23.7078 O   0  0  0  0  0  0
  -31.7367  -22.9307   20.0353 C   0  0  0  0  0  0
  -30.7770  -25.0202   19.1080 C   0  0  0  0  0  0
  -29.4718  -23.5269   21.8566 C   0  0  0  0  0  0
  -27.9384  -18.6935   21.3143 C   0  0  0  0  0  0
  -28.5275  -18.7318   18.8871 C   0  0  0  0  0  0
  -30.1710  -17.6555   20.5476 C   0  0  0  0  0  0
  -28.6555  -21.7323   20.1570 C   0  0  0  0  0  0
  -28.0621  -24.6276   20.0348 C   0  0  0  0  0  0
  -30.4398  -23.5586   19.4701 C   0  0  0  0  0  0
  -29.1484  -23.3543   20.3574 C   0  0  1  0  0  0
  -29.0834  -18.9292   20.3104 C   0  0  0  0  0  0
  -29.7848  -16.1205   20.5442 N   0  0  0  0  0  0
  -29.5568  -20.4473   20.4515 N   0  3  0  0  0  0
  -31.4716  -12.7404   19.1732 H   0  0  0  0  0  0
  -30.4329  -11.6292   20.0211 H   0  0  0  0  0  0
  -29.8306  -11.7310   17.5753 H   0  0  0  0  0  0
  -29.6062  -13.4599   17.6867 H   0  0  0  0  0  0
  -27.9382  -11.2776   18.9691 H   0  0  0  0  0  0
  -27.3854  -12.4639   17.8159 H   0  0  0  0  0  0
  -27.5935  -14.2524   19.4160 H   0  0  0  0  0  0
  -28.7631  -12.2953   21.4519 H   0  0  0  0  0  0
  -28.3823  -13.9747   21.7546 H   0  0  0  0  0  0
  -25.2756   -9.5699   22.4770 H   0  0  0  0  0  0
  -24.0003   -7.4641   22.7478 H   0  0  0  0  0  0
  -21.0844   -8.8763   19.8955 H   0  0  0  0  0  0
  -22.3682  -10.9670   19.6177 H   0  0  0  0  0  0
  -21.2012   -7.6149   23.9708 H   0  0  0  0  0  0
  -21.1479   -6.0526   25.9073 H   0  0  0  0  0  0
  -22.0596   -2.7605   23.2849 H   0  0  0  0  0  0
  -22.4070  -11.9846   22.4800 H   0  0  0  0  0  0
  -21.1068  -13.1213   22.2650 H   0  0  0  0  0  0
  -24.6369  -15.8400   20.5116 H   0  0  0  0  0  0
  -26.2411  -15.6283   20.0294 H   0  0  0  0  0  0
  -26.7255  -32.5298   23.0971 H   0  0  0  0  0  0
  -25.0076  -33.9615   25.0311 H   0  0  0  0  0  0
  -22.7496  -31.2896   21.3740 H   0  0  0  0  0  0
  -23.3774  -35.9551   23.3313 H   0  0  0  0  0  0
  -24.3571  -36.8867   22.2064 H   0  0  0  0  0  0
  -23.7212  -37.6428   23.6682 H   0  0  0  0  0  0
  -26.1609  -31.4721   20.6138 H   0  0  0  0  0  0
  -26.8715  -30.7642   22.0285 H   0  0  0  0  0  0
  -28.1299  -28.8025   21.2392 H   0  0  0  0  0  0
  -25.9248  -25.8316   19.0180 H   0  0  0  0  0  0
  -23.9835  -27.2866   18.9897 H   0  0  0  0  0  0
  -23.8074  -30.5630   19.3936 H   0  0  0  0  0  0
  -22.7870  -29.2312   19.8401 H   0  0  0  0  0  0
  -25.1307  -36.1868   25.0818 H   0  0  0  0  0  0
  -21.0027  -28.3300   24.1361 H   0  0  0  0  0  0
  -20.5703  -26.2322   23.3627 H   0  0  0  0  0  0
  -21.6663  -26.7419   22.1190 H   0  0  0  0  0  0
  -19.6929  -25.6275   21.1261 H   0  0  0  0  0  0
  -19.6705  -27.3191   20.6765 H   0  0  0  0  0  0
  -17.4219  -26.6716   21.4030 H   0  0  0  0  0  0
  -18.0325  -26.0078   22.9013 H   0  0  0  0  0  0
  -19.7976  -30.7302   24.2225 H   0  0  0  0  0  0
  -17.5055  -31.6278   24.5167 H   0  0  0  0  0  0
  -15.5384  -30.3005   23.7679 H   0  0  0  0  0  0
  -15.8694  -28.0826   22.7092 H   0  0  0  0  0  0
  -24.5872  -30.7115   25.7719 H   0  0  0  0  0  0
  -24.8879  -32.2963   26.4750 H   0  0  0  0  0  0
  -25.7976  -30.8987   27.0214 H   0  0  0  0  0  0
  -26.2996  -29.6715   24.1248 H   0  0  0  0  0  0
  -27.4019  -29.7256   25.4793 H   0  0  0  0  0  0
  -27.8887  -30.4257   23.9562 H   0  0  0  0  0  0
  -27.2603  -33.3677   26.1973 H   0  0  0  0  0  0
  -28.3878  -32.6862   25.0338 H   0  0  0  0  0  0
  -28.0654  -31.8531   26.5462 H   0  0  0  0  0  0
  -28.2587  -38.0080   24.7518 H   0  0  0  0  0  0
  -28.1067  -36.2606   24.6304 H   0  0  0  0  0  0
  -27.2295  -37.1426   25.8883 H   0  0  0  0  0  0
  -20.9459  -29.8753   21.6791 H   0  0  0  0  0  0
  -26.0158  -38.2823   24.1423 H   0  0  0  0  0  0
  -32.5474  -22.9986   19.3087 H   0  0  0  0  0  0
  -31.6483  -21.8790   20.2891 H   0  0  0  0  0  0
  -32.0761  -23.4576   20.9286 H   0  0  0  0  0  0
  -31.7110  -25.0828   18.5469 H   0  0  0  0  0  0
  -30.8941  -25.6397   19.9975 H   0  0  0  0  0  0
  -30.0193  -25.4722   18.4677 H   0  0  0  0  0  0
  -28.5717  -23.4086   22.4607 H   0  0  0  0  0  0
  -29.8719  -24.5200   22.0632 H   0  0  0  0  0  0
  -30.1941  -22.7976   22.2228 H   0  0  0  0  0  0
  -27.5092  -17.6980   21.2036 H   0  0  0  0  0  0
  -27.1235  -19.4047   21.1820 H   0  0  0  0  0  0
  -28.2894  -18.7797   22.3426 H   0  0  0  0  0  0
  -28.1704  -17.7130   18.7358 H   0  0  0  0  0  0
  -29.2956  -18.9162   18.1353 H   0  0  0  0  0  0
  -27.6913  -19.3982   18.6771 H   0  0  0  0  0  0
  -30.6567  -17.8239   21.5096 H   0  0  0  0  0  0
  -30.9709  -17.7667   19.8144 H   0  0  0  0  0  0
  -28.3301  -21.6349   19.1211 H   0  0  0  0  0  0
  -27.7445  -21.6063   20.7411 H   0  0  0  0  0  0
  -27.1527  -24.3966   20.5921 H   0  0  0  0  0  0
  -27.7779  -24.5114   18.9889 H   0  0  0  0  0  0
  -30.2427  -23.0671   18.5150 H   0  0  0  0  0  0
  -28.8006  -15.9450   20.6765 H   0  0  0  0  0  0
  -29.8893  -20.5489   21.3971 H   0  0  0  0  0  0
  -30.3698  -20.5428   19.8641 H   0  0  0  0  0  0
  1 25  1  0  0  0
  1 30  2  0  0  0
  1 82  1  0  0  0
  2  3  1  0  0  0
  2 25  1  0  0  0
  2 84  1  0  0  0
  2 85  1  0  0  0
  3  4  1  0  0  0
  3 86  1  0  0  0
  3 87  1  0  0  0
  4  5  1  0  0  0
  4 88  1  0  0  0
  4 89  1  0  0  0
  5  6  1  0  0  0
  5 26  1  0  0  0
  5 90  1  0  0  0
  6 25  1  0  0  0
  6 91  1  0  0  0
  6 92  1  0  0  0
  7  8  2  0  0  0
  7 26  1  0  0  0
  7 29  1  0  0  0
  8  9  1  0  0  0
  8 22  1  0  0  0
  9 10  1  0  0  0
  9 27  2  0  0  0
 10 11  2  0  0  0
 10 15  1  0  0  0
 11 12  1  0  0  0
 11 93  1  0  0  0
 12 13  2  0  0  0
 12 94  1  0  0  0
 13 14  1  0  0  0
 13 31  1  0  0  0
 14 15  2  0  0  0
 14 95  1  0  0  0
 15 96  1  0  0  0
 16 17  2  0  0  0
 16 21  1  0  0  0
 16 31  1  0  0  0
 17 18  1  0  0  0
 17 97  1  0  0  0
 18 19  2  0  0  0
 18 98  1  0  0  0
 19 20  1  0  0  0
 19 24  1  0  0  0
 20 21  2  0  0  0
 20 99  1  0  0  0
 21 23  1  0  0  0
 22 28  1  0  0  0
 22 32  2  0  0  0
 26 27  1  0  0  0
 28100  1  0  0  0
 28101  1  0  0  0
 29102  1  0  0  0
 29103  1  0  0  0
 33 34  1  0  0  0
 33 66  1  0  0  0
 33 70  2  0  0  0
 34 36  1  0  0  0
 34 59  1  0  0  0
 34104  1  0  0  0
 35 44  2  0  0  0
 35 45  1  0  0  0
 35 68  1  0  0  0
 36 56  1  0  0  0
 36105  1  0  0  0
 37 39  1  0  0  0
 37 47  1  0  0  0
 37 66  1  0  0  0
 37106  1  0  0  0
 38 43  2  0  0  0
 38 46  1  0  0  0
 38 47  1  0  0  0
 39 64  1  0  0  0
 39 67  2  0  0  0
 40 52  1  0  0  0
 40 53  2  0  0  0
 40 58  1  0  0  0
 41107  1  0  0  0
 41108  1  0  0  0
 41109  1  0  0  0
 41 48  1  0  0  0
 42 43  1  0  0  0
 42 66  1  0  0  0
 42110  1  0  0  0
 42111  1  0  0  0
 43 44  1  0  0  0
 44112  1  0  0  0
 45 46  2  0  0  0
 45113  1  0  0  0
 46114  1  0  0  0
 47115  1  0  0  0
 47116  1  0  0  0
 48 56  1  0  0  0
 48 65  1  0  0  0
 48117  1  0  0  0
 49 50  1  0  0  0
 49 53  1  0  0  0
 49 64  1  0  0  0
 49118  1  0  0  0
 50 51  1  0  0  0
 50119  1  0  0  0
 50120  1  0  0  0
 51 52  1  0  0  0
 51121  1  0  0  0
 51122  1  0  0  0
 52123  1  0  0  0
 52124  1  0  0  0
 53 54  1  0  0  0
 54 55  2  0  0  0
 54125  1  0  0  0
 55 57  1  0  0  0
 55126  1  0  0  0
 56 69  2  0  0  0
 57 58  2  0  0  0
 57127  1  0  0  0
 58128  1  0  0  0
 59 60  1  0  0  0
 59 61  1  0  0  0
 59 62  1  0  0  0
 60129  1  0  0  0
 60130  1  0  0  0
 60131  1  0  0  0
 61132  1  0  0  0
 61133  1  0  0  0
 61134  1  0  0  0
 62135  1  0  0  0
 62136  1  0  0  0
 62137  1  0  0  0
 63 65  1  0  0  0
 63138  1  0  0  0
 63139  1  0  0  0
 63140  1  0  0  0
 64141  1  0  0  0
 65142  1  0  0  0
 68 78  1  0  0  0
 71143  1  0  0  0
 71144  1  0  0  0
 71145  1  0  0  0
 71 79  1  0  0  0
 72 79  1  0  0  0
 72146  1  0  0  0
 72147  1  0  0  0
 72148  1  0  0  0
 73149  1  0  0  0
 73150  1  0  0  0
 73151  1  0  0  0
 73 80  1  0  0  0
 74152  1  0  0  0
 74153  1  0  0  0
 74154  1  0  0  0
 74 81  1  0  0  0
 75 81  1  0  0  0
 75155  1  0  0  0
 75156  1  0  0  0
 75157  1  0  0  0
 76 81  1  0  0  0
 76 82  1  0  0  0
 76158  1  0  0  0
 76159  1  0  0  0
 77 80  1  0  0  0
 77 83  1  0  0  0
 77160  1  0  0  0
 77161  1  0  0  0
 78 80  1  0  0  0
 78162  1  0  0  0
 78163  1  0  0  0
 79 80  1  0  0  0
 79164  1  0  0  0
 81 83  1  0  0  0
 82165  1  0  0  0
 83166  1  0  0  0
 83167  1  0  0  0
M  CHG  1  83   1
M  ISO  4   1 100  68 101  78 101  82 100
M  END
> <chiral flag>
0

> <version>
0

> <s_m_source_file>
/data/baiqing/PycharmProjects/Reinvent-master-3.2/result/LINK_invent/BTK/process_docking_weight1_custom_sum_contain_oxygen_bond_distance_aromatic_linkinvent_7_9_3/rearranged_h_0106.sdf

> <i_m_source_file_index>
92

> <r_mmod_Potential_Energy-OPLS-2005>
322.924011230469

> <r_mmod_Stretch_Energy-OPLS-2005>
284.611602783203

> <r_mmod_Bend_Energy-OPLS-2005>
263.774932861328

> <r_mmod_Torsional_Energy-OPLS-2005>
255.603271484375

> <r_mmod_Improper_Torsional_Energy-OPLS-2005>
4.48868322372437

> <r_mmod_Van_der_Waal_Energy-OPLS-2005>
116.523567199707

> <r_mmod_Electrostatic_Energy-OPLS-2005>
-325.436859130859

> <r_mmod_Solvation_Energy-OPLS-2005>
-463.109985351562

> <b_mmod_Minimization_Converged-OPLS-2005>
0

> <r_mmod_RMS_Derivative-OPLS-2005>
1.67728281021118

$$$$
93
                    3D
 Structure written by MMmdl.
162170  0  0  1  0            999 V2000
  -30.6650  -14.7489   20.4995 C   0  0  0  0  0  0
  -30.4312  -12.4642   19.4842 C   0  0  0  0  0  0
  -29.5136  -12.5291   18.2441 C   0  0  0  0  0  0
  -28.0402  -12.3409   18.6537 C   0  0  0  0  0  0
  -27.6466  -13.2389   19.8569 C   0  0  2  0  0  0
  -28.6973  -13.1904   20.9925 C   0  0  0  0  0  0
  -25.2501  -13.8196   20.5694 C   0  0  0  0  0  0
  -24.1813  -13.0435   20.9182 C   0  0  0  0  0  0
  -24.6424  -11.6915   20.8750 C   0  0  0  0  0  0
  -23.9110  -10.4289   21.0401 C   0  0  0  0  0  0
  -24.3678   -9.4201   21.9187 C   0  0  0  0  0  0
  -23.6334   -8.2251   22.0802 C   0  0  0  0  0  0
  -22.4321   -8.0301   21.3591 C   0  0  0  0  0  0
  -21.9927   -9.0241   20.4679 C   0  0  0  0  0  0
  -22.7263  -10.2106   20.3061 C   0  0  0  0  0  0
  -21.6851   -6.0754   22.5295 C   0  0  0  0  0  0
  -21.3980   -6.5653   23.8231 C   0  0  0  0  0  0
  -21.3654   -5.6817   24.9193 C   0  0  0  0  0  0
  -21.6052   -4.3083   24.7239 C   0  0  0  0  0  0
  -21.8822   -3.8159   23.4359 C   0  0  0  0  0  0
  -21.9177   -4.6969   22.3418 C   0  0  0  0  0  0
  -22.7831  -13.5205   21.1805 C   0  0  0  0  0  0
  -22.1673   -4.2153   21.0994 F   0  0  0  0  0  0
  -21.5621   -3.4590   25.7769 F   0  0  0  0  0  0
  -30.0001  -13.5430   20.4087 N   0  0  0  0  0  0
  -26.2983  -12.9434   20.3363 N   0  0  0  0  0  0
  -25.9379  -11.6568   20.5830 N   0  0  0  0  0  0
  -22.0505  -12.8214   22.0365 N   0  0  0  0  0  0
  -25.4117  -15.1938   20.4093 N   0  0  0  0  0  0
  -31.8425  -14.8247   20.1404 O   0  0  0  0  0  0
  -21.6673   -6.8890   21.4275 O   0  0  0  0  0  0
  -22.3518  -14.5524   20.6648 O   0  0  0  0  0  0
  -24.6259  -31.8582   23.2046 C   0  0  0  0  0  0
  -25.9123  -32.4758   23.8380 C   0  0  1  0  0  0
  -27.2185  -27.3074   20.1097 C   0  0  0  0  0  0
  -25.5943  -33.8563   24.2284 N   0  0  0  0  0  0
  -23.4175  -30.4876   21.5444 C   0  0  2  0  0  0
  -24.8626  -28.9396   20.1077 C   0  0  0  0  0  0
  -22.7451  -29.4643   22.4892 C   0  0  0  0  0  0
  -18.0275  -28.1364   22.8460 C   0  0  0  0  0  0
  -24.1473  -36.7306   23.2635 C   0  0  0  0  0  0
  -25.9599  -30.7823   21.3791 C   0  0  0  0  0  0
  -26.0301  -29.4084   20.7230 C   0  0  0  0  0  0
  -27.2062  -28.6024   20.7182 C   0  0  0  0  0  0
  -26.0385  -26.9112   19.4365 C   0  0  0  0  0  0
  -24.8705  -27.6977   19.4559 C   0  0  0  0  0  0
  -23.6339  -29.8265   20.1588 C   0  0  0  0  0  0
  -25.4101  -36.3072   24.0319 C   0  0  1  0  0  0
  -20.5873  -28.3673   23.1238 C   0  0  2  0  0  0
  -20.6733  -26.9392   22.5373 C   0  0  0  0  0  0
  -19.5728  -26.6372   21.5150 C   0  0  0  0  0  0
  -18.1911  -26.7907   22.1588 C   0  0  0  0  0  0
  -19.1528  -28.8839   23.2850 C   0  0  0  0  0  0
  -18.9466  -30.1432   23.8877 C   0  0  0  0  0  0
  -17.6472  -30.6567   24.0558 C   0  0  0  0  0  0
  -25.9039  -34.9447   23.5105 C   0  0  0  0  0  0
  -16.5360  -29.9066   23.6340 C   0  0  0  0  0  0
  -16.7276  -28.6494   23.0344 C   0  0  0  0  0  0
  -26.4501  -31.6586   25.0766 C   0  0  0  0  0  0
  -25.3759  -31.3741   26.1525 C   0  0  0  0  0  0
  -27.0311  -30.2985   24.6262 C   0  0  0  0  0  0
  -27.6103  -32.4311   25.7519 C   0  0  0  0  0  0
  -27.5566  -37.1803   24.8456 C   0  0  0  0  0  0
  -21.4165  -29.3049   22.3642 N   0  0  0  0  0  0
  -26.4265  -37.3774   23.9419 N   0  0  0  0  0  0
  -24.6881  -31.0595   22.1001 N   0  0  0  0  0  0
  -23.4182  -28.8160   23.2963 O   0  0  0  0  0  0
  -28.3451  -26.4676   20.1942 O   0  0  0  0  0  0
  -26.5608  -34.8910   22.4664 O   0  0  0  0  0  0
  -23.5439  -32.1414   23.7362 O   0  0  0  0  0  0
  -32.0734  -20.9572   20.1315 C   0  0  0  0  0  0
  -31.5773  -20.3574   21.4433 C   0  0  0  0  0  0
  -31.0171  -22.0338   19.9073 C   0  0  0  0  0  0
  -30.0815  -20.1452   21.1644 C   0  0  2  0  0  0
  -27.6130  -21.8305   21.7324 C   0  0  0  0  0  0
  -29.8219  -18.6715   20.4956 C   0  0  0  0  0  0
  -28.8552  -23.9632   20.9326 C   0  0  0  0  0  0
  -30.5039  -17.3259   21.1139 C   0  0  0  0  0  0
  -28.2648  -25.0122   19.8911 C   0  0  0  0  0  0
  -28.5932  -22.3813   20.6744 C   0  0  1  0  0  0
  -29.9773  -15.9083   20.8319 N   0  0  0  0  0  0
  -29.7309  -21.3972   20.3218 N   0  3  1  0  0  0
  -31.4757  -12.5660   19.1830 H   0  0  0  0  0  0
  -30.3514  -11.4923   19.9753 H   0  0  0  0  0  0
  -29.8061  -11.7738   17.5140 H   0  0  0  0  0  0
  -29.6340  -13.4949   17.7512 H   0  0  0  0  0  0
  -27.8972  -11.2902   18.9067 H   0  0  0  0  0  0
  -27.3866  -12.5421   17.8038 H   0  0  0  0  0  0
  -27.6360  -14.2609   19.4798 H   0  0  0  0  0  0
  -28.7393  -12.1953   21.4358 H   0  0  0  0  0  0
  -28.4323  -13.8656   21.8057 H   0  0  0  0  0  0
  -25.2825   -9.5706   22.4735 H   0  0  0  0  0  0
  -24.0019   -7.4663   22.7554 H   0  0  0  0  0  0
  -21.0858   -8.8753   19.9000 H   0  0  0  0  0  0
  -22.3721  -10.9634   19.6170 H   0  0  0  0  0  0
  -21.1942   -7.6156   23.9721 H   0  0  0  0  0  0
  -21.1485   -6.0573   25.9097 H   0  0  0  0  0  0
  -22.0577   -2.7607   23.2903 H   0  0  0  0  0  0
  -22.4193  -11.9875   22.4714 H   0  0  0  0  0  0
  -21.1119  -13.1225   22.2586 H   0  0  0  0  0  0
  -24.6205  -15.8239   20.4791 H   0  0  0  0  0  0
  -26.2484  -15.6475   20.0629 H   0  0  0  0  0  0
  -26.7182  -32.5391   23.1120 H   0  0  0  0  0  0
  -25.0107  -33.9717   25.0448 H   0  0  0  0  0  0
  -22.7113  -31.3094   21.4027 H   0  0  0  0  0  0
  -23.3712  -35.9648   23.3277 H   0  0  0  0  0  0
  -24.3549  -36.8975   22.2052 H   0  0  0  0  0  0
  -23.7275  -37.6522   23.6685 H   0  0  0  0  0  0
  -26.0897  -31.5416   20.6053 H   0  0  0  0  0  0
  -26.8418  -30.8307   22.0075 H   0  0  0  0  0  0
  -28.0983  -28.9556   21.2169 H   0  0  0  0  0  0
  -25.9760  -25.9944   18.8687 H   0  0  0  0  0  0
  -23.9840  -27.3462   18.9456 H   0  0  0  0  0  0
  -23.7506  -30.6078   19.4059 H   0  0  0  0  0  0
  -22.7513  -29.2634   19.8523 H   0  0  0  0  0  0
  -25.1266  -36.1904   25.0805 H   0  0  0  0  0  0
  -20.9974  -28.3245   24.1352 H   0  0  0  0  0  0
  -20.5534  -26.2301   23.3586 H   0  0  0  0  0  0
  -21.6610  -26.7335   22.1238 H   0  0  0  0  0  0
  -19.6879  -25.6274   21.1211 H   0  0  0  0  0  0
  -19.6673  -27.3145   20.6667 H   0  0  0  0  0  0
  -17.4161  -26.6642   21.4009 H   0  0  0  0  0  0
  -18.0339  -26.0024   22.8986 H   0  0  0  0  0  0
  -19.7942  -30.7231   24.2241 H   0  0  0  0  0  0
  -17.5040  -31.6248   24.5153 H   0  0  0  0  0  0
  -15.5364  -30.2967   23.7677 H   0  0  0  0  0  0
  -15.8674  -28.0825   22.7064 H   0  0  0  0  0  0
  -24.5956  -30.7018   25.7935 H   0  0  0  0  0  0
  -24.8889  -32.2877   26.4945 H   0  0  0  0  0  0
  -25.8123  -30.9008   27.0325 H   0  0  0  0  0  0
  -26.2874  -29.6755   24.1270 H   0  0  0  0  0  0
  -27.3935  -29.7253   25.4811 H   0  0  0  0  0  0
  -27.8784  -30.4215   23.9512 H   0  0  0  0  0  0
  -27.2774  -33.3645   26.2069 H   0  0  0  0  0  0
  -28.3927  -32.6823   25.0343 H   0  0  0  0  0  0
  -28.0729  -31.8441   26.5461 H   0  0  0  0  0  0
  -28.2579  -38.0102   24.7483 H   0  0  0  0  0  0
  -28.1077  -36.2645   24.6271 H   0  0  0  0  0  0
  -27.2291  -37.1449   25.8859 H   0  0  0  0  0  0
  -20.9309  -29.8892   21.6969 H   0  0  0  0  0  0
  -26.0135  -38.2834   24.1439 H   0  0  0  0  0  0
  -32.0484  -20.2099   19.3339 H   0  0  0  0  0  0
  -33.0835  -21.3602   20.1822 H   0  0  0  0  0  0
  -31.7008  -21.1000   22.2389 H   0  0  0  0  0  0
  -32.1085  -19.4650   21.7696 H   0  0  0  0  0  0
  -31.0025  -22.4327   18.8879 H   0  0  0  0  0  0
  -31.3048  -22.8553   20.5683 H   0  0  0  0  0  0
  -29.5755  -20.1678   22.1283 H   0  0  0  0  0  0
  -26.6955  -22.4227   21.7495 H   0  0  0  0  0  0
  -28.0378  -21.8629   22.7373 H   0  0  0  0  0  0
  -27.3181  -20.8019   21.5186 H   0  0  0  0  0  0
  -30.1398  -18.7273   19.4551 H   0  0  0  0  0  0
  -28.7441  -18.5244   20.4501 H   0  0  0  0  0  0
  -28.3516  -24.2094   21.8708 H   0  0  0  0  0  0
  -29.8861  -24.2141   21.1635 H   0  0  0  0  0  0
  -30.4817  -17.4342   22.1965 H   0  0  0  0  0  0
  -31.5663  -17.3470   20.8559 H   0  0  0  0  0  0
  -27.2463  -24.6768   19.7202 H   0  0  0  0  0  0
  -28.7871  -24.8663   18.9441 H   0  0  0  0  0  0
  -28.0202  -22.3688   19.7474 H   0  0  0  0  0  0
  -29.0070  -15.7568   21.0629 H   0  0  0  0  0  0
  -29.3921  -20.9815   19.4668 H   0  0  0  0  0  0
  1 25  1  0  0  0
  1 30  2  0  0  0
  1 81  1  0  0  0
  2  3  1  0  0  0
  2 25  1  0  0  0
  2 83  1  0  0  0
  2 84  1  0  0  0
  3  4  1  0  0  0
  3 85  1  0  0  0
  3 86  1  0  0  0
  4  5  1  0  0  0
  4 87  1  0  0  0
  4 88  1  0  0  0
  5  6  1  0  0  0
  5 26  1  0  0  0
  5 89  1  0  0  0
  6 25  1  0  0  0
  6 90  1  0  0  0
  6 91  1  0  0  0
  7  8  2  0  0  0
  7 26  1  0  0  0
  7 29  1  0  0  0
  8  9  1  0  0  0
  8 22  1  0  0  0
  9 10  1  0  0  0
  9 27  2  0  0  0
 10 11  2  0  0  0
 10 15  1  0  0  0
 11 12  1  0  0  0
 11 92  1  0  0  0
 12 13  2  0  0  0
 12 93  1  0  0  0
 13 14  1  0  0  0
 13 31  1  0  0  0
 14 15  2  0  0  0
 14 94  1  0  0  0
 15 95  1  0  0  0
 16 17  2  0  0  0
 16 21  1  0  0  0
 16 31  1  0  0  0
 17 18  1  0  0  0
 17 96  1  0  0  0
 18 19  2  0  0  0
 18 97  1  0  0  0
 19 20  1  0  0  0
 19 24  1  0  0  0
 20 21  2  0  0  0
 20 98  1  0  0  0
 21 23  1  0  0  0
 22 28  1  0  0  0
 22 32  2  0  0  0
 26 27  1  0  0  0
 28 99  1  0  0  0
 28100  1  0  0  0
 29101  1  0  0  0
 29102  1  0  0  0
 33 34  1  0  0  0
 33 66  1  0  0  0
 33 70  2  0  0  0
 34 36  1  0  0  0
 34 59  1  0  0  0
 34103  1  0  0  0
 35 44  2  0  0  0
 35 45  1  0  0  0
 35 68  1  0  0  0
 36 56  1  0  0  0
 36104  1  0  0  0
 37 39  1  0  0  0
 37 47  1  0  0  0
 37 66  1  0  0  0
 37105  1  0  0  0
 38 43  2  0  0  0
 38 46  1  0  0  0
 38 47  1  0  0  0
 39 64  1  0  0  0
 39 67  2  0  0  0
 40 52  1  0  0  0
 40 53  2  0  0  0
 40 58  1  0  0  0
 41106  1  0  0  0
 41107  1  0  0  0
 41108  1  0  0  0
 41 48  1  0  0  0
 42 43  1  0  0  0
 42 66  1  0  0  0
 42109  1  0  0  0
 42110  1  0  0  0
 43 44  1  0  0  0
 44111  1  0  0  0
 45 46  2  0  0  0
 45112  1  0  0  0
 46113  1  0  0  0
 47114  1  0  0  0
 47115  1  0  0  0
 48 56  1  0  0  0
 48 65  1  0  0  0
 48116  1  0  0  0
 49 50  1  0  0  0
 49 53  1  0  0  0
 49 64  1  0  0  0
 49117  1  0  0  0
 50 51  1  0  0  0
 50118  1  0  0  0
 50119  1  0  0  0
 51 52  1  0  0  0
 51120  1  0  0  0
 51121  1  0  0  0
 52122  1  0  0  0
 52123  1  0  0  0
 53 54  1  0  0  0
 54 55  2  0  0  0
 54124  1  0  0  0
 55 57  1  0  0  0
 55125  1  0  0  0
 56 69  2  0  0  0
 57 58  2  0  0  0
 57126  1  0  0  0
 58127  1  0  0  0
 59 60  1  0  0  0
 59 61  1  0  0  0
 59 62  1  0  0  0
 60128  1  0  0  0
 60129  1  0  0  0
 60130  1  0  0  0
 61131  1  0  0  0
 61132  1  0  0  0
 61133  1  0  0  0
 62134  1  0  0  0
 62135  1  0  0  0
 62136  1  0  0  0
 63 65  1  0  0  0
 63137  1  0  0  0
 63138  1  0  0  0
 63139  1  0  0  0
 64140  1  0  0  0
 65141  1  0  0  0
 68 79  1  0  0  0
 71 72  1  0  0  0
 71 73  1  0  0  0
 71142  1  0  0  0
 71143  1  0  0  0
 72 74  1  0  0  0
 72144  1  0  0  0
 72145  1  0  0  0
 73146  1  0  0  0
 73147  1  0  0  0
 73 82  1  0  0  0
 74 76  1  0  0  0
 74 82  1  0  0  0
 74148  1  0  0  0
 75149  1  0  0  0
 75150  1  0  0  0
 75151  1  0  0  0
 75 80  1  0  0  0
 76 78  1  0  0  0
 76152  1  0  0  0
 76153  1  0  0  0
 77 79  1  0  0  0
 77 80  1  0  0  0
 77154  1  0  0  0
 77155  1  0  0  0
 78 81  1  0  0  0
 78156  1  0  0  0
 78157  1  0  0  0
 79158  1  0  0  0
 79159  1  0  0  0
 80 82  1  0  0  0
 80160  1  0  0  0
 81161  1  0  0  0
 82162  1  0  0  0
M  CHG  1  82   1
M  ISO  4   1 100  68 101  79 101  81 100
M  END
> <chiral flag>
0

> <version>
0

> <s_m_source_file>
/data/baiqing/PycharmProjects/Reinvent-master-3.2/result/LINK_invent/BTK/process_docking_weight1_custom_sum_contain_oxygen_bond_distance_aromatic_linkinvent_7_9_3/rearranged_h_0106.sdf

> <i_m_source_file_index>
93

> <r_mmod_Potential_Energy-OPLS-2005>
205.830932617188

> <r_mmod_Stretch_Energy-OPLS-2005>
124.889343261719

> <r_mmod_Bend_Energy-OPLS-2005>
239.940307617188

> <r_mmod_Torsional_Energy-OPLS-2005>
288.557891845703

> <r_mmod_Improper_Torsional_Energy-OPLS-2005>
3.7845675945282

> <r_mmod_Van_der_Waal_Energy-OPLS-2005>
128.700042724609

> <r_mmod_Electrostatic_Energy-OPLS-2005>
-207.795928955078

> <r_mmod_Solvation_Energy-OPLS-2005>
-446.674621582031

> <b_mmod_Minimization_Converged-OPLS-2005>
0

> <r_mmod_RMS_Derivative-OPLS-2005>
6.10638523101807

$$$$
94
                    3D
 Structure written by MMmdl.
173182  0  0  1  0            999 V2000
  -30.6166  -14.7215   20.4549 C   0  0  0  0  0  0
  -30.4315  -12.4355   19.4752 C   0  0  0  0  0  0
  -29.5117  -12.5107   18.2362 C   0  0  0  0  0  0
  -28.0352  -12.3425   18.6444 C   0  0  0  0  0  0
  -27.6456  -13.2321   19.8560 C   0  0  2  0  0  0
  -28.6903  -13.1494   20.9913 C   0  0  0  0  0  0
  -25.2525  -13.8204   20.5690 C   0  0  0  0  0  0
  -24.1815  -13.0447   20.9194 C   0  0  0  0  0  0
  -24.6406  -11.6923   20.8739 C   0  0  0  0  0  0
  -23.9082  -10.4300   21.0414 C   0  0  0  0  0  0
  -24.3632   -9.4210   21.9183 C   0  0  0  0  0  0
  -23.6301   -8.2248   22.0754 C   0  0  0  0  0  0
  -22.4281   -8.0291   21.3546 C   0  0  0  0  0  0
  -21.9919   -9.0269   20.4649 C   0  0  0  0  0  0
  -22.7258  -10.2141   20.3062 C   0  0  0  0  0  0
  -21.6863   -6.0740   22.5277 C   0  0  0  0  0  0
  -21.4019   -6.5640   23.8208 C   0  0  0  0  0  0
  -21.3660   -5.6793   24.9169 C   0  0  0  0  0  0
  -21.6050   -4.3057   24.7221 C   0  0  0  0  0  0
  -21.8820   -3.8150   23.4343 C   0  0  0  0  0  0
  -21.9196   -4.6968   22.3400 C   0  0  0  0  0  0
  -22.7837  -13.5225   21.1868 C   0  0  0  0  0  0
  -22.1663   -4.2152   21.0976 F   0  0  0  0  0  0
  -21.5627   -3.4540   25.7734 F   0  0  0  0  0  0
  -29.9961  -13.4934   20.4155 N   0  0  0  0  0  0
  -26.2959  -12.9411   20.3304 N   0  0  0  0  0  0
  -25.9340  -11.6551   20.5752 N   0  0  0  0  0  0
  -22.0493  -12.8203   22.0424 N   0  0  0  0  0  0
  -25.4209  -15.1932   20.4093 N   0  0  0  0  0  0
  -31.7934  -14.8328   20.1032 O   0  0  0  0  0  0
  -21.6646   -6.8887   21.4240 O   0  0  0  0  0  0
  -22.3516  -14.5531   20.6720 O   0  0  0  0  0  0
  -24.6309  -31.8554   23.1981 C   0  0  0  0  0  0
  -25.9137  -32.4753   23.8326 C   0  0  1  0  0  0
  -27.2220  -27.2647   20.1240 C   0  0  0  0  0  0
  -25.5931  -33.8558   24.2248 N   0  0  0  0  0  0
  -23.4278  -30.4770   21.5415 C   0  0  2  0  0  0
  -24.8758  -28.9261   20.1075 C   0  0  0  0  0  0
  -22.7503  -29.4598   22.4912 C   0  0  0  0  0  0
  -18.0286  -28.1393   22.8482 C   0  0  0  0  0  0
  -24.1491  -36.7282   23.2638 C   0  0  0  0  0  0
  -25.9738  -30.7669   21.3802 C   0  0  0  0  0  0
  -26.0463  -29.3910   20.7199 C   0  0  0  0  0  0
  -27.2204  -28.5718   20.7184 C   0  0  0  0  0  0
  -26.0310  -26.8725   19.4716 C   0  0  0  0  0  0
  -24.8742  -27.6755   19.4713 C   0  0  0  0  0  0
  -23.6457  -29.8112   20.1573 C   0  0  0  0  0  0
  -25.4120  -36.3070   24.0320 C   0  0  1  0  0  0
  -20.5889  -28.3701   23.1273 C   0  0  2  0  0  0
  -20.6778  -26.9419   22.5410 C   0  0  0  0  0  0
  -19.5752  -26.6386   21.5217 C   0  0  0  0  0  0
  -18.1931  -26.7932   22.1627 C   0  0  0  0  0  0
  -19.1540  -28.8864   23.2869 C   0  0  0  0  0  0
  -18.9462  -30.1465   23.8887 C   0  0  0  0  0  0
  -17.6462  -30.6593   24.0567 C   0  0  0  0  0  0
  -25.9059  -34.9441   23.5086 C   0  0  0  0  0  0
  -16.5352  -29.9091   23.6335 C   0  0  0  0  0  0
  -16.7273  -28.6510   23.0352 C   0  0  0  0  0  0
  -26.4500  -31.6583   25.0720 C   0  0  0  0  0  0
  -25.3715  -31.3745   26.1432 C   0  0  0  0  0  0
  -27.0350  -30.2994   24.6225 C   0  0  0  0  0  0
  -27.6044  -32.4335   25.7498 C   0  0  0  0  0  0
  -27.5579  -37.1799   24.8462 C   0  0  0  0  0  0
  -21.4207  -29.3046   22.3662 N   0  0  0  0  0  0
  -26.4295  -37.3769   23.9403 N   0  0  0  0  0  0
  -24.6962  -31.0513   22.0959 N   0  0  0  0  0  0
  -23.4199  -28.8142   23.3016 O   0  0  0  0  0  0
  -28.3192  -26.3749   20.1979 O   0  0  0  0  0  0
  -26.5636  -34.8916   22.4657 O   0  0  0  0  0  0
  -23.5460  -32.1383   23.7269 O   0  0  0  0  0  0
  -28.5932  -21.7995   19.0254 C   0  0  0  0  0  0
  -29.3358  -21.1655   20.9978 C   0  0  0  0  0  0
  -28.6305  -20.4160   19.0336 C   0  0  0  0  0  0
  -29.1011  -19.9670   20.3164 C   0  0  0  0  0  0
  -26.6872  -19.2057   17.9657 C   0  0  0  0  0  0
  -28.5275  -20.1036   16.5004 C   0  0  0  0  0  0
  -26.2454  -18.2896   16.8075 C   0  0  0  0  0  0
  -28.0523  -19.1669   15.3725 C   0  0  0  0  0  0
  -28.1924  -19.5208   17.8891 C   0  0  0  0  0  0
  -29.0238  -23.9589   22.1363 C   0  0  0  0  0  0
  -30.5692  -24.2206   20.1825 C   0  0  0  0  0  0
  -29.1546  -18.4607   20.8611 C   0  0  0  0  0  0
  -30.1340  -17.3040   20.2978 C   0  0  0  0  0  0
  -28.1235  -24.8978   19.9637 C   0  0  0  0  0  0
  -29.1477  -23.8146   20.6072 C   0  0  0  0  0  0
  -28.9849  -22.3227   20.2461 N   0  0  0  0  0  0
  -29.8376  -15.8458   20.6628 N   0  0  0  0  0  0
  -26.6084  -18.8703   15.4963 N   0  3  0  0  0  0
  -31.4751  -12.5502   19.1772 H   0  0  0  0  0  0
  -30.3615  -11.4547   19.9482 H   0  0  0  0  0  0
  -29.7876  -11.7430   17.5118 H   0  0  0  0  0  0
  -29.6486  -13.4703   17.7352 H   0  0  0  0  0  0
  -27.8811  -11.2916   18.8912 H   0  0  0  0  0  0
  -27.3833  -12.5537   17.7958 H   0  0  0  0  0  0
  -27.6435  -14.2574   19.4855 H   0  0  0  0  0  0
  -28.7172  -12.1473   21.4225 H   0  0  0  0  0  0
  -28.4303  -13.8250   21.8077 H   0  0  0  0  0  0
  -25.2784   -9.5683   22.4747 H   0  0  0  0  0  0
  -24.0018   -7.4641   22.7471 H   0  0  0  0  0  0
  -21.0855   -8.8797   19.8945 H   0  0  0  0  0  0
  -22.3733  -10.9682   19.6163 H   0  0  0  0  0  0
  -21.2005   -7.6147   23.9715 H   0  0  0  0  0  0
  -21.1483   -6.0518   25.9073 H   0  0  0  0  0  0
  -22.0596   -2.7611   23.2844 H   0  0  0  0  0  0
  -22.4126  -11.9858   22.4788 H   0  0  0  0  0  0
  -21.1112  -13.1217   22.2647 H   0  0  0  0  0  0
  -24.6533  -15.8454   20.5272 H   0  0  0  0  0  0
  -26.2697  -15.6373   20.0862 H   0  0  0  0  0  0
  -26.7200  -32.5398   23.1065 H   0  0  0  0  0  0
  -25.0075  -33.9697   25.0391 H   0  0  0  0  0  0
  -22.7239  -31.2988   21.3953 H   0  0  0  0  0  0
  -23.3757  -35.9611   23.3302 H   0  0  0  0  0  0
  -24.3576  -36.8909   22.2052 H   0  0  0  0  0  0
  -23.7245  -37.6480   23.6669 H   0  0  0  0  0  0
  -26.1152  -31.5287   20.6123 H   0  0  0  0  0  0
  -26.8498  -30.8130   22.0153 H   0  0  0  0  0  0
  -28.1143  -28.9212   21.2164 H   0  0  0  0  0  0
  -25.9646  -25.9217   18.9645 H   0  0  0  0  0  0
  -23.9809  -27.3178   18.9781 H   0  0  0  0  0  0
  -23.7679  -30.5876   19.4013 H   0  0  0  0  0  0
  -22.7648  -29.2427   19.8538 H   0  0  0  0  0  0
  -25.1306  -36.1914   25.0814 H   0  0  0  0  0  0
  -20.9974  -28.3282   24.1397 H   0  0  0  0  0  0
  -20.5691  -26.2310   23.3617 H   0  0  0  0  0  0
  -21.6646  -26.7455   22.1199 H   0  0  0  0  0  0
  -19.6919  -25.6295   21.1255 H   0  0  0  0  0  0
  -19.6695  -27.3193   20.6746 H   0  0  0  0  0  0
  -17.4204  -26.6678   21.4028 H   0  0  0  0  0  0
  -18.0330  -26.0079   22.9029 H   0  0  0  0  0  0
  -19.7938  -30.7287   24.2252 H   0  0  0  0  0  0
  -17.5015  -31.6271   24.5170 H   0  0  0  0  0  0
  -15.5352  -30.2993   23.7667 H   0  0  0  0  0  0
  -15.8672  -28.0832   22.7073 H   0  0  0  0  0  0
  -24.5881  -30.7106   25.7757 H   0  0  0  0  0  0
  -24.8914  -32.2922   26.4841 H   0  0  0  0  0  0
  -25.8014  -30.8926   27.0220 H   0  0  0  0  0  0
  -26.2944  -29.6734   24.1229 H   0  0  0  0  0  0
  -27.3998  -29.7263   25.4760 H   0  0  0  0  0  0
  -27.8837  -30.4255   23.9498 H   0  0  0  0  0  0
  -27.2637  -33.3636   26.2060 H   0  0  0  0  0  0
  -28.3862  -32.6897   25.0335 H   0  0  0  0  0  0
  -28.0705  -31.8474   26.5430 H   0  0  0  0  0  0
  -28.2594  -38.0098   24.7508 H   0  0  0  0  0  0
  -28.1079  -36.2628   24.6295 H   0  0  0  0  0  0
  -27.2291  -37.1453   25.8863 H   0  0  0  0  0  0
  -20.9397  -29.8762   21.6861 H   0  0  0  0  0  0
  -26.0170  -38.2842   24.1405 H   0  0  0  0  0  0
  -28.3000  -22.4755   18.2336 H   0  0  0  0  0  0
  -29.7013  -21.2919   22.0077 H   0  0  0  0  0  0
  -26.4529  -18.7246   18.9162 H   0  0  0  0  0  0
  -26.1122  -20.1321   17.9424 H   0  0  0  0  0  0
  -28.0563  -21.0779   16.3707 H   0  0  0  0  0  0
  -29.6025  -20.2653   16.4120 H   0  0  0  0  0  0
  -25.1679  -18.1240   16.8435 H   0  0  0  0  0  0
  -26.7142  -17.3093   16.9071 H   0  0  0  0  0  0
  -28.6143  -18.2325   15.3978 H   0  0  0  0  0  0
  -28.2443  -19.6191   14.3989 H   0  0  0  0  0  0
  -28.7370  -18.5825   17.9847 H   0  0  0  0  0  0
  -29.0705  -25.0051   22.4403 H   0  0  0  0  0  0
  -29.8225  -23.4391   22.6641 H   0  0  0  0  0  0
  -28.0723  -23.5600   22.4898 H   0  0  0  0  0  0
  -30.8074  -25.2333   20.5096 H   0  0  0  0  0  0
  -30.6781  -24.1915   19.0977 H   0  0  0  0  0  0
  -31.3192  -23.5526   20.6075 H   0  0  0  0  0  0
  -28.1341  -18.0903   20.7616 H   0  0  0  0  0  0
  -29.3183  -18.5289   21.9373 H   0  0  0  0  0  0
  -31.1571  -17.5381   20.5960 H   0  0  0  0  0  0
  -30.1372  -17.3443   19.2096 H   0  0  0  0  0  0
  -27.1322  -24.6174   20.3208 H   0  0  0  0  0  0
  -28.1024  -24.7552   18.8829 H   0  0  0  0  0  0
  -28.8916  -15.6514   20.9527 H   0  0  0  0  0  0
  -26.0804  -19.7152   15.3468 H   0  0  0  0  0  0
  -26.3436  -18.2260   14.7676 H   0  0  0  0  0  0
  1 25  1  0  0  0
  1 30  2  0  0  0
  1 87  1  0  0  0
  2  3  1  0  0  0
  2 25  1  0  0  0
  2 89  1  0  0  0
  2 90  1  0  0  0
  3  4  1  0  0  0
  3 91  1  0  0  0
  3 92  1  0  0  0
  4  5  1  0  0  0
  4 93  1  0  0  0
  4 94  1  0  0  0
  5  6  1  0  0  0
  5 26  1  0  0  0
  5 95  1  0  0  0
  6 25  1  0  0  0
  6 96  1  0  0  0
  6 97  1  0  0  0
  7  8  2  0  0  0
  7 26  1  0  0  0
  7 29  1  0  0  0
  8  9  1  0  0  0
  8 22  1  0  0  0
  9 10  1  0  0  0
  9 27  2  0  0  0
 10 11  2  0  0  0
 10 15  1  0  0  0
 11 12  1  0  0  0
 11 98  1  0  0  0
 12 13  2  0  0  0
 12 99  1  0  0  0
 13 14  1  0  0  0
 13 31  1  0  0  0
 14 15  2  0  0  0
 14100  1  0  0  0
 15101  1  0  0  0
 16 17  2  0  0  0
 16 21  1  0  0  0
 16 31  1  0  0  0
 17 18  1  0  0  0
 17102  1  0  0  0
 18 19  2  0  0  0
 18103  1  0  0  0
 19 20  1  0  0  0
 19 24  1  0  0  0
 20 21  2  0  0  0
 20104  1  0  0  0
 21 23  1  0  0  0
 22 28  1  0  0  0
 22 32  2  0  0  0
 26 27  1  0  0  0
 28105  1  0  0  0
 28106  1  0  0  0
 29107  1  0  0  0
 29108  1  0  0  0
 33 34  1  0  0  0
 33 66  1  0  0  0
 33 70  2  0  0  0
 34 36  1  0  0  0
 34 59  1  0  0  0
 34109  1  0  0  0
 35 44  2  0  0  0
 35 45  1  0  0  0
 35 68  1  0  0  0
 36 56  1  0  0  0
 36110  1  0  0  0
 37 39  1  0  0  0
 37 47  1  0  0  0
 37 66  1  0  0  0
 37111  1  0  0  0
 38 43  2  0  0  0
 38 46  1  0  0  0
 38 47  1  0  0  0
 39 64  1  0  0  0
 39 67  2  0  0  0
 40 52  1  0  0  0
 40 53  2  0  0  0
 40 58  1  0  0  0
 41112  1  0  0  0
 41113  1  0  0  0
 41114  1  0  0  0
 41 48  1  0  0  0
 42 43  1  0  0  0
 42 66  1  0  0  0
 42115  1  0  0  0
 42116  1  0  0  0
 43 44  1  0  0  0
 44117  1  0  0  0
 45 46  2  0  0  0
 45118  1  0  0  0
 46119  1  0  0  0
 47120  1  0  0  0
 47121  1  0  0  0
 48 56  1  0  0  0
 48 65  1  0  0  0
 48122  1  0  0  0
 49 50  1  0  0  0
 49 53  1  0  0  0
 49 64  1  0  0  0
 49123  1  0  0  0
 50 51  1  0  0  0
 50124  1  0  0  0
 50125  1  0  0  0
 51 52  1  0  0  0
 51126  1  0  0  0
 51127  1  0  0  0
 52128  1  0  0  0
 52129  1  0  0  0
 53 54  1  0  0  0
 54 55  2  0  0  0
 54130  1  0  0  0
 55 57  1  0  0  0
 55131  1  0  0  0
 56 69  2  0  0  0
 57 58  2  0  0  0
 57132  1  0  0  0
 58133  1  0  0  0
 59 60  1  0  0  0
 59 61  1  0  0  0
 59 62  1  0  0  0
 60134  1  0  0  0
 60135  1  0  0  0
 60136  1  0  0  0
 61137  1  0  0  0
 61138  1  0  0  0
 61139  1  0  0  0
 62140  1  0  0  0
 62141  1  0  0  0
 62142  1  0  0  0
 63 65  1  0  0  0
 63143  1  0  0  0
 63144  1  0  0  0
 63145  1  0  0  0
 64146  1  0  0  0
 65147  1  0  0  0
 68 84  1  0  0  0
 71 73  2  0  0  0
 71 86  1  0  0  0
 71148  1  0  0  0
 72 74  2  0  0  0
 72 86  1  0  0  0
 72149  1  0  0  0
 73 74  1  0  0  0
 73 79  1  0  0  0
 74 82  1  0  0  0
 75 77  1  0  0  0
 75 79  1  0  0  0
 75150  1  0  0  0
 75151  1  0  0  0
 76 78  1  0  0  0
 76 79  1  0  0  0
 76152  1  0  0  0
 76153  1  0  0  0
 77 88  1  0  0  0
 77154  1  0  0  0
 77155  1  0  0  0
 78 88  1  0  0  0
 78156  1  0  0  0
 78157  1  0  0  0
 79158  1  0  0  0
 80159  1  0  0  0
 80160  1  0  0  0
 80161  1  0  0  0
 80 85  1  0  0  0
 81 85  1  0  0  0
 81162  1  0  0  0
 81163  1  0  0  0
 81164  1  0  0  0
 82 83  1  0  0  0
 82165  1  0  0  0
 82166  1  0  0  0
 83 87  1  0  0  0
 83167  1  0  0  0
 83168  1  0  0  0
 84 85  1  0  0  0
 84169  1  0  0  0
 84170  1  0  0  0
 85 86  1  0  0  0
 87171  1  0  0  0
 88172  1  0  0  0
 88173  1  0  0  0
M  CHG  1  88   1
M  ISO  4   1 100  68 101  84 101  87 100
M  END
> <chiral flag>
0

> <version>
0

> <s_m_source_file>
/data/baiqing/PycharmProjects/Reinvent-master-3.2/result/LINK_invent/BTK/process_docking_weight1_custom_sum_contain_oxygen_bond_distance_aromatic_linkinvent_7_9_3/rearranged_h_0106.sdf

> <i_m_source_file_index>
94

> <r_mmod_Potential_Energy-OPLS-2005>
-35.2897605895996

> <r_mmod_Stretch_Energy-OPLS-2005>
122.283554077148

> <r_mmod_Bend_Energy-OPLS-2005>
168.326095581055

> <r_mmod_Torsional_Energy-OPLS-2005>
277.349792480469

> <r_mmod_Improper_Torsional_Energy-OPLS-2005>
7.07049465179443

> <r_mmod_Van_der_Waal_Energy-OPLS-2005>
116.199844360352

> <r_mmod_Electrostatic_Energy-OPLS-2005>
-326.444793701172

> <r_mmod_Solvation_Energy-OPLS-2005>
-479.204010009766

> <b_mmod_Minimization_Converged-OPLS-2005>
0

> <r_mmod_RMS_Derivative-OPLS-2005>
1.05438196659088

$$$$
95
                    3D
 Structure written by MMmdl.
172180  0  0  1  0            999 V2000
  -30.5441  -15.0083   20.3537 C   0  0  0  0  0  0
  -30.4402  -12.6224   19.4767 C   0  0  0  0  0  0
  -29.5142  -12.4956   18.2467 C   0  0  0  0  0  0
  -28.0524  -12.2715   18.6816 C   0  0  0  0  0  0
  -27.6160  -13.2210   19.8269 C   0  0  2  0  0  0
  -28.6742  -13.3320   20.9450 C   0  0  0  0  0  0
  -25.2470  -13.8116   20.5782 C   0  0  0  0  0  0
  -24.1761  -13.0386   20.9263 C   0  0  0  0  0  0
  -24.6353  -11.6863   20.8803 C   0  0  0  0  0  0
  -23.9032  -10.4259   21.0435 C   0  0  0  0  0  0
  -24.3599   -9.4181   21.9200 C   0  0  0  0  0  0
  -23.6282   -8.2217   22.0756 C   0  0  0  0  0  0
  -22.4262   -8.0266   21.3544 C   0  0  0  0  0  0
  -21.9892   -9.0236   20.4644 C   0  0  0  0  0  0
  -22.7215  -10.2118   20.3064 C   0  0  0  0  0  0
  -21.6848   -6.0728   22.5277 C   0  0  0  0  0  0
  -21.4013   -6.5637   23.8210 C   0  0  0  0  0  0
  -21.3652   -5.6792   24.9173 C   0  0  0  0  0  0
  -21.6040   -4.3055   24.7221 C   0  0  0  0  0  0
  -21.8825   -3.8143   23.4344 C   0  0  0  0  0  0
  -21.9195   -4.6956   22.3402 C   0  0  0  0  0  0
  -22.7793  -13.5190   21.1894 C   0  0  0  0  0  0
  -22.1663   -4.2152   21.0976 F   0  0  0  0  0  0
  -21.5627   -3.4535   25.7731 F   0  0  0  0  0  0
  -29.9301  -13.7506   20.3062 N   0  0  0  0  0  0
  -26.2840  -12.9270   20.3310 N   0  0  0  0  0  0
  -25.9274  -11.6436   20.5805 N   0  0  0  0  0  0
  -22.0426  -12.8198   22.0446 N   0  0  0  0  0  0
  -25.4178  -15.1845   20.4260 N   0  0  0  0  0  0
  -31.7782  -15.0167   20.2857 O   0  0  0  0  0  0
  -21.6623   -6.8867   21.4241 O   0  0  0  0  0  0
  -22.3498  -14.5496   20.6722 O   0  0  0  0  0  0
  -24.6445  -31.8423   23.1852 C   0  0  0  0  0  0
  -25.9206  -32.4687   23.8255 C   0  0  1  0  0  0
  -27.2249  -27.1192   20.1689 C   0  0  0  0  0  0
  -25.5948  -33.8495   24.2175 N   0  0  0  0  0  0
  -23.4501  -30.4579   21.5316 C   0  0  2  0  0  0
  -24.9018  -28.8742   20.1178 C   0  0  0  0  0  0
  -22.7575  -29.4535   22.4866 C   0  0  0  0  0  0
  -18.0306  -28.1398   22.8476 C   0  0  0  0  0  0
  -24.1492  -36.7251   23.2645 C   0  0  0  0  0  0
  -26.0062  -30.7117   21.3850 C   0  0  0  0  0  0
  -26.0798  -29.3185   20.7324 C   0  0  0  0  0  0
  -27.2450  -28.4602   20.7326 C   0  0  0  0  0  0
  -26.0199  -26.7721   19.5237 C   0  0  0  0  0  0
  -24.8854  -27.6151   19.4958 C   0  0  0  0  0  0
  -23.6786  -29.7797   20.1541 C   0  0  0  0  0  0
  -25.4127  -36.3029   24.0313 C   0  0  1  0  0  0
  -20.5917  -28.3725   23.1238 C   0  0  2  0  0  0
  -20.6789  -26.9428   22.5409 C   0  0  0  0  0  0
  -19.5764  -26.6381   21.5216 C   0  0  0  0  0  0
  -18.1944  -26.7935   22.1625 C   0  0  0  0  0  0
  -19.1560  -28.8881   23.2845 C   0  0  0  0  0  0
  -18.9478  -30.1476   23.8871 C   0  0  0  0  0  0
  -17.6473  -30.6594   24.0559 C   0  0  0  0  0  0
  -25.9075  -34.9403   23.5055 C   0  0  0  0  0  0
  -16.5365  -29.9085   23.6338 C   0  0  0  0  0  0
  -16.7288  -28.6505   23.0356 C   0  0  0  0  0  0
  -26.4524  -31.6561   25.0705 C   0  0  0  0  0  0
  -25.3701  -31.3756   26.1394 C   0  0  0  0  0  0
  -27.0393  -30.2956   24.6296 C   0  0  0  0  0  0
  -27.6049  -32.4336   25.7492 C   0  0  0  0  0  0
  -27.5573  -37.1787   24.8468 C   0  0  0  0  0  0
  -21.4265  -29.3042   22.3607 N   0  0  0  0  0  0
  -26.4291  -37.3740   23.9400 N   0  0  0  0  0  0
  -24.7204  -31.0257   22.0894 N   0  0  0  0  0  0
  -23.4206  -28.8100   23.3040 O   0  0  0  0  0  0
  -28.2913  -26.1451   20.1670 O   0  0  0  0  0  0
  -26.5668  -34.8905   22.4638 O   0  0  0  0  0  0
  -23.5560  -32.1305   23.7064 O   0  0  0  0  0  0
  -30.2451  -22.6005   21.9150 C   0  0  0  0  0  0
  -30.6765  -20.4337   22.0064 C   0  0  0  0  0  0
  -30.9978  -21.6145   22.5978 C   0  0  0  0  0  0
  -29.4546  -22.0644   20.9288 C   0  0  0  0  0  0
  -31.5144  -22.9637   24.6565 C   0  0  0  0  0  0
  -33.3636  -22.1889   23.1400 C   0  0  0  0  0  0
  -32.1394  -20.5445   24.5793 C   0  0  0  0  0  0
  -27.3338  -22.4393   19.5526 C   0  0  0  0  0  0
  -29.4571  -23.4821   18.7947 C   0  0  0  0  0  0
  -28.8580  -16.3453   19.1260 C   0  0  0  0  0  0
  -29.3796  -19.2017   20.2783 C   0  0  0  0  0  0
  -30.1379  -17.7203   20.7263 C   0  0  0  0  0  0
  -28.1133  -24.6721   20.6684 C   0  0  0  0  0  0
  -31.9913  -21.8263   23.7339 C   0  0  0  0  0  0
  -28.6108  -23.1498   20.0329 C   0  0  0  0  0  0
  -29.7542  -20.5770   20.9747 N   0  0  0  0  0  0
  -29.7987  -16.2428   20.2444 N   0  0  0  0  0  0
  -31.4660  -12.7951   19.1497 H   0  0  0  0  0  0
  -30.4572  -11.6938   20.0499 H   0  0  0  0  0  0
  -29.8421  -11.6716   17.6129 H   0  0  0  0  0  0
  -29.5855  -13.3950   17.6346 H   0  0  0  0  0  0
  -27.9694  -11.2366   19.0162 H   0  0  0  0  0  0
  -27.3812  -12.3702   17.8275 H   0  0  0  0  0  0
  -27.5219  -14.1868   19.3523 H   0  0  0  0  0  0
  -28.7962  -12.3867   21.4750 H   0  0  0  0  0  0
  -28.3675  -14.0732   21.6844 H   0  0  0  0  0  0
  -25.2743   -9.5664   22.4774 H   0  0  0  0  0  0
  -23.9995   -7.4603   22.7468 H   0  0  0  0  0  0
  -21.0825   -8.8750   19.8946 H   0  0  0  0  0  0
  -22.3673  -10.9664   19.6175 H   0  0  0  0  0  0
  -21.2004   -7.6147   23.9718 H   0  0  0  0  0  0
  -21.1468   -6.0519   25.9082 H   0  0  0  0  0  0
  -22.0611   -2.7607   23.2837 H   0  0  0  0  0  0
  -22.4036  -11.9865   22.4839 H   0  0  0  0  0  0
  -21.1043  -13.1227   22.2639 H   0  0  0  0  0  0
  -24.6549  -15.8401   20.5576 H   0  0  0  0  0  0
  -26.2815  -15.6300   20.1474 H   0  0  0  0  0  0
  -26.7275  -32.5291   23.0987 H   0  0  0  0  0  0
  -25.0060  -33.9605   25.0299 H   0  0  0  0  0  0
  -22.7533  -31.2837   21.3730 H   0  0  0  0  0  0
  -23.3753  -35.9584   23.3315 H   0  0  0  0  0  0
  -24.3569  -36.8876   22.2057 H   0  0  0  0  0  0
  -23.7251  -37.6452   23.6680 H   0  0  0  0  0  0
  -26.1606  -31.4636   20.6100 H   0  0  0  0  0  0
  -26.8760  -30.7664   22.0277 H   0  0  0  0  0  0
  -28.1488  -28.8032   21.2161 H   0  0  0  0  0  0
  -25.9457  -25.8052   19.0461 H   0  0  0  0  0  0
  -23.9873  -27.2704   19.0020 H   0  0  0  0  0  0
  -23.8166  -30.5505   19.3950 H   0  0  0  0  0  0
  -22.7933  -29.2211   19.8454 H   0  0  0  0  0  0
  -25.1320  -36.1858   25.0807 H   0  0  0  0  0  0
  -21.0003  -28.3315   24.1360 H   0  0  0  0  0  0
  -20.5685  -26.2338   23.3628 H   0  0  0  0  0  0
  -21.6655  -26.7436   22.1205 H   0  0  0  0  0  0
  -19.6927  -25.6284   21.1261 H   0  0  0  0  0  0
  -19.6702  -27.3176   20.6733 H   0  0  0  0  0  0
  -17.4215  -26.6680   21.4026 H   0  0  0  0  0  0
  -18.0343  -26.0083   22.9027 H   0  0  0  0  0  0
  -19.7951  -30.7300   24.2228 H   0  0  0  0  0  0
  -17.5025  -31.6271   24.5164 H   0  0  0  0  0  0
  -15.5362  -30.2979   23.7679 H   0  0  0  0  0  0
  -15.8689  -28.0814   22.7089 H   0  0  0  0  0  0
  -24.5887  -30.7101   25.7708 H   0  0  0  0  0  0
  -24.8880  -32.2940   26.4757 H   0  0  0  0  0  0
  -25.7972  -30.8967   27.0212 H   0  0  0  0  0  0
  -26.3015  -29.6674   24.1294 H   0  0  0  0  0  0
  -27.3991  -29.7264   25.4877 H   0  0  0  0  0  0
  -27.8927  -30.4190   23.9625 H   0  0  0  0  0  0
  -27.2637  -33.3660   26.2004 H   0  0  0  0  0  0
  -28.3891  -32.6861   25.0341 H   0  0  0  0  0  0
  -28.0683  -31.8505   26.5461 H   0  0  0  0  0  0
  -28.2601  -38.0073   24.7491 H   0  0  0  0  0  0
  -28.1060  -36.2600   24.6332 H   0  0  0  0  0  0
  -27.2285  -37.1476   25.8872 H   0  0  0  0  0  0
  -20.9489  -29.8733   21.6758 H   0  0  0  0  0  0
  -26.0159  -38.2812   24.1387 H   0  0  0  0  0  0
  -30.3118  -23.6573   22.1279 H   0  0  0  0  0  0
  -31.0787  -19.4667   22.2606 H   0  0  0  0  0  0
  -31.4583  -23.9182   24.1324 H   0  0  0  0  0  0
  -32.1916  -23.1026   25.5001 H   0  0  0  0  0  0
  -30.5249  -22.7502   25.0625 H   0  0  0  0  0  0
  -33.3152  -23.1033   22.5474 H   0  0  0  0  0  0
  -33.7332  -21.3966   22.4878 H   0  0  0  0  0  0
  -34.1093  -22.3430   23.9210 H   0  0  0  0  0  0
  -31.1798  -20.2212   24.9848 H   0  0  0  0  0  0
  -32.8140  -20.6993   25.4220 H   0  0  0  0  0  0
  -32.5488  -19.7179   23.9979 H   0  0  0  0  0  0
  -27.5654  -21.5303   18.9979 H   0  0  0  0  0  0
  -26.7391  -23.0801   18.9014 H   0  0  0  0  0  0
  -26.7074  -22.1533   20.3973 H   0  0  0  0  0  0
  -29.7221  -22.5840   18.2365 H   0  0  0  0  0  0
  -30.3840  -23.9799   19.0800 H   0  0  0  0  0  0
  -28.9240  -24.1491   18.1165 H   0  0  0  0  0  0
  -27.8355  -16.4178   19.4922 H   0  0  0  0  0  0
  -28.9352  -15.5118   18.4277 H   0  0  0  0  0  0
  -29.0526  -17.2235   18.5135 H   0  0  0  0  0  0
  -28.3041  -19.0790   20.4096 H   0  0  0  0  0  0
  -29.5241  -19.3538   19.2086 H   0  0  0  0  0  0
  -30.0400  -17.6416   21.8084 H   0  0  0  0  0  0
  -31.2069  -17.8441   20.5476 H   0  0  0  0  0  0
  -28.5247  -24.7285   21.6734 H   0  0  0  0  0  0
  -27.0502  -24.5704   20.8881 H   0  0  0  0  0  0
  1 25  1  0  0  0
  1 30  2  0  0  0
  1 87  1  0  0  0
  2  3  1  0  0  0
  2 25  1  0  0  0
  2 88  1  0  0  0
  2 89  1  0  0  0
  3  4  1  0  0  0
  3 90  1  0  0  0
  3 91  1  0  0  0
  4  5  1  0  0  0
  4 92  1  0  0  0
  4 93  1  0  0  0
  5  6  1  0  0  0
  5 26  1  0  0  0
  5 94  1  0  0  0
  6 25  1  0  0  0
  6 95  1  0  0  0
  6 96  1  0  0  0
  7  8  2  0  0  0
  7 26  1  0  0  0
  7 29  1  0  0  0
  8  9  1  0  0  0
  8 22  1  0  0  0
  9 10  1  0  0  0
  9 27  2  0  0  0
 10 11  2  0  0  0
 10 15  1  0  0  0
 11 12  1  0  0  0
 11 97  1  0  0  0
 12 13  2  0  0  0
 12 98  1  0  0  0
 13 14  1  0  0  0
 13 31  1  0  0  0
 14 15  2  0  0  0
 14 99  1  0  0  0
 15100  1  0  0  0
 16 17  2  0  0  0
 16 21  1  0  0  0
 16 31  1  0  0  0
 17 18  1  0  0  0
 17101  1  0  0  0
 18 19  2  0  0  0
 18102  1  0  0  0
 19 20  1  0  0  0
 19 24  1  0  0  0
 20 21  2  0  0  0
 20103  1  0  0  0
 21 23  1  0  0  0
 22 28  1  0  0  0
 22 32  2  0  0  0
 26 27  1  0  0  0
 28104  1  0  0  0
 28105  1  0  0  0
 29106  1  0  0  0
 29107  1  0  0  0
 33 34  1  0  0  0
 33 66  1  0  0  0
 33 70  2  0  0  0
 34 36  1  0  0  0
 34 59  1  0  0  0
 34108  1  0  0  0
 35 44  2  0  0  0
 35 45  1  0  0  0
 35 68  1  0  0  0
 36 56  1  0  0  0
 36109  1  0  0  0
 37 39  1  0  0  0
 37 47  1  0  0  0
 37 66  1  0  0  0
 37110  1  0  0  0
 38 43  2  0  0  0
 38 46  1  0  0  0
 38 47  1  0  0  0
 39 64  1  0  0  0
 39 67  2  0  0  0
 40 52  1  0  0  0
 40 53  2  0  0  0
 40 58  1  0  0  0
 41111  1  0  0  0
 41112  1  0  0  0
 41113  1  0  0  0
 41 48  1  0  0  0
 42 43  1  0  0  0
 42 66  1  0  0  0
 42114  1  0  0  0
 42115  1  0  0  0
 43 44  1  0  0  0
 44116  1  0  0  0
 45 46  2  0  0  0
 45117  1  0  0  0
 46118  1  0  0  0
 47119  1  0  0  0
 47120  1  0  0  0
 48 56  1  0  0  0
 48 65  1  0  0  0
 48121  1  0  0  0
 49 50  1  0  0  0
 49 53  1  0  0  0
 49 64  1  0  0  0
 49122  1  0  0  0
 50 51  1  0  0  0
 50123  1  0  0  0
 50124  1  0  0  0
 51 52  1  0  0  0
 51125  1  0  0  0
 51126  1  0  0  0
 52127  1  0  0  0
 52128  1  0  0  0
 53 54  1  0  0  0
 54 55  2  0  0  0
 54129  1  0  0  0
 55 57  1  0  0  0
 55130  1  0  0  0
 56 69  2  0  0  0
 57 58  2  0  0  0
 57131  1  0  0  0
 58132  1  0  0  0
 59 60  1  0  0  0
 59 61  1  0  0  0
 59 62  1  0  0  0
 60133  1  0  0  0
 60134  1  0  0  0
 60135  1  0  0  0
 61136  1  0  0  0
 61137  1  0  0  0
 61138  1  0  0  0
 62139  1  0  0  0
 62140  1  0  0  0
 62141  1  0  0  0
 63 65  1  0  0  0
 63142  1  0  0  0
 63143  1  0  0  0
 63144  1  0  0  0
 64145  1  0  0  0
 65146  1  0  0  0
 68 83  1  0  0  0
 71 73  1  0  0  0
 71 74  2  0  0  0
 71147  1  0  0  0
 72 73  2  0  0  0
 72 86  1  0  0  0
 72148  1  0  0  0
 73 84  1  0  0  0
 74 85  1  0  0  0
 74 86  1  0  0  0
 75149  1  0  0  0
 75150  1  0  0  0
 75151  1  0  0  0
 75 84  1  0  0  0
 76 84  1  0  0  0
 76152  1  0  0  0
 76153  1  0  0  0
 76154  1  0  0  0
 77 84  1  0  0  0
 77155  1  0  0  0
 77156  1  0  0  0
 77157  1  0  0  0
 78158  1  0  0  0
 78159  1  0  0  0
 78160  1  0  0  0
 78 85  1  0  0  0
 79 85  1  0  0  0
 79161  1  0  0  0
 79162  1  0  0  0
 79163  1  0  0  0
 80 87  1  0  0  0
 80164  1  0  0  0
 80165  1  0  0  0
 80166  1  0  0  0
 81 82  1  0  0  0
 81 86  1  0  0  0
 81167  1  0  0  0
 81168  1  0  0  0
 82 87  1  0  0  0
 82169  1  0  0  0
 82170  1  0  0  0
 83 85  1  0  0  0
 83171  1  0  0  0
 83172  1  0  0  0
M  ISO  4   1 100  68 101  83 101  87 100
M  END
> <chiral flag>
0

> <version>
0

> <s_m_source_file>
/data/baiqing/PycharmProjects/Reinvent-master-3.2/result/LINK_invent/BTK/process_docking_weight1_custom_sum_contain_oxygen_bond_distance_aromatic_linkinvent_7_9_3/rearranged_h_0106.sdf

> <i_m_source_file_index>
95

> <r_mmod_Potential_Energy-OPLS-2005>
817.964904785156

> <r_mmod_Stretch_Energy-OPLS-2005>
326.854949951172

> <r_mmod_Bend_Energy-OPLS-2005>
350.539520263672

> <r_mmod_Torsional_Energy-OPLS-2005>
347.5185546875

> <r_mmod_Improper_Torsional_Energy-OPLS-2005>
6.73321008682251

> <r_mmod_Van_der_Waal_Energy-OPLS-2005>
118.432464599609

> <r_mmod_Electrostatic_Energy-OPLS-2005>
-363.752166748047

> <r_mmod_Solvation_Energy-OPLS-2005>
-195.025054931641

> <b_mmod_Minimization_Converged-OPLS-2005>
0

> <r_mmod_RMS_Derivative-OPLS-2005>
1.33680486679077

$$$$
96
                    3D
 Structure written by MMmdl.
157165  0  0  1  0            999 V2000
  -30.4958  -15.0346   20.4135 C   0  0  0  0  0  0
  -30.4347  -12.6429   19.5256 C   0  0  0  0  0  0
  -29.5283  -12.5634   18.2738 C   0  0  0  0  0  0
  -28.0603  -12.3368   18.6800 C   0  0  0  0  0  0
  -27.6250  -13.2583   19.8501 C   0  0  2  0  0  0
  -28.6606  -13.3097   20.9910 C   0  0  0  0  0  0
  -25.2419  -13.8216   20.5736 C   0  0  0  0  0  0
  -24.1752  -13.0412   20.9206 C   0  0  0  0  0  0
  -24.6372  -11.6897   20.8735 C   0  0  0  0  0  0
  -23.9045  -10.4271   21.0381 C   0  0  0  0  0  0
  -24.3588   -9.4202   21.9179 C   0  0  0  0  0  0
  -23.6278   -8.2231   22.0741 C   0  0  0  0  0  0
  -22.4261   -8.0257   21.3536 C   0  0  0  0  0  0
  -21.9890   -9.0226   20.4648 C   0  0  0  0  0  0
  -22.7202  -10.2108   20.3056 C   0  0  0  0  0  0
  -21.6861   -6.0720   22.5278 C   0  0  0  0  0  0
  -21.4032   -6.5628   23.8204 C   0  0  0  0  0  0
  -21.3674   -5.6784   24.9161 C   0  0  0  0  0  0
  -21.6049   -4.3044   24.7235 C   0  0  0  0  0  0
  -21.8822   -3.8135   23.4362 C   0  0  0  0  0  0
  -21.9192   -4.6949   22.3420 C   0  0  0  0  0  0
  -22.7780  -13.5180   21.1857 C   0  0  0  0  0  0
  -22.1636   -4.2118   21.0986 F   0  0  0  0  0  0
  -21.5635   -3.4545   25.7755 F   0  0  0  0  0  0
  -29.9260  -13.7528   20.3942 N   0  0  0  0  0  0
  -26.2856  -12.9455   20.3306 N   0  0  0  0  0  0
  -25.9315  -11.6558   20.5755 N   0  0  0  0  0  0
  -22.0431  -12.8193   22.0440 N   0  0  0  0  0  0
  -25.4053  -15.1942   20.4119 N   0  0  0  0  0  0
  -31.6929  -15.0910   20.1078 O   0  0  0  0  0  0
  -21.6629   -6.8854   21.4227 O   0  0  0  0  0  0
  -22.3464  -14.5452   20.6658 O   0  0  0  0  0  0
  -24.6493  -31.8347   23.1798 C   0  0  0  0  0  0
  -25.9243  -32.4625   23.8211 C   0  0  1  0  0  0
  -27.2226  -27.0520   20.2016 C   0  0  0  0  0  0
  -25.5985  -33.8439   24.2145 N   0  0  0  0  0  0
  -23.4566  -30.4480   21.5260 C   0  0  2  0  0  0
  -24.9077  -28.8486   20.1118 C   0  0  0  0  0  0
  -22.7581  -29.4512   22.4842 C   0  0  0  0  0  0
  -18.0320  -28.1436   22.8464 C   0  0  0  0  0  0
  -24.1493  -36.7221   23.2633 C   0  0  0  0  0  0
  -26.0127  -30.6836   21.3855 C   0  0  0  0  0  0
  -26.0826  -29.2853   20.7379 C   0  0  0  0  0  0
  -27.2311  -28.4030   20.7610 C   0  0  0  0  0  0
  -26.0298  -26.7319   19.5182 C   0  0  0  0  0  0
  -24.9005  -27.5905   19.4824 C   0  0  0  0  0  0
  -23.6866  -29.7621   20.1496 C   0  0  0  0  0  0
  -25.4118  -36.2994   24.0305 C   0  0  1  0  0  0
  -20.5918  -28.3751   23.1229 C   0  0  2  0  0  0
  -20.6788  -26.9452   22.5402 C   0  0  0  0  0  0
  -19.5775  -26.6406   21.5207 C   0  0  0  0  0  0
  -18.1967  -26.7972   22.1606 C   0  0  0  0  0  0
  -19.1570  -28.8912   23.2835 C   0  0  0  0  0  0
  -18.9483  -30.1512   23.8858 C   0  0  0  0  0  0
  -17.6473  -30.6618   24.0571 C   0  0  0  0  0  0
  -25.9085  -34.9370   23.5036 C   0  0  0  0  0  0
  -16.5371  -29.9114   23.6352 C   0  0  0  0  0  0
  -16.7300  -28.6546   23.0353 C   0  0  0  0  0  0
  -26.4533  -31.6520   25.0685 C   0  0  0  0  0  0
  -25.3677  -31.3741   26.1349 C   0  0  0  0  0  0
  -27.0371  -30.2893   24.6290 C   0  0  0  0  0  0
  -27.6072  -32.4290   25.7455 C   0  0  0  0  0  0
  -27.5569  -37.1774   24.8464 C   0  0  0  0  0  0
  -21.4266  -29.3041   22.3579 N   0  0  0  0  0  0
  -26.4278  -37.3720   23.9419 N   0  0  0  0  0  0
  -24.7264  -31.0134   22.0866 N   0  0  0  0  0  0
  -23.4177  -28.8099   23.3056 O   0  0  0  0  0  0
  -28.2872  -26.0684   20.3409 O   0  0  0  0  0  0
  -26.5674  -34.8885   22.4621 O   0  0  0  0  0  0
  -23.5591  -32.1262   23.6972 O   0  0  0  0  0  0
  -28.4762  -19.3307   21.8269 C   0  0  0  0  0  0
  -29.1854  -20.5762   20.1907 C   0  0  0  0  0  0
  -29.2375  -19.1996   20.6431 C   0  0  0  0  0  0
  -28.0804  -20.6310   22.0761 C   0  0  0  0  0  0
  -27.3773  -20.9483   23.3765 C   0  0  0  0  0  0
  -26.5695  -23.2742   21.2528 C   0  0  0  0  0  0
  -28.8528  -23.6738   22.3679 C   0  0  0  0  0  0
  -29.9793  -17.7646   20.1447 C   0  0  0  0  0  0
  -28.3566  -24.4975   20.0365 C   0  0  0  0  0  0
  -28.1106  -23.1689   21.1038 C   0  0  0  0  0  0
  -28.4614  -21.5447   21.0382 N   0  0  0  0  0  0
  -29.7136  -16.2354   20.5569 N   0  0  0  0  0  0
  -31.4711  -12.8028   19.2214 H   0  0  0  0  0  0
  -30.4296  -11.6954   20.0650 H   0  0  0  0  0  0
  -29.8648  -11.7658   17.6110 H   0  0  0  0  0  0
  -29.6143  -13.4927   17.7105 H   0  0  0  0  0  0
  -27.9565  -11.2936   18.9803 H   0  0  0  0  0  0
  -27.4045  -12.4795   17.8220 H   0  0  0  0  0  0
  -27.5787  -14.2615   19.4257 H   0  0  0  0  0  0
  -28.7651  -12.3373   21.4736 H   0  0  0  0  0  0
  -28.3412  -14.0052   21.7698 H   0  0  0  0  0  0
  -25.2712   -9.5692   22.4764 H   0  0  0  0  0  0
  -24.0014   -7.4623   22.7447 H   0  0  0  0  0  0
  -21.0845   -8.8703   19.8967 H   0  0  0  0  0  0
  -22.3617  -10.9622   19.6182 H   0  0  0  0  0  0
  -21.2008   -7.6131   23.9714 H   0  0  0  0  0  0
  -21.1506   -6.0503   25.9067 H   0  0  0  0  0  0
  -22.0602   -2.7599   23.2868 H   0  0  0  0  0  0
  -22.4063  -11.9892   22.4871 H   0  0  0  0  0  0
  -21.1051  -13.1241   22.2605 H   0  0  0  0  0  0
  -24.6328  -15.8445   20.5123 H   0  0  0  0  0  0
  -26.2434  -15.6360   20.0583 H   0  0  0  0  0  0
  -26.7325  -32.5188   23.0942 H   0  0  0  0  0  0
  -25.0137  -33.9533   25.0300 H   0  0  0  0  0  0
  -22.7623  -31.2752   21.3632 H   0  0  0  0  0  0
  -23.3762  -35.9555   23.3271 H   0  0  0  0  0  0
  -24.3573  -36.8865   22.2053 H   0  0  0  0  0  0
  -23.7251  -37.6405   23.6685 H   0  0  0  0  0  0
  -26.1773  -31.4292   20.6054 H   0  0  0  0  0  0
  -26.8791  -30.7373   22.0325 H   0  0  0  0  0  0
  -28.1206  -28.7326   21.2804 H   0  0  0  0  0  0
  -25.9466  -25.7642   19.0443 H   0  0  0  0  0  0
  -24.0082  -27.2470   18.9791 H   0  0  0  0  0  0
  -23.8302  -30.5321   19.3906 H   0  0  0  0  0  0
  -22.7985  -29.2108   19.8383 H   0  0  0  0  0  0
  -25.1322  -36.1806   25.0799 H   0  0  0  0  0  0
  -21.0010  -28.3367   24.1350 H   0  0  0  0  0  0
  -20.5688  -26.2377   23.3628 H   0  0  0  0  0  0
  -21.6668  -26.7472   22.1208 H   0  0  0  0  0  0
  -19.6938  -25.6313   21.1293 H   0  0  0  0  0  0
  -19.6731  -27.3162   20.6707 H   0  0  0  0  0  0
  -17.4230  -26.6709   21.4025 H   0  0  0  0  0  0
  -18.0368  -26.0133   22.9016 H   0  0  0  0  0  0
  -19.7952  -30.7359   24.2181 H   0  0  0  0  0  0
  -17.5030  -31.6281   24.5197 H   0  0  0  0  0  0
  -15.5371  -30.3001   23.7700 H   0  0  0  0  0  0
  -15.8700  -28.0854   22.7067 H   0  0  0  0  0  0
  -24.5937  -30.6988   25.7683 H   0  0  0  0  0  0
  -24.8740  -32.2897   26.4594 H   0  0  0  0  0  0
  -25.7890  -30.9065   27.0244 H   0  0  0  0  0  0
  -26.2985  -29.6635   24.1255 H   0  0  0  0  0  0
  -27.3923  -29.7171   25.4865 H   0  0  0  0  0  0
  -27.8927  -30.4089   23.9642 H   0  0  0  0  0  0
  -27.2710  -33.3661   26.1883 H   0  0  0  0  0  0
  -28.3921  -32.6712   25.0291 H   0  0  0  0  0  0
  -28.0681  -31.8499   26.5450 H   0  0  0  0  0  0
  -28.2585  -38.0072   24.7508 H   0  0  0  0  0  0
  -28.1063  -36.2601   24.6301 H   0  0  0  0  0  0
  -27.2281  -37.1434   25.8862 H   0  0  0  0  0  0
  -20.9521  -29.8664   21.6653 H   0  0  0  0  0  0
  -26.0120  -38.2791   24.1396 H   0  0  0  0  0  0
  -28.2784  -18.5121   22.5048 H   0  0  0  0  0  0
  -29.6504  -20.9791   19.2997 H   0  0  0  0  0  0
  -28.1082  -20.9892   24.1824 H   0  0  0  0  0  0
  -26.6766  -20.1495   23.6303 H   0  0  0  0  0  0
  -26.8122  -21.8723   23.4252 H   0  0  0  0  0  0
  -26.2823  -24.0850   21.9226 H   0  0  0  0  0  0
  -26.0746  -22.3652   21.5831 H   0  0  0  0  0  0
  -26.0950  -23.4733   20.2920 H   0  0  0  0  0  0
  -28.6015  -23.1470   23.2814 H   0  0  0  0  0  0
  -28.6396  -24.7213   22.5768 H   0  0  0  0  0  0
  -29.9331  -23.5787   22.2451 H   0  0  0  0  0  0
  -31.0409  -17.9200   20.3480 H   0  0  0  0  0  0
  -29.9098  -17.7792   19.0566 H   0  0  0  0  0  0
  -27.7973  -24.3201   19.1184 H   0  0  0  0  0  0
  -29.3934  -24.3769   19.7188 H   0  0  0  0  0  0
  -28.7557  -16.0556   20.8202 H   0  0  0  0  0  0
  1 25  1  0  0  0
  1 30  2  0  0  0
  1 82  1  0  0  0
  2  3  1  0  0  0
  2 25  1  0  0  0
  2 83  1  0  0  0
  2 84  1  0  0  0
  3  4  1  0  0  0
  3 85  1  0  0  0
  3 86  1  0  0  0
  4  5  1  0  0  0
  4 87  1  0  0  0
  4 88  1  0  0  0
  5  6  1  0  0  0
  5 26  1  0  0  0
  5 89  1  0  0  0
  6 25  1  0  0  0
  6 90  1  0  0  0
  6 91  1  0  0  0
  7  8  2  0  0  0
  7 26  1  0  0  0
  7 29  1  0  0  0
  8  9  1  0  0  0
  8 22  1  0  0  0
  9 10  1  0  0  0
  9 27  2  0  0  0
 10 11  2  0  0  0
 10 15  1  0  0  0
 11 12  1  0  0  0
 11 92  1  0  0  0
 12 13  2  0  0  0
 12 93  1  0  0  0
 13 14  1  0  0  0
 13 31  1  0  0  0
 14 15  2  0  0  0
 14 94  1  0  0  0
 15 95  1  0  0  0
 16 17  2  0  0  0
 16 21  1  0  0  0
 16 31  1  0  0  0
 17 18  1  0  0  0
 17 96  1  0  0  0
 18 19  2  0  0  0
 18 97  1  0  0  0
 19 20  1  0  0  0
 19 24  1  0  0  0
 20 21  2  0  0  0
 20 98  1  0  0  0
 21 23  1  0  0  0
 22 28  1  0  0  0
 22 32  2  0  0  0
 26 27  1  0  0  0
 28 99  1  0  0  0
 28100  1  0  0  0
 29101  1  0  0  0
 29102  1  0  0  0
 33 34  1  0  0  0
 33 66  1  0  0  0
 33 70  2  0  0  0
 34 36  1  0  0  0
 34 59  1  0  0  0
 34103  1  0  0  0
 35 44  2  0  0  0
 35 45  1  0  0  0
 35 68  1  0  0  0
 36 56  1  0  0  0
 36104  1  0  0  0
 37 39  1  0  0  0
 37 47  1  0  0  0
 37 66  1  0  0  0
 37105  1  0  0  0
 38 43  2  0  0  0
 38 46  1  0  0  0
 38 47  1  0  0  0
 39 64  1  0  0  0
 39 67  2  0  0  0
 40 52  1  0  0  0
 40 53  2  0  0  0
 40 58  1  0  0  0
 41106  1  0  0  0
 41107  1  0  0  0
 41108  1  0  0  0
 41 48  1  0  0  0
 42 43  1  0  0  0
 42 66  1  0  0  0
 42109  1  0  0  0
 42110  1  0  0  0
 43 44  1  0  0  0
 44111  1  0  0  0
 45 46  2  0  0  0
 45112  1  0  0  0
 46113  1  0  0  0
 47114  1  0  0  0
 47115  1  0  0  0
 48 56  1  0  0  0
 48 65  1  0  0  0
 48116  1  0  0  0
 49 50  1  0  0  0
 49 53  1  0  0  0
 49 64  1  0  0  0
 49117  1  0  0  0
 50 51  1  0  0  0
 50118  1  0  0  0
 50119  1  0  0  0
 51 52  1  0  0  0
 51120  1  0  0  0
 51121  1  0  0  0
 52122  1  0  0  0
 52123  1  0  0  0
 53 54  1  0  0  0
 54 55  2  0  0  0
 54124  1  0  0  0
 55 57  1  0  0  0
 55125  1  0  0  0
 56 69  2  0  0  0
 57 58  2  0  0  0
 57126  1  0  0  0
 58127  1  0  0  0
 59 60  1  0  0  0
 59 61  1  0  0  0
 59 62  1  0  0  0
 60128  1  0  0  0
 60129  1  0  0  0
 60130  1  0  0  0
 61131  1  0  0  0
 61132  1  0  0  0
 61133  1  0  0  0
 62134  1  0  0  0
 62135  1  0  0  0
 62136  1  0  0  0
 63 65  1  0  0  0
 63137  1  0  0  0
 63138  1  0  0  0
 63139  1  0  0  0
 64140  1  0  0  0
 65141  1  0  0  0
 68 79  1  0  0  0
 71 73  1  0  0  0
 71 74  2  0  0  0
 71142  1  0  0  0
 72 73  2  0  0  0
 72 81  1  0  0  0
 72143  1  0  0  0
 73 78  1  0  0  0
 74 75  1  0  0  0
 74 81  1  0  0  0
 75144  1  0  0  0
 75145  1  0  0  0
 75146  1  0  0  0
 76147  1  0  0  0
 76148  1  0  0  0
 76149  1  0  0  0
 76 80  1  0  0  0
 77 80  1  0  0  0
 77150  1  0  0  0
 77151  1  0  0  0
 77152  1  0  0  0
 78 82  1  0  0  0
 78153  1  0  0  0
 78154  1  0  0  0
 79 80  1  0  0  0
 79155  1  0  0  0
 79156  1  0  0  0
 80 81  1  0  0  0
 82157  1  0  0  0
M  ISO  4   1 100  68 101  79 101  82 100
M  END
> <chiral flag>
0

> <version>
0

> <s_m_source_file>
/data/baiqing/PycharmProjects/Reinvent-master-3.2/result/LINK_invent/BTK/process_docking_weight1_custom_sum_contain_oxygen_bond_distance_aromatic_linkinvent_7_9_3/rearranged_h_0106.sdf

> <i_m_source_file_index>
96

> <r_mmod_Potential_Energy-OPLS-2005>
777.579895019531

> <r_mmod_Stretch_Energy-OPLS-2005>
368.405242919922

> <r_mmod_Bend_Energy-OPLS-2005>
404.345062255859

> <r_mmod_Torsional_Energy-OPLS-2005>
246.977493286133

> <r_mmod_Improper_Torsional_Energy-OPLS-2005>
5.58261013031006

> <r_mmod_Van_der_Waal_Energy-OPLS-2005>
120.191101074219

> <r_mmod_Electrostatic_Energy-OPLS-2005>
-422.337341308594

> <r_mmod_Solvation_Energy-OPLS-2005>
-209.218933105469

> <b_mmod_Minimization_Converged-OPLS-2005>
0

> <r_mmod_RMS_Derivative-OPLS-2005>
4.37392282485962

$$$$
97
                    3D
 Structure written by MMmdl.
160168  0  0  1  0            999 V2000
  -30.5059  -15.0526   20.3954 C   0  0  0  0  0  0
  -30.4441  -12.6542   19.5265 C   0  0  0  0  0  0
  -29.5333  -12.5640   18.2770 C   0  0  0  0  0  0
  -28.0712  -12.3196   18.6889 C   0  0  0  0  0  0
  -27.6292  -13.2605   19.8384 C   0  0  2  0  0  0
  -28.6648  -13.3383   20.9842 C   0  0  0  0  0  0
  -25.2459  -13.8234   20.5716 C   0  0  0  0  0  0
  -24.1791  -13.0452   20.9224 C   0  0  0  0  0  0
  -24.6419  -11.6928   20.8750 C   0  0  0  0  0  0
  -23.9108  -10.4300   21.0400 C   0  0  0  0  0  0
  -24.3654   -9.4214   21.9176 C   0  0  0  0  0  0
  -23.6316   -8.2258   22.0758 C   0  0  0  0  0  0
  -22.4295   -8.0302   21.3552 C   0  0  0  0  0  0
  -21.9940   -9.0277   20.4651 C   0  0  0  0  0  0
  -22.7283  -10.2143   20.3050 C   0  0  0  0  0  0
  -21.6860   -6.0758   22.5286 C   0  0  0  0  0  0
  -21.4012   -6.5657   23.8221 C   0  0  0  0  0  0
  -21.3656   -5.6804   24.9179 C   0  0  0  0  0  0
  -21.6045   -4.3068   24.7222 C   0  0  0  0  0  0
  -21.8819   -3.8164   23.4341 C   0  0  0  0  0  0
  -21.9190   -4.6985   22.3402 C   0  0  0  0  0  0
  -22.7805  -13.5209   21.1891 C   0  0  0  0  0  0
  -22.1661   -4.2177   21.0977 F   0  0  0  0  0  0
  -21.5621   -3.4548   25.7729 F   0  0  0  0  0  0
  -29.9445  -13.7650   20.3997 N   0  0  0  0  0  0
  -26.2888  -12.9487   20.3229 N   0  0  0  0  0  0
  -25.9352  -11.6606   20.5712 N   0  0  0  0  0  0
  -22.0483  -12.8177   22.0438 N   0  0  0  0  0  0
  -25.4127  -15.1980   20.4152 N   0  0  0  0  0  0
  -31.6786  -15.1344   20.0158 O   0  0  0  0  0  0
  -21.6650   -6.8909   21.4250 O   0  0  0  0  0  0
  -22.3480  -14.5528   20.6758 O   0  0  0  0  0  0
  -24.6476  -31.8368   23.1822 C   0  0  0  0  0  0
  -25.9243  -32.4627   23.8211 C   0  0  1  0  0  0
  -27.2286  -27.0732   20.1349 C   0  0  0  0  0  0
  -25.5973  -33.8440   24.2111 N   0  0  0  0  0  0
  -23.4534  -30.4581   21.5253 C   0  0  2  0  0  0
  -24.9082  -28.8777   20.1009 C   0  0  0  0  0  0
  -22.7570  -29.4536   22.4785 C   0  0  0  0  0  0
  -18.0322  -28.1399   22.8487 C   0  0  0  0  0  0
  -24.1510  -36.7222   23.2640 C   0  0  0  0  0  0
  -26.0152  -30.6860   21.3978 C   0  0  0  0  0  0
  -26.0851  -29.2940   20.7331 C   0  0  0  0  0  0
  -27.2349  -28.4051   20.7440 C   0  0  0  0  0  0
  -26.0293  -26.7914   19.4412 C   0  0  0  0  0  0
  -24.8979  -27.6397   19.4428 C   0  0  0  0  0  0
  -23.6847  -29.7859   20.1454 C   0  0  0  0  0  0
  -25.4144  -36.2966   24.0292 C   0  0  1  0  0  0
  -20.5932  -28.3739   23.1213 C   0  0  2  0  0  0
  -20.6814  -26.9435   22.5406 C   0  0  0  0  0  0
  -19.5772  -26.6369   21.5239 C   0  0  0  0  0  0
  -18.1955  -26.7936   22.1654 C   0  0  0  0  0  0
  -19.1575  -28.8883   23.2838 C   0  0  0  0  0  0
  -18.9498  -30.1481   23.8855 C   0  0  0  0  0  0
  -17.6493  -30.6595   24.0559 C   0  0  0  0  0  0
  -25.9098  -34.9355   23.5007 C   0  0  0  0  0  0
  -16.5387  -29.9084   23.6345 C   0  0  0  0  0  0
  -16.7310  -28.6507   23.0375 C   0  0  0  0  0  0
  -26.4558  -31.6515   25.0675 C   0  0  0  0  0  0
  -25.3721  -31.3745   26.1347 C   0  0  0  0  0  0
  -27.0448  -30.2886   24.6345 C   0  0  0  0  0  0
  -27.6055  -32.4306   25.7479 C   0  0  0  0  0  0
  -27.5574  -37.1764   24.8462 C   0  0  0  0  0  0
  -21.4254  -29.3069   22.3558 N   0  0  0  0  0  0
  -26.4288  -37.3694   23.9397 N   0  0  0  0  0  0
  -24.7243  -31.0174   22.0883 N   0  0  0  0  0  0
  -23.4189  -28.8088   23.2960 O   0  0  0  0  0  0
  -28.2581  -26.0409   20.2887 O   0  0  0  0  0  0
  -26.5695  -34.8866   22.4588 O   0  0  0  0  0  0
  -23.5581  -32.1296   23.6995 O   0  0  0  0  0  0
  -27.8349  -21.1369   21.1378 C   0  0  0  0  0  0
  -29.3836  -22.0767   19.9730 C   0  0  0  0  0  0
  -29.0782  -20.7805   20.5201 C   0  0  0  0  0  0
  -27.4786  -22.4758   20.9927 C   0  0  0  0  0  0
  -25.1312  -23.2885   20.4713 C   0  0  0  0  0  0
  -26.4178  -24.2747   22.4663 C   0  0  0  0  0  0
  -29.5089  -17.7210   20.0504 C   0  0  0  0  0  0
  -28.3078  -24.6640   19.5623 C   0  0  0  0  0  0
  -29.8722  -19.2728   20.6932 C   0  0  2  0  0  0
  -26.2085  -23.0696   21.5417 C   0  0  0  0  0  0
  -28.4267  -23.1764   20.2209 N   0  0  0  0  0  0
  -29.7163  -16.2281   20.6505 N   0  0  0  0  0  0
  -30.1645  -19.1039   22.1208 N   0  3  0  0  0  0
  -31.4771  -12.8140   19.2127 H   0  0  0  0  0  0
  -30.4466  -11.7095   20.0740 H   0  0  0  0  0  0
  -29.8768  -11.7724   17.6108 H   0  0  0  0  0  0
  -29.5999  -13.4939   17.7095 H   0  0  0  0  0  0
  -27.9872  -11.2804   19.0075 H   0  0  0  0  0  0
  -27.4112  -12.4312   17.8280 H   0  0  0  0  0  0
  -27.5776  -14.2535   19.3883 H   0  0  0  0  0  0
  -28.7641  -12.3819   21.4986 H   0  0  0  0  0  0
  -28.3373  -14.0623   21.7326 H   0  0  0  0  0  0
  -25.2808   -9.5686   22.4746 H   0  0  0  0  0  0
  -24.0028   -7.4651   22.7480 H   0  0  0  0  0  0
  -21.0873   -8.8814   19.8955 H   0  0  0  0  0  0
  -22.3764  -10.9686   19.6160 H   0  0  0  0  0  0
  -21.2010   -7.6166   23.9735 H   0  0  0  0  0  0
  -21.1472   -6.0530   25.9086 H   0  0  0  0  0  0
  -22.0596   -2.7629   23.2834 H   0  0  0  0  0  0
  -22.4108  -11.9801   22.4754 H   0  0  0  0  0  0
  -21.1112  -13.1186   22.2700 H   0  0  0  0  0  0
  -24.6453  -15.8505   20.5344 H   0  0  0  0  0  0
  -26.2510  -15.6370   20.0589 H   0  0  0  0  0  0
  -26.7287  -32.5196   23.0905 H   0  0  0  0  0  0
  -25.0070  -33.9557   25.0221 H   0  0  0  0  0  0
  -22.7590  -31.2867   21.3677 H   0  0  0  0  0  0
  -23.3758  -35.9565   23.3274 H   0  0  0  0  0  0
  -24.3593  -36.8899   22.2061 H   0  0  0  0  0  0
  -23.7306  -37.6418   23.6716 H   0  0  0  0  0  0
  -26.1922  -31.4454   20.6348 H   0  0  0  0  0  0
  -26.8745  -30.7240   22.0545 H   0  0  0  0  0  0
  -28.1160  -28.7151   21.2880 H   0  0  0  0  0  0
  -25.9036  -25.8643   18.9136 H   0  0  0  0  0  0
  -24.0030  -27.3150   18.9306 H   0  0  0  0  0  0
  -23.8239  -30.5628   19.3931 H   0  0  0  0  0  0
  -22.7976  -29.2340   19.8275 H   0  0  0  0  0  0
  -25.1346  -36.1753   25.0787 H   0  0  0  0  0  0
  -21.0055  -28.3353   24.1319 H   0  0  0  0  0  0
  -20.5694  -26.2366   23.3629 H   0  0  0  0  0  0
  -21.6676  -26.7430   22.1201 H   0  0  0  0  0  0
  -19.6917  -25.6268   21.1292 H   0  0  0  0  0  0
  -19.6703  -27.3168   20.6753 H   0  0  0  0  0  0
  -17.4220  -26.6697   21.4062 H   0  0  0  0  0  0
  -18.0340  -26.0084   22.9052 H   0  0  0  0  0  0
  -19.7970  -30.7318   24.2193 H   0  0  0  0  0  0
  -17.5053  -31.6282   24.5156 H   0  0  0  0  0  0
  -15.5388  -30.2982   23.7691 H   0  0  0  0  0  0
  -15.8712  -28.0817   22.7099 H   0  0  0  0  0  0
  -24.5914  -30.7081   25.7663 H   0  0  0  0  0  0
  -24.8907  -32.2950   26.4652 H   0  0  0  0  0  0
  -25.7988  -30.8995   27.0189 H   0  0  0  0  0  0
  -26.3102  -29.6561   24.1346 H   0  0  0  0  0  0
  -27.4005  -29.7238   25.4975 H   0  0  0  0  0  0
  -27.9030  -30.4070   23.9725 H   0  0  0  0  0  0
  -27.2617  -33.3628   26.1965 H   0  0  0  0  0  0
  -28.3924  -32.6831   25.0359 H   0  0  0  0  0  0
  -28.0649  -31.8494   26.5481 H   0  0  0  0  0  0
  -28.2559  -38.0084   24.7478 H   0  0  0  0  0  0
  -28.1101  -36.2605   24.6317 H   0  0  0  0  0  0
  -27.2279  -37.1429   25.8861 H   0  0  0  0  0  0
  -20.9428  -29.8742   21.6723 H   0  0  0  0  0  0
  -26.0127  -38.2747   24.1397 H   0  0  0  0  0  0
  -27.2216  -20.4431   21.6968 H   0  0  0  0  0  0
  -30.2518  -22.3260   19.3757 H   0  0  0  0  0  0
  -24.7971  -22.3313   20.0700 H   0  0  0  0  0  0
  -25.4964  -23.8795   19.6378 H   0  0  0  0  0  0
  -24.2559  -23.7901   20.8844 H   0  0  0  0  0  0
  -27.1255  -24.0304   23.2588 H   0  0  0  0  0  0
  -25.4841  -24.5771   22.9410 H   0  0  0  0  0  0
  -26.8000  -25.1411   21.9426 H   0  0  0  0  0  0
  -29.8774  -17.7042   19.0238 H   0  0  0  0  0  0
  -28.4269  -17.7549   19.9275 H   0  0  0  0  0  0
  -27.5241  -24.5981   18.8139 H   0  0  0  0  0  0
  -29.2109  -24.7585   18.9596 H   0  0  0  0  0  0
  -30.8502  -19.4885   20.2561 H   0  0  0  0  0  0
  -25.7782  -22.3123   22.1992 H   0  0  0  0  0  0
  -28.8717  -15.9303   21.1181 H   0  0  0  0  0  0
  -30.7888  -18.3302   22.2539 H   0  0  0  0  0  0
  -29.3228  -18.9340   22.6394 H   0  0  0  0  0  0
  -30.6017  -19.9330   22.4786 H   0  0  0  0  0  0
  1 25  1  0  0  0
  1 30  2  0  0  0
  1 82  1  0  0  0
  2  3  1  0  0  0
  2 25  1  0  0  0
  2 84  1  0  0  0
  2 85  1  0  0  0
  3  4  1  0  0  0
  3 86  1  0  0  0
  3 87  1  0  0  0
  4  5  1  0  0  0
  4 88  1  0  0  0
  4 89  1  0  0  0
  5  6  1  0  0  0
  5 26  1  0  0  0
  5 90  1  0  0  0
  6 25  1  0  0  0
  6 91  1  0  0  0
  6 92  1  0  0  0
  7  8  2  0  0  0
  7 26  1  0  0  0
  7 29  1  0  0  0
  8  9  1  0  0  0
  8 22  1  0  0  0
  9 10  1  0  0  0
  9 27  2  0  0  0
 10 11  2  0  0  0
 10 15  1  0  0  0
 11 12  1  0  0  0
 11 93  1  0  0  0
 12 13  2  0  0  0
 12 94  1  0  0  0
 13 14  1  0  0  0
 13 31  1  0  0  0
 14 15  2  0  0  0
 14 95  1  0  0  0
 15 96  1  0  0  0
 16 17  2  0  0  0
 16 21  1  0  0  0
 16 31  1  0  0  0
 17 18  1  0  0  0
 17 97  1  0  0  0
 18 19  2  0  0  0
 18 98  1  0  0  0
 19 20  1  0  0  0
 19 24  1  0  0  0
 20 21  2  0  0  0
 20 99  1  0  0  0
 21 23  1  0  0  0
 22 28  1  0  0  0
 22 32  2  0  0  0
 26 27  1  0  0  0
 28100  1  0  0  0
 28101  1  0  0  0
 29102  1  0  0  0
 29103  1  0  0  0
 33 34  1  0  0  0
 33 66  1  0  0  0
 33 70  2  0  0  0
 34 36  1  0  0  0
 34 59  1  0  0  0
 34104  1  0  0  0
 35 44  2  0  0  0
 35 45  1  0  0  0
 35 68  1  0  0  0
 36 56  1  0  0  0
 36105  1  0  0  0
 37 39  1  0  0  0
 37 47  1  0  0  0
 37 66  1  0  0  0
 37106  1  0  0  0
 38 43  2  0  0  0
 38 46  1  0  0  0
 38 47  1  0  0  0
 39 64  1  0  0  0
 39 67  2  0  0  0
 40 52  1  0  0  0
 40 53  2  0  0  0
 40 58  1  0  0  0
 41107  1  0  0  0
 41108  1  0  0  0
 41109  1  0  0  0
 41 48  1  0  0  0
 42 43  1  0  0  0
 42 66  1  0  0  0
 42110  1  0  0  0
 42111  1  0  0  0
 43 44  1  0  0  0
 44112  1  0  0  0
 45 46  2  0  0  0
 45113  1  0  0  0
 46114  1  0  0  0
 47115  1  0  0  0
 47116  1  0  0  0
 48 56  1  0  0  0
 48 65  1  0  0  0
 48117  1  0  0  0
 49 50  1  0  0  0
 49 53  1  0  0  0
 49 64  1  0  0  0
 49118  1  0  0  0
 50 51  1  0  0  0
 50119  1  0  0  0
 50120  1  0  0  0
 51 52  1  0  0  0
 51121  1  0  0  0
 51122  1  0  0  0
 52123  1  0  0  0
 52124  1  0  0  0
 53 54  1  0  0  0
 54 55  2  0  0  0
 54125  1  0  0  0
 55 57  1  0  0  0
 55126  1  0  0  0
 56 69  2  0  0  0
 57 58  2  0  0  0
 57127  1  0  0  0
 58128  1  0  0  0
 59 60  1  0  0  0
 59 61  1  0  0  0
 59 62  1  0  0  0
 60129  1  0  0  0
 60130  1  0  0  0
 60131  1  0  0  0
 61132  1  0  0  0
 61133  1  0  0  0
 61134  1  0  0  0
 62135  1  0  0  0
 62136  1  0  0  0
 62137  1  0  0  0
 63 65  1  0  0  0
 63138  1  0  0  0
 63139  1  0  0  0
 63140  1  0  0  0
 64141  1  0  0  0
 65142  1  0  0  0
 68 78  1  0  0  0
 71 73  1  0  0  0
 71 74  2  0  0  0
 71143  1  0  0  0
 72 73  2  0  0  0
 72 81  1  0  0  0
 72144  1  0  0  0
 73 79  1  0  0  0
 74 80  1  0  0  0
 74 81  1  0  0  0
 75145  1  0  0  0
 75146  1  0  0  0
 75147  1  0  0  0
 75 80  1  0  0  0
 76 80  1  0  0  0
 76148  1  0  0  0
 76149  1  0  0  0
 76150  1  0  0  0
 77 79  1  0  0  0
 77 82  1  0  0  0
 77151  1  0  0  0
 77152  1  0  0  0
 78 81  1  0  0  0
 78153  1  0  0  0
 78154  1  0  0  0
 79 83  1  0  0  0
 79155  1  0  0  0
 80156  1  0  0  0
 82157  1  0  0  0
 83158  1  0  0  0
 83159  1  0  0  0
 83160  1  0  0  0
M  CHG  1  83   1
M  ISO  4   1 100  68 101  78 101  82 100
M  END
> <chiral flag>
0

> <version>
0

> <s_m_source_file>
/data/baiqing/PycharmProjects/Reinvent-master-3.2/result/LINK_invent/BTK/process_docking_weight1_custom_sum_contain_oxygen_bond_distance_aromatic_linkinvent_7_9_3/rearranged_h_0106.sdf

> <i_m_source_file_index>
97

> <r_mmod_Potential_Energy-OPLS-2005>
433.308837890625

> <r_mmod_Stretch_Energy-OPLS-2005>
359.213531494141

> <r_mmod_Bend_Energy-OPLS-2005>
377.037780761719

> <r_mmod_Torsional_Energy-OPLS-2005>
261.447509765625

> <r_mmod_Improper_Torsional_Energy-OPLS-2005>
8.80055236816406

> <r_mmod_Van_der_Waal_Energy-OPLS-2005>
104.073013305664

> <r_mmod_Electrostatic_Energy-OPLS-2005>
-445.241912841797

> <r_mmod_Solvation_Energy-OPLS-2005>
-502.172729492188

> <b_mmod_Minimization_Converged-OPLS-2005>
0

> <r_mmod_RMS_Derivative-OPLS-2005>
2.55764222145081

$$$$
